KIL.pdb
     RDKit          3D

 26 25  0  0  1  0  0  0  0  0999 V2000
   22.0116  -21.9618  -17.2276 N   0  0  0  0  0  0  0  0  0  0  0  0
   22.3959  -20.8640  -16.4005 C   0  0  1  0  0  0  0  0  0  0  0  0
   21.2945  -20.4258  -15.4543 C   0  0  0  0  0  0  0  0  0  0  0  0
   20.3013  -19.5513  -16.2088 C   0  0  0  0  0  0  0  0  0  0  0  0
   19.3136  -20.5237  -16.8659 C   0  0  0  0  0  0  0  0  0  0  0  0
   18.2645  -19.7312  -17.6098 C   0  0  0  0  0  0  0  0  0  0  0  0
   18.8265  -19.4438  -18.9378 N   0  0  0  0  0  0  0  0  0  0  0  0
   23.5935  -21.1500  -15.5761 C   0  0  0  0  0  0  0  0  0  0  0  0
   23.7621  -22.2670  -15.0285 O   0  0  0  0  0  0  0  0  0  0  0  0
   28.4788  -19.1324  -16.9739 C   0  0  0  0  0  0  0  0  0  0  0  0
   27.3694  -20.0420  -16.4233 C   0  0  0  0  0  0  0  0  0  0  0  0
   26.9085  -19.5546  -15.0846 C   0  0  2  0  0  0  0  0  0  0  0  0
   28.1163  -19.5618  -14.1637 C   0  0  0  0  0  0  0  0  0  0  0  0
   25.7691  -20.3365  -14.5609 C   0  0  2  0  0  0  0  0  0  0  0  0
   24.5717  -20.1442  -15.3995 N   0  0  0  0  0  0  0  0  0  0  0  0
   25.3716  -19.9171  -13.1972 C   0  0  0  0  0  0  0  0  0  0  0  0
   24.4242  -19.0730  -13.1010 O   0  0  0  0  0  0  0  0  0  0  0  0
   22.6393  -19.4308   -9.9670 C   0  0  0  0  0  0  0  0  0  0  0  0
   22.8170  -20.5331  -10.9901 C   0  0  2  0  0  0  0  0  0  0  0  0
   21.6014  -21.3933  -11.1799 C   0  0  0  0  0  0  0  0  0  0  0  0
   24.1150  -21.2276  -10.9221 C   0  0  0  0  0  0  0  0  0  0  0  0
   25.3622  -20.4860  -10.7291 C   0  0  2  0  0  0  0  0  0  0  0  0
   26.0073  -20.4213  -12.0275 N   0  0  0  0  0  0  0  0  0  0  0  0
   26.2653  -20.8435   -9.6487 C   0  0  0  0  0  0  0  0  0  0  0  0
   26.2972  -20.2345   -8.4066 O   0  0  0  0  0  0  0  0  0  0  0  0
   27.1007  -21.7657   -9.8029 O   0  0  0  0  0  0  0  0  0  0  0  0
  2  3  1  0
  2  1  1  1
  4  3  1  0
  5  4  1  0
  5  6  1  0
  7  6  1  0
  8  9  2  0
  8  2  1  0
 11 10  1  0
 12 11  1  0
 12 14  1  0
 12 13  1  1
 14 15  1  6
 15  8  1  0
 16 14  1  0
 17 16  2  0
 19 18  1  1
 19 21  1  0
 20 19  1  0
 22 21  1  6
 22 23  1  0
 22 24  1  0
 23 16  1  0
 24 25  1  0
 26 24  2  0
M  END
$$$$
