KIL.pdb
     RDKit          3D

 26 25  0  0  1  0  0  0  0  0999 V2000
   27.1368  -24.9103  -17.0588 N   0  0  0  0  0  0  0  0  0  0  0  0
   25.7679  -24.5189  -16.9604 C   0  0  1  0  0  0  0  0  0  0  0  0
   24.9452  -25.4636  -16.1054 C   0  0  0  0  0  0  0  0  0  0  0  0
   24.2029  -26.4413  -17.0076 C   0  0  0  0  0  0  0  0  0  0  0  0
   23.3042  -27.2616  -16.0735 C   0  0  0  0  0  0  0  0  0  0  0  0
   22.0111  -26.5127  -15.8522 C   0  0  0  0  0  0  0  0  0  0  0  0
   21.1687  -27.3792  -15.0145 N   0  0  0  0  0  0  0  0  0  0  0  0
   25.5924  -23.1576  -16.4020 C   0  0  0  0  0  0  0  0  0  0  0  0
   26.5350  -22.5549  -15.8327 O   0  0  0  0  0  0  0  0  0  0  0  0
   23.5251  -19.3233  -19.3103 C   0  0  0  0  0  0  0  0  0  0  0  0
   24.3006  -20.0774  -18.2188 C   0  0  0  0  0  0  0  0  0  0  0  0
   23.4244  -20.3262  -17.0304 C   0  0  2  0  0  0  0  0  0  0  0  0
   22.9772  -18.9710  -16.5104 C   0  0  0  0  0  0  0  0  0  0  0  0
   24.0881  -21.1565  -16.0038 C   0  0  2  0  0  0  0  0  0  0  0  0
   24.3354  -22.5188  -16.5109 N   0  0  0  0  0  0  0  0  0  0  0  0
   23.2582  -21.3285  -14.7891 C   0  0  0  0  0  0  0  0  0  0  0  0
   22.1744  -21.9837  -14.9127 O   0  0  0  0  0  0  0  0  0  0  0  0
   24.9540  -22.6961  -11.0662 C   0  0  0  0  0  0  0  0  0  0  0  0
   24.9835  -21.1836  -10.9950 C   0  0  2  0  0  0  0  0  0  0  0  0
   25.8350  -20.6400   -9.8845 C   0  0  0  0  0  0  0  0  0  0  0  0
   23.6766  -20.5356  -11.2046 C   0  0  0  0  0  0  0  0  0  0  0  0
   22.8183  -20.9072  -12.3306 C   0  0  2  0  0  0  0  0  0  0  0  0
   23.6344  -20.7923  -13.5251 N   0  0  0  0  0  0  0  0  0  0  0  0
   21.4984  -20.3162  -12.4695 C   0  0  0  0  0  0  0  0  0  0  0  0
   21.1839  -19.2661  -13.3139 O   0  0  0  0  0  0  0  0  0  0  0  0
   20.5367  -20.7525  -11.7936 O   0  0  0  0  0  0  0  0  0  0  0  0
  2  3  1  0
  2  1  1  1
  4  3  1  0
  5  4  1  0
  5  6  1  0
  7  6  1  0
  8  9  2  0
  8  2  1  0
 11 10  1  0
 12 11  1  0
 12 14  1  0
 12 13  1  1
 14 15  1  6
 15  8  1  0
 16 14  1  0
 17 16  2  0
 19 18  1  1
 19 21  1  0
 20 19  1  0
 22 21  1  1
 22 23  1  0
 22 24  1  0
 23 16  1  0
 24 25  1  0
 26 24  2  0
M  END
$$$$
