KIL.pdb
     RDKit          3D

 26 25  0  0  1  0  0  0  0  0999 V2000
   22.4816  -20.5304  -16.4014 N   0  0  0  0  0  0  0  0  0  0  0  0
   22.8451  -20.0897  -15.0935 C   0  0  1  0  0  0  0  0  0  0  0  0
   21.7906  -20.4076  -14.0508 C   0  0  0  0  0  0  0  0  0  0  0  0
   20.5010  -19.6756  -14.3999 C   0  0  0  0  0  0  0  0  0  0  0  0
   19.4717  -20.7740  -14.6950 C   0  0  0  0  0  0  0  0  0  0  0  0
   18.2196  -20.1380  -15.2515 C   0  0  0  0  0  0  0  0  0  0  0  0
   17.6405  -19.3396  -14.1609 N   0  0  0  0  0  0  0  0  0  0  0  0
   24.1212  -20.6738  -14.6182 C   0  0  0  0  0  0  0  0  0  0  0  0
   24.3978  -21.8844  -14.8018 O   0  0  0  0  0  0  0  0  0  0  0  0
   28.7041  -18.7296  -15.9049 C   0  0  0  0  0  0  0  0  0  0  0  0
   27.5488  -19.6153  -15.4129 C   0  0  0  0  0  0  0  0  0  0  0  0
   27.4681  -19.5888  -13.9180 C   0  0  2  0  0  0  0  0  0  0  0  0
   28.8087  -20.0667  -13.3873 C   0  0  0  0  0  0  0  0  0  0  0  0
   26.3233  -20.3669  -13.4006 C   0  0  2  0  0  0  0  0  0  0  0  0
   25.0520  -19.8518  -13.9415 N   0  0  0  0  0  0  0  0  0  0  0  0
   26.1948  -20.2770  -11.9278 C   0  0  0  0  0  0  0  0  0  0  0  0
   25.8609  -19.1499  -11.4406 O   0  0  0  0  0  0  0  0  0  0  0  0
   26.5359  -19.4734   -7.2322 C   0  0  0  0  0  0  0  0  0  0  0  0
   27.6653  -20.3650   -7.7045 C   0  0  2  0  0  0  0  0  0  0  0  0
   29.0257  -19.9207   -7.2511 C   0  0  0  0  0  0  0  0  0  0  0  0
   27.5475  -20.8123   -9.1037 C   0  0  0  0  0  0  0  0  0  0  0  0
   26.2851  -21.3353   -9.6285 C   0  0  2  0  0  0  0  0  0  0  0  0
   26.4305  -21.3895  -11.0714 N   0  0  0  0  0  0  0  0  0  0  0  0
   25.0210  -20.7669   -9.1927 C   0  0  0  0  0  0  0  0  0  0  0  0
   24.1386  -21.3729   -8.3159 O   0  0  0  0  0  0  0  0  0  0  0  0
   24.6537  -19.6452   -9.6158 O   0  0  0  0  0  0  0  0  0  0  0  0
  2  3  1  0
  2  1  1  6
  4  3  1  0
  5  4  1  0
  5  6  1  0
  7  6  1  0
  8  9  2  0
  8  2  1  0
 11 10  1  0
 12 11  1  0
 12 14  1  0
 12 13  1  1
 14 15  1  6
 15  8  1  0
 16 14  1  0
 17 16  2  0
 19 18  1  6
 19 21  1  0
 20 19  1  0
 22 21  1  1
 22 23  1  0
 22 24  1  0
 23 16  1  0
 24 25  1  0
 26 24  2  0
M  END
$$$$
