KIL.pdb
     RDKit          3D

 26 25  0  0  1  0  0  0  0  0999 V2000
   27.8555  -34.9499   -5.0735 N   0  0  0  0  0  0  0  0  0  0  0  0
   26.5478  -34.6346   -4.5967 C   0  0  1  0  0  0  0  0  0  0  0  0
   25.6289  -35.8406   -4.5569 C   0  0  0  0  0  0  0  0  0  0  0  0
   25.3887  -36.3371   -5.9770 C   0  0  0  0  0  0  0  0  0  0  0  0
   24.1196  -35.6199   -6.4542 C   0  0  0  0  0  0  0  0  0  0  0  0
   23.7012  -36.1951   -7.7870 C   0  0  0  0  0  0  0  0  0  0  0  0
   22.5368  -35.4132   -8.2286 N   0  0  0  0  0  0  0  0  0  0  0  0
   26.5526  -34.0427   -3.2383 C   0  0  0  0  0  0  0  0  0  0  0  0
   27.5514  -34.1385   -2.4839 O   0  0  0  0  0  0  0  0  0  0  0  0
   25.0107  -29.0666   -2.5727 C   0  0  0  0  0  0  0  0  0  0  0  0
   25.6265  -30.4706   -2.4689 C   0  0  0  0  0  0  0  0  0  0  0  0
   24.8084  -31.3357   -1.5608 C   0  0  2  0  0  0  0  0  0  0  0  0
   24.7134  -30.6202   -0.2243 C   0  0  0  0  0  0  0  0  0  0  0  0
   25.3463  -32.7078   -1.4526 C   0  0  2  0  0  0  0  0  0  0  0  0
   25.4075  -33.3528   -2.7771 N   0  0  0  0  0  0  0  0  0  0  0  0
   24.4940  -33.5878   -0.6202 C   0  0  0  0  0  0  0  0  0  0  0  0
   23.3613  -33.9198   -1.0956 O   0  0  0  0  0  0  0  0  0  0  0  0
   24.5682  -37.5624    0.2676 C   0  0  0  0  0  0  0  0  0  0  0  0
   25.5150  -36.9308    1.2667 C   0  0  2  0  0  0  0  0  0  0  0  0
   26.4208  -37.9105    1.9548 C   0  0  0  0  0  0  0  0  0  0  0  0
   24.9069  -35.8865    2.1102 C   0  0  0  0  0  0  0  0  0  0  0  0
   24.0530  -34.8475    1.5324 C   0  0  2  0  0  0  0  0  0  0  0  0
   24.9013  -34.0554    0.6612 N   0  0  0  0  0  0  0  0  0  0  0  0
   23.1925  -34.0491    2.3885 C   0  0  0  0  0  0  0  0  0  0  0  0
   22.1203  -34.5380    3.1138 O   0  0  0  0  0  0  0  0  0  0  0  0
   23.3922  -32.8174    2.5124 O   0  0  0  0  0  0  0  0  0  0  0  0
  2  3  1  0
  2  1  1  1
  4  3  1  0
  5  4  1  0
  5  6  1  0
  7  6  1  0
  8  9  2  0
  8  2  1  0
 11 10  1  0
 12 11  1  0
 12 14  1  0
 12 13  1  1
 14 15  1  6
 15  8  1  0
 16 14  1  0
 17 16  2  0
 19 18  1  1
 19 21  1  0
 20 19  1  0
 22 21  1  1
 22 23  1  0
 22 24  1  0
 23 16  1  0
 24 25  1  0
 26 24  2  0
M  END
$$$$
