KIL.pdb
     RDKit          3D

 26 25  0  0  1  0  0  0  0  0999 V2000
   22.7401  -34.9995  -12.0124 N   0  0  0  0  0  0  0  0  0  0  0  0
   22.8653  -33.8986  -11.1129 C   0  0  1  0  0  0  0  0  0  0  0  0
   21.5334  -33.2514  -10.7852 C   0  0  0  0  0  0  0  0  0  0  0  0
   20.9922  -32.5567  -12.0283 C   0  0  0  0  0  0  0  0  0  0  0  0
   19.6529  -31.9404  -11.6048 C   0  0  0  0  0  0  0  0  0  0  0  0
   19.0939  -31.1393  -12.7570 C   0  0  0  0  0  0  0  0  0  0  0  0
   17.8879  -30.4688  -12.2490 N   0  0  0  0  0  0  0  0  0  0  0  0
   23.5002  -34.2698   -9.8265 C   0  0  0  0  0  0  0  0  0  0  0  0
   23.3520  -35.4118   -9.3267 O   0  0  0  0  0  0  0  0  0  0  0  0
   28.3640  -32.0737   -8.6905 C   0  0  0  0  0  0  0  0  0  0  0  0
   27.2062  -33.0807   -8.7719 C   0  0  0  0  0  0  0  0  0  0  0  0
   26.1867  -32.7936   -7.7134 C   0  0  2  0  0  0  0  0  0  0  0  0
   26.8706  -32.9767   -6.3696 C   0  0  0  0  0  0  0  0  0  0  0  0
   24.9679  -33.6152   -7.8661 C   0  0  2  0  0  0  0  0  0  0  0  0
   24.2922  -33.3185   -9.1426 N   0  0  0  0  0  0  0  0  0  0  0  0
   23.9640  -33.3431   -6.8116 C   0  0  0  0  0  0  0  0  0  0  0  0
   23.0575  -32.4905   -7.0772 O   0  0  0  0  0  0  0  0  0  0  0  0
   20.3149  -34.6966   -3.2402 C   0  0  0  0  0  0  0  0  0  0  0  0
   20.4018  -33.8585   -4.4986 C   0  0  2  0  0  0  0  0  0  0  0  0
   19.1498  -33.8673   -5.3270 C   0  0  0  0  0  0  0  0  0  0  0  0
   21.6776  -33.9780   -5.2265 C   0  0  0  0  0  0  0  0  0  0  0  0
   22.9603  -33.8283   -4.5373 C   0  0  2  0  0  0  0  0  0  0  0  0
   23.9907  -33.9938   -5.5457 N   0  0  0  0  0  0  0  0  0  0  0  0
   23.2222  -34.5646   -3.3125 C   0  0  0  0  0  0  0  0  0  0  0  0
   22.9299  -34.1136   -2.0374 O   0  0  0  0  0  0  0  0  0  0  0  0
   23.7544  -35.6989   -3.3590 O   0  0  0  0  0  0  0  0  0  0  0  0
  2  3  1  0
  2  1  1  6
  4  3  1  0
  5  4  1  0
  5  6  1  0
  7  6  1  0
  8  9  2  0
  8  2  1  0
 11 10  1  0
 12 11  1  0
 12 14  1  0
 12 13  1  1
 14 15  1  6
 15  8  1  0
 16 14  1  0
 17 16  2  0
 19 18  1  1
 19 21  1  0
 20 19  1  0
 22 21  1  6
 22 23  1  0
 22 24  1  0
 23 16  1  0
 24 25  1  0
 26 24  2  0
M  END
$$$$
