KIL.pdb
     RDKit          3D

 26 25  0  0  1  0  0  0  0  0999 V2000
   29.7944  -23.2477  -17.6558 N   0  0  0  0  0  0  0  0  0  0  0  0
   28.4386  -23.3752  -17.2288 C   0  0  1  0  0  0  0  0  0  0  0  0
   28.2260  -24.5422  -16.2837 C   0  0  0  0  0  0  0  0  0  0  0  0
   28.7799  -25.8113  -16.9188 C   0  0  0  0  0  0  0  0  0  0  0  0
   27.6081  -26.4292  -17.6922 C   0  0  0  0  0  0  0  0  0  0  0  0
   28.0653  -27.7209  -18.3284 C   0  0  0  0  0  0  0  0  0  0  0  0
   26.9770  -28.1526  -19.2179 N   0  0  0  0  0  0  0  0  0  0  0  0
   27.9280  -22.1620  -16.5485 C   0  0  0  0  0  0  0  0  0  0  0  0
   28.6646  -21.4653  -15.8083 O   0  0  0  0  0  0  0  0  0  0  0  0
   25.7960  -18.3231  -19.1431 C   0  0  0  0  0  0  0  0  0  0  0  0
   26.4539  -19.1817  -18.0517 C   0  0  0  0  0  0  0  0  0  0  0  0
   25.4270  -19.6641  -17.0745 C   0  0  2  0  0  0  0  0  0  0  0  0
   24.7848  -18.4352  -16.4544 C   0  0  0  0  0  0  0  0  0  0  0  0
   25.9917  -20.5957  -16.0760 C   0  0  2  0  0  0  0  0  0  0  0  0
   26.5802  -21.7764  -16.7345 N   0  0  0  0  0  0  0  0  0  0  0  0
   24.9647  -21.1267  -15.1502 C   0  0  0  0  0  0  0  0  0  0  0  0
   24.8658  -22.3918  -15.0546 O   0  0  0  0  0  0  0  0  0  0  0  0
   23.8055  -20.6513  -10.0600 C   0  0  0  0  0  0  0  0  0  0  0  0
   25.0387  -21.0379  -10.8495 C   0  0  2  0  0  0  0  0  0  0  0  0
   26.3283  -20.8324  -10.1090 C   0  0  0  0  0  0  0  0  0  0  0  0
   25.0144  -20.6241  -12.2637 C   0  0  0  0  0  0  0  0  0  0  0  0
   23.7557  -20.5331  -13.0052 C   0  0  2  0  0  0  0  0  0  0  0  0
   24.1111  -20.2790  -14.3891 N   0  0  0  0  0  0  0  0  0  0  0  0
   22.6794  -19.6880  -12.5172 C   0  0  0  0  0  0  0  0  0  0  0  0
   21.6113  -20.1249  -11.7535 O   0  0  0  0  0  0  0  0  0  0  0  0
   22.6688  -18.4625  -12.7822 O   0  0  0  0  0  0  0  0  0  0  0  0
  2  3  1  0
  2  1  1  1
  4  3  1  0
  5  4  1  0
  5  6  1  0
  7  6  1  0
  8  9  2  0
  8  2  1  0
 11 10  1  0
 12 11  1  0
 12 14  1  0
 12 13  1  1
 14 15  1  6
 15  8  1  0
 16 14  1  0
 17 16  2  0
 19 18  1  1
 19 21  1  0
 20 19  1  0
 22 21  1  1
 22 23  1  0
 22 24  1  0
 23 16  1  0
 24 25  1  0
 26 24  2  0
M  END
$$$$
