KIL.pdb
     RDKit          3D

 26 25  0  0  1  0  0  0  0  0999 V2000
   23.5965  -19.4193  -16.2783 N   0  0  0  0  0  0  0  0  0  0  0  0
   23.6554  -19.4845  -14.8538 C   0  0  1  0  0  0  0  0  0  0  0  0
   22.3224  -19.8423  -14.2251 C   0  0  0  0  0  0  0  0  0  0  0  0
   21.2441  -18.9140  -14.7693 C   0  0  0  0  0  0  0  0  0  0  0  0
   20.0304  -19.1114  -13.8524 C   0  0  0  0  0  0  0  0  0  0  0  0
   18.9255  -18.1794  -14.2914 C   0  0  0  0  0  0  0  0  0  0  0  0
   17.7895  -18.4312  -13.3925 N   0  0  0  0  0  0  0  0  0  0  0  0
   24.6504  -20.4645  -14.3585 C   0  0  0  0  0  0  0  0  0  0  0  0
   24.5549  -21.6879  -14.6231 O   0  0  0  0  0  0  0  0  0  0  0  0
   29.8819  -19.2515  -14.6260 C   0  0  0  0  0  0  0  0  0  0  0  0
   28.5698  -20.0505  -14.5900 C   0  0  0  0  0  0  0  0  0  0  0  0
   28.1207  -20.2571  -13.1766 C   0  0  2  0  0  0  0  0  0  0  0  0
   29.2209  -21.0238  -12.4633 C   0  0  0  0  0  0  0  0  0  0  0  0
   26.8007  -20.9163  -13.0944 C   0  0  2  0  0  0  0  0  0  0  0  0
   25.7344  -20.0154  -13.5690 N   0  0  0  0  0  0  0  0  0  0  0  0
   26.4304  -21.2746  -11.7058 C   0  0  0  0  0  0  0  0  0  0  0  0
   26.7303  -22.4453  -11.3072 O   0  0  0  0  0  0  0  0  0  0  0  0
   27.5724  -21.3233   -7.5378 C   0  0  0  0  0  0  0  0  0  0  0  0
   27.2935  -19.9288   -8.0585 C   0  0  2  0  0  0  0  0  0  0  0  0
   27.8396  -18.8316   -7.1915 C   0  0  0  0  0  0  0  0  0  0  0  0
   25.9335  -19.7356   -8.5922 C   0  0  0  0  0  0  0  0  0  0  0  0
   25.3275  -20.7151   -9.4954 C   0  0  2  0  0  0  0  0  0  0  0  0
   25.7657  -20.3663  -10.8342 N   0  0  0  0  0  0  0  0  0  0  0  0
   23.9077  -21.0102   -9.4071 C   0  0  0  0  0  0  0  0  0  0  0  0
   23.2808  -21.5730   -8.3094 O   0  0  0  0  0  0  0  0  0  0  0  0
   23.1488  -20.7572  -10.3726 O   0  0  0  0  0  0  0  0  0  0  0  0
  2  3  1  0
  2  1  1  6
  4  3  1  0
  5  4  1  0
  5  6  1  0
  7  6  1  0
  8  9  2  0
  8  2  1  0
 11 10  1  0
 12 11  1  0
 12 14  1  0
 12 13  1  1
 14 15  1  1
 15  8  1  0
 16 14  1  0
 17 16  2  0
 19 18  1  1
 19 21  1  0
 20 19  1  0
 22 21  1  1
 22 23  1  0
 22 24  1  0
 23 16  1  0
 24 25  1  0
 26 24  2  0
M  END
$$$$
