KIL.pdb
     RDKit          3D

 26 25  0  0  1  0  0  0  0  0999 V2000
   22.0915  -19.9675  -16.8014 N   0  0  0  0  0  0  0  0  0  0  0  0
   22.6688  -19.4604  -15.5988 C   0  0  1  0  0  0  0  0  0  0  0  0
   21.7278  -19.5457  -14.4123 C   0  0  0  0  0  0  0  0  0  0  0  0
   20.3495  -19.9808  -14.8936 C   0  0  0  0  0  0  0  0  0  0  0  0
   19.4598  -19.9844  -13.6440 C   0  0  0  0  0  0  0  0  0  0  0  0
   19.2137  -21.4132  -13.2197 C   0  0  0  0  0  0  0  0  0  0  0  0
   18.3158  -21.9960  -14.2277 N   0  0  0  0  0  0  0  0  0  0  0  0
   23.9195  -20.1571  -15.2168 C   0  0  0  0  0  0  0  0  0  0  0  0
   24.1293  -21.3526  -15.5375 O   0  0  0  0  0  0  0  0  0  0  0  0
   28.2959  -17.0300  -15.3340 C   0  0  0  0  0  0  0  0  0  0  0  0
   27.3938  -18.2661  -15.4742 C   0  0  0  0  0  0  0  0  0  0  0  0
   27.2614  -18.9700  -14.1593 C   0  0  2  0  0  0  0  0  0  0  0  0
   28.6413  -19.4809  -13.7824 C   0  0  0  0  0  0  0  0  0  0  0  0
   26.2328  -20.0306  -14.1880 C   0  0  2  0  0  0  0  0  0  0  0  0
   24.9023  -19.4630  -14.4738 N   0  0  0  0  0  0  0  0  0  0  0  0
   26.0978  -20.7261  -12.8872 C   0  0  0  0  0  0  0  0  0  0  0  0
   26.6087  -21.8877  -12.7927 O   0  0  0  0  0  0  0  0  0  0  0  0
   27.7066  -21.3444   -9.1323 C   0  0  0  0  0  0  0  0  0  0  0  0
   26.9733  -20.0195   -9.1531 C   0  0  2  0  0  0  0  0  0  0  0  0
   27.3747  -19.0809   -8.0523 C   0  0  0  0  0  0  0  0  0  0  0  0
   25.5319  -20.1225   -9.4421 C   0  0  0  0  0  0  0  0  0  0  0  0
   25.0418  -20.8862  -10.5906 C   0  0  2  0  0  0  0  0  0  0  0  0
   25.4288  -20.1418  -11.7748 N   0  0  0  0  0  0  0  0  0  0  0  0
   23.6675  -21.3562  -10.6231 C   0  0  0  0  0  0  0  0  0  0  0  0
   23.1072  -22.2342   -9.7120 O   0  0  0  0  0  0  0  0  0  0  0  0
   22.8887  -20.9691  -11.5263 O   0  0  0  0  0  0  0  0  0  0  0  0
  2  3  1  0
  2  1  1  6
  4  3  1  0
  5  4  1  0
  5  6  1  0
  7  6  1  0
  8  9  2  0
  8  2  1  0
 11 10  1  0
 12 11  1  0
 12 14  1  0
 12 13  1  6
 14 15  1  1
 15  8  1  0
 16 14  1  0
 17 16  2  0
 19 18  1  1
 19 21  1  0
 20 19  1  0
 22 21  1  1
 22 23  1  0
 22 24  1  0
 23 16  1  0
 24 25  1  0
 26 24  2  0
M  END
$$$$
