HNW.pdb
     RDKit          3D

 33 35  0  0  1  0  0  0  0  0999 V2000
   25.5893  -16.4520  -19.7229 N   0  0  0  0  0  0  0  0  0  0  0  0
   25.2938  -17.6463  -18.9577 C   0  0  1  0  0  0  0  0  0  0  0  0
   26.6343  -18.2577  -18.5507 C   0  0  0  0  0  0  0  0  0  0  0  0
   27.3335  -18.6501  -19.7982 C   0  0  0  0  0  0  0  0  0  0  0  0
   27.0981  -19.7980  -20.5239 C   0  0  0  0  0  0  0  0  0  0  0  0
   27.9332  -19.7846  -21.5798 N   0  0  0  0  0  0  0  0  0  0  0  0
   28.6787  -18.6766  -21.5426 C   0  0  0  0  0  0  0  0  0  0  0  0
   28.3082  -17.9908  -20.4556 N   0  0  0  0  0  0  0  0  0  0  0  0
   24.4084  -17.4150  -17.8185 C   0  0  0  0  0  0  0  0  0  0  0  0
   24.2065  -16.2479  -17.4112 O   0  0  0  0  0  0  0  0  0  0  0  0
   20.5333  -16.5543  -14.3688 N   0  0  0  0  0  0  0  0  0  0  0  0
   20.5786  -17.4797  -15.4446 C   0  0  0  0  0  0  0  0  0  0  0  0
   19.6909  -18.3499  -15.5249 O   0  0  0  0  0  0  0  0  0  0  0  0
   21.6580  -17.4137  -16.4521 C   0  0  0  0  0  0  0  0  0  0  0  0
   22.7619  -18.3726  -16.1475 C   0  0  2  0  0  0  0  0  0  0  0  0
   23.7653  -18.4994  -17.1573 N   0  0  0  0  0  0  0  0  0  0  0  0
   22.2175  -19.6915  -15.7192 C   0  0  0  0  0  0  0  0  0  0  0  0
   21.8016  -20.4575  -16.6346 O   0  0  0  0  0  0  0  0  0  0  0  0
   22.1831  -20.0339  -14.3496 N   0  0  0  0  0  0  0  0  0  0  0  0
   21.8044  -21.3700  -13.9327 C   0  0  1  0  0  0  0  0  0  0  0  0
   23.0102  -22.1669  -13.4903 C   0  0  0  0  0  0  0  0  0  0  0  0
   23.6085  -21.4878  -12.3213 C   0  0  0  0  0  0  0  0  0  0  0  0
   22.9409  -21.1144  -11.1736 C   0  0  0  0  0  0  0  0  0  0  0  0
   23.8341  -20.5217  -10.3383 N   0  0  0  0  0  0  0  0  0  0  0  0
   25.0523  -20.4969  -10.9006 C   0  0  0  0  0  0  0  0  0  0  0  0
   26.2897  -20.0336  -10.5247 C   0  0  0  0  0  0  0  0  0  0  0  0
   27.3729  -20.1550  -11.3413 C   0  0  0  0  0  0  0  0  0  0  0  0
   27.2337  -20.7504  -12.5639 C   0  0  0  0  0  0  0  0  0  0  0  0
   26.0182  -21.2271  -12.9792 C   0  0  0  0  0  0  0  0  0  0  0  0
   24.9156  -21.0968  -12.1337 C   0  0  0  0  0  0  0  0  0  0  0  0
   20.7482  -21.3089  -12.8721 C   0  0  0  0  0  0  0  0  0  0  0  0
   20.5167  -20.2145  -12.2746 O   0  0  0  0  0  0  0  0  0  0  0  0
   19.9839  -22.3917  -12.4853 O   0  0  0  0  0  0  0  0  0  0  0  0
  2  1  1  1
  2  3  1  0
  3  4  1  0
  4  8  1  0
  5  4  2  0
  5  6  1  0
  6  7  1  0
  8  7  2  0
  9  2  1  0
  9 10  2  0
 11 12  1  0
 12 14  1  0
 13 12  2  0
 15 14  1  6
 15 16  1  0
 16  9  1  0
 17 15  1  0
 18 17  2  0
 19 17  1  0
 20 19  1  0
 20 31  1  0
 20 21  1  1
 22 21  1  0
 23 22  2  0
 24 25  1  0
 24 23  1  0
 25 30  2  0
 26 25  1  0
 26 27  2  0
 27 28  1  0
 28 29  2  0
 30 22  1  0
 30 29  1  0
 31 33  1  0
 32 31  2  0
M  END
$$$$
