HNW.pdb
     RDKit          3D

 33 35  0  0  1  0  0  0  0  0999 V2000
   29.8638  -22.3126  -18.6177 N   0  0  0  0  0  0  0  0  0  0  0  0
   29.2623  -22.8379  -17.4088 C   0  0  1  0  0  0  0  0  0  0  0  0
   30.4076  -23.2448  -16.4819 C   0  0  0  0  0  0  0  0  0  0  0  0
   31.0842  -24.4075  -17.1061 C   0  0  0  0  0  0  0  0  0  0  0  0
   32.3454  -24.3996  -17.6621 C   0  0  0  0  0  0  0  0  0  0  0  0
   32.5910  -25.6418  -18.1193 N   0  0  0  0  0  0  0  0  0  0  0  0
   31.5361  -26.4231  -17.8715 C   0  0  0  0  0  0  0  0  0  0  0  0
   30.6229  -25.6652  -17.2545 N   0  0  0  0  0  0  0  0  0  0  0  0
   28.3174  -21.9229  -16.7724 C   0  0  0  0  0  0  0  0  0  0  0  0
   28.6964  -20.7850  -16.4113 O   0  0  0  0  0  0  0  0  0  0  0  0
   24.5550  -19.2263  -17.8013 N   0  0  0  0  0  0  0  0  0  0  0  0
   24.7658  -20.6302  -17.7783 C   0  0  0  0  0  0  0  0  0  0  0  0
   25.0376  -21.2133  -18.8450 O   0  0  0  0  0  0  0  0  0  0  0  0
   24.6655  -21.3879  -16.5133 C   0  0  0  0  0  0  0  0  0  0  0  0
   25.9930  -21.5294  -15.8435 C   0  0  2  0  0  0  0  0  0  0  0  0
   26.9630  -22.3028  -16.5531 N   0  0  0  0  0  0  0  0  0  0  0  0
   25.8315  -21.9778  -14.4321 C   0  0  0  0  0  0  0  0  0  0  0  0
   26.3989  -23.0612  -14.1129 O   0  0  0  0  0  0  0  0  0  0  0  0
   25.0741  -21.2051  -13.5245 N   0  0  0  0  0  0  0  0  0  0  0  0
   25.0788  -21.5162  -12.1083 C   0  0  1  0  0  0  0  0  0  0  0  0
   26.4755  -21.4373  -11.5359 C   0  0  0  0  0  0  0  0  0  0  0  0
   26.3801  -20.9134  -10.1567 C   0  0  0  0  0  0  0  0  0  0  0  0
   25.2313  -20.4634   -9.5401 C   0  0  0  0  0  0  0  0  0  0  0  0
   25.5544  -20.0666   -8.2811 N   0  0  0  0  0  0  0  0  0  0  0  0
   26.8662  -20.2421   -8.0597 C   0  0  0  0  0  0  0  0  0  0  0  0
   27.7141  -20.0195   -7.0019 C   0  0  0  0  0  0  0  0  0  0  0  0
   29.0430  -20.3066   -7.0830 C   0  0  0  0  0  0  0  0  0  0  0  0
   29.5520  -20.8284   -8.2393 C   0  0  0  0  0  0  0  0  0  0  0  0
   28.7426  -21.0668   -9.3188 C   0  0  0  0  0  0  0  0  0  0  0  0
   27.3827  -20.7684   -9.2238 C   0  0  0  0  0  0  0  0  0  0  0  0
   24.1173  -20.6327  -11.3740 C   0  0  0  0  0  0  0  0  0  0  0  0
   23.9803  -19.4214  -11.7238 O   0  0  0  0  0  0  0  0  0  0  0  0
   23.3446  -21.0544  -10.3104 O   0  0  0  0  0  0  0  0  0  0  0  0
  2  1  1  6
  2  3  1  0
  3  4  1  0
  4  8  1  0
  5  4  2  0
  5  6  1  0
  6  7  1  0
  8  7  2  0
  9  2  1  0
  9 10  2  0
 11 12  1  0
 12 14  1  0
 13 12  2  0
 15 14  1  6
 15 16  1  0
 16  9  1  0
 17 15  1  0
 18 17  2  0
 19 17  1  0
 20 19  1  0
 20 31  1  0
 20 21  1  1
 22 21  1  0
 23 22  2  0
 24 25  1  0
 24 23  1  0
 25 30  2  0
 26 25  1  0
 26 27  2  0
 27 28  1  0
 28 29  2  0
 30 22  1  0
 30 29  1  0
 31 33  1  0
 32 31  2  0
M  END
$$$$
