HNW.pdb
     RDKit          3D

 33 35  0  0  1  0  0  0  0  0999 V2000
   17.7048   -6.6298  -18.8981 N   0  0  0  0  0  0  0  0  0  0  0  0
   17.5283   -5.8452  -17.6929 C   0  0  1  0  0  0  0  0  0  0  0  0
   16.1219   -6.1398  -17.1716 C   0  0  0  0  0  0  0  0  0  0  0  0
   15.1742   -5.3588  -18.0029 C   0  0  0  0  0  0  0  0  0  0  0  0
   14.5643   -5.8020  -19.1568 C   0  0  0  0  0  0  0  0  0  0  0  0
   13.7847   -4.8019  -19.6091 N   0  0  0  0  0  0  0  0  0  0  0  0
   13.8832   -3.7546  -18.7856 C   0  0  0  0  0  0  0  0  0  0  0  0
   14.7305   -4.1008  -17.8102 N   0  0  0  0  0  0  0  0  0  0  0  0
   18.5631   -6.0674  -16.6855 C   0  0  0  0  0  0  0  0  0  0  0  0
   19.0995   -7.1942  -16.5790 O   0  0  0  0  0  0  0  0  0  0  0  0
   22.2441   -5.3507  -13.2184 N   0  0  0  0  0  0  0  0  0  0  0  0
   21.8662   -4.0432  -13.6226 C   0  0  0  0  0  0  0  0  0  0  0  0
   22.5685   -3.0785  -13.2651 O   0  0  0  0  0  0  0  0  0  0  0  0
   20.6622   -3.8280  -14.4524 C   0  0  0  0  0  0  0  0  0  0  0  0
   20.0166   -5.1180  -14.8399 C   0  0  2  0  0  0  0  0  0  0  0  0
   18.9769   -5.0192  -15.8156 N   0  0  0  0  0  0  0  0  0  0  0  0
   19.5930   -5.8839  -13.6344 C   0  0  0  0  0  0  0  0  0  0  0  0
   20.4667   -6.0590  -12.7379 O   0  0  0  0  0  0  0  0  0  0  0  0
   18.2728   -6.3751  -13.5337 N   0  0  0  0  0  0  0  0  0  0  0  0
   17.8933   -7.2515  -12.4426 C   0  0  1  0  0  0  0  0  0  0  0  0
   18.1931   -6.6182  -11.1032 C   0  0  0  0  0  0  0  0  0  0  0  0
   17.1094   -6.9846  -10.1666 C   0  0  0  0  0  0  0  0  0  0  0  0
   16.8369   -8.2542   -9.7019 C   0  0  0  0  0  0  0  0  0  0  0  0
   15.7702   -8.1780   -8.8633 N   0  0  0  0  0  0  0  0  0  0  0  0
   15.3423   -6.9097   -8.7680 C   0  0  0  0  0  0  0  0  0  0  0  0
   14.3343   -6.2699   -8.0884 C   0  0  0  0  0  0  0  0  0  0  0  0
   14.1429   -4.9261   -8.1996 C   0  0  0  0  0  0  0  0  0  0  0  0
   14.9684   -4.1904   -9.0033 C   0  0  0  0  0  0  0  0  0  0  0  0
   15.9866   -4.7873   -9.6990 C   0  0  0  0  0  0  0  0  0  0  0  0
   16.1728   -6.1650   -9.5771 C   0  0  0  0  0  0  0  0  0  0  0  0
   16.4553   -7.6525  -12.5679 C   0  0  0  0  0  0  0  0  0  0  0  0
   15.6427   -6.9018  -13.1880 O   0  0  0  0  0  0  0  0  0  0  0  0
   15.9334   -8.8170  -12.0408 O   0  0  0  0  0  0  0  0  0  0  0  0
  2  1  1  6
  2  3  1  0
  3  4  1  0
  4  8  1  0
  5  4  2  0
  5  6  1  0
  6  7  1  0
  8  7  2  0
  9  2  1  0
  9 10  2  0
 11 12  1  0
 12 14  1  0
 13 12  2  0
 15 14  1  1
 15 16  1  0
 16  9  1  0
 17 15  1  0
 18 17  2  0
 19 17  1  0
 20 19  1  0
 20 31  1  0
 20 21  1  1
 22 21  1  0
 23 22  2  0
 24 25  1  0
 24 23  1  0
 25 30  2  0
 26 25  1  0
 26 27  2  0
 27 28  1  0
 28 29  2  0
 30 22  1  0
 30 29  1  0
 31 33  1  0
 32 31  2  0
M  END
$$$$
