HNW.pdb
     RDKit          3D

 33 35  0  0  1  0  0  0  0  0999 V2000
   23.0211  -18.0498  -19.8731 N   0  0  0  0  0  0  0  0  0  0  0  0
   23.8928  -17.8921  -18.7266 C   0  0  1  0  0  0  0  0  0  0  0  0
   24.7899  -16.6877  -19.0114 C   0  0  0  0  0  0  0  0  0  0  0  0
   25.6632  -17.0523  -20.1530 C   0  0  0  0  0  0  0  0  0  0  0  0
   26.7895  -17.8436  -20.0821 C   0  0  0  0  0  0  0  0  0  0  0  0
   27.2971  -17.9331  -21.3259 N   0  0  0  0  0  0  0  0  0  0  0  0
   26.5344  -17.2310  -22.1686 C   0  0  0  0  0  0  0  0  0  0  0  0
   25.5417  -16.6978  -21.4477 N   0  0  0  0  0  0  0  0  0  0  0  0
   23.1827  -17.7803  -17.4544 C   0  0  0  0  0  0  0  0  0  0  0  0
   23.1376  -16.6795  -16.8588 O   0  0  0  0  0  0  0  0  0  0  0  0
   22.1911  -16.3346  -14.8406 N   0  0  0  0  0  0  0  0  0  0  0  0
   20.9065  -16.5259  -15.4142 C   0  0  0  0  0  0  0  0  0  0  0  0
   20.1222  -15.5594  -15.4644 O   0  0  0  0  0  0  0  0  0  0  0  0
   20.5050  -17.8464  -15.9429 C   0  0  0  0  0  0  0  0  0  0  0  0
   21.5951  -18.8574  -15.7992 C   0  0  2  0  0  0  0  0  0  0  0  0
   22.5355  -18.9079  -16.8742 N   0  0  0  0  0  0  0  0  0  0  0  0
   21.0365  -20.1986  -15.4700 C   0  0  0  0  0  0  0  0  0  0  0  0
   20.5384  -20.8560  -16.4278 O   0  0  0  0  0  0  0  0  0  0  0  0
   21.0784  -20.6781  -14.1424 N   0  0  0  0  0  0  0  0  0  0  0  0
   20.5819  -22.0019  -13.8204 C   0  0  1  0  0  0  0  0  0  0  0  0
   21.5536  -22.7502  -12.9369 C   0  0  0  0  0  0  0  0  0  0  0  0
   22.0411  -21.8203  -11.8961 C   0  0  0  0  0  0  0  0  0  0  0  0
   21.2532  -21.0703  -11.0482 C   0  0  0  0  0  0  0  0  0  0  0  0
   22.0713  -20.3468  -10.2395 N   0  0  0  0  0  0  0  0  0  0  0  0
   23.3566  -20.5990  -10.5314 C   0  0  0  0  0  0  0  0  0  0  0  0
   24.5682  -20.1636  -10.0520 C   0  0  0  0  0  0  0  0  0  0  0  0
   25.7429  -20.6163  -10.5716 C   0  0  0  0  0  0  0  0  0  0  0  0
   25.7243  -21.5245  -11.5930 C   0  0  0  0  0  0  0  0  0  0  0  0
   24.5387  -21.9861  -12.1015 C   0  0  0  0  0  0  0  0  0  0  0  0
   23.3415  -21.5148  -11.5609 C   0  0  0  0  0  0  0  0  0  0  0  0
   19.2161  -21.9159  -13.2109 C   0  0  0  0  0  0  0  0  0  0  0  0
   18.5436  -22.9737  -13.0179 O   0  0  0  0  0  0  0  0  0  0  0  0
   18.6170  -20.7313  -12.8316 O   0  0  0  0  0  0  0  0  0  0  0  0
  2  1  1  6
  2  3  1  0
  3  4  1  0
  4  8  1  0
  5  4  2  0
  5  6  1  0
  6  7  1  0
  8  7  2  0
  9  2  1  0
  9 10  2  0
 11 12  1  0
 12 14  1  0
 13 12  2  0
 15 14  1  6
 15 16  1  0
 16  9  1  0
 17 15  1  0
 18 17  2  0
 19 17  1  0
 20 19  1  0
 20 31  1  0
 20 21  1  1
 22 21  1  0
 23 22  2  0
 24 25  1  0
 24 23  1  0
 25 30  2  0
 26 25  1  0
 26 27  2  0
 27 28  1  0
 28 29  2  0
 30 22  1  0
 30 29  1  0
 31 33  1  0
 32 31  2  0
M  END
$$$$
