HNW.pdb
     RDKit          3D

 33 35  0  0  1  0  0  0  0  0999 V2000
   27.0931  -22.6907  -17.6625 N   0  0  0  0  0  0  0  0  0  0  0  0
   26.1500  -22.0731  -16.7523 C   0  0  1  0  0  0  0  0  0  0  0  0
   24.9080  -22.9638  -16.7258 C   0  0  0  0  0  0  0  0  0  0  0  0
   24.1353  -22.6747  -17.9580 C   0  0  0  0  0  0  0  0  0  0  0  0
   23.3864  -21.5408  -18.1890 C   0  0  0  0  0  0  0  0  0  0  0  0
   22.8436  -21.6603  -19.4151 N   0  0  0  0  0  0  0  0  0  0  0  0
   23.2228  -22.8207  -19.9578 C   0  0  0  0  0  0  0  0  0  0  0  0
   24.0090  -23.4327  -19.0652 N   0  0  0  0  0  0  0  0  0  0  0  0
   26.6932  -21.8200  -15.4197 C   0  0  0  0  0  0  0  0  0  0  0  0
   27.2968  -22.7311  -14.8077 O   0  0  0  0  0  0  0  0  0  0  0  0
   29.5565  -18.6873  -14.3669 N   0  0  0  0  0  0  0  0  0  0  0  0
   28.2210  -18.2146  -14.2729 C   0  0  0  0  0  0  0  0  0  0  0  0
   27.8415  -17.3287  -15.0621 O   0  0  0  0  0  0  0  0  0  0  0  0
   27.2962  -18.7621  -13.2583 C   0  0  0  0  0  0  0  0  0  0  0  0
   27.0124  -20.2103  -13.4891 C   0  0  2  0  0  0  0  0  0  0  0  0
   26.5487  -20.5473  -14.7983 N   0  0  0  0  0  0  0  0  0  0  0  0
   26.1341  -20.7575  -12.4173 C   0  0  0  0  0  0  0  0  0  0  0  0
   24.9144  -20.9152  -12.7093 O   0  0  0  0  0  0  0  0  0  0  0  0
   26.6727  -21.0718  -11.1503 N   0  0  0  0  0  0  0  0  0  0  0  0
   25.8342  -21.6407  -10.1131 C   0  0  1  0  0  0  0  0  0  0  0  0
   26.6385  -21.9595   -8.8736 C   0  0  0  0  0  0  0  0  0  0  0  0
   26.7737  -20.7197   -8.0797 C   0  0  0  0  0  0  0  0  0  0  0  0
   26.0879  -19.5426   -8.2949 C   0  0  0  0  0  0  0  0  0  0  0  0
   26.4872  -18.6428   -7.3580 N   0  0  0  0  0  0  0  0  0  0  0  0
   27.4040  -19.1915   -6.5461 C   0  0  0  0  0  0  0  0  0  0  0  0
   28.1295  -18.7591   -5.4627 C   0  0  0  0  0  0  0  0  0  0  0  0
   29.0155  -19.5759   -4.8280 C   0  0  0  0  0  0  0  0  0  0  0  0
   29.1922  -20.8562   -5.2731 C   0  0  0  0  0  0  0  0  0  0  0  0
   28.4894  -21.3293   -6.3499 C   0  0  0  0  0  0  0  0  0  0  0  0
   27.5845  -20.4829   -6.9920 C   0  0  0  0  0  0  0  0  0  0  0  0
   24.6779  -20.7351   -9.8179 C   0  0  0  0  0  0  0  0  0  0  0  0
   24.6718  -19.5510  -10.2722 O   0  0  0  0  0  0  0  0  0  0  0  0
   23.5833  -21.1073   -9.0633 O   0  0  0  0  0  0  0  0  0  0  0  0
  2  1  1  6
  2  3  1  0
  3  4  1  0
  4  8  1  0
  5  4  2  0
  5  6  1  0
  6  7  1  0
  8  7  2  0
  9  2  1  0
  9 10  2  0
 11 12  1  0
 12 14  1  0
 13 12  2  0
 15 14  1  6
 15 16  1  0
 16  9  1  0
 17 15  1  0
 18 17  2  0
 19 17  1  0
 20 19  1  0
 20 31  1  0
 20 21  1  1
 22 21  1  0
 23 22  2  0
 24 25  1  0
 24 23  1  0
 25 30  2  0
 26 25  1  0
 26 27  2  0
 27 28  1  0
 28 29  2  0
 30 22  1  0
 30 29  1  0
 31 33  1  0
 32 31  2  0
M  END
$$$$
