HNW.pdb
     RDKit          3D

 33 35  0  0  1  0  0  0  0  0999 V2000
   26.8422  -19.5610  -17.4906 N   0  0  0  0  0  0  0  0  0  0  0  0
   27.6618  -19.8740  -16.3376 C   0  0  1  0  0  0  0  0  0  0  0  0
   29.0800  -19.4022  -16.6580 C   0  0  0  0  0  0  0  0  0  0  0  0
   29.5577  -20.2024  -17.8115 C   0  0  0  0  0  0  0  0  0  0  0  0
   29.1079  -20.0886  -19.1093 C   0  0  0  0  0  0  0  0  0  0  0  0
   29.7856  -20.9856  -19.8499 N   0  0  0  0  0  0  0  0  0  0  0  0
   30.6387  -21.6534  -19.0681 C   0  0  0  0  0  0  0  0  0  0  0  0
   30.4945  -21.1713  -17.8288 N   0  0  0  0  0  0  0  0  0  0  0  0
   27.1527  -19.3242  -15.0831 C   0  0  0  0  0  0  0  0  0  0  0  0
   26.8188  -18.1188  -15.0192 O   0  0  0  0  0  0  0  0  0  0  0  0
   24.6057  -17.6124  -13.4816 N   0  0  0  0  0  0  0  0  0  0  0  0
   24.1220  -18.8331  -14.0218 C   0  0  0  0  0  0  0  0  0  0  0  0
   23.2932  -18.7911  -14.9508 O   0  0  0  0  0  0  0  0  0  0  0  0
   24.5918  -20.1310  -13.4934 C   0  0  0  0  0  0  0  0  0  0  0  0
   25.9815  -20.0410  -12.9535 C   0  0  2  0  0  0  0  0  0  0  0  0
   27.0275  -20.1392  -13.9225 N   0  0  0  0  0  0  0  0  0  0  0  0
   26.1719  -20.9827  -11.8151 C   0  0  0  0  0  0  0  0  0  0  0  0
   26.0370  -22.2136  -12.0689 O   0  0  0  0  0  0  0  0  0  0  0  0
   26.4858  -20.4882  -10.5301 N   0  0  0  0  0  0  0  0  0  0  0  0
   26.4316  -21.3584   -9.3715 C   0  0  1  0  0  0  0  0  0  0  0  0
   27.7404  -21.3439   -8.6154 C   0  0  0  0  0  0  0  0  0  0  0  0
   27.7207  -20.1985   -7.6808 C   0  0  0  0  0  0  0  0  0  0  0  0
   26.9129  -19.0853   -7.7827 C   0  0  0  0  0  0  0  0  0  0  0  0
   27.1906  -18.2638   -6.7363 N   0  0  0  0  0  0  0  0  0  0  0  0
   28.1459  -18.8017   -5.9625 C   0  0  0  0  0  0  0  0  0  0  0  0
   28.7966  -18.4235   -4.8132 C   0  0  0  0  0  0  0  0  0  0  0  0
   29.7547  -19.2086   -4.2471 C   0  0  0  0  0  0  0  0  0  0  0  0
   30.0817  -20.4012   -4.8296 C   0  0  0  0  0  0  0  0  0  0  0  0
   29.4579  -20.8178   -5.9761 C   0  0  0  0  0  0  0  0  0  0  0  0
   28.4778  -20.0047   -6.5469 C   0  0  0  0  0  0  0  0  0  0  0  0
   25.2706  -20.9956   -8.4970 C   0  0  0  0  0  0  0  0  0  0  0  0
   24.5253  -20.0187   -8.8109 O   0  0  0  0  0  0  0  0  0  0  0  0
   24.9422  -21.6689   -7.3372 O   0  0  0  0  0  0  0  0  0  0  0  0
  2  1  1  6
  2  3  1  0
  3  4  1  0
  4  8  1  0
  5  4  2  0
  5  6  1  0
  6  7  1  0
  8  7  2  0
  9  2  1  0
  9 10  2  0
 11 12  1  0
 12 14  1  0
 13 12  2  0
 15 14  1  6
 15 16  1  0
 16  9  1  0
 17 15  1  0
 18 17  2  0
 19 17  1  0
 20 19  1  0
 20 31  1  0
 20 21  1  1
 22 21  1  0
 23 22  2  0
 24 25  1  0
 24 23  1  0
 25 30  2  0
 26 25  1  0
 26 27  2  0
 27 28  1  0
 28 29  2  0
 30 22  1  0
 30 29  1  0
 31 33  1  0
 32 31  2  0
M  END
$$$$
