HNW.pdb
     RDKit          3D

 33 35  0  0  1  0  0  0  0  0999 V2000
   26.8095  -19.0999  -16.5214 N   0  0  0  0  0  0  0  0  0  0  0  0
   27.2938  -18.4504  -15.3202 C   0  0  1  0  0  0  0  0  0  0  0  0
   27.6638  -17.0184  -15.7063 C   0  0  0  0  0  0  0  0  0  0  0  0
   28.6271  -17.1031  -16.8306 C   0  0  0  0  0  0  0  0  0  0  0  0
   28.3558  -16.7930  -18.1459 C   0  0  0  0  0  0  0  0  0  0  0  0
   29.4847  -17.0014  -18.8493 N   0  0  0  0  0  0  0  0  0  0  0  0
   30.4477  -17.4283  -18.0276 C   0  0  0  0  0  0  0  0  0  0  0  0
   29.9186  -17.4877  -16.8006 N   0  0  0  0  0  0  0  0  0  0  0  0
   26.3599  -18.5102  -14.1979 C   0  0  0  0  0  0  0  0  0  0  0  0
   25.3934  -17.7153  -14.1463 O   0  0  0  0  0  0  0  0  0  0  0  0
   22.8993  -18.7755  -14.2663 N   0  0  0  0  0  0  0  0  0  0  0  0
   23.2081  -19.4073  -13.0329 C   0  0  0  0  0  0  0  0  0  0  0  0
   22.5717  -19.0773  -12.0141 O   0  0  0  0  0  0  0  0  0  0  0  0
   24.2646  -20.4381  -12.9565 C   0  0  0  0  0  0  0  0  0  0  0  0
   25.4943  -19.9246  -12.2820 C   0  0  2  0  0  0  0  0  0  0  0  0
   26.5288  -19.4626  -13.1532 N   0  0  0  0  0  0  0  0  0  0  0  0
   25.9948  -20.9005  -11.2738 C   0  0  0  0  0  0  0  0  0  0  0  0
   26.7490  -21.8205  -11.7010 O   0  0  0  0  0  0  0  0  0  0  0  0
   25.6231  -20.7728   -9.9174 N   0  0  0  0  0  0  0  0  0  0  0  0
   26.1700  -21.6671   -8.9156 C   0  0  1  0  0  0  0  0  0  0  0  0
   27.6313  -21.3752   -8.6616 C   0  0  0  0  0  0  0  0  0  0  0  0
   27.7178  -20.2632   -7.6912 C   0  0  0  0  0  0  0  0  0  0  0  0
   27.0798  -19.0451   -7.7979 C   0  0  0  0  0  0  0  0  0  0  0  0
   27.4089  -18.2985   -6.7111 N   0  0  0  0  0  0  0  0  0  0  0  0
   28.2343  -18.9855   -5.9065 C   0  0  0  0  0  0  0  0  0  0  0  0
   28.8646  -18.7328   -4.7123 C   0  0  0  0  0  0  0  0  0  0  0  0
   29.6703  -19.6595   -4.1232 C   0  0  0  0  0  0  0  0  0  0  0  0
   29.8609  -20.8707   -4.7276 C   0  0  0  0  0  0  0  0  0  0  0  0
   29.2517  -21.1652   -5.9189 C   0  0  0  0  0  0  0  0  0  0  0  0
   28.4285  -20.2076   -6.5129 C   0  0  0  0  0  0  0  0  0  0  0  0
   25.3561  -21.6079   -7.6593 C   0  0  0  0  0  0  0  0  0  0  0  0
   24.3593  -20.8270   -7.5896 O   0  0  0  0  0  0  0  0  0  0  0  0
   25.6204  -22.3658   -6.5360 O   0  0  0  0  0  0  0  0  0  0  0  0
  2  1  1  6
  2  3  1  0
  3  4  1  0
  4  8  1  0
  5  4  2  0
  5  6  1  0
  6  7  1  0
  8  7  2  0
  9  2  1  0
  9 10  2  0
 11 12  1  0
 12 14  1  0
 13 12  2  0
 15 14  1  6
 15 16  1  0
 16  9  1  0
 17 15  1  0
 18 17  2  0
 19 17  1  0
 20 19  1  0
 20 31  1  0
 20 21  1  1
 22 21  1  0
 23 22  2  0
 24 25  1  0
 24 23  1  0
 25 30  2  0
 26 25  1  0
 26 27  2  0
 27 28  1  0
 28 29  2  0
 30 22  1  0
 30 29  1  0
 31 33  1  0
 32 31  2  0
M  END
$$$$
