HNW.pdb
     RDKit          3D

 33 35  0  0  1  0  0  0  0  0999 V2000
   13.8355  -18.4474    4.1348 N   0  0  0  0  0  0  0  0  0  0  0  0
   15.2369  -18.4970    4.4994 C   0  0  1  0  0  0  0  0  0  0  0  0
   16.0390  -18.3098    3.2117 C   0  0  0  0  0  0  0  0  0  0  0  0
   15.6651  -19.4164    2.2981 C   0  0  0  0  0  0  0  0  0  0  0  0
   16.2265  -20.6752    2.2893 C   0  0  0  0  0  0  0  0  0  0  0  0
   15.6174  -21.3804    1.3177 N   0  0  0  0  0  0  0  0  0  0  0  0
   14.7002  -20.6140    0.7209 C   0  0  0  0  0  0  0  0  0  0  0  0
   14.7347  -19.4201    1.3229 N   0  0  0  0  0  0  0  0  0  0  0  0
   15.6109  -17.5444    5.5424 C   0  0  0  0  0  0  0  0  0  0  0  0
   14.7608  -16.7391    5.9869 O   0  0  0  0  0  0  0  0  0  0  0  0
   15.3820  -18.5781   10.4418 N   0  0  0  0  0  0  0  0  0  0  0  0
   16.5553  -18.3234    9.6839 C   0  0  0  0  0  0  0  0  0  0  0  0
   17.5420  -17.8228   10.2562 O   0  0  0  0  0  0  0  0  0  0  0  0
   16.6074  -18.6455    8.2423 C   0  0  0  0  0  0  0  0  0  0  0  0
   17.2726  -17.5645    7.4551 C   0  0  2  0  0  0  0  0  0  0  0  0
   16.9338  -17.5138    6.0676 N   0  0  0  0  0  0  0  0  0  0  0  0
   18.7453  -17.5721    7.6800 C   0  0  0  0  0  0  0  0  0  0  0  0
   19.3948  -18.5182    7.1502 O   0  0  0  0  0  0  0  0  0  0  0  0
   19.3501  -16.5567    8.4529 N   0  0  0  0  0  0  0  0  0  0  0  0
   20.7937  -16.4312    8.5057 C   0  0  1  0  0  0  0  0  0  0  0  0
   21.3723  -16.1923    7.1298 C   0  0  0  0  0  0  0  0  0  0  0  0
   21.0285  -14.8148    6.7175 C   0  0  0  0  0  0  0  0  0  0  0  0
   21.5978  -13.6580    7.2072 C   0  0  0  0  0  0  0  0  0  0  0  0
   21.0166  -12.6018    6.5799 N   0  0  0  0  0  0  0  0  0  0  0  0
   20.0941  -13.0301    5.7045 C   0  0  0  0  0  0  0  0  0  0  0  0
   19.2278  -12.4240    4.8273 C   0  0  0  0  0  0  0  0  0  0  0  0
   18.3817  -13.1514    4.0464 C   0  0  0  0  0  0  0  0  0  0  0  0
   18.3889  -14.5157    4.1314 C   0  0  0  0  0  0  0  0  0  0  0  0
   19.2366  -15.1617    4.9924 C   0  0  0  0  0  0  0  0  0  0  0  0
   20.0988  -14.4056    5.7875 C   0  0  0  0  0  0  0  0  0  0  0  0
   21.1922  -15.3639    9.4785 C   0  0  0  0  0  0  0  0  0  0  0  0
   20.3084  -14.6040    9.9783 O   0  0  0  0  0  0  0  0  0  0  0  0
   22.4930  -15.1402    9.8837 O   0  0  0  0  0  0  0  0  0  0  0  0
  2  1  1  6
  2  3  1  0
  3  4  1  0
  4  8  1  0
  5  4  2  0
  5  6  1  0
  6  7  1  0
  8  7  2  0
  9  2  1  0
  9 10  2  0
 11 12  1  0
 12 14  1  0
 13 12  2  0
 15 14  1  6
 15 16  1  0
 16  9  1  0
 17 15  1  0
 18 17  2  0
 19 17  1  0
 20 19  1  0
 20 31  1  0
 20 21  1  6
 22 21  1  0
 23 22  2  0
 24 25  1  0
 24 23  1  0
 25 30  2  0
 26 25  1  0
 26 27  2  0
 27 28  1  0
 28 29  2  0
 30 22  1  0
 30 29  1  0
 31 33  1  0
 32 31  2  0
M  END
$$$$
