HNW.pdb
     RDKit          3D

 33 35  0  0  1  0  0  0  0  0999 V2000
   29.8992  -20.5131  -20.7959 N   0  0  0  0  0  0  0  0  0  0  0  0
   29.0468  -21.4966  -20.1592 C   0  0  1  0  0  0  0  0  0  0  0  0
   27.8207  -21.6703  -21.0553 C   0  0  0  0  0  0  0  0  0  0  0  0
   27.0697  -20.3920  -21.0226 C   0  0  0  0  0  0  0  0  0  0  0  0
   26.0345  -20.0903  -20.1641 C   0  0  0  0  0  0  0  0  0  0  0  0
   25.6229  -18.8416  -20.4535 N   0  0  0  0  0  0  0  0  0  0  0  0
   26.3582  -18.3527  -21.4561 C   0  0  0  0  0  0  0  0  0  0  0  0
   27.2368  -19.3018  -21.7973 N   0  0  0  0  0  0  0  0  0  0  0  0
   29.7182  -22.7613  -19.8677 C   0  0  0  0  0  0  0  0  0  0  0  0
   29.9698  -23.5634  -20.7961 O   0  0  0  0  0  0  0  0  0  0  0  0
   32.1321  -26.6112  -17.4925 N   0  0  0  0  0  0  0  0  0  0  0  0
   32.1043  -25.5677  -16.5301 C   0  0  0  0  0  0  0  0  0  0  0  0
   32.7029  -25.7319  -15.4501 O   0  0  0  0  0  0  0  0  0  0  0  0
   31.3794  -24.3088  -16.8024 C   0  0  0  0  0  0  0  0  0  0  0  0
   30.7267  -24.3228  -18.1458 C   0  0  2  0  0  0  0  0  0  0  0  0
   30.0952  -23.1021  -18.5379 N   0  0  0  0  0  0  0  0  0  0  0  0
   29.8242  -25.4996  -18.2864 C   0  0  0  0  0  0  0  0  0  0  0  0
   28.8715  -25.5853  -17.4600 O   0  0  0  0  0  0  0  0  0  0  0  0
   30.0532  -26.4518  -19.3037 N   0  0  0  0  0  0  0  0  0  0  0  0
   29.1692  -27.5904  -19.4607 C   0  0  1  0  0  0  0  0  0  0  0  0
   28.2222  -27.3911  -20.6218 C   0  0  0  0  0  0  0  0  0  0  0  0
   27.2912  -28.5390  -20.6602 C   0  0  0  0  0  0  0  0  0  0  0  0
   26.3773  -28.8722  -19.6825 C   0  0  0  0  0  0  0  0  0  0  0  0
   25.7116  -29.9857  -20.0873 N   0  0  0  0  0  0  0  0  0  0  0  0
   26.1593  -30.3856  -21.2875 C   0  0  0  0  0  0  0  0  0  0  0  0
   25.8602  -31.4162  -22.1451 C   0  0  0  0  0  0  0  0  0  0  0  0
   26.5112  -31.5656  -23.3321 C   0  0  0  0  0  0  0  0  0  0  0  0
   27.4852  -30.6738  -23.6851 C   0  0  0  0  0  0  0  0  0  0  0  0
   27.8156  -29.6308  -22.8603 C   0  0  0  0  0  0  0  0  0  0  0  0
   27.1416  -29.4883  -21.6467 C   0  0  0  0  0  0  0  0  0  0  0  0
   29.9612  -28.8555  -19.5891 C   0  0  0  0  0  0  0  0  0  0  0  0
   31.1401  -28.8174  -20.0550 O   0  0  0  0  0  0  0  0  0  0  0  0
   29.4861  -30.0999  -19.2256 O   0  0  0  0  0  0  0  0  0  0  0  0
  2  1  1  6
  2  3  1  0
  3  4  1  0
  4  8  1  0
  5  4  2  0
  5  6  1  0
  6  7  1  0
  8  7  2  0
  9  2  1  0
  9 10  2  0
 11 12  1  0
 12 14  1  0
 13 12  2  0
 15 14  1  1
 15 16  1  0
 16  9  1  0
 17 15  1  0
 18 17  2  0
 19 17  1  0
 20 19  1  0
 20 31  1  0
 20 21  1  6
 22 21  1  0
 23 22  2  0
 24 25  1  0
 24 23  1  0
 25 30  2  0
 26 25  1  0
 26 27  2  0
 27 28  1  0
 28 29  2  0
 30 22  1  0
 30 29  1  0
 31 33  1  0
 32 31  2  0
M  END
$$$$
