SCA.pdb
     RDKit          3D

 18 17  0  0  1  0  0  0  0  0999 V2000
   19.5775  -10.3044  -20.3652 O   0  0  0  0  0  0  0  0  0  0  0  0
   19.6076   -9.7056  -19.1008 C   0  0  0  0  0  0  0  0  0  0  0  0
   20.0431  -10.7020  -18.0471 C   0  0  2  0  0  0  0  0  0  0  0  0
   19.0311  -11.7060  -17.9333 N   0  0  0  0  0  0  0  0  0  0  0  0
   20.4282  -10.0638  -16.7865 C   0  0  0  0  0  0  0  0  0  0  0  0
   19.5786   -9.8256  -15.9213 O   0  0  0  0  0  0  0  0  0  0  0  0
   21.7991   -9.6976  -16.5206 N   0  0  0  0  0  0  0  0  0  0  0  0
   22.1731   -9.0412  -15.2877 C   0  0  1  0  0  0  0  0  0  0  0  0
   23.5228   -9.5174  -14.7891 C   0  0  0  0  0  0  0  0  0  0  0  0
   23.4510  -11.2982  -14.3664 S   0  0  0  0  0  0  0  0  0  0  0  0
   22.1055   -7.5698  -15.3949 C   0  0  0  0  0  0  0  0  0  0  0  0
   22.7222   -6.9536  -16.3040 O   0  0  0  0  0  0  0  0  0  0  0  0
   19.8251   -4.8682  -14.3693 C   0  0  0  0  0  0  0  0  0  0  0  0
   21.2259   -5.3395  -14.6466 C   0  0  2  0  0  0  0  0  0  0  0  0
   21.3456   -6.7926  -14.4816 N   0  0  0  0  0  0  0  0  0  0  0  0
   22.1863   -4.6433  -13.7561 C   0  0  0  0  0  0  0  0  0  0  0  0
   22.3900   -3.4187  -13.8724 O   0  0  0  0  0  0  0  0  0  0  0  0
   22.8787   -5.3564  -12.7690 O   0  0  0  0  0  0  0  0  0  0  0  0
  2  1  1  0
  3  5  1  0
  3  2  1  0
  3  4  1  1
  5  6  2  0
  7  8  1  0
  7  5  1  0
  8  9  1  6
 10  9  1  0
 11 15  1  0
 11  8  1  0
 12 11  2  0
 14 13  1  1
 14 15  1  0
 16 14  1  0
 16 18  1  0
 17 16  2  0
M  END
$$$$
