SCA.pdb
     RDKit          3D

 18 17  0  0  1  0  0  0  0  0999 V2000
   18.1032  -12.0475  -18.7721 O   0  0  0  0  0  0  0  0  0  0  0  0
   18.2530  -11.1767  -17.6870 C   0  0  0  0  0  0  0  0  0  0  0  0
   19.4304  -10.2496  -17.9035 C   0  0  2  0  0  0  0  0  0  0  0  0
   20.5883  -11.0478  -18.1633 N   0  0  0  0  0  0  0  0  0  0  0  0
   19.5836   -9.2657  -16.8296 C   0  0  0  0  0  0  0  0  0  0  0  0
   18.6243   -8.5713  -16.4764 O   0  0  0  0  0  0  0  0  0  0  0  0
   20.8483   -9.0801  -16.1586 N   0  0  0  0  0  0  0  0  0  0  0  0
   20.9815   -8.1565  -15.0542 C   0  0  1  0  0  0  0  0  0  0  0  0
   21.8047   -8.7486  -13.9277 C   0  0  0  0  0  0  0  0  0  0  0  0
   20.9169  -10.1583  -13.1662 S   0  0  0  0  0  0  0  0  0  0  0  0
   21.4920   -6.8394  -15.4853 C   0  0  0  0  0  0  0  0  0  0  0  0
   22.5209   -6.7431  -16.2053 O   0  0  0  0  0  0  0  0  0  0  0  0
   20.2108   -3.3249  -15.6539 C   0  0  0  0  0  0  0  0  0  0  0  0
   21.3225   -4.3363  -15.6037 C   0  0  2  0  0  0  0  0  0  0  0  0
   20.8464   -5.6326  -15.1076 N   0  0  0  0  0  0  0  0  0  0  0  0
   22.4297   -3.8385  -14.7516 C   0  0  0  0  0  0  0  0  0  0  0  0
   22.5944   -4.2819  -13.5980 O   0  0  0  0  0  0  0  0  0  0  0  0
   23.3080   -2.8600  -15.2351 O   0  0  0  0  0  0  0  0  0  0  0  0
  2  1  1  0
  3  5  1  0
  3  2  1  0
  3  4  1  1
  5  6  2  0
  7  8  1  0
  7  5  1  0
  8  9  1  1
 10  9  1  0
 11 15  1  0
 11  8  1  0
 12 11  2  0
 14 13  1  1
 14 15  1  0
 16 14  1  0
 16 18  1  0
 17 16  2  0
M  END
$$$$
