SCA.pdb
     RDKit          3D

 18 17  0  0  1  0  0  0  0  0999 V2000
   17.7179  -11.1870  -17.3913 O   0  0  0  0  0  0  0  0  0  0  0  0
   17.8167   -9.9470  -16.7502 C   0  0  0  0  0  0  0  0  0  0  0  0
   18.5945  -10.0736  -15.4572 C   0  0  2  0  0  0  0  0  0  0  0  0
   17.8712  -10.9428  -14.5816 N   0  0  0  0  0  0  0  0  0  0  0  0
   18.9568   -8.7761  -14.8830 C   0  0  0  0  0  0  0  0  0  0  0  0
   18.1183   -8.1088  -14.2674 O   0  0  0  0  0  0  0  0  0  0  0  0
   20.2918   -8.2436  -15.0183 N   0  0  0  0  0  0  0  0  0  0  0  0
   20.6520   -6.9691  -14.4381 C   0  0  1  0  0  0  0  0  0  0  0  0
   22.0388   -7.0059  -13.8276 C   0  0  0  0  0  0  0  0  0  0  0  0
   22.4768   -5.3622  -13.1483 S   0  0  0  0  0  0  0  0  0  0  0  0
   20.4927   -5.8546  -15.3939 C   0  0  0  0  0  0  0  0  0  0  0  0
   21.0267   -5.8926  -16.5340 O   0  0  0  0  0  0  0  0  0  0  0  0
   18.3062   -2.8945  -15.9234 C   0  0  0  0  0  0  0  0  0  0  0  0
   19.6489   -3.5676  -15.9982 C   0  0  2  0  0  0  0  0  0  0  0  0
   19.7341   -4.6996  -15.0684 N   0  0  0  0  0  0  0  0  0  0  0  0
   20.7281   -2.5906  -15.7139 C   0  0  0  0  0  0  0  0  0  0  0  0
   21.3781   -2.6508  -14.6516 O   0  0  0  0  0  0  0  0  0  0  0  0
   21.0316   -1.5841  -16.6398 O   0  0  0  0  0  0  0  0  0  0  0  0
  2  1  1  0
  3  5  1  0
  3  2  1  0
  3  4  1  1
  5  6  2  0
  7  8  1  0
  7  5  1  0
  8  9  1  6
 10  9  1  0
 11 15  1  0
 11  8  1  0
 12 11  2  0
 14 13  1  1
 14 15  1  0
 16 14  1  0
 16 18  1  0
 17 16  2  0
M  END
$$$$
