SCA.pdb
     RDKit          3D

 18 17  0  0  1  0  0  0  0  0999 V2000
   20.8582  -12.6009  -16.3191 O   0  0  0  0  0  0  0  0  0  0  0  0
   20.6199  -11.2379  -16.1108 C   0  0  0  0  0  0  0  0  0  0  0  0
   19.2143  -11.0132  -15.5944 C   0  0  2  0  0  0  0  0  0  0  0  0
   18.2985  -11.2554  -16.6657 N   0  0  0  0  0  0  0  0  0  0  0  0
   19.0557   -9.7214  -14.9228 C   0  0  0  0  0  0  0  0  0  0  0  0
   18.6151   -8.7457  -15.5403 O   0  0  0  0  0  0  0  0  0  0  0  0
   19.4064   -9.5519  -13.5327 N   0  0  0  0  0  0  0  0  0  0  0  0
   19.2711   -8.2702  -12.8773 C   0  0  1  0  0  0  0  0  0  0  0  0
   18.8211   -8.4240  -11.4382 C   0  0  0  0  0  0  0  0  0  0  0  0
   17.2657   -9.3881  -11.3593 S   0  0  0  0  0  0  0  0  0  0  0  0
   20.4940   -7.4504  -12.9947 C   0  0  0  0  0  0  0  0  0  0  0  0
   21.6378   -7.9680  -12.8931 O   0  0  0  0  0  0  0  0  0  0  0  0
   22.2566   -5.8341  -14.8533 C   0  0  0  0  0  0  0  0  0  0  0  0
   21.6319   -5.2938  -13.5966 C   0  0  2  0  0  0  0  0  0  0  0  0
   20.4308   -6.0511  -13.2262 N   0  0  0  0  0  0  0  0  0  0  0  0
   21.2987   -3.8585  -13.7664 C   0  0  0  0  0  0  0  0  0  0  0  0
   20.1449   -3.5054  -14.0803 O   0  0  0  0  0  0  0  0  0  0  0  0
   22.2807   -2.8780  -13.5749 O   0  0  0  0  0  0  0  0  0  0  0  0
  2  1  1  0
  3  5  1  0
  3  2  1  0
  3  4  1  6
  5  6  2  0
  7  8  1  0
  7  5  1  0
  8  9  1  1
 10  9  1  0
 11 15  1  0
 11  8  1  0
 12 11  2  0
 14 13  1  6
 14 15  1  0
 16 14  1  0
 16 18  1  0
 17 16  2  0
M  END
$$$$
