SCA.pdb
     RDKit          3D

 18 17  0  0  1  0  0  0  0  0999 V2000
   16.3817  -12.0641  -18.6944 O   0  0  0  0  0  0  0  0  0  0  0  0
   16.5051  -11.1772  -17.6191 C   0  0  0  0  0  0  0  0  0  0  0  0
   17.9071  -11.2196  -17.0486 C   0  0  2  0  0  0  0  0  0  0  0  0
   18.0741  -12.4620  -16.3602 N   0  0  0  0  0  0  0  0  0  0  0  0
   18.2380  -10.0272  -16.2655 C   0  0  0  0  0  0  0  0  0  0  0  0
   17.5489   -9.7086  -15.2902 O   0  0  0  0  0  0  0  0  0  0  0  0
   19.3683   -9.1967  -16.6070 N   0  0  0  0  0  0  0  0  0  0  0  0
   19.7383   -8.0627  -15.7898 C   0  0  1  0  0  0  0  0  0  0  0  0
   21.2423   -7.9507  -15.6388 C   0  0  0  0  0  0  0  0  0  0  0  0
   21.8072   -8.9100  -14.1843 S   0  0  0  0  0  0  0  0  0  0  0  0
   19.1308   -6.8052  -16.2704 C   0  0  0  0  0  0  0  0  0  0  0  0
   19.1174   -6.5147  -17.4959 O   0  0  0  0  0  0  0  0  0  0  0  0
   16.3832   -4.8335  -15.9148 C   0  0  0  0  0  0  0  0  0  0  0  0
   17.8770   -4.6655  -15.8734 C   0  0  2  0  0  0  0  0  0  0  0  0
   18.5393   -5.8761  -15.3745 N   0  0  0  0  0  0  0  0  0  0  0  0
   18.2382   -3.5007  -15.0292 C   0  0  0  0  0  0  0  0  0  0  0  0
   17.9197   -2.3443  -15.3695 O   0  0  0  0  0  0  0  0  0  0  0  0
   18.9445   -3.6867  -13.8338 O   0  0  0  0  0  0  0  0  0  0  0  0
  2  1  1  0
  3  5  1  0
  3  2  1  0
  3  4  1  1
  5  6  2  0
  7  8  1  0
  7  5  1  0
  8  9  1  6
 10  9  1  0
 11 15  1  0
 11  8  1  0
 12 11  2  0
 14 13  1  1
 14 15  1  0
 16 14  1  0
 16 18  1  0
 17 16  2  0
M  END
$$$$
