SCA.pdb
     RDKit          3D

 18 17  0  0  1  0  0  0  0  0999 V2000
   18.5904  -11.3376  -19.8420 O   0  0  0  0  0  0  0  0  0  0  0  0
   18.3908  -10.9672  -18.5074 C   0  0  0  0  0  0  0  0  0  0  0  0
   19.6288  -11.2499  -17.6827 C   0  0  2  0  0  0  0  0  0  0  0  0
   19.7522  -12.6664  -17.5295 N   0  0  0  0  0  0  0  0  0  0  0  0
   19.6663  -10.4853  -16.4342 C   0  0  0  0  0  0  0  0  0  0  0  0
   19.0411  -10.8766  -15.4425 O   0  0  0  0  0  0  0  0  0  0  0  0
   20.4276   -9.2635  -16.3267 N   0  0  0  0  0  0  0  0  0  0  0  0
   20.5274   -8.5513  -15.0723 C   0  0  1  0  0  0  0  0  0  0  0  0
   21.4171   -9.2807  -14.0856 C   0  0  0  0  0  0  0  0  0  0  0  0
   23.1131   -9.4410  -14.7588 S   0  0  0  0  0  0  0  0  0  0  0  0
   20.9373   -7.1448  -15.2590 C   0  0  0  0  0  0  0  0  0  0  0  0
   21.8820   -6.8387  -16.0339 O   0  0  0  0  0  0  0  0  0  0  0  0
   19.6143   -3.7345  -14.3410 C   0  0  0  0  0  0  0  0  0  0  0  0
   20.6826   -4.6891  -14.7979 C   0  0  2  0  0  0  0  0  0  0  0  0
   20.2860   -6.0843  -14.5758 N   0  0  0  0  0  0  0  0  0  0  0  0
   21.9586   -4.4030  -14.0980 C   0  0  0  0  0  0  0  0  0  0  0  0
   22.5788   -3.3429  -14.3124 O   0  0  0  0  0  0  0  0  0  0  0  0
   22.4844   -5.3244  -13.1831 O   0  0  0  0  0  0  0  0  0  0  0  0
  2  1  1  0
  3  5  1  0
  3  2  1  0
  3  4  1  1
  5  6  2  0
  7  8  1  0
  7  5  1  0
  8  9  1  1
 10  9  1  0
 11 15  1  0
 11  8  1  0
 12 11  2  0
 14 13  1  1
 14 15  1  0
 16 14  1  0
 16 18  1  0
 17 16  2  0
M  END
$$$$
