SCA.pdb
     RDKit          3D

 18 17  0  0  1  0  0  0  0  0999 V2000
   19.1737   -9.6036  -19.5550 O   0  0  0  0  0  0  0  0  0  0  0  0
   18.8910   -9.0438  -18.3040 C   0  0  0  0  0  0  0  0  0  0  0  0
   20.0843   -9.1678  -17.3802 C   0  0  2  0  0  0  0  0  0  0  0  0
   20.0889  -10.4868  -16.8276 N   0  0  0  0  0  0  0  0  0  0  0  0
   20.1575   -8.0836  -16.3984 C   0  0  0  0  0  0  0  0  0  0  0  0
   19.2991   -7.9808  -15.5153 O   0  0  0  0  0  0  0  0  0  0  0  0
   21.2249   -7.1123  -16.4335 N   0  0  0  0  0  0  0  0  0  0  0  0
   21.2581   -6.0025  -15.5071 C   0  0  1  0  0  0  0  0  0  0  0  0
   22.4850   -6.0537  -14.6187 C   0  0  0  0  0  0  0  0  0  0  0  0
   22.5278   -4.5953  -13.5112 S   0  0  0  0  0  0  0  0  0  0  0  0
   21.1176   -4.7003  -16.1895 C   0  0  0  0  0  0  0  0  0  0  0  0
   21.9766   -4.3043  -17.0211 O   0  0  0  0  0  0  0  0  0  0  0  0
   18.4520   -2.1333  -16.7510 C   0  0  0  0  0  0  0  0  0  0  0  0
   19.8904   -2.5515  -16.6194 C   0  0  2  0  0  0  0  0  0  0  0  0
   20.0128   -3.8450  -15.9374 N   0  0  0  0  0  0  0  0  0  0  0  0
   20.6606   -1.5146  -15.8902 C   0  0  0  0  0  0  0  0  0  0  0  0
   21.0869   -0.5037  -16.4826 O   0  0  0  0  0  0  0  0  0  0  0  0
   20.9191   -1.6590  -14.5210 O   0  0  0  0  0  0  0  0  0  0  0  0
  2  1  1  0
  3  5  1  0
  3  2  1  0
  3  4  1  1
  5  6  2  0
  7  8  1  0
  7  5  1  0
  8  9  1  6
 10  9  1  0
 11 15  1  0
 11  8  1  0
 12 11  2  0
 14 13  1  1
 14 15  1  0
 16 14  1  0
 16 18  1  0
 17 16  2  0
M  END
$$$$
