SCA.pdb
     RDKit          3D

 18 17  0  0  1  0  0  0  0  0999 V2000
   20.4750  -12.8448  -19.5776 O   0  0  0  0  0  0  0  0  0  0  0  0
   19.9869  -11.6387  -19.0627 C   0  0  0  0  0  0  0  0  0  0  0  0
   20.8678  -11.1426  -17.9354 C   0  0  2  0  0  0  0  0  0  0  0  0
   21.1400  -12.2416  -17.0617 N   0  0  0  0  0  0  0  0  0  0  0  0
   20.3326   -9.9472  -17.2802 C   0  0  0  0  0  0  0  0  0  0  0  0
   19.9911   -8.9668  -17.9506 O   0  0  0  0  0  0  0  0  0  0  0  0
   20.1898   -9.8801  -15.8452 N   0  0  0  0  0  0  0  0  0  0  0  0
   19.6671   -8.6967  -15.1993 C   0  0  1  0  0  0  0  0  0  0  0  0
   18.7489   -9.0497  -14.0463 C   0  0  0  0  0  0  0  0  0  0  0  0
   17.5517  -10.3373  -14.5599 S   0  0  0  0  0  0  0  0  0  0  0  0
   20.7367   -7.7621  -14.7946 C   0  0  0  0  0  0  0  0  0  0  0  0
   21.7817   -8.1747  -14.2253 O   0  0  0  0  0  0  0  0  0  0  0  0
   21.5410   -4.1001  -15.2879 C   0  0  0  0  0  0  0  0  0  0  0  0
   21.7223   -5.4558  -14.6630 C   0  0  2  0  0  0  0  0  0  0  0  0
   20.6314   -6.3659  -15.0299 N   0  0  0  0  0  0  0  0  0  0  0  0
   21.8100   -5.3320  -13.1875 C   0  0  0  0  0  0  0  0  0  0  0  0
   22.7479   -4.7059  -12.6555 O   0  0  0  0  0  0  0  0  0  0  0  0
   20.8355   -5.9193  -12.3703 O   0  0  0  0  0  0  0  0  0  0  0  0
  2  1  1  0
  3  5  1  0
  3  2  1  0
  3  4  1  1
  5  6  2  0
  7  8  1  0
  7  5  1  0
  8  9  1  1
 10  9  1  0
 11 15  1  0
 11  8  1  0
 12 11  2  0
 14 13  1  6
 14 15  1  0
 16 14  1  0
 16 18  1  0
 17 16  2  0
M  END
$$$$
