SCA.pdb
     RDKit          3D

 18 17  0  0  1  0  0  0  0  0999 V2000
   15.9910   -9.8613  -17.8143 O   0  0  0  0  0  0  0  0  0  0  0  0
   16.5489   -9.1848  -16.7238 C   0  0  0  0  0  0  0  0  0  0  0  0
   17.6068  -10.0341  -16.0514 C   0  0  2  0  0  0  0  0  0  0  0  0
   16.9566  -11.1296  -15.4016 N   0  0  0  0  0  0  0  0  0  0  0  0
   18.5057   -9.2525  -15.1994 C   0  0  0  0  0  0  0  0  0  0  0  0
   18.1920   -8.9921  -14.0327 O   0  0  0  0  0  0  0  0  0  0  0  0
   19.7727   -8.7679  -15.6933 N   0  0  0  0  0  0  0  0  0  0  0  0
   20.6208   -7.9256  -14.8797 C   0  0  1  0  0  0  0  0  0  0  0  0
   22.0155   -8.5032  -14.7438 C   0  0  0  0  0  0  0  0  0  0  0  0
   23.0964   -7.3429  -13.8270 S   0  0  0  0  0  0  0  0  0  0  0  0
   20.6401   -6.5271  -15.3539 C   0  0  0  0  0  0  0  0  0  0  0  0
   20.9210   -6.2482  -16.5497 O   0  0  0  0  0  0  0  0  0  0  0  0
   19.2674   -3.2387  -14.5656 C   0  0  0  0  0  0  0  0  0  0  0  0
   20.4731   -4.0553  -14.9413 C   0  0  2  0  0  0  0  0  0  0  0  0
   20.3438   -5.4439  -14.4852 N   0  0  0  0  0  0  0  0  0  0  0  0
   21.7013   -3.4444  -14.3772 C   0  0  0  0  0  0  0  0  0  0  0  0
   22.2368   -2.4637  -14.9305 O   0  0  0  0  0  0  0  0  0  0  0  0
   22.2770   -3.9642  -13.2107 O   0  0  0  0  0  0  0  0  0  0  0  0
  2  1  1  0
  3  5  1  0
  3  2  1  0
  3  4  1  1
  5  6  2  0
  7  8  1  0
  7  5  1  0
  8  9  1  6
 10  9  1  0
 11 15  1  0
 11  8  1  0
 12 11  2  0
 14 13  1  1
 14 15  1  0
 16 14  1  0
 16 18  1  0
 17 16  2  0
M  END
$$$$
