SCA.pdb
     RDKit          3D

 18 17  0  0  1  0  0  0  0  0999 V2000
   24.1885  -11.2702  -18.6308 O   0  0  0  0  0  0  0  0  0  0  0  0
   23.2020  -10.2899  -18.4756 C   0  0  0  0  0  0  0  0  0  0  0  0
   22.3019  -10.6174  -17.3029 C   0  0  2  0  0  0  0  0  0  0  0  0
   21.6441  -11.8578  -17.5747 N   0  0  0  0  0  0  0  0  0  0  0  0
   21.4136   -9.5103  -16.9422 C   0  0  0  0  0  0  0  0  0  0  0  0
   20.3830   -9.2989  -17.5906 O   0  0  0  0  0  0  0  0  0  0  0  0
   21.7136   -8.6417  -15.8288 N   0  0  0  0  0  0  0  0  0  0  0  0
   20.7929   -7.6050  -15.4187 C   0  0  1  0  0  0  0  0  0  0  0  0
   19.8554   -8.0896  -14.3308 C   0  0  0  0  0  0  0  0  0  0  0  0
   20.8101   -8.8302  -12.9541 S   0  0  0  0  0  0  0  0  0  0  0  0
   21.4875   -6.3575  -15.0415 C   0  0  0  0  0  0  0  0  0  0  0  0
   22.6085   -6.3837  -14.4677 O   0  0  0  0  0  0  0  0  0  0  0  0
   21.0498   -2.6519  -15.6305 C   0  0  0  0  0  0  0  0  0  0  0  0
   21.6285   -3.8522  -14.9335 C   0  0  2  0  0  0  0  0  0  0  0  0
   20.9229   -5.0826  -15.3093 N   0  0  0  0  0  0  0  0  0  0  0  0
   21.5793   -3.6637  -13.4632 C   0  0  0  0  0  0  0  0  0  0  0  0
   20.7591   -4.2942  -12.7673 O   0  0  0  0  0  0  0  0  0  0  0  0
   22.4581   -2.7713  -12.8357 O   0  0  0  0  0  0  0  0  0  0  0  0
  2  1  1  0
  3  5  1  0
  3  2  1  0
  3  4  1  6
  5  6  2  0
  7  8  1  0
  7  5  1  0
  8  9  1  1
 10  9  1  0
 11 15  1  0
 11  8  1  0
 12 11  2  0
 14 13  1  6
 14 15  1  0
 16 14  1  0
 16 18  1  0
 17 16  2  0
M  END
$$$$
