SCA.pdb
     RDKit          3D

 18 17  0  0  1  0  0  0  0  0999 V2000
   16.3872  -10.5120  -16.8975 O   0  0  0  0  0  0  0  0  0  0  0  0
   17.1930  -10.3664  -18.0321 C   0  0  0  0  0  0  0  0  0  0  0  0
   18.5590  -10.9774  -17.8004 C   0  0  2  0  0  0  0  0  0  0  0  0
   18.4173  -12.4004  -17.7845 N   0  0  0  0  0  0  0  0  0  0  0  0
   19.2454  -10.4094  -16.6380 C   0  0  0  0  0  0  0  0  0  0  0  0
   18.8930  -10.7140  -15.4933 O   0  0  0  0  0  0  0  0  0  0  0  0
   20.3436   -9.4855  -16.7944 N   0  0  0  0  0  0  0  0  0  0  0  0
   20.9538   -8.8471  -15.6495 C   0  0  1  0  0  0  0  0  0  0  0  0
   22.3178   -9.4335  -15.3447 C   0  0  0  0  0  0  0  0  0  0  0  0
   22.9489   -8.7792  -13.7545 S   0  0  0  0  0  0  0  0  0  0  0  0
   20.9965   -7.3771  -15.7858 C   0  0  0  0  0  0  0  0  0  0  0  0
   21.4954   -6.8314  -16.8055 O   0  0  0  0  0  0  0  0  0  0  0  0
   19.4614   -4.3549  -14.2342 C   0  0  0  0  0  0  0  0  0  0  0  0
   20.6188   -5.0652  -14.8801 C   0  0  2  0  0  0  0  0  0  0  0  0
   20.4788   -6.5223  -14.7774 N   0  0  0  0  0  0  0  0  0  0  0  0
   21.8956   -4.6298  -14.2635 C   0  0  0  0  0  0  0  0  0  0  0  0
   22.4543   -5.3286  -13.3951 O   0  0  0  0  0  0  0  0  0  0  0  0
   22.4919   -3.4231  -14.6515 O   0  0  0  0  0  0  0  0  0  0  0  0
  2  1  1  0
  3  5  1  0
  3  2  1  0
  3  4  1  1
  5  6  2  0
  7  8  1  0
  7  5  1  0
  8  9  1  6
 10  9  1  0
 11 15  1  0
 11  8  1  0
 12 11  2  0
 14 13  1  1
 14 15  1  0
 16 14  1  0
 16 18  1  0
 17 16  2  0
M  END
$$$$
