SCA.pdb
     RDKit          3D

 18 17  0  0  1  0  0  0  0  0999 V2000
   16.2999  -11.1625  -17.1039 O   0  0  0  0  0  0  0  0  0  0  0  0
   17.1267  -10.6622  -16.0918 C   0  0  0  0  0  0  0  0  0  0  0  0
   18.0415   -9.5835  -16.6324 C   0  0  2  0  0  0  0  0  0  0  0  0
   18.8984  -10.1724  -17.6143 N   0  0  0  0  0  0  0  0  0  0  0  0
   18.7292   -8.8395  -15.5750 C   0  0  0  0  0  0  0  0  0  0  0  0
   18.0853   -8.3130  -14.6608 O   0  0  0  0  0  0  0  0  0  0  0  0
   20.1661   -8.7005  -15.5700 N   0  0  0  0  0  0  0  0  0  0  0  0
   20.8452   -7.9823  -14.5147 C   0  0  1  0  0  0  0  0  0  0  0  0
   22.1447   -8.6586  -14.1260 C   0  0  0  0  0  0  0  0  0  0  0  0
   21.8048  -10.1899  -13.1800 S   0  0  0  0  0  0  0  0  0  0  0  0
   21.0357   -6.5549  -14.8427 C   0  0  0  0  0  0  0  0  0  0  0  0
   21.5692   -6.2012  -15.9275 O   0  0  0  0  0  0  0  0  0  0  0  0
   19.7483   -3.2542  -13.6535 C   0  0  0  0  0  0  0  0  0  0  0  0
   20.7960   -4.1131  -14.3061 C   0  0  2  0  0  0  0  0  0  0  0  0
   20.6269   -5.5272  -13.9527 N   0  0  0  0  0  0  0  0  0  0  0  0
   22.1512   -3.6489  -13.9214 C   0  0  0  0  0  0  0  0  0  0  0  0
   22.7854   -4.2192  -13.0120 O   0  0  0  0  0  0  0  0  0  0  0  0
   22.7376   -2.5596  -14.5785 O   0  0  0  0  0  0  0  0  0  0  0  0
  2  1  1  0
  3  5  1  0
  3  2  1  0
  3  4  1  6
  5  6  2  0
  7  8  1  0
  7  5  1  0
  8  9  1  6
 10  9  1  0
 11 15  1  0
 11  8  1  0
 12 11  2  0
 14 13  1  1
 14 15  1  0
 16 14  1  0
 16 18  1  0
 17 16  2  0
M  END
$$$$
