VVE.pdb
     RDKit          3D

 24 23  0  0  1  0  0  0  0  0999 V2000
   15.0595  -10.4426  -15.9594 C   0  0  0  0  0  0  0  0  0  0  0  0
   14.7650  -11.8646  -15.5205 C   0  0  1  0  0  0  0  0  0  0  0  0
   13.4392  -12.2814  -16.0701 C   0  0  0  0  0  0  0  0  0  0  0  0
   15.8918  -12.8045  -15.9163 C   0  0  2  0  0  0  0  0  0  0  0  0
   15.5835  -14.1232  -15.4586 N   0  0  0  0  0  0  0  0  0  0  0  0
   17.2061  -12.3092  -15.4984 C   0  0  0  0  0  0  0  0  0  0  0  0
   17.4921  -12.3298  -14.2740 O   0  0  0  0  0  0  0  0  0  0  0  0
   20.2303  -11.6837  -18.3347 C   0  0  0  0  0  0  0  0  0  0  0  0
   20.5799  -11.8850  -16.8963 C   0  0  2  0  0  0  0  0  0  0  0  0
   20.8130  -13.3512  -16.5823 C   0  0  0  0  0  0  0  0  0  0  0  0
   19.4684  -11.3211  -16.0048 C   0  0  2  0  0  0  0  0  0  0  0  0
   18.1812  -11.8044  -16.4016 N   0  0  0  0  0  0  0  0  0  0  0  0
   19.5180   -9.8248  -16.1526 C   0  0  0  0  0  0  0  0  0  0  0  0
   18.8504   -9.2286  -17.0269 O   0  0  0  0  0  0  0  0  0  0  0  0
   20.3263   -9.0250  -15.3042 N   0  0  0  0  0  0  0  0  0  0  0  0
   20.3975   -7.5824  -15.4911 C   0  0  1  0  0  0  0  0  0  0  0  0
   21.0663   -7.0284  -14.2818 C   0  0  0  0  0  0  0  0  0  0  0  0
   21.3212   -5.5662  -14.2708 C   0  0  0  0  0  0  0  0  0  0  0  0
   22.0065   -5.0469  -13.0800 C   0  0  0  0  0  0  0  0  0  0  0  0
   22.3759   -5.8034  -12.1736 O   0  0  0  0  0  0  0  0  0  0  0  0
   21.0912   -7.2364  -16.7556 C   0  0  0  0  0  0  0  0  0  0  0  0
   20.7746   -6.2615  -17.4850 O   0  0  0  0  0  0  0  0  0  0  0  0
   22.2420   -3.6770  -12.9751 O   0  0  0  0  0  0  0  0  0  0  0  0
   22.1551   -8.0200  -17.1787 O   0  0  0  0  0  0  0  0  0  0  0  0
  2  1  1  6
  3  2  1  0
  4  2  1  0
  4  6  1  0
  4  5  1  1
  6  7  2  0
  9  8  1  6
  9 10  1  0
  9 11  1  0
 11 13  1  0
 11 12  1  6
 12  6  1  0
 13 14  2  0
 15 13  1  0
 15 16  1  0
 16 21  1  0
 16 17  1  1
 18 17  1  0
 19 18  1  0
 20 19  2  0
 21 22  2  0
 21 24  1  0
 23 19  1  0
M  END
$$$$
