VVE.pdb
     RDKit          3D

 24 23  0  0  1  0  0  0  0  0999 V2000
   26.5832  -14.3658  -15.9030 C   0  0  0  0  0  0  0  0  0  0  0  0
   26.0222  -15.7046  -15.4620 C   0  0  1  0  0  0  0  0  0  0  0  0
   24.5745  -15.7722  -15.8267 C   0  0  0  0  0  0  0  0  0  0  0  0
   26.8320  -16.8544  -16.0381 C   0  0  2  0  0  0  0  0  0  0  0  0
   26.7469  -16.8180  -17.4645 N   0  0  0  0  0  0  0  0  0  0  0  0
   26.4744  -18.1443  -15.4417 C   0  0  0  0  0  0  0  0  0  0  0  0
   25.3897  -18.6815  -15.7828 O   0  0  0  0  0  0  0  0  0  0  0  0
   29.0935  -20.1952  -12.6770 C   0  0  0  0  0  0  0  0  0  0  0  0
   28.1669  -20.9277  -13.5916 C   0  0  2  0  0  0  0  0  0  0  0  0
   28.8557  -21.3107  -14.8883 C   0  0  0  0  0  0  0  0  0  0  0  0
   26.9309  -20.0690  -13.8803 C   0  0  2  0  0  0  0  0  0  0  0  0
   27.2868  -18.8268  -14.4953 N   0  0  0  0  0  0  0  0  0  0  0  0
   26.2701  -19.8094  -12.5541 C   0  0  0  0  0  0  0  0  0  0  0  0
   26.6611  -18.8967  -11.7927 O   0  0  0  0  0  0  0  0  0  0  0  0
   25.1725  -20.5911  -12.1100 N   0  0  0  0  0  0  0  0  0  0  0  0
   24.5422  -20.3227  -10.8248 C   0  0  1  0  0  0  0  0  0  0  0  0
   23.0718  -20.3805  -11.0509 C   0  0  0  0  0  0  0  0  0  0  0  0
   22.6118  -21.0815  -12.2757 C   0  0  0  0  0  0  0  0  0  0  0  0
   21.1571  -21.1359  -12.4715 C   0  0  0  0  0  0  0  0  0  0  0  0
   20.6657  -21.6755  -13.4704 O   0  0  0  0  0  0  0  0  0  0  0  0
   25.0136  -21.2698   -9.7851 C   0  0  0  0  0  0  0  0  0  0  0  0
   24.7684  -21.1425   -8.5578 O   0  0  0  0  0  0  0  0  0  0  0  0
   20.3209  -20.5678  -11.5117 O   0  0  0  0  0  0  0  0  0  0  0  0
   25.7712  -22.3681  -10.1655 O   0  0  0  0  0  0  0  0  0  0  0  0
  2  1  1  6
  3  2  1  0
  4  2  1  0
  4  6  1  0
  4  5  1  6
  6  7  2  0
  9  8  1  1
  9 10  1  0
  9 11  1  0
 11 13  1  0
 11 12  1  1
 12  6  1  0
 13 14  2  0
 15 13  1  0
 15 16  1  0
 16 21  1  0
 16 17  1  6
 18 17  1  0
 19 18  1  0
 20 19  2  0
 21 22  2  0
 21 24  1  0
 23 19  1  0
M  END
$$$$
