VVE.pdb
     RDKit          3D

 24 23  0  0  1  0  0  0  0  0999 V2000
   21.7947  -14.8276  -18.9893 C   0  0  0  0  0  0  0  0  0  0  0  0
   21.0334  -13.5153  -18.9854 C   0  0  1  0  0  0  0  0  0  0  0  0
   20.1289  -13.4712  -20.1743 C   0  0  0  0  0  0  0  0  0  0  0  0
   20.2952  -13.3142  -17.6723 C   0  0  2  0  0  0  0  0  0  0  0  0
   19.3651  -14.3842  -17.4899 N   0  0  0  0  0  0  0  0  0  0  0  0
   19.7097  -11.9756  -17.5592 C   0  0  0  0  0  0  0  0  0  0  0  0
   19.0230  -11.5394  -18.5181 O   0  0  0  0  0  0  0  0  0  0  0  0
   18.5173  -10.1554  -14.0098 C   0  0  0  0  0  0  0  0  0  0  0  0
   18.1233   -9.7637  -15.3966 C   0  0  2  0  0  0  0  0  0  0  0  0
   17.0225  -10.6592  -15.9341 C   0  0  0  0  0  0  0  0  0  0  0  0
   19.3453   -9.8117  -16.3200 C   0  0  2  0  0  0  0  0  0  0  0  0
   19.8741  -11.1376  -16.4224 N   0  0  0  0  0  0  0  0  0  0  0  0
   20.3760   -8.8982  -15.7149 C   0  0  0  0  0  0  0  0  0  0  0  0
   21.1964   -9.3064  -14.8629 O   0  0  0  0  0  0  0  0  0  0  0  0
   20.4609   -7.5315  -16.0860 N   0  0  0  0  0  0  0  0  0  0  0  0
   21.5029   -6.6762  -15.5349 C   0  0  1  0  0  0  0  0  0  0  0  0
   21.4218   -5.3812  -16.2650 C   0  0  0  0  0  0  0  0  0  0  0  0
   22.3657   -4.3164  -15.8423 C   0  0  0  0  0  0  0  0  0  0  0  0
   21.7650   -3.1706  -15.1468 C   0  0  0  0  0  0  0  0  0  0  0  0
   21.8987   -3.0215  -13.9260 O   0  0  0  0  0  0  0  0  0  0  0  0
   21.3602   -6.5313  -14.0657 C   0  0  0  0  0  0  0  0  0  0  0  0
   20.2531   -6.4683  -13.4716 O   0  0  0  0  0  0  0  0  0  0  0  0
   21.0329   -2.2384  -15.8804 O   0  0  0  0  0  0  0  0  0  0  0  0
   22.5015   -6.4590  -13.2801 O   0  0  0  0  0  0  0  0  0  0  0  0
  2  1  1  1
  3  2  1  0
  4  2  1  0
  4  6  1  0
  4  5  1  6
  6  7  2  0
  9  8  1  1
  9 10  1  0
  9 11  1  0
 11 13  1  0
 11 12  1  1
 12  6  1  0
 13 14  2  0
 15 13  1  0
 15 16  1  0
 16 21  1  0
 16 17  1  6
 18 17  1  0
 19 18  1  0
 20 19  2  0
 21 22  2  0
 21 24  1  0
 23 19  1  0
M  END
$$$$
