VVE.pdb
     RDKit          3D

 24 23  0  0  1  0  0  0  0  0999 V2000
   26.1518  -21.0972   -8.2332 C   0  0  0  0  0  0  0  0  0  0  0  0
   25.6408  -20.6692   -9.5960 C   0  0  1  0  0  0  0  0  0  0  0  0
   25.7540  -19.1838   -9.7163 C   0  0  0  0  0  0  0  0  0  0  0  0
   26.3629  -21.4100  -10.7092 C   0  0  2  0  0  0  0  0  0  0  0  0
   27.7726  -21.2349  -10.5499 N   0  0  0  0  0  0  0  0  0  0  0  0
   25.8541  -21.0573  -12.0375 C   0  0  0  0  0  0  0  0  0  0  0  0
   26.4291  -20.1379  -12.6742 O   0  0  0  0  0  0  0  0  0  0  0  0
   23.5331  -23.6808  -14.3571 C   0  0  0  0  0  0  0  0  0  0  0  0
   24.2750  -22.5103  -14.9148 C   0  0  2  0  0  0  0  0  0  0  0  0
   25.7179  -22.8643  -15.2235 C   0  0  0  0  0  0  0  0  0  0  0  0
   24.2149  -21.3369  -13.9310 C   0  0  2  0  0  0  0  0  0  0  0  0
   24.7427  -21.6977  -12.6507 N   0  0  0  0  0  0  0  0  0  0  0  0
   22.7637  -20.9641  -13.7966 C   0  0  0  0  0  0  0  0  0  0  0  0
   22.0515  -21.4186  -12.8737 O   0  0  0  0  0  0  0  0  0  0  0  0
   22.1402  -20.0790  -14.7136 N   0  0  0  0  0  0  0  0  0  0  0  0
   20.7366  -19.7215  -14.5623 C   0  0  1  0  0  0  0  0  0  0  0  0
   20.5295  -18.4690  -15.3401 C   0  0  0  0  0  0  0  0  0  0  0  0
   20.5305  -18.5940  -16.8192 C   0  0  0  0  0  0  0  0  0  0  0  0
   20.3034  -17.3490  -17.5649 C   0  0  0  0  0  0  0  0  0  0  0  0
   20.1270  -16.2746  -16.9775 O   0  0  0  0  0  0  0  0  0  0  0  0
   19.8489  -20.8306  -14.9888 C   0  0  0  0  0  0  0  0  0  0  0  0
   20.1765  -21.7070  -15.8297 O   0  0  0  0  0  0  0  0  0  0  0  0
   20.2875  -17.3852  -18.9583 O   0  0  0  0  0  0  0  0  0  0  0  0
   18.5777  -20.9271  -14.4413 O   0  0  0  0  0  0  0  0  0  0  0  0
  2  1  1  1
  3  2  1  0
  4  2  1  0
  4  6  1  0
  4  5  1  6
  6  7  2  0
  9  8  1  1
  9 10  1  0
  9 11  1  0
 11 13  1  0
 11 12  1  1
 12  6  1  0
 13 14  2  0
 15 13  1  0
 15 16  1  0
 16 21  1  0
 16 17  1  6
 18 17  1  0
 19 18  1  0
 20 19  2  0
 21 22  2  0
 21 24  1  0
 23 19  1  0
M  END
$$$$
