VVE.pdb
     RDKit          3D

 24 23  0  0  1  0  0  0  0  0999 V2000
   28.4048  -17.7529  -16.1480 C   0  0  0  0  0  0  0  0  0  0  0  0
   27.2236  -18.5046  -15.5637 C   0  0  1  0  0  0  0  0  0  0  0  0
   26.1301  -18.5638  -16.5807 C   0  0  0  0  0  0  0  0  0  0  0  0
   27.6414  -19.8774  -15.0632 C   0  0  2  0  0  0  0  0  0  0  0  0
   28.2168  -20.6144  -16.1444 N   0  0  0  0  0  0  0  0  0  0  0  0
   26.5563  -20.5723  -14.3651 C   0  0  0  0  0  0  0  0  0  0  0  0
   25.8314  -21.3627  -15.0217 O   0  0  0  0  0  0  0  0  0  0  0  0
   25.2026  -19.7707  -10.1736 C   0  0  0  0  0  0  0  0  0  0  0  0
   25.4396  -21.1111  -10.7892 C   0  0  2  0  0  0  0  0  0  0  0  0
   26.8454  -21.6091  -10.5093 C   0  0  0  0  0  0  0  0  0  0  0  0
   25.1912  -21.0433  -12.2999 C   0  0  2  0  0  0  0  0  0  0  0  0
   26.2745  -20.4035  -12.9818 N   0  0  0  0  0  0  0  0  0  0  0  0
   23.9287  -20.2481  -12.4914 C   0  0  0  0  0  0  0  0  0  0  0  0
   23.9528  -19.0095  -12.6674 O   0  0  0  0  0  0  0  0  0  0  0  0
   22.6541  -20.8713  -12.4804 N   0  0  0  0  0  0  0  0  0  0  0  0
   21.5316  -20.2776  -13.1935 C   0  0  1  0  0  0  0  0  0  0  0  0
   21.9196  -20.2237  -14.6299 C   0  0  0  0  0  0  0  0  0  0  0  0
   20.9215  -19.6551  -15.5700 C   0  0  0  0  0  0  0  0  0  0  0  0
   20.9711  -20.1734  -16.9435 C   0  0  0  0  0  0  0  0  0  0  0  0
   22.0030  -20.6820  -17.3985 O   0  0  0  0  0  0  0  0  0  0  0  0
   20.2789  -21.0342  -12.9522 C   0  0  0  0  0  0  0  0  0  0  0  0
   20.2419  -22.2645  -12.6924 O   0  0  0  0  0  0  0  0  0  0  0  0
   19.8326  -20.0878  -17.7433 O   0  0  0  0  0  0  0  0  0  0  0  0
   19.0643  -20.3662  -13.0113 O   0  0  0  0  0  0  0  0  0  0  0  0
  2  1  1  6
  3  2  1  0
  4  2  1  0
  4  6  1  0
  4  5  1  6
  6  7  2  0
  9  8  1  6
  9 10  1  0
  9 11  1  0
 11 13  1  0
 11 12  1  6
 12  6  1  0
 13 14  2  0
 15 13  1  0
 15 16  1  0
 16 21  1  0
 16 17  1  6
 18 17  1  0
 19 18  1  0
 20 19  2  0
 21 22  2  0
 21 24  1  0
 23 19  1  0
M  END
$$$$
