VVE.pdb
     RDKit          3D

 24 23  0  0  1  0  0  0  0  0999 V2000
   26.6450  -10.1452  -15.7501 C   0  0  0  0  0  0  0  0  0  0  0  0
   26.3466  -11.4266  -16.5054 C   0  0  1  0  0  0  0  0  0  0  0  0
   27.3794  -12.4500  -16.1595 C   0  0  0  0  0  0  0  0  0  0  0  0
   24.9285  -11.9028  -16.2374 C   0  0  2  0  0  0  0  0  0  0  0  0
   24.7251  -13.1579  -16.8907 N   0  0  0  0  0  0  0  0  0  0  0  0
   23.9261  -10.8829  -16.5575 C   0  0  0  0  0  0  0  0  0  0  0  0
   23.7207  -10.6039  -17.7664 O   0  0  0  0  0  0  0  0  0  0  0  0
   20.7881   -9.9112  -13.9470 C   0  0  0  0  0  0  0  0  0  0  0  0
   20.7812   -9.6578  -15.4193 C   0  0  2  0  0  0  0  0  0  0  0  0
   20.3471  -10.8896  -16.1919 C   0  0  0  0  0  0  0  0  0  0  0  0
   22.1719   -9.2061  -15.8779 C   0  0  2  0  0  0  0  0  0  0  0  0
   23.1688  -10.1873  -15.5756 N   0  0  0  0  0  0  0  0  0  0  0  0
   22.4732   -7.9304  -15.1399 C   0  0  0  0  0  0  0  0  0  0  0  0
   23.0814   -7.9320  -14.0463 O   0  0  0  0  0  0  0  0  0  0  0  0
   22.0792   -6.6683  -15.6545 N   0  0  0  0  0  0  0  0  0  0  0  0
   22.4287   -5.4397  -14.9550 C   0  0  1  0  0  0  0  0  0  0  0  0
   22.1344   -4.3187  -15.8895 C   0  0  0  0  0  0  0  0  0  0  0  0
   22.4245   -2.9478  -15.3998 C   0  0  0  0  0  0  0  0  0  0  0  0
   21.7436   -1.8584  -16.1120 C   0  0  0  0  0  0  0  0  0  0  0  0
   21.0387   -2.0844  -17.1032 O   0  0  0  0  0  0  0  0  0  0  0  0
   21.7079   -5.3312  -13.6632 C   0  0  0  0  0  0  0  0  0  0  0  0
   20.5740   -5.8321  -13.4488 O   0  0  0  0  0  0  0  0  0  0  0  0
   21.8984   -0.5494  -15.6585 O   0  0  0  0  0  0  0  0  0  0  0  0
   22.3000   -4.6413  -12.6152 O   0  0  0  0  0  0  0  0  0  0  0  0
  2  1  1  1
  3  2  1  0
  4  2  1  0
  4  6  1  0
  4  5  1  6
  6  7  2  0
  9  8  1  1
  9 10  1  0
  9 11  1  0
 11 13  1  0
 11 12  1  1
 12  6  1  0
 13 14  2  0
 15 13  1  0
 15 16  1  0
 16 21  1  0
 16 17  1  6
 18 17  1  0
 19 18  1  0
 20 19  2  0
 21 22  2  0
 21 24  1  0
 23 19  1  0
M  END
$$$$
