VVE.pdb
     RDKit          3D

 24 23  0  0  1  0  0  0  0  0999 V2000
   16.4495  -11.3994  -18.6284 C   0  0  0  0  0  0  0  0  0  0  0  0
   17.2312  -10.6048  -17.5992 C   0  0  1  0  0  0  0  0  0  0  0  0
   16.3053   -9.6588  -16.9055 C   0  0  0  0  0  0  0  0  0  0  0  0
   17.9655  -11.5255  -16.6386 C   0  0  2  0  0  0  0  0  0  0  0  0
   17.0198  -12.3879  -16.0021 N   0  0  0  0  0  0  0  0  0  0  0  0
   18.8349  -10.7917  -15.7149 C   0  0  0  0  0  0  0  0  0  0  0  0
   18.3384  -10.3535  -14.6458 O   0  0  0  0  0  0  0  0  0  0  0  0
   23.4107   -9.7350  -14.1745 C   0  0  0  0  0  0  0  0  0  0  0  0
   22.5014  -10.4980  -15.0815 C   0  0  2  0  0  0  0  0  0  0  0  0
   23.0174  -10.5024  -16.5085 C   0  0  0  0  0  0  0  0  0  0  0  0
   21.0906   -9.9020  -15.0287 C   0  0  2  0  0  0  0  0  0  0  0  0
   20.2137  -10.5453  -15.9588 N   0  0  0  0  0  0  0  0  0  0  0  0
   21.2270   -8.4459  -15.3813 C   0  0  0  0  0  0  0  0  0  0  0  0
   21.5159   -8.0752  -16.5409 O   0  0  0  0  0  0  0  0  0  0  0  0
   21.0332   -7.4294  -14.4108 N   0  0  0  0  0  0  0  0  0  0  0  0
   21.2012   -6.0261  -14.7623 C   0  0  1  0  0  0  0  0  0  0  0  0
   19.8472   -5.4090  -14.7117 C   0  0  0  0  0  0  0  0  0  0  0  0
   19.7721   -3.9444  -14.9411 C   0  0  0  0  0  0  0  0  0  0  0  0
   18.4220   -3.3660  -14.9351 C   0  0  0  0  0  0  0  0  0  0  0  0
   17.4188   -4.0841  -14.8442 O   0  0  0  0  0  0  0  0  0  0  0  0
   22.1828   -5.3610  -13.8712 C   0  0  0  0  0  0  0  0  0  0  0  0
   22.3821   -5.6947  -12.6747 O   0  0  0  0  0  0  0  0  0  0  0  0
   18.2750   -1.9833  -15.0339 O   0  0  0  0  0  0  0  0  0  0  0  0
   22.9369   -4.3062  -14.3649 O   0  0  0  0  0  0  0  0  0  0  0  0
  2  1  1  6
  3  2  1  0
  4  2  1  0
  4  6  1  0
  4  5  1  1
  6  7  2  0
  9  8  1  1
  9 10  1  0
  9 11  1  0
 11 13  1  0
 11 12  1  6
 12  6  1  0
 13 14  2  0
 15 13  1  0
 15 16  1  0
 16 21  1  0
 16 17  1  1
 18 17  1  0
 19 18  1  0
 20 19  2  0
 21 22  2  0
 21 24  1  0
 23 19  1  0
M  END
$$$$
