VVE.pdb
     RDKit          3D

 24 23  0  0  1  0  0  0  0  0999 V2000
   19.1957  -11.8313  -19.5075 C   0  0  0  0  0  0  0  0  0  0  0  0
   19.1457  -13.2816  -19.0650 C   0  0  1  0  0  0  0  0  0  0  0  0
   18.9534  -14.1524  -20.2643 C   0  0  0  0  0  0  0  0  0  0  0  0
   20.3789  -13.6506  -18.2571 C   0  0  2  0  0  0  0  0  0  0  0  0
   20.3145  -15.0361  -17.9116 N   0  0  0  0  0  0  0  0  0  0  0  0
   20.5924  -12.7512  -17.1200 C   0  0  0  0  0  0  0  0  0  0  0  0
   19.7219  -12.7155  -16.2132 O   0  0  0  0  0  0  0  0  0  0  0  0
   24.3574  -10.8740  -16.3887 C   0  0  0  0  0  0  0  0  0  0  0  0
   23.3462  -11.1205  -15.3170 C   0  0  2  0  0  0  0  0  0  0  0  0
   23.5396  -12.4816  -14.6748 C   0  0  0  0  0  0  0  0  0  0  0  0
   21.9323  -11.0026  -15.8960 C   0  0  2  0  0  0  0  0  0  0  0  0
   21.7322  -11.9126  -16.9823 N   0  0  0  0  0  0  0  0  0  0  0  0
   21.7856   -9.5873  -16.3842 C   0  0  0  0  0  0  0  0  0  0  0  0
   22.2478   -9.2219  -17.4880 O   0  0  0  0  0  0  0  0  0  0  0  0
   21.1151   -8.6047  -15.6109 N   0  0  0  0  0  0  0  0  0  0  0  0
   21.0582   -7.2200  -16.0582 C   0  0  1  0  0  0  0  0  0  0  0  0
   19.7728   -7.0618  -16.7927 C   0  0  0  0  0  0  0  0  0  0  0  0
   18.5280   -7.1809  -15.9930 C   0  0  0  0  0  0  0  0  0  0  0  0
   17.2728   -7.0156  -16.7378 C   0  0  0  0  0  0  0  0  0  0  0  0
   16.4094   -7.9015  -16.7408 O   0  0  0  0  0  0  0  0  0  0  0  0
   21.2032   -6.2796  -14.9204 C   0  0  0  0  0  0  0  0  0  0  0  0
   21.2650   -5.0296  -15.0474 O   0  0  0  0  0  0  0  0  0  0  0  0
   17.0567   -5.8380  -17.4517 O   0  0  0  0  0  0  0  0  0  0  0  0
   21.2771   -6.7861  -13.6308 O   0  0  0  0  0  0  0  0  0  0  0  0
  2  1  1  6
  3  2  1  0
  4  2  1  0
  4  6  1  0
  4  5  1  1
  6  7  2  0
  9  8  1  6
  9 10  1  0
  9 11  1  0
 11 13  1  0
 11 12  1  6
 12  6  1  0
 13 14  2  0
 15 13  1  0
 15 16  1  0
 16 21  1  0
 16 17  1  1
 18 17  1  0
 19 18  1  0
 20 19  2  0
 21 22  2  0
 21 24  1  0
 23 19  1  0
M  END
$$$$
