VVE.pdb
     RDKit          3D

 24 23  0  0  1  0  0  0  0  0999 V2000
   17.7509  -11.7877  -19.5328 C   0  0  0  0  0  0  0  0  0  0  0  0
   18.2804  -11.1588  -18.2578 C   0  0  1  0  0  0  0  0  0  0  0  0
   17.1659  -11.0466  -17.2685 C   0  0  0  0  0  0  0  0  0  0  0  0
   19.4736  -11.9315  -17.7204 C   0  0  2  0  0  0  0  0  0  0  0  0
   19.0932  -13.2935  -17.5115 N   0  0  0  0  0  0  0  0  0  0  0  0
   20.0789  -11.2849  -16.5529 C   0  0  0  0  0  0  0  0  0  0  0  0
   19.5329  -11.4422  -15.4311 O   0  0  0  0  0  0  0  0  0  0  0  0
   24.1029  -10.0203  -16.4624 C   0  0  0  0  0  0  0  0  0  0  0  0
   23.2752  -10.2800  -15.2462 C   0  0  2  0  0  0  0  0  0  0  0  0
   23.3029  -11.7471  -14.8596 C   0  0  0  0  0  0  0  0  0  0  0  0
   21.8330   -9.8218  -15.4885 C   0  0  2  0  0  0  0  0  0  0  0  0
   21.2534  -10.4862  -16.6157 N   0  0  0  0  0  0  0  0  0  0  0  0
   21.8913   -8.3407  -15.7453 C   0  0  0  0  0  0  0  0  0  0  0  0
   21.8223   -7.8715  -16.9032 O   0  0  0  0  0  0  0  0  0  0  0  0
   22.0273   -7.4112  -14.6820 N   0  0  0  0  0  0  0  0  0  0  0  0
   22.0107   -5.9784  -14.9422 C   0  0  1  0  0  0  0  0  0  0  0  0
   20.6730   -5.6647  -15.5156 C   0  0  0  0  0  0  0  0  0  0  0  0
   19.5237   -5.6810  -14.5764 C   0  0  0  0  0  0  0  0  0  0  0  0
   18.2218   -5.3235  -15.1549 C   0  0  0  0  0  0  0  0  0  0  0  0
   18.1380   -4.8334  -16.2877 O   0  0  0  0  0  0  0  0  0  0  0  0
   22.3193   -5.2042  -13.7151 C   0  0  0  0  0  0  0  0  0  0  0  0
   22.3840   -5.7097  -12.5650 O   0  0  0  0  0  0  0  0  0  0  0  0
   17.0642   -5.5425  -14.4098 O   0  0  0  0  0  0  0  0  0  0  0  0
   22.5539   -3.8407  -13.8180 O   0  0  0  0  0  0  0  0  0  0  0  0
  2  1  1  6
  3  2  1  0
  4  2  1  0
  4  6  1  0
  4  5  1  1
  6  7  2  0
  9  8  1  6
  9 10  1  0
  9 11  1  0
 11 13  1  0
 11 12  1  6
 12  6  1  0
 13 14  2  0
 15 13  1  0
 15 16  1  0
 16 21  1  0
 16 17  1  1
 18 17  1  0
 19 18  1  0
 20 19  2  0
 21 22  2  0
 21 24  1  0
 23 19  1  0
M  END
$$$$
