VVE.pdb
     RDKit          3D

 24 23  0  0  1  0  0  0  0  0999 V2000
   23.3383  -15.9552  -20.2267 C   0  0  0  0  0  0  0  0  0  0  0  0
   23.1543  -14.9235  -19.1297 C   0  0  1  0  0  0  0  0  0  0  0  0
   21.7618  -15.0202  -18.5959 C   0  0  0  0  0  0  0  0  0  0  0  0
   24.2138  -15.0762  -18.0508 C   0  0  2  0  0  0  0  0  0  0  0  0
   24.1750  -16.4119  -17.5429 N   0  0  0  0  0  0  0  0  0  0  0  0
   24.1214  -14.0341  -17.0247 C   0  0  0  0  0  0  0  0  0  0  0  0
   23.3076  -14.1949  -16.0796 O   0  0  0  0  0  0  0  0  0  0  0  0
   26.8379  -10.6700  -16.9284 C   0  0  0  0  0  0  0  0  0  0  0  0
   26.2588  -11.2999  -15.7039 C   0  0  2  0  0  0  0  0  0  0  0  0
   27.1532  -12.4047  -15.1728 C   0  0  0  0  0  0  0  0  0  0  0  0
   24.8613  -11.8492  -16.0103 C   0  0  2  0  0  0  0  0  0  0  0  0
   24.9024  -12.8462  -17.0361 N   0  0  0  0  0  0  0  0  0  0  0  0
   24.0326  -10.6806  -16.4692 C   0  0  0  0  0  0  0  0  0  0  0  0
   24.1070  -10.2414  -17.6385 O   0  0  0  0  0  0  0  0  0  0  0  0
   23.1295  -10.0257  -15.5926 N   0  0  0  0  0  0  0  0  0  0  0  0
   22.2873   -8.9384  -16.0716 C   0  0  1  0  0  0  0  0  0  0  0  0
   20.8906   -9.2785  -15.6839 C   0  0  0  0  0  0  0  0  0  0  0  0
   19.8619   -8.2322  -15.9086 C   0  0  0  0  0  0  0  0  0  0  0  0
   18.4862   -8.6030  -15.5516 C   0  0  0  0  0  0  0  0  0  0  0  0
   18.2275   -9.7120  -15.0683 O   0  0  0  0  0  0  0  0  0  0  0  0
   22.7417   -7.6303  -15.5400 C   0  0  0  0  0  0  0  0  0  0  0  0
   23.4646   -7.5016  -14.5186 O   0  0  0  0  0  0  0  0  0  0  0  0
   17.4587   -7.6851  -15.7635 O   0  0  0  0  0  0  0  0  0  0  0  0
   22.3592   -6.4667  -16.1916 O   0  0  0  0  0  0  0  0  0  0  0  0
  2  1  1  6
  3  2  1  0
  4  2  1  0
  4  6  1  0
  4  5  1  1
  6  7  2  0
  9  8  1  6
  9 10  1  0
  9 11  1  0
 11 13  1  0
 11 12  1  6
 12  6  1  0
 13 14  2  0
 15 13  1  0
 15 16  1  0
 16 21  1  0
 16 17  1  1
 18 17  1  0
 19 18  1  0
 20 19  2  0
 21 22  2  0
 21 24  1  0
 23 19  1  0
M  END
$$$$
