VVE.pdb
     RDKit          3D

 24 23  0  0  1  0  0  0  0  0999 V2000
   32.0646   -9.0984  -17.1436 C   0  0  0  0  0  0  0  0  0  0  0  0
   32.8878  -10.1057  -17.9243 C   0  0  1  0  0  0  0  0  0  0  0  0
   34.3207   -9.9873  -17.5166 C   0  0  0  0  0  0  0  0  0  0  0  0
   32.3380  -11.5122  -17.7536 C   0  0  2  0  0  0  0  0  0  0  0  0
   33.1773  -12.4311  -18.4570 N   0  0  0  0  0  0  0  0  0  0  0  0
   30.9167  -11.6029  -18.0985 C   0  0  0  0  0  0  0  0  0  0  0  0
   30.5929  -11.5832  -19.3134 O   0  0  0  0  0  0  0  0  0  0  0  0
   27.9113  -12.5354  -15.1918 C   0  0  0  0  0  0  0  0  0  0  0  0
   27.7124  -12.7555  -16.6560 C   0  0  2  0  0  0  0  0  0  0  0  0
   28.1497  -14.1478  -17.0719 C   0  0  0  0  0  0  0  0  0  0  0  0
   28.4826  -11.6969  -17.4526 C   0  0  2  0  0  0  0  0  0  0  0  0
   29.8777  -11.7123  -17.1341 N   0  0  0  0  0  0  0  0  0  0  0  0
   27.8901  -10.3652  -17.0802 C   0  0  0  0  0  0  0  0  0  0  0  0
   28.5057   -9.5520  -16.3554 O   0  0  0  0  0  0  0  0  0  0  0  0
   26.6049   -9.9747  -17.5368 N   0  0  0  0  0  0  0  0  0  0  0  0
   26.2546   -8.5658  -17.6517 C   0  0  1  0  0  0  0  0  0  0  0  0
   27.2434   -7.9553  -18.5825 C   0  0  0  0  0  0  0  0  0  0  0  0
   27.0599   -6.5174  -18.9021 C   0  0  0  0  0  0  0  0  0  0  0  0
   28.0651   -5.9295  -19.7973 C   0  0  0  0  0  0  0  0  0  0  0  0
   28.9401   -5.1692  -19.3652 O   0  0  0  0  0  0  0  0  0  0  0  0
   24.8492   -8.3941  -18.0937 C   0  0  0  0  0  0  0  0  0  0  0  0
   24.2422   -9.2105  -18.8337 O   0  0  0  0  0  0  0  0  0  0  0  0
   28.0273   -6.2373  -21.1563 O   0  0  0  0  0  0  0  0  0  0  0  0
   24.1426   -7.2746  -17.6786 O   0  0  0  0  0  0  0  0  0  0  0  0
  2  1  1  1
  3  2  1  0
  4  2  1  0
  4  6  1  0
  4  5  1  6
  6  7  2  0
  9  8  1  1
  9 10  1  0
  9 11  1  0
 11 13  1  0
 11 12  1  1
 12  6  1  0
 13 14  2  0
 15 13  1  0
 15 16  1  0
 16 21  1  0
 16 17  1  6
 18 17  1  0
 19 18  1  0
 20 19  2  0
 21 22  2  0
 21 24  1  0
 23 19  1  0
M  END
$$$$
