CQV.pdb
     RDKit          3D

 23 22  0  0  1  0  0  0  0  0999 V2000
   28.5814  -21.4544  -17.0758 N   0  0  0  0  0  0  0  0  0  0  0  0
   27.9443  -20.4455  -16.2520 C   0  0  1  0  0  0  0  0  0  0  0  0
   27.5753  -19.2997  -17.1583 C   0  0  0  0  0  0  0  0  0  0  0  0
   28.9669  -18.2731  -17.6221 S   0  0  0  0  0  0  0  0  0  0  0  0
   26.7871  -21.0110  -15.5402 C   0  0  0  0  0  0  0  0  0  0  0  0
   25.9714  -21.8120  -16.0685 O   0  0  0  0  0  0  0  0  0  0  0  0
   24.4590  -19.9426   -8.9381 N   0  0  0  0  0  0  0  0  0  0  0  0
   25.0931  -20.9791   -9.6473 C   0  0  0  0  0  0  0  0  0  0  0  0
   25.9984  -21.6465   -9.0446 O   0  0  0  0  0  0  0  0  0  0  0  0
   24.7421  -21.3063  -11.0457 C   0  0  0  0  0  0  0  0  0  0  0  0
   25.7691  -20.7283  -11.9574 C   0  0  0  0  0  0  0  0  0  0  0  0
   25.4236  -21.0207  -13.4178 C   0  0  2  0  0  0  0  0  0  0  0  0
   26.5638  -20.6492  -14.1973 N   0  0  0  0  0  0  0  0  0  0  0  0
   24.1963  -20.2930  -13.7243 C   0  0  0  0  0  0  0  0  0  0  0  0
   24.1103  -19.0426  -13.7642 O   0  0  0  0  0  0  0  0  0  0  0  0
   22.4147  -20.7864  -16.7689 C   0  0  0  0  0  0  0  0  0  0  0  0
   21.3923  -21.1018  -15.7267 C   0  0  2  0  0  0  0  0  0  0  0  0
   20.0638  -20.4686  -16.1398 C   0  0  0  0  0  0  0  0  0  0  0  0
   21.7740  -20.4478  -14.3939 C   0  0  2  0  0  0  0  0  0  0  0  0
   23.0231  -21.0473  -13.9951 N   0  0  0  0  0  0  0  0  0  0  0  0
   20.7106  -20.7795  -13.4394 C   0  0  0  0  0  0  0  0  0  0  0  0
   20.5691  -21.9009  -12.8967 O   0  0  0  0  0  0  0  0  0  0  0  0
   19.7888  -19.8001  -13.1010 O   0  0  0  0  0  0  0  0  0  0  0  0
  2  1  1  6
  2  3  1  0
  3  4  1  0
  5 13  1  0
  5  2  1  0
  6  5  2  0
  8  7  1  0
  9  8  2  0
 10  8  1  0
 11 10  1  0
 12 11  1  1
 12 14  1  0
 12 13  1  0
 14 15  2  0
 17 16  1  6
 17 19  1  0
 17 18  1  0
 20 14  1  0
 19 20  1  1
 21 19  1  0
 21 23  1  0
 22 21  2  0
M  END
$$$$
