CQV.pdb
     RDKit          3D

 23 22  0  0  1  0  0  0  0  0999 V2000
   26.9346  -24.3650  -15.8762 N   0  0  0  0  0  0  0  0  0  0  0  0
   26.6382  -22.9756  -15.5861 C   0  0  1  0  0  0  0  0  0  0  0  0
   27.1707  -22.1584  -16.7346 C   0  0  0  0  0  0  0  0  0  0  0  0
   28.9586  -22.1192  -16.8209 S   0  0  0  0  0  0  0  0  0  0  0  0
   25.1954  -22.7871  -15.3667 C   0  0  0  0  0  0  0  0  0  0  0  0
   24.3087  -23.3809  -16.0355 O   0  0  0  0  0  0  0  0  0  0  0  0
   21.9210  -19.0795  -11.4093 N   0  0  0  0  0  0  0  0  0  0  0  0
   21.3700  -20.3740  -11.4131 C   0  0  0  0  0  0  0  0  0  0  0  0
   20.2367  -20.5409  -10.8508 O   0  0  0  0  0  0  0  0  0  0  0  0
   22.0591  -21.5217  -12.0405 C   0  0  0  0  0  0  0  0  0  0  0  0
   23.3241  -21.0496  -12.6706 C   0  0  0  0  0  0  0  0  0  0  0  0
   23.4088  -21.5090  -14.1265 C   0  0  2  0  0  0  0  0  0  0  0  0
   24.7645  -21.9002  -14.3609 N   0  0  0  0  0  0  0  0  0  0  0  0
   22.9266  -20.4082  -14.9545 C   0  0  0  0  0  0  0  0  0  0  0  0
   23.5065  -19.3016  -15.0621 O   0  0  0  0  0  0  0  0  0  0  0  0
   20.2330  -21.4481  -17.8127 C   0  0  0  0  0  0  0  0  0  0  0  0
   20.9064  -20.1160  -17.8672 C   0  0  2  0  0  0  0  0  0  0  0  0
   22.3147  -20.3045  -18.4308 C   0  0  0  0  0  0  0  0  0  0  0  0
   21.0907  -19.5561  -16.4522 C   0  0  2  0  0  0  0  0  0  0  0  0
   21.7239  -20.6005  -15.6859 N   0  0  0  0  0  0  0  0  0  0  0  0
   19.7493  -19.2704  -15.9316 C   0  0  0  0  0  0  0  0  0  0  0  0
   19.1192  -20.0178  -15.1465 O   0  0  0  0  0  0  0  0  0  0  0  0
   19.1178  -18.0990  -16.3223 O   0  0  0  0  0  0  0  0  0  0  0  0
  2  1  1  6
  2  3  1  0
  3  4  1  0
  5 13  1  0
  5  2  1  0
  6  5  2  0
  8  7  1  0
  9  8  2  0
 10  8  1  0
 11 10  1  0
 12 11  1  1
 12 14  1  0
 12 13  1  0
 14 15  2  0
 17 16  1  1
 17 19  1  0
 17 18  1  0
 20 14  1  0
 19 20  1  1
 21 19  1  0
 21 23  1  0
 22 21  2  0
M  END
$$$$
