CQV.pdb
     RDKit          3D

 23 22  0  0  1  0  0  0  0  0999 V2000
   28.8424  -23.8118  -16.5924 N   0  0  0  0  0  0  0  0  0  0  0  0
   28.4677  -22.4246  -16.3987 C   0  0  1  0  0  0  0  0  0  0  0  0
   28.3726  -21.7950  -17.7644 C   0  0  0  0  0  0  0  0  0  0  0  0
   29.9621  -21.5185  -18.5407 S   0  0  0  0  0  0  0  0  0  0  0  0
   27.2153  -22.3269  -15.6323 C   0  0  0  0  0  0  0  0  0  0  0  0
   26.2244  -23.0805  -15.8237 O   0  0  0  0  0  0  0  0  0  0  0  0
   26.1904  -22.0419  -10.6195 N   0  0  0  0  0  0  0  0  0  0  0  0
   25.2026  -21.0429  -10.6947 C   0  0  0  0  0  0  0  0  0  0  0  0
   24.2666  -21.0639   -9.8276 O   0  0  0  0  0  0  0  0  0  0  0  0
   25.2234  -19.9912  -11.7335 C   0  0  0  0  0  0  0  0  0  0  0  0
   26.3667  -20.2362  -12.6570 C   0  0  0  0  0  0  0  0  0  0  0  0
   25.9310  -21.0982  -13.8422 C   0  0  2  0  0  0  0  0  0  0  0  0
   27.1000  -21.3458  -14.6284 N   0  0  0  0  0  0  0  0  0  0  0  0
   24.8610  -20.3800  -14.5271 C   0  0  0  0  0  0  0  0  0  0  0  0
   25.0006  -19.2576  -15.0686 O   0  0  0  0  0  0  0  0  0  0  0  0
   22.9975  -21.6808  -17.3041 C   0  0  0  0  0  0  0  0  0  0  0  0
   21.9534  -21.4296  -16.2660 C   0  0  2  0  0  0  0  0  0  0  0  0
   20.7331  -20.8057  -16.9429 C   0  0  0  0  0  0  0  0  0  0  0  0
   22.4503  -20.3911  -15.2538 C   0  0  2  0  0  0  0  0  0  0  0  0
   23.5789  -20.9894  -14.5852 N   0  0  0  0  0  0  0  0  0  0  0  0
   21.3510  -20.1589  -14.3107 C   0  0  0  0  0  0  0  0  0  0  0  0
   20.5240  -19.2209  -14.4023 O   0  0  0  0  0  0  0  0  0  0  0  0
   21.1986  -21.0245  -13.2379 O   0  0  0  0  0  0  0  0  0  0  0  0
  2  1  1  6
  2  3  1  0
  3  4  1  0
  5 13  1  0
  5  2  1  0
  6  5  2  0
  8  7  1  0
  9  8  2  0
 10  8  1  0
 11 10  1  0
 12 11  1  1
 12 14  1  0
 12 13  1  0
 14 15  2  0
 17 16  1  6
 17 19  1  0
 17 18  1  0
 20 14  1  0
 19 20  1  1
 21 19  1  0
 21 23  1  0
 22 21  2  0
M  END
$$$$
