CQV.pdb
     RDKit          3D

 23 22  0  0  1  0  0  0  0  0999 V2000
   15.8643  -13.0477  -14.2726 N   0  0  0  0  0  0  0  0  0  0  0  0
   15.1014  -11.8555  -13.9576 C   0  0  1  0  0  0  0  0  0  0  0  0
   13.7037  -12.3004  -13.6128 C   0  0  0  0  0  0  0  0  0  0  0  0
   12.5847  -10.9475  -13.2620 S   0  0  0  0  0  0  0  0  0  0  0  0
   15.7468  -11.0969  -12.8744 C   0  0  0  0  0  0  0  0  0  0  0  0
   16.0385  -11.5968  -11.7559 O   0  0  0  0  0  0  0  0  0  0  0  0
   20.0416   -7.1087  -14.1093 N   0  0  0  0  0  0  0  0  0  0  0  0
   20.1778   -7.4983  -12.7643 C   0  0  0  0  0  0  0  0  0  0  0  0
   21.2814   -7.2401  -12.1780 O   0  0  0  0  0  0  0  0  0  0  0  0
   19.0945   -8.1855  -12.0296 C   0  0  0  0  0  0  0  0  0  0  0  0
   17.8652   -8.2032  -12.8715 C   0  0  0  0  0  0  0  0  0  0  0  0
   16.7135   -8.8874  -12.1346 C   0  0  2  0  0  0  0  0  0  0  0  0
   16.0624   -9.7398  -13.0808 N   0  0  0  0  0  0  0  0  0  0  0  0
   15.8778   -7.8336  -11.5682 C   0  0  0  0  0  0  0  0  0  0  0  0
   15.0884   -7.1249  -12.2369 O   0  0  0  0  0  0  0  0  0  0  0  0
   14.2326   -8.1890   -7.9354 C   0  0  0  0  0  0  0  0  0  0  0  0
   15.1005   -6.9779   -8.0399 C   0  0  2  0  0  0  0  0  0  0  0  0
   14.4102   -5.8199   -7.3194 C   0  0  0  0  0  0  0  0  0  0  0  0
   15.2321   -6.5440   -9.5042 C   0  0  2  0  0  0  0  0  0  0  0  0
   15.9624   -7.5937  -10.1703 N   0  0  0  0  0  0  0  0  0  0  0  0
   15.9997   -5.2939   -9.5083 C   0  0  0  0  0  0  0  0  0  0  0  0
   15.5044   -4.1569   -9.3237 O   0  0  0  0  0  0  0  0  0  0  0  0
   17.3676   -5.3519   -9.7295 O   0  0  0  0  0  0  0  0  0  0  0  0
  2  1  1  1
  2  3  1  0
  3  4  1  0
  5 13  1  0
  5  2  1  0
  6  5  2  0
  8  7  1  0
  9  8  2  0
 10  8  1  0
 11 10  1  0
 12 11  1  6
 12 14  1  0
 12 13  1  0
 14 15  2  0
 17 16  1  6
 17 19  1  0
 17 18  1  0
 20 14  1  0
 19 20  1  6
 21 19  1  0
 21 23  1  0
 22 21  2  0
M  END
$$$$
