CQV.pdb
     RDKit          3D

 23 22  0  0  1  0  0  0  0  0999 V2000
   14.9866  -11.7547  -11.3356 N   0  0  0  0  0  0  0  0  0  0  0  0
   15.9261  -11.0520  -10.4836 C   0  0  1  0  0  0  0  0  0  0  0  0
   17.2089  -11.8425  -10.4898 C   0  0  0  0  0  0  0  0  0  0  0  0
   17.9217  -12.0432  -12.1200 S   0  0  0  0  0  0  0  0  0  0  0  0
   16.1038   -9.6644  -10.9400 C   0  0  0  0  0  0  0  0  0  0  0  0
   16.0277   -9.3164  -12.1480 O   0  0  0  0  0  0  0  0  0  0  0  0
   14.3569   -4.7842   -8.1990 N   0  0  0  0  0  0  0  0  0  0  0  0
   15.4930   -4.2060   -8.7944 C   0  0  0  0  0  0  0  0  0  0  0  0
   15.5403   -2.9335   -8.8766 O   0  0  0  0  0  0  0  0  0  0  0  0
   16.6102   -5.0217   -9.3163 C   0  0  0  0  0  0  0  0  0  0  0  0
   16.3173   -6.4634   -9.0797 C   0  0  0  0  0  0  0  0  0  0  0  0
   16.7139   -7.3034  -10.2941 C   0  0  2  0  0  0  0  0  0  0  0  0
   16.3737   -8.6592   -9.9910 N   0  0  0  0  0  0  0  0  0  0  0  0
   18.1307   -7.0581  -10.5437 C   0  0  0  0  0  0  0  0  0  0  0  0
   19.0443   -7.3096   -9.7224 O   0  0  0  0  0  0  0  0  0  0  0  0
   20.1071   -8.5258  -13.0944 C   0  0  0  0  0  0  0  0  0  0  0  0
   20.1379   -7.0696  -13.4256 C   0  0  2  0  0  0  0  0  0  0  0  0
   21.5509   -6.7025  -13.8785 C   0  0  0  0  0  0  0  0  0  0  0  0
   19.8679   -6.2338  -12.1693 C   0  0  2  0  0  0  0  0  0  0  0  0
   18.5006   -6.4988  -11.7963 N   0  0  0  0  0  0  0  0  0  0  0  0
   20.0390   -4.8278  -12.5510 C   0  0  0  0  0  0  0  0  0  0  0  0
   19.1188   -4.0925  -12.9808 O   0  0  0  0  0  0  0  0  0  0  0  0
   21.2963   -4.2538  -12.4362 O   0  0  0  0  0  0  0  0  0  0  0  0
  2  1  1  6
  2  3  1  0
  3  4  1  0
  5 13  1  0
  5  2  1  0
  6  5  2  0
  8  7  1  0
  9  8  2  0
 10  8  1  0
 11 10  1  0
 12 11  1  1
 12 14  1  0
 12 13  1  0
 14 15  2  0
 17 16  1  1
 17 19  1  0
 17 18  1  0
 20 14  1  0
 19 20  1  6
 21 19  1  0
 21 23  1  0
 22 21  2  0
M  END
$$$$
