CQV.pdb
     RDKit          3D

 23 22  0  0  1  0  0  0  0  0999 V2000
   18.1803  -11.9259  -15.1463 N   0  0  0  0  0  0  0  0  0  0  0  0
   17.2101  -10.9128  -15.5131 C   0  0  1  0  0  0  0  0  0  0  0  0
   15.8431  -11.5217  -15.3362 C   0  0  0  0  0  0  0  0  0  0  0  0
   15.4036  -12.6875  -16.6220 S   0  0  0  0  0  0  0  0  0  0  0  0
   17.4042   -9.6935  -14.7124 C   0  0  0  0  0  0  0  0  0  0  0  0
   17.3266   -9.6694  -13.4556 O   0  0  0  0  0  0  0  0  0  0  0  0
   22.0093   -6.0519  -15.0839 N   0  0  0  0  0  0  0  0  0  0  0  0
   21.7225   -7.2867  -14.4735 C   0  0  0  0  0  0  0  0  0  0  0  0
   22.6985   -7.9576  -13.9987 O   0  0  0  0  0  0  0  0  0  0  0  0
   20.3451   -7.8140  -14.3715 C   0  0  0  0  0  0  0  0  0  0  0  0
   19.4065   -6.8661  -15.0354 C   0  0  0  0  0  0  0  0  0  0  0  0
   17.9553   -7.2318  -14.7223 C   0  0  2  0  0  0  0  0  0  0  0  0
   17.6927   -8.4807  -15.3681 N   0  0  0  0  0  0  0  0  0  0  0  0
   17.1248   -6.1161  -15.1639 C   0  0  0  0  0  0  0  0  0  0  0  0
   16.7990   -5.9097  -16.3572 O   0  0  0  0  0  0  0  0  0  0  0  0
   13.7452   -5.2324  -14.7383 C   0  0  0  0  0  0  0  0  0  0  0  0
   14.4972   -4.2350  -13.9194 C   0  0  2  0  0  0  0  0  0  0  0  0
   13.7872   -2.8853  -14.0222 C   0  0  0  0  0  0  0  0  0  0  0  0
   15.8987   -4.0189  -14.5015 C   0  0  2  0  0  0  0  0  0  0  0  0
   16.6542   -5.2044  -14.1810 N   0  0  0  0  0  0  0  0  0  0  0  0
   16.4620   -2.8454  -13.8253 C   0  0  0  0  0  0  0  0  0  0  0  0
   16.2973   -1.6615  -14.2041 O   0  0  0  0  0  0  0  0  0  0  0  0
   17.2322   -3.0367  -12.6879 O   0  0  0  0  0  0  0  0  0  0  0  0
  2  1  1  1
  2  3  1  0
  3  4  1  0
  5 13  1  0
  5  2  1  0
  6  5  2  0
  8  7  1  0
  9  8  2  0
 10  8  1  0
 11 10  1  0
 12 11  1  6
 12 14  1  0
 12 13  1  0
 14 15  2  0
 17 16  1  6
 17 19  1  0
 17 18  1  0
 20 14  1  0
 19 20  1  1
 21 19  1  0
 21 23  1  0
 22 21  2  0
M  END
$$$$
