CQV.pdb
     RDKit          3D

 23 22  0  0  1  0  0  0  0  0999 V2000
   28.7010  -22.3435  -16.5004 N   0  0  0  0  0  0  0  0  0  0  0  0
   28.1525  -21.1767  -15.8370 C   0  0  1  0  0  0  0  0  0  0  0  0
   28.0406  -20.0881  -16.8728 C   0  0  0  0  0  0  0  0  0  0  0  0
   27.4731  -18.5235  -16.2128 S   0  0  0  0  0  0  0  0  0  0  0  0
   26.8656  -21.4984  -15.1999 C   0  0  0  0  0  0  0  0  0  0  0  0
   25.9675  -22.1829  -15.7576 O   0  0  0  0  0  0  0  0  0  0  0  0
   25.9660  -20.1267   -9.1070 N   0  0  0  0  0  0  0  0  0  0  0  0
   24.7989  -20.8269   -9.4634 C   0  0  0  0  0  0  0  0  0  0  0  0
   23.9879  -21.1467   -8.5315 O   0  0  0  0  0  0  0  0  0  0  0  0
   24.4965  -21.1932  -10.8634 C   0  0  0  0  0  0  0  0  0  0  0  0
   25.6610  -20.8433  -11.7246 C   0  0  0  0  0  0  0  0  0  0  0  0
   25.3774  -21.1895  -13.1865 C   0  0  2  0  0  0  0  0  0  0  0  0
   26.6068  -21.0248  -13.8989 N   0  0  0  0  0  0  0  0  0  0  0  0
   24.2825  -20.3316  -13.6280 C   0  0  0  0  0  0  0  0  0  0  0  0
   24.3648  -19.0852  -13.7377 O   0  0  0  0  0  0  0  0  0  0  0  0
   22.5188  -20.7277  -16.7433 C   0  0  0  0  0  0  0  0  0  0  0  0
   21.4441  -20.8556  -15.7139 C   0  0  2  0  0  0  0  0  0  0  0  0
   20.2237  -20.0633  -16.1823 C   0  0  0  0  0  0  0  0  0  0  0  0
   21.8888  -20.2055  -14.3988 C   0  0  2  0  0  0  0  0  0  0  0  0
   23.0437  -20.9457  -13.9548 N   0  0  0  0  0  0  0  0  0  0  0  0
   20.7780  -20.3596  -13.4533 C   0  0  0  0  0  0  0  0  0  0  0  0
   20.5621  -21.3917  -12.7748 O   0  0  0  0  0  0  0  0  0  0  0  0
   19.8951  -19.3036  -13.2836 O   0  0  0  0  0  0  0  0  0  0  0  0
  2  1  1  6
  2  3  1  0
  3  4  1  0
  5 13  1  0
  5  2  1  0
  6  5  2  0
  8  7  1  0
  9  8  2  0
 10  8  1  0
 11 10  1  0
 12 11  1  1
 12 14  1  0
 12 13  1  0
 14 15  2  0
 17 16  1  6
 17 19  1  0
 17 18  1  0
 20 14  1  0
 19 20  1  1
 21 19  1  0
 21 23  1  0
 22 21  2  0
M  END
$$$$
