CQV.pdb
     RDKit          3D

 23 22  0  0  1  0  0  0  0  0999 V2000
   29.0017  -21.0922  -16.7362 N   0  0  0  0  0  0  0  0  0  0  0  0
   28.3746  -20.1261  -15.8555 C   0  0  1  0  0  0  0  0  0  0  0  0
   28.1628  -18.8670  -16.6557 C   0  0  0  0  0  0  0  0  0  0  0  0
   27.5374  -17.4968  -15.6877 S   0  0  0  0  0  0  0  0  0  0  0  0
   27.1264  -20.6677  -15.2950 C   0  0  0  0  0  0  0  0  0  0  0  0
   26.2944  -21.3316  -15.9683 O   0  0  0  0  0  0  0  0  0  0  0  0
   26.1201  -20.3627   -9.0806 N   0  0  0  0  0  0  0  0  0  0  0  0
   24.9258  -20.9310   -9.5605 C   0  0  0  0  0  0  0  0  0  0  0  0
   24.0489  -21.2863   -8.7044 O   0  0  0  0  0  0  0  0  0  0  0  0
   24.6688  -21.1222  -11.0038 C   0  0  0  0  0  0  0  0  0  0  0  0
   25.8542  -20.6595  -11.7788 C   0  0  0  0  0  0  0  0  0  0  0  0
   25.6151  -20.8172  -13.2807 C   0  0  2  0  0  0  0  0  0  0  0  0
   26.8296  -20.4421  -13.9367 N   0  0  0  0  0  0  0  0  0  0  0  0
   24.4493  -20.0072  -13.6189 C   0  0  0  0  0  0  0  0  0  0  0  0
   24.4091  -18.7574  -13.5256 O   0  0  0  0  0  0  0  0  0  0  0  0
   21.6085  -21.9034  -15.8969 C   0  0  0  0  0  0  0  0  0  0  0  0
   21.6457  -20.4141  -15.7885 C   0  0  2  0  0  0  0  0  0  0  0  0
   22.7464  -19.8858  -16.7082 C   0  0  0  0  0  0  0  0  0  0  0  0
   22.0458  -19.9952  -14.3693 C   0  0  2  0  0  0  0  0  0  0  0  0
   23.2846  -20.6753  -14.0836 N   0  0  0  0  0  0  0  0  0  0  0  0
   20.9802  -20.4591  -13.4743 C   0  0  0  0  0  0  0  0  0  0  0  0
   21.0654  -21.4664  -12.7325 O   0  0  0  0  0  0  0  0  0  0  0  0
   19.7895  -19.7494  -13.4309 O   0  0  0  0  0  0  0  0  0  0  0  0
  2  1  1  6
  2  3  1  0
  3  4  1  0
  5 13  1  0
  5  2  1  0
  6  5  2  0
  8  7  1  0
  9  8  2  0
 10  8  1  0
 11 10  1  0
 12 11  1  1
 12 14  1  0
 12 13  1  0
 14 15  2  0
 17 16  1  1
 17 19  1  0
 17 18  1  0
 20 14  1  0
 19 20  1  1
 21 19  1  0
 21 23  1  0
 22 21  2  0
M  END
$$$$
