CQV.pdb
     RDKit          3D

 23 22  0  0  1  0  0  0  0  0999 V2000
   23.4062  -12.9394  -18.1257 N   0  0  0  0  0  0  0  0  0  0  0  0
   23.0682  -12.4333  -16.8096 C   0  0  1  0  0  0  0  0  0  0  0  0
   24.2865  -12.6073  -15.9401 C   0  0  0  0  0  0  0  0  0  0  0  0
   24.6437  -14.3147  -15.5367 S   0  0  0  0  0  0  0  0  0  0  0  0
   22.6152  -11.0356  -16.8912 C   0  0  0  0  0  0  0  0  0  0  0  0
   23.1950  -10.1578  -17.5837 O   0  0  0  0  0  0  0  0  0  0  0  0
   16.8007   -9.9066  -17.1252 N   0  0  0  0  0  0  0  0  0  0  0  0
   17.2815   -8.5907  -16.9961 C   0  0  0  0  0  0  0  0  0  0  0  0
   16.5131   -7.6375  -17.3556 O   0  0  0  0  0  0  0  0  0  0  0  0
   18.6285   -8.2928  -16.4646 C   0  0  0  0  0  0  0  0  0  0  0  0
   19.3518   -9.5716  -16.2163 C   0  0  0  0  0  0  0  0  0  0  0  0
   20.8644   -9.3482  -16.2195 C   0  0  2  0  0  0  0  0  0  0  0  0
   21.4756  -10.6402  -16.1639 N   0  0  0  0  0  0  0  0  0  0  0  0
   21.1720   -8.4654  -15.0990 C   0  0  0  0  0  0  0  0  0  0  0  0
   21.2680   -8.8463  -13.9081 O   0  0  0  0  0  0  0  0  0  0  0  0
   22.7983   -3.8841  -14.1494 C   0  0  0  0  0  0  0  0  0  0  0  0
   22.3243   -4.9190  -15.1166 C   0  0  2  0  0  0  0  0  0  0  0  0
   21.1561   -4.3412  -15.9152 C   0  0  0  0  0  0  0  0  0  0  0  0
   21.7616   -6.1303  -14.3642 C   0  0  2  0  0  0  0  0  0  0  0  0
   21.3763   -7.0862  -15.3725 N   0  0  0  0  0  0  0  0  0  0  0  0
   20.5888   -5.6593  -13.6198 C   0  0  0  0  0  0  0  0  0  0  0  0
   20.6418   -5.0360  -12.5331 O   0  0  0  0  0  0  0  0  0  0  0  0
   19.3262   -5.9103  -14.1358 O   0  0  0  0  0  0  0  0  0  0  0  0
  2  1  1  6
  2  3  1  0
  3  4  1  0
  5 13  1  0
  5  2  1  0
  6  5  2  0
  8  7  1  0
  9  8  2  0
 10  8  1  0
 11 10  1  0
 12 11  1  1
 12 14  1  0
 12 13  1  0
 14 15  2  0
 17 16  1  1
 17 19  1  0
 17 18  1  0
 20 14  1  0
 19 20  1  6
 21 19  1  0
 21 23  1  0
 22 21  2  0
M  END
$$$$
