CQV.pdb
     RDKit          3D

 23 22  0  0  1  0  0  0  0  0999 V2000
   17.0580  -14.2720  -15.5973 N   0  0  0  0  0  0  0  0  0  0  0  0
   17.4568  -13.2273  -16.5204 C   0  0  1  0  0  0  0  0  0  0  0  0
   16.1951  -12.5876  -17.0395 C   0  0  0  0  0  0  0  0  0  0  0  0
   15.2231  -13.6636  -18.0897 S   0  0  0  0  0  0  0  0  0  0  0  0
   18.3584  -12.2688  -15.8619 C   0  0  0  0  0  0  0  0  0  0  0  0
   18.0061  -11.5304  -14.9043 O   0  0  0  0  0  0  0  0  0  0  0  0
   24.5476  -12.8036  -16.5120 N   0  0  0  0  0  0  0  0  0  0  0  0
   24.4247  -11.5887  -15.8130 C   0  0  0  0  0  0  0  0  0  0  0  0
   25.4941  -11.0268  -15.4021 O   0  0  0  0  0  0  0  0  0  0  0  0
   23.1124  -10.9611  -15.5490 C   0  0  0  0  0  0  0  0  0  0  0  0
   22.0340  -11.8265  -16.1043 C   0  0  0  0  0  0  0  0  0  0  0  0
   20.6567  -11.2298  -15.8138 C   0  0  2  0  0  0  0  0  0  0  0  0
   19.6883  -12.1570  -16.3123 N   0  0  0  0  0  0  0  0  0  0  0  0
   20.6229   -9.9055  -16.4259 C   0  0  0  0  0  0  0  0  0  0  0  0
   20.6861   -9.6988  -17.6611 O   0  0  0  0  0  0  0  0  0  0  0  0
   18.0623   -7.6019  -16.6100 C   0  0  0  0  0  0  0  0  0  0  0  0
   19.0653   -6.8971  -15.7567 C   0  0  2  0  0  0  0  0  0  0  0  0
   19.0767   -5.4172  -16.1390 C   0  0  0  0  0  0  0  0  0  0  0  0
   20.4755   -7.4196  -16.0538 C   0  0  2  0  0  0  0  0  0  0  0  0
   20.5115   -8.7772  -15.5696 N   0  0  0  0  0  0  0  0  0  0  0  0
   21.4079   -6.5744  -15.3001 C   0  0  0  0  0  0  0  0  0  0  0  0
   21.7789   -6.8015  -14.1241 O   0  0  0  0  0  0  0  0  0  0  0  0
   21.9257   -5.4426  -15.9118 O   0  0  0  0  0  0  0  0  0  0  0  0
  2  1  1  1
  2  3  1  0
  3  4  1  0
  5 13  1  0
  5  2  1  0
  6  5  2  0
  8  7  1  0
  9  8  2  0
 10  8  1  0
 11 10  1  0
 12 11  1  6
 12 14  1  0
 12 13  1  0
 14 15  2  0
 17 16  1  6
 17 19  1  0
 17 18  1  0
 20 14  1  0
 19 20  1  1
 21 19  1  0
 21 23  1  0
 22 21  2  0
M  END
$$$$
