CQV.pdb
     RDKit          3D

 23 22  0  0  1  0  0  0  0  0999 V2000
   23.5446  -13.3936  -17.8653 N   0  0  0  0  0  0  0  0  0  0  0  0
   23.8852  -12.2645  -17.0218 C   0  0  1  0  0  0  0  0  0  0  0  0
   25.3425  -11.9598  -17.2540 C   0  0  0  0  0  0  0  0  0  0  0  0
   26.4519  -13.1803  -16.5576 S   0  0  0  0  0  0  0  0  0  0  0  0
   23.0060  -11.1194  -17.3067 C   0  0  0  0  0  0  0  0  0  0  0  0
   22.7356  -10.7256  -18.4720 O   0  0  0  0  0  0  0  0  0  0  0  0
   19.1717   -9.0449  -12.8302 N   0  0  0  0  0  0  0  0  0  0  0  0
   18.8879   -8.1762  -13.9000 C   0  0  0  0  0  0  0  0  0  0  0  0
   17.9109   -7.3663  -13.7669 O   0  0  0  0  0  0  0  0  0  0  0  0
   19.6791   -8.1799  -15.1489 C   0  0  0  0  0  0  0  0  0  0  0  0
   20.7331   -9.2293  -15.0589 C   0  0  0  0  0  0  0  0  0  0  0  0
   21.5393   -9.3004  -16.3560 C   0  0  2  0  0  0  0  0  0  0  0  0
   22.4275  -10.4148  -16.2330 N   0  0  0  0  0  0  0  0  0  0  0  0
   22.1871   -8.0047  -16.5325 C   0  0  0  0  0  0  0  0  0  0  0  0
   23.1858   -7.6218  -15.8780 O   0  0  0  0  0  0  0  0  0  0  0  0
   22.2285   -6.4408  -20.2155 C   0  0  0  0  0  0  0  0  0  0  0  0
   21.7350   -5.4560  -19.2068 C   0  0  2  0  0  0  0  0  0  0  0  0
   22.3491   -4.0911  -19.5171 C   0  0  0  0  0  0  0  0  0  0  0  0
   22.2342   -5.8340  -17.8076 C   0  0  2  0  0  0  0  0  0  0  0  0
   21.6539   -7.1192  -17.5073 N   0  0  0  0  0  0  0  0  0  0  0  0
   21.7309   -4.8089  -16.8869 C   0  0  0  0  0  0  0  0  0  0  0  0
   22.3775   -3.7948  -16.5325 O   0  0  0  0  0  0  0  0  0  0  0  0
   20.4554   -4.9526  -16.3616 O   0  0  0  0  0  0  0  0  0  0  0  0
  2  1  1  6
  2  3  1  0
  3  4  1  0
  5 13  1  0
  5  2  1  0
  6  5  2  0
  8  7  1  0
  9  8  2  0
 10  8  1  0
 11 10  1  0
 12 11  1  1
 12 14  1  0
 12 13  1  0
 14 15  2  0
 17 16  1  6
 17 19  1  0
 17 18  1  0
 20 14  1  0
 19 20  1  1
 21 19  1  0
 21 23  1  0
 22 21  2  0
M  END
$$$$
