CQV.pdb
     RDKit          3D

 23 22  0  0  1  0  0  0  0  0999 V2000
   28.8559  -20.5636  -16.8310 N   0  0  0  0  0  0  0  0  0  0  0  0
   28.2270  -19.7027  -15.8484 C   0  0  1  0  0  0  0  0  0  0  0  0
   27.8857  -18.4101  -16.5436 C   0  0  0  0  0  0  0  0  0  0  0  0
   27.2609  -17.1446  -15.4418 S   0  0  0  0  0  0  0  0  0  0  0  0
   27.0537  -20.3630  -15.2544 C   0  0  0  0  0  0  0  0  0  0  0  0
   26.2218  -21.0318  -15.9227 O   0  0  0  0  0  0  0  0  0  0  0  0
   26.2812  -20.2619   -8.9846 N   0  0  0  0  0  0  0  0  0  0  0  0
   25.1749  -21.0027   -9.4393 C   0  0  0  0  0  0  0  0  0  0  0  0
   24.4599  -21.6012   -8.5683 O   0  0  0  0  0  0  0  0  0  0  0  0
   24.8287  -21.1017  -10.8732 C   0  0  0  0  0  0  0  0  0  0  0  0
   25.9215  -20.4956  -11.6848 C   0  0  0  0  0  0  0  0  0  0  0  0
   25.6575  -20.6872  -13.1785 C   0  0  2  0  0  0  0  0  0  0  0  0
   26.8331  -20.2524  -13.8676 N   0  0  0  0  0  0  0  0  0  0  0  0
   24.4397  -19.9498  -13.4990 C   0  0  0  0  0  0  0  0  0  0  0  0
   24.3531  -18.6988  -13.4983 O   0  0  0  0  0  0  0  0  0  0  0  0
   22.6410  -20.0443  -16.5806 C   0  0  0  0  0  0  0  0  0  0  0  0
   21.6684  -20.5822  -15.5829 C   0  0  2  0  0  0  0  0  0  0  0  0
   20.2838  -20.0162  -15.8978 C   0  0  0  0  0  0  0  0  0  0  0  0
   22.0183  -20.0809  -14.1771 C   0  0  2  0  0  0  0  0  0  0  0  0
   23.2769  -20.6947  -13.8332 N   0  0  0  0  0  0  0  0  0  0  0  0
   20.9521  -20.5466  -13.2837 C   0  0  0  0  0  0  0  0  0  0  0  0
   20.0400  -19.8172  -12.8276 O   0  0  0  0  0  0  0  0  0  0  0  0
   20.9338  -21.8809  -12.9059 O   0  0  0  0  0  0  0  0  0  0  0  0
  2  1  1  6
  2  3  1  0
  3  4  1  0
  5 13  1  0
  5  2  1  0
  6  5  2  0
  8  7  1  0
  9  8  2  0
 10  8  1  0
 11 10  1  0
 12 11  1  1
 12 14  1  0
 12 13  1  0
 14 15  2  0
 17 16  1  6
 17 19  1  0
 17 18  1  0
 20 14  1  0
 19 20  1  1
 21 19  1  0
 21 23  1  0
 22 21  2  0
M  END
$$$$
