CQV.pdb
     RDKit          3D

 23 22  0  0  1  0  0  0  0  0999 V2000
   27.1174  -19.8203  -14.4899 N   0  0  0  0  0  0  0  0  0  0  0  0
   27.2042  -20.7484  -13.3793 C   0  0  1  0  0  0  0  0  0  0  0  0
   28.6230  -21.2538  -13.3322 C   0  0  0  0  0  0  0  0  0  0  0  0
   29.0284  -22.3826  -14.6615 S   0  0  0  0  0  0  0  0  0  0  0  0
   26.7829  -20.1006  -12.1270 C   0  0  0  0  0  0  0  0  0  0  0  0
   27.0736  -18.9120  -11.8289 O   0  0  0  0  0  0  0  0  0  0  0  0
   21.3664  -20.9640   -9.7037 N   0  0  0  0  0  0  0  0  0  0  0  0
   21.8693  -20.0577  -10.6551 C   0  0  0  0  0  0  0  0  0  0  0  0
   21.0287  -19.4141  -11.3675 O   0  0  0  0  0  0  0  0  0  0  0  0
   23.3190  -19.8382  -10.8447 C   0  0  0  0  0  0  0  0  0  0  0  0
   24.0723  -20.6420   -9.8414 C   0  0  0  0  0  0  0  0  0  0  0  0
   25.5708  -20.3516   -9.9288 C   0  0  2  0  0  0  0  0  0  0  0  0
   26.0139  -20.8323  -11.2010 N   0  0  0  0  0  0  0  0  0  0  0  0
   26.2000  -20.9807   -8.7722 C   0  0  0  0  0  0  0  0  0  0  0  0
   26.3618  -22.2177   -8.6446 O   0  0  0  0  0  0  0  0  0  0  0  0
   28.1478  -18.2831   -6.3337 C   0  0  0  0  0  0  0  0  0  0  0  0
   28.5913  -19.7077   -6.4034 C   0  0  2  0  0  0  0  0  0  0  0  0
   29.4429  -19.8923   -7.6592 C   0  0  0  0  0  0  0  0  0  0  0  0
   27.3810  -20.6325   -6.5758 C   0  0  2  0  0  0  0  0  0  0  0  0
   26.6591  -20.1402   -7.7227 N   0  0  0  0  0  0  0  0  0  0  0  0
   26.5725  -20.5036   -5.3586 C   0  0  0  0  0  0  0  0  0  0  0  0
   25.4389  -19.9696   -5.3134 O   0  0  0  0  0  0  0  0  0  0  0  0
   27.0783  -20.9996   -4.1663 O   0  0  0  0  0  0  0  0  0  0  0  0
  2  1  1  6
  2  3  1  0
  3  4  1  0
  5 13  1  0
  5  2  1  0
  6  5  2  0
  8  7  1  0
  9  8  2  0
 10  8  1  0
 11 10  1  0
 12 11  1  1
 12 14  1  0
 12 13  1  0
 14 15  2  0
 17 16  1  6
 17 19  1  0
 17 18  1  0
 20 14  1  0
 19 20  1  6
 21 19  1  0
 21 23  1  0
 22 21  2  0
M  END
$$$$
