CQV.pdb
     RDKit          3D

 23 22  0  0  1  0  0  0  0  0999 V2000
   15.2178  -10.8841  -15.2258 N   0  0  0  0  0  0  0  0  0  0  0  0
   16.3555  -10.8620  -14.3273 C   0  0  1  0  0  0  0  0  0  0  0  0
   17.4196  -11.7381  -14.9359 C   0  0  0  0  0  0  0  0  0  0  0  0
   17.1842  -13.4836  -14.6144 S   0  0  0  0  0  0  0  0  0  0  0  0
   16.8096   -9.4811  -14.0981 C   0  0  0  0  0  0  0  0  0  0  0  0
   16.9764   -8.6432  -15.0234 O   0  0  0  0  0  0  0  0  0  0  0  0
   15.9882   -7.0425   -8.5161 N   0  0  0  0  0  0  0  0  0  0  0  0
   15.1465   -6.8566   -9.6280 C   0  0  0  0  0  0  0  0  0  0  0  0
   13.9575   -6.4459   -9.4134 O   0  0  0  0  0  0  0  0  0  0  0  0
   15.5981   -7.1205  -11.0108 C   0  0  0  0  0  0  0  0  0  0  0  0
   17.0417   -7.4895  -10.9934 C   0  0  0  0  0  0  0  0  0  0  0  0
   17.5494   -7.7585  -12.4102 C   0  0  2  0  0  0  0  0  0  0  0  0
   17.0767   -9.0562  -12.7820 N   0  0  0  0  0  0  0  0  0  0  0  0
   19.0009   -7.6089  -12.3835 C   0  0  0  0  0  0  0  0  0  0  0  0
   19.7773   -8.3814  -11.7729 O   0  0  0  0  0  0  0  0  0  0  0  0
   20.8635   -7.4646  -15.4874 C   0  0  0  0  0  0  0  0  0  0  0  0
   21.2210   -6.1988  -14.7796 C   0  0  2  0  0  0  0  0  0  0  0  0
   22.7186   -5.9484  -14.9552 C   0  0  0  0  0  0  0  0  0  0  0  0
   20.9937   -6.3518  -13.2713 C   0  0  2  0  0  0  0  0  0  0  0  0
   19.5727   -6.5194  -13.0939 N   0  0  0  0  0  0  0  0  0  0  0  0
   21.4520   -5.1067  -12.6455 C   0  0  0  0  0  0  0  0  0  0  0  0
   20.7594   -4.0663  -12.5459 O   0  0  0  0  0  0  0  0  0  0  0  0
   22.7353   -5.0563  -12.1222 O   0  0  0  0  0  0  0  0  0  0  0  0
  2  1  1  6
  2  3  1  0
  3  4  1  0
  5 13  1  0
  5  2  1  0
  6  5  2  0
  8  7  1  0
  9  8  2  0
 10  8  1  0
 11 10  1  0
 12 11  1  1
 12 14  1  0
 12 13  1  0
 14 15  2  0
 17 16  1  6
 17 19  1  0
 17 18  1  0
 20 14  1  0
 19 20  1  6
 21 19  1  0
 21 23  1  0
 22 21  2  0
M  END
$$$$
