ANI.pdb
     RDKit          3D

 22 21  0  0  1  0  0  0  0  0999 V2000
    8.1240  -12.3296   19.4176 C   0  0  0  0  0  0  0  0  0  0  0  0
    8.2687  -13.7923   19.0537 C   0  0  2  0  0  0  0  0  0  0  0  0
    7.3206  -14.1481   18.0209 N   0  0  0  0  0  0  0  0  0  0  0  0
    8.0894  -14.5892   20.2822 C   0  0  0  0  0  0  0  0  0  0  0  0
    6.8960  -14.8860   20.6268 O   0  0  0  0  0  0  0  0  0  0  0  0
    9.0313  -19.3775   23.3168 N   0  0  0  0  0  0  0  0  0  0  0  0
    9.6129  -18.0895   23.2993 C   0  0  0  0  0  0  0  0  0  0  0  0
   10.1345  -17.6963   24.3786 O   0  0  0  0  0  0  0  0  0  0  0  0
    9.6453  -17.2130   22.1313 C   0  0  0  0  0  0  0  0  0  0  0  0
    8.9140  -15.9123   22.2666 C   0  0  2  0  0  0  0  0  0  0  0  0
    9.1200  -15.0571   21.1169 N   0  0  0  0  0  0  0  0  0  0  0  0
    9.2635  -15.2603   23.5354 C   0  0  0  0  0  0  0  0  0  0  0  0
   10.3897  -14.7545   23.6936 O   0  0  0  0  0  0  0  0  0  0  0  0
    6.1825  -11.7368   25.8904 C   0  0  0  0  0  0  0  0  0  0  0  0
    7.3036  -12.6342   25.4840 C   0  0  0  0  0  0  0  0  0  0  0  0
    7.6149  -13.7120   26.4862 C   0  0  2  0  0  0  0  0  0  0  0  0
    8.1325  -13.0617   27.7422 C   0  0  0  0  0  0  0  0  0  0  0  0
    8.7102  -14.5783   25.9176 C   0  0  2  0  0  0  0  0  0  0  0  0
    8.3692  -15.1635   24.6399 N   0  0  0  0  0  0  0  0  0  0  0  0
    9.1110  -15.6706   26.8434 C   0  0  0  0  0  0  0  0  0  0  0  0
    8.5051  -16.7808   26.8634 O   0  0  0  0  0  0  0  0  0  0  0  0
   10.1693  -15.5294   27.7328 O   0  0  0  0  0  0  0  0  0  0  0  0
  2  1  1  1
  2  4  1  0
  3  2  1  0
  4  5  2  0
  7  6  1  0
  7  9  1  0
  8  7  2  0
 10  9  1  6
 10 12  1  0
 11 10  1  0
 11  4  1  0
 12 13  2  0
 12 19  1  0
 14 15  1  0
 16 15  1  0
 16 17  1  1
 18 16  1  0
 18 19  1  6
 20 18  1  0
 20 22  1  0
 21 20  2  0
M  END
$$$$
