ANI.pdb
     RDKit          3D

 22 21  0  0  1  0  0  0  0  0999 V2000
    8.0587  -12.8261   18.8270 C   0  0  0  0  0  0  0  0  0  0  0  0
    8.5291  -14.2088   19.2265 C   0  0  2  0  0  0  0  0  0  0  0  0
    8.2139  -15.1651   18.1881 N   0  0  0  0  0  0  0  0  0  0  0  0
    7.9011  -14.5505   20.5169 C   0  0  0  0  0  0  0  0  0  0  0  0
    7.0141  -13.7531   20.9736 O   0  0  0  0  0  0  0  0  0  0  0  0
    7.3220  -18.9601   24.7819 N   0  0  0  0  0  0  0  0  0  0  0  0
    6.7971  -17.8986   24.0104 C   0  0  0  0  0  0  0  0  0  0  0  0
    5.7998  -17.2956   24.4935 O   0  0  0  0  0  0  0  0  0  0  0  0
    7.3327  -17.4704   22.7208 C   0  0  0  0  0  0  0  0  0  0  0  0
    7.5418  -15.9962   22.5539 C   0  0  2  0  0  0  0  0  0  0  0  0
    8.1906  -15.6835   21.2982 N   0  0  0  0  0  0  0  0  0  0  0  0
    8.2503  -15.4468   23.7173 C   0  0  0  0  0  0  0  0  0  0  0  0
    9.4564  -15.6975   23.8955 O   0  0  0  0  0  0  0  0  0  0  0  0
    5.7730  -12.0694   27.7453 C   0  0  0  0  0  0  0  0  0  0  0  0
    6.2868  -13.0062   26.7035 C   0  0  0  0  0  0  0  0  0  0  0  0
    7.6956  -12.7147   26.2638 C   0  0  2  0  0  0  0  0  0  0  0  0
    7.6444  -11.7761   25.0869 C   0  0  0  0  0  0  0  0  0  0  0  0
    8.3215  -14.0087   25.8084 C   0  0  2  0  0  0  0  0  0  0  0  0
    7.6292  -14.6157   24.6933 N   0  0  0  0  0  0  0  0  0  0  0  0
    8.4194  -15.0103   26.9030 C   0  0  0  0  0  0  0  0  0  0  0  0
    9.0896  -14.7853   27.9518 O   0  0  0  0  0  0  0  0  0  0  0  0
    7.7815  -16.2427   26.8312 O   0  0  0  0  0  0  0  0  0  0  0  0
  2  1  1  6
  2  4  1  0
  3  2  1  0
  4  5  2  0
  7  6  1  0
  7  9  1  0
  8  7  2  0
 10  9  1  1
 10 12  1  0
 11 10  1  0
 11  4  1  0
 12 13  2  0
 12 19  1  0
 14 15  1  0
 16 15  1  0
 16 17  1  6
 18 16  1  0
 18 19  1  6
 20 18  1  0
 20 22  1  0
 21 20  2  0
M  END
$$$$
