ANI.pdb
     RDKit          3D

 22 21  0  0  1  0  0  0  0  0999 V2000
    7.4327  -13.0515   18.8304 C   0  0  0  0  0  0  0  0  0  0  0  0
    8.5518  -13.7826   19.5417 C   0  0  2  0  0  0  0  0  0  0  0  0
    9.0834  -14.8293   18.6967 N   0  0  0  0  0  0  0  0  0  0  0  0
    8.0211  -14.3023   20.8163 C   0  0  0  0  0  0  0  0  0  0  0  0
    7.4521  -13.4728   21.6032 O   0  0  0  0  0  0  0  0  0  0  0  0
    5.6198  -18.5388   24.0495 N   0  0  0  0  0  0  0  0  0  0  0  0
    6.9653  -18.2048   23.7746 C   0  0  0  0  0  0  0  0  0  0  0  0
    7.7997  -18.4447   24.6900 O   0  0  0  0  0  0  0  0  0  0  0  0
    7.4314  -17.6158   22.5219 C   0  0  0  0  0  0  0  0  0  0  0  0
    7.5219  -16.1205   22.4937 C   0  0  2  0  0  0  0  0  0  0  0  0
    8.0836  -15.6389   21.2494 N   0  0  0  0  0  0  0  0  0  0  0  0
    8.2436  -15.6309   23.6755 C   0  0  0  0  0  0  0  0  0  0  0  0
    9.4825  -15.7311   23.7424 O   0  0  0  0  0  0  0  0  0  0  0  0
    5.7593  -11.6286   26.3156 C   0  0  0  0  0  0  0  0  0  0  0  0
    6.8618  -12.4509   25.7364 C   0  0  0  0  0  0  0  0  0  0  0  0
    7.4348  -13.4613   26.6923 C   0  0  2  0  0  0  0  0  0  0  0  0
    8.3140  -12.7399   27.6799 C   0  0  0  0  0  0  0  0  0  0  0  0
    8.2953  -14.4163   25.9044 C   0  0  2  0  0  0  0  0  0  0  0  0
    7.5997  -15.0268   24.7933 N   0  0  0  0  0  0  0  0  0  0  0  0
    8.8696  -15.4960   26.7503 C   0  0  0  0  0  0  0  0  0  0  0  0
    9.9579  -15.3420   27.3764 O   0  0  0  0  0  0  0  0  0  0  0  0
    8.2426  -16.7274   26.8968 O   0  0  0  0  0  0  0  0  0  0  0  0
  2  1  1  6
  2  4  1  0
  3  2  1  0
  4  5  2  0
  7  6  1  0
  7  9  1  0
  8  7  2  0
 10  9  1  6
 10 12  1  0
 11 10  1  0
 11  4  1  0
 12 13  2  0
 12 19  1  0
 14 15  1  0
 16 15  1  0
 16 17  1  1
 18 16  1  0
 18 19  1  6
 20 18  1  0
 20 22  1  0
 21 20  2  0
M  END
$$$$
