ANI.pdb
     RDKit          3D

 22 21  0  0  1  0  0  0  0  0999 V2000
    6.3524  -20.2411   22.3155 C   0  0  0  0  0  0  0  0  0  0  0  0
    6.5439  -19.3728   23.5412 C   0  0  2  0  0  0  0  0  0  0  0  0
    5.3991  -18.5085   23.7272 N   0  0  0  0  0  0  0  0  0  0  0  0
    7.7997  -18.6168   23.3745 C   0  0  0  0  0  0  0  0  0  0  0  0
    8.8900  -19.2023   23.6903 O   0  0  0  0  0  0  0  0  0  0  0  0
   10.1622  -17.1736   19.5353 N   0  0  0  0  0  0  0  0  0  0  0  0
    9.0717  -16.5839   20.2139 C   0  0  0  0  0  0  0  0  0  0  0  0
    7.9328  -16.7567   19.6994 O   0  0  0  0  0  0  0  0  0  0  0  0
    9.1867  -15.8087   21.4465 C   0  0  0  0  0  0  0  0  0  0  0  0
    9.1624  -16.5957   22.7212 C   0  0  2  0  0  0  0  0  0  0  0  0
    7.9092  -17.2990   22.8955 N   0  0  0  0  0  0  0  0  0  0  0  0
    9.4975  -15.7315   23.8605 C   0  0  0  0  0  0  0  0  0  0  0  0
   10.5941  -15.1441   23.9035 O   0  0  0  0  0  0  0  0  0  0  0  0
    6.0767  -12.2883   25.7503 C   0  0  0  0  0  0  0  0  0  0  0  0
    7.2997  -13.0867   25.4441 C   0  0  0  0  0  0  0  0  0  0  0  0
    7.8299  -13.8633   26.6183 C   0  0  2  0  0  0  0  0  0  0  0  0
    8.3825  -12.8892   27.6254 C   0  0  0  0  0  0  0  0  0  0  0  0
    8.9620  -14.7327   26.1324 C   0  0  2  0  0  0  0  0  0  0  0  0
    8.6216  -15.5108   24.9620 N   0  0  0  0  0  0  0  0  0  0  0  0
    9.4611  -15.6582   27.1838 C   0  0  0  0  0  0  0  0  0  0  0  0
    9.0384  -16.8466   27.2783 O   0  0  0  0  0  0  0  0  0  0  0  0
   10.4153  -15.2670   28.1151 O   0  0  0  0  0  0  0  0  0  0  0  0
  2  1  1  6
  2  4  1  0
  3  2  1  0
  4  5  2  0
  7  6  1  0
  7  9  1  0
  8  7  2  0
 10  9  1  6
 10 12  1  0
 11 10  1  0
 11  4  1  0
 12 13  2  0
 12 19  1  0
 14 15  1  0
 16 15  1  0
 16 17  1  1
 18 16  1  0
 18 19  1  6
 20 18  1  0
 20 22  1  0
 21 20  2  0
M  END
$$$$
