ANI.pdb
     RDKit          3D

 22 21  0  0  1  0  0  0  0  0999 V2000
    7.0655  -13.0341   19.1522 C   0  0  0  0  0  0  0  0  0  0  0  0
    8.4319  -13.5164   19.5917 C   0  0  2  0  0  0  0  0  0  0  0  0
    9.0401  -14.3158   18.5509 N   0  0  0  0  0  0  0  0  0  0  0  0
    8.2693  -14.2632   20.8535 C   0  0  0  0  0  0  0  0  0  0  0  0
    7.3732  -13.8599   21.6693 O   0  0  0  0  0  0  0  0  0  0  0  0
    9.8868  -18.5779   20.1152 N   0  0  0  0  0  0  0  0  0  0  0  0
    9.0370  -18.3375   21.2187 C   0  0  0  0  0  0  0  0  0  0  0  0
    7.8995  -18.8816   21.1780 O   0  0  0  0  0  0  0  0  0  0  0  0
    9.3943  -17.5185   22.3741 C   0  0  0  0  0  0  0  0  0  0  0  0
    8.7574  -16.1639   22.4403 C   0  0  2  0  0  0  0  0  0  0  0  0
    9.0159  -15.3888   21.2453 N   0  0  0  0  0  0  0  0  0  0  0  0
    9.1599  -15.4707   23.6710 C   0  0  0  0  0  0  0  0  0  0  0  0
   10.3205  -15.0397   23.7995 O   0  0  0  0  0  0  0  0  0  0  0  0
    6.0858  -11.8182   25.8998 C   0  0  0  0  0  0  0  0  0  0  0  0
    7.1885  -12.7391   25.4959 C   0  0  0  0  0  0  0  0  0  0  0  0
    7.5963  -13.7092   26.5708 C   0  0  2  0  0  0  0  0  0  0  0  0
    8.1888  -12.9317   27.7166 C   0  0  0  0  0  0  0  0  0  0  0  0
    8.6669  -14.6094   26.0079 C   0  0  2  0  0  0  0  0  0  0  0  0
    8.2809  -15.2495   24.7699 N   0  0  0  0  0  0  0  0  0  0  0  0
    9.0899  -15.6617   26.9695 C   0  0  0  0  0  0  0  0  0  0  0  0
    8.5024  -16.7802   27.0317 O   0  0  0  0  0  0  0  0  0  0  0  0
   10.1497  -15.4720   27.8479 O   0  0  0  0  0  0  0  0  0  0  0  0
  2  1  1  6
  2  4  1  0
  3  2  1  0
  4  5  2  0
  7  6  1  0
  7  9  1  0
  8  7  2  0
 10  9  1  6
 10 12  1  0
 11 10  1  0
 11  4  1  0
 12 13  2  0
 12 19  1  0
 14 15  1  0
 16 15  1  0
 16 17  1  1
 18 16  1  0
 18 19  1  6
 20 18  1  0
 20 22  1  0
 21 20  2  0
M  END
$$$$
