ANI.pdb
     RDKit          3D

 22 21  0  0  1  0  0  0  0  0999 V2000
    7.6932  -12.5248   19.3177 C   0  0  0  0  0  0  0  0  0  0  0  0
    8.6048  -13.7253   19.4610 C   0  0  2  0  0  0  0  0  0  0  0  0
    8.4401  -14.6173   18.3344 N   0  0  0  0  0  0  0  0  0  0  0  0
    8.3000  -14.3800   20.7475 C   0  0  0  0  0  0  0  0  0  0  0  0
    7.4960  -13.7831   21.5401 O   0  0  0  0  0  0  0  0  0  0  0  0
   10.2413  -18.5817   20.4910 N   0  0  0  0  0  0  0  0  0  0  0  0
    8.9938  -18.3450   21.1116 C   0  0  0  0  0  0  0  0  0  0  0  0
    7.9712  -18.7134   20.4712 O   0  0  0  0  0  0  0  0  0  0  0  0
    8.8274  -17.7170   22.4199 C   0  0  0  0  0  0  0  0  0  0  0  0
    8.4166  -16.2762   22.4086 C   0  0  2  0  0  0  0  0  0  0  0  0
    8.8171  -15.6121   21.1862 N   0  0  0  0  0  0  0  0  0  0  0  0
    8.9050  -15.5972   23.6159 C   0  0  0  0  0  0  0  0  0  0  0  0
   10.1039  -15.2785   23.7171 O   0  0  0  0  0  0  0  0  0  0  0  0
    5.6278  -12.0156   25.8285 C   0  0  0  0  0  0  0  0  0  0  0  0
    6.8079  -12.8172   25.3906 C   0  0  0  0  0  0  0  0  0  0  0  0
    7.4040  -13.6680   26.4786 C   0  0  2  0  0  0  0  0  0  0  0  0
    8.0181  -12.7609   27.5123 C   0  0  0  0  0  0  0  0  0  0  0  0
    8.5028  -14.5032   25.8714 C   0  0  2  0  0  0  0  0  0  0  0  0
    8.0701  -15.2659   24.7215 N   0  0  0  0  0  0  0  0  0  0  0  0
    9.1161  -15.4375   26.8521 C   0  0  0  0  0  0  0  0  0  0  0  0
    8.7345  -16.6393   26.9535 O   0  0  0  0  0  0  0  0  0  0  0  0
   10.1378  -15.0406   27.7062 O   0  0  0  0  0  0  0  0  0  0  0  0
  2  1  1  6
  2  4  1  0
  3  2  1  0
  4  5  2  0
  7  6  1  0
  7  9  1  0
  8  7  2  0
 10  9  1  6
 10 12  1  0
 11 10  1  0
 11  4  1  0
 12 13  2  0
 12 19  1  0
 14 15  1  0
 16 15  1  0
 16 17  1  1
 18 16  1  0
 18 19  1  6
 20 18  1  0
 20 22  1  0
 21 20  2  0
M  END
$$$$
