ANI.pdb
     RDKit          3D

 22 21  0  0  1  0  0  0  0  0999 V2000
    7.0869  -12.8864   19.0552 C   0  0  0  0  0  0  0  0  0  0  0  0
    8.4254  -13.5444   19.3164 C   0  0  2  0  0  0  0  0  0  0  0  0
    8.7818  -14.4106   18.2143 N   0  0  0  0  0  0  0  0  0  0  0  0
    8.3361  -14.2702   20.5976 C   0  0  0  0  0  0  0  0  0  0  0  0
    7.6480  -13.7384   21.5330 O   0  0  0  0  0  0  0  0  0  0  0  0
    8.2597  -18.9729   20.2937 N   0  0  0  0  0  0  0  0  0  0  0  0
    9.3885  -18.2894   20.7997 C   0  0  0  0  0  0  0  0  0  0  0  0
   10.4229  -18.3060   20.0776 O   0  0  0  0  0  0  0  0  0  0  0  0
    9.4222  -17.5811   22.0767 C   0  0  0  0  0  0  0  0  0  0  0  0
    8.7298  -16.2527   22.1086 C   0  0  2  0  0  0  0  0  0  0  0  0
    8.9435  -15.5051   20.8876 N   0  0  0  0  0  0  0  0  0  0  0  0
    9.1155  -15.5055   23.3128 C   0  0  0  0  0  0  0  0  0  0  0  0
   10.2482  -14.9971   23.4020 O   0  0  0  0  0  0  0  0  0  0  0  0
    6.8953  -11.3709   27.1280 C   0  0  0  0  0  0  0  0  0  0  0  0
    7.8294  -12.5093   26.8860 C   0  0  0  0  0  0  0  0  0  0  0  0
    7.4263  -13.3948   25.7387 C   0  0  2  0  0  0  0  0  0  0  0  0
    6.1679  -14.1290   26.1208 C   0  0  0  0  0  0  0  0  0  0  0  0
    8.5192  -14.4113   25.5248 C   0  0  2  0  0  0  0  0  0  0  0  0
    8.2506  -15.3153   24.4285 N   0  0  0  0  0  0  0  0  0  0  0  0
    8.7930  -15.2181   26.7435 C   0  0  0  0  0  0  0  0  0  0  0  0
    9.1823  -14.6826   27.8214 O   0  0  0  0  0  0  0  0  0  0  0  0
    8.6363  -16.5986   26.7621 O   0  0  0  0  0  0  0  0  0  0  0  0
  2  1  1  6
  2  4  1  0
  3  2  1  0
  4  5  2  0
  7  6  1  0
  7  9  1  0
  8  7  2  0
 10  9  1  6
 10 12  1  0
 11 10  1  0
 11  4  1  0
 12 13  2  0
 12 19  1  0
 14 15  1  0
 16 15  1  0
 16 17  1  1
 18 16  1  0
 18 19  1  6
 20 18  1  0
 20 22  1  0
 21 20  2  0
M  END
$$$$
