ANI.pdb
     RDKit          3D

 22 21  0  0  1  0  0  0  0  0999 V2000
    7.9130  -12.4505   19.4716 C   0  0  0  0  0  0  0  0  0  0  0  0
    8.2785  -13.8952   19.2033 C   0  0  2  0  0  0  0  0  0  0  0  0
    7.3040  -14.5041   18.3249 N   0  0  0  0  0  0  0  0  0  0  0  0
    8.3797  -14.5900   20.5008 C   0  0  0  0  0  0  0  0  0  0  0  0
    7.3557  -14.5719   21.2638 O   0  0  0  0  0  0  0  0  0  0  0  0
   11.5089  -18.3605   20.1458 N   0  0  0  0  0  0  0  0  0  0  0  0
   10.5281  -18.1218   21.1350 C   0  0  0  0  0  0  0  0  0  0  0  0
    9.5089  -18.8647   21.1033 O   0  0  0  0  0  0  0  0  0  0  0  0
   10.6277  -17.0922   22.1663 C   0  0  0  0  0  0  0  0  0  0  0  0
    9.5270  -16.0759   22.1873 C   0  0  2  0  0  0  0  0  0  0  0  0
    9.5093  -15.2770   20.9801 N   0  0  0  0  0  0  0  0  0  0  0  0
    9.6047  -15.2652   23.4095 C   0  0  0  0  0  0  0  0  0  0  0  0
   10.4971  -14.4074   23.5399 O   0  0  0  0  0  0  0  0  0  0  0  0
    6.6815  -11.6691   27.0739 C   0  0  0  0  0  0  0  0  0  0  0  0
    7.6665  -12.7871   26.9901 C   0  0  0  0  0  0  0  0  0  0  0  0
    7.5054  -13.6505   25.7688 C   0  0  2  0  0  0  0  0  0  0  0  0
    6.2782  -14.5055   25.9463 C   0  0  0  0  0  0  0  0  0  0  0  0
    8.7046  -14.5598   25.6763 C   0  0  2  0  0  0  0  0  0  0  0  0
    8.6953  -15.3979   24.4979 N   0  0  0  0  0  0  0  0  0  0  0  0
    8.8523  -15.4311   26.8721 C   0  0  0  0  0  0  0  0  0  0  0  0
    9.0463  -14.9494   28.0256 O   0  0  0  0  0  0  0  0  0  0  0  0
    8.7852  -16.8163   26.7855 O   0  0  0  0  0  0  0  0  0  0  0  0
  2  1  1  1
  2  4  1  0
  3  2  1  0
  4  5  2  0
  7  6  1  0
  7  9  1  0
  8  7  2  0
 10  9  1  6
 10 12  1  0
 11 10  1  0
 11  4  1  0
 12 13  2  0
 12 19  1  0
 14 15  1  0
 16 15  1  0
 16 17  1  1
 18 16  1  0
 18 19  1  6
 20 18  1  0
 20 22  1  0
 21 20  2  0
M  END
$$$$
