ANI.pdb
     RDKit          3D

 22 21  0  0  1  0  0  0  0  0999 V2000
    7.4251  -15.0476   18.9958 C   0  0  0  0  0  0  0  0  0  0  0  0
    8.3257  -14.4964   20.0811 C   0  0  2  0  0  0  0  0  0  0  0  0
    9.6073  -14.1203   19.5260 N   0  0  0  0  0  0  0  0  0  0  0  0
    8.4474  -15.5189   21.1376 C   0  0  0  0  0  0  0  0  0  0  0  0
    7.3818  -16.1173   21.5083 O   0  0  0  0  0  0  0  0  0  0  0  0
   11.0225  -19.7631   23.9664 N   0  0  0  0  0  0  0  0  0  0  0  0
   11.3156  -18.3842   24.0677 C   0  0  0  0  0  0  0  0  0  0  0  0
   11.7816  -17.9908   25.1721 O   0  0  0  0  0  0  0  0  0  0  0  0
   11.1172  -17.4158   22.9924 C   0  0  0  0  0  0  0  0  0  0  0  0
    9.7199  -16.9030   22.8209 C   0  0  2  0  0  0  0  0  0  0  0  0
    9.6389  -15.8998   21.7804 N   0  0  0  0  0  0  0  0  0  0  0  0
    9.1858  -16.4381   24.1076 C   0  0  0  0  0  0  0  0  0  0  0  0
    9.1367  -17.2088   25.0838 O   0  0  0  0  0  0  0  0  0  0  0  0
    7.0974  -11.3604   27.1437 C   0  0  0  0  0  0  0  0  0  0  0  0
    7.2614  -12.8275   26.9252 C   0  0  0  0  0  0  0  0  0  0  0  0
    7.8044  -13.1844   25.5685 C   0  0  2  0  0  0  0  0  0  0  0  0
    6.7520  -12.8757   24.5362 C   0  0  0  0  0  0  0  0  0  0  0  0
    8.0676  -14.6688   25.5447 C   0  0  2  0  0  0  0  0  0  0  0  0
    8.7011  -15.1163   24.3242 N   0  0  0  0  0  0  0  0  0  0  0  0
    6.8324  -15.4697   25.7546 C   0  0  0  0  0  0  0  0  0  0  0  0
    6.2122  -15.4583   26.8570 O   0  0  0  0  0  0  0  0  0  0  0  0
    6.2962  -16.2704   24.7535 O   0  0  0  0  0  0  0  0  0  0  0  0
  2  1  1  6
  2  4  1  0
  3  2  1  0
  4  5  2  0
  7  6  1  0
  7  9  1  0
  8  7  2  0
 10  9  1  1
 10 12  1  0
 11 10  1  0
 11  4  1  0
 12 13  2  0
 12 19  1  0
 14 15  1  0
 16 15  1  0
 16 17  1  6
 18 16  1  0
 18 19  1  6
 20 18  1  0
 20 22  1  0
 21 20  2  0
M  END
$$$$
