ANI.pdb
     RDKit          3D

 22 21  0  0  1  0  0  0  0  0999 V2000
    6.9578  -13.1148   19.2234 C   0  0  0  0  0  0  0  0  0  0  0  0
    8.3728  -13.5900   19.4782 C   0  0  2  0  0  0  0  0  0  0  0  0
    8.8654  -14.3319   18.3385 N   0  0  0  0  0  0  0  0  0  0  0  0
    8.3695  -14.3938   20.7153 C   0  0  0  0  0  0  0  0  0  0  0  0
    7.4416  -14.1710   21.5641 O   0  0  0  0  0  0  0  0  0  0  0  0
   11.4349  -18.0525   20.1032 N   0  0  0  0  0  0  0  0  0  0  0  0
   10.2896  -18.0418   20.9313 C   0  0  0  0  0  0  0  0  0  0  0  0
    9.2916  -18.6916   20.5147 O   0  0  0  0  0  0  0  0  0  0  0  0
   10.2006  -17.3414   22.2100 C   0  0  0  0  0  0  0  0  0  0  0  0
    9.2490  -16.1852   22.2599 C   0  0  2  0  0  0  0  0  0  0  0  0
    9.3016  -15.3923   21.0499 N   0  0  0  0  0  0  0  0  0  0  0  0
    9.4743  -15.3915   23.4751 C   0  0  0  0  0  0  0  0  0  0  0  0
   10.4561  -14.6308   23.5567 O   0  0  0  0  0  0  0  0  0  0  0  0
    6.8338  -11.4876   27.0440 C   0  0  0  0  0  0  0  0  0  0  0  0
    7.7792  -12.6401   26.9740 C   0  0  0  0  0  0  0  0  0  0  0  0
    7.5747  -13.5236   25.7737 C   0  0  2  0  0  0  0  0  0  0  0  0
    6.2806  -14.2741   25.9477 C   0  0  0  0  0  0  0  0  0  0  0  0
    8.6999  -14.5264   25.7329 C   0  0  2  0  0  0  0  0  0  0  0  0
    8.6147  -15.4338   24.6102 N   0  0  0  0  0  0  0  0  0  0  0  0
    8.7926  -15.3296   26.9809 C   0  0  0  0  0  0  0  0  0  0  0  0
    8.9828  -14.7872   28.1077 O   0  0  0  0  0  0  0  0  0  0  0  0
    8.6757  -16.7142   26.9747 O   0  0  0  0  0  0  0  0  0  0  0  0
  2  1  1  6
  2  4  1  0
  3  2  1  0
  4  5  2  0
  7  6  1  0
  7  9  1  0
  8  7  2  0
 10  9  1  6
 10 12  1  0
 11 10  1  0
 11  4  1  0
 12 13  2  0
 12 19  1  0
 14 15  1  0
 16 15  1  0
 16 17  1  1
 18 16  1  0
 18 19  1  6
 20 18  1  0
 20 22  1  0
 21 20  2  0
M  END
$$$$
