ANI.pdb
     RDKit          3D

 22 21  0  0  1  0  0  0  0  0999 V2000
    6.9738  -18.1520   19.4828 C   0  0  0  0  0  0  0  0  0  0  0  0
    6.7735  -17.8296   20.9487 C   0  0  2  0  0  0  0  0  0  0  0  0
    5.9367  -16.6590   21.0949 N   0  0  0  0  0  0  0  0  0  0  0  0
    8.1027  -17.6526   21.5639 C   0  0  0  0  0  0  0  0  0  0  0  0
    8.9007  -18.6496   21.5473 O   0  0  0  0  0  0  0  0  0  0  0  0
   12.9551  -15.3816   23.0415 N   0  0  0  0  0  0  0  0  0  0  0  0
   12.2699  -15.8968   21.9178 C   0  0  0  0  0  0  0  0  0  0  0  0
   12.9629  -16.5516   21.0916 O   0  0  0  0  0  0  0  0  0  0  0  0
   10.8416  -15.7203   21.6681 C   0  0  0  0  0  0  0  0  0  0  0  0
    9.9190  -16.3107   22.6904 C   0  0  2  0  0  0  0  0  0  0  0  0
    8.5775  -16.4769   22.1723 N   0  0  0  0  0  0  0  0  0  0  0  0
    9.9610  -15.5242   23.9300 C   0  0  0  0  0  0  0  0  0  0  0  0
   11.0483  -15.1229   24.3840 O   0  0  0  0  0  0  0  0  0  0  0  0
    5.9859  -12.1907   25.4393 C   0  0  0  0  0  0  0  0  0  0  0  0
    7.2532  -12.9561   25.2518 C   0  0  0  0  0  0  0  0  0  0  0  0
    7.5765  -13.8869   26.3885 C   0  0  2  0  0  0  0  0  0  0  0  0
    7.8706  -13.0613   27.6134 C   0  0  0  0  0  0  0  0  0  0  0  0
    8.8230  -14.6539   26.0261 C   0  0  2  0  0  0  0  0  0  0  0  0
    8.7996  -15.1757   24.6776 N   0  0  0  0  0  0  0  0  0  0  0  0
    9.0919  -15.7784   26.9610 C   0  0  0  0  0  0  0  0  0  0  0  0
    8.5953  -16.9274   26.7789 O   0  0  0  0  0  0  0  0  0  0  0  0
    9.9005  -15.6264   28.0808 O   0  0  0  0  0  0  0  0  0  0  0  0
  2  1  1  6
  2  4  1  0
  3  2  1  0
  4  5  2  0
  7  6  1  0
  7  9  1  0
  8  7  2  0
 10  9  1  6
 10 12  1  0
 11 10  1  0
 11  4  1  0
 12 13  2  0
 12 19  1  0
 14 15  1  0
 16 15  1  0
 16 17  1  1
 18 16  1  0
 18 19  1  6
 20 18  1  0
 20 22  1  0
 21 20  2  0
M  END
$$$$
