TRS.pdb
     RDKit          3D

 25 24  0  0  1  0  0  0  0  0999 V2000
   25.9161  -16.2491  -17.8534 C   0  0  0  0  0  0  0  0  0  0  0  0
   26.7165  -16.9791  -18.8800 C   0  0  1  0  0  0  0  0  0  0  0  0
   27.2621  -16.1870  -19.8654 O   0  0  0  0  0  0  0  0  0  0  0  0
   27.7862  -17.8819  -18.2582 C   0  0  2  0  0  0  0  0  0  0  0  0
   28.5256  -18.5880  -19.2617 N   0  0  0  0  0  0  0  0  0  0  0  0
   27.0699  -18.8507  -17.4108 C   0  0  0  0  0  0  0  0  0  0  0  0
   26.6109  -19.9141  -17.8940 O   0  0  0  0  0  0  0  0  0  0  0  0
   24.2903  -21.9699  -11.3007 N   0  0  0  0  0  0  0  0  0  0  0  0
   24.8391  -21.1353  -10.2935 C   0  0  0  0  0  0  0  0  0  0  0  0
   24.2499  -20.9623   -9.1638 N   0  0  0  0  0  0  0  0  0  0  0  0
   26.0833  -20.4410  -10.4886 N   0  0  0  0  0  0  0  0  0  0  0  0
   26.9170  -20.5910  -11.6338 C   0  0  0  0  0  0  0  0  0  0  0  0
   26.2228  -20.5812  -12.9563 C   0  0  0  0  0  0  0  0  0  0  0  0
   26.8820  -19.4800  -13.7865 C   0  0  0  0  0  0  0  0  0  0  0  0
   26.2649  -19.5274  -15.1764 C   0  0  2  0  0  0  0  0  0  0  0  0
   26.9081  -18.5612  -16.0407 N   0  0  0  0  0  0  0  0  0  0  0  0
   24.7861  -19.2587  -15.0931 C   0  0  0  0  0  0  0  0  0  0  0  0
   24.3317  -18.1426  -14.7928 O   0  0  0  0  0  0  0  0  0  0  0  0
   24.6513  -20.3054   -8.4755 O   0  0  0  0  0  0  0  0  0  0  0  0
   20.4798  -21.5331  -15.7102 C   0  0  0  0  0  0  0  0  0  0  0  0
   21.8760  -21.5418  -15.7398 C   0  0  2  0  0  0  0  0  0  0  0  0
   22.4603  -20.2149  -15.2888 N   0  0  0  0  0  0  0  0  0  0  0  0
   23.8854  -20.3056  -15.3642 C   0  0  0  0  0  0  0  0  0  0  0  0
   21.9425  -19.9143  -13.9565 O   0  0  0  0  0  0  0  0  0  0  0  0
   22.5051  -20.3837  -12.9407 O   0  0  0  0  0  0  0  0  0  0  0  0
  2  1  1  1
  3  2  1  0
  4  2  1  0
  4  5  1  6
  6  7  2  0
  6  4  1  0
  9  8  1  0
  9 11  1  0
 10  9  2  0
 12 11  1  0
 13 14  1  0
 13 12  1  0
 15 14  1  1
 15 16  1  0
 16  6  1  0
 17 15  1  0
 18 17  2  0
 19 20  1  0
 21 20  1  6
 21 22  1  0
 22 17  1  0
 23 21  1  0
 24 23  2  0
 25 23  1  0
M  END
$$$$
