TRS.pdb
     RDKit          3D

 25 24  0  0  1  0  0  0  0  0999 V2000
   24.5449  -22.5115  -15.5357 C   0  0  0  0  0  0  0  0  0  0  0  0
   24.9386  -22.8128  -14.1280 C   0  0  1  0  0  0  0  0  0  0  0  0
   25.9909  -23.6906  -13.9922 O   0  0  0  0  0  0  0  0  0  0  0  0
   25.1814  -21.5462  -13.3018 C   0  0  2  0  0  0  0  0  0  0  0  0
   25.5550  -21.8612  -11.9551 N   0  0  0  0  0  0  0  0  0  0  0  0
   23.9075  -20.8068  -13.2922 C   0  0  0  0  0  0  0  0  0  0  0  0
   23.1551  -20.8319  -12.2881 O   0  0  0  0  0  0  0  0  0  0  0  0
   18.6161  -15.0283  -15.7065 N   0  0  0  0  0  0  0  0  0  0  0  0
   19.8385  -14.3095  -15.6719 C   0  0  0  0  0  0  0  0  0  0  0  0
   19.8810  -13.0625  -15.3607 N   0  0  0  0  0  0  0  0  0  0  0  0
   21.0915  -14.9424  -15.9842 N   0  0  0  0  0  0  0  0  0  0  0  0
   21.2243  -16.2929  -16.4175 C   0  0  0  0  0  0  0  0  0  0  0  0
   21.1434  -17.3351  -15.3507 C   0  0  0  0  0  0  0  0  0  0  0  0
   22.4527  -18.1217  -15.4096 C   0  0  0  0  0  0  0  0  0  0  0  0
   22.3357  -19.2737  -14.4227 C   0  0  2  0  0  0  0  0  0  0  0  0
   23.5463  -20.0667  -14.4363 N   0  0  0  0  0  0  0  0  0  0  0  0
   21.1429  -20.1260  -14.7644 C   0  0  0  0  0  0  0  0  0  0  0  0
   21.0893  -20.8040  -15.8034 O   0  0  0  0  0  0  0  0  0  0  0  0
   20.7862  -12.5658  -15.3708 O   0  0  0  0  0  0  0  0  0  0  0  0
   18.1485  -20.4948  -11.7673 C   0  0  0  0  0  0  0  0  0  0  0  0
   18.5395  -21.5225  -12.6282 C   0  0  1  0  0  0  0  0  0  0  0  0
   18.9011  -20.9995  -14.0070 N   0  0  0  0  0  0  0  0  0  0  0  0
   20.0498  -20.1576  -13.8784 C   0  0  0  0  0  0  0  0  0  0  0  0
   17.7264  -20.3387  -14.5701 O   0  0  0  0  0  0  0  0  0  0  0  0
   17.7588  -19.1155  -14.8377 O   0  0  0  0  0  0  0  0  0  0  0  0
  2  1  1  6
  3  2  1  0
  4  2  1  0
  4  5  1  1
  6  7  2  0
  6  4  1  0
  9  8  1  0
  9 11  1  0
 10  9  2  0
 12 11  1  0
 13 14  1  0
 13 12  1  0
 15 14  1  6
 15 16  1  0
 16  6  1  0
 17 15  1  0
 18 17  2  0
 19 20  1  0
 21 20  1  6
 21 22  1  0
 22 17  1  0
 23 21  1  0
 24 23  2  0
 25 23  1  0
M  END
$$$$
