TRS.pdb
     RDKit          3D

 25 24  0  0  1  0  0  0  0  0999 V2000
   18.5314  -10.5564  -13.4499 C   0  0  0  0  0  0  0  0  0  0  0  0
   17.1643  -10.9860  -13.8675 C   0  0  1  0  0  0  0  0  0  0  0  0
   17.0502  -12.3148  -14.2103 O   0  0  0  0  0  0  0  0  0  0  0  0
   16.0891  -10.5963  -12.8488 C   0  0  2  0  0  0  0  0  0  0  0  0
   14.7812  -10.9730  -13.2956 N   0  0  0  0  0  0  0  0  0  0  0  0
   16.1541   -9.1306  -12.7173 C   0  0  0  0  0  0  0  0  0  0  0  0
   15.8042   -8.3825  -13.6622 O   0  0  0  0  0  0  0  0  0  0  0  0
   12.8823   -5.5299   -8.3390 N   0  0  0  0  0  0  0  0  0  0  0  0
   12.9229   -6.8918   -7.9444 C   0  0  0  0  0  0  0  0  0  0  0  0
   11.8496   -7.5815   -7.7842 N   0  0  0  0  0  0  0  0  0  0  0  0
   14.1694   -7.5674   -7.7039 N   0  0  0  0  0  0  0  0  0  0  0  0
   15.4528   -6.9882   -7.9194 C   0  0  0  0  0  0  0  0  0  0  0  0
   16.2432   -7.5490   -9.0559 C   0  0  0  0  0  0  0  0  0  0  0  0
   16.0684   -6.5827  -10.2272 C   0  0  0  0  0  0  0  0  0  0  0  0
   16.8415   -7.1535  -11.4067 C   0  0  2  0  0  0  0  0  0  0  0  0
   16.6186   -8.5801  -11.5055 N   0  0  0  0  0  0  0  0  0  0  0  0
   18.3094   -6.8584  -11.2523 C   0  0  0  0  0  0  0  0  0  0  0  0
   18.9915   -7.3514  -10.3391 O   0  0  0  0  0  0  0  0  0  0  0  0
   11.9171   -8.5626   -7.4692 O   0  0  0  0  0  0  0  0  0  0  0  0
   22.1713   -7.3612  -13.1047 C   0  0  0  0  0  0  0  0  0  0  0  0
   20.7970   -7.3215  -12.8594 C   0  0  2  0  0  0  0  0  0  0  0  0
   20.3371   -5.9376  -12.4368 N   0  0  0  0  0  0  0  0  0  0  0  0
   18.9330   -5.9948  -12.1722 C   0  0  0  0  0  0  0  0  0  0  0  0
   20.7183   -4.9886  -13.4797 O   0  0  0  0  0  0  0  0  0  0  0  0
   19.9578   -4.7826  -14.4533 O   0  0  0  0  0  0  0  0  0  0  0  0
  2  1  1  1
  3  2  1  0
  4  2  1  0
  4  5  1  6
  6  7  2  0
  6  4  1  0
  9  8  1  0
  9 11  1  0
 10  9  2  0
 12 11  1  0
 13 14  1  0
 13 12  1  0
 15 14  1  1
 15 16  1  0
 16  6  1  0
 17 15  1  0
 18 17  2  0
 19 20  1  0
 21 20  1  1
 21 22  1  0
 22 17  1  0
 23 21  1  0
 24 23  2  0
 25 23  1  0
M  END
$$$$
