TRS.pdb
     RDKit          3D

 25 24  0  0  1  0  0  0  0  0999 V2000
   16.0116   -5.8605   -8.8362 C   0  0  0  0  0  0  0  0  0  0  0  0
   15.0849   -6.7917   -8.1278 C   0  0  1  0  0  0  0  0  0  0  0  0
   14.3041   -6.2088   -7.1548 O   0  0  0  0  0  0  0  0  0  0  0  0
   14.2232   -7.6106   -9.0935 C   0  0  2  0  0  0  0  0  0  0  0  0
   13.3013   -8.4520   -8.3904 N   0  0  0  0  0  0  0  0  0  0  0  0
   15.1527   -8.4499   -9.8691 C   0  0  0  0  0  0  0  0  0  0  0  0
   14.9367   -9.6763  -10.0250 O   0  0  0  0  0  0  0  0  0  0  0  0
   17.4573  -10.7874  -16.5027 N   0  0  0  0  0  0  0  0  0  0  0  0
   16.8830  -11.5284  -15.4382 C   0  0  0  0  0  0  0  0  0  0  0  0
   17.0887  -12.7907  -15.3051 N   0  0  0  0  0  0  0  0  0  0  0  0
   16.0411  -10.9019  -14.4550 N   0  0  0  0  0  0  0  0  0  0  0  0
   15.4356   -9.6221  -14.6127 C   0  0  0  0  0  0  0  0  0  0  0  0
   16.2362   -8.4545  -14.1367 C   0  0  0  0  0  0  0  0  0  0  0  0
   15.6614   -8.0571  -12.7772 C   0  0  0  0  0  0  0  0  0  0  0  0
   16.7540   -8.2738  -11.7408 C   0  0  2  0  0  0  0  0  0  0  0  0
   16.2947   -7.8487  -10.4359 N   0  0  0  0  0  0  0  0  0  0  0  0
   17.9953   -7.5192  -12.1349 C   0  0  0  0  0  0  0  0  0  0  0  0
   18.0013   -6.2865  -12.2852 O   0  0  0  0  0  0  0  0  0  0  0  0
   16.6647  -13.2946  -14.5098 O   0  0  0  0  0  0  0  0  0  0  0  0
   22.6060   -8.2910  -13.5886 C   0  0  0  0  0  0  0  0  0  0  0  0
   21.3296   -8.7578  -13.2675 C   0  0  2  0  0  0  0  0  0  0  0  0
   20.4484   -7.6562  -12.7060 N   0  0  0  0  0  0  0  0  0  0  0  0
   19.1914   -8.2319  -12.3409 C   0  0  0  0  0  0  0  0  0  0  0  0
   20.3596   -6.5884  -13.6987 O   0  0  0  0  0  0  0  0  0  0  0  0
   19.5444   -6.6741  -14.6457 O   0  0  0  0  0  0  0  0  0  0  0  0
  2  1  1  6
  3  2  1  0
  4  2  1  0
  4  5  1  1
  6  7  2  0
  6  4  1  0
  9  8  1  0
  9 11  1  0
 10  9  2  0
 12 11  1  0
 13 14  1  0
 13 12  1  0
 15 14  1  6
 15 16  1  0
 16  6  1  0
 17 15  1  0
 18 17  2  0
 19 20  1  0
 21 20  1  1
 21 22  1  0
 22 17  1  0
 23 21  1  0
 24 23  2  0
 25 23  1  0
M  END
$$$$
