TRS.pdb
     RDKit          3D

 25 24  0  0  1  0  0  0  0  0999 V2000
   20.6790   -9.3716  -15.4098 C   0  0  0  0  0  0  0  0  0  0  0  0
   20.5743   -9.9888  -14.0549 C   0  0  1  0  0  0  0  0  0  0  0  0
   21.4172   -9.4564  -13.1051 O   0  0  0  0  0  0  0  0  0  0  0  0
   19.1334  -10.0290  -13.5373 C   0  0  2  0  0  0  0  0  0  0  0  0
   18.2780  -10.7631  -14.4213 N   0  0  0  0  0  0  0  0  0  0  0  0
   18.6774   -8.6299  -13.4708 C   0  0  0  0  0  0  0  0  0  0  0  0
   18.3005   -8.0250  -14.5038 O   0  0  0  0  0  0  0  0  0  0  0  0
   14.5371   -9.0184   -9.9818 N   0  0  0  0  0  0  0  0  0  0  0  0
   14.5286   -8.2960   -8.7610 C   0  0  0  0  0  0  0  0  0  0  0  0
   13.7540   -8.6222   -7.7879 N   0  0  0  0  0  0  0  0  0  0  0  0
   15.3876   -7.1616   -8.5533 N   0  0  0  0  0  0  0  0  0  0  0  0
   15.6554   -6.1650   -9.5353 C   0  0  0  0  0  0  0  0  0  0  0  0
   16.2555   -6.6492  -10.8145 C   0  0  0  0  0  0  0  0  0  0  0  0
   17.7323   -6.2565  -10.7793 C   0  0  0  0  0  0  0  0  0  0  0  0
   18.3206   -6.5769  -12.1453 C   0  0  2  0  0  0  0  0  0  0  0  0
   18.6718   -7.9789  -12.2205 N   0  0  0  0  0  0  0  0  0  0  0  0
   19.5285   -5.7160  -12.4012 C   0  0  0  0  0  0  0  0  0  0  0  0
   20.6097   -5.9021  -11.8193 O   0  0  0  0  0  0  0  0  0  0  0  0
   13.7243   -8.0322   -6.9410 O   0  0  0  0  0  0  0  0  0  0  0  0
   22.2598   -3.7243  -15.4140 C   0  0  0  0  0  0  0  0  0  0  0  0
   21.1335   -4.4343  -14.9926 C   0  0  2  0  0  0  0  0  0  0  0  0
   20.5122   -3.8242  -13.7487 N   0  0  0  0  0  0  0  0  0  0  0  0
   19.4326   -4.6636  -13.3308 C   0  0  0  0  0  0  0  0  0  0  0  0
   20.1262   -2.4493  -14.0554 O   0  0  0  0  0  0  0  0  0  0  0  0
   18.9825   -2.1999  -14.5007 O   0  0  0  0  0  0  0  0  0  0  0  0
  2  1  1  6
  3  2  1  0
  4  2  1  0
  4  5  1  6
  6  7  2  0
  6  4  1  0
  9  8  1  0
  9 11  1  0
 10  9  2  0
 12 11  1  0
 13 14  1  0
 13 12  1  0
 15 14  1  1
 15 16  1  0
 16  6  1  0
 17 15  1  0
 18 17  2  0
 19 20  1  0
 21 20  1  1
 21 22  1  0
 22 17  1  0
 23 21  1  0
 24 23  2  0
 25 23  1  0
M  END
$$$$
