TRS.pdb
     RDKit          3D

 25 24  0  0  1  0  0  0  0  0999 V2000
   23.3825  -17.7493  -19.6989 C   0  0  0  0  0  0  0  0  0  0  0  0
   24.6555  -18.4755  -19.9816 C   0  0  1  0  0  0  0  0  0  0  0  0
   25.4158  -17.9446  -20.9996 O   0  0  0  0  0  0  0  0  0  0  0  0
   25.5051  -18.6832  -18.7243 C   0  0  2  0  0  0  0  0  0  0  0  0
   26.7042  -19.4112  -19.0151 N   0  0  0  0  0  0  0  0  0  0  0  0
   24.6775  -19.4641  -17.7888 C   0  0  0  0  0  0  0  0  0  0  0  0
   24.6483  -20.7174  -17.8458 O   0  0  0  0  0  0  0  0  0  0  0  0
   24.9821  -20.6852   -9.8728 N   0  0  0  0  0  0  0  0  0  0  0  0
   25.0274  -21.3440  -11.1282 C   0  0  0  0  0  0  0  0  0  0  0  0
   26.0318  -22.0676  -11.4760 N   0  0  0  0  0  0  0  0  0  0  0  0
   23.9498  -21.2336  -12.0740 N   0  0  0  0  0  0  0  0  0  0  0  0
   24.1231  -20.9750  -13.4641 C   0  0  0  0  0  0  0  0  0  0  0  0
   24.5425  -19.5879  -13.8259 C   0  0  0  0  0  0  0  0  0  0  0  0
   23.3267  -18.9178  -14.4655 C   0  0  0  0  0  0  0  0  0  0  0  0
   23.1494  -19.5239  -15.8497 C   0  0  2  0  0  0  0  0  0  0  0  0
   23.9151  -18.7756  -16.8234 N   0  0  0  0  0  0  0  0  0  0  0  0
   21.6913  -19.5382  -16.2233 C   0  0  0  0  0  0  0  0  0  0  0  0
   21.0465  -18.4943  -16.4148 O   0  0  0  0  0  0  0  0  0  0  0  0
   26.0760  -22.4506  -12.4339 O   0  0  0  0  0  0  0  0  0  0  0  0
   18.0825  -22.6866  -17.2848 C   0  0  0  0  0  0  0  0  0  0  0  0
   19.3935  -22.4338  -16.8754 C   0  0  2  0  0  0  0  0  0  0  0  0
   19.6546  -20.9488  -16.6971 N   0  0  0  0  0  0  0  0  0  0  0  0
   21.0336  -20.7749  -16.3609 C   0  0  0  0  0  0  0  0  0  0  0  0
   18.7191  -20.4345  -15.7002 O   0  0  0  0  0  0  0  0  0  0  0  0
   19.0603  -20.3539  -14.4977 O   0  0  0  0  0  0  0  0  0  0  0  0
  2  1  1  1
  3  2  1  0
  4  2  1  0
  4  5  1  6
  6  7  2  0
  6  4  1  0
  9  8  1  0
  9 11  1  0
 10  9  2  0
 12 11  1  0
 13 14  1  0
 13 12  1  0
 15 14  1  1
 15 16  1  0
 16  6  1  0
 17 15  1  0
 18 17  2  0
 19 20  1  0
 21 20  1  6
 21 22  1  0
 22 17  1  0
 23 21  1  0
 24 23  2  0
 25 23  1  0
M  END
$$$$
