TRS.pdb
     RDKit          3D

 25 24  0  0  1  0  0  0  0  0999 V2000
   31.5098   -9.6971  -17.3928 C   0  0  0  0  0  0  0  0  0  0  0  0
   30.0687   -9.5032  -17.7298 C   0  0  1  0  0  0  0  0  0  0  0  0
   29.8035   -8.4431  -18.5675 O   0  0  0  0  0  0  0  0  0  0  0  0
   29.4103  -10.7833  -18.2529 C   0  0  2  0  0  0  0  0  0  0  0  0
   29.9254  -11.1515  -19.5380 N   0  0  0  0  0  0  0  0  0  0  0  0
   27.9715  -10.4908  -18.3720 C   0  0  0  0  0  0  0  0  0  0  0  0
   27.4691  -10.1647  -19.4748 O   0  0  0  0  0  0  0  0  0  0  0  0
   20.2020  -13.4753  -16.9520 N   0  0  0  0  0  0  0  0  0  0  0  0
   21.4685  -14.0593  -17.2109 C   0  0  0  0  0  0  0  0  0  0  0  0
   21.5840  -15.1622  -17.8619 N   0  0  0  0  0  0  0  0  0  0  0  0
   22.6864  -13.4446  -16.7562 N   0  0  0  0  0  0  0  0  0  0  0  0
   22.7478  -12.2155  -16.0387 C   0  0  0  0  0  0  0  0  0  0  0  0
   23.4848  -11.1017  -16.7075 C   0  0  0  0  0  0  0  0  0  0  0  0
   24.9741  -11.4079  -16.5497 C   0  0  0  0  0  0  0  0  0  0  0  0
   25.7410  -10.3448  -17.3221 C   0  0  2  0  0  0  0  0  0  0  0  0
   27.1646  -10.5841  -17.2198 N   0  0  0  0  0  0  0  0  0  0  0  0
   25.3969   -8.9769  -16.7964 C   0  0  0  0  0  0  0  0  0  0  0  0
   25.7756   -8.5811  -15.6819 O   0  0  0  0  0  0  0  0  0  0  0  0
   22.5228  -15.5574  -18.0315 O   0  0  0  0  0  0  0  0  0  0  0  0
   23.0708   -4.8719  -18.1465 C   0  0  0  0  0  0  0  0  0  0  0  0
   23.4891   -6.1773  -18.4136 C   0  0  2  0  0  0  0  0  0  0  0  0
   24.1962   -6.8001  -17.2230 N   0  0  0  0  0  0  0  0  0  0  0  0
   24.6197   -8.1150  -17.5926 C   0  0  0  0  0  0  0  0  0  0  0  0
   23.2917   -6.7552  -16.0768 O   0  0  0  0  0  0  0  0  0  0  0  0
   22.6082   -7.7599  -15.7734 O   0  0  0  0  0  0  0  0  0  0  0  0
  2  1  1  6
  3  2  1  0
  4  2  1  0
  4  5  1  6
  6  7  2  0
  6  4  1  0
  9  8  1  0
  9 11  1  0
 10  9  2  0
 12 11  1  0
 13 14  1  0
 13 12  1  0
 15 14  1  1
 15 16  1  0
 16  6  1  0
 17 15  1  0
 18 17  2  0
 19 20  1  0
 21 20  1  6
 21 22  1  0
 22 17  1  0
 23 21  1  0
 24 23  2  0
 25 23  1  0
M  END
$$$$
