TRS.pdb
     RDKit          3D

 25 24  0  0  1  0  0  0  0  0999 V2000
   21.7177  -21.7273  -14.0579 C   0  0  0  0  0  0  0  0  0  0  0  0
   21.2194  -21.0293  -12.8363 C   0  0  1  0  0  0  0  0  0  0  0  0
   19.9828  -21.4419  -12.3927 O   0  0  0  0  0  0  0  0  0  0  0  0
   22.2377  -21.0477  -11.6924 C   0  0  2  0  0  0  0  0  0  0  0  0
   21.7289  -20.3904  -10.5257 N   0  0  0  0  0  0  0  0  0  0  0  0
   23.4231  -20.3223  -12.1807 C   0  0  0  0  0  0  0  0  0  0  0  0
   23.3984  -19.0771  -12.3353 O   0  0  0  0  0  0  0  0  0  0  0  0
   30.8642  -20.1747  -11.2537 N   0  0  0  0  0  0  0  0  0  0  0  0
   30.2740  -21.4612  -11.1602 C   0  0  0  0  0  0  0  0  0  0  0  0
   30.3801  -22.1780  -10.0979 N   0  0  0  0  0  0  0  0  0  0  0  0
   29.5275  -22.0265  -12.2516 N   0  0  0  0  0  0  0  0  0  0  0  0
   29.3204  -21.3805  -13.5042 C   0  0  0  0  0  0  0  0  0  0  0  0
   28.1258  -20.4884  -13.5925 C   0  0  0  0  0  0  0  0  0  0  0  0
   26.9882  -21.2105  -12.8707 C   0  0  0  0  0  0  0  0  0  0  0  0
   25.7268  -20.3830  -13.0683 C   0  0  2  0  0  0  0  0  0  0  0  0
   24.5917  -21.0546  -12.4727 N   0  0  0  0  0  0  0  0  0  0  0  0
   25.4897  -20.1471  -14.5359 C   0  0  0  0  0  0  0  0  0  0  0  0
   25.1850  -21.0660  -15.3137 O   0  0  0  0  0  0  0  0  0  0  0  0
   29.9418  -23.1124  -10.0685 O   0  0  0  0  0  0  0  0  0  0  0  0
   26.8996  -16.5901  -15.9765 C   0  0  0  0  0  0  0  0  0  0  0  0
   25.6749  -16.9698  -16.5299 C   0  0  1  0  0  0  0  0  0  0  0  0
   25.4412  -18.4657  -16.4155 N   0  0  0  0  0  0  0  0  0  0  0  0
   25.6171  -18.8420  -15.0472 C   0  0  0  0  0  0  0  0  0  0  0  0
   26.3370  -19.1431  -17.3495 O   0  0  0  0  0  0  0  0  0  0  0  0
   27.2712  -19.8586  -16.9206 O   0  0  0  0  0  0  0  0  0  0  0  0
  2  1  1  6
  3  2  1  0
  4  2  1  0
  4  5  1  1
  6  7  2  0
  6  4  1  0
  9  8  1  0
  9 11  1  0
 10  9  2  0
 12 11  1  0
 13 14  1  0
 13 12  1  0
 15 14  1  6
 15 16  1  0
 16  6  1  0
 17 15  1  0
 18 17  2  0
 19 20  1  0
 21 20  1  1
 21 22  1  0
 22 17  1  0
 23 21  1  0
 24 23  2  0
 25 23  1  0
M  END
$$$$
