TRS.pdb
     RDKit          3D

 25 24  0  0  1  0  0  0  0  0999 V2000
   17.6207  -23.1698  -15.5344 C   0  0  0  0  0  0  0  0  0  0  0  0
   18.7949  -22.2592  -15.6747 C   0  0  1  0  0  0  0  0  0  0  0  0
   18.9081  -21.6382  -16.8985 O   0  0  0  0  0  0  0  0  0  0  0  0
   18.8836  -21.2355  -14.5389 C   0  0  2  0  0  0  0  0  0  0  0  0
   17.8957  -20.2076  -14.6800 N   0  0  0  0  0  0  0  0  0  0  0  0
   20.2256  -20.6345  -14.6260 C   0  0  0  0  0  0  0  0  0  0  0  0
   20.3930  -19.5030  -15.1425 O   0  0  0  0  0  0  0  0  0  0  0  0
   26.7722  -19.6434  -10.1411 N   0  0  0  0  0  0  0  0  0  0  0  0
   25.7435  -20.5925   -9.9109 C   0  0  0  0  0  0  0  0  0  0  0  0
   25.1554  -20.6891   -8.7715 N   0  0  0  0  0  0  0  0  0  0  0  0
   25.3084  -21.4942  -10.9432 N   0  0  0  0  0  0  0  0  0  0  0  0
   25.8150  -21.4970  -12.2746 C   0  0  0  0  0  0  0  0  0  0  0  0
   24.9509  -20.8495  -13.3066 C   0  0  0  0  0  0  0  0  0  0  0  0
   23.5575  -21.4587  -13.1530 C   0  0  0  0  0  0  0  0  0  0  0  0
   22.6467  -20.7695  -14.1582 C   0  0  2  0  0  0  0  0  0  0  0  0
   21.3243  -21.3560  -14.1167 N   0  0  0  0  0  0  0  0  0  0  0  0
   23.2294  -20.8795  -15.5417 C   0  0  0  0  0  0  0  0  0  0  0  0
   23.3255  -21.9660  -16.1354 O   0  0  0  0  0  0  0  0  0  0  0  0
   24.4066  -21.3883   -8.6427 O   0  0  0  0  0  0  0  0  0  0  0  0
   23.4654  -17.3975  -17.7983 C   0  0  0  0  0  0  0  0  0  0  0  0
   23.4473  -18.6879  -18.3319 C   0  0  1  0  0  0  0  0  0  0  0  0
   24.2598  -19.6588  -17.4937 N   0  0  0  0  0  0  0  0  0  0  0  0
   23.6816  -19.7133  -16.1870 C   0  0  0  0  0  0  0  0  0  0  0  0
   25.6563  -19.2312  -17.5203 O   0  0  0  0  0  0  0  0  0  0  0  0
   26.3019  -19.2527  -18.5934 O   0  0  0  0  0  0  0  0  0  0  0  0
  2  1  1  6
  3  2  1  0
  4  2  1  0
  4  5  1  6
  6  7  2  0
  6  4  1  0
  9  8  1  0
  9 11  1  0
 10  9  2  0
 12 11  1  0
 13 14  1  0
 13 12  1  0
 15 14  1  1
 15 16  1  0
 16  6  1  0
 17 15  1  0
 18 17  2  0
 19 20  1  0
 21 20  1  6
 21 22  1  0
 22 17  1  0
 23 21  1  0
 24 23  2  0
 25 23  1  0
M  END
$$$$
