TRS.pdb
     RDKit          3D

 25 24  0  0  1  0  0  0  0  0999 V2000
   18.5293  -27.0794   -6.0421 C   0  0  0  0  0  0  0  0  0  0  0  0
   18.4961  -25.8466   -6.8827 C   0  0  1  0  0  0  0  0  0  0  0  0
   17.7013  -25.9270   -8.0043 O   0  0  0  0  0  0  0  0  0  0  0  0
   18.1609  -24.5913   -6.0717 C   0  0  2  0  0  0  0  0  0  0  0  0
   16.7882  -24.5816   -5.6622 N   0  0  0  0  0  0  0  0  0  0  0  0
   18.4106  -23.4439   -6.9612 C   0  0  0  0  0  0  0  0  0  0  0  0
   17.4601  -22.7630   -7.4171 O   0  0  0  0  0  0  0  0  0  0  0  0
   22.2902  -19.7949  -12.7963 N   0  0  0  0  0  0  0  0  0  0  0  0
   23.5498  -20.1613  -12.2565 C   0  0  0  0  0  0  0  0  0  0  0  0
   24.6527  -19.8288  -12.8279 N   0  0  0  0  0  0  0  0  0  0  0  0
   23.6535  -20.9239  -11.0418 N   0  0  0  0  0  0  0  0  0  0  0  0
   22.5692  -21.6195  -10.4338 C   0  0  0  0  0  0  0  0  0  0  0  0
   21.7328  -20.8276   -9.4828 C   0  0  0  0  0  0  0  0  0  0  0  0
   21.4794  -21.7263   -8.2726 C   0  0  0  0  0  0  0  0  0  0  0  0
   20.0062  -22.1060   -8.2889 C   0  0  2  0  0  0  0  0  0  0  0  0
   19.7424  -23.1224   -7.2930 N   0  0  0  0  0  0  0  0  0  0  0  0
   19.6149  -22.5946   -9.6578 C   0  0  0  0  0  0  0  0  0  0  0  0
   19.7645  -23.7770  -10.0068 O   0  0  0  0  0  0  0  0  0  0  0  0
   25.5496  -20.1476  -12.4279 O   0  0  0  0  0  0  0  0  0  0  0  0
   19.0963  -23.4156  -13.7722 C   0  0  0  0  0  0  0  0  0  0  0  0
   19.4736  -23.0775  -12.4709 C   0  0  2  0  0  0  0  0  0  0  0  0
   18.5698  -22.0112  -11.8781 N   0  0  0  0  0  0  0  0  0  0  0  0
   19.0605  -21.6830  -10.5757 C   0  0  0  0  0  0  0  0  0  0  0  0
   17.1967  -22.5092  -11.8998 O   0  0  0  0  0  0  0  0  0  0  0  0
   16.6094  -22.7858  -10.8287 O   0  0  0  0  0  0  0  0  0  0  0  0
  2  1  1  1
  3  2  1  0
  4  2  1  0
  4  5  1  6
  6  7  2  0
  6  4  1  0
  9  8  1  0
  9 11  1  0
 10  9  2  0
 12 11  1  0
 13 14  1  0
 13 12  1  0
 15 14  1  6
 15 16  1  0
 16  6  1  0
 17 15  1  0
 18 17  2  0
 19 20  1  0
 21 20  1  6
 21 22  1  0
 22 17  1  0
 23 21  1  0
 24 23  2  0
 25 23  1  0
M  END
$$$$
