TRS.pdb
     RDKit          3D

 25 24  0  0  1  0  0  0  0  0999 V2000
   27.0696  -10.3525  -15.5522 C   0  0  0  0  0  0  0  0  0  0  0  0
   27.2266  -11.1145  -16.8260 C   0  0  1  0  0  0  0  0  0  0  0  0
   28.4081  -11.8113  -16.9465 O   0  0  0  0  0  0  0  0  0  0  0  0
   26.0300  -12.0250  -17.1173 C   0  0  2  0  0  0  0  0  0  0  0  0
   26.2146  -12.7627  -18.3313 N   0  0  0  0  0  0  0  0  0  0  0  0
   24.8607  -11.1405  -17.2593 C   0  0  0  0  0  0  0  0  0  0  0  0
   24.6235  -10.5547  -18.3435 O   0  0  0  0  0  0  0  0  0  0  0  0
   16.9496  -12.1283  -14.6434 N   0  0  0  0  0  0  0  0  0  0  0  0
   17.8897  -12.5301  -15.6267 C   0  0  0  0  0  0  0  0  0  0  0  0
   17.7813  -13.6509  -16.2476 N   0  0  0  0  0  0  0  0  0  0  0  0
   19.0116  -11.7013  -15.9766 N   0  0  0  0  0  0  0  0  0  0  0  0
   19.2365  -10.3926  -15.4609 C   0  0  0  0  0  0  0  0  0  0  0  0
   20.4805   -9.7091  -15.9259 C   0  0  0  0  0  0  0  0  0  0  0  0
   21.6216  -10.7096  -15.7437 C   0  0  0  0  0  0  0  0  0  0  0  0
   22.8945  -10.0435  -16.2447 C   0  0  2  0  0  0  0  0  0  0  0  0
   24.0083  -10.9627  -16.1506 N   0  0  0  0  0  0  0  0  0  0  0  0
   23.1711   -8.7962  -15.4488 C   0  0  0  0  0  0  0  0  0  0  0  0
   23.5863   -8.8355  -14.2791 O   0  0  0  0  0  0  0  0  0  0  0  0
   18.4815  -13.9069  -16.9621 O   0  0  0  0  0  0  0  0  0  0  0  0
   24.6309   -5.6411  -17.3705 C   0  0  0  0  0  0  0  0  0  0  0  0
   23.5246   -5.2875  -16.5951 C   0  0  2  0  0  0  0  0  0  0  0  0
   23.2832   -6.2764  -15.4686 N   0  0  0  0  0  0  0  0  0  0  0  0
   22.9528   -7.5414  -16.0477 C   0  0  0  0  0  0  0  0  0  0  0  0
   22.2557   -5.7271  -14.5877 O   0  0  0  0  0  0  0  0  0  0  0  0
   21.0562   -6.0552  -14.7368 O   0  0  0  0  0  0  0  0  0  0  0  0
  2  1  1  1
  3  2  1  0
  4  2  1  0
  4  5  1  6
  6  7  2  0
  6  4  1  0
  9  8  1  0
  9 11  1  0
 10  9  2  0
 12 11  1  0
 13 14  1  0
 13 12  1  0
 15 14  1  1
 15 16  1  0
 16  6  1  0
 17 15  1  0
 18 17  2  0
 19 20  1  0
 21 20  1  6
 21 22  1  0
 22 17  1  0
 23 21  1  0
 24 23  2  0
 25 23  1  0
M  END
$$$$
