TRS.pdb
     RDKit          3D

 25 24  0  0  1  0  0  0  0  0999 V2000
   20.9635  -17.0938  -20.8803 C   0  0  0  0  0  0  0  0  0  0  0  0
   21.7957  -17.5618  -19.7331 C   0  0  1  0  0  0  0  0  0  0  0  0
   23.1557  -17.5209  -19.9446 O   0  0  0  0  0  0  0  0  0  0  0  0
   21.4317  -16.8632  -18.4196 C   0  0  2  0  0  0  0  0  0  0  0  0
   21.7331  -15.4635  -18.4682 N   0  0  0  0  0  0  0  0  0  0  0  0
   22.2477  -17.4996  -17.3713 C   0  0  0  0  0  0  0  0  0  0  0  0
   23.2758  -16.9361  -16.9236 O   0  0  0  0  0  0  0  0  0  0  0  0
   18.9631  -22.7927  -11.7165 N   0  0  0  0  0  0  0  0  0  0  0  0
   19.7044  -22.9887  -12.9099 C   0  0  0  0  0  0  0  0  0  0  0  0
   19.7408  -24.1287  -13.5036 N   0  0  0  0  0  0  0  0  0  0  0  0
   20.4525  -21.9194  -13.5139 N   0  0  0  0  0  0  0  0  0  0  0  0
   20.2614  -20.5385  -13.2208 C   0  0  0  0  0  0  0  0  0  0  0  0
   21.1221  -19.5818  -13.9789 C   0  0  0  0  0  0  0  0  0  0  0  0
   21.8166  -20.3928  -15.0727 C   0  0  0  0  0  0  0  0  0  0  0  0
   22.6664  -19.4266  -15.8847 C   0  0  2  0  0  0  0  0  0  0  0  0
   21.8517  -18.7591  -16.8771 N   0  0  0  0  0  0  0  0  0  0  0  0
   23.8002  -20.1658  -16.5433 C   0  0  0  0  0  0  0  0  0  0  0  0
   23.6154  -20.9737  -17.4682 O   0  0  0  0  0  0  0  0  0  0  0  0
   20.2768  -24.2293  -14.3804 O   0  0  0  0  0  0  0  0  0  0  0  0
   28.6899  -20.3532  -16.6166 C   0  0  0  0  0  0  0  0  0  0  0  0
   27.4935  -19.7481  -16.2256 C   0  0  1  0  0  0  0  0  0  0  0  0
   26.2858  -20.5919  -16.5928 N   0  0  0  0  0  0  0  0  0  0  0  0
   25.1154  -19.9359  -16.0982 C   0  0  0  0  0  0  0  0  0  0  0  0
   26.4911  -21.9399  -16.0690 O   0  0  0  0  0  0  0  0  0  0  0  0
   25.7717  -22.3713  -15.1389 O   0  0  0  0  0  0  0  0  0  0  0  0
  2  1  1  6
  3  2  1  0
  4  2  1  0
  4  5  1  6
  6  7  2  0
  6  4  1  0
  9  8  1  0
  9 11  1  0
 10  9  2  0
 12 11  1  0
 13 14  1  0
 13 12  1  0
 15 14  1  6
 15 16  1  0
 16  6  1  0
 17 15  1  0
 18 17  2  0
 19 20  1  0
 21 20  1  6
 21 22  1  0
 22 17  1  0
 23 21  1  0
 24 23  2  0
 25 23  1  0
M  END
$$$$
