TRS.pdb
     RDKit          3D

 25 24  0  0  1  0  0  0  0  0999 V2000
   26.7256  -10.4740  -14.9463 C   0  0  0  0  0  0  0  0  0  0  0  0
   26.8120  -11.3587  -16.1452 C   0  0  1  0  0  0  0  0  0  0  0  0
   27.8220  -12.2939  -16.1080 O   0  0  0  0  0  0  0  0  0  0  0  0
   25.4736  -12.0220  -16.4837 C   0  0  2  0  0  0  0  0  0  0  0  0
   25.5987  -12.9220  -17.5912 N   0  0  0  0  0  0  0  0  0  0  0  0
   24.5504  -10.9325  -16.8450 C   0  0  0  0  0  0  0  0  0  0  0  0
   24.6874  -10.3018  -17.9213 O   0  0  0  0  0  0  0  0  0  0  0  0
   15.9997   -9.9717  -15.3586 N   0  0  0  0  0  0  0  0  0  0  0  0
   17.1850  -10.7026  -15.0885 C   0  0  0  0  0  0  0  0  0  0  0  0
   17.1500  -11.8839  -14.5817 N   0  0  0  0  0  0  0  0  0  0  0  0
   18.4852  -10.1560  -15.3689 N   0  0  0  0  0  0  0  0  0  0  0  0
   18.8269   -9.4686  -16.5689 C   0  0  0  0  0  0  0  0  0  0  0  0
   20.2203   -8.9363  -16.6459 C   0  0  0  0  0  0  0  0  0  0  0  0
   21.1436  -10.0632  -16.1832 C   0  0  0  0  0  0  0  0  0  0  0  0
   22.5734   -9.5564  -16.3004 C   0  0  2  0  0  0  0  0  0  0  0  0
   23.5051  -10.6089  -15.9562 N   0  0  0  0  0  0  0  0  0  0  0  0
   22.7721   -8.3624  -15.4056 C   0  0  0  0  0  0  0  0  0  0  0  0
   22.9264   -8.4730  -14.1783 O   0  0  0  0  0  0  0  0  0  0  0  0
   18.0303  -12.3408  -14.2944 O   0  0  0  0  0  0  0  0  0  0  0  0
   24.8470   -5.3267  -16.8891 C   0  0  0  0  0  0  0  0  0  0  0  0
   23.6593   -4.8780  -16.3074 C   0  0  2  0  0  0  0  0  0  0  0  0
   23.1183   -5.8666  -15.2900 N   0  0  0  0  0  0  0  0  0  0  0  0
   22.7838   -7.0758  -15.9761 C   0  0  0  0  0  0  0  0  0  0  0  0
   22.0007   -5.2392  -14.5893 O   0  0  0  0  0  0  0  0  0  0  0  0
   20.8259   -5.4269  -14.9809 O   0  0  0  0  0  0  0  0  0  0  0  0
  2  1  1  1
  3  2  1  0
  4  2  1  0
  4  5  1  6
  6  7  2  0
  6  4  1  0
  9  8  1  0
  9 11  1  0
 10  9  2  0
 12 11  1  0
 13 14  1  0
 13 12  1  0
 15 14  1  1
 15 16  1  0
 16  6  1  0
 17 15  1  0
 18 17  2  0
 19 20  1  0
 21 20  1  1
 21 22  1  0
 22 17  1  0
 23 21  1  0
 24 23  2  0
 25 23  1  0
M  END
$$$$
