TRS.pdb
     RDKit          3D

 25 24  0  0  1  0  0  0  0  0999 V2000
   21.7893   -7.1031  -12.0175 C   0  0  0  0  0  0  0  0  0  0  0  0
   21.2921   -8.0903  -13.0204 C   0  0  1  0  0  0  0  0  0  0  0  0
   22.2310   -8.9957  -13.4622 O   0  0  0  0  0  0  0  0  0  0  0  0
   20.0229   -8.8111  -12.5563 C   0  0  2  0  0  0  0  0  0  0  0  0
   19.6603   -9.8669  -13.4541 N   0  0  0  0  0  0  0  0  0  0  0  0
   18.9533   -7.7984  -12.5401 C   0  0  0  0  0  0  0  0  0  0  0  0
   18.3947   -7.4338  -13.6031 O   0  0  0  0  0  0  0  0  0  0  0  0
   13.6919   -6.6279   -5.8741 N   0  0  0  0  0  0  0  0  0  0  0  0
   13.3669   -7.5667   -6.8867 C   0  0  0  0  0  0  0  0  0  0  0  0
   12.3587   -8.3572   -6.7772 N   0  0  0  0  0  0  0  0  0  0  0  0
   14.1516   -7.6794   -8.0865 N   0  0  0  0  0  0  0  0  0  0  0  0
   15.2585   -6.8414   -8.4053 C   0  0  0  0  0  0  0  0  0  0  0  0
   15.8966   -7.0751   -9.7353 C   0  0  0  0  0  0  0  0  0  0  0  0
   17.0089   -6.0359   -9.8739 C   0  0  0  0  0  0  0  0  0  0  0  0
   17.5896   -6.1754  -11.2732 C   0  0  2  0  0  0  0  0  0  0  0  0
   18.5660   -7.2431  -11.3036 N   0  0  0  0  0  0  0  0  0  0  0  0
   18.2154   -4.8758  -11.7034 C   0  0  0  0  0  0  0  0  0  0  0  0
   19.2732   -4.4540  -11.2079 O   0  0  0  0  0  0  0  0  0  0  0  0
   12.1359   -9.0078   -7.5475 O   0  0  0  0  0  0  0  0  0  0  0  0
   19.0924   -2.1222  -15.3453 C   0  0  0  0  0  0  0  0  0  0  0  0
   18.5479   -3.2370  -14.7041 C   0  0  2  0  0  0  0  0  0  0  0  0
   18.1062   -2.9158  -13.2874 N   0  0  0  0  0  0  0  0  0  0  0  0
   17.5829   -4.1103  -12.7008 C   0  0  0  0  0  0  0  0  0  0  0  0
   17.1606   -1.8038  -13.3422 O   0  0  0  0  0  0  0  0  0  0  0  0
   15.9475   -2.0184  -13.5678 O   0  0  0  0  0  0  0  0  0  0  0  0
  2  1  1  1
  3  2  1  0
  4  2  1  0
  4  5  1  6
  6  7  2  0
  6  4  1  0
  9  8  1  0
  9 11  1  0
 10  9  2  0
 12 11  1  0
 13 14  1  0
 13 12  1  0
 15 14  1  1
 15 16  1  0
 16  6  1  0
 17 15  1  0
 18 17  2  0
 19 20  1  0
 21 20  1  1
 21 22  1  0
 22 17  1  0
 23 21  1  0
 24 23  2  0
 25 23  1  0
M  END
$$$$
