TRS.pdb
     RDKit          3D

 25 24  0  0  1  0  0  0  0  0999 V2000
   26.6017   -9.9019  -15.2746 C   0  0  0  0  0  0  0  0  0  0  0  0
   26.5720  -11.0687  -16.2049 C   0  0  1  0  0  0  0  0  0  0  0  0
   27.4768  -12.0663  -15.9179 O   0  0  0  0  0  0  0  0  0  0  0  0
   25.1646  -11.6484  -16.3756 C   0  0  2  0  0  0  0  0  0  0  0  0
   25.1543  -12.7367  -17.3071 N   0  0  0  0  0  0  0  0  0  0  0  0
   24.3261  -10.5551  -16.8965 C   0  0  0  0  0  0  0  0  0  0  0  0
   24.3996  -10.2032  -18.0989 O   0  0  0  0  0  0  0  0  0  0  0  0
   16.5657  -11.4785  -16.9412 N   0  0  0  0  0  0  0  0  0  0  0  0
   17.1915  -11.6975  -15.6873 C   0  0  0  0  0  0  0  0  0  0  0  0
   16.6377  -12.4088  -14.7703 N   0  0  0  0  0  0  0  0  0  0  0  0
   18.4782  -11.1329  -15.3809 N   0  0  0  0  0  0  0  0  0  0  0  0
   19.3011  -10.4495  -16.3215 C   0  0  0  0  0  0  0  0  0  0  0  0
   20.6122   -9.9526  -15.8067 C   0  0  0  0  0  0  0  0  0  0  0  0
   21.2980   -9.2426  -16.9737 C   0  0  0  0  0  0  0  0  0  0  0  0
   22.6617   -8.7777  -16.4850 C   0  0  2  0  0  0  0  0  0  0  0  0
   23.4352   -9.9076  -16.0166 N   0  0  0  0  0  0  0  0  0  0  0  0
   22.4968   -7.7602  -15.3880 C   0  0  0  0  0  0  0  0  0  0  0  0
   22.5764   -8.0632  -14.1863 O   0  0  0  0  0  0  0  0  0  0  0  0
   17.1370  -12.5723  -13.8815 O   0  0  0  0  0  0  0  0  0  0  0  0
   22.9210   -3.1867  -14.2157 C   0  0  0  0  0  0  0  0  0  0  0  0
   22.9871   -4.2261  -15.1460 C   0  0  2  0  0  0  0  0  0  0  0  0
   22.0256   -5.3513  -14.8070 N   0  0  0  0  0  0  0  0  0  0  0  0
   22.2437   -6.4193  -15.7326 C   0  0  0  0  0  0  0  0  0  0  0  0
   20.6679   -4.8127  -14.8132 O   0  0  0  0  0  0  0  0  0  0  0  0
   19.9821   -4.8438  -15.8608 O   0  0  0  0  0  0  0  0  0  0  0  0
  2  1  1  1
  3  2  1  0
  4  2  1  0
  4  5  1  6
  6  7  2  0
  6  4  1  0
  9  8  1  0
  9 11  1  0
 10  9  2  0
 12 11  1  0
 13 14  1  0
 13 12  1  0
 15 14  1  1
 15 16  1  0
 16  6  1  0
 17 15  1  0
 18 17  2  0
 19 20  1  0
 21 20  1  1
 21 22  1  0
 22 17  1  0
 23 21  1  0
 24 23  2  0
 25 23  1  0
M  END
$$$$
