YYT.pdb
     RDKit          3D

 32 33  0  0  1  0  0  0  0  0999 V2000
   17.6697  -12.7056  -22.8125 O   0  0  0  0  0  0  0  0  0  0  0  0
   18.2618  -12.0780  -21.7127 C   0  0  0  0  0  0  0  0  0  0  0  0
   19.1173  -11.0075  -21.8664 C   0  0  0  0  0  0  0  0  0  0  0  0
   19.7020  -10.3876  -20.7810 C   0  0  0  0  0  0  0  0  0  0  0  0
   19.4486  -10.8221  -19.4856 C   0  0  0  0  0  0  0  0  0  0  0  0
   20.0793  -10.1509  -18.3480 C   0  0  0  0  0  0  0  0  0  0  0  0
   21.4894  -10.6576  -18.1146 C   0  0  2  0  0  0  0  0  0  0  0  0
   21.3832  -12.0337  -17.6657 N   0  0  0  0  0  0  0  0  0  0  0  0
   22.1747   -9.8807  -17.0804 C   0  0  0  0  0  0  0  0  0  0  0  0
   22.1893  -10.2515  -15.8727 O   0  0  0  0  0  0  0  0  0  0  0  0
   18.5890  -11.8945  -19.3659 C   0  0  0  0  0  0  0  0  0  0  0  0
   17.9965  -12.5252  -20.4378 C   0  0  0  0  0  0  0  0  0  0  0  0
   27.6515  -12.7541  -16.4349 O   0  0  0  0  0  0  0  0  0  0  0  0
   26.9882  -11.5235  -16.4412 C   0  0  0  0  0  0  0  0  0  0  0  0
   26.7888  -10.8383  -15.2621 C   0  0  0  0  0  0  0  0  0  0  0  0
   26.1411   -9.6236  -15.2188 C   0  0  0  0  0  0  0  0  0  0  0  0
   25.6608   -9.0419  -16.3819 C   0  0  0  0  0  0  0  0  0  0  0  0
   24.9623   -7.7589  -16.4407 C   0  0  0  0  0  0  0  0  0  0  0  0
   23.4705   -7.8546  -16.3076 C   0  0  2  0  0  0  0  0  0  0  0  0
   22.8732   -8.6562  -17.3501 N   0  0  0  0  0  0  0  0  0  0  0  0
   22.9357   -6.4680  -16.2986 C   0  0  0  0  0  0  0  0  0  0  0  0
   23.2588   -5.6499  -17.1946 O   0  0  0  0  0  0  0  0  0  0  0  0
   25.8630   -9.7316  -17.5584 C   0  0  0  0  0  0  0  0  0  0  0  0
   26.5165  -10.9578  -17.6041 C   0  0  0  0  0  0  0  0  0  0  0  0
   19.4170   -5.6940  -16.3892 C   0  0  0  0  0  0  0  0  0  0  0  0
   19.9236   -4.8873  -15.2131 C   0  0  1  0  0  0  0  0  0  0  0  0
   19.7018   -5.6576  -14.0707 O   0  0  0  0  0  0  0  0  0  0  0  0
   21.4131   -4.6951  -15.3852 C   0  0  2  0  0  0  0  0  0  0  0  0
   22.0457   -6.0037  -15.2922 N   0  0  0  0  0  0  0  0  0  0  0  0
   21.9816   -3.8168  -14.3581 C   0  0  0  0  0  0  0  0  0  0  0  0
   22.8124   -4.2501  -13.5216 O   0  0  0  0  0  0  0  0  0  0  0  0
   21.5947   -2.4915  -14.3127 O   0  0  0  0  0  0  0  0  0  0  0  0
  2 12  2  0
  2  1  1  0
  3  2  1  0
  4  5  1  0
  4  3  2  0
  5 11  2  0
  6  5  1  0
  7  9  1  0
  7  6  1  0
  7  8  1  1
  9 10  2  0
 11 12  1  0
 14 15  2  0
 14 13  1  0
 16 15  1  0
 17 16  2  0
 19 18  1  6
 18 17  1  0
 20 19  1  0
 20  9  1  0
 21 22  2  0
 21 19  1  0
 23 17  1  0
 23 24  2  0
 24 14  1  0
 26 25  1  6
 26 28  1  0
 27 26  1  0
 28 30  1  0
 28 29  1  1
 29 21  1  0
 30 32  1  0
 31 30  2  0
M  END
$$$$
