YYT.pdb
     RDKit          3D

 32 33  0  0  1  0  0  0  0  0999 V2000
   15.6996  -19.1917  -18.9744 O   0  0  0  0  0  0  0  0  0  0  0  0
   16.6336  -18.3277  -18.3955 C   0  0  0  0  0  0  0  0  0  0  0  0
   17.2484  -18.6266  -17.1980 C   0  0  0  0  0  0  0  0  0  0  0  0
   18.1706  -17.7740  -16.6260 C   0  0  0  0  0  0  0  0  0  0  0  0
   18.5154  -16.5759  -17.2398 C   0  0  0  0  0  0  0  0  0  0  0  0
   19.4957  -15.6855  -16.6163 C   0  0  0  0  0  0  0  0  0  0  0  0
   20.8424  -15.7684  -17.3086 C   0  0  2  0  0  0  0  0  0  0  0  0
   21.3696  -17.0986  -17.0659 N   0  0  0  0  0  0  0  0  0  0  0  0
   21.7848  -14.7870  -16.7688 C   0  0  0  0  0  0  0  0  0  0  0  0
   22.5235  -15.0517  -15.7785 O   0  0  0  0  0  0  0  0  0  0  0  0
   17.8830  -16.3065  -18.4359 C   0  0  0  0  0  0  0  0  0  0  0  0
   16.9604  -17.1455  -19.0212 C   0  0  0  0  0  0  0  0  0  0  0  0
   27.9325   -8.5621  -15.9933 O   0  0  0  0  0  0  0  0  0  0  0  0
   27.0221   -9.5615  -16.3495 C   0  0  0  0  0  0  0  0  0  0  0  0
   26.7015  -10.5578  -15.4527 C   0  0  0  0  0  0  0  0  0  0  0  0
   25.8106  -11.5626  -15.7584 C   0  0  0  0  0  0  0  0  0  0  0  0
   25.1974  -11.6035  -17.0011 C   0  0  0  0  0  0  0  0  0  0  0  0
   24.2398  -12.6255  -17.4205 C   0  0  0  0  0  0  0  0  0  0  0  0
   22.8881  -12.5145  -16.7778 C   0  0  2  0  0  0  0  0  0  0  0  0
   21.9430  -13.4676  -17.3113 N   0  0  0  0  0  0  0  0  0  0  0  0
   22.4248  -11.1139  -16.9572 C   0  0  0  0  0  0  0  0  0  0  0  0
   22.2833  -10.6270  -18.1059 O   0  0  0  0  0  0  0  0  0  0  0  0
   25.5217  -10.6045  -17.8942 C   0  0  0  0  0  0  0  0  0  0  0  0
   26.4207   -9.5894  -17.5874 C   0  0  0  0  0  0  0  0  0  0  0  0
   19.3240   -9.7167  -15.8461 C   0  0  0  0  0  0  0  0  0  0  0  0
   20.3475   -8.7662  -15.2632 C   0  0  1  0  0  0  0  0  0  0  0  0
   20.5846   -9.1836  -13.9529 O   0  0  0  0  0  0  0  0  0  0  0  0
   21.6260   -8.9124  -16.0564 C   0  0  2  0  0  0  0  0  0  0  0  0
   22.1229  -10.2668  -15.8563 N   0  0  0  0  0  0  0  0  0  0  0  0
   22.6553   -7.9593  -15.6304 C   0  0  0  0  0  0  0  0  0  0  0  0
   23.7082   -8.3501  -15.0677 O   0  0  0  0  0  0  0  0  0  0  0  0
   22.4605   -6.6100  -15.8531 O   0  0  0  0  0  0  0  0  0  0  0  0
  2 12  2  0
  2  1  1  0
  3  2  1  0
  4  5  1  0
  4  3  2  0
  5 11  2  0
  6  5  1  0
  7  9  1  0
  7  6  1  0
  7  8  1  1
  9 10  2  0
 11 12  1  0
 14 15  2  0
 14 13  1  0
 16 15  1  0
 17 16  2  0
 19 18  1  6
 18 17  1  0
 20 19  1  0
 20  9  1  0
 21 22  2  0
 21 19  1  0
 23 17  1  0
 23 24  2  0
 24 14  1  0
 26 25  1  6
 26 28  1  0
 27 26  1  0
 28 30  1  0
 28 29  1  1
 29 21  1  0
 30 32  1  0
 31 30  2  0
M  END
$$$$
