YYT.pdb
     RDKit          3D

 32 33  0  0  1  0  0  0  0  0999 V2000
   25.6469   -9.3083  -16.1809 O   0  0  0  0  0  0  0  0  0  0  0  0
   24.3992   -9.3025  -15.5506 C   0  0  0  0  0  0  0  0  0  0  0  0
   23.6404   -8.1547  -15.4619 C   0  0  0  0  0  0  0  0  0  0  0  0
   22.4086   -8.1484  -14.8398 C   0  0  0  0  0  0  0  0  0  0  0  0
   21.8849   -9.3058  -14.2765 C   0  0  0  0  0  0  0  0  0  0  0  0
   20.5765   -9.2777  -13.6208 C   0  0  0  0  0  0  0  0  0  0  0  0
   19.4474   -9.3928  -14.6266 C   0  0  2  0  0  0  0  0  0  0  0  0
   19.7819  -10.4814  -15.5262 N   0  0  0  0  0  0  0  0  0  0  0  0
   19.3012   -8.1662  -15.4120 C   0  0  0  0  0  0  0  0  0  0  0  0
   19.4617   -8.1580  -16.6653 O   0  0  0  0  0  0  0  0  0  0  0  0
   22.6682  -10.4365  -14.3820 C   0  0  0  0  0  0  0  0  0  0  0  0
   23.8995  -10.4610  -14.9992 C   0  0  0  0  0  0  0  0  0  0  0  0
   13.7817   -7.8189  -19.0507 O   0  0  0  0  0  0  0  0  0  0  0  0
   14.6773   -7.1610  -18.2025 C   0  0  0  0  0  0  0  0  0  0  0  0
   15.0496   -7.7375  -17.0072 C   0  0  0  0  0  0  0  0  0  0  0  0
   15.9283   -7.1276  -16.1396 C   0  0  0  0  0  0  0  0  0  0  0  0
   16.4757   -5.8917  -16.4479 C   0  0  0  0  0  0  0  0  0  0  0  0
   17.4152   -5.1646  -15.5958 C   0  0  0  0  0  0  0  0  0  0  0  0
   18.8188   -5.6953  -15.6208 C   0  0  2  0  0  0  0  0  0  0  0  0
   18.9695   -6.8959  -14.8321 N   0  0  0  0  0  0  0  0  0  0  0  0
   19.7137   -4.6062  -15.1502 C   0  0  0  0  0  0  0  0  0  0  0  0
   19.8257   -4.3518  -13.9257 O   0  0  0  0  0  0  0  0  0  0  0  0
   16.0999   -5.3198  -17.6447 C   0  0  0  0  0  0  0  0  0  0  0  0
   15.2131   -5.9339  -18.5217 C   0  0  0  0  0  0  0  0  0  0  0  0
   23.3806   -4.1664  -16.0752 C   0  0  0  0  0  0  0  0  0  0  0  0
   22.6579   -2.8801  -16.4129 C   0  0  1  0  0  0  0  0  0  0  0  0
   22.2762   -2.9721  -17.7521 O   0  0  0  0  0  0  0  0  0  0  0  0
   21.4128   -2.8056  -15.5590 C   0  0  2  0  0  0  0  0  0  0  0  0
   20.4766   -3.8093  -16.0465 N   0  0  0  0  0  0  0  0  0  0  0  0
   20.7743   -1.4874  -15.6227 C   0  0  0  0  0  0  0  0  0  0  0  0
   21.3394   -0.4695  -15.1513 O   0  0  0  0  0  0  0  0  0  0  0  0
   19.5306   -1.3668  -16.2117 O   0  0  0  0  0  0  0  0  0  0  0  0
  2 12  2  0
  2  1  1  0
  3  2  1  0
  4  5  1  0
  4  3  2  0
  5 11  2  0
  6  5  1  0
  7  9  1  0
  7  6  1  0
  7  8  1  6
  9 10  2  0
 11 12  1  0
 14 15  2  0
 14 13  1  0
 16 15  1  0
 17 16  2  0
 19 18  1  1
 18 17  1  0
 20 19  1  0
 20  9  1  0
 21 22  2  0
 21 19  1  0
 23 17  1  0
 23 24  2  0
 24 14  1  0
 26 25  1  1
 26 28  1  0
 27 26  1  0
 28 30  1  0
 28 29  1  6
 29 21  1  0
 30 32  1  0
 31 30  2  0
M  END
$$$$
