YYT.pdb
     RDKit          3D

 32 33  0  0  1  0  0  0  0  0999 V2000
   10.1706  -13.4352  -10.6381 O   0  0  0  0  0  0  0  0  0  0  0  0
   11.1482  -12.4461  -10.4970 C   0  0  0  0  0  0  0  0  0  0  0  0
   11.8090  -12.2492   -9.3029 C   0  0  0  0  0  0  0  0  0  0  0  0
   12.7742  -11.2728   -9.1631 C   0  0  0  0  0  0  0  0  0  0  0  0
   13.1176  -10.4476  -10.2271 C   0  0  0  0  0  0  0  0  0  0  0  0
   14.1440   -9.4178  -10.0578 C   0  0  0  0  0  0  0  0  0  0  0  0
   15.2922   -9.6114  -11.0294 C   0  0  2  0  0  0  0  0  0  0  0  0
   16.0349  -10.7786  -10.5905 N   0  0  0  0  0  0  0  0  0  0  0  0
   16.1936   -8.4581  -11.0317 C   0  0  0  0  0  0  0  0  0  0  0  0
   17.1309   -8.3471  -10.1917 O   0  0  0  0  0  0  0  0  0  0  0  0
   12.4387  -10.6701  -11.4072 C   0  0  0  0  0  0  0  0  0  0  0  0
   11.4728  -11.6396  -11.5647 C   0  0  0  0  0  0  0  0  0  0  0  0
   21.5351   -9.8230  -14.5557 O   0  0  0  0  0  0  0  0  0  0  0  0
   20.5804   -8.8603  -14.2146 C   0  0  0  0  0  0  0  0  0  0  0  0
   19.2610   -9.0363  -14.5726 C   0  0  0  0  0  0  0  0  0  0  0  0
   18.2857   -8.1159  -14.2588 C   0  0  0  0  0  0  0  0  0  0  0  0
   18.6071   -6.9624  -13.5602 C   0  0  0  0  0  0  0  0  0  0  0  0
   17.6467   -5.9279  -13.1801 C   0  0  0  0  0  0  0  0  0  0  0  0
   16.9148   -6.1974  -11.8979 C   0  0  2  0  0  0  0  0  0  0  0  0
   16.0875   -7.3789  -11.9720 N   0  0  0  0  0  0  0  0  0  0  0  0
   16.1206   -4.9831  -11.5763 C   0  0  0  0  0  0  0  0  0  0  0  0
   15.0729   -4.7142  -12.2140 O   0  0  0  0  0  0  0  0  0  0  0  0
   19.9282   -6.7916  -13.2048 C   0  0  0  0  0  0  0  0  0  0  0  0
   20.9141   -7.7194  -13.5205 C   0  0  0  0  0  0  0  0  0  0  0  0
   15.1332   -1.3833   -8.3705 C   0  0  0  0  0  0  0  0  0  0  0  0
   15.9840   -2.5766   -8.7488 C   0  0  1  0  0  0  0  0  0  0  0  0
   15.6083   -3.6229   -7.9052 O   0  0  0  0  0  0  0  0  0  0  0  0
   15.6472   -2.9581  -10.1723 C   0  0  2  0  0  0  0  0  0  0  0  0
   16.4992   -4.0782  -10.5476 N   0  0  0  0  0  0  0  0  0  0  0  0
   15.8707   -1.8539  -11.1103 C   0  0  0  0  0  0  0  0  0  0  0  0
   17.0112   -1.6273  -11.5855 O   0  0  0  0  0  0  0  0  0  0  0  0
   14.8071   -1.0515  -11.4754 O   0  0  0  0  0  0  0  0  0  0  0  0
  2 12  2  0
  2  1  1  0
  3  2  1  0
  4  5  1  0
  4  3  2  0
  5 11  2  0
  6  5  1  0
  7  9  1  0
  7  6  1  0
  7  8  1  1
  9 10  2  0
 11 12  1  0
 14 15  2  0
 14 13  1  0
 16 15  1  0
 17 16  2  0
 19 18  1  6
 18 17  1  0
 20 19  1  0
 20  9  1  0
 21 22  2  0
 21 19  1  0
 23 17  1  0
 23 24  2  0
 24 14  1  0
 26 25  1  1
 26 28  1  0
 27 26  1  0
 28 30  1  0
 28 29  1  6
 29 21  1  0
 30 32  1  0
 31 30  2  0
M  END
$$$$
