YYT.pdb
     RDKit          3D

 32 33  0  0  1  0  0  0  0  0999 V2000
   34.8458  -33.4467  -16.6511 O   0  0  0  0  0  0  0  0  0  0  0  0
   33.4818  -33.2117  -16.8461 C   0  0  0  0  0  0  0  0  0  0  0  0
   33.0339  -32.2206  -17.6936 C   0  0  0  0  0  0  0  0  0  0  0  0
   31.6873  -31.9881  -17.8865 C   0  0  0  0  0  0  0  0  0  0  0  0
   30.7278  -32.7490  -17.2296 C   0  0  0  0  0  0  0  0  0  0  0  0
   29.3045  -32.4860  -17.4479 C   0  0  0  0  0  0  0  0  0  0  0  0
   28.7582  -31.5017  -16.4319 C   0  0  2  0  0  0  0  0  0  0  0  0
   28.5686  -32.2271  -15.1892 N   0  0  0  0  0  0  0  0  0  0  0  0
   27.4679  -30.9545  -16.8546 C   0  0  0  0  0  0  0  0  0  0  0  0
   26.4584  -30.9735  -16.0950 O   0  0  0  0  0  0  0  0  0  0  0  0
   31.2083  -33.7319  -16.3893 C   0  0  0  0  0  0  0  0  0  0  0  0
   32.5482  -33.9779  -16.1849 C   0  0  0  0  0  0  0  0  0  0  0  0
   20.7311  -26.0821  -19.0237 O   0  0  0  0  0  0  0  0  0  0  0  0
   21.9422  -26.6961  -18.6909 C   0  0  0  0  0  0  0  0  0  0  0  0
   21.9833  -27.6561  -17.7027 C   0  0  0  0  0  0  0  0  0  0  0  0
   23.1522  -28.2880  -17.3407 C   0  0  0  0  0  0  0  0  0  0  0  0
   24.3459  -27.9719  -17.9709 C   0  0  0  0  0  0  0  0  0  0  0  0
   25.6361  -28.5849  -17.6597 C   0  0  0  0  0  0  0  0  0  0  0  0
   25.9913  -29.7614  -18.5212 C   0  0  2  0  0  0  0  0  0  0  0  0
   27.2491  -30.3626  -18.1437 N   0  0  0  0  0  0  0  0  0  0  0  0
   26.0015  -29.2922  -19.9313 C   0  0  0  0  0  0  0  0  0  0  0  0
   26.8020  -28.3999  -20.3048 O   0  0  0  0  0  0  0  0  0  0  0  0
   24.2989  -27.0110  -18.9585 C   0  0  0  0  0  0  0  0  0  0  0  0
   23.1200  -26.3721  -19.3253 C   0  0  0  0  0  0  0  0  0  0  0  0
   25.9251  -31.6954  -22.8426 C   0  0  0  0  0  0  0  0  0  0  0  0
   24.9053  -30.6241  -23.1641 C   0  0  1  0  0  0  0  0  0  0  0  0
   23.6590  -31.1295  -22.7912 O   0  0  0  0  0  0  0  0  0  0  0  0
   25.2124  -29.4153  -22.3100 C   0  0  2  0  0  0  0  0  0  0  0  0
   25.1206  -29.8203  -20.9139 N   0  0  0  0  0  0  0  0  0  0  0  0
   24.2747  -28.3141  -22.5495 C   0  0  0  0  0  0  0  0  0  0  0  0
   23.4228  -27.9882  -21.6859 O   0  0  0  0  0  0  0  0  0  0  0  0
   24.3321  -27.6258  -23.7458 O   0  0  0  0  0  0  0  0  0  0  0  0
  2 12  2  0
  2  1  1  0
  3  2  1  0
  4  5  1  0
  4  3  2  0
  5 11  2  0
  6  5  1  0
  7  9  1  0
  7  6  1  0
  7  8  1  1
  9 10  2  0
 11 12  1  0
 14 15  2  0
 14 13  1  0
 16 15  1  0
 17 16  2  0
 19 18  1  1
 18 17  1  0
 20 19  1  0
 20  9  1  0
 21 22  2  0
 21 19  1  0
 23 17  1  0
 23 24  2  0
 24 14  1  0
 26 25  1  1
 26 28  1  0
 27 26  1  0
 28 30  1  0
 28 29  1  1
 29 21  1  0
 30 32  1  0
 31 30  2  0
M  END
$$$$
