YYT.pdb
     RDKit          3D

 32 33  0  0  1  0  0  0  0  0999 V2000
   15.4177  -17.9280  -15.8599 O   0  0  0  0  0  0  0  0  0  0  0  0
   16.2334  -16.7996  -15.9832 C   0  0  0  0  0  0  0  0  0  0  0  0
   17.5787  -16.8451  -15.6840 C   0  0  0  0  0  0  0  0  0  0  0  0
   18.3845  -15.7314  -15.8056 C   0  0  0  0  0  0  0  0  0  0  0  0
   17.8664  -14.5161  -16.2366 C   0  0  0  0  0  0  0  0  0  0  0  0
   18.7382  -13.3466  -16.3585 C   0  0  0  0  0  0  0  0  0  0  0  0
   18.8842  -12.9094  -17.8032 C   0  0  2  0  0  0  0  0  0  0  0  0
   19.6003  -13.9616  -18.5007 N   0  0  0  0  0  0  0  0  0  0  0  0
   19.6534  -11.6689  -17.9135 C   0  0  0  0  0  0  0  0  0  0  0  0
   20.9110  -11.6767  -18.0354 O   0  0  0  0  0  0  0  0  0  0  0  0
   16.5180  -14.5039  -16.5277 C   0  0  0  0  0  0  0  0  0  0  0  0
   15.6989  -15.6054  -16.4121 C   0  0  0  0  0  0  0  0  0  0  0  0
   14.3806   -8.5399  -21.3633 O   0  0  0  0  0  0  0  0  0  0  0  0
   15.6868   -8.5328  -20.8652 C   0  0  0  0  0  0  0  0  0  0  0  0
   16.2384   -7.3645  -20.3850 C   0  0  0  0  0  0  0  0  0  0  0  0
   17.5204   -7.3087  -19.8848 C   0  0  0  0  0  0  0  0  0  0  0  0
   18.3103   -8.4475  -19.8482 C   0  0  0  0  0  0  0  0  0  0  0  0
   19.6794   -8.4915  -19.3375 C   0  0  0  0  0  0  0  0  0  0  0  0
   19.8238   -9.1499  -17.9966 C   0  0  2  0  0  0  0  0  0  0  0  0
   19.0516  -10.3660  -17.8924 N   0  0  0  0  0  0  0  0  0  0  0  0
   19.4298   -8.1526  -16.9676 C   0  0  0  0  0  0  0  0  0  0  0  0
   18.2191   -7.9148  -16.7348 O   0  0  0  0  0  0  0  0  0  0  0  0
   17.7535   -9.6132  -20.3298 C   0  0  0  0  0  0  0  0  0  0  0  0
   16.4597   -9.6714  -20.8351 C   0  0  0  0  0  0  0  0  0  0  0  0
   19.8289   -8.2784  -13.5563 C   0  0  0  0  0  0  0  0  0  0  0  0
   20.4911   -6.9510  -13.8573 C   0  0  1  0  0  0  0  0  0  0  0  0
   21.8598   -7.1998  -13.9686 O   0  0  0  0  0  0  0  0  0  0  0  0
   19.9775   -6.4649  -15.1933 C   0  0  2  0  0  0  0  0  0  0  0  0
   20.3869   -7.4282  -16.2062 N   0  0  0  0  0  0  0  0  0  0  0  0
   20.5114   -5.1460  -15.5465 C   0  0  0  0  0  0  0  0  0  0  0  0
   21.2782   -4.9989  -16.5304 O   0  0  0  0  0  0  0  0  0  0  0  0
   20.1633   -4.0493  -14.7821 O   0  0  0  0  0  0  0  0  0  0  0  0
  2 12  2  0
  2  1  1  0
  3  2  1  0
  4  5  1  0
  4  3  2  0
  5 11  2  0
  6  5  1  0
  7  9  1  0
  7  6  1  0
  7  8  1  6
  9 10  2  0
 11 12  1  0
 14 15  2  0
 14 13  1  0
 16 15  1  0
 17 16  2  0
 19 18  1  6
 18 17  1  0
 20 19  1  0
 20  9  1  0
 21 22  2  0
 21 19  1  0
 23 17  1  0
 23 24  2  0
 24 14  1  0
 26 25  1  6
 26 28  1  0
 27 26  1  0
 28 30  1  0
 28 29  1  6
 29 21  1  0
 30 32  1  0
 31 30  2  0
M  END
$$$$
