YYT.pdb
     RDKit          3D

 32 33  0  0  1  0  0  0  0  0999 V2000
   35.2601   -7.9275   -7.5095 O   0  0  0  0  0  0  0  0  0  0  0  0
   36.6143   -8.2656   -7.5863 C   0  0  0  0  0  0  0  0  0  0  0  0
   37.6008   -7.3916   -7.1813 C   0  0  0  0  0  0  0  0  0  0  0  0
   38.9378   -7.7249   -7.2568 C   0  0  0  0  0  0  0  0  0  0  0  0
   39.3411   -8.9611   -7.7468 C   0  0  0  0  0  0  0  0  0  0  0  0
   40.7645   -9.2950   -7.8189 C   0  0  0  0  0  0  0  0  0  0  0  0
   41.0120  -10.7527   -7.4818 C   0  0  2  0  0  0  0  0  0  0  0  0
   40.5557  -10.9627   -6.1202 N   0  0  0  0  0  0  0  0  0  0  0  0
   42.4356  -11.0860   -7.5538 C   0  0  0  0  0  0  0  0  0  0  0  0
   43.1320  -11.2497   -6.5123 O   0  0  0  0  0  0  0  0  0  0  0  0
   38.3305   -9.8123   -8.1435 C   0  0  0  0  0  0  0  0  0  0  0  0
   36.9914   -9.4963   -8.0752 C   0  0  0  0  0  0  0  0  0  0  0  0
   43.0073  -17.8631   -9.5960 O   0  0  0  0  0  0  0  0  0  0  0  0
   43.4565  -16.5437   -9.7046 C   0  0  0  0  0  0  0  0  0  0  0  0
   44.4507  -16.0798   -8.8702 C   0  0  0  0  0  0  0  0  0  0  0  0
   44.9252  -14.7887   -8.9399 C   0  0  0  0  0  0  0  0  0  0  0  0
   44.4077  -13.8994   -9.8690 C   0  0  0  0  0  0  0  0  0  0  0  0
   44.8434  -12.5123  -10.0220 C   0  0  0  0  0  0  0  0  0  0  0  0
   44.5358  -11.6291   -8.8482 C   0  0  2  0  0  0  0  0  0  0  0  0
   43.1430  -11.2508   -8.7916 N   0  0  0  0  0  0  0  0  0  0  0  0
   45.4293  -10.4449   -8.9373 C   0  0  0  0  0  0  0  0  0  0  0  0
   45.2916   -9.6053   -9.8607 O   0  0  0  0  0  0  0  0  0  0  0  0
   43.4135  -14.3688  -10.7010 C   0  0  0  0  0  0  0  0  0  0  0  0
   42.9332  -15.6715  -10.6321 C   0  0  0  0  0  0  0  0  0  0  0  0
   46.0380   -8.0059   -6.2202 C   0  0  0  0  0  0  0  0  0  0  0  0
   47.4148   -8.4451   -6.6703 C   0  0  1  0  0  0  0  0  0  0  0  0
   47.8115   -9.4705   -5.8108 O   0  0  0  0  0  0  0  0  0  0  0  0
   47.2924   -9.0060   -8.0686 C   0  0  2  0  0  0  0  0  0  0  0  0
   46.4688  -10.2053   -7.9979 N   0  0  0  0  0  0  0  0  0  0  0  0
   48.5955   -9.3559   -8.6421 C   0  0  0  0  0  0  0  0  0  0  0  0
   49.4834   -8.4843   -8.8142 O   0  0  0  0  0  0  0  0  0  0  0  0
   48.8472  -10.6668   -8.9977 O   0  0  0  0  0  0  0  0  0  0  0  0
  2 12  2  0
  2  1  1  0
  3  2  1  0
  4  5  1  0
  4  3  2  0
  5 11  2  0
  6  5  1  0
  7  9  1  0
  7  6  1  0
  7  8  1  1
  9 10  2  0
 11 12  1  0
 14 15  2  0
 14 13  1  0
 16 15  1  0
 17 16  2  0
 19 18  1  6
 18 17  1  0
 20 19  1  0
 20  9  1  0
 21 22  2  0
 21 19  1  0
 23 17  1  0
 23 24  2  0
 24 14  1  0
 26 25  1  1
 26 28  1  0
 27 26  1  0
 28 30  1  0
 28 29  1  1
 29 21  1  0
 30 32  1  0
 31 30  2  0
M  END
$$$$
