YYT.pdb
     RDKit          3D

 32 33  0  0  1  0  0  0  0  0999 V2000
   21.6941    2.6412  -13.9551 O   0  0  0  0  0  0  0  0  0  0  0  0
   21.2648    1.3361  -14.2127 C   0  0  0  0  0  0  0  0  0  0  0  0
   21.9678    0.2414  -13.7558 C   0  0  0  0  0  0  0  0  0  0  0  0
   21.5444   -1.0473  -14.0099 C   0  0  0  0  0  0  0  0  0  0  0  0
   20.3872   -1.2901  -14.7398 C   0  0  0  0  0  0  0  0  0  0  0  0
   19.9556   -2.6647  -14.9985 C   0  0  0  0  0  0  0  0  0  0  0  0
   20.8621   -3.3535  -16.0002 C   0  0  2  0  0  0  0  0  0  0  0  0
   20.6891   -2.6775  -17.2728 N   0  0  0  0  0  0  0  0  0  0  0  0
   20.5039   -4.7629  -16.1678 C   0  0  0  0  0  0  0  0  0  0  0  0
   19.7706   -5.1523  -17.1201 O   0  0  0  0  0  0  0  0  0  0  0  0
   19.7072   -0.1744  -15.1824 C   0  0  0  0  0  0  0  0  0  0  0  0
   20.1150    1.1186  -14.9382 C   0  0  0  0  0  0  0  0  0  0  0  0
   20.6656  -13.6059  -15.9328 O   0  0  0  0  0  0  0  0  0  0  0  0
   20.8926  -12.2533  -15.6619 C   0  0  0  0  0  0  0  0  0  0  0  0
   20.4429  -11.6982  -14.4832 C   0  0  0  0  0  0  0  0  0  0  0  0
   20.6429  -10.3714  -14.1728 C   0  0  0  0  0  0  0  0  0  0  0  0
   21.3153   -9.5378  -15.0529 C   0  0  0  0  0  0  0  0  0  0  0  0
   21.5778   -8.1193  -14.8157 C   0  0  0  0  0  0  0  0  0  0  0  0
   20.5955   -7.1868  -15.4621 C   0  0  2  0  0  0  0  0  0  0  0  0
   20.9491   -5.7984  -15.2792 N   0  0  0  0  0  0  0  0  0  0  0  0
   19.2543   -7.4963  -14.9015 C   0  0  0  0  0  0  0  0  0  0  0  0
   18.9627   -7.1779  -13.7225 O   0  0  0  0  0  0  0  0  0  0  0  0
   21.7630  -10.0983  -16.2303 C   0  0  0  0  0  0  0  0  0  0  0  0
   21.5621  -11.4373  -16.5455 C   0  0  0  0  0  0  0  0  0  0  0  0
   16.0400   -6.3261  -15.7184 C   0  0  0  0  0  0  0  0  0  0  0  0
   15.8848   -7.8220  -15.8886 C   0  0  1  0  0  0  0  0  0  0  0  0
   16.1082   -8.0993  -17.2380 O   0  0  0  0  0  0  0  0  0  0  0  0
   16.9607   -8.4995  -15.0709 C   0  0  2  0  0  0  0  0  0  0  0  0
   18.2491   -8.1578  -15.6581 N   0  0  0  0  0  0  0  0  0  0  0  0
   16.8136   -9.9581  -15.0602 C   0  0  0  0  0  0  0  0  0  0  0  0
   15.9247  -10.5153  -14.3694 O   0  0  0  0  0  0  0  0  0  0  0  0
   17.6686  -10.7291  -15.8236 O   0  0  0  0  0  0  0  0  0  0  0  0
  2 12  2  0
  2  1  1  0
  3  2  1  0
  4  5  1  0
  4  3  2  0
  5 11  2  0
  6  5  1  0
  7  9  1  0
  7  6  1  0
  7  8  1  6
  9 10  2  0
 11 12  1  0
 14 15  2  0
 14 13  1  0
 16 15  1  0
 17 16  2  0
 19 18  1  1
 18 17  1  0
 20 19  1  0
 20  9  1  0
 21 22  2  0
 21 19  1  0
 23 17  1  0
 23 24  2  0
 24 14  1  0
 26 25  1  6
 26 28  1  0
 27 26  1  0
 28 30  1  0
 28 29  1  6
 29 21  1  0
 30 32  1  0
 31 30  2  0
M  END
$$$$
