YYT.pdb
     RDKit          3D

 32 33  0  0  1  0  0  0  0  0999 V2000
   33.7206  -40.1026  -11.6383 O   0  0  0  0  0  0  0  0  0  0  0  0
   33.3187  -39.4705  -10.4580 C   0  0  0  0  0  0  0  0  0  0  0  0
   32.1453  -38.7496  -10.3885 C   0  0  0  0  0  0  0  0  0  0  0  0
   31.7481  -38.1255   -9.2236 C   0  0  0  0  0  0  0  0  0  0  0  0
   32.5208  -38.2011   -8.0711 C   0  0  0  0  0  0  0  0  0  0  0  0
   32.0817  -37.5316   -6.8458 C   0  0  0  0  0  0  0  0  0  0  0  0
   31.9761  -36.0311   -7.0386 C   0  0  2  0  0  0  0  0  0  0  0  0
   33.3200  -35.5305   -7.2617 N   0  0  0  0  0  0  0  0  0  0  0  0
   31.4244  -35.3749   -5.8521 C   0  0  0  0  0  0  0  0  0  0  0  0
   32.1666  -34.9661   -4.9148 O   0  0  0  0  0  0  0  0  0  0  0  0
   33.6880  -38.9294   -8.1736 C   0  0  0  0  0  0  0  0  0  0  0  0
   34.0999  -39.5587   -9.3277 C   0  0  0  0  0  0  0  0  0  0  0  0
   25.1936  -31.9764   -8.5292 O   0  0  0  0  0  0  0  0  0  0  0  0
   26.1680  -32.2522   -7.5654 C   0  0  0  0  0  0  0  0  0  0  0  0
   27.4703  -32.4937   -7.9468 C   0  0  0  0  0  0  0  0  0  0  0  0
   28.4640  -32.7696   -7.0339 C   0  0  0  0  0  0  0  0  0  0  0  0
   28.1794  -32.8139   -5.6778 C   0  0  0  0  0  0  0  0  0  0  0  0
   29.1616  -33.0971   -4.6327 C   0  0  0  0  0  0  0  0  0  0  0  0
   29.4847  -34.5523   -4.4585 C   0  0  2  0  0  0  0  0  0  0  0  0
   30.0204  -35.1470   -5.6608 N   0  0  0  0  0  0  0  0  0  0  0  0
   28.2420  -35.2323   -4.0092 C   0  0  0  0  0  0  0  0  0  0  0  0
   27.3939  -35.6353   -4.8428 O   0  0  0  0  0  0  0  0  0  0  0  0
   26.8752  -32.5716   -5.3021 C   0  0  0  0  0  0  0  0  0  0  0  0
   25.8709  -32.2929   -6.2220 C   0  0  0  0  0  0  0  0  0  0  0  0
   27.8073  -38.2001   -1.6403 C   0  0  0  0  0  0  0  0  0  0  0  0
   27.0293  -37.0302   -1.0771 C   0  0  1  0  0  0  0  0  0  0  0  0
   27.8771  -36.3762   -0.1821 O   0  0  0  0  0  0  0  0  0  0  0  0
   26.7099  -36.0895   -2.2165 C   0  0  2  0  0  0  0  0  0  0  0  0
   27.9536  -35.4580   -2.6358 N   0  0  0  0  0  0  0  0  0  0  0  0
   25.7549  -35.0483   -1.8252 C   0  0  0  0  0  0  0  0  0  0  0  0
   26.0892  -33.8377   -1.8006 O   0  0  0  0  0  0  0  0  0  0  0  0
   24.4671  -35.4083   -1.4784 O   0  0  0  0  0  0  0  0  0  0  0  0
  2 12  2  0
  2  1  1  0
  3  2  1  0
  4  5  1  0
  4  3  2  0
  5 11  2  0
  6  5  1  0
  7  9  1  0
  7  6  1  0
  7  8  1  1
  9 10  2  0
 11 12  1  0
 14 15  2  0
 14 13  1  0
 16 15  1  0
 17 16  2  0
 19 18  1  6
 18 17  1  0
 20 19  1  0
 20  9  1  0
 21 22  2  0
 21 19  1  0
 23 17  1  0
 23 24  2  0
 24 14  1  0
 26 25  1  6
 26 28  1  0
 27 26  1  0
 28 30  1  0
 28 29  1  1
 29 21  1  0
 30 32  1  0
 31 30  2  0
M  END
$$$$
