YYT.pdb
     RDKit          3D

 32 33  0  0  1  0  0  0  0  0999 V2000
   31.0902  -18.6114  -22.5534 O   0  0  0  0  0  0  0  0  0  0  0  0
   30.2279  -19.1147  -21.5751 C   0  0  0  0  0  0  0  0  0  0  0  0
   29.7954  -18.3349  -20.5235 C   0  0  0  0  0  0  0  0  0  0  0  0
   28.9441  -18.8313  -19.5574 C   0  0  0  0  0  0  0  0  0  0  0  0
   28.4890  -20.1432  -19.6095 C   0  0  0  0  0  0  0  0  0  0  0  0
   27.5866  -20.6504  -18.5746 C   0  0  0  0  0  0  0  0  0  0  0  0
   28.3510  -21.3206  -17.4494 C   0  0  2  0  0  0  0  0  0  0  0  0
   28.8128  -22.6033  -17.9473 N   0  0  0  0  0  0  0  0  0  0  0  0
   27.4965  -21.5525  -16.2837 C   0  0  0  0  0  0  0  0  0  0  0  0
   26.8194  -22.6118  -16.1577 O   0  0  0  0  0  0  0  0  0  0  0  0
   28.9398  -20.8968  -20.6735 C   0  0  0  0  0  0  0  0  0  0  0  0
   29.7893  -20.4179  -21.6465 C   0  0  0  0  0  0  0  0  0  0  0  0
   24.0969  -21.0982   -8.0783 O   0  0  0  0  0  0  0  0  0  0  0  0
   24.8263  -20.8627   -9.2475 C   0  0  0  0  0  0  0  0  0  0  0  0
   24.3592  -19.9687  -10.1868 C   0  0  0  0  0  0  0  0  0  0  0  0
   25.0426  -19.7043  -11.3529 C   0  0  0  0  0  0  0  0  0  0  0  0
   26.2439  -20.3413  -11.6229 C   0  0  0  0  0  0  0  0  0  0  0  0
   27.0429  -20.1291  -12.8287 C   0  0  0  0  0  0  0  0  0  0  0  0
   26.5605  -20.8787  -14.0361 C   0  0  2  0  0  0  0  0  0  0  0  0
   27.3611  -20.6117  -15.2083 N   0  0  0  0  0  0  0  0  0  0  0  0
   25.1344  -20.5158  -14.2437 C   0  0  0  0  0  0  0  0  0  0  0  0
   24.8119  -19.3517  -14.5863 O   0  0  0  0  0  0  0  0  0  0  0  0
   26.7064  -21.2345  -10.6800 C   0  0  0  0  0  0  0  0  0  0  0  0
   26.0181  -21.5027   -9.5023 C   0  0  0  0  0  0  0  0  0  0  0  0
   22.9122  -21.4462  -16.6620 C   0  0  0  0  0  0  0  0  0  0  0  0
   22.1417  -21.8540  -15.4247 C   0  0  1  0  0  0  0  0  0  0  0  0
   22.4053  -23.2082  -15.2142 O   0  0  0  0  0  0  0  0  0  0  0  0
   22.6866  -21.0674  -14.2544 C   0  0  2  0  0  0  0  0  0  0  0  0
   24.0791  -21.4518  -14.0681 N   0  0  0  0  0  0  0  0  0  0  0  0
   21.9490  -21.3331  -13.0157 C   0  0  0  0  0  0  0  0  0  0  0  0
   22.4895  -21.9362  -12.0555 O   0  0  0  0  0  0  0  0  0  0  0  0
   20.6380  -20.9117  -12.9063 O   0  0  0  0  0  0  0  0  0  0  0  0
  2 12  2  0
  2  1  1  0
  3  2  1  0
  4  5  1  0
  4  3  2  0
  5 11  2  0
  6  5  1  0
  7  9  1  0
  7  6  1  0
  7  8  1  6
  9 10  2  0
 11 12  1  0
 14 15  2  0
 14 13  1  0
 16 15  1  0
 17 16  2  0
 19 18  1  1
 18 17  1  0
 20 19  1  0
 20  9  1  0
 21 22  2  0
 21 19  1  0
 23 17  1  0
 23 24  2  0
 24 14  1  0
 26 25  1  6
 26 28  1  0
 27 26  1  0
 28 30  1  0
 28 29  1  1
 29 21  1  0
 30 32  1  0
 31 30  2  0
M  END
$$$$
