YYT.pdb
     RDKit          3D

 32 33  0  0  1  0  0  0  0  0999 V2000
   22.3220  -29.8206   -9.5655 O   0  0  0  0  0  0  0  0  0  0  0  0
   23.1741  -30.7275   -8.9288 C   0  0  0  0  0  0  0  0  0  0  0  0
   24.4541  -30.3756   -8.5556 C   0  0  0  0  0  0  0  0  0  0  0  0
   25.2958  -31.2706   -7.9270 C   0  0  0  0  0  0  0  0  0  0  0  0
   24.8816  -32.5668   -7.6455 C   0  0  0  0  0  0  0  0  0  0  0  0
   25.7901  -33.5007   -6.9783 C   0  0  0  0  0  0  0  0  0  0  0  0
   26.9297  -33.9151   -7.8890 C   0  0  2  0  0  0  0  0  0  0  0  0
   26.3676  -34.7668   -8.9210 N   0  0  0  0  0  0  0  0  0  0  0  0
   27.9491  -34.6734   -7.1619 C   0  0  0  0  0  0  0  0  0  0  0  0
   27.9681  -35.9367   -7.1706 O   0  0  0  0  0  0  0  0  0  0  0  0
   23.5965  -32.8872   -8.0314 C   0  0  0  0  0  0  0  0  0  0  0  0
   22.7429  -32.0071   -8.6595 C   0  0  0  0  0  0  0  0  0  0  0  0
   35.7110  -37.2249   -3.8735 O   0  0  0  0  0  0  0  0  0  0  0  0
   34.6423  -36.4652   -4.3583 C   0  0  0  0  0  0  0  0  0  0  0  0
   33.9143  -35.6682   -3.5012 C   0  0  0  0  0  0  0  0  0  0  0  0
   32.8538  -34.9026   -3.9326 C   0  0  0  0  0  0  0  0  0  0  0  0
   32.4789  -34.9103   -5.2672 C   0  0  0  0  0  0  0  0  0  0  0  0
   31.3711  -34.1345   -5.8223 C   0  0  0  0  0  0  0  0  0  0  0  0
   30.0341  -34.8117   -5.7424 C   0  0  2  0  0  0  0  0  0  0  0  0
   28.9913  -34.0539   -6.3938 N   0  0  0  0  0  0  0  0  0  0  0  0
   29.7377  -35.0409   -4.3042 C   0  0  0  0  0  0  0  0  0  0  0  0
   29.3655  -34.0950   -3.5672 O   0  0  0  0  0  0  0  0  0  0  0  0
   33.2105  -35.7093   -6.1200 C   0  0  0  0  0  0  0  0  0  0  0  0
   34.2812  -36.4828   -5.6865 C   0  0  0  0  0  0  0  0  0  0  0  0
   28.6225  -38.1488   -0.6987 C   0  0  0  0  0  0  0  0  0  0  0  0
   29.0254  -37.9475   -2.1436 C   0  0  1  0  0  0  0  0  0  0  0  0
   27.8679  -38.0958   -2.9090 O   0  0  0  0  0  0  0  0  0  0  0  0
   29.5275  -36.5297   -2.2955 C   0  0  2  0  0  0  0  0  0  0  0  0
   29.8580  -36.3212   -3.6986 N   0  0  0  0  0  0  0  0  0  0  0  0
   30.7197  -36.2732   -1.4817 C   0  0  0  0  0  0  0  0  0  0  0  0
   31.8461  -36.7094   -1.8259 O   0  0  0  0  0  0  0  0  0  0  0  0
   30.5982  -35.5391   -0.3178 O   0  0  0  0  0  0  0  0  0  0  0  0
  2 12  2  0
  2  1  1  0
  3  2  1  0
  4  5  1  0
  4  3  2  0
  5 11  2  0
  6  5  1  0
  7  9  1  0
  7  6  1  0
  7  8  1  6
  9 10  2  0
 11 12  1  0
 14 15  2  0
 14 13  1  0
 16 15  1  0
 17 16  2  0
 19 18  1  1
 18 17  1  0
 20 19  1  0
 20  9  1  0
 21 22  2  0
 21 19  1  0
 23 17  1  0
 23 24  2  0
 24 14  1  0
 26 25  1  1
 26 28  1  0
 27 26  1  0
 28 30  1  0
 28 29  1  6
 29 21  1  0
 30 32  1  0
 31 30  2  0
M  END
$$$$
