CGF.pdb
     RDKit          3D

 22 22  0  0  1  0  0  0  0  0999 V2000
    5.3635  -18.4951   23.1138 N   0  0  0  0  0  0  0  0  0  0  0  0
    5.8614  -18.7617   21.8017 C   0  0  1  0  0  0  0  0  0  0  0  0
    4.7820  -18.7593   20.7449 C   0  0  0  0  0  0  0  0  0  0  0  0
    5.3777  -19.4145   19.1695 S   0  0  0  0  0  0  0  0  0  0  0  0
    6.9084  -17.8048   21.3574 C   0  0  0  0  0  0  0  0  0  0  0  0
    7.7484  -18.1942   20.5255 O   0  0  0  0  0  0  0  0  0  0  0  0
    6.9635  -16.4864   21.8548 N   0  0  0  0  0  0  0  0  0  0  0  0
    8.1313  -15.6801   21.9322 C   0  0  0  0  0  0  0  0  0  0  0  0
    8.7632  -15.6143   23.2696 C   0  0  0  0  0  0  0  0  0  0  0  0
    9.9109  -15.0552   23.4156 O   0  0  0  0  0  0  0  0  0  0  0  0
    8.1618  -16.1440   24.4408 N   0  0  0  0  0  0  0  0  0  0  0  0
    8.8289  -16.0491   25.7436 C   0  0  1  0  0  0  0  0  0  0  0  0
    7.8281  -15.5572   26.7600 C   0  0  0  0  0  0  0  0  0  0  0  0
    7.4086  -14.1809   26.5310 C   0  0  0  0  0  0  0  0  0  0  0  0
    8.2792  -13.1562   26.8298 C   0  0  0  0  0  0  0  0  0  0  0  0
    7.8945  -11.8528   26.6070 C   0  0  0  0  0  0  0  0  0  0  0  0
    6.6522  -11.5433   26.0891 C   0  0  0  0  0  0  0  0  0  0  0  0
    5.7856  -12.5738   25.7923 C   0  0  0  0  0  0  0  0  0  0  0  0
    6.1674  -13.8793   26.0140 C   0  0  0  0  0  0  0  0  0  0  0  0
    9.4981  -17.3004   26.0984 C   0  0  0  0  0  0  0  0  0  0  0  0
   10.2563  -17.3804   27.2516 O   0  0  0  0  0  0  0  0  0  0  0  0
    9.4070  -18.3227   25.3784 O   0  0  0  0  0  0  0  0  0  0  0  0
  2  1  1  1
  2  3  1  0
  3  4  1  0
  5  2  1  0
  6  5  2  0
  7  5  1  0
  8  7  1  0
  8  9  1  0
  9 11  1  0
  9 10  2  0
 11 12  1  0
 12 13  1  1
 13 14  1  0
 14 19  2  0
 15 16  2  0
 15 14  1  0
 16 17  1  0
 17 18  2  0
 19 18  1  0
 20 12  1  0
 20 21  1  0
 22 20  2  0
M  END
$$$$
