CGF.pdb
     RDKit          3D

 22 22  0  0  1  0  0  0  0  0999 V2000
    7.7461  -19.5019   18.2634 N   0  0  0  0  0  0  0  0  0  0  0  0
    9.0384  -19.8962   18.7271 C   0  0  1  0  0  0  0  0  0  0  0  0
   10.1550  -19.0462   18.1679 C   0  0  0  0  0  0  0  0  0  0  0  0
   10.0508  -17.3342   18.7372 S   0  0  0  0  0  0  0  0  0  0  0  0
    9.1717  -19.8719   20.2073 C   0  0  0  0  0  0  0  0  0  0  0  0
   10.1838  -20.3872   20.7167 O   0  0  0  0  0  0  0  0  0  0  0  0
    8.1871  -19.2846   21.0283 N   0  0  0  0  0  0  0  0  0  0  0  0
    8.2560  -19.1606   22.4424 C   0  0  0  0  0  0  0  0  0  0  0  0
    8.4302  -17.7790   22.9454 C   0  0  0  0  0  0  0  0  0  0  0  0
    8.9371  -16.8739   22.1870 O   0  0  0  0  0  0  0  0  0  0  0  0
    8.0584  -17.3752   24.2541 N   0  0  0  0  0  0  0  0  0  0  0  0
    8.2251  -15.9859   24.6937 C   0  0  1  0  0  0  0  0  0  0  0  0
    7.0406  -15.6082   25.5488 C   0  0  0  0  0  0  0  0  0  0  0  0
    7.0211  -14.1965   25.9087 C   0  0  0  0  0  0  0  0  0  0  0  0
    7.8418  -13.7516   26.9215 C   0  0  0  0  0  0  0  0  0  0  0  0
    7.8370  -12.4170   27.2614 C   0  0  0  0  0  0  0  0  0  0  0  0
    7.0269  -11.5073   26.6106 C   0  0  0  0  0  0  0  0  0  0  0  0
    6.2079  -11.9595   25.5978 C   0  0  0  0  0  0  0  0  0  0  0  0
    6.2102  -13.2943   25.2551 C   0  0  0  0  0  0  0  0  0  0  0  0
    9.5281  -15.7728   25.3232 C   0  0  0  0  0  0  0  0  0  0  0  0
    9.9346  -16.5794   26.3698 O   0  0  0  0  0  0  0  0  0  0  0  0
   10.3039  -14.8658   24.9397 O   0  0  0  0  0  0  0  0  0  0  0  0
  2  1  1  1
  2  3  1  0
  3  4  1  0
  5  2  1  0
  6  5  2  0
  7  5  1  0
  8  7  1  0
  8  9  1  0
  9 11  1  0
  9 10  2  0
 11 12  1  0
 12 13  1  1
 13 14  1  0
 14 19  2  0
 15 16  2  0
 15 14  1  0
 16 17  1  0
 17 18  2  0
 19 18  1  0
 20 12  1  0
 20 21  1  0
 22 20  2  0
M  END
$$$$
