CGF.pdb
     RDKit          3D

 22 22  0  0  1  0  0  0  0  0999 V2000
    6.5555  -13.7757   19.3625 N   0  0  0  0  0  0  0  0  0  0  0  0
    7.8408  -14.3983   19.3345 C   0  0  1  0  0  0  0  0  0  0  0  0
    8.9804  -13.4138   19.4526 C   0  0  0  0  0  0  0  0  0  0  0  0
    8.3898  -11.7200   19.6721 S   0  0  0  0  0  0  0  0  0  0  0  0
    8.0317  -15.4158   20.4010 C   0  0  0  0  0  0  0  0  0  0  0  0
    9.0947  -16.0632   20.4148 O   0  0  0  0  0  0  0  0  0  0  0  0
    7.0449  -15.6547   21.3796 N   0  0  0  0  0  0  0  0  0  0  0  0
    7.1332  -16.6117   22.4265 C   0  0  0  0  0  0  0  0  0  0  0  0
    8.0419  -16.2474   23.5373 C   0  0  0  0  0  0  0  0  0  0  0  0
    9.2618  -15.9241   23.2951 O   0  0  0  0  0  0  0  0  0  0  0  0
    7.6386  -16.2288   24.8978 N   0  0  0  0  0  0  0  0  0  0  0  0
    8.5848  -15.8815   25.9633 C   0  0  1  0  0  0  0  0  0  0  0  0
    7.8252  -15.2037   27.0769 C   0  0  0  0  0  0  0  0  0  0  0  0
    7.2646  -13.9166   26.6872 C   0  0  0  0  0  0  0  0  0  0  0  0
    8.1065  -12.8371   26.5353 C   0  0  0  0  0  0  0  0  0  0  0  0
    7.5864  -11.6193   26.1574 C   0  0  0  0  0  0  0  0  0  0  0  0
    6.2356  -11.4499   25.9251 C   0  0  0  0  0  0  0  0  0  0  0  0
    5.3984  -12.5346   26.0789 C   0  0  0  0  0  0  0  0  0  0  0  0
    5.9157  -13.7548   26.4570 C   0  0  0  0  0  0  0  0  0  0  0  0
    9.3775  -17.0387   26.3780 C   0  0  0  0  0  0  0  0  0  0  0  0
   10.4665  -16.8720   27.2130 O   0  0  0  0  0  0  0  0  0  0  0  0
    9.0987  -18.1992   25.9942 O   0  0  0  0  0  0  0  0  0  0  0  0
  2  1  1  1
  2  3  1  0
  3  4  1  0
  5  2  1  0
  6  5  2  0
  7  5  1  0
  8  7  1  0
  8  9  1  0
  9 11  1  0
  9 10  2  0
 11 12  1  0
 12 13  1  1
 13 14  1  0
 14 19  2  0
 15 16  2  0
 15 14  1  0
 16 17  1  0
 17 18  2  0
 19 18  1  0
 20 12  1  0
 20 21  1  0
 22 20  2  0
M  END
$$$$
