CGF.pdb
     RDKit          3D

 22 22  0  0  1  0  0  0  0  0999 V2000
    8.1115  -12.9738   18.0907 N   0  0  0  0  0  0  0  0  0  0  0  0
    8.1164  -13.1149   19.5122 C   0  0  1  0  0  0  0  0  0  0  0  0
    6.8491  -13.7350   20.0519 C   0  0  0  0  0  0  0  0  0  0  0  0
    6.6553  -15.4502   19.5166 S   0  0  0  0  0  0  0  0  0  0  0  0
    9.2512  -13.9261   20.0252 C   0  0  0  0  0  0  0  0  0  0  0  0
   10.2213  -14.1262   19.2713 O   0  0  0  0  0  0  0  0  0  0  0  0
    9.2459  -14.4627   21.3292 N   0  0  0  0  0  0  0  0  0  0  0  0
   10.3213  -15.1634   21.9393 C   0  0  0  0  0  0  0  0  0  0  0  0
   10.0929  -15.5660   23.3457 C   0  0  0  0  0  0  0  0  0  0  0  0
   11.0524  -16.0659   24.0391 O   0  0  0  0  0  0  0  0  0  0  0  0
    8.8415  -15.4283   24.0006 N   0  0  0  0  0  0  0  0  0  0  0  0
    8.6767  -15.8115   25.4067 C   0  0  1  0  0  0  0  0  0  0  0  0
    7.3086  -15.3714   25.8664 C   0  0  0  0  0  0  0  0  0  0  0  0
    7.1906  -13.9265   26.0119 C   0  0  0  0  0  0  0  0  0  0  0  0
    5.9867  -13.3890   26.4105 C   0  0  0  0  0  0  0  0  0  0  0  0
    5.8692  -12.0251   26.5603 C   0  0  0  0  0  0  0  0  0  0  0  0
    6.9321  -11.1765   26.3202 C   0  0  0  0  0  0  0  0  0  0  0  0
    8.1343  -11.7212   25.9215 C   0  0  0  0  0  0  0  0  0  0  0  0
    8.2553  -13.0857   25.7707 C   0  0  0  0  0  0  0  0  0  0  0  0
    8.9666  -17.2297   25.6160 C   0  0  0  0  0  0  0  0  0  0  0  0
    9.3723  -17.6803   26.8584 O   0  0  0  0  0  0  0  0  0  0  0  0
    8.8588  -18.0674   24.6894 O   0  0  0  0  0  0  0  0  0  0  0  0
  2  1  1  6
  2  3  1  0
  3  4  1  0
  5  2  1  0
  6  5  2  0
  7  5  1  0
  8  7  1  0
  8  9  1  0
  9 11  1  0
  9 10  2  0
 11 12  1  0
 12 13  1  6
 13 14  1  0
 14 19  2  0
 15 16  2  0
 15 14  1  0
 16 17  1  0
 17 18  2  0
 19 18  1  0
 20 12  1  0
 20 21  1  0
 22 20  2  0
M  END
$$$$
