CGF.pdb
     RDKit          3D

 22 22  0  0  1  0  0  0  0  0999 V2000
    5.4916  -19.7722   23.2357 N   0  0  0  0  0  0  0  0  0  0  0  0
    6.0253  -19.1104   22.0879 C   0  0  1  0  0  0  0  0  0  0  0  0
    5.0641  -19.0732   20.9232 C   0  0  0  0  0  0  0  0  0  0  0  0
    5.8613  -18.4959   19.4075 S   0  0  0  0  0  0  0  0  0  0  0  0
    6.4451  -17.7091   22.3513 C   0  0  0  0  0  0  0  0  0  0  0  0
    5.7233  -17.0045   23.0807 O   0  0  0  0  0  0  0  0  0  0  0  0
    7.6270  -17.1754   21.7976 N   0  0  0  0  0  0  0  0  0  0  0  0
    8.1479  -15.8782   22.0543 C   0  0  0  0  0  0  0  0  0  0  0  0
    8.7874  -15.7075   23.3788 C   0  0  0  0  0  0  0  0  0  0  0  0
    9.9292  -15.1259   23.4753 O   0  0  0  0  0  0  0  0  0  0  0  0
    8.1998  -16.1571   24.5898 N   0  0  0  0  0  0  0  0  0  0  0  0
    8.8718  -15.9556   25.8778 C   0  0  1  0  0  0  0  0  0  0  0  0
    7.8461  -15.5047   26.8884 C   0  0  0  0  0  0  0  0  0  0  0  0
    7.2823  -14.1955   26.5871 C   0  0  0  0  0  0  0  0  0  0  0  0
    8.0194  -13.0669   26.8703 C   0  0  0  0  0  0  0  0  0  0  0  0
    7.4983  -11.8258   26.5795 C   0  0  0  0  0  0  0  0  0  0  0  0
    6.2493  -11.6811   26.0082 C   0  0  0  0  0  0  0  0  0  0  0  0
    5.5167  -12.8150   25.7274 C   0  0  0  0  0  0  0  0  0  0  0  0
    6.0353  -14.0585   26.0171 C   0  0  0  0  0  0  0  0  0  0  0  0
    9.6443  -17.1333   26.2723 C   0  0  0  0  0  0  0  0  0  0  0  0
    9.6045  -18.2807   25.5023 O   0  0  0  0  0  0  0  0  0  0  0  0
   10.3546  -17.1388   27.3054 O   0  0  0  0  0  0  0  0  0  0  0  0
  2  1  1  1
  2  3  1  0
  3  4  1  0
  5  2  1  0
  6  5  2  0
  7  5  1  0
  8  7  1  0
  8  9  1  0
  9 11  1  0
  9 10  2  0
 11 12  1  0
 12 13  1  1
 13 14  1  0
 14 19  2  0
 15 16  2  0
 15 14  1  0
 16 17  1  0
 17 18  2  0
 19 18  1  0
 20 12  1  0
 20 21  1  0
 22 20  2  0
M  END
$$$$
