CGF.pdb
     RDKit          3D

 22 22  0  0  1  0  0  0  0  0999 V2000
    6.7688  -18.6133   20.7913 N   0  0  0  0  0  0  0  0  0  0  0  0
    7.9296  -17.9441   20.2961 C   0  0  1  0  0  0  0  0  0  0  0  0
    8.0182  -17.9455   18.7881 C   0  0  0  0  0  0  0  0  0  0  0  0
    9.6422  -17.4069   18.2064 S   0  0  0  0  0  0  0  0  0  0  0  0
    8.0333  -16.5286   20.7374 C   0  0  0  0  0  0  0  0  0  0  0  0
    7.5857  -15.6425   19.9865 O   0  0  0  0  0  0  0  0  0  0  0  0
    8.6204  -16.1804   21.9714 N   0  0  0  0  0  0  0  0  0  0  0  0
    8.6992  -14.8668   22.5081 C   0  0  0  0  0  0  0  0  0  0  0  0
    9.4392  -14.7521   23.7854 C   0  0  0  0  0  0  0  0  0  0  0  0
    9.8215  -13.6011   24.2100 O   0  0  0  0  0  0  0  0  0  0  0  0
    9.7620  -15.8684   24.6001 N   0  0  0  0  0  0  0  0  0  0  0  0
    9.2524  -15.9777   25.9710 C   0  0  1  0  0  0  0  0  0  0  0  0
    7.7597  -15.7589   25.9465 C   0  0  0  0  0  0  0  0  0  0  0  0
    7.3833  -14.3598   26.0996 C   0  0  0  0  0  0  0  0  0  0  0  0
    6.5800  -13.7736   25.1465 C   0  0  0  0  0  0  0  0  0  0  0  0
    6.2112  -12.4544   25.2885 C   0  0  0  0  0  0  0  0  0  0  0  0
    6.6273  -11.6987   26.3670 C   0  0  0  0  0  0  0  0  0  0  0  0
    7.4312  -12.2917   27.3174 C   0  0  0  0  0  0  0  0  0  0  0  0
    7.8021  -13.6117   27.1783 C   0  0  0  0  0  0  0  0  0  0  0  0
    9.6787  -17.2242   26.6064 C   0  0  0  0  0  0  0  0  0  0  0  0
    9.9791  -17.2495   27.9556 O   0  0  0  0  0  0  0  0  0  0  0  0
    9.7842  -18.2915   25.9570 O   0  0  0  0  0  0  0  0  0  0  0  0
  2  1  1  6
  2  3  1  0
  3  4  1  0
  5  2  1  0
  6  5  2  0
  7  5  1  0
  8  7  1  0
  8  9  1  0
  9 11  1  0
  9 10  2  0
 11 12  1  0
 12 13  1  6
 13 14  1  0
 14 19  2  0
 15 16  2  0
 15 14  1  0
 16 17  1  0
 17 18  2  0
 19 18  1  0
 20 12  1  0
 20 21  1  0
 22 20  2  0
M  END
$$$$
