CGF.pdb
     RDKit          3D

 22 22  0  0  1  0  0  0  0  0999 V2000
    9.5972  -13.1474   19.3371 N   0  0  0  0  0  0  0  0  0  0  0  0
    8.2197  -13.0273   19.6954 C   0  0  1  0  0  0  0  0  0  0  0  0
    7.2865  -13.1366   18.5126 C   0  0  0  0  0  0  0  0  0  0  0  0
    7.9147  -14.2774   17.2596 S   0  0  0  0  0  0  0  0  0  0  0  0
    7.7756  -14.0334   20.6952 C   0  0  0  0  0  0  0  0  0  0  0  0
    6.6061  -13.9697   21.1165 O   0  0  0  0  0  0  0  0  0  0  0  0
    8.6432  -15.0408   21.1653 N   0  0  0  0  0  0  0  0  0  0  0  0
    8.3070  -16.0460   22.1120 C   0  0  0  0  0  0  0  0  0  0  0  0
    8.8711  -15.8489   23.4666 C   0  0  0  0  0  0  0  0  0  0  0  0
   10.0341  -15.3219   23.6123 O   0  0  0  0  0  0  0  0  0  0  0  0
    8.1864  -16.2138   24.6549 N   0  0  0  0  0  0  0  0  0  0  0  0
    8.8127  -16.0483   25.9707 C   0  0  1  0  0  0  0  0  0  0  0  0
    7.7761  -15.5214   26.9322 C   0  0  0  0  0  0  0  0  0  0  0  0
    7.3409  -14.1665   26.6194 C   0  0  0  0  0  0  0  0  0  0  0  0
    8.1841  -13.1120   26.8920 C   0  0  0  0  0  0  0  0  0  0  0  0
    7.7849  -11.8290   26.5902 C   0  0  0  0  0  0  0  0  0  0  0  0
    6.5549  -11.5694   26.0183 C   0  0  0  0  0  0  0  0  0  0  0  0
    5.7158  -12.6296   25.7480 C   0  0  0  0  0  0  0  0  0  0  0  0
    6.1122  -13.9148   26.0488 C   0  0  0  0  0  0  0  0  0  0  0  0
    9.4851  -17.2725   26.4050 C   0  0  0  0  0  0  0  0  0  0  0  0
    9.4055  -18.4192   25.6370 O   0  0  0  0  0  0  0  0  0  0  0  0
   10.1434  -17.3193   27.4710 O   0  0  0  0  0  0  0  0  0  0  0  0
  2  1  1  6
  2  3  1  0
  3  4  1  0
  5  2  1  0
  6  5  2  0
  7  5  1  0
  8  7  1  0
  8  9  1  0
  9 11  1  0
  9 10  2  0
 11 12  1  0
 12 13  1  1
 13 14  1  0
 14 19  2  0
 15 16  2  0
 15 14  1  0
 16 17  1  0
 17 18  2  0
 19 18  1  0
 20 12  1  0
 20 21  1  0
 22 20  2  0
M  END
$$$$
