CGF.pdb
     RDKit          3D

 22 22  0  0  1  0  0  0  0  0999 V2000
    8.8434  -15.2005   18.3981 N   0  0  0  0  0  0  0  0  0  0  0  0
    8.5358  -14.0422   19.1753 C   0  0  1  0  0  0  0  0  0  0  0  0
    7.5068  -13.1471   18.5258 C   0  0  0  0  0  0  0  0  0  0  0  0
    7.9117  -12.7937   16.8003 S   0  0  0  0  0  0  0  0  0  0  0  0
    8.0399  -14.3570   20.5406 C   0  0  0  0  0  0  0  0  0  0  0  0
    7.8582  -13.4150   21.3337 O   0  0  0  0  0  0  0  0  0  0  0  0
    7.7768  -15.6824   20.9439 N   0  0  0  0  0  0  0  0  0  0  0  0
    7.3111  -16.0794   22.2266 C   0  0  0  0  0  0  0  0  0  0  0  0
    8.2538  -15.8351   23.3418 C   0  0  0  0  0  0  0  0  0  0  0  0
    9.4440  -15.4140   23.1019 O   0  0  0  0  0  0  0  0  0  0  0  0
    7.9158  -16.0399   24.7048 N   0  0  0  0  0  0  0  0  0  0  0  0
    8.8941  -15.8018   25.7714 C   0  0  1  0  0  0  0  0  0  0  0  0
    8.1719  -15.2261   26.9646 C   0  0  0  0  0  0  0  0  0  0  0  0
    7.5725  -13.9251   26.6982 C   0  0  0  0  0  0  0  0  0  0  0  0
    6.2192  -13.8480   26.4537 C   0  0  0  0  0  0  0  0  0  0  0  0
    5.6427  -12.6211   26.2110 C   0  0  0  0  0  0  0  0  0  0  0  0
    6.3890  -11.4591   26.2060 C   0  0  0  0  0  0  0  0  0  0  0  0
    7.7431  -11.5434   26.4515 C   0  0  0  0  0  0  0  0  0  0  0  0
    8.3232  -12.7696   26.6948 C   0  0  0  0  0  0  0  0  0  0  0  0
    9.6856  -16.9991   26.0533 C   0  0  0  0  0  0  0  0  0  0  0  0
    9.3843  -18.1947   25.4281 O   0  0  0  0  0  0  0  0  0  0  0  0
   10.6461  -16.9786   26.8588 O   0  0  0  0  0  0  0  0  0  0  0  0
  2  1  1  6
  2  3  1  0
  3  4  1  0
  5  2  1  0
  6  5  2  0
  7  5  1  0
  8  7  1  0
  8  9  1  0
  9 11  1  0
  9 10  2  0
 11 12  1  0
 12 13  1  1
 13 14  1  0
 14 19  2  0
 15 16  2  0
 15 14  1  0
 16 17  1  0
 17 18  2  0
 19 18  1  0
 20 12  1  0
 20 21  1  0
 22 20  2  0
M  END
$$$$
