CGF.pdb
     RDKit          3D

 22 22  0  0  1  0  0  0  0  0999 V2000
    9.9391  -13.5201   19.2084 N   0  0  0  0  0  0  0  0  0  0  0  0
    8.7495  -13.0242   19.8243 C   0  0  1  0  0  0  0  0  0  0  0  0
    7.6309  -12.7745   18.8402 C   0  0  0  0  0  0  0  0  0  0  0  0
    7.1166  -14.2914   18.0031 S   0  0  0  0  0  0  0  0  0  0  0  0
    8.2091  -13.9197   20.8803 C   0  0  0  0  0  0  0  0  0  0  0  0
    7.2136  -13.5393   21.5234 O   0  0  0  0  0  0  0  0  0  0  0  0
    8.7963  -15.1709   21.1597 N   0  0  0  0  0  0  0  0  0  0  0  0
    8.3568  -16.0872   22.1532 C   0  0  0  0  0  0  0  0  0  0  0  0
    8.9302  -15.8762   23.5018 C   0  0  0  0  0  0  0  0  0  0  0  0
   10.1369  -15.4542   23.6325 O   0  0  0  0  0  0  0  0  0  0  0  0
    8.2082  -16.1152   24.7000 N   0  0  0  0  0  0  0  0  0  0  0  0
    8.8634  -16.0266   26.0092 C   0  0  1  0  0  0  0  0  0  0  0  0
    7.8578  -15.5239   27.0155 C   0  0  0  0  0  0  0  0  0  0  0  0
    7.4331  -14.1529   26.7650 C   0  0  0  0  0  0  0  0  0  0  0  0
    8.3306  -13.1267   26.9615 C   0  0  0  0  0  0  0  0  0  0  0  0
    7.9406  -11.8287   26.7175 C   0  0  0  0  0  0  0  0  0  0  0  0
    6.6666  -11.5261   26.2785 C   0  0  0  0  0  0  0  0  0  0  0  0
    5.7732  -12.5582   26.0839 C   0  0  0  0  0  0  0  0  0  0  0  0
    6.1602  -13.8583   26.3272 C   0  0  0  0  0  0  0  0  0  0  0  0
    9.5162  -17.2845   26.3710 C   0  0  0  0  0  0  0  0  0  0  0  0
   10.3708  -17.3370   27.4564 O   0  0  0  0  0  0  0  0  0  0  0  0
    9.3247  -18.3372   25.7177 O   0  0  0  0  0  0  0  0  0  0  0  0
  2  1  1  6
  2  3  1  0
  3  4  1  0
  5  2  1  0
  6  5  2  0
  7  5  1  0
  8  7  1  0
  8  9  1  0
  9 11  1  0
  9 10  2  0
 11 12  1  0
 12 13  1  1
 13 14  1  0
 14 19  2  0
 15 16  2  0
 15 14  1  0
 16 17  1  0
 17 18  2  0
 19 18  1  0
 20 12  1  0
 20 21  1  0
 22 20  2  0
M  END
$$$$
