CGF.pdb
     RDKit          3D

 22 22  0  0  1  0  0  0  0  0999 V2000
    3.6910  -20.7158   23.0009 N   0  0  0  0  0  0  0  0  0  0  0  0
    3.5129  -20.0653   21.7417 C   0  0  1  0  0  0  0  0  0  0  0  0
    2.1040  -19.5655   21.5253 C   0  0  0  0  0  0  0  0  0  0  0  0
    1.3855  -18.8930   23.0411 S   0  0  0  0  0  0  0  0  0  0  0  0
    4.4223  -18.9076   21.5369 C   0  0  0  0  0  0  0  0  0  0  0  0
    4.2450  -18.1882   20.5366 O   0  0  0  0  0  0  0  0  0  0  0  0
    5.4639  -18.6170   22.4419 N   0  0  0  0  0  0  0  0  0  0  0  0
    6.6234  -17.8491   22.1491 C   0  0  0  0  0  0  0  0  0  0  0  0
    7.5049  -17.5740   23.3065 C   0  0  0  0  0  0  0  0  0  0  0  0
    7.4810  -18.3442   24.3349 O   0  0  0  0  0  0  0  0  0  0  0  0
    8.4072  -16.4796   23.3540 N   0  0  0  0  0  0  0  0  0  0  0  0
    8.4006  -15.5416   24.4815 C   0  0  1  0  0  0  0  0  0  0  0  0
    7.3283  -14.5081   24.2391 C   0  0  0  0  0  0  0  0  0  0  0  0
    7.1976  -13.5516   25.3303 C   0  0  0  0  0  0  0  0  0  0  0  0
    5.9597  -13.3488   25.8992 C   0  0  0  0  0  0  0  0  0  0  0  0
    5.8290  -12.4539   26.9378 C   0  0  0  0  0  0  0  0  0  0  0  0
    6.9118  -11.7502   27.4274 C   0  0  0  0  0  0  0  0  0  0  0  0
    8.1481  -11.9581   26.8534 C   0  0  0  0  0  0  0  0  0  0  0  0
    8.2823  -12.8529   25.8139 C   0  0  0  0  0  0  0  0  0  0  0  0
    8.3002  -16.2400   25.7627 C   0  0  0  0  0  0  0  0  0  0  0  0
    9.3910  -16.2985   26.6098 O   0  0  0  0  0  0  0  0  0  0  0  0
    7.2385  -16.7992   26.1260 O   0  0  0  0  0  0  0  0  0  0  0  0
  2  1  1  1
  2  3  1  0
  3  4  1  0
  5  2  1  0
  6  5  2  0
  7  5  1  0
  8  7  1  0
  8  9  1  0
  9 11  1  0
  9 10  2  0
 11 12  1  0
 12 13  1  6
 13 14  1  0
 14 19  2  0
 15 16  2  0
 15 14  1  0
 16 17  1  0
 17 18  2  0
 19 18  1  0
 20 12  1  0
 20 21  1  0
 22 20  2  0
M  END
$$$$
