CGF.pdb
     RDKit          3D

 22 22  0  0  1  0  0  0  0  0999 V2000
    7.6390  -19.6393   21.6740 N   0  0  0  0  0  0  0  0  0  0  0  0
    6.7713  -18.5290   21.4400 C   0  0  1  0  0  0  0  0  0  0  0  0
    5.5009  -18.5857   22.2554 C   0  0  0  0  0  0  0  0  0  0  0  0
    5.1204  -20.2673   22.7971 S   0  0  0  0  0  0  0  0  0  0  0  0
    7.4048  -17.2121   21.7113 C   0  0  0  0  0  0  0  0  0  0  0  0
    6.8114  -16.1840   21.3367 O   0  0  0  0  0  0  0  0  0  0  0  0
    8.6451  -17.1114   22.3745 N   0  0  0  0  0  0  0  0  0  0  0  0
    9.3248  -15.9006   22.6777 C   0  0  0  0  0  0  0  0  0  0  0  0
    9.5747  -15.6626   24.1175 C   0  0  0  0  0  0  0  0  0  0  0  0
   10.5530  -14.9169   24.4893 O   0  0  0  0  0  0  0  0  0  0  0  0
    8.7752  -16.2212   25.1484 N   0  0  0  0  0  0  0  0  0  0  0  0
    9.1537  -16.0836   26.5587 C   0  0  1  0  0  0  0  0  0  0  0  0
    7.9611  -15.5699   27.3272 C   0  0  0  0  0  0  0  0  0  0  0  0
    7.5277  -14.2477   26.8953 C   0  0  0  0  0  0  0  0  0  0  0  0
    8.2480  -13.1431   27.2930 C   0  0  0  0  0  0  0  0  0  0  0  0
    7.8512  -11.8903   26.8810 C   0  0  0  0  0  0  0  0  0  0  0  0
    6.7441  -11.7104   26.0752 C   0  0  0  0  0  0  0  0  0  0  0  0
    6.0276  -12.8204   25.6808 C   0  0  0  0  0  0  0  0  0  0  0  0
    6.4219  -14.0755   26.0913 C   0  0  0  0  0  0  0  0  0  0  0  0
    9.7350  -17.3189   27.0834 C   0  0  0  0  0  0  0  0  0  0  0  0
    9.8380  -18.4364   26.2760 O   0  0  0  0  0  0  0  0  0  0  0  0
   10.1505  -17.4016   28.2633 O   0  0  0  0  0  0  0  0  0  0  0  0
  2  1  1  1
  2  3  1  0
  3  4  1  0
  5  2  1  0
  6  5  2  0
  7  5  1  0
  8  7  1  0
  8  9  1  0
  9 11  1  0
  9 10  2  0
 11 12  1  0
 12 13  1  1
 13 14  1  0
 14 19  2  0
 15 16  2  0
 15 14  1  0
 16 17  1  0
 17 18  2  0
 19 18  1  0
 20 12  1  0
 20 21  1  0
 22 20  2  0
M  END
$$$$
