CGF.pdb
     RDKit          3D

 22 22  0  0  1  0  0  0  0  0999 V2000
    5.8597  -18.3338   22.5799 N   0  0  0  0  0  0  0  0  0  0  0  0
    6.2630  -18.3405   21.2096 C   0  0  1  0  0  0  0  0  0  0  0  0
    5.1926  -18.8580   20.2778 C   0  0  0  0  0  0  0  0  0  0  0  0
    4.9918  -20.6493   20.4082 S   0  0  0  0  0  0  0  0  0  0  0  0
    6.6721  -17.0040   20.7038 C   0  0  0  0  0  0  0  0  0  0  0  0
    7.2225  -16.9385   19.5893 O   0  0  0  0  0  0  0  0  0  0  0  0
    6.4502  -15.8306   21.4536 N   0  0  0  0  0  0  0  0  0  0  0  0
    7.3585  -14.7446   21.5778 C   0  0  0  0  0  0  0  0  0  0  0  0
    8.2640  -14.8120   22.7474 C   0  0  0  0  0  0  0  0  0  0  0  0
    9.4405  -14.2992   22.6845 O   0  0  0  0  0  0  0  0  0  0  0  0
    7.9035  -15.4246   23.9757 N   0  0  0  0  0  0  0  0  0  0  0  0
    8.8379  -15.4627   25.1055 C   0  0  1  0  0  0  0  0  0  0  0  0
    8.0656  -15.2031   26.3755 C   0  0  0  0  0  0  0  0  0  0  0  0
    7.4703  -13.8741   26.4222 C   0  0  0  0  0  0  0  0  0  0  0  0
    8.2750  -12.7882   26.6875 C   0  0  0  0  0  0  0  0  0  0  0  0
    7.7224  -11.5273   26.7236 C   0  0  0  0  0  0  0  0  0  0  0  0
    6.3753  -11.3209   26.4998 C   0  0  0  0  0  0  0  0  0  0  0  0
    5.5755  -12.4123   26.2348 C   0  0  0  0  0  0  0  0  0  0  0  0
    6.1253  -13.6754   26.1979 C   0  0  0  0  0  0  0  0  0  0  0  0
    9.6281  -16.6936   25.1097 C   0  0  0  0  0  0  0  0  0  0  0  0
   10.5968  -16.8945   26.0753 O   0  0  0  0  0  0  0  0  0  0  0  0
    9.4547  -17.5900   24.2505 O   0  0  0  0  0  0  0  0  0  0  0  0
  2  1  1  1
  2  3  1  0
  3  4  1  0
  5  2  1  0
  6  5  2  0
  7  5  1  0
  8  7  1  0
  8  9  1  0
  9 11  1  0
  9 10  2  0
 11 12  1  0
 12 13  1  1
 13 14  1  0
 14 19  2  0
 15 16  2  0
 15 14  1  0
 16 17  1  0
 17 18  2  0
 19 18  1  0
 20 12  1  0
 20 21  1  0
 22 20  2  0
M  END
$$$$
