IMY.pdb
     RDKit          3D

 29 29  0  0  1  0  0  0  0  0999 V2000
    7.0628  -12.2417   18.5085 C   0  0  0  0  0  0  0  0  0  0  0  0
    7.3402  -13.3760   19.4318 C   0  0  0  0  0  0  0  0  0  0  0  0
    8.1779  -14.4780   18.8872 C   0  0  2  0  0  0  0  0  0  0  0  0
    7.6786  -14.9423   17.5278 C   0  0  0  0  0  0  0  0  0  0  0  0
    8.4322  -15.6244   19.8023 C   0  0  2  0  0  0  0  0  0  0  0  0
    7.2926  -16.4877   19.8541 N   0  0  0  0  0  0  0  0  0  0  0  0
    8.8948  -15.2103   21.1570 C   0  0  0  0  0  0  0  0  0  0  0  0
   10.0379  -14.6773   21.2598 O   0  0  0  0  0  0  0  0  0  0  0  0
    6.1741  -13.0192   27.1413 C   0  0  0  0  0  0  0  0  0  0  0  0
    6.6875  -12.4906   25.4871 S   0  0  0  0  0  0  0  0  0  0  0  0
    6.3998  -13.8301   24.3267 C   0  0  0  0  0  0  0  0  0  0  0  0
    7.2800  -15.0191   24.5358 C   0  0  0  0  0  0  0  0  0  0  0  0
    8.4954  -15.0232   23.6348 C   0  0  2  0  0  0  0  0  0  0  0  0
    8.0904  -15.4031   22.2951 N   0  0  0  0  0  0  0  0  0  0  0  0
    9.4195  -16.0740   24.1474 C   0  0  0  0  0  0  0  0  0  0  0  0
    9.0639  -17.2636   24.1700 O   0  0  0  0  0  0  0  0  0  0  0  0
   11.8102  -16.7108   32.3189 O   0  0  0  0  0  0  0  0  0  0  0  0
   11.4616  -16.3508   31.0249 C   0  0  0  0  0  0  0  0  0  0  0  0
   11.7038  -15.1051   30.4871 C   0  0  0  0  0  0  0  0  0  0  0  0
   11.3595  -14.7455   29.2050 C   0  0  0  0  0  0  0  0  0  0  0  0
   10.7225  -15.6714   28.3621 C   0  0  0  0  0  0  0  0  0  0  0  0
   10.3235  -15.3030   26.9921 C   0  0  0  0  0  0  0  0  0  0  0  0
   11.1633  -15.9972   25.9758 C   0  0  2  0  0  0  0  0  0  0  0  0
   10.7199  -15.7258   24.6167 N   0  0  0  0  0  0  0  0  0  0  0  0
   11.3056  -17.4658   26.1962 C   0  0  0  0  0  0  0  0  0  0  0  0
   10.2640  -18.3684   26.1417 O   0  0  0  0  0  0  0  0  0  0  0  0
   10.4855  -16.9130   28.9098 C   0  0  0  0  0  0  0  0  0  0  0  0
   10.8310  -17.2713   30.1932 C   0  0  0  0  0  0  0  0  0  0  0  0
   12.4587  -17.9306   26.4537 O   0  0  0  0  0  0  0  0  0  0  0  0
  2  1  1  0
  3  2  1  0
  3  4  1  6
  5  3  1  0
  5  6  1  1
  7  5  1  0
  7  8  2  0
  9 10  1  0
 10 11  1  0
 11 12  1  0
 13 12  1  1
 13 14  1  0
 14  7  1  0
 15 13  1  0
 16 15  2  0
 18 28  2  0
 18 17  1  0
 19 18  1  0
 20 21  1  0
 20 19  2  0
 21 27  2  0
 22 21  1  0
 23 22  1  1
 23 24  1  0
 24 15  1  0
 25 26  1  0
 25 23  1  0
 27 28  1  0
 29 25  2  0
M  END
$$$$
