IMY.pdb
     RDKit          3D

 29 29  0  0  1  0  0  0  0  0999 V2000
    6.5653  -12.5742   16.8611 C   0  0  0  0  0  0  0  0  0  0  0  0
    7.0007  -13.8231   17.5443 C   0  0  0  0  0  0  0  0  0  0  0  0
    7.6519  -13.6547   18.8710 C   0  0  2  0  0  0  0  0  0  0  0  0
    8.8155  -12.6778   18.8043 C   0  0  0  0  0  0  0  0  0  0  0  0
    8.0237  -14.9072   19.5848 C   0  0  2  0  0  0  0  0  0  0  0  0
    6.8889  -15.7694   19.7098 N   0  0  0  0  0  0  0  0  0  0  0  0
    8.7025  -14.6669   20.8894 C   0  0  0  0  0  0  0  0  0  0  0  0
    9.9162  -14.3088   20.8731 O   0  0  0  0  0  0  0  0  0  0  0  0
    6.5049  -12.0435   26.8510 C   0  0  0  0  0  0  0  0  0  0  0  0
    5.5740  -12.9772   25.6096 S   0  0  0  0  0  0  0  0  0  0  0  0
    6.6538  -13.3522   24.2251 C   0  0  0  0  0  0  0  0  0  0  0  0
    7.5648  -14.5133   24.4578 C   0  0  0  0  0  0  0  0  0  0  0  0
    8.6441  -14.6407   23.4053 C   0  0  2  0  0  0  0  0  0  0  0  0
    8.0216  -14.8317   22.1095 N   0  0  0  0  0  0  0  0  0  0  0  0
    9.4246  -15.8701   23.7221 C   0  0  0  0  0  0  0  0  0  0  0  0
   10.4753  -16.1201   23.1092 O   0  0  0  0  0  0  0  0  0  0  0  0
   12.7248  -16.3094   31.5983 O   0  0  0  0  0  0  0  0  0  0  0  0
   12.0780  -16.1648   30.3792 C   0  0  0  0  0  0  0  0  0  0  0  0
   12.0636  -17.1367   29.4021 C   0  0  0  0  0  0  0  0  0  0  0  0
   11.4234  -16.9963   28.1929 C   0  0  0  0  0  0  0  0  0  0  0  0
   10.7328  -15.8093   27.8967 C   0  0  0  0  0  0  0  0  0  0  0  0
   10.0583  -15.6260   26.5994 C   0  0  0  0  0  0  0  0  0  0  0  0
    9.6611  -16.9327   26.0035 C   0  0  2  0  0  0  0  0  0  0  0  0
    8.9744  -16.7715   24.7308 N   0  0  0  0  0  0  0  0  0  0  0  0
    8.8716  -17.8094   26.9166 C   0  0  0  0  0  0  0  0  0  0  0  0
    9.3603  -18.9483   27.5220 O   0  0  0  0  0  0  0  0  0  0  0  0
   10.7537  -14.8450   28.8801 C   0  0  0  0  0  0  0  0  0  0  0  0
   11.3949  -14.9873   30.0900 C   0  0  0  0  0  0  0  0  0  0  0  0
    7.6650  -17.4987   27.1610 O   0  0  0  0  0  0  0  0  0  0  0  0
  2  1  1  0
  3  2  1  0
  3  4  1  6
  5  3  1  0
  5  6  1  1
  7  5  1  0
  7  8  2  0
  9 10  1  0
 10 11  1  0
 11 12  1  0
 13 12  1  1
 13 14  1  0
 14  7  1  0
 15 13  1  0
 16 15  2  0
 18 28  2  0
 18 17  1  0
 19 18  1  0
 20 21  1  0
 20 19  2  0
 21 27  2  0
 22 21  1  0
 23 22  1  1
 23 24  1  0
 24 15  1  0
 25 26  1  0
 25 23  1  0
 27 28  1  0
 29 25  2  0
M  END
$$$$
