IMY.pdb
     RDKit          3D

 29 29  0  0  1  0  0  0  0  0999 V2000
    5.8573  -11.3168   27.0137 C   0  0  0  0  0  0  0  0  0  0  0  0
    5.5760  -12.6885   26.5084 C   0  0  0  0  0  0  0  0  0  0  0  0
    6.6744  -13.3500   25.7543 C   0  0  2  0  0  0  0  0  0  0  0  0
    7.2243  -12.4490   24.6594 C   0  0  0  0  0  0  0  0  0  0  0  0
    6.3922  -14.7219   25.2496 C   0  0  2  0  0  0  0  0  0  0  0  0
    5.9292  -15.5618   26.3111 N   0  0  0  0  0  0  0  0  0  0  0  0
    7.5319  -15.3247   24.5024 C   0  0  0  0  0  0  0  0  0  0  0  0
    8.2442  -16.1866   25.0949 O   0  0  0  0  0  0  0  0  0  0  0  0
    8.6849  -12.5526   18.8522 C   0  0  0  0  0  0  0  0  0  0  0  0
    7.6822  -14.0546   18.7177 S   0  0  0  0  0  0  0  0  0  0  0  0
    7.6462  -14.8814   20.3111 C   0  0  0  0  0  0  0  0  0  0  0  0
    8.9465  -14.8482   21.0461 C   0  0  0  0  0  0  0  0  0  0  0  0
    8.8853  -15.5380   22.3913 C   0  0  2  0  0  0  0  0  0  0  0  0
    7.8157  -14.9517   23.1758 N   0  0  0  0  0  0  0  0  0  0  0  0
   10.1711  -15.2553   23.0896 C   0  0  0  0  0  0  0  0  0  0  0  0
   10.3119  -14.2087   23.7429 O   0  0  0  0  0  0  0  0  0  0  0  0
   10.1091  -14.2535   29.8116 O   0  0  0  0  0  0  0  0  0  0  0  0
   10.3024  -15.0346   28.6810 C   0  0  0  0  0  0  0  0  0  0  0  0
   10.4778  -16.4012   28.7176 C   0  0  0  0  0  0  0  0  0  0  0  0
   10.6695  -17.1779   27.5988 C   0  0  0  0  0  0  0  0  0  0  0  0
   10.6949  -16.5835   26.3262 C   0  0  0  0  0  0  0  0  0  0  0  0
   10.9212  -17.3911   25.1144 C   0  0  0  0  0  0  0  0  0  0  0  0
   11.8954  -16.7349   24.1976 C   0  0  2  0  0  0  0  0  0  0  0  0
   11.2522  -16.1818   23.0153 N   0  0  0  0  0  0  0  0  0  0  0  0
   13.0504  -17.5959   23.8103 C   0  0  0  0  0  0  0  0  0  0  0  0
   14.2603  -17.6238   24.4719 O   0  0  0  0  0  0  0  0  0  0  0  0
   10.5186  -15.2175   26.3014 C   0  0  0  0  0  0  0  0  0  0  0  0
   10.3266  -14.4416   27.4223 C   0  0  0  0  0  0  0  0  0  0  0  0
   12.9257  -18.3596   22.8037 O   0  0  0  0  0  0  0  0  0  0  0  0
  2  1  1  0
  3  2  1  0
  3  4  1  6
  5  3  1  0
  5  6  1  1
  7  5  1  0
  7  8  2  0
  9 10  1  0
 10 11  1  0
 11 12  1  0
 13 12  1  6
 13 14  1  0
 14  7  1  0
 15 13  1  0
 16 15  2  0
 18 28  2  0
 18 17  1  0
 19 18  1  0
 20 21  1  0
 20 19  2  0
 21 27  2  0
 22 21  1  0
 23 22  1  6
 23 24  1  0
 24 15  1  0
 25 26  1  0
 25 23  1  0
 27 28  1  0
 29 25  2  0
M  END
$$$$
