IMY.pdb
     RDKit          3D

 29 29  0  0  1  0  0  0  0  0999 V2000
   11.3863  -19.4002   21.1731 C   0  0  0  0  0  0  0  0  0  0  0  0
   11.0467  -17.9508   21.1678 C   0  0  0  0  0  0  0  0  0  0  0  0
    9.6072  -17.6129   21.0062 C   0  0  2  0  0  0  0  0  0  0  0  0
    9.0102  -18.2775   19.7754 C   0  0  0  0  0  0  0  0  0  0  0  0
    9.2594  -16.1670   21.0754 C   0  0  2  0  0  0  0  0  0  0  0  0
    9.8717  -15.4513   19.9985 N   0  0  0  0  0  0  0  0  0  0  0  0
    9.5441  -15.5517   22.4025 C   0  0  0  0  0  0  0  0  0  0  0  0
   10.6510  -14.9590   22.5599 O   0  0  0  0  0  0  0  0  0  0  0  0
    6.0140  -12.3841   27.4874 C   0  0  0  0  0  0  0  0  0  0  0  0
    7.1329  -12.2315   26.0717 S   0  0  0  0  0  0  0  0  0  0  0  0
    6.9434  -13.6710   25.0154 C   0  0  0  0  0  0  0  0  0  0  0  0
    7.6171  -14.9005   25.5317 C   0  0  0  0  0  0  0  0  0  0  0  0
    8.9125  -15.2125   24.8149 C   0  0  2  0  0  0  0  0  0  0  0  0
    8.6148  -15.6234   23.4564 N   0  0  0  0  0  0  0  0  0  0  0  0
    9.5352  -16.3709   25.5159 C   0  0  0  0  0  0  0  0  0  0  0  0
    9.9569  -17.3422   24.8672 O   0  0  0  0  0  0  0  0  0  0  0  0
   14.9384  -18.1585   22.8698 O   0  0  0  0  0  0  0  0  0  0  0  0
   14.2098  -17.5494   23.8815 C   0  0  0  0  0  0  0  0  0  0  0  0
   13.3306  -16.5092   23.6699 C   0  0  0  0  0  0  0  0  0  0  0  0
   12.6071  -15.9036   24.6706 C   0  0  0  0  0  0  0  0  0  0  0  0
   12.7428  -16.3399   25.9990 C   0  0  0  0  0  0  0  0  0  0  0  0
   11.9956  -15.6923   27.0918 C   0  0  0  0  0  0  0  0  0  0  0  0
   10.9225  -16.5818   27.6185 C   0  0  2  0  0  0  0  0  0  0  0  0
    9.6534  -16.3767   26.9366 N   0  0  0  0  0  0  0  0  0  0  0  0
   10.7388  -16.5133   29.0974 C   0  0  0  0  0  0  0  0  0  0  0  0
   11.3691  -17.3421   30.0020 O   0  0  0  0  0  0  0  0  0  0  0  0
   13.6239  -17.3797   26.1990 C   0  0  0  0  0  0  0  0  0  0  0  0
   14.3471  -17.9850   25.1961 C   0  0  0  0  0  0  0  0  0  0  0  0
    9.9500  -15.6377   29.5697 O   0  0  0  0  0  0  0  0  0  0  0  0
  2  1  1  0
  3  2  1  0
  3  4  1  6
  5  3  1  0
  5  6  1  6
  7  5  1  0
  7  8  2  0
  9 10  1  0
 10 11  1  0
 11 12  1  0
 13 12  1  1
 13 14  1  0
 14  7  1  0
 15 13  1  0
 16 15  2  0
 18 28  2  0
 18 17  1  0
 19 18  1  0
 20 21  1  0
 20 19  2  0
 21 27  2  0
 22 21  1  0
 23 22  1  6
 23 24  1  0
 24 15  1  0
 25 26  1  0
 25 23  1  0
 27 28  1  0
 29 25  2  0
M  END
$$$$
