IMY.pdb
     RDKit          3D

 29 29  0  0  1  0  0  0  0  0999 V2000
    6.5056  -18.6486   17.9985 C   0  0  0  0  0  0  0  0  0  0  0  0
    6.6940  -18.6245   19.4750 C   0  0  0  0  0  0  0  0  0  0  0  0
    7.4831  -17.4870   20.0191 C   0  0  2  0  0  0  0  0  0  0  0  0
    8.7950  -17.3064   19.2714 C   0  0  0  0  0  0  0  0  0  0  0  0
    7.6826  -17.4714   21.4944 C   0  0  2  0  0  0  0  0  0  0  0  0
    6.4633  -17.7945   22.1693 N   0  0  0  0  0  0  0  0  0  0  0  0
    8.2938  -16.2084   21.9966 C   0  0  0  0  0  0  0  0  0  0  0  0
    9.4421  -15.8909   21.5701 O   0  0  0  0  0  0  0  0  0  0  0  0
    4.8851  -11.9229   25.6343 C   0  0  0  0  0  0  0  0  0  0  0  0
    6.4031  -10.9793   25.3436 S   0  0  0  0  0  0  0  0  0  0  0  0
    7.6736  -12.0867   24.7245 C   0  0  0  0  0  0  0  0  0  0  0  0
    7.1426  -13.2961   24.0263 C   0  0  0  0  0  0  0  0  0  0  0  0
    8.2311  -14.2387   23.5618 C   0  0  2  0  0  0  0  0  0  0  0  0
    7.6209  -15.3867   22.9193 N   0  0  0  0  0  0  0  0  0  0  0  0
    8.9433  -14.7218   24.7785 C   0  0  0  0  0  0  0  0  0  0  0  0
    8.4679  -14.5131   25.9066 O   0  0  0  0  0  0  0  0  0  0  0  0
   12.9694  -18.1165   31.4520 O   0  0  0  0  0  0  0  0  0  0  0  0
   12.2472  -17.7704   30.3188 C   0  0  0  0  0  0  0  0  0  0  0  0
   11.6726  -18.6905   29.4686 C   0  0  0  0  0  0  0  0  0  0  0  0
   10.9563  -18.3504   28.3448 C   0  0  0  0  0  0  0  0  0  0  0  0
   10.7765  -16.9985   28.0080 C   0  0  0  0  0  0  0  0  0  0  0  0
   10.0324  -16.6093   26.7970 C   0  0  0  0  0  0  0  0  0  0  0  0
   10.9145  -15.9169   25.8158 C   0  0  2  0  0  0  0  0  0  0  0  0
   10.1762  -15.4279   24.6611 N   0  0  0  0  0  0  0  0  0  0  0  0
   12.0961  -16.7170   25.3807 C   0  0  0  0  0  0  0  0  0  0  0  0
   12.0404  -17.7766   24.4994 O   0  0  0  0  0  0  0  0  0  0  0  0
   11.3549  -16.0877   28.8645 C   0  0  0  0  0  0  0  0  0  0  0  0
   12.0714  -16.4298   29.9891 C   0  0  0  0  0  0  0  0  0  0  0  0
   13.2376  -16.4137   25.8467 O   0  0  0  0  0  0  0  0  0  0  0  0
  2  1  1  0
  3  2  1  0
  3  4  1  6
  5  3  1  0
  5  6  1  1
  7  5  1  0
  7  8  2  0
  9 10  1  0
 10 11  1  0
 11 12  1  0
 13 12  1  1
 13 14  1  0
 14  7  1  0
 15 13  1  0
 16 15  2  0
 18 28  2  0
 18 17  1  0
 19 18  1  0
 20 21  1  0
 20 19  2  0
 21 27  2  0
 22 21  1  0
 23 22  1  1
 23 24  1  0
 24 15  1  0
 25 26  1  0
 25 23  1  0
 27 28  1  0
 29 25  2  0
M  END
$$$$
