IMY.pdb
     RDKit          3D

 29 29  0  0  1  0  0  0  0  0999 V2000
    7.0485  -16.9749   15.9662 C   0  0  0  0  0  0  0  0  0  0  0  0
    7.2309  -17.5997   17.3051 C   0  0  0  0  0  0  0  0  0  0  0  0
    8.0210  -16.8181   18.2938 C   0  0  2  0  0  0  0  0  0  0  0  0
    9.3863  -16.4357   17.7438 C   0  0  0  0  0  0  0  0  0  0  0  0
    8.1201  -17.3974   19.6617 C   0  0  2  0  0  0  0  0  0  0  0  0
    6.8653  -17.9558   20.0624 N   0  0  0  0  0  0  0  0  0  0  0  0
    8.6680  -16.4465   20.6698 C   0  0  0  0  0  0  0  0  0  0  0  0
    9.8504  -16.0245   20.5107 O   0  0  0  0  0  0  0  0  0  0  0  0
    7.0260  -12.1875   27.1594 C   0  0  0  0  0  0  0  0  0  0  0  0
    6.3608  -13.2940   25.8895 S   0  0  0  0  0  0  0  0  0  0  0  0
    7.7031  -13.8539   24.8366 C   0  0  0  0  0  0  0  0  0  0  0  0
    7.2675  -14.7215   23.7010 C   0  0  0  0  0  0  0  0  0  0  0  0
    8.4166  -15.1796   22.8298 C   0  0  2  0  0  0  0  0  0  0  0  0
    7.9001  -16.0251   21.7708 N   0  0  0  0  0  0  0  0  0  0  0  0
    9.3109  -16.0121   23.6831 C   0  0  0  0  0  0  0  0  0  0  0  0
    8.9548  -17.1458   24.0436 O   0  0  0  0  0  0  0  0  0  0  0  0
   10.5235  -13.4096   30.3772 O   0  0  0  0  0  0  0  0  0  0  0  0
   10.6471  -14.2991   29.3194 C   0  0  0  0  0  0  0  0  0  0  0  0
   11.6989  -15.1790   29.1802 C   0  0  0  0  0  0  0  0  0  0  0  0
   11.8242  -16.0618   28.1330 C   0  0  0  0  0  0  0  0  0  0  0  0
   10.8456  -16.1012   27.1258 C   0  0  0  0  0  0  0  0  0  0  0  0
   10.9689  -17.0223   25.9820 C   0  0  0  0  0  0  0  0  0  0  0  0
   11.5571  -16.3399   24.7952 C   0  0  2  0  0  0  0  0  0  0  0  0
   10.5829  -15.5169   24.0944 N   0  0  0  0  0  0  0  0  0  0  0  0
   12.2516  -17.2541   23.8426 C   0  0  0  0  0  0  0  0  0  0  0  0
   11.9285  -17.3835   22.5080 O   0  0  0  0  0  0  0  0  0  0  0  0
    9.7992  -15.2178   27.2750 C   0  0  0  0  0  0  0  0  0  0  0  0
    9.6753  -14.3350   28.3239 C   0  0  0  0  0  0  0  0  0  0  0  0
   13.2067  -17.9691   24.2769 O   0  0  0  0  0  0  0  0  0  0  0  0
  2  1  1  0
  3  2  1  0
  3  4  1  6
  5  3  1  0
  5  6  1  1
  7  5  1  0
  7  8  2  0
  9 10  1  0
 10 11  1  0
 11 12  1  0
 13 12  1  1
 13 14  1  0
 14  7  1  0
 15 13  1  0
 16 15  2  0
 18 28  2  0
 18 17  1  0
 19 18  1  0
 20 21  1  0
 20 19  2  0
 21 27  2  0
 22 21  1  0
 23 22  1  1
 23 24  1  0
 24 15  1  0
 25 26  1  0
 25 23  1  0
 27 28  1  0
 29 25  2  0
M  END
$$$$
