IMY.pdb
     RDKit          3D

 29 29  0  0  1  0  0  0  0  0999 V2000
   10.8393  -17.9960   15.0414 C   0  0  0  0  0  0  0  0  0  0  0  0
   10.5078  -18.1378   16.4858 C   0  0  0  0  0  0  0  0  0  0  0  0
   11.3926  -19.0323   17.2792 C   0  0  2  0  0  0  0  0  0  0  0  0
   11.5707  -20.3847   16.6067 C   0  0  0  0  0  0  0  0  0  0  0  0
   11.0596  -19.1743   18.7233 C   0  0  2  0  0  0  0  0  0  0  0  0
    9.8431  -19.9089   18.8881 N   0  0  0  0  0  0  0  0  0  0  0  0
   11.0461  -17.8782   19.4587 C   0  0  0  0  0  0  0  0  0  0  0  0
   12.1020  -17.1807   19.4574 O   0  0  0  0  0  0  0  0  0  0  0  0
    7.0452  -12.0975   20.1168 C   0  0  0  0  0  0  0  0  0  0  0  0
    6.8109  -13.4467   21.3019 S   0  0  0  0  0  0  0  0  0  0  0  0
    8.3750  -14.2946   21.5434 C   0  0  0  0  0  0  0  0  0  0  0  0
    8.5060  -15.5666   20.7708 C   0  0  0  0  0  0  0  0  0  0  0  0
    9.8570  -16.2265   20.9392 C   0  0  2  0  0  0  0  0  0  0  0  0
    9.8968  -17.4350   20.1386 N   0  0  0  0  0  0  0  0  0  0  0  0
    9.9773  -16.6234   22.3707 C   0  0  0  0  0  0  0  0  0  0  0  0
    9.0757  -17.2805   22.9161 O   0  0  0  0  0  0  0  0  0  0  0  0
    9.9656  -14.9613   30.7677 O   0  0  0  0  0  0  0  0  0  0  0  0
   10.0771  -14.9839   29.3847 C   0  0  0  0  0  0  0  0  0  0  0  0
   11.0487  -15.6896   28.7081 C   0  0  0  0  0  0  0  0  0  0  0  0
   11.1616  -15.7139   27.3375 C   0  0  0  0  0  0  0  0  0  0  0  0
   10.2546  -14.9914   26.5445 C   0  0  0  0  0  0  0  0  0  0  0  0
   10.3686  -14.9834   25.0752 C   0  0  0  0  0  0  0  0  0  0  0  0
   11.1174  -16.1732   24.5813 C   0  0  2  0  0  0  0  0  0  0  0  0
   11.1269  -16.2538   23.1285 N   0  0  0  0  0  0  0  0  0  0  0  0
   10.6732  -17.4681   25.1742 C   0  0  0  0  0  0  0  0  0  0  0  0
   11.4682  -18.2853   25.9505 O   0  0  0  0  0  0  0  0  0  0  0  0
    9.2880  -14.2900   27.2310 C   0  0  0  0  0  0  0  0  0  0  0  0
    9.1763  -14.2669   28.6029 C   0  0  0  0  0  0  0  0  0  0  0  0
    9.4846  -17.8577   24.9565 O   0  0  0  0  0  0  0  0  0  0  0  0
  2  1  1  0
  3  2  1  0
  3  4  1  6
  5  3  1  0
  5  6  1  6
  7  5  1  0
  7  8  2  0
  9 10  1  0
 10 11  1  0
 11 12  1  0
 13 12  1  1
 13 14  1  0
 14  7  1  0
 15 13  1  0
 16 15  2  0
 18 28  2  0
 18 17  1  0
 19 18  1  0
 20 21  1  0
 20 19  2  0
 21 27  2  0
 22 21  1  0
 23 22  1  6
 23 24  1  0
 24 15  1  0
 25 26  1  0
 25 23  1  0
 27 28  1  0
 29 25  2  0
M  END
$$$$
