IMY.pdb
     RDKit          3D

 29 29  0  0  1  0  0  0  0  0999 V2000
    8.9719  -20.7295   20.0396 C   0  0  0  0  0  0  0  0  0  0  0  0
    8.1923  -19.4711   19.8824 C   0  0  0  0  0  0  0  0  0  0  0  0
    8.6511  -18.3079   20.6880 C   0  0  2  0  0  0  0  0  0  0  0  0
    8.9390  -18.7022   22.1283 C   0  0  0  0  0  0  0  0  0  0  0  0
    7.8110  -17.0813   20.6095 C   0  0  2  0  0  0  0  0  0  0  0  0
    7.5676  -16.7261   19.2452 N   0  0  0  0  0  0  0  0  0  0  0  0
    8.3481  -15.9428   21.4071 C   0  0  0  0  0  0  0  0  0  0  0  0
    9.4247  -15.4005   21.0222 O   0  0  0  0  0  0  0  0  0  0  0  0
    6.6812  -10.7149   26.8478 C   0  0  0  0  0  0  0  0  0  0  0  0
    6.4152  -12.4862   26.5815 S   0  0  0  0  0  0  0  0  0  0  0  0
    7.6850  -13.1113   25.4766 C   0  0  0  0  0  0  0  0  0  0  0  0
    7.1660  -13.9870   24.3829 C   0  0  0  0  0  0  0  0  0  0  0  0
    8.2572  -14.5147   23.4774 C   0  0  2  0  0  0  0  0  0  0  0  0
    7.6842  -15.4780   22.5572 N   0  0  0  0  0  0  0  0  0  0  0  0
    9.2355  -15.2346   24.3408 C   0  0  0  0  0  0  0  0  0  0  0  0
    8.9834  -15.4349   25.5402 O   0  0  0  0  0  0  0  0  0  0  0  0
   11.2597  -16.2708   31.0298 O   0  0  0  0  0  0  0  0  0  0  0  0
   11.1805  -16.5340   29.6697 C   0  0  0  0  0  0  0  0  0  0  0  0
   10.4048  -15.8047   28.7943 C   0  0  0  0  0  0  0  0  0  0  0  0
   10.3243  -16.0633   27.4458 C   0  0  0  0  0  0  0  0  0  0  0  0
   11.0589  -17.1228   26.8881 C   0  0  0  0  0  0  0  0  0  0  0  0
   10.9719  -17.4339   25.4502 C   0  0  0  0  0  0  0  0  0  0  0  0
   11.5029  -16.3170   24.6191 C   0  0  2  0  0  0  0  0  0  0  0  0
   10.4698  -15.7005   23.8005 N   0  0  0  0  0  0  0  0  0  0  0  0
   12.6844  -16.6807   23.7840 C   0  0  0  0  0  0  0  0  0  0  0  0
   12.6284  -17.4655   22.6511 O   0  0  0  0  0  0  0  0  0  0  0  0
   11.8305  -17.8449   27.7717 C   0  0  0  0  0  0  0  0  0  0  0  0
   11.9101  -17.5845   29.1212 C   0  0  0  0  0  0  0  0  0  0  0  0
   13.8265  -16.2461   24.1288 O   0  0  0  0  0  0  0  0  0  0  0  0
  2  1  1  0
  3  2  1  0
  3  4  1  1
  5  3  1  0
  5  6  1  6
  7  5  1  0
  7  8  2  0
  9 10  1  0
 10 11  1  0
 11 12  1  0
 13 12  1  1
 13 14  1  0
 14  7  1  0
 15 13  1  0
 16 15  2  0
 18 28  2  0
 18 17  1  0
 19 18  1  0
 20 21  1  0
 20 19  2  0
 21 27  2  0
 22 21  1  0
 23 22  1  6
 23 24  1  0
 24 15  1  0
 25 26  1  0
 25 23  1  0
 27 28  1  0
 29 25  2  0
M  END
$$$$
