IMY.pdb
     RDKit          3D

 29 29  0  0  1  0  0  0  0  0999 V2000
    6.8400  -20.3535   19.9909 C   0  0  0  0  0  0  0  0  0  0  0  0
    7.4043  -18.9838   19.8435 C   0  0  0  0  0  0  0  0  0  0  0  0
    7.6382  -18.2295   21.1040 C   0  0  2  0  0  0  0  0  0  0  0  0
    6.4612  -18.3547   22.0589 C   0  0  0  0  0  0  0  0  0  0  0  0
    8.0767  -16.8148   20.9520 C   0  0  2  0  0  0  0  0  0  0  0  0
    9.0730  -16.7052   19.9312 N   0  0  0  0  0  0  0  0  0  0  0  0
    8.5031  -16.1854   22.2336 C   0  0  0  0  0  0  0  0  0  0  0  0
    9.6655  -16.4391   22.6649 O   0  0  0  0  0  0  0  0  0  0  0  0
    6.7696  -10.6291   27.6013 C   0  0  0  0  0  0  0  0  0  0  0  0
    6.2528  -11.4438   26.0687 S   0  0  0  0  0  0  0  0  0  0  0  0
    7.3344  -12.8418   25.7530 C   0  0  0  0  0  0  0  0  0  0  0  0
    7.0305  -13.5757   24.4876 C   0  0  0  0  0  0  0  0  0  0  0  0
    8.0136  -14.6883   24.1966 C   0  0  2  0  0  0  0  0  0  0  0  0
    7.6442  -15.3326   22.9509 N   0  0  0  0  0  0  0  0  0  0  0  0
    7.8764  -15.6934   25.2883 C   0  0  0  0  0  0  0  0  0  0  0  0
    6.7701  -15.9007   25.8130 O   0  0  0  0  0  0  0  0  0  0  0  0
    9.0297  -22.5342   23.2702 O   0  0  0  0  0  0  0  0  0  0  0  0
    8.7708  -21.4983   24.1565 C   0  0  0  0  0  0  0  0  0  0  0  0
    9.5836  -21.1861   25.2250 C   0  0  0  0  0  0  0  0  0  0  0  0
    9.3297  -20.1600   26.1050 C   0  0  0  0  0  0  0  0  0  0  0  0
    8.1866  -19.3600   25.9412 C   0  0  0  0  0  0  0  0  0  0  0  0
    7.8808  -18.2693   26.8839 C   0  0  0  0  0  0  0  0  0  0  0  0
    8.9815  -17.2660   26.9301 C   0  0  2  0  0  0  0  0  0  0  0  0
    9.0117  -16.4268   25.7417 N   0  0  0  0  0  0  0  0  0  0  0  0
   10.3302  -17.8456   27.1956 C   0  0  0  0  0  0  0  0  0  0  0  0
   11.4265  -17.6812   26.3749 O   0  0  0  0  0  0  0  0  0  0  0  0
    7.3816  -19.6808   24.8704 C   0  0  0  0  0  0  0  0  0  0  0  0
    7.6374  -20.7081   23.9904 C   0  0  0  0  0  0  0  0  0  0  0  0
   10.4944  -18.5415   28.2449 O   0  0  0  0  0  0  0  0  0  0  0  0
  2  1  1  0
  3  2  1  0
  3  4  1  1
  5  3  1  0
  5  6  1  6
  7  5  1  0
  7  8  2  0
  9 10  1  0
 10 11  1  0
 11 12  1  0
 13 12  1  1
 13 14  1  0
 14  7  1  0
 15 13  1  0
 16 15  2  0
 18 28  2  0
 18 17  1  0
 19 18  1  0
 20 21  1  0
 20 19  2  0
 21 27  2  0
 22 21  1  0
 23 22  1  6
 23 24  1  0
 24 15  1  0
 25 26  1  0
 25 23  1  0
 27 28  1  0
 29 25  2  0
M  END
$$$$
