IMY.pdb
     RDKit          3D

 29 29  0  0  1  0  0  0  0  0999 V2000
    7.0511  -12.2609   19.9529 C   0  0  0  0  0  0  0  0  0  0  0  0
    7.4005  -13.4845   20.7255 C   0  0  0  0  0  0  0  0  0  0  0  0
    8.5801  -14.2522   20.2441 C   0  0  2  0  0  0  0  0  0  0  0  0
    8.4363  -14.6420   18.7812 C   0  0  0  0  0  0  0  0  0  0  0  0
    9.0001  -15.4075   21.0840 C   0  0  2  0  0  0  0  0  0  0  0  0
    8.0517  -16.4736   20.9814 N   0  0  0  0  0  0  0  0  0  0  0  0
    9.2905  -15.0379   22.4981 C   0  0  0  0  0  0  0  0  0  0  0  0
    9.7605  -13.8858   22.7289 O   0  0  0  0  0  0  0  0  0  0  0  0
    5.7198  -12.5705   26.4365 C   0  0  0  0  0  0  0  0  0  0  0  0
    7.4293  -12.4692   27.0253 S   0  0  0  0  0  0  0  0  0  0  0  0
    8.2579  -14.0273   26.6941 C   0  0  0  0  0  0  0  0  0  0  0  0
    8.2359  -14.4376   25.2577 C   0  0  0  0  0  0  0  0  0  0  0  0
    9.1784  -15.5812   24.9529 C   0  0  2  0  0  0  0  0  0  0  0  0
    9.0528  -15.9380   23.5529 N   0  0  0  0  0  0  0  0  0  0  0  0
    8.7300  -16.7487   25.7633 C   0  0  0  0  0  0  0  0  0  0  0  0
    7.5348  -16.8706   26.0778 O   0  0  0  0  0  0  0  0  0  0  0  0
   15.7558  -15.4885   24.4640 O   0  0  0  0  0  0  0  0  0  0  0  0
   14.6003  -15.6441   25.2165 C   0  0  0  0  0  0  0  0  0  0  0  0
   14.0384  -14.6365   25.9706 C   0  0  0  0  0  0  0  0  0  0  0  0
   12.8933  -14.7878   26.7173 C   0  0  0  0  0  0  0  0  0  0  0  0
   12.2272  -16.0244   26.7403 C   0  0  0  0  0  0  0  0  0  0  0  0
   11.0114  -16.2178   27.5504 C   0  0  0  0  0  0  0  0  0  0  0  0
   10.4667  -17.5958   27.3931 C   0  0  2  0  0  0  0  0  0  0  0  0
    9.6666  -17.7370   26.1859 N   0  0  0  0  0  0  0  0  0  0  0  0
    9.7159  -18.0987   28.5801 C   0  0  0  0  0  0  0  0  0  0  0  0
   10.3052  -18.5863   29.7279 O   0  0  0  0  0  0  0  0  0  0  0  0
   12.7974  -17.0240   25.9833 C   0  0  0  0  0  0  0  0  0  0  0  0
   13.9435  -16.8708   25.2362 C   0  0  0  0  0  0  0  0  0  0  0  0
    8.4468  -18.0840   28.5447 O   0  0  0  0  0  0  0  0  0  0  0  0
  2  1  1  0
  3  2  1  0
  3  4  1  6
  5  3  1  0
  5  6  1  1
  7  5  1  0
  7  8  2  0
  9 10  1  0
 10 11  1  0
 11 12  1  0
 13 12  1  6
 13 14  1  0
 14  7  1  0
 15 13  1  0
 16 15  2  0
 18 28  2  0
 18 17  1  0
 19 18  1  0
 20 21  1  0
 20 19  2  0
 21 27  2  0
 22 21  1  0
 23 22  1  1
 23 24  1  0
 24 15  1  0
 25 26  1  0
 25 23  1  0
 27 28  1  0
 29 25  2  0
M  END
$$$$
