IMY.pdb
     RDKit          3D

 29 29  0  0  1  0  0  0  0  0999 V2000
    6.6376  -11.4693   26.4328 C   0  0  0  0  0  0  0  0  0  0  0  0
    5.9259  -12.7417   26.1319 C   0  0  0  0  0  0  0  0  0  0  0  0
    6.6846  -13.7493   25.3433 C   0  0  2  0  0  0  0  0  0  0  0  0
    7.4015  -13.1130   24.1627 C   0  0  0  0  0  0  0  0  0  0  0  0
    5.9334  -14.9697   24.9398 C   0  0  2  0  0  0  0  0  0  0  0  0
    5.0704  -15.4003   25.9964 N   0  0  0  0  0  0  0  0  0  0  0  0
    6.8091  -16.0659   24.4376 C   0  0  0  0  0  0  0  0  0  0  0  0
    6.3053  -17.2194   24.3073 O   0  0  0  0  0  0  0  0  0  0  0  0
    7.9810  -12.4470   20.1448 C   0  0  0  0  0  0  0  0  0  0  0  0
    8.1140  -14.0250   19.2663 S   0  0  0  0  0  0  0  0  0  0  0  0
    8.6264  -15.2996   20.4224 C   0  0  0  0  0  0  0  0  0  0  0  0
    8.1691  -15.0707   21.8262 C   0  0  0  0  0  0  0  0  0  0  0  0
    8.7229  -16.0844   22.8033 C   0  0  2  0  0  0  0  0  0  0  0  0
    8.1590  -15.8343   24.1157 N   0  0  0  0  0  0  0  0  0  0  0  0
   10.1933  -15.8565   22.8875 C   0  0  0  0  0  0  0  0  0  0  0  0
   10.7084  -14.8776   22.3232 O   0  0  0  0  0  0  0  0  0  0  0  0
   10.0513  -15.9908   30.0171 O   0  0  0  0  0  0  0  0  0  0  0  0
   10.6322  -15.8102   28.7699 C   0  0  0  0  0  0  0  0  0  0  0  0
   11.7603  -16.4806   28.3484 C   0  0  0  0  0  0  0  0  0  0  0  0
   12.3384  -16.3037   27.1129 C   0  0  0  0  0  0  0  0  0  0  0  0
   11.7782  -15.3967   26.1981 C   0  0  0  0  0  0  0  0  0  0  0  0
   12.3920  -15.1729   24.8771 C   0  0  0  0  0  0  0  0  0  0  0  0
   12.3683  -16.4118   24.0496 C   0  0  2  0  0  0  0  0  0  0  0  0
   11.0234  -16.7583   23.6155 N   0  0  0  0  0  0  0  0  0  0  0  0
   13.0323  -17.5872   24.6844 C   0  0  0  0  0  0  0  0  0  0  0  0
   12.4206  -18.8029   24.9090 O   0  0  0  0  0  0  0  0  0  0  0  0
   10.6513  -14.7323   26.6297 C   0  0  0  0  0  0  0  0  0  0  0  0
   10.0739  -14.9108   27.8666 C   0  0  0  0  0  0  0  0  0  0  0  0
   14.2432  -17.4747   25.0493 O   0  0  0  0  0  0  0  0  0  0  0  0
  2  1  1  0
  3  2  1  0
  3  4  1  6
  5  3  1  0
  5  6  1  1
  7  5  1  0
  7  8  2  0
  9 10  1  0
 10 11  1  0
 11 12  1  0
 13 12  1  6
 13 14  1  0
 14  7  1  0
 15 13  1  0
 16 15  2  0
 18 28  2  0
 18 17  1  0
 19 18  1  0
 20 21  1  0
 20 19  2  0
 21 27  2  0
 22 21  1  0
 23 22  1  1
 23 24  1  0
 24 15  1  0
 25 26  1  0
 25 23  1  0
 27 28  1  0
 29 25  2  0
M  END
$$$$
