IMY.pdb
     RDKit          3D

 29 29  0  0  1  0  0  0  0  0999 V2000
    7.8128  -19.8434   17.1304 C   0  0  0  0  0  0  0  0  0  0  0  0
    7.4706  -18.4324   17.4592 C   0  0  0  0  0  0  0  0  0  0  0  0
    8.1921  -17.8322   18.6133 C   0  0  2  0  0  0  0  0  0  0  0  0
    8.2025  -18.7650   19.8143 C   0  0  0  0  0  0  0  0  0  0  0  0
    7.7911  -16.4495   18.9924 C   0  0  2  0  0  0  0  0  0  0  0  0
    7.7951  -15.5936   17.8461 N   0  0  0  0  0  0  0  0  0  0  0  0
    8.5853  -15.8908   20.1228 C   0  0  0  0  0  0  0  0  0  0  0  0
    9.7874  -15.5626   19.9021 O   0  0  0  0  0  0  0  0  0  0  0  0
    6.4314  -13.3520   25.9208 C   0  0  0  0  0  0  0  0  0  0  0  0
    7.0613  -12.2692   24.6131 S   0  0  0  0  0  0  0  0  0  0  0  0
    7.5982  -13.2746   23.2258 C   0  0  0  0  0  0  0  0  0  0  0  0
    7.8929  -14.6960   23.5793 C   0  0  0  0  0  0  0  0  0  0  0  0
    8.7971  -15.3810   22.5782 C   0  0  2  0  0  0  0  0  0  0  0  0
    8.0232  -15.7300   21.4025 N   0  0  0  0  0  0  0  0  0  0  0  0
    9.2691  -16.6474   23.2062 C   0  0  0  0  0  0  0  0  0  0  0  0
    8.5044  -17.6209   23.3035 O   0  0  0  0  0  0  0  0  0  0  0  0
   11.0217  -15.3019   31.3766 O   0  0  0  0  0  0  0  0  0  0  0  0
   10.9389  -15.3276   29.9917 C   0  0  0  0  0  0  0  0  0  0  0  0
   11.5001  -16.3154   29.2111 C   0  0  0  0  0  0  0  0  0  0  0  0
   11.4196  -16.3436   27.8384 C   0  0  0  0  0  0  0  0  0  0  0  0
   10.7352  -15.3260   27.1532 C   0  0  0  0  0  0  0  0  0  0  0  0
   10.6545  -15.3219   25.6817 C   0  0  0  0  0  0  0  0  0  0  0  0
   10.9219  -16.6753   25.1186 C   0  0  2  0  0  0  0  0  0  0  0  0
   10.6017  -16.7551   23.7014 N   0  0  0  0  0  0  0  0  0  0  0  0
   10.2713  -17.7908   25.8656 C   0  0  0  0  0  0  0  0  0  0  0  0
   10.9514  -18.8280   26.4690 O   0  0  0  0  0  0  0  0  0  0  0  0
   10.1784  -14.3442   27.9429 C   0  0  0  0  0  0  0  0  0  0  0  0
   10.2597  -14.3176   29.3169 C   0  0  0  0  0  0  0  0  0  0  0  0
    9.0051  -17.7994   25.9593 O   0  0  0  0  0  0  0  0  0  0  0  0
  2  1  1  0
  3  2  1  0
  3  4  1  1
  5  3  1  0
  5  6  1  6
  7  5  1  0
  7  8  2  0
  9 10  1  0
 10 11  1  0
 11 12  1  0
 13 12  1  1
 13 14  1  0
 14  7  1  0
 15 13  1  0
 16 15  2  0
 18 28  2  0
 18 17  1  0
 19 18  1  0
 20 21  1  0
 20 19  2  0
 21 27  2  0
 22 21  1  0
 23 22  1  1
 23 24  1  0
 24 15  1  0
 25 26  1  0
 25 23  1  0
 27 28  1  0
 29 25  2  0
M  END
$$$$
