IMY.pdb
     RDKit          3D

 29 29  0  0  1  0  0  0  0  0999 V2000
    6.8138  -13.0126   18.6230 C   0  0  0  0  0  0  0  0  0  0  0  0
    7.4382  -14.2000   19.2684 C   0  0  0  0  0  0  0  0  0  0  0  0
    8.0287  -13.9818   20.6161 C   0  0  2  0  0  0  0  0  0  0  0  0
    9.0524  -12.8572   20.6042 C   0  0  0  0  0  0  0  0  0  0  0  0
    8.5475  -15.1923   21.3105 C   0  0  2  0  0  0  0  0  0  0  0  0
    7.5699  -16.2367   21.2963 N   0  0  0  0  0  0  0  0  0  0  0  0
    9.0637  -14.9144   22.6805 C   0  0  0  0  0  0  0  0  0  0  0  0
   10.2359  -14.4510   22.7935 O   0  0  0  0  0  0  0  0  0  0  0  0
    7.5741  -11.0137   27.6478 C   0  0  0  0  0  0  0  0  0  0  0  0
    6.3606  -12.1039   26.8615 S   0  0  0  0  0  0  0  0  0  0  0  0
    7.1751  -13.0621   25.5801 C   0  0  0  0  0  0  0  0  0  0  0  0
    7.6314  -14.4135   26.0247 C   0  0  0  0  0  0  0  0  0  0  0  0
    8.7556  -14.9684   25.1777 C   0  0  2  0  0  0  0  0  0  0  0  0
    8.2776  -15.1578   23.8216 N   0  0  0  0  0  0  0  0  0  0  0  0
    9.1027  -16.3082   25.7304 C   0  0  0  0  0  0  0  0  0  0  0  0
    8.3752  -17.2880   25.5004 O   0  0  0  0  0  0  0  0  0  0  0  0
   12.1986  -17.8738   20.8821 O   0  0  0  0  0  0  0  0  0  0  0  0
   12.1393  -17.9474   22.2665 C   0  0  0  0  0  0  0  0  0  0  0  0
   12.5585  -16.9361   23.1039 C   0  0  0  0  0  0  0  0  0  0  0  0
   12.5009  -17.0062   24.4763 C   0  0  0  0  0  0  0  0  0  0  0  0
   11.9925  -18.1573   25.1007 C   0  0  0  0  0  0  0  0  0  0  0  0
   11.9414  -18.2655   26.5696 C   0  0  0  0  0  0  0  0  0  0  0  0
   10.6467  -17.7607   27.1073 C   0  0  2  0  0  0  0  0  0  0  0  0
   10.2719  -16.4796   26.5279 N   0  0  0  0  0  0  0  0  0  0  0  0
   10.5819  -17.7003   28.5965 C   0  0  0  0  0  0  0  0  0  0  0  0
   10.2643  -16.5694   29.3194 O   0  0  0  0  0  0  0  0  0  0  0  0
   11.5765  -19.1615   24.2545 C   0  0  0  0  0  0  0  0  0  0  0  0
   11.6346  -19.0896   22.8809 C   0  0  0  0  0  0  0  0  0  0  0  0
   10.8355  -18.7547   29.2570 O   0  0  0  0  0  0  0  0  0  0  0  0
  2  1  1  0
  3  2  1  0
  3  4  1  6
  5  3  1  0
  5  6  1  1
  7  5  1  0
  7  8  2  0
  9 10  1  0
 10 11  1  0
 11 12  1  0
 13 12  1  1
 13 14  1  0
 14  7  1  0
 15 13  1  0
 16 15  2  0
 18 28  2  0
 18 17  1  0
 19 18  1  0
 20 21  1  0
 20 19  2  0
 21 27  2  0
 22 21  1  0
 23 22  1  1
 23 24  1  0
 24 15  1  0
 25 26  1  0
 25 23  1  0
 27 28  1  0
 29 25  2  0
M  END
$$$$
