IMY.pdb
     RDKit          3D

 29 29  0  0  1  0  0  0  0  0999 V2000
    7.1861  -12.6591   17.8859 C   0  0  0  0  0  0  0  0  0  0  0  0
    7.4028  -13.5997   19.0192 C   0  0  0  0  0  0  0  0  0  0  0  0
    8.0181  -14.9103   18.6779 C   0  0  2  0  0  0  0  0  0  0  0  0
    7.2897  -15.5891   17.5283 C   0  0  0  0  0  0  0  0  0  0  0  0
    8.2472  -15.8449   19.8140 C   0  0  2  0  0  0  0  0  0  0  0  0
    7.0275  -16.4951   20.1829 N   0  0  0  0  0  0  0  0  0  0  0  0
    8.9274  -15.2084   20.9771 C   0  0  0  0  0  0  0  0  0  0  0  0
   10.1774  -15.0228   20.9087 O   0  0  0  0  0  0  0  0  0  0  0  0
    6.4201  -11.6264   26.1272 C   0  0  0  0  0  0  0  0  0  0  0  0
    6.1047  -13.4015   26.2971 S   0  0  0  0  0  0  0  0  0  0  0  0
    7.2300  -14.3031   25.2273 C   0  0  0  0  0  0  0  0  0  0  0  0
    7.7718  -13.4967   24.0922 C   0  0  0  0  0  0  0  0  0  0  0  0
    8.8270  -14.2303   23.2938 C   0  0  2  0  0  0  0  0  0  0  0  0
    8.2086  -14.8223   22.1233 N   0  0  0  0  0  0  0  0  0  0  0  0
    9.3358  -15.3383   24.1508 C   0  0  0  0  0  0  0  0  0  0  0  0
    8.5856  -16.2726   24.4769 O   0  0  0  0  0  0  0  0  0  0  0  0
   11.5869  -16.7553   32.2435 O   0  0  0  0  0  0  0  0  0  0  0  0
   11.2626  -16.3325   30.9622 C   0  0  0  0  0  0  0  0  0  0  0  0
   10.7138  -17.1554   30.0024 C   0  0  0  0  0  0  0  0  0  0  0  0
   10.3913  -16.7393   28.7317 C   0  0  0  0  0  0  0  0  0  0  0  0
   10.6185  -15.4068   28.3495 C   0  0  0  0  0  0  0  0  0  0  0  0
   10.3025  -14.9425   26.9870 C   0  0  0  0  0  0  0  0  0  0  0  0
   11.0603  -15.7123   25.9607 C   0  0  2  0  0  0  0  0  0  0  0  0
   10.6871  -15.3379   24.6050 N   0  0  0  0  0  0  0  0  0  0  0  0
   10.9951  -17.1929   26.1313 C   0  0  0  0  0  0  0  0  0  0  0  0
    9.8403  -17.9405   26.0319 O   0  0  0  0  0  0  0  0  0  0  0  0
   11.1672  -14.5934   29.3164 C   0  0  0  0  0  0  0  0  0  0  0  0
   11.4892  -15.0115   30.5878 C   0  0  0  0  0  0  0  0  0  0  0  0
   12.0686  -17.8208   26.3874 O   0  0  0  0  0  0  0  0  0  0  0  0
  2  1  1  0
  3  2  1  0
  3  4  1  6
  5  3  1  0
  5  6  1  1
  7  5  1  0
  7  8  2  0
  9 10  1  0
 10 11  1  0
 11 12  1  0
 13 12  1  1
 13 14  1  0
 14  7  1  0
 15 13  1  0
 16 15  2  0
 18 28  2  0
 18 17  1  0
 19 18  1  0
 20 21  1  0
 20 19  2  0
 21 27  2  0
 22 21  1  0
 23 22  1  1
 23 24  1  0
 24 15  1  0
 25 26  1  0
 25 23  1  0
 27 28  1  0
 29 25  2  0
M  END
$$$$
