IMY.pdb
     RDKit          3D

 29 29  0  0  1  0  0  0  0  0999 V2000
    7.2791  -12.1877   18.1601 C   0  0  0  0  0  0  0  0  0  0  0  0
    7.4196  -13.3303   19.1040 C   0  0  0  0  0  0  0  0  0  0  0  0
    8.1803  -14.5068   18.6043 C   0  0  2  0  0  0  0  0  0  0  0  0
    7.6731  -14.9667   17.2464 C   0  0  0  0  0  0  0  0  0  0  0  0
    8.3279  -15.6453   19.5522 C   0  0  2  0  0  0  0  0  0  0  0  0
    7.1055  -16.3825   19.6455 N   0  0  0  0  0  0  0  0  0  0  0  0
    8.8521  -15.2409   20.8873 C   0  0  0  0  0  0  0  0  0  0  0  0
   10.0343  -14.7941   20.9534 O   0  0  0  0  0  0  0  0  0  0  0  0
    6.9107  -12.0193   27.5643 C   0  0  0  0  0  0  0  0  0  0  0  0
    6.3290  -12.8350   26.0557 S   0  0  0  0  0  0  0  0  0  0  0  0
    7.5485  -14.0455   25.5349 C   0  0  0  0  0  0  0  0  0  0  0  0
    7.2482  -14.6885   24.2201 C   0  0  0  0  0  0  0  0  0  0  0  0
    8.4712  -14.8450   23.3433 C   0  0  2  0  0  0  0  0  0  0  0  0
    8.0627  -15.3500   22.0467 N   0  0  0  0  0  0  0  0  0  0  0  0
    9.3406  -15.8740   23.9805 C   0  0  0  0  0  0  0  0  0  0  0  0
    8.9569  -17.0520   24.0660 O   0  0  0  0  0  0  0  0  0  0  0  0
   11.5557  -16.6868   32.1725 O   0  0  0  0  0  0  0  0  0  0  0  0
   11.2353  -16.3005   30.8788 C   0  0  0  0  0  0  0  0  0  0  0  0
   10.8325  -17.1796   29.8967 C   0  0  0  0  0  0  0  0  0  0  0  0
   10.5143  -16.7997   28.6136 C   0  0  0  0  0  0  0  0  0  0  0  0
   10.5912  -15.4473   28.2414 C   0  0  0  0  0  0  0  0  0  0  0  0
   10.2773  -15.0183   26.8669 C   0  0  0  0  0  0  0  0  0  0  0  0
   11.0284  -15.8216   25.8616 C   0  0  2  0  0  0  0  0  0  0  0  0
   10.6204  -15.5181   24.4982 N   0  0  0  0  0  0  0  0  0  0  0  0
   10.9949  -17.2935   26.1023 C   0  0  0  0  0  0  0  0  0  0  0  0
   11.9900  -18.0033   26.7415 O   0  0  0  0  0  0  0  0  0  0  0  0
   10.9947  -14.5777   29.2305 C   0  0  0  0  0  0  0  0  0  0  0  0
   11.3126  -14.9596   30.5143 C   0  0  0  0  0  0  0  0  0  0  0  0
    9.9880  -17.9510   25.6951 O   0  0  0  0  0  0  0  0  0  0  0  0
  2  1  1  0
  3  2  1  0
  3  4  1  6
  5  3  1  0
  5  6  1  1
  7  5  1  0
  7  8  2  0
  9 10  1  0
 10 11  1  0
 11 12  1  0
 13 12  1  1
 13 14  1  0
 14  7  1  0
 15 13  1  0
 16 15  2  0
 18 28  2  0
 18 17  1  0
 19 18  1  0
 20 21  1  0
 20 19  2  0
 21 27  2  0
 22 21  1  0
 23 22  1  1
 23 24  1  0
 24 15  1  0
 25 26  1  0
 25 23  1  0
 27 28  1  0
 29 25  2  0
M  END
$$$$
