IMY.pdb
     RDKit          3D

 29 29  0  0  1  0  0  0  0  0999 V2000
    7.8172  -23.2239   22.3207 C   0  0  0  0  0  0  0  0  0  0  0  0
    7.2917  -22.1502   21.4335 C   0  0  0  0  0  0  0  0  0  0  0  0
    8.0510  -20.8711   21.4277 C   0  0  2  0  0  0  0  0  0  0  0  0
    8.2657  -20.3404   22.8366 C   0  0  0  0  0  0  0  0  0  0  0  0
    7.5480  -19.8119   20.5102 C   0  0  2  0  0  0  0  0  0  0  0  0
    7.3762  -20.3326   19.1889 N   0  0  0  0  0  0  0  0  0  0  0  0
    8.3716  -18.5702   20.5302 C   0  0  0  0  0  0  0  0  0  0  0  0
    9.6024  -18.6664   20.2521 O   0  0  0  0  0  0  0  0  0  0  0  0
    7.5529  -12.2405   18.3935 C   0  0  0  0  0  0  0  0  0  0  0  0
    7.6191  -12.1900   20.2025 S   0  0  0  0  0  0  0  0  0  0  0  0
    8.5141  -13.6282   20.7979 C   0  0  0  0  0  0  0  0  0  0  0  0
    7.8063  -14.9246   20.5727 C   0  0  0  0  0  0  0  0  0  0  0  0
    8.5884  -16.1212   21.0681 C   0  0  2  0  0  0  0  0  0  0  0  0
    7.8056  -17.3222   20.8488 N   0  0  0  0  0  0  0  0  0  0  0  0
    8.7646  -15.9536   22.5384 C   0  0  0  0  0  0  0  0  0  0  0  0
    7.7808  -15.7460   23.2672 O   0  0  0  0  0  0  0  0  0  0  0  0
   10.5622  -14.6607   30.8087 O   0  0  0  0  0  0  0  0  0  0  0  0
   10.2684  -15.0625   29.5134 C   0  0  0  0  0  0  0  0  0  0  0  0
   10.3876  -16.3625   29.0713 C   0  0  0  0  0  0  0  0  0  0  0  0
   10.0971  -16.7637   27.7881 C   0  0  0  0  0  0  0  0  0  0  0  0
    9.6504  -15.8259   26.8424 C   0  0  0  0  0  0  0  0  0  0  0  0
    9.3544  -16.2269   25.4556 C   0  0  0  0  0  0  0  0  0  0  0  0
   10.3289  -15.6324   24.4979 C   0  0  2  0  0  0  0  0  0  0  0  0
   10.0624  -16.0295   23.1236 N   0  0  0  0  0  0  0  0  0  0  0  0
   11.7589  -15.8773   24.8452 C   0  0  0  0  0  0  0  0  0  0  0  0
   12.6543  -16.5495   24.0398 O   0  0  0  0  0  0  0  0  0  0  0  0
    9.5350  -14.5299   27.2950 C   0  0  0  0  0  0  0  0  0  0  0  0
    9.8260  -14.1301   28.5798 C   0  0  0  0  0  0  0  0  0  0  0  0
   12.1950  -15.4439   25.9561 O   0  0  0  0  0  0  0  0  0  0  0  0
  2  1  1  0
  3  2  1  0
  3  4  1  1
  5  3  1  0
  5  6  1  6
  7  5  1  0
  7  8  2  0
  9 10  1  0
 10 11  1  0
 11 12  1  0
 13 12  1  1
 13 14  1  0
 14  7  1  0
 15 13  1  0
 16 15  2  0
 18 28  2  0
 18 17  1  0
 19 18  1  0
 20 21  1  0
 20 19  2  0
 21 27  2  0
 22 21  1  0
 23 22  1  1
 23 24  1  0
 24 15  1  0
 25 26  1  0
 25 23  1  0
 27 28  1  0
 29 25  2  0
M  END
$$$$
