KGD.pdb
     RDKit          3D

 22 21  0  0  1  0  0  0  0  0999 V2000
   17.8953  -11.3518  -17.5808 N   0  0  0  0  0  0  0  0  0  0  0  0
   18.6467  -11.3702  -16.3193 C   0  0  1  0  0  0  0  0  0  0  0  0
   19.2834  -12.7124  -16.2066 C   0  0  0  0  0  0  0  0  0  0  0  0
   18.2719  -13.8108  -16.2901 C   0  0  0  0  0  0  0  0  0  0  0  0
   18.9715  -15.1482  -16.1434 C   0  0  0  0  0  0  0  0  0  0  0  0
   17.9880  -16.2897  -16.4172 C   0  0  0  0  0  0  0  0  0  0  0  0
   18.7540  -17.5149  -16.2776 N   0  0  0  0  0  0  0  0  0  0  0  0
   19.6536  -10.2868  -16.3339 C   0  0  0  0  0  0  0  0  0  0  0  0
   20.4408  -10.0542  -15.3814 O   0  0  0  0  0  0  0  0  0  0  0  0
   19.7326   -9.4533  -17.5100 N   0  0  0  0  0  0  0  0  0  0  0  0
   20.7864   -8.4631  -17.5846 C   0  0  0  0  0  0  0  0  0  0  0  0
   20.4337   -7.2883  -16.7574 C   0  0  0  0  0  0  0  0  0  0  0  0
   19.2263   -7.0182  -16.5563 O   0  0  0  0  0  0  0  0  0  0  0  0
   21.4703   -6.4990  -16.2139 N   0  0  0  0  0  0  0  0  0  0  0  0
   21.1035   -5.3081  -15.4363 C   0  0  1  0  0  0  0  0  0  0  0  0
   22.0267   -5.2049  -14.2496 C   0  0  0  0  0  0  0  0  0  0  0  0
   21.6853   -6.2319  -13.2520 C   0  0  0  0  0  0  0  0  0  0  0  0
   20.4657   -6.4407  -12.9392 O   0  0  0  0  0  0  0  0  0  0  0  0
   21.3475   -4.1312  -16.3471 C   0  0  0  0  0  0  0  0  0  0  0  0
   21.1374   -2.9476  -16.0117 O   0  0  0  0  0  0  0  0  0  0  0  0
   22.6271   -7.0098  -12.6079 O   0  0  0  0  0  0  0  0  0  0  0  0
   21.8301   -4.3310  -17.6316 O   0  0  0  0  0  0  0  0  0  0  0  0
  2  1  1  6
  2  8  1  0
  3  2  1  0
  4  3  1  0
  5  4  1  0
  6  7  1  0
  6  5  1  0
  8 10  1  0
  9  8  2  0
 10 11  1  0
 12 14  1  0
 12 11  1  0
 13 12  2  0
 15 16  1  1
 15 14  1  0
 16 17  1  0
 17 18  2  0
 17 21  1  0
 19 15  1  0
 19 22  1  0
 20 19  2  0
M  END
$$$$
