KGD.pdb
     RDKit          3D

 22 21  0  0  1  0  0  0  0  0999 V2000
   19.5141  -22.0617  -13.9209 N   0  0  0  0  0  0  0  0  0  0  0  0
   19.7190  -21.2297  -12.7285 C   0  0  1  0  0  0  0  0  0  0  0  0
   19.7792  -22.1480  -11.5569 C   0  0  0  0  0  0  0  0  0  0  0  0
   18.5056  -22.9143  -11.3915 C   0  0  0  0  0  0  0  0  0  0  0  0
   18.5702  -23.7226  -10.1101 C   0  0  0  0  0  0  0  0  0  0  0  0
   17.2770  -24.5219   -9.9259 C   0  0  0  0  0  0  0  0  0  0  0  0
   17.4826  -25.3421   -8.7459 N   0  0  0  0  0  0  0  0  0  0  0  0
   20.9700  -20.4555  -12.8813 C   0  0  0  0  0  0  0  0  0  0  0  0
   21.3876  -19.6306  -12.0290 O   0  0  0  0  0  0  0  0  0  0  0  0
   21.7511  -20.6625  -14.0776 N   0  0  0  0  0  0  0  0  0  0  0  0
   22.9685  -19.8973  -14.2480 C   0  0  0  0  0  0  0  0  0  0  0  0
   22.7573  -18.8308  -15.2515 C   0  0  0  0  0  0  0  0  0  0  0  0
   21.5918  -18.5618  -15.6265 O   0  0  0  0  0  0  0  0  0  0  0  0
   23.8782  -18.1413  -15.7624 N   0  0  0  0  0  0  0  0  0  0  0  0
   23.6490  -17.0650  -16.7353 C   0  0  1  0  0  0  0  0  0  0  0  0
   24.9538  -16.3518  -16.9805 C   0  0  0  0  0  0  0  0  0  0  0  0
   26.0281  -17.3295  -17.2177 C   0  0  0  0  0  0  0  0  0  0  0  0
   25.7780  -18.5802  -17.1700 O   0  0  0  0  0  0  0  0  0  0  0  0
   23.2198  -17.7473  -18.0098 C   0  0  0  0  0  0  0  0  0  0  0  0
   23.2479  -18.9846  -18.1700 O   0  0  0  0  0  0  0  0  0  0  0  0
   27.3332  -16.9738  -17.4952 O   0  0  0  0  0  0  0  0  0  0  0  0
   22.7637  -16.9975  -19.0834 O   0  0  0  0  0  0  0  0  0  0  0  0
  2  1  1  6
  2  8  1  0
  3  2  1  0
  4  3  1  0
  5  4  1  0
  6  7  1  0
  6  5  1  0
  8 10  1  0
  9  8  2  0
 10 11  1  0
 12 14  1  0
 12 11  1  0
 13 12  2  0
 15 16  1  6
 15 14  1  0
 16 17  1  0
 17 18  2  0
 17 21  1  0
 19 15  1  0
 19 22  1  0
 20 19  2  0
M  END
$$$$
