KGD.pdb
     RDKit          3D

 22 21  0  0  1  0  0  0  0  0999 V2000
   19.9254  -16.6335  -16.8499 N   0  0  0  0  0  0  0  0  0  0  0  0
   18.9064  -16.3329  -17.8636 C   0  0  1  0  0  0  0  0  0  0  0  0
   18.0335  -17.5347  -17.9790 C   0  0  0  0  0  0  0  0  0  0  0  0
   18.6344  -18.7200  -17.2930 C   0  0  0  0  0  0  0  0  0  0  0  0
   18.0053  -19.9871  -17.8393 C   0  0  0  0  0  0  0  0  0  0  0  0
   18.5755  -21.2115  -17.1177 C   0  0  0  0  0  0  0  0  0  0  0  0
   17.8277  -22.3506  -17.6183 N   0  0  0  0  0  0  0  0  0  0  0  0
   18.1400  -15.1382  -17.4476 C   0  0  0  0  0  0  0  0  0  0  0  0
   17.1829  -14.6595  -18.1078 O   0  0  0  0  0  0  0  0  0  0  0  0
   18.5161  -14.4898  -16.2138 N   0  0  0  0  0  0  0  0  0  0  0  0
   17.7196  -13.3729  -15.7504 C   0  0  0  0  0  0  0  0  0  0  0  0
   18.4795  -12.1130  -15.9059 C   0  0  0  0  0  0  0  0  0  0  0  0
   19.6963  -12.1618  -16.2029 O   0  0  0  0  0  0  0  0  0  0  0  0
   17.8116  -10.8840  -15.7150 N   0  0  0  0  0  0  0  0  0  0  0  0
   18.5846   -9.6430  -15.8549 C   0  0  1  0  0  0  0  0  0  0  0  0
   18.7383   -9.3345  -17.3221 C   0  0  0  0  0  0  0  0  0  0  0  0
   19.5074   -8.0922  -17.5001 C   0  0  0  0  0  0  0  0  0  0  0  0
   19.9597   -7.4676  -16.4831 O   0  0  0  0  0  0  0  0  0  0  0  0
   17.7484   -8.5633  -15.2152 C   0  0  0  0  0  0  0  0  0  0  0  0
   18.1047   -7.3694  -15.1445 O   0  0  0  0  0  0  0  0  0  0  0  0
   19.7801   -7.5362  -18.7343 O   0  0  0  0  0  0  0  0  0  0  0  0
   16.5132   -8.8711  -14.6653 O   0  0  0  0  0  0  0  0  0  0  0  0
  2  1  1  1
  2  8  1  0
  3  2  1  0
  4  3  1  0
  5  4  1  0
  6  7  1  0
  6  5  1  0
  8 10  1  0
  9  8  2  0
 10 11  1  0
 12 14  1  0
 12 11  1  0
 13 12  2  0
 15 16  1  6
 15 14  1  0
 16 17  1  0
 17 18  2  0
 17 21  1  0
 19 15  1  0
 19 22  1  0
 20 19  2  0
M  END
$$$$
