KGD.pdb
     RDKit          3D

 22 21  0  0  1  0  0  0  0  0999 V2000
   19.4984  -11.6855  -16.9712 N   0  0  0  0  0  0  0  0  0  0  0  0
   19.9527  -11.6456  -18.3670 C   0  0  1  0  0  0  0  0  0  0  0  0
   18.8796  -12.2624  -19.1961 C   0  0  0  0  0  0  0  0  0  0  0  0
   18.8646  -13.7515  -19.0587 C   0  0  0  0  0  0  0  0  0  0  0  0
   18.1123  -14.1306  -17.7976 C   0  0  0  0  0  0  0  0  0  0  0  0
   17.9831  -15.6534  -17.6993 C   0  0  0  0  0  0  0  0  0  0  0  0
   17.3711  -15.9168  -16.4095 N   0  0  0  0  0  0  0  0  0  0  0  0
   20.2076  -10.2422  -18.7584 C   0  0  0  0  0  0  0  0  0  0  0  0
   20.6283   -9.9006  -19.8931 O   0  0  0  0  0  0  0  0  0  0  0  0
   19.9575   -9.2112  -17.7793 N   0  0  0  0  0  0  0  0  0  0  0  0
   20.2600   -7.8391  -18.1291 C   0  0  0  0  0  0  0  0  0  0  0  0
   19.9113   -6.9435  -17.0043 C   0  0  0  0  0  0  0  0  0  0  0  0
   18.7218   -6.5769  -16.8565 O   0  0  0  0  0  0  0  0  0  0  0  0
   20.9314   -6.5237  -16.1233 N   0  0  0  0  0  0  0  0  0  0  0  0
   20.5846   -6.2991  -14.7138 C   0  0  1  0  0  0  0  0  0  0  0  0
   20.1469   -7.6093  -14.1111 C   0  0  0  0  0  0  0  0  0  0  0  0
   19.7828   -7.4195  -12.6977 C   0  0  0  0  0  0  0  0  0  0  0  0
   19.7018   -6.2431  -12.2094 O   0  0  0  0  0  0  0  0  0  0  0  0
   21.8600   -5.8560  -14.0421 C   0  0  0  0  0  0  0  0  0  0  0  0
   21.9336   -5.5651  -12.8308 O   0  0  0  0  0  0  0  0  0  0  0  0
   19.5163   -8.4633  -11.8338 O   0  0  0  0  0  0  0  0  0  0  0  0
   23.0342   -5.7534  -14.7726 O   0  0  0  0  0  0  0  0  0  0  0  0
  2  1  1  1
  2  8  1  0
  3  2  1  0
  4  3  1  0
  5  4  1  0
  6  7  1  0
  6  5  1  0
  8 10  1  0
  9  8  2  0
 10 11  1  0
 12 14  1  0
 12 11  1  0
 13 12  2  0
 15 16  1  1
 15 14  1  0
 16 17  1  0
 17 18  2  0
 17 21  1  0
 19 15  1  0
 19 22  1  0
 20 19  2  0
M  END
$$$$
