KGD.pdb
     RDKit          3D

 22 21  0  0  1  0  0  0  0  0999 V2000
   17.7264  -10.9979  -17.1448 N   0  0  0  0  0  0  0  0  0  0  0  0
   18.8283  -11.2145  -16.1987 C   0  0  1  0  0  0  0  0  0  0  0  0
   19.4316  -12.5377  -16.5221 C   0  0  0  0  0  0  0  0  0  0  0  0
   18.5304  -13.6648  -16.1295 C   0  0  0  0  0  0  0  0  0  0  0  0
   19.1989  -14.9827  -16.4701 C   0  0  0  0  0  0  0  0  0  0  0  0
   18.2309  -16.1434  -16.2235 C   0  0  0  0  0  0  0  0  0  0  0  0
   18.9510  -17.3466  -16.5992 N   0  0  0  0  0  0  0  0  0  0  0  0
   19.8114  -10.1176  -16.3335 C   0  0  0  0  0  0  0  0  0  0  0  0
   20.7923   -9.9622  -15.5621 O   0  0  0  0  0  0  0  0  0  0  0  0
   19.6300   -9.1761  -17.4127 N   0  0  0  0  0  0  0  0  0  0  0  0
   20.6514   -8.1739  -17.6334 C   0  0  0  0  0  0  0  0  0  0  0  0
   20.3912   -6.9927  -16.7814 C   0  0  0  0  0  0  0  0  0  0  0  0
   19.2098   -6.6984  -16.4830 O   0  0  0  0  0  0  0  0  0  0  0  0
   21.4844   -6.2250  -16.3249 N   0  0  0  0  0  0  0  0  0  0  0  0
   21.2062   -5.0262  -15.5231 C   0  0  1  0  0  0  0  0  0  0  0  0
   22.1776   -4.9810  -14.3718 C   0  0  0  0  0  0  0  0  0  0  0  0
   21.8387   -6.0171  -13.3827 C   0  0  0  0  0  0  0  0  0  0  0  0
   20.7435   -5.9468  -12.7312 O   0  0  0  0  0  0  0  0  0  0  0  0
   21.4731   -3.8527  -16.4319 C   0  0  0  0  0  0  0  0  0  0  0  0
   21.9323   -3.9682  -17.5865 O   0  0  0  0  0  0  0  0  0  0  0  0
   22.6538   -7.0953  -13.1004 O   0  0  0  0  0  0  0  0  0  0  0  0
   21.2082   -2.5616  -16.0007 O   0  0  0  0  0  0  0  0  0  0  0  0
  2  1  1  6
  2  8  1  0
  3  2  1  0
  4  3  1  0
  5  4  1  0
  6  7  1  0
  6  5  1  0
  8 10  1  0
  9  8  2  0
 10 11  1  0
 12 14  1  0
 12 11  1  0
 13 12  2  0
 15 16  1  1
 15 14  1  0
 16 17  1  0
 17 18  2  0
 17 21  1  0
 19 15  1  0
 19 22  1  0
 20 19  2  0
M  END
$$$$
