KGD.pdb
     RDKit          3D

 22 21  0  0  1  0  0  0  0  0999 V2000
   26.5925  -21.0032  -15.8328 N   0  0  0  0  0  0  0  0  0  0  0  0
   25.8269  -22.2556  -15.7937 C   0  0  1  0  0  0  0  0  0  0  0  0
   26.7851  -23.3461  -15.4587 C   0  0  0  0  0  0  0  0  0  0  0  0
   27.7464  -23.5974  -16.5765 C   0  0  0  0  0  0  0  0  0  0  0  0
   27.9121  -25.0925  -16.7680 C   0  0  0  0  0  0  0  0  0  0  0  0
   28.8638  -25.3717  -17.9348 C   0  0  0  0  0  0  0  0  0  0  0  0
   29.0133  -26.8146  -17.9880 N   0  0  0  0  0  0  0  0  0  0  0  0
   24.7534  -22.1412  -14.7826 C   0  0  0  0  0  0  0  0  0  0  0  0
   23.7276  -22.8684  -14.7699 O   0  0  0  0  0  0  0  0  0  0  0  0
   24.8967  -21.1372  -13.7552 N   0  0  0  0  0  0  0  0  0  0  0  0
   23.8484  -21.0087  -12.7647 C   0  0  0  0  0  0  0  0  0  0  0  0
   22.7045  -20.2638  -13.3351 C   0  0  0  0  0  0  0  0  0  0  0  0
   22.8995  -19.1372  -13.8491 O   0  0  0  0  0  0  0  0  0  0  0  0
   21.4182  -20.8434  -13.2854 N   0  0  0  0  0  0  0  0  0  0  0  0
   20.2972  -20.1009  -13.8765 C   0  0  1  0  0  0  0  0  0  0  0  0
   20.5588  -19.9269  -15.3504 C   0  0  0  0  0  0  0  0  0  0  0  0
   19.4072  -19.2755  -15.9954 C   0  0  0  0  0  0  0  0  0  0  0  0
   18.6149  -18.5484  -15.3080 O   0  0  0  0  0  0  0  0  0  0  0  0
   19.0833  -20.9777  -13.6974 C   0  0  0  0  0  0  0  0  0  0  0  0
   17.9283  -20.6246  -14.0112 O   0  0  0  0  0  0  0  0  0  0  0  0
   19.1143  -19.4038  -17.3387 O   0  0  0  0  0  0  0  0  0  0  0  0
   19.2140  -22.2492  -13.1598 O   0  0  0  0  0  0  0  0  0  0  0  0
  2  1  1  1
  2  8  1  0
  3  2  1  0
  4  3  1  0
  5  4  1  0
  6  7  1  0
  6  5  1  0
  8 10  1  0
  9  8  2  0
 10 11  1  0
 12 14  1  0
 12 11  1  0
 13 12  2  0
 15 16  1  6
 15 14  1  0
 16 17  1  0
 17 18  2  0
 17 21  1  0
 19 15  1  0
 19 22  1  0
 20 19  2  0
M  END
$$$$
