KGD.pdb
     RDKit          3D

 22 21  0  0  1  0  0  0  0  0999 V2000
   18.9616  -14.8043  -17.4192 N   0  0  0  0  0  0  0  0  0  0  0  0
   17.5456  -14.8361  -17.8068 C   0  0  1  0  0  0  0  0  0  0  0  0
   16.9829  -16.1231  -17.3104 C   0  0  0  0  0  0  0  0  0  0  0  0
   17.9877  -17.2283  -17.3836 C   0  0  0  0  0  0  0  0  0  0  0  0
   17.3661  -18.5062  -16.8541 C   0  0  0  0  0  0  0  0  0  0  0  0
   18.3637  -19.6627  -16.9659 C   0  0  0  0  0  0  0  0  0  0  0  0
   17.6780  -20.8298  -16.4414 N   0  0  0  0  0  0  0  0  0  0  0  0
   16.8507  -13.6714  -17.2164 C   0  0  0  0  0  0  0  0  0  0  0  0
   15.6206  -13.4504  -17.3544 O   0  0  0  0  0  0  0  0  0  0  0  0
   17.6333  -12.7400  -16.4393 N   0  0  0  0  0  0  0  0  0  0  0  0
   16.9433  -11.6856  -15.7261 C   0  0  0  0  0  0  0  0  0  0  0  0
   17.4538  -10.3662  -16.1594 C   0  0  0  0  0  0  0  0  0  0  0  0
   18.3280  -10.3096  -17.0559 O   0  0  0  0  0  0  0  0  0  0  0  0
   16.9408   -9.2010  -15.5495 N   0  0  0  0  0  0  0  0  0  0  0  0
   17.4901   -7.9018  -15.9591 C   0  0  1  0  0  0  0  0  0  0  0  0
   16.5464   -6.8165  -15.5087 C   0  0  0  0  0  0  0  0  0  0  0  0
   17.1006   -5.4940  -15.8408 C   0  0  0  0  0  0  0  0  0  0  0  0
   16.9533   -5.0141  -17.0142 O   0  0  0  0  0  0  0  0  0  0  0  0
   18.7934   -7.7535  -15.2151 C   0  0  0  0  0  0  0  0  0  0  0  0
   19.1389   -8.5020  -14.2782 O   0  0  0  0  0  0  0  0  0  0  0  0
   17.7949   -4.7116  -14.9393 O   0  0  0  0  0  0  0  0  0  0  0  0
   19.6825   -6.7464  -15.5587 O   0  0  0  0  0  0  0  0  0  0  0  0
  2  1  1  1
  2  8  1  0
  3  2  1  0
  4  3  1  0
  5  4  1  0
  6  7  1  0
  6  5  1  0
  8 10  1  0
  9  8  2  0
 10 11  1  0
 12 14  1  0
 12 11  1  0
 13 12  2  0
 15 16  1  1
 15 14  1  0
 16 17  1  0
 17 18  2  0
 17 21  1  0
 19 15  1  0
 19 22  1  0
 20 19  2  0
M  END
$$$$
