KGD.pdb
     RDKit          3D

 22 21  0  0  1  0  0  0  0  0999 V2000
   17.5920  -11.6923  -16.3478 N   0  0  0  0  0  0  0  0  0  0  0  0
   18.9762  -12.1274  -16.1223 C   0  0  1  0  0  0  0  0  0  0  0  0
   19.1816  -13.3697  -16.9185 C   0  0  0  0  0  0  0  0  0  0  0  0
   18.0631  -14.3424  -16.7202 C   0  0  0  0  0  0  0  0  0  0  0  0
   18.3253  -15.5835  -17.5511 C   0  0  0  0  0  0  0  0  0  0  0  0
   17.1622  -16.5691  -17.4071 C   0  0  0  0  0  0  0  0  0  0  0  0
   17.5098  -17.7152  -18.2274 N   0  0  0  0  0  0  0  0  0  0  0  0
   19.9013  -11.0512  -16.5395 C   0  0  0  0  0  0  0  0  0  0  0  0
   21.1529  -11.1358  -16.4530 O   0  0  0  0  0  0  0  0  0  0  0  0
   19.3298   -9.8386  -17.0753 N   0  0  0  0  0  0  0  0  0  0  0  0
   20.2252   -8.8069  -17.5549 C   0  0  0  0  0  0  0  0  0  0  0  0
   20.3625   -7.7442  -16.5347 C   0  0  0  0  0  0  0  0  0  0  0  0
   19.5335   -7.6821  -15.5965 O   0  0  0  0  0  0  0  0  0  0  0  0
   21.4277   -6.8244  -16.6449 N   0  0  0  0  0  0  0  0  0  0  0  0
   21.5188   -5.7434  -15.6546 C   0  0  1  0  0  0  0  0  0  0  0  0
   22.1937   -6.2789  -14.4181 C   0  0  0  0  0  0  0  0  0  0  0  0
   22.2812   -5.2261  -13.3932 C   0  0  0  0  0  0  0  0  0  0  0  0
   21.7857   -4.0715  -13.6170 O   0  0  0  0  0  0  0  0  0  0  0  0
   22.4029   -4.6910  -16.2750 C   0  0  0  0  0  0  0  0  0  0  0  0
   23.0886   -4.8861  -17.2993 O   0  0  0  0  0  0  0  0  0  0  0  0
   22.8859   -5.4080  -12.1651 O   0  0  0  0  0  0  0  0  0  0  0  0
   22.4866   -3.4277  -15.7092 O   0  0  0  0  0  0  0  0  0  0  0  0
  2  1  1  6
  2  8  1  0
  3  2  1  0
  4  3  1  0
  5  4  1  0
  6  7  1  0
  6  5  1  0
  8 10  1  0
  9  8  2  0
 10 11  1  0
 12 14  1  0
 12 11  1  0
 13 12  2  0
 15 16  1  1
 15 14  1  0
 16 17  1  0
 17 18  2  0
 17 21  1  0
 19 15  1  0
 19 22  1  0
 20 19  2  0
M  END
$$$$
