KGD.pdb
     RDKit          3D

 22 21  0  0  1  0  0  0  0  0999 V2000
   17.9648  -12.6075  -14.6301 N   0  0  0  0  0  0  0  0  0  0  0  0
   18.7317  -12.0509  -15.7519 C   0  0  1  0  0  0  0  0  0  0  0  0
   18.2917  -12.7659  -16.9826 C   0  0  0  0  0  0  0  0  0  0  0  0
   16.8799  -13.2453  -16.8662 C   0  0  0  0  0  0  0  0  0  0  0  0
   16.5283  -14.0695  -18.0896 C   0  0  0  0  0  0  0  0  0  0  0  0
   15.1061  -14.6226  -17.9610 C   0  0  0  0  0  0  0  0  0  0  0  0
   14.9288  -15.5253  -19.0840 N   0  0  0  0  0  0  0  0  0  0  0  0
   18.4778  -10.5966  -15.8440 C   0  0  0  0  0  0  0  0  0  0  0  0
   19.0718   -9.8352  -16.6494 O   0  0  0  0  0  0  0  0  0  0  0  0
   17.4921  -10.0250  -14.9576 N   0  0  0  0  0  0  0  0  0  0  0  0
   17.1483   -8.6275  -15.1171 C   0  0  0  0  0  0  0  0  0  0  0  0
   18.1202   -7.7830  -14.3883 C   0  0  0  0  0  0  0  0  0  0  0  0
   18.4331   -8.0816  -13.2117 O   0  0  0  0  0  0  0  0  0  0  0  0
   18.6720   -6.6586  -15.0395 N   0  0  0  0  0  0  0  0  0  0  0  0
   19.6018   -5.8057  -14.2875 C   0  0  1  0  0  0  0  0  0  0  0  0
   21.0107   -6.2513  -14.5839 C   0  0  0  0  0  0  0  0  0  0  0  0
   21.9738   -5.3695  -13.9047 C   0  0  0  0  0  0  0  0  0  0  0  0
   21.5583   -4.3999  -13.1863 O   0  0  0  0  0  0  0  0  0  0  0  0
   19.4084   -4.4109  -14.8271 C   0  0  0  0  0  0  0  0  0  0  0  0
   19.9193   -3.3968  -14.3094 O   0  0  0  0  0  0  0  0  0  0  0  0
   23.3429   -5.5235  -13.9971 O   0  0  0  0  0  0  0  0  0  0  0  0
   18.6300   -4.2008  -15.9553 O   0  0  0  0  0  0  0  0  0  0  0  0
  2  1  1  1
  2  8  1  0
  3  2  1  0
  4  3  1  0
  5  4  1  0
  6  7  1  0
  6  5  1  0
  8 10  1  0
  9  8  2  0
 10 11  1  0
 12 14  1  0
 12 11  1  0
 13 12  2  0
 15 16  1  6
 15 14  1  0
 16 17  1  0
 17 18  2  0
 17 21  1  0
 19 15  1  0
 19 22  1  0
 20 19  2  0
M  END
$$$$
