KGD.pdb
     RDKit          3D

 22 21  0  0  1  0  0  0  0  0999 V2000
   14.4992  -10.8026  -14.3254 N   0  0  0  0  0  0  0  0  0  0  0  0
   15.4392  -11.9258  -14.4307 C   0  0  1  0  0  0  0  0  0  0  0  0
   14.7951  -12.9589  -15.2894 C   0  0  0  0  0  0  0  0  0  0  0  0
   13.3198  -13.0287  -15.0547 C   0  0  0  0  0  0  0  0  0  0  0  0
   13.0373  -14.0057  -13.9299 C   0  0  0  0  0  0  0  0  0  0  0  0
   11.5328  -14.0656  -13.6498 C   0  0  0  0  0  0  0  0  0  0  0  0
   11.3604  -15.0793  -12.6252 N   0  0  0  0  0  0  0  0  0  0  0  0
   16.7113  -11.4460  -15.0132 C   0  0  0  0  0  0  0  0  0  0  0  0
   17.6712  -12.2023  -15.3094 O   0  0  0  0  0  0  0  0  0  0  0  0
   16.8531  -10.0295  -15.2532 N   0  0  0  0  0  0  0  0  0  0  0  0
   18.1510   -9.5227  -15.6471 C   0  0  0  0  0  0  0  0  0  0  0  0
   18.5828   -8.4611  -14.7114 C   0  0  0  0  0  0  0  0  0  0  0  0
   17.8143   -8.1072  -13.7865 O   0  0  0  0  0  0  0  0  0  0  0  0
   19.8539   -7.8722  -14.8854 N   0  0  0  0  0  0  0  0  0  0  0  0
   20.2438   -6.7797  -13.9843 C   0  0  1  0  0  0  0  0  0  0  0  0
   21.7485   -6.7212  -13.9216 C   0  0  0  0  0  0  0  0  0  0  0  0
   22.1762   -5.6003  -13.0689 C   0  0  0  0  0  0  0  0  0  0  0  0
   21.6582   -5.4405  -11.9135 O   0  0  0  0  0  0  0  0  0  0  0  0
   19.7336   -5.5146  -14.6272 C   0  0  0  0  0  0  0  0  0  0  0  0
   19.7857   -4.3953  -14.0779 O   0  0  0  0  0  0  0  0  0  0  0  0
   23.1305   -4.6769  -13.4478 O   0  0  0  0  0  0  0  0  0  0  0  0
   19.1702   -5.5536  -15.8937 O   0  0  0  0  0  0  0  0  0  0  0  0
  2  1  1  6
  2  8  1  0
  3  2  1  0
  4  3  1  0
  5  4  1  0
  6  7  1  0
  6  5  1  0
  8 10  1  0
  9  8  2  0
 10 11  1  0
 12 14  1  0
 12 11  1  0
 13 12  2  0
 15 16  1  6
 15 14  1  0
 16 17  1  0
 17 18  2  0
 17 21  1  0
 19 15  1  0
 19 22  1  0
 20 19  2  0
M  END
$$$$
