IHC.pdb
     RDKit          3D

 25 25  0  0  1  0  0  0  0  0999 V2000
    6.8058  -12.7452   26.4779 C   0  0  0  0  0  0  0  0  0  0  0  0
    6.7964  -13.8145   25.4090 C   0  0  0  0  0  0  0  0  0  0  0  0
    7.6589  -13.4284   24.2320 C   0  0  2  0  0  0  0  0  0  0  0  0
    7.1050  -12.1571   23.6293 C   0  0  0  0  0  0  0  0  0  0  0  0
    7.8145  -14.5238   23.2211 C   0  0  2  0  0  0  0  0  0  0  0  0
    6.5133  -14.8883   22.7186 N   0  0  0  0  0  0  0  0  0  0  0  0
    8.6017  -15.6723   23.6679 C   0  0  0  0  0  0  0  0  0  0  0  0
    8.0182  -16.7409   23.9713 O   0  0  0  0  0  0  0  0  0  0  0  0
   10.0188  -15.6528   23.7828 N   0  0  0  0  0  0  0  0  0  0  0  0
   10.7964  -16.7630   24.2942 C   0  0  1  0  0  0  0  0  0  0  0  0
   11.9685  -17.0157   23.3577 C   0  0  0  0  0  0  0  0  0  0  0  0
   11.5081  -17.6064   22.0832 C   0  0  0  0  0  0  0  0  0  0  0  0
   11.5119  -17.0090   20.8187 C   0  0  0  0  0  0  0  0  0  0  0  0
   11.0031  -17.9182   19.9677 N   0  0  0  0  0  0  0  0  0  0  0  0
   10.6842  -19.0426   20.6268 C   0  0  0  0  0  0  0  0  0  0  0  0
   11.0021  -18.8268   21.9164 N   0  0  0  0  0  0  0  0  0  0  0  0
   11.3186  -16.3490   25.6362 C   0  0  0  0  0  0  0  0  0  0  0  0
   12.0246  -15.3233   25.7900 O   0  0  0  0  0  0  0  0  0  0  0  0
   11.0226  -17.1218   26.7932 N   0  0  0  0  0  0  0  0  0  0  0  0
   11.4504  -16.6428   28.1047 C   0  0  1  0  0  0  0  0  0  0  0  0
   10.4801  -15.6200   28.6342 C   0  0  0  0  0  0  0  0  0  0  0  0
   11.3061  -14.6885   29.9577 S   0  0  0  0  0  0  0  0  0  0  0  0
   11.4738  -17.7911   29.0792 C   0  0  0  0  0  0  0  0  0  0  0  0
   12.2140  -17.7208   30.2337 O   0  0  0  0  0  0  0  0  0  0  0  0
   10.8130  -18.8110   28.8286 O   0  0  0  0  0  0  0  0  0  0  0  0
  2  1  1  0
  3  2  1  0
  3  4  1  6
  5  3  1  0
  5  7  1  0
  5  6  1  1
  7  8  2  0
  9  7  1  0
  9 10  1  0
 10 11  1  6
 11 12  1  0
 12 13  2  0
 13 14  1  0
 15 14  1  0
 16 12  1  0
 16 15  2  0
 17 10  1  0
 17 18  2  0
 19 17  1  0
 20 23  1  0
 20 19  1  0
 20 21  1  1
 22 21  1  0
 23 24  1  0
 25 23  2  0
M  END
$$$$
