IHC.pdb
     RDKit          3D

 25 25  0  0  1  0  0  0  0  0999 V2000
    7.3724  -12.1663   19.3046 C   0  0  0  0  0  0  0  0  0  0  0  0
    7.7815  -13.6210   19.2532 C   0  0  0  0  0  0  0  0  0  0  0  0
    7.9406  -14.2006   20.6378 C   0  0  2  0  0  0  0  0  0  0  0  0
    8.9349  -13.3540   21.3998 C   0  0  0  0  0  0  0  0  0  0  0  0
    8.3038  -15.6546   20.6382 C   0  0  2  0  0  0  0  0  0  0  0  0
    7.3195  -16.3854   19.8797 N   0  0  0  0  0  0  0  0  0  0  0  0
    8.5570  -16.2298   21.9586 C   0  0  0  0  0  0  0  0  0  0  0  0
    7.5999  -16.4007   22.7518 O   0  0  0  0  0  0  0  0  0  0  0  0
    9.8490  -16.6159   22.4095 N   0  0  0  0  0  0  0  0  0  0  0  0
   10.0980  -17.2268   23.6993 C   0  0  1  0  0  0  0  0  0  0  0  0
   11.3332  -18.1089   23.5960 C   0  0  0  0  0  0  0  0  0  0  0  0
   11.0116  -19.3925   22.9370 C   0  0  0  0  0  0  0  0  0  0  0  0
    9.7596  -19.8304   22.4935 C   0  0  0  0  0  0  0  0  0  0  0  0
    9.9507  -21.0516   21.9626 N   0  0  0  0  0  0  0  0  0  0  0  0
   11.2441  -21.3978   22.0496 C   0  0  0  0  0  0  0  0  0  0  0  0
   11.8705  -20.3682   22.6481 N   0  0  0  0  0  0  0  0  0  0  0  0
   10.3673  -16.1133   24.6652 C   0  0  0  0  0  0  0  0  0  0  0  0
   11.0632  -15.1160   24.3565 O   0  0  0  0  0  0  0  0  0  0  0  0
    9.8314  -16.1578   25.9821 N   0  0  0  0  0  0  0  0  0  0  0  0
   10.1449  -15.0839   26.9208 C   0  0  1  0  0  0  0  0  0  0  0  0
    8.9287  -14.2320   27.1719 C   0  0  0  0  0  0  0  0  0  0  0  0
    9.3559  -12.9928   28.4304 S   0  0  0  0  0  0  0  0  0  0  0  0
   10.5645  -15.6739   28.2417 C   0  0  0  0  0  0  0  0  0  0  0  0
   11.2417  -14.9189   29.1675 O   0  0  0  0  0  0  0  0  0  0  0  0
   10.2910  -16.8585   28.4896 O   0  0  0  0  0  0  0  0  0  0  0  0
  2  1  1  0
  3  2  1  0
  3  4  1  6
  5  3  1  0
  5  7  1  0
  5  6  1  1
  7  8  2  0
  9  7  1  0
  9 10  1  0
 10 11  1  6
 11 12  1  0
 12 13  2  0
 13 14  1  0
 15 14  1  0
 16 12  1  0
 16 15  2  0
 17 10  1  0
 17 18  2  0
 19 17  1  0
 20 23  1  0
 20 19  1  0
 20 21  1  1
 22 21  1  0
 23 24  1  0
 25 23  2  0
M  END
$$$$
