IHC.pdb
     RDKit          3D

 25 25  0  0  1  0  0  0  0  0999 V2000
    7.1064  -11.9707   19.2047 C   0  0  0  0  0  0  0  0  0  0  0  0
    7.8381  -13.1621   18.6293 C   0  0  0  0  0  0  0  0  0  0  0  0
    8.0828  -14.2206   19.6772 C   0  0  2  0  0  0  0  0  0  0  0  0
    8.8012  -13.5818   20.8442 C   0  0  0  0  0  0  0  0  0  0  0  0
    8.7998  -15.4270   19.1511 C   0  0  2  0  0  0  0  0  0  0  0  0
    8.0586  -15.9665   18.0386 N   0  0  0  0  0  0  0  0  0  0  0  0
    9.1421  -16.4319   20.1567 C   0  0  0  0  0  0  0  0  0  0  0  0
    8.2604  -17.2292   20.5584 O   0  0  0  0  0  0  0  0  0  0  0  0
   10.4407  -16.5645   20.7203 N   0  0  0  0  0  0  0  0  0  0  0  0
   10.7683  -17.5156   21.7629 C   0  0  1  0  0  0  0  0  0  0  0  0
   12.1036  -18.1661   21.4340 C   0  0  0  0  0  0  0  0  0  0  0  0
   11.9508  -19.1724   20.3619 C   0  0  0  0  0  0  0  0  0  0  0  0
   11.1184  -20.2963   20.3630 C   0  0  0  0  0  0  0  0  0  0  0  0
   11.3132  -20.9142   19.1841 N   0  0  0  0  0  0  0  0  0  0  0  0
   12.2151  -20.2426   18.4520 C   0  0  0  0  0  0  0  0  0  0  0  0
   12.5889  -19.1835   19.1932 N   0  0  0  0  0  0  0  0  0  0  0  0
   10.8997  -16.7385   23.0373 C   0  0  0  0  0  0  0  0  0  0  0  0
   11.8974  -16.0171   23.2791 O   0  0  0  0  0  0  0  0  0  0  0  0
    9.8782  -16.7988   24.0254 N   0  0  0  0  0  0  0  0  0  0  0  0
   10.1469  -16.2888   25.3671 C   0  0  1  0  0  0  0  0  0  0  0  0
    8.8571  -16.0202   26.0968 C   0  0  0  0  0  0  0  0  0  0  0  0
    7.8443  -14.9168   25.0681 S   0  0  0  0  0  0  0  0  0  0  0  0
   10.9071  -17.3215   26.1574 C   0  0  0  0  0  0  0  0  0  0  0  0
   11.4584  -17.0111   27.3761 O   0  0  0  0  0  0  0  0  0  0  0  0
   11.0326  -18.4660   25.6946 O   0  0  0  0  0  0  0  0  0  0  0  0
  2  1  1  0
  3  2  1  0
  3  4  1  1
  5  3  1  0
  5  7  1  0
  5  6  1  6
  7  8  2  0
  9  7  1  0
  9 10  1  0
 10 11  1  6
 11 12  1  0
 12 13  2  0
 13 14  1  0
 15 14  1  0
 16 12  1  0
 16 15  2  0
 17 10  1  0
 17 18  2  0
 19 17  1  0
 20 23  1  0
 20 19  1  0
 20 21  1  1
 22 21  1  0
 23 24  1  0
 25 23  2  0
M  END
$$$$
