IHC.pdb
     RDKit          3D

 25 25  0  0  1  0  0  0  0  0999 V2000
    7.0683  -12.0396   19.7985 C   0  0  0  0  0  0  0  0  0  0  0  0
    7.8364  -12.7137   18.6842 C   0  0  0  0  0  0  0  0  0  0  0  0
    8.7672  -13.7758   19.2171 C   0  0  2  0  0  0  0  0  0  0  0  0
    9.7476  -13.1216   20.1643 C   0  0  0  0  0  0  0  0  0  0  0  0
    9.4475  -14.5676   18.1419 C   0  0  2  0  0  0  0  0  0  0  0  0
    8.4534  -15.0655   17.2242 N   0  0  0  0  0  0  0  0  0  0  0  0
   10.3610  -15.6047   18.6197 C   0  0  0  0  0  0  0  0  0  0  0  0
    9.8953  -16.6861   19.0535 O   0  0  0  0  0  0  0  0  0  0  0  0
   11.7755  -15.4605   18.6237 N   0  0  0  0  0  0  0  0  0  0  0  0
   12.6803  -16.4519   19.1689 C   0  0  1  0  0  0  0  0  0  0  0  0
   14.0407  -16.2940   18.5063 C   0  0  0  0  0  0  0  0  0  0  0  0
   14.0619  -16.9495   17.1815 C   0  0  0  0  0  0  0  0  0  0  0  0
   13.4379  -18.1462   16.8148 C   0  0  0  0  0  0  0  0  0  0  0  0
   13.7335  -18.3466   15.5178 N   0  0  0  0  0  0  0  0  0  0  0  0
   14.5024  -17.3479   15.0578 C   0  0  0  0  0  0  0  0  0  0  0  0
   14.6885  -16.5081   16.0926 N   0  0  0  0  0  0  0  0  0  0  0  0
   12.8099  -16.1661   20.6341 C   0  0  0  0  0  0  0  0  0  0  0  0
   13.1637  -15.0425   21.0659 O   0  0  0  0  0  0  0  0  0  0  0  0
   12.5303  -17.1795   21.5923 N   0  0  0  0  0  0  0  0  0  0  0  0
   12.5862  -16.8562   23.0153 C   0  0  1  0  0  0  0  0  0  0  0  0
   11.3284  -17.3098   23.7085 C   0  0  0  0  0  0  0  0  0  0  0  0
   11.5223  -17.0049   25.4892 S   0  0  0  0  0  0  0  0  0  0  0  0
   13.7413  -17.5825   23.6535 C   0  0  0  0  0  0  0  0  0  0  0  0
   14.4323  -17.0248   24.7009 O   0  0  0  0  0  0  0  0  0  0  0  0
   14.0670  -18.6992   23.2215 O   0  0  0  0  0  0  0  0  0  0  0  0
  2  1  1  0
  3  2  1  0
  3  4  1  6
  5  3  1  0
  5  7  1  0
  5  6  1  1
  7  8  2  0
  9  7  1  0
  9 10  1  0
 10 11  1  6
 11 12  1  0
 12 13  2  0
 13 14  1  0
 15 14  1  0
 16 12  1  0
 16 15  2  0
 17 10  1  0
 17 18  2  0
 19 17  1  0
 20 23  1  0
 20 19  1  0
 20 21  1  1
 22 21  1  0
 23 24  1  0
 25 23  2  0
M  END
$$$$
