IHC.pdb
     RDKit          3D

 25 25  0  0  1  0  0  0  0  0999 V2000
    7.2543  -11.9518   19.3769 C   0  0  0  0  0  0  0  0  0  0  0  0
    7.7964  -13.3513   19.1936 C   0  0  0  0  0  0  0  0  0  0  0  0
    7.9782  -14.0525   20.5179 C   0  0  2  0  0  0  0  0  0  0  0  0
    8.8515  -13.1896   21.4005 C   0  0  0  0  0  0  0  0  0  0  0  0
    8.4984  -15.4517   20.3861 C   0  0  2  0  0  0  0  0  0  0  0  0
    7.6343  -16.1933   19.5019 N   0  0  0  0  0  0  0  0  0  0  0  0
    8.7551  -16.1393   21.6509 C   0  0  0  0  0  0  0  0  0  0  0  0
    7.7903  -16.5804   22.3211 O   0  0  0  0  0  0  0  0  0  0  0  0
   10.0588  -16.3433   22.1804 N   0  0  0  0  0  0  0  0  0  0  0  0
   10.3159  -17.0017   23.4450 C   0  0  1  0  0  0  0  0  0  0  0  0
   11.6415  -17.7427   23.3535 C   0  0  0  0  0  0  0  0  0  0  0  0
   11.5291  -18.9179   22.4637 C   0  0  0  0  0  0  0  0  0  0  0  0
   10.4522  -19.8039   22.3572 C   0  0  0  0  0  0  0  0  0  0  0  0
   10.7976  -20.7110   21.4258 N   0  0  0  0  0  0  0  0  0  0  0  0
   12.0223  -20.4419   20.9482 C   0  0  0  0  0  0  0  0  0  0  0  0
   12.4472  -19.3427   21.5978 N   0  0  0  0  0  0  0  0  0  0  0  0
   10.4233  -15.9266   24.4832 C   0  0  0  0  0  0  0  0  0  0  0  0
   11.5176  -15.6186   25.0140 O   0  0  0  0  0  0  0  0  0  0  0  0
    9.2662  -15.2134   24.9026 N   0  0  0  0  0  0  0  0  0  0  0  0
    9.3466  -14.3383   26.0690 C   0  0  1  0  0  0  0  0  0  0  0  0
    7.9800  -13.8224   26.4357 C   0  0  0  0  0  0  0  0  0  0  0  0
    8.1552  -12.7324   27.8789 S   0  0  0  0  0  0  0  0  0  0  0  0
    9.8682  -15.1158   27.2491 C   0  0  0  0  0  0  0  0  0  0  0  0
    9.3412  -16.3414   27.5742 O   0  0  0  0  0  0  0  0  0  0  0  0
   10.7865  -14.6359   27.9318 O   0  0  0  0  0  0  0  0  0  0  0  0
  2  1  1  0
  3  2  1  0
  3  4  1  1
  5  3  1  0
  5  7  1  0
  5  6  1  1
  7  8  2  0
  9  7  1  0
  9 10  1  0
 10 11  1  6
 11 12  1  0
 12 13  2  0
 13 14  1  0
 15 14  1  0
 16 12  1  0
 16 15  2  0
 17 10  1  0
 17 18  2  0
 19 17  1  0
 20 23  1  0
 20 19  1  0
 20 21  1  1
 22 21  1  0
 23 24  1  0
 25 23  2  0
M  END
$$$$
