IHC.pdb
     RDKit          3D

 25 25  0  0  1  0  0  0  0  0999 V2000
    6.9206  -11.9509   28.0579 C   0  0  0  0  0  0  0  0  0  0  0  0
    6.2453  -12.7266   26.9496 C   0  0  0  0  0  0  0  0  0  0  0  0
    7.2363  -13.5595   26.1733 C   0  0  2  0  0  0  0  0  0  0  0  0
    8.3037  -12.6420   25.6208 C   0  0  0  0  0  0  0  0  0  0  0  0
    6.6021  -14.4078   25.1131 C   0  0  2  0  0  0  0  0  0  0  0  0
    5.4993  -15.1353   25.6901 N   0  0  0  0  0  0  0  0  0  0  0  0
    7.5263  -15.2600   24.3661 C   0  0  0  0  0  0  0  0  0  0  0  0
    7.5646  -16.4906   24.6081 O   0  0  0  0  0  0  0  0  0  0  0  0
    8.4038  -14.7699   23.3604 N   0  0  0  0  0  0  0  0  0  0  0  0
    9.3177  -15.6114   22.6150 C   0  0  1  0  0  0  0  0  0  0  0  0
    9.8259  -14.8375   21.4077 C   0  0  0  0  0  0  0  0  0  0  0  0
    8.7177  -14.5107   20.4855 C   0  0  0  0  0  0  0  0  0  0  0  0
    8.4300  -13.2698   19.9080 C   0  0  0  0  0  0  0  0  0  0  0  0
    7.3362  -13.4502   19.1460 N   0  0  0  0  0  0  0  0  0  0  0  0
    6.9280  -14.7265   19.2154 C   0  0  0  0  0  0  0  0  0  0  0  0
    7.7878  -15.3530   20.0393 N   0  0  0  0  0  0  0  0  0  0  0  0
   10.4689  -15.9180   23.5237 C   0  0  0  0  0  0  0  0  0  0  0  0
   11.2532  -15.0273   23.9308 O   0  0  0  0  0  0  0  0  0  0  0  0
   10.7079  -17.2515   23.9573 N   0  0  0  0  0  0  0  0  0  0  0  0
   11.8452  -17.5290   24.8303 C   0  0  1  0  0  0  0  0  0  0  0  0
   11.4141  -18.3622   26.0084 C   0  0  0  0  0  0  0  0  0  0  0  0
   10.1752  -17.4192   26.9453 S   0  0  0  0  0  0  0  0  0  0  0  0
   12.8823  -18.3175   24.0740 C   0  0  0  0  0  0  0  0  0  0  0  0
   14.1134  -18.5737   24.6256 O   0  0  0  0  0  0  0  0  0  0  0  0
   12.6132  -18.7378   22.9380 O   0  0  0  0  0  0  0  0  0  0  0  0
  2  1  1  0
  3  2  1  0
  3  4  1  6
  5  3  1  0
  5  7  1  0
  5  6  1  1
  7  8  2  0
  9  7  1  0
  9 10  1  0
 10 11  1  6
 11 12  1  0
 12 13  2  0
 13 14  1  0
 15 14  1  0
 16 12  1  0
 16 15  2  0
 17 10  1  0
 17 18  2  0
 19 17  1  0
 20 23  1  0
 20 19  1  0
 20 21  1  1
 22 21  1  0
 23 24  1  0
 25 23  2  0
M  END
$$$$
