IHC.pdb
     RDKit          3D

 25 25  0  0  1  0  0  0  0  0999 V2000
    7.5158  -11.9873   18.9804 C   0  0  0  0  0  0  0  0  0  0  0  0
    7.9756  -13.4220   19.1079 C   0  0  0  0  0  0  0  0  0  0  0  0
    7.6889  -13.9752   20.4827 C   0  0  2  0  0  0  0  0  0  0  0  0
    8.2892  -13.0413   21.5092 C   0  0  0  0  0  0  0  0  0  0  0  0
    8.1402  -15.3931   20.6617 C   0  0  2  0  0  0  0  0  0  0  0  0
    7.4199  -16.2357   19.7402 N   0  0  0  0  0  0  0  0  0  0  0  0
    8.1069  -15.8849   22.0385 C   0  0  0  0  0  0  0  0  0  0  0  0
    7.0131  -16.2378   22.5421 O   0  0  0  0  0  0  0  0  0  0  0  0
    9.2624  -15.9903   22.8601 N   0  0  0  0  0  0  0  0  0  0  0  0
    9.2277  -16.4363   24.2381 C   0  0  1  0  0  0  0  0  0  0  0  0
   10.3909  -17.3873   24.4772 C   0  0  0  0  0  0  0  0  0  0  0  0
   10.1327  -18.7037   23.8561 C   0  0  0  0  0  0  0  0  0  0  0  0
    9.2329  -19.6846   24.2852 C   0  0  0  0  0  0  0  0  0  0  0  0
    9.3413  -20.7056   23.4161 N   0  0  0  0  0  0  0  0  0  0  0  0
   10.2529  -20.4182   22.4745 C   0  0  0  0  0  0  0  0  0  0  0  0
   10.7214  -19.1908   22.7654 N   0  0  0  0  0  0  0  0  0  0  0  0
    9.4019  -15.2198   25.0954 C   0  0  0  0  0  0  0  0  0  0  0  0
   10.4211  -14.4917   25.0212 O   0  0  0  0  0  0  0  0  0  0  0  0
    8.3983  -14.8509   26.0335 N   0  0  0  0  0  0  0  0  0  0  0  0
    8.6155  -13.6949   26.8990 C   0  0  1  0  0  0  0  0  0  0  0  0
    7.2987  -13.1068   27.3329 C   0  0  0  0  0  0  0  0  0  0  0  0
    6.2342  -12.9604   25.8676 S   0  0  0  0  0  0  0  0  0  0  0  0
    9.3502  -14.1249   28.1417 C   0  0  0  0  0  0  0  0  0  0  0  0
    9.6689  -15.4442   28.3510 O   0  0  0  0  0  0  0  0  0  0  0  0
    9.6684  -13.2701   28.9829 O   0  0  0  0  0  0  0  0  0  0  0  0
  2  1  1  0
  3  2  1  0
  3  4  1  1
  5  3  1  0
  5  7  1  0
  5  6  1  6
  7  8  2  0
  9  7  1  0
  9 10  1  0
 10 11  1  6
 11 12  1  0
 12 13  2  0
 13 14  1  0
 15 14  1  0
 16 12  1  0
 16 15  2  0
 17 10  1  0
 17 18  2  0
 19 17  1  0
 20 23  1  0
 20 19  1  0
 20 21  1  1
 22 21  1  0
 23 24  1  0
 25 23  2  0
M  END
$$$$
