IHC.pdb
     RDKit          3D

 25 25  0  0  1  0  0  0  0  0999 V2000
    7.2872  -12.3398   19.5752 C   0  0  0  0  0  0  0  0  0  0  0  0
    7.8582  -13.7385   19.5162 C   0  0  0  0  0  0  0  0  0  0  0  0
    7.9888  -14.3418   20.8937 C   0  0  2  0  0  0  0  0  0  0  0  0
    8.7412  -13.3688   21.7731 C   0  0  0  0  0  0  0  0  0  0  0  0
    8.6037  -15.7085   20.8910 C   0  0  2  0  0  0  0  0  0  0  0  0
    7.8356  -16.5680   20.0252 N   0  0  0  0  0  0  0  0  0  0  0  0
    8.8384  -16.2851   22.2142 C   0  0  0  0  0  0  0  0  0  0  0  0
    7.8652  -16.7005   22.8885 O   0  0  0  0  0  0  0  0  0  0  0  0
   10.1295  -16.4068   22.7971 N   0  0  0  0  0  0  0  0  0  0  0  0
   10.3804  -17.0812   24.0546 C   0  0  1  0  0  0  0  0  0  0  0  0
   11.6250  -17.9442   23.9105 C   0  0  0  0  0  0  0  0  0  0  0  0
   11.3381  -19.1553   23.1129 C   0  0  0  0  0  0  0  0  0  0  0  0
   10.3251  -20.0952   23.3284 C   0  0  0  0  0  0  0  0  0  0  0  0
   10.4511  -21.0184   22.3581 N   0  0  0  0  0  0  0  0  0  0  0  0
   11.4799  -20.7089   21.5543 C   0  0  0  0  0  0  0  0  0  0  0  0
   12.0047  -19.5674   22.0363 N   0  0  0  0  0  0  0  0  0  0  0  0
   10.6351  -16.0166   25.0778 C   0  0  0  0  0  0  0  0  0  0  0  0
   10.9057  -14.8341   24.7572 O   0  0  0  0  0  0  0  0  0  0  0  0
   10.5758  -16.3235   26.4655 N   0  0  0  0  0  0  0  0  0  0  0  0
   10.4576  -15.2384   27.4357 C   0  0  1  0  0  0  0  0  0  0  0  0
    9.0772  -14.6380   27.3891 C   0  0  0  0  0  0  0  0  0  0  0  0
    9.2227  -12.8581   27.7242 S   0  0  0  0  0  0  0  0  0  0  0  0
   10.6692  -15.7784   28.8259 C   0  0  0  0  0  0  0  0  0  0  0  0
   10.7345  -17.1309   29.0544 O   0  0  0  0  0  0  0  0  0  0  0  0
   10.7853  -14.9843   29.7723 O   0  0  0  0  0  0  0  0  0  0  0  0
  2  1  1  0
  3  2  1  0
  3  4  1  1
  5  3  1  0
  5  7  1  0
  5  6  1  6
  7  8  2  0
  9  7  1  0
  9 10  1  0
 10 11  1  6
 11 12  1  0
 12 13  2  0
 13 14  1  0
 15 14  1  0
 16 12  1  0
 16 15  2  0
 17 10  1  0
 17 18  2  0
 19 17  1  0
 20 23  1  0
 20 19  1  0
 20 21  1  1
 22 21  1  0
 23 24  1  0
 25 23  2  0
M  END
$$$$
