IHC.pdb
     RDKit          3D

 25 25  0  0  1  0  0  0  0  0999 V2000
    7.6006  -11.6140   18.8710 C   0  0  0  0  0  0  0  0  0  0  0  0
    8.0426  -12.7905   18.0304 C   0  0  0  0  0  0  0  0  0  0  0  0
    8.7317  -13.8410   18.8671 C   0  0  2  0  0  0  0  0  0  0  0  0
    9.8841  -13.1904   19.5984 C   0  0  0  0  0  0  0  0  0  0  0  0
    9.1550  -15.0458   18.0828 C   0  0  2  0  0  0  0  0  0  0  0  0
    8.0221  -15.5502   17.3477 N   0  0  0  0  0  0  0  0  0  0  0  0
    9.8456  -16.0773   18.8558 C   0  0  0  0  0  0  0  0  0  0  0  0
    9.1765  -16.8844   19.5452 O   0  0  0  0  0  0  0  0  0  0  0  0
   11.2595  -16.2256   18.8754 N   0  0  0  0  0  0  0  0  0  0  0  0
   11.9436  -17.2922   19.5777 C   0  0  1  0  0  0  0  0  0  0  0  0
   13.3346  -17.4592   18.9848 C   0  0  0  0  0  0  0  0  0  0  0  0
   13.3156  -18.4101   17.8531 C   0  0  0  0  0  0  0  0  0  0  0  0
   12.2140  -18.7883   17.0788 C   0  0  0  0  0  0  0  0  0  0  0  0
   12.6723  -19.6700   16.1719 N   0  0  0  0  0  0  0  0  0  0  0  0
   13.9901  -19.8617   16.3363 C   0  0  0  0  0  0  0  0  0  0  0  0
   14.3587  -19.0813   17.3687 N   0  0  0  0  0  0  0  0  0  0  0  0
   12.0661  -16.8647   21.0086 C   0  0  0  0  0  0  0  0  0  0  0  0
   12.2660  -15.6693   21.3330 O   0  0  0  0  0  0  0  0  0  0  0  0
   11.9570  -17.8201   22.0568 N   0  0  0  0  0  0  0  0  0  0  0  0
   11.9125  -17.3623   23.4429 C   0  0  1  0  0  0  0  0  0  0  0  0
   10.5032  -17.0035   23.8343 C   0  0  0  0  0  0  0  0  0  0  0  0
   10.5171  -16.4682   25.5706 S   0  0  0  0  0  0  0  0  0  0  0  0
   12.3673  -18.4707   24.3559 C   0  0  0  0  0  0  0  0  0  0  0  0
   13.0626  -18.1946   25.5075 O   0  0  0  0  0  0  0  0  0  0  0  0
   12.1065  -19.6464   24.0570 O   0  0  0  0  0  0  0  0  0  0  0  0
  2  1  1  0
  3  2  1  0
  3  4  1  6
  5  3  1  0
  5  7  1  0
  5  6  1  1
  7  8  2  0
  9  7  1  0
  9 10  1  0
 10 11  1  6
 11 12  1  0
 12 13  2  0
 13 14  1  0
 15 14  1  0
 16 12  1  0
 16 15  2  0
 17 10  1  0
 17 18  2  0
 19 17  1  0
 20 23  1  0
 20 19  1  0
 20 21  1  1
 22 21  1  0
 23 24  1  0
 25 23  2  0
M  END
$$$$
