IHC.pdb
     RDKit          3D

 25 25  0  0  1  0  0  0  0  0999 V2000
    5.6244  -11.6845   26.2026 C   0  0  0  0  0  0  0  0  0  0  0  0
    5.5117  -12.9837   25.4375 C   0  0  0  0  0  0  0  0  0  0  0  0
    6.8241  -13.7289   25.4155 C   0  0  2  0  0  0  0  0  0  0  0  0
    7.8791  -12.8231   24.8216 C   0  0  0  0  0  0  0  0  0  0  0  0
    6.7465  -15.0543   24.7203 C   0  0  2  0  0  0  0  0  0  0  0  0
    5.6270  -15.7957   25.2450 N   0  0  0  0  0  0  0  0  0  0  0  0
    7.9911  -15.8219   24.7087 C   0  0  0  0  0  0  0  0  0  0  0  0
    8.1764  -16.7114   25.5741 O   0  0  0  0  0  0  0  0  0  0  0  0
    9.0274  -15.6184   23.7567 N   0  0  0  0  0  0  0  0  0  0  0  0
   10.2120  -16.4481   23.6723 C   0  0  1  0  0  0  0  0  0  0  0  0
   10.9097  -16.1767   22.3479 C   0  0  0  0  0  0  0  0  0  0  0  0
   10.2354  -16.8871   21.2407 C   0  0  0  0  0  0  0  0  0  0  0  0
    9.1332  -17.7437   21.3263 C   0  0  0  0  0  0  0  0  0  0  0  0
    8.8720  -18.1528   20.0717 N   0  0  0  0  0  0  0  0  0  0  0  0
    9.7444  -17.6026   19.2134 C   0  0  0  0  0  0  0  0  0  0  0  0
   10.5661  -16.8343   19.9518 N   0  0  0  0  0  0  0  0  0  0  0  0
   11.1134  -16.0381   24.7969 C   0  0  0  0  0  0  0  0  0  0  0  0
   11.8767  -15.0459   24.7124 O   0  0  0  0  0  0  0  0  0  0  0  0
   11.1281  -16.7762   26.0128 N   0  0  0  0  0  0  0  0  0  0  0  0
   11.4735  -16.0984   27.2594 C   0  0  1  0  0  0  0  0  0  0  0  0
   10.4561  -15.0353   27.5803 C   0  0  0  0  0  0  0  0  0  0  0  0
   10.9634  -14.2127   29.1190 S   0  0  0  0  0  0  0  0  0  0  0  0
   11.4645  -17.0901   28.3931 C   0  0  0  0  0  0  0  0  0  0  0  0
   10.9090  -18.3360   28.2353 O   0  0  0  0  0  0  0  0  0  0  0  0
   11.9676  -16.7698   29.4812 O   0  0  0  0  0  0  0  0  0  0  0  0
  2  1  1  0
  3  2  1  0
  3  4  1  6
  5  3  1  0
  5  7  1  0
  5  6  1  1
  7  8  2  0
  9  7  1  0
  9 10  1  0
 10 11  1  6
 11 12  1  0
 12 13  2  0
 13 14  1  0
 15 14  1  0
 16 12  1  0
 16 15  2  0
 17 10  1  0
 17 18  2  0
 19 17  1  0
 20 23  1  0
 20 19  1  0
 20 21  1  1
 22 21  1  0
 23 24  1  0
 25 23  2  0
M  END
$$$$
