IHC.pdb
     RDKit          3D

 25 25  0  0  1  0  0  0  0  0999 V2000
    7.2289  -12.0295   28.0665 C   0  0  0  0  0  0  0  0  0  0  0  0
    6.3458  -12.9530   27.2583 C   0  0  0  0  0  0  0  0  0  0  0  0
    7.0971  -13.5651   26.1010 C   0  0  2  0  0  0  0  0  0  0  0  0
    7.5580  -12.4522   25.1871 C   0  0  0  0  0  0  0  0  0  0  0  0
    6.3188  -14.6202   25.3751 C   0  0  2  0  0  0  0  0  0  0  0  0
    5.9326  -15.6469   26.3105 N   0  0  0  0  0  0  0  0  0  0  0  0
    6.9628  -15.1487   24.1733 C   0  0  0  0  0  0  0  0  0  0  0  0
    7.6139  -16.2191   24.2413 O   0  0  0  0  0  0  0  0  0  0  0  0
    6.8956  -14.5108   22.9044 N   0  0  0  0  0  0  0  0  0  0  0  0
    7.6001  -14.9854   21.7308 C   0  0  1  0  0  0  0  0  0  0  0  0
    7.1969  -14.1334   20.5365 C   0  0  0  0  0  0  0  0  0  0  0  0
    7.8933  -14.5790   19.3111 C   0  0  0  0  0  0  0  0  0  0  0  0
    8.8353  -15.6061   19.1941 C   0  0  0  0  0  0  0  0  0  0  0  0
    9.1919  -15.6484   17.8976 N   0  0  0  0  0  0  0  0  0  0  0  0
    8.5289  -14.7107   17.2036 C   0  0  0  0  0  0  0  0  0  0  0  0
    7.7428  -14.0716   18.0891 N   0  0  0  0  0  0  0  0  0  0  0  0
    9.0633  -14.8012   21.9956 C   0  0  0  0  0  0  0  0  0  0  0  0
    9.5055  -13.8255   22.6488 O   0  0  0  0  0  0  0  0  0  0  0  0
   10.0077  -15.7448   21.5045 N   0  0  0  0  0  0  0  0  0  0  0  0
   11.2630  -15.9441   22.2236 C   0  0  1  0  0  0  0  0  0  0  0  0
   10.9994  -16.4884   23.6029 C   0  0  0  0  0  0  0  0  0  0  0  0
   12.5982  -16.8855   24.3696 S   0  0  0  0  0  0  0  0  0  0  0  0
   12.1092  -16.9537   21.4930 C   0  0  0  0  0  0  0  0  0  0  0  0
   11.5575  -17.7842   20.5488 O   0  0  0  0  0  0  0  0  0  0  0  0
   13.3200  -17.0300   21.7532 O   0  0  0  0  0  0  0  0  0  0  0  0
  2  1  1  0
  3  2  1  0
  3  4  1  6
  5  3  1  0
  5  7  1  0
  5  6  1  1
  7  8  2  0
  9  7  1  0
  9 10  1  0
 10 11  1  6
 11 12  1  0
 12 13  2  0
 13 14  1  0
 15 14  1  0
 16 12  1  0
 16 15  2  0
 17 10  1  0
 17 18  2  0
 19 17  1  0
 20 23  1  0
 20 19  1  0
 20 21  1  1
 22 21  1  0
 23 24  1  0
 25 23  2  0
M  END
$$$$
