IHC.pdb
     RDKit          3D

 25 25  0  0  1  0  0  0  0  0999 V2000
    9.3943  -12.8427   18.9037 C   0  0  0  0  0  0  0  0  0  0  0  0
    7.9516  -13.2729   18.7645 C   0  0  0  0  0  0  0  0  0  0  0  0
    7.4085  -13.8178   20.0631 C   0  0  2  0  0  0  0  0  0  0  0  0
    7.5656  -12.7580   21.1300 C   0  0  0  0  0  0  0  0  0  0  0  0
    8.0160  -15.1288   20.4610 C   0  0  2  0  0  0  0  0  0  0  0  0
    7.8700  -16.0640   19.3736 N   0  0  0  0  0  0  0  0  0  0  0  0
    7.5573  -15.6606   21.7436 C   0  0  0  0  0  0  0  0  0  0  0  0
    6.3288  -15.6865   21.9978 O   0  0  0  0  0  0  0  0  0  0  0  0
    8.4363  -16.1611   22.7428 N   0  0  0  0  0  0  0  0  0  0  0  0
    7.9996  -16.5700   24.0622 C   0  0  1  0  0  0  0  0  0  0  0  0
    8.4600  -17.9983   24.3125 C   0  0  0  0  0  0  0  0  0  0  0  0
    8.1198  -18.4298   25.6849 C   0  0  0  0  0  0  0  0  0  0  0  0
    7.2431  -17.8072   26.5792 C   0  0  0  0  0  0  0  0  0  0  0  0
    7.2512  -18.5522   27.6994 N   0  0  0  0  0  0  0  0  0  0  0  0
    8.0789  -19.5982   27.5546 C   0  0  0  0  0  0  0  0  0  0  0  0
    8.5966  -19.5008   26.3164 N   0  0  0  0  0  0  0  0  0  0  0  0
    8.6675  -15.6578   25.0455 C   0  0  0  0  0  0  0  0  0  0  0  0
    9.9049  -15.4511   25.0299 O   0  0  0  0  0  0  0  0  0  0  0  0
    7.9026  -14.9894   26.0413 N   0  0  0  0  0  0  0  0  0  0  0  0
    8.5775  -14.1186   26.9999 C   0  0  1  0  0  0  0  0  0  0  0  0
    7.5776  -13.2525   27.7198 C   0  0  0  0  0  0  0  0  0  0  0  0
    6.5980  -12.3639   26.4738 S   0  0  0  0  0  0  0  0  0  0  0  0
    9.2795  -14.9562   28.0365 C   0  0  0  0  0  0  0  0  0  0  0  0
   10.0832  -14.3749   28.9861 O   0  0  0  0  0  0  0  0  0  0  0  0
    9.1247  -16.1873   28.0259 O   0  0  0  0  0  0  0  0  0  0  0  0
  2  1  1  0
  3  2  1  0
  3  4  1  1
  5  3  1  0
  5  7  1  0
  5  6  1  6
  7  8  2  0
  9  7  1  0
  9 10  1  0
 10 11  1  1
 11 12  1  0
 12 13  2  0
 13 14  1  0
 15 14  1  0
 16 12  1  0
 16 15  2  0
 17 10  1  0
 17 18  2  0
 19 17  1  0
 20 23  1  0
 20 19  1  0
 20 21  1  1
 22 21  1  0
 23 24  1  0
 25 23  2  0
M  END
$$$$
