IHC.pdb
     RDKit          3D

 25 25  0  0  1  0  0  0  0  0999 V2000
    7.9942  -12.2676   19.6204 C   0  0  0  0  0  0  0  0  0  0  0  0
    7.0269  -13.3294   20.0925 C   0  0  0  0  0  0  0  0  0  0  0  0
    7.7117  -14.3546   20.9633 C   0  0  2  0  0  0  0  0  0  0  0  0
    8.5483  -13.6272   21.9915 C   0  0  0  0  0  0  0  0  0  0  0  0
    8.5030  -15.3637   20.1877 C   0  0  2  0  0  0  0  0  0  0  0  0
    7.6669  -15.9248   19.1561 N   0  0  0  0  0  0  0  0  0  0  0  0
    9.1774  -16.3776   20.9974 C   0  0  0  0  0  0  0  0  0  0  0  0
    8.4933  -17.2056   21.6461 O   0  0  0  0  0  0  0  0  0  0  0  0
   10.5916  -16.4858   21.0976 N   0  0  0  0  0  0  0  0  0  0  0  0
   11.2638  -17.5037   21.8792 C   0  0  1  0  0  0  0  0  0  0  0  0
   12.6908  -17.6509   21.3726 C   0  0  0  0  0  0  0  0  0  0  0  0
   12.7393  -18.5172   20.1757 C   0  0  0  0  0  0  0  0  0  0  0  0
   11.6704  -19.1740   19.5575 C   0  0  0  0  0  0  0  0  0  0  0  0
   12.1891  -19.8414   18.5109 N   0  0  0  0  0  0  0  0  0  0  0  0
   13.5137  -19.6388   18.4421 C   0  0  0  0  0  0  0  0  0  0  0  0
   13.8248  -18.8271   19.4693 N   0  0  0  0  0  0  0  0  0  0  0  0
   11.2920  -17.0183   23.2966 C   0  0  0  0  0  0  0  0  0  0  0  0
   11.1243  -15.8104   23.5916 O   0  0  0  0  0  0  0  0  0  0  0  0
   11.5137  -17.9306   24.3652 N   0  0  0  0  0  0  0  0  0  0  0  0
   11.3419  -17.4772   25.7427 C   0  0  1  0  0  0  0  0  0  0  0  0
    9.9051  -17.1064   26.0000 C   0  0  0  0  0  0  0  0  0  0  0  0
    9.7428  -16.6530   27.7521 S   0  0  0  0  0  0  0  0  0  0  0  0
   11.6977  -18.5930   26.6900 C   0  0  0  0  0  0  0  0  0  0  0  0
   12.1187  -18.3243   27.9692 O   0  0  0  0  0  0  0  0  0  0  0  0
   11.6066  -19.7682   26.3023 O   0  0  0  0  0  0  0  0  0  0  0  0
  2  1  1  0
  3  2  1  0
  3  4  1  1
  5  3  1  0
  5  7  1  0
  5  6  1  6
  7  8  2  0
  9  7  1  0
  9 10  1  0
 10 11  1  6
 11 12  1  0
 12 13  2  0
 13 14  1  0
 15 14  1  0
 16 12  1  0
 16 15  2  0
 17 10  1  0
 17 18  2  0
 19 17  1  0
 20 23  1  0
 20 19  1  0
 20 21  1  6
 22 21  1  0
 23 24  1  0
 25 23  2  0
M  END
$$$$
