PEY.pdb
     RDKit          3D

 29 30  0  0  1  0  0  0  0  0999 V2000
   26.9114  -20.7119  -15.9925 N   0  0  0  0  0  0  0  0  0  0  0  0
   27.6327  -20.5342  -17.2396 C   0  0  0  0  0  0  0  0  0  0  0  0
   28.1848  -19.1369  -17.0920 C   0  0  0  0  0  0  0  0  0  0  0  0
   28.1607  -18.8260  -15.5992 C   0  0  0  0  0  0  0  0  0  0  0  0
   27.8724  -20.2045  -15.0269 C   0  0  1  0  0  0  0  0  0  0  0  0
   27.2342  -20.1371  -13.6957 C   0  0  0  0  0  0  0  0  0  0  0  0
   27.7788  -19.4968  -12.7543 O   0  0  0  0  0  0  0  0  0  0  0  0
   25.9808  -20.7973  -13.4408 N   0  0  0  0  0  0  0  0  0  0  0  0
   25.1817  -20.4435  -12.2951 C   0  0  1  0  0  0  0  0  0  0  0  0
   23.7404  -20.8799  -12.4274 C   0  0  0  0  0  0  0  0  0  0  0  0
   23.0480  -20.2641  -13.5947 C   0  0  0  0  0  0  0  0  0  0  0  0
   21.6464  -20.7472  -13.6337 C   0  0  0  0  0  0  0  0  0  0  0  0
   20.8522  -20.4690  -12.7024 O   0  0  0  0  0  0  0  0  0  0  0  0
   25.7960  -20.9678  -11.0431 C   0  0  0  0  0  0  0  0  0  0  0  0
   26.2405  -22.1572  -10.9791 O   0  0  0  0  0  0  0  0  0  0  0  0
   21.1867  -21.5087  -14.6884 O   0  0  0  0  0  0  0  0  0  0  0  0
   29.5204  -20.4810   -3.0351 O   0  0  0  0  0  0  0  0  0  0  0  0
   28.9759  -20.2387   -4.2951 C   0  0  0  0  0  0  0  0  0  0  0  0
   29.5663  -20.7375   -5.4192 C   0  0  0  0  0  0  0  0  0  0  0  0
   29.0357  -20.5035   -6.6692 C   0  0  0  0  0  0  0  0  0  0  0  0
   27.8864  -19.7493   -6.7681 C   0  0  0  0  0  0  0  0  0  0  0  0
   27.3380  -19.5091   -8.1071 C   0  0  0  0  0  0  0  0  0  0  0  0
   26.4627  -20.6236   -8.6291 C   0  0  2  0  0  0  0  0  0  0  0  0
   25.8954  -20.1473   -9.8992 N   0  0  0  0  0  0  0  0  0  0  0  0
   25.4182  -21.0285   -7.6899 C   0  0  0  0  0  0  0  0  0  0  0  0
   25.7337  -21.9202   -6.6639 O   0  0  0  0  0  0  0  0  0  0  0  0
   27.2807  -19.2407   -5.6473 C   0  0  0  0  0  0  0  0  0  0  0  0
   27.8276  -19.4875   -4.4177 C   0  0  0  0  0  0  0  0  0  0  0  0
   24.2472  -20.5885   -7.7915 O   0  0  0  0  0  0  0  0  0  0  0  0
  1  5  1  0
  2  3  1  0
  2  1  1  0
  3  4  1  0
  5  4  1  0
  6  7  2  0
  5  6  1  1
  8  6  1  0
  9  8  1  0
  9 10  1  6
 11 10  1  0
 12 11  1  0
 13 12  2  0
 14  9  1  0
 14 15  2  0
 16 12  1  0
 18 17  1  0
 19 18  2  0
 20 19  1  0
 21 20  2  0
 21 27  1  0
 22 21  1  0
 23 24  1  0
 23 22  1  1
 24 14  1  0
 25 23  1  0
 26 25  1  0
 27 28  2  0
 28 18  1  0
 29 25  2  0
M  END
$$$$
