PEY.pdb
     RDKit          3D

 29 30  0  0  1  0  0  0  0  0999 V2000
   25.0477  -13.7998  -15.8651 N   0  0  0  0  0  0  0  0  0  0  0  0
   26.2999  -14.5271  -15.9662 C   0  0  0  0  0  0  0  0  0  0  0  0
   26.6661  -14.3306  -17.4176 C   0  0  0  0  0  0  0  0  0  0  0  0
   25.8764  -13.1164  -17.8945 C   0  0  0  0  0  0  0  0  0  0  0  0
   25.3691  -12.5696  -16.5698 C   0  0  1  0  0  0  0  0  0  0  0  0
   24.1396  -11.7653  -16.7286 C   0  0  0  0  0  0  0  0  0  0  0  0
   24.1915  -10.6029  -17.2178 O   0  0  0  0  0  0  0  0  0  0  0  0
   22.8577  -12.2853  -16.3311 N   0  0  0  0  0  0  0  0  0  0  0  0
   21.6567  -11.5138  -16.5283 C   0  0  1  0  0  0  0  0  0  0  0  0
   20.4147  -12.3719  -16.6100 C   0  0  0  0  0  0  0  0  0  0  0  0
   19.1736  -11.5825  -16.8506 C   0  0  0  0  0  0  0  0  0  0  0  0
   18.0104  -12.3438  -16.3344 C   0  0  0  0  0  0  0  0  0  0  0  0
   18.0649  -13.5934  -16.2286 O   0  0  0  0  0  0  0  0  0  0  0  0
   21.5258  -10.4662  -15.4772 C   0  0  0  0  0  0  0  0  0  0  0  0
   21.6543  -10.7537  -14.2454 O   0  0  0  0  0  0  0  0  0  0  0  0
   16.8488  -11.6996  -15.9612 O   0  0  0  0  0  0  0  0  0  0  0  0
   22.3098   -1.7968  -14.8898 O   0  0  0  0  0  0  0  0  0  0  0  0
   22.3467   -3.1895  -14.8473 C   0  0  0  0  0  0  0  0  0  0  0  0
   22.0409   -3.8621  -13.7006 C   0  0  0  0  0  0  0  0  0  0  0  0
   22.0745   -5.2387  -13.6487 C   0  0  0  0  0  0  0  0  0  0  0  0
   22.4259   -5.9339  -14.7857 C   0  0  0  0  0  0  0  0  0  0  0  0
   22.4582   -7.3984  -14.7102 C   0  0  0  0  0  0  0  0  0  0  0  0
   21.1052   -8.0572  -14.8370 C   0  0  2  0  0  0  0  0  0  0  0  0
   21.2551   -9.1278  -15.8334 N   0  0  0  0  0  0  0  0  0  0  0  0
   20.0391   -7.1259  -15.2018 C   0  0  0  0  0  0  0  0  0  0  0  0
   19.3674   -6.4317  -14.1948 O   0  0  0  0  0  0  0  0  0  0  0  0
   22.7361   -5.2723  -15.9466 C   0  0  0  0  0  0  0  0  0  0  0  0
   22.6951   -3.9050  -15.9720 C   0  0  0  0  0  0  0  0  0  0  0  0
   19.7200   -6.9417  -16.4015 O   0  0  0  0  0  0  0  0  0  0  0  0
  1  5  1  0
  2  3  1  0
  2  1  1  0
  3  4  1  0
  5  4  1  0
  6  7  2  0
  5  6  1  6
  8  6  1  0
  9  8  1  0
  9 10  1  1
 11 10  1  0
 12 11  1  0
 13 12  2  0
 14  9  1  0
 14 15  2  0
 16 12  1  0
 18 17  1  0
 19 18  2  0
 20 19  1  0
 21 20  2  0
 21 27  1  0
 22 21  1  0
 23 24  1  0
 23 22  1  6
 24 14  1  0
 25 23  1  0
 26 25  1  0
 27 28  2  0
 28 18  1  0
 29 25  2  0
M  END
$$$$
