PEY.pdb
     RDKit          3D

 29 30  0  0  1  0  0  0  0  0999 V2000
   27.4270  -20.2519  -15.8597 N   0  0  0  0  0  0  0  0  0  0  0  0
   28.2895  -19.9554  -16.9890 C   0  0  0  0  0  0  0  0  0  0  0  0
   28.4010  -18.4514  -16.9183 C   0  0  0  0  0  0  0  0  0  0  0  0
   28.0176  -18.0633  -15.4943 C   0  0  0  0  0  0  0  0  0  0  0  0
   28.0170  -19.4255  -14.8194 C   0  0  1  0  0  0  0  0  0  0  0  0
   27.1503  -19.4585  -13.6228 C   0  0  0  0  0  0  0  0  0  0  0  0
   27.3330  -18.6451  -12.6751 O   0  0  0  0  0  0  0  0  0  0  0  0
   26.0807  -20.4149  -13.5090 N   0  0  0  0  0  0  0  0  0  0  0  0
   25.1283  -20.3298  -12.4309 C   0  0  1  0  0  0  0  0  0  0  0  0
   23.8245  -21.0282  -12.7431 C   0  0  0  0  0  0  0  0  0  0  0  0
   22.7998  -20.8586  -11.6742 C   0  0  0  0  0  0  0  0  0  0  0  0
   21.5597  -20.3130  -12.2773 C   0  0  0  0  0  0  0  0  0  0  0  0
   21.3332  -20.4559  -13.5037 O   0  0  0  0  0  0  0  0  0  0  0  0
   25.7243  -20.8327  -11.1615 C   0  0  0  0  0  0  0  0  0  0  0  0
   26.1196  -22.0363  -11.0544 O   0  0  0  0  0  0  0  0  0  0  0  0
   20.6326  -19.6399  -11.5085 O   0  0  0  0  0  0  0  0  0  0  0  0
   29.2253  -20.1760   -3.0370 O   0  0  0  0  0  0  0  0  0  0  0  0
   28.6988  -19.9479   -4.3072 C   0  0  0  0  0  0  0  0  0  0  0  0
   29.5191  -19.7894   -5.3857 C   0  0  0  0  0  0  0  0  0  0  0  0
   29.0080  -19.5635   -6.6453 C   0  0  0  0  0  0  0  0  0  0  0  0
   27.6402  -19.4992   -6.8013 C   0  0  0  0  0  0  0  0  0  0  0  0
   27.1153  -19.2557   -8.1491 C   0  0  0  0  0  0  0  0  0  0  0  0
   26.3907  -20.4336   -8.7559 C   0  0  2  0  0  0  0  0  0  0  0  0
   25.8611  -19.9756  -10.0487 N   0  0  0  0  0  0  0  0  0  0  0  0
   25.3340  -20.9681   -7.8988 C   0  0  0  0  0  0  0  0  0  0  0  0
   25.6632  -21.8979   -6.9117 O   0  0  0  0  0  0  0  0  0  0  0  0
   26.8020  -19.6565   -5.7269 C   0  0  0  0  0  0  0  0  0  0  0  0
   27.3345  -19.8798   -4.4865 C   0  0  0  0  0  0  0  0  0  0  0  0
   24.1405  -20.6052   -8.0363 O   0  0  0  0  0  0  0  0  0  0  0  0
  1  5  1  0
  2  3  1  0
  2  1  1  0
  3  4  1  0
  5  4  1  0
  6  7  2  0
  5  6  1  1
  8  6  1  0
  9  8  1  0
  9 10  1  6
 11 10  1  0
 12 11  1  0
 13 12  2  0
 14  9  1  0
 14 15  2  0
 16 12  1  0
 18 17  1  0
 19 18  2  0
 20 19  1  0
 21 20  2  0
 21 27  1  0
 22 21  1  0
 23 24  1  0
 23 22  1  1
 24 14  1  0
 25 23  1  0
 26 25  1  0
 27 28  2  0
 28 18  1  0
 29 25  2  0
M  END
$$$$
