PEY.pdb
     RDKit          3D

 29 30  0  0  1  0  0  0  0  0999 V2000
   26.8613  -20.7495  -16.3453 N   0  0  0  0  0  0  0  0  0  0  0  0
   28.2466  -21.0497  -16.6581 C   0  0  0  0  0  0  0  0  0  0  0  0
   28.9229  -19.7218  -16.4160 C   0  0  0  0  0  0  0  0  0  0  0  0
   27.9817  -18.9226  -15.5211 C   0  0  0  0  0  0  0  0  0  0  0  0
   26.9990  -20.0050  -15.1043 C   0  0  1  0  0  0  0  0  0  0  0  0
   25.6834  -19.4513  -14.7214 C   0  0  0  0  0  0  0  0  0  0  0  0
   25.5777  -18.6716  -13.7345 O   0  0  0  0  0  0  0  0  0  0  0  0
   24.4950  -19.7861  -15.4612 N   0  0  0  0  0  0  0  0  0  0  0  0
   23.2389  -19.1444  -15.1666 C   0  0  1  0  0  0  0  0  0  0  0  0
   22.6116  -18.4972  -16.3803 C   0  0  0  0  0  0  0  0  0  0  0  0
   23.4762  -17.4520  -16.9980 C   0  0  0  0  0  0  0  0  0  0  0  0
   22.7692  -16.8687  -18.1638 C   0  0  0  0  0  0  0  0  0  0  0  0
   22.2812  -17.6132  -19.0488 O   0  0  0  0  0  0  0  0  0  0  0  0
   22.3006  -20.0996  -14.5135 C   0  0  0  0  0  0  0  0  0  0  0  0
   22.2575  -21.3205  -14.8655 O   0  0  0  0  0  0  0  0  0  0  0  0
   22.6328  -15.5026  -18.3010 O   0  0  0  0  0  0  0  0  0  0  0  0
   16.9414  -23.2158   -8.2351 O   0  0  0  0  0  0  0  0  0  0  0  0
   17.7884  -22.4387   -9.0233 C   0  0  0  0  0  0  0  0  0  0  0  0
   19.0970  -22.7846   -9.1941 C   0  0  0  0  0  0  0  0  0  0  0  0
   19.9421  -22.0227   -9.9714 C   0  0  0  0  0  0  0  0  0  0  0  0
   19.4401  -20.8930  -10.5807 C   0  0  0  0  0  0  0  0  0  0  0  0
   20.3555  -20.0938  -11.4022 C   0  0  0  0  0  0  0  0  0  0  0  0
   20.4633  -20.5519  -12.8371 C   0  0  2  0  0  0  0  0  0  0  0  0
   21.4376  -19.6624  -13.4860 N   0  0  0  0  0  0  0  0  0  0  0  0
   19.1827  -20.5554  -13.5422 C   0  0  0  0  0  0  0  0  0  0  0  0
   18.4349  -21.7326  -13.5896 O   0  0  0  0  0  0  0  0  0  0  0  0
   18.1267  -20.5317  -10.4189 C   0  0  0  0  0  0  0  0  0  0  0  0
   17.3081  -21.3052   -9.6420 C   0  0  0  0  0  0  0  0  0  0  0  0
   18.7473  -19.5206  -14.1030 O   0  0  0  0  0  0  0  0  0  0  0  0
  1  5  1  0
  2  3  1  0
  2  1  1  0
  3  4  1  0
  5  4  1  0
  6  7  2  0
  5  6  1  6
  8  6  1  0
  9  8  1  0
  9 10  1  6
 11 10  1  0
 12 11  1  0
 13 12  2  0
 14  9  1  0
 14 15  2  0
 16 12  1  0
 18 17  1  0
 19 18  2  0
 20 19  1  0
 21 20  2  0
 21 27  1  0
 22 21  1  0
 23 24  1  0
 23 22  1  1
 24 14  1  0
 25 23  1  0
 26 25  1  0
 27 28  2  0
 28 18  1  0
 29 25  2  0
M  END
$$$$
