PEY.pdb
     RDKit          3D

 29 30  0  0  1  0  0  0  0  0999 V2000
   25.8849  -13.0649  -15.9159 N   0  0  0  0  0  0  0  0  0  0  0  0
   27.0276  -13.9276  -15.6770 C   0  0  0  0  0  0  0  0  0  0  0  0
   27.7083  -13.9351  -17.0246 C   0  0  0  0  0  0  0  0  0  0  0  0
   27.1959  -12.7051  -17.7663 C   0  0  0  0  0  0  0  0  0  0  0  0
   26.4995  -11.9626  -16.6373 C   0  0  1  0  0  0  0  0  0  0  0  0
   25.4425  -11.0553  -17.1305 C   0  0  0  0  0  0  0  0  0  0  0  0
   25.7412  -10.0110  -17.7735 O   0  0  0  0  0  0  0  0  0  0  0  0
   24.0518  -11.3386  -16.8909 N   0  0  0  0  0  0  0  0  0  0  0  0
   23.0232  -10.4805  -17.4220 C   0  0  1  0  0  0  0  0  0  0  0  0
   21.7780  -11.2370  -17.8252 C   0  0  0  0  0  0  0  0  0  0  0  0
   20.6849  -10.3476  -18.3101 C   0  0  0  0  0  0  0  0  0  0  0  0
   19.5072  -11.1780  -18.6603 C   0  0  0  0  0  0  0  0  0  0  0  0
   18.4309  -11.0539  -18.0263 O   0  0  0  0  0  0  0  0  0  0  0  0
   22.7071   -9.3836  -16.4647 C   0  0  0  0  0  0  0  0  0  0  0  0
   22.5845   -9.6142  -15.2205 O   0  0  0  0  0  0  0  0  0  0  0  0
   19.5677  -12.1001  -19.6847 O   0  0  0  0  0  0  0  0  0  0  0  0
   21.3870   -0.8848  -14.2334 O   0  0  0  0  0  0  0  0  0  0  0  0
   21.7714   -2.0896  -14.8192 C   0  0  0  0  0  0  0  0  0  0  0  0
   22.5016   -3.0053  -14.1197 C   0  0  0  0  0  0  0  0  0  0  0  0
   22.8864   -4.1992  -14.6901 C   0  0  0  0  0  0  0  0  0  0  0  0
   22.5184   -4.4575  -15.9929 C   0  0  0  0  0  0  0  0  0  0  0  0
   22.9391   -5.7325  -16.5834 C   0  0  0  0  0  0  0  0  0  0  0  0
   22.2258   -6.9411  -16.0255 C   0  0  2  0  0  0  0  0  0  0  0  0
   22.5371   -8.0608  -16.9261 N   0  0  0  0  0  0  0  0  0  0  0  0
   20.7838   -6.7483  -15.8830 C   0  0  0  0  0  0  0  0  0  0  0  0
   20.2780   -6.2605  -14.6773 O   0  0  0  0  0  0  0  0  0  0  0  0
   21.7842   -3.5471  -16.7097 C   0  0  0  0  0  0  0  0  0  0  0  0
   21.4146   -2.3690  -16.1203 C   0  0  0  0  0  0  0  0  0  0  0  0
   19.9968   -7.0135  -16.8240 O   0  0  0  0  0  0  0  0  0  0  0  0
  1  5  1  0
  2  3  1  0
  2  1  1  0
  3  4  1  0
  5  4  1  0
  6  7  2  0
  5  6  1  6
  8  6  1  0
  9  8  1  0
  9 10  1  1
 11 10  1  0
 12 11  1  0
 13 12  2  0
 14  9  1  0
 14 15  2  0
 16 12  1  0
 18 17  1  0
 19 18  2  0
 20 19  1  0
 21 20  2  0
 21 27  1  0
 22 21  1  0
 23 24  1  0
 23 22  1  6
 24 14  1  0
 25 23  1  0
 26 25  1  0
 27 28  2  0
 28 18  1  0
 29 25  2  0
M  END
$$$$
