PEY.pdb
     RDKit          3D

 29 30  0  0  1  0  0  0  0  0999 V2000
   19.4048  -11.0141  -17.2226 N   0  0  0  0  0  0  0  0  0  0  0  0
   19.3460  -12.4570  -17.0758 C   0  0  0  0  0  0  0  0  0  0  0  0
   20.4920  -12.9127  -17.9466 C   0  0  0  0  0  0  0  0  0  0  0  0
   21.4052  -11.7030  -18.1145 C   0  0  0  0  0  0  0  0  0  0  0  0
   20.8284  -10.7644  -17.0670 C   0  0  1  0  0  0  0  0  0  0  0  0
   21.1087   -9.3454  -17.3698 C   0  0  0  0  0  0  0  0  0  0  0  0
   22.2464   -8.8516  -17.1355 O   0  0  0  0  0  0  0  0  0  0  0  0
   20.0957   -8.4948  -17.9371 N   0  0  0  0  0  0  0  0  0  0  0  0
   20.4015   -7.1398  -18.3202 C   0  0  1  0  0  0  0  0  0  0  0  0
   19.4752   -6.6092  -19.3906 C   0  0  0  0  0  0  0  0  0  0  0  0
   19.5799   -7.3551  -20.6766 C   0  0  0  0  0  0  0  0  0  0  0  0
   18.2561   -7.3517  -21.3451 C   0  0  0  0  0  0  0  0  0  0  0  0
   17.8805   -6.3529  -22.0061 O   0  0  0  0  0  0  0  0  0  0  0  0
   20.4217   -6.2476  -17.1273 C   0  0  0  0  0  0  0  0  0  0  0  0
   19.4449   -6.2181  -16.3140 O   0  0  0  0  0  0  0  0  0  0  0  0
   17.4127   -8.4399  -21.2560 O   0  0  0  0  0  0  0  0  0  0  0  0
   20.8841   -9.2466  -11.5989 O   0  0  0  0  0  0  0  0  0  0  0  0
   21.3208   -8.1897  -12.3957 C   0  0  0  0  0  0  0  0  0  0  0  0
   20.7512   -6.9545  -12.2920 C   0  0  0  0  0  0  0  0  0  0  0  0
   21.1760   -5.9034  -13.0753 C   0  0  0  0  0  0  0  0  0  0  0  0
   22.1966   -6.1211  -13.9756 C   0  0  0  0  0  0  0  0  0  0  0  0
   22.6334   -4.9907  -14.8021 C   0  0  0  0  0  0  0  0  0  0  0  0
   21.5798   -4.4712  -15.7511 C   0  0  2  0  0  0  0  0  0  0  0  0
   21.5332   -5.4144  -16.8780 N   0  0  0  0  0  0  0  0  0  0  0  0
   21.8299   -3.1035  -16.2023 C   0  0  0  0  0  0  0  0  0  0  0  0
   22.0556   -2.8645  -17.5585 O   0  0  0  0  0  0  0  0  0  0  0  0
   22.7798   -7.3572  -14.0918 C   0  0  0  0  0  0  0  0  0  0  0  0
   22.3398   -8.3844  -13.3024 C   0  0  0  0  0  0  0  0  0  0  0  0
   21.8448   -2.1449  -15.3924 O   0  0  0  0  0  0  0  0  0  0  0  0
  1  5  1  0
  2  3  1  0
  2  1  1  0
  3  4  1  0
  5  4  1  0
  6  7  2  0
  5  6  1  6
  8  6  1  0
  9  8  1  0
  9 10  1  6
 11 10  1  0
 12 11  1  0
 13 12  2  0
 14  9  1  0
 14 15  2  0
 16 12  1  0
 18 17  1  0
 19 18  2  0
 20 19  1  0
 21 20  2  0
 21 27  1  0
 22 21  1  0
 23 24  1  0
 23 22  1  1
 24 14  1  0
 25 23  1  0
 26 25  1  0
 27 28  2  0
 28 18  1  0
 29 25  2  0
M  END
$$$$
