PEY.pdb
     RDKit          3D

 29 30  0  0  1  0  0  0  0  0999 V2000
   21.9270  -14.1115  -17.8352 N   0  0  0  0  0  0  0  0  0  0  0  0
   22.8078  -15.0712  -18.4758 C   0  0  0  0  0  0  0  0  0  0  0  0
   22.5157  -14.8441  -19.9395 C   0  0  0  0  0  0  0  0  0  0  0  0
   21.8820  -13.4604  -20.0366 C   0  0  0  0  0  0  0  0  0  0  0  0
   22.1571  -12.9238  -18.6412 C   0  0  1  0  0  0  0  0  0  0  0  0
   21.1960  -11.8737  -18.2443 C   0  0  0  0  0  0  0  0  0  0  0  0
   21.2715  -10.7145  -18.7379 O   0  0  0  0  0  0  0  0  0  0  0  0
   20.1543  -12.1456  -17.2889 N   0  0  0  0  0  0  0  0  0  0  0  0
   19.1745  -11.1410  -16.9617 C   0  0  1  0  0  0  0  0  0  0  0  0
   17.9231  -11.7211  -16.3432 C   0  0  0  0  0  0  0  0  0  0  0  0
   16.8432  -10.7117  -16.1523 C   0  0  0  0  0  0  0  0  0  0  0  0
   15.6674  -11.3739  -15.5374 C   0  0  0  0  0  0  0  0  0  0  0  0
   14.7772  -10.6923  -14.9730 O   0  0  0  0  0  0  0  0  0  0  0  0
   19.7713  -10.0867  -16.0947 C   0  0  0  0  0  0  0  0  0  0  0  0
   20.4428  -10.3920  -15.0592 O   0  0  0  0  0  0  0  0  0  0  0  0
   15.5264  -12.7460  -15.5717 O   0  0  0  0  0  0  0  0  0  0  0  0
   22.1309   -1.7920  -14.0629 O   0  0  0  0  0  0  0  0  0  0  0  0
   21.8622   -3.0438  -14.6139 C   0  0  0  0  0  0  0  0  0  0  0  0
   20.9880   -3.1771  -15.6526 C   0  0  0  0  0  0  0  0  0  0  0  0
   20.7158   -4.4103  -16.2040 C   0  0  0  0  0  0  0  0  0  0  0  0
   21.3471   -5.5198  -15.6844 C   0  0  0  0  0  0  0  0  0  0  0  0
   21.0428   -6.8239  -16.2830 C   0  0  0  0  0  0  0  0  0  0  0  0
   20.0326   -7.6406  -15.5128 C   0  0  2  0  0  0  0  0  0  0  0  0
   19.6002   -8.7219  -16.4103 N   0  0  0  0  0  0  0  0  0  0  0  0
   18.8988   -6.8544  -15.0299 C   0  0  0  0  0  0  0  0  0  0  0  0
   17.7345   -6.7965  -15.7971 O   0  0  0  0  0  0  0  0  0  0  0  0
   22.2287   -5.4024  -14.6401 C   0  0  0  0  0  0  0  0  0  0  0  0
   22.4818   -4.1666  -14.1104 C   0  0  0  0  0  0  0  0  0  0  0  0
   18.9559   -6.2333  -13.9408 O   0  0  0  0  0  0  0  0  0  0  0  0
  1  5  1  0
  2  3  1  0
  2  1  1  0
  3  4  1  0
  5  4  1  0
  6  7  2  0
  5  6  1  1
  8  6  1  0
  9  8  1  0
  9 10  1  1
 11 10  1  0
 12 11  1  0
 13 12  2  0
 14  9  1  0
 14 15  2  0
 16 12  1  0
 18 17  1  0
 19 18  2  0
 20 19  1  0
 21 20  2  0
 21 27  1  0
 22 21  1  0
 23 24  1  0
 23 22  1  6
 24 14  1  0
 25 23  1  0
 26 25  1  0
 27 28  2  0
 28 18  1  0
 29 25  2  0
M  END
$$$$
