PEY.pdb
     RDKit          3D

 29 30  0  0  1  0  0  0  0  0999 V2000
   27.5282  -20.1949  -16.2433 N   0  0  0  0  0  0  0  0  0  0  0  0
   28.3977  -19.9064  -17.3693 C   0  0  0  0  0  0  0  0  0  0  0  0
   28.6280  -18.4216  -17.2218 C   0  0  0  0  0  0  0  0  0  0  0  0
   28.2933  -18.0816  -15.7734 C   0  0  0  0  0  0  0  0  0  0  0  0
   28.1937  -19.4737  -15.1708 C   0  0  1  0  0  0  0  0  0  0  0  0
   27.3415  -19.5030  -13.9639 C   0  0  0  0  0  0  0  0  0  0  0  0
   27.6351  -18.8057  -12.9536 O   0  0  0  0  0  0  0  0  0  0  0  0
   26.1605  -20.3240  -13.9106 N   0  0  0  0  0  0  0  0  0  0  0  0
   25.2389  -20.2179  -12.8080 C   0  0  1  0  0  0  0  0  0  0  0  0
   23.8881  -20.8249  -13.1117 C   0  0  0  0  0  0  0  0  0  0  0  0
   22.8828  -20.5806  -12.0387 C   0  0  0  0  0  0  0  0  0  0  0  0
   21.5940  -21.1972  -12.4361 C   0  0  0  0  0  0  0  0  0  0  0  0
   21.1006  -20.9657  -13.5669 O   0  0  0  0  0  0  0  0  0  0  0  0
   25.8303  -20.7987  -11.5702 C   0  0  0  0  0  0  0  0  0  0  0  0
   26.2148  -22.0100  -11.5331 O   0  0  0  0  0  0  0  0  0  0  0  0
   20.9123  -22.0342  -11.5769 O   0  0  0  0  0  0  0  0  0  0  0  0
   28.7278  -20.5570   -3.1834 O   0  0  0  0  0  0  0  0  0  0  0  0
   28.4082  -20.3271   -4.5204 C   0  0  0  0  0  0  0  0  0  0  0  0
   27.3759  -19.5027   -4.8604 C   0  0  0  0  0  0  0  0  0  0  0  0
   27.0522  -19.2691   -6.1793 C   0  0  0  0  0  0  0  0  0  0  0  0
   27.7954  -19.8879   -7.1612 C   0  0  0  0  0  0  0  0  0  0  0  0
   27.4344  -19.6288   -8.5591 C   0  0  0  0  0  0  0  0  0  0  0  0
   26.3923  -20.5693   -9.1162 C   0  0  2  0  0  0  0  0  0  0  0  0
   25.9747  -20.0087  -10.4097 N   0  0  0  0  0  0  0  0  0  0  0  0
   25.2536  -20.7682   -8.2215 C   0  0  0  0  0  0  0  0  0  0  0  0
   25.3444  -21.7204   -7.2054 O   0  0  0  0  0  0  0  0  0  0  0  0
   28.8366  -20.7197   -6.8357 C   0  0  0  0  0  0  0  0  0  0  0  0
   29.1377  -20.9351   -5.5186 C   0  0  0  0  0  0  0  0  0  0  0  0
   24.2001  -20.0988   -8.3523 O   0  0  0  0  0  0  0  0  0  0  0  0
  1  5  1  0
  2  3  1  0
  2  1  1  0
  3  4  1  0
  5  4  1  0
  6  7  2  0
  5  6  1  1
  8  6  1  0
  9  8  1  0
  9 10  1  6
 11 10  1  0
 12 11  1  0
 13 12  2  0
 14  9  1  0
 14 15  2  0
 16 12  1  0
 18 17  1  0
 19 18  2  0
 20 19  1  0
 21 20  2  0
 21 27  1  0
 22 21  1  0
 23 24  1  0
 23 22  1  1
 24 14  1  0
 25 23  1  0
 26 25  1  0
 27 28  2  0
 28 18  1  0
 29 25  2  0
M  END
$$$$
