PEY.pdb
     RDKit          3D

 29 30  0  0  1  0  0  0  0  0999 V2000
   26.5859  -21.4100  -16.5375 N   0  0  0  0  0  0  0  0  0  0  0  0
   27.9317  -21.7660  -16.9486 C   0  0  0  0  0  0  0  0  0  0  0  0
   28.6457  -20.4373  -16.8867 C   0  0  0  0  0  0  0  0  0  0  0  0
   27.8031  -19.5438  -15.9827 C   0  0  0  0  0  0  0  0  0  0  0  0
   26.8489  -20.5648  -15.3843 C   0  0  1  0  0  0  0  0  0  0  0  0
   25.5825  -19.9518  -14.9323 C   0  0  0  0  0  0  0  0  0  0  0  0
   25.5698  -19.1475  -13.9597 O   0  0  0  0  0  0  0  0  0  0  0  0
   24.3373  -20.2554  -15.5872 N   0  0  0  0  0  0  0  0  0  0  0  0
   23.1290  -19.5545  -15.2334 C   0  0  1  0  0  0  0  0  0  0  0  0
   22.3979  -19.0015  -16.4355 C   0  0  0  0  0  0  0  0  0  0  0  0
   21.1627  -18.2499  -16.0736 C   0  0  0  0  0  0  0  0  0  0  0  0
   20.4756  -17.8244  -17.3170 C   0  0  0  0  0  0  0  0  0  0  0  0
   21.1045  -17.2085  -18.2119 O   0  0  0  0  0  0  0  0  0  0  0  0
   22.2412  -20.4203  -14.4078 C   0  0  0  0  0  0  0  0  0  0  0  0
   22.0548  -21.6420  -14.7062 O   0  0  0  0  0  0  0  0  0  0  0  0
   19.1374  -18.0944  -17.5170 O   0  0  0  0  0  0  0  0  0  0  0  0
   18.4188  -22.9319   -6.8601 O   0  0  0  0  0  0  0  0  0  0  0  0
   19.0222  -22.2144   -7.8915 C   0  0  0  0  0  0  0  0  0  0  0  0
   20.3319  -22.4202   -8.2129 C   0  0  0  0  0  0  0  0  0  0  0  0
   20.9373  -21.7158   -9.2309 C   0  0  0  0  0  0  0  0  0  0  0  0
   20.1914  -20.7895   -9.9274 C   0  0  0  0  0  0  0  0  0  0  0  0
   20.8539  -20.0481  -11.0058 C   0  0  0  0  0  0  0  0  0  0  0  0
   20.8041  -20.7318  -12.3515 C   0  0  2  0  0  0  0  0  0  0  0  0
   21.5875  -19.8953  -13.2726 N   0  0  0  0  0  0  0  0  0  0  0  0
   19.4441  -20.9469  -12.8423 C   0  0  0  0  0  0  0  0  0  0  0  0
   18.8348  -22.1857  -12.6384 O   0  0  0  0  0  0  0  0  0  0  0  0
   18.8734  -20.5710   -9.6164 C   0  0  0  0  0  0  0  0  0  0  0  0
   18.2957  -21.2835   -8.6013 C   0  0  0  0  0  0  0  0  0  0  0  0
   18.8186  -20.0388  -13.4416 O   0  0  0  0  0  0  0  0  0  0  0  0
  1  5  1  0
  2  3  1  0
  2  1  1  0
  3  4  1  0
  5  4  1  0
  6  7  2  0
  5  6  1  6
  8  6  1  0
  9  8  1  0
  9 10  1  6
 11 10  1  0
 12 11  1  0
 13 12  2  0
 14  9  1  0
 14 15  2  0
 16 12  1  0
 18 17  1  0
 19 18  2  0
 20 19  1  0
 21 20  2  0
 21 27  1  0
 22 21  1  0
 23 24  1  0
 23 22  1  1
 24 14  1  0
 25 23  1  0
 26 25  1  0
 27 28  2  0
 28 18  1  0
 29 25  2  0
M  END
$$$$
