PEY.pdb
     RDKit          3D

 29 30  0  0  1  0  0  0  0  0999 V2000
   27.3435  -22.2541  -18.0834 N   0  0  0  0  0  0  0  0  0  0  0  0
   28.2685  -22.6263  -19.1384 C   0  0  0  0  0  0  0  0  0  0  0  0
   28.8901  -21.2988  -19.4999 C   0  0  0  0  0  0  0  0  0  0  0  0
   28.6471  -20.3775  -18.3093 C   0  0  0  0  0  0  0  0  0  0  0  0
   28.1696  -21.3780  -17.2691 C   0  0  1  0  0  0  0  0  0  0  0  0
   27.3307  -20.7482  -16.2283 C   0  0  0  0  0  0  0  0  0  0  0  0
   27.7960  -19.8310  -15.4966 O   0  0  0  0  0  0  0  0  0  0  0  0
   25.9677  -21.1632  -16.0240 N   0  0  0  0  0  0  0  0  0  0  0  0
   25.1182  -20.4679  -15.0905 C   0  0  1  0  0  0  0  0  0  0  0  0
   23.6613  -20.4909  -15.4932 C   0  0  0  0  0  0  0  0  0  0  0  0
   23.0943  -19.1304  -15.7145 C   0  0  0  0  0  0  0  0  0  0  0  0
   21.6525  -19.2557  -16.0378 C   0  0  0  0  0  0  0  0  0  0  0  0
   20.7857  -18.7515  -15.2827 O   0  0  0  0  0  0  0  0  0  0  0  0
   25.3095  -20.9963  -13.7108 C   0  0  0  0  0  0  0  0  0  0  0  0
   25.2396  -22.2428  -13.4705 O   0  0  0  0  0  0  0  0  0  0  0  0
   21.2338  -19.9252  -17.1692 O   0  0  0  0  0  0  0  0  0  0  0  0
   27.1147  -20.1160   -5.0255 O   0  0  0  0  0  0  0  0  0  0  0  0
   27.0247  -20.0161   -6.4128 C   0  0  0  0  0  0  0  0  0  0  0  0
   27.3780  -18.8656   -7.0551 C   0  0  0  0  0  0  0  0  0  0  0  0
   27.2926  -18.7571   -8.4261 C   0  0  0  0  0  0  0  0  0  0  0  0
   26.8395  -19.8407   -9.1473 C   0  0  0  0  0  0  0  0  0  0  0  0
   26.7533  -19.7054  -10.6053 C   0  0  0  0  0  0  0  0  0  0  0  0
   25.7000  -20.5756  -11.2488 C   0  0  2  0  0  0  0  0  0  0  0  0
   25.5734  -20.1160  -12.6397 N   0  0  0  0  0  0  0  0  0  0  0  0
   24.4160  -20.5433  -10.5509 C   0  0  0  0  0  0  0  0  0  0  0  0
   23.3971  -19.7232  -11.0375 O   0  0  0  0  0  0  0  0  0  0  0  0
   26.4804  -21.0046   -8.5164 C   0  0  0  0  0  0  0  0  0  0  0  0
   26.5745  -21.0868   -7.1539 C   0  0  0  0  0  0  0  0  0  0  0  0
   24.2165  -21.2387   -9.5254 O   0  0  0  0  0  0  0  0  0  0  0  0
  1  5  1  0
  2  3  1  0
  2  1  1  0
  3  4  1  0
  5  4  1  0
  6  7  2  0
  5  6  1  1
  8  6  1  0
  9  8  1  0
  9 10  1  6
 11 10  1  0
 12 11  1  0
 13 12  2  0
 14  9  1  0
 14 15  2  0
 16 12  1  0
 18 17  1  0
 19 18  2  0
 20 19  1  0
 21 20  2  0
 21 27  1  0
 22 21  1  0
 23 24  1  0
 23 22  1  1
 24 14  1  0
 25 23  1  0
 26 25  1  0
 27 28  2  0
 28 18  1  0
 29 25  2  0
M  END
$$$$
