PEY.pdb
     RDKit          3D

 29 30  0  0  1  0  0  0  0  0999 V2000
   28.1452  -19.6964  -15.6649 N   0  0  0  0  0  0  0  0  0  0  0  0
   28.8489  -18.9818  -16.7143 C   0  0  0  0  0  0  0  0  0  0  0  0
   28.0123  -17.7342  -16.8664 C   0  0  0  0  0  0  0  0  0  0  0  0
   27.2087  -17.6018  -15.5771 C   0  0  0  0  0  0  0  0  0  0  0  0
   27.9026  -18.6339  -14.7029 C   0  0  1  0  0  0  0  0  0  0  0  0
   27.0234  -19.1420  -13.6292 C   0  0  0  0  0  0  0  0  0  0  0  0
   26.4536  -18.3441  -12.8345 O   0  0  0  0  0  0  0  0  0  0  0  0
   26.7961  -20.5536  -13.4639 N   0  0  0  0  0  0  0  0  0  0  0  0
   25.8513  -21.0383  -12.4897 C   0  0  1  0  0  0  0  0  0  0  0  0
   25.1843  -22.3281  -12.9101 C   0  0  0  0  0  0  0  0  0  0  0  0
   24.2780  -22.1628  -14.0817 C   0  0  0  0  0  0  0  0  0  0  0  0
   23.6161  -23.4591  -14.3659 C   0  0  0  0  0  0  0  0  0  0  0  0
   24.0701  -24.5243  -13.8812 O   0  0  0  0  0  0  0  0  0  0  0  0
   26.4950  -21.1695  -11.1526 C   0  0  0  0  0  0  0  0  0  0  0  0
   27.5986  -21.7854  -11.0138 O   0  0  0  0  0  0  0  0  0  0  0  0
   22.4931  -23.5230  -15.1649 O   0  0  0  0  0  0  0  0  0  0  0  0
   29.4569  -19.6088   -3.1806 O   0  0  0  0  0  0  0  0  0  0  0  0
   28.9555  -19.6446   -4.4806 C   0  0  0  0  0  0  0  0  0  0  0  0
   27.9953  -18.7634   -4.8838 C   0  0  0  0  0  0  0  0  0  0  0  0
   27.4933  -18.7909   -6.1668 C   0  0  0  0  0  0  0  0  0  0  0  0
   27.9812  -19.7328   -7.0468 C   0  0  0  0  0  0  0  0  0  0  0  0
   27.4330  -19.7480   -8.4072 C   0  0  0  0  0  0  0  0  0  0  0  0
   26.4027  -20.8250   -8.6499 C   0  0  2  0  0  0  0  0  0  0  0  0
   25.8865  -20.6085  -10.0095 N   0  0  0  0  0  0  0  0  0  0  0  0
   25.3276  -20.8323   -7.6595 C   0  0  0  0  0  0  0  0  0  0  0  0
   25.5572  -21.4092   -6.4097 O   0  0  0  0  0  0  0  0  0  0  0  0
   28.9467  -20.6258   -6.6567 C   0  0  0  0  0  0  0  0  0  0  0  0
   29.4287  -20.5776   -5.3771 C   0  0  0  0  0  0  0  0  0  0  0  0
   24.2061  -20.3300   -7.9144 O   0  0  0  0  0  0  0  0  0  0  0  0
  1  5  1  0
  2  3  1  0
  2  1  1  0
  3  4  1  0
  5  4  1  0
  6  7  2  0
  5  6  1  1
  8  6  1  0
  9  8  1  0
  9 10  1  6
 11 10  1  0
 12 11  1  0
 13 12  2  0
 14  9  1  0
 14 15  2  0
 16 12  1  0
 18 17  1  0
 19 18  2  0
 20 19  1  0
 21 20  2  0
 21 27  1  0
 22 21  1  0
 23 24  1  0
 23 22  1  1
 24 14  1  0
 25 23  1  0
 26 25  1  0
 27 28  2  0
 28 18  1  0
 29 25  2  0
M  END
$$$$
