SNY.pdb
     RDKit          3D

 27 27  0  0  1  0  0  0  0  0999 V2000
   20.7634  -13.4188  -20.6955 O   0  0  0  0  0  0  0  0  0  0  0  0
   20.2609  -12.1987  -20.2761 C   0  0  0  0  0  0  0  0  0  0  0  0
   20.6885  -11.9581  -18.8410 C   0  0  2  0  0  0  0  0  0  0  0  0
   20.1380  -12.9977  -18.0281 N   0  0  0  0  0  0  0  0  0  0  0  0
   20.2295  -10.6063  -18.4338 C   0  0  0  0  0  0  0  0  0  0  0  0
   19.2114  -10.0921  -18.9585 O   0  0  0  0  0  0  0  0  0  0  0  0
   19.8275  -10.0145  -14.5694 N   0  0  0  0  0  0  0  0  0  0  0  0
   18.8186   -9.2873  -15.2336 C   0  0  0  0  0  0  0  0  0  0  0  0
   17.6692   -9.2772  -14.7314 O   0  0  0  0  0  0  0  0  0  0  0  0
   19.0360   -8.5471  -16.4702 C   0  0  0  0  0  0  0  0  0  0  0  0
   20.4374   -8.5497  -16.9955 C   0  0  2  0  0  0  0  0  0  0  0  0
   20.9083   -9.8225  -17.4364 N   0  0  0  0  0  0  0  0  0  0  0  0
   21.3585   -7.9162  -15.9998 C   0  0  0  0  0  0  0  0  0  0  0  0
   22.0188   -8.6362  -15.2079 O   0  0  0  0  0  0  0  0  0  0  0  0
   25.9577   -6.7670  -20.3980 O   0  0  0  0  0  0  0  0  0  0  0  0
   25.2780   -6.2906  -19.2699 C   0  0  0  0  0  0  0  0  0  0  0  0
   25.9099   -6.1548  -18.0526 C   0  0  0  0  0  0  0  0  0  0  0  0
   25.2444   -5.6859  -16.9384 C   0  0  0  0  0  0  0  0  0  0  0  0
   23.9032   -5.3262  -16.9851 C   0  0  0  0  0  0  0  0  0  0  0  0
   23.2105   -4.8306  -15.7941 C   0  0  0  0  0  0  0  0  0  0  0  0
   22.4996   -5.8934  -15.0019 C   0  0  2  0  0  0  0  0  0  0  0  0
   21.5362   -6.5133  -15.8922 N   0  0  0  0  0  0  0  0  0  0  0  0
   21.8499   -5.4027  -13.7878 C   0  0  0  0  0  0  0  0  0  0  0  0
   20.4808   -5.4295  -13.5759 O   0  0  0  0  0  0  0  0  0  0  0  0
   23.2899   -5.4696  -18.2120 C   0  0  0  0  0  0  0  0  0  0  0  0
   23.9469   -5.9366  -19.3277 C   0  0  0  0  0  0  0  0  0  0  0  0
   22.5614   -4.9239  -12.8699 O   0  0  0  0  0  0  0  0  0  0  0  0
  1  2  1  0
  3  2  1  0
  3  4  1  1
  5  3  1  0
  5  6  2  0
  7  8  1  0
  8 10  1  0
  8  9  2  0
 11 10  1  1
 11 12  1  0
 12  5  1  0
 13 11  1  0
 13 22  1  0
 14 13  2  0
 15 16  1  0
 16 26  2  0
 17 18  2  0
 17 16  1  0
 18 19  1  0
 19 20  1  0
 19 25  2  0
 21 20  1  6
 21 22  1  0
 21 23  1  0
 23 27  2  0
 23 24  1  0
 26 25  1  0
M  END
$$$$
