SNY.pdb
     RDKit          3D

 27 27  0  0  1  0  0  0  0  0999 V2000
   17.1757  -12.7354  -16.8027 O   0  0  0  0  0  0  0  0  0  0  0  0
   17.9315  -12.1711  -15.7891 C   0  0  0  0  0  0  0  0  0  0  0  0
   18.3045  -10.7551  -16.1841 C   0  0  2  0  0  0  0  0  0  0  0  0
   19.1119  -10.8156  -17.3626 N   0  0  0  0  0  0  0  0  0  0  0  0
   19.0036  -10.1165  -15.0407 C   0  0  0  0  0  0  0  0  0  0  0  0
   20.1101  -10.5559  -14.6422 O   0  0  0  0  0  0  0  0  0  0  0  0
   21.9142   -5.8665  -12.8297 N   0  0  0  0  0  0  0  0  0  0  0  0
   21.3309   -7.1439  -12.7041 C   0  0  0  0  0  0  0  0  0  0  0  0
   21.5108   -7.7733  -11.6342 O   0  0  0  0  0  0  0  0  0  0  0  0
   20.5309   -7.7737  -13.7471 C   0  0  0  0  0  0  0  0  0  0  0  0
   19.1896   -8.2845  -13.3230 C   0  0  2  0  0  0  0  0  0  0  0  0
   18.4675   -8.9819  -14.3370 N   0  0  0  0  0  0  0  0  0  0  0  0
   18.3884   -7.1756  -12.7149 C   0  0  0  0  0  0  0  0  0  0  0  0
   17.8612   -6.3039  -13.4523 O   0  0  0  0  0  0  0  0  0  0  0  0
   13.0158  -10.4665   -8.8358 O   0  0  0  0  0  0  0  0  0  0  0  0
   13.7359   -9.4236   -9.4318 C   0  0  0  0  0  0  0  0  0  0  0  0
   14.2355   -9.5329  -10.7117 C   0  0  0  0  0  0  0  0  0  0  0  0
   14.9455   -8.5081  -11.3030 C   0  0  0  0  0  0  0  0  0  0  0  0
   15.1941   -7.3129  -10.6398 C   0  0  0  0  0  0  0  0  0  0  0  0
   15.9496   -6.2346  -11.2804 C   0  0  0  0  0  0  0  0  0  0  0  0
   17.3323   -6.0299  -10.7246 C   0  0  2  0  0  0  0  0  0  0  0  0
   18.1827   -7.0446  -11.3178 N   0  0  0  0  0  0  0  0  0  0  0  0
   17.4046   -6.0743   -9.2652 C   0  0  0  0  0  0  0  0  0  0  0  0
   16.8046   -5.1452   -8.4305 O   0  0  0  0  0  0  0  0  0  0  0  0
   14.6858   -7.2239   -9.3608 C   0  0  0  0  0  0  0  0  0  0  0  0
   13.9767   -8.2417   -8.7643 C   0  0  0  0  0  0  0  0  0  0  0  0
   18.0460   -7.0052   -8.7175 O   0  0  0  0  0  0  0  0  0  0  0  0
  1  2  1  0
  3  2  1  0
  3  4  1  6
  5  3  1  0
  5  6  2  0
  7  8  1  0
  8 10  1  0
  8  9  2  0
 11 10  1  6
 11 12  1  0
 12  5  1  0
 13 11  1  0
 13 22  1  0
 14 13  2  0
 15 16  1  0
 16 26  2  0
 17 18  2  0
 17 16  1  0
 18 19  1  0
 19 20  1  0
 19 25  2  0
 21 20  1  1
 21 22  1  0
 21 23  1  0
 23 27  2  0
 23 24  1  0
 26 25  1  0
M  END
$$$$
