SNY.pdb
     RDKit          3D

 27 27  0  0  1  0  0  0  0  0999 V2000
   20.2399  -20.2961  -11.3851 O   0  0  0  0  0  0  0  0  0  0  0  0
   20.5343  -19.4138  -12.4107 C   0  0  0  0  0  0  0  0  0  0  0  0
   20.8887  -20.2063  -13.6544 C   0  0  2  0  0  0  0  0  0  0  0  0
   19.7427  -20.9680  -14.0431 N   0  0  0  0  0  0  0  0  0  0  0  0
   22.0674  -21.0560  -13.3506 C   0  0  0  0  0  0  0  0  0  0  0  0
   22.1938  -22.1868  -13.8813 O   0  0  0  0  0  0  0  0  0  0  0  0
   27.2414  -21.6503  -13.2410 N   0  0  0  0  0  0  0  0  0  0  0  0
   26.4092  -21.0924  -14.2329 C   0  0  0  0  0  0  0  0  0  0  0  0
   26.8866  -20.9277  -15.3810 O   0  0  0  0  0  0  0  0  0  0  0  0
   25.0261  -20.6965  -13.9992 C   0  0  0  0  0  0  0  0  0  0  0  0
   24.4818  -20.9959  -12.6376 C   0  0  2  0  0  0  0  0  0  0  0  0
   23.1117  -20.6441  -12.4507 N   0  0  0  0  0  0  0  0  0  0  0  0
   25.3698  -20.4010  -11.5893 C   0  0  0  0  0  0  0  0  0  0  0  0
   25.5450  -19.1564  -11.5468 O   0  0  0  0  0  0  0  0  0  0  0  0
   29.3101  -18.9277   -3.8494 O   0  0  0  0  0  0  0  0  0  0  0  0
   28.5821  -19.4383   -4.9315 C   0  0  0  0  0  0  0  0  0  0  0  0
   29.1865  -19.7179   -6.1382 C   0  0  0  0  0  0  0  0  0  0  0  0
   28.4734  -20.2210   -7.2070 C   0  0  0  0  0  0  0  0  0  0  0  0
   27.1095  -20.4720   -7.1231 C   0  0  0  0  0  0  0  0  0  0  0  0
   26.3663  -21.0056   -8.2663 C   0  0  0  0  0  0  0  0  0  0  0  0
   26.9239  -20.6136   -9.6071 C   0  0  2  0  0  0  0  0  0  0  0  0
   26.0450  -21.1782  -10.6139 N   0  0  0  0  0  0  0  0  0  0  0  0
   28.3074  -21.0313   -9.8267 C   0  0  0  0  0  0  0  0  0  0  0  0
   29.4018  -20.1924   -9.6896 O   0  0  0  0  0  0  0  0  0  0  0  0
   26.5243  -20.1854   -5.9076 C   0  0  0  0  0  0  0  0  0  0  0  0
   27.2289  -19.6835   -4.8369 C   0  0  0  0  0  0  0  0  0  0  0  0
   28.5366  -22.2204  -10.1607 O   0  0  0  0  0  0  0  0  0  0  0  0
  1  2  1  0
  3  2  1  0
  3  4  1  1
  5  3  1  0
  5  6  2  0
  7  8  1  0
  8 10  1  0
  8  9  2  0
 11 10  1  6
 11 12  1  0
 12  5  1  0
 13 11  1  0
 13 22  1  0
 14 13  2  0
 15 16  1  0
 16 26  2  0
 17 18  2  0
 17 16  1  0
 18 19  1  0
 19 20  1  0
 19 25  2  0
 21 20  1  1
 21 22  1  0
 21 23  1  0
 23 27  2  0
 23 24  1  0
 26 25  1  0
M  END
$$$$
