SNY.pdb
     RDKit          3D

 27 27  0  0  1  0  0  0  0  0999 V2000
   18.0987  -15.7018  -16.9279 O   0  0  0  0  0  0  0  0  0  0  0  0
   18.7270  -14.7327  -16.1644 C   0  0  0  0  0  0  0  0  0  0  0  0
   18.1169  -13.3818  -16.4855 C   0  0  2  0  0  0  0  0  0  0  0  0
   17.5543  -13.4439  -17.7985 N   0  0  0  0  0  0  0  0  0  0  0  0
   19.1739  -12.3468  -16.3616 C   0  0  0  0  0  0  0  0  0  0  0  0
   19.8514  -12.2481  -15.3092 O   0  0  0  0  0  0  0  0  0  0  0  0
   22.5674   -8.3978  -17.2660 N   0  0  0  0  0  0  0  0  0  0  0  0
   22.0441   -8.8641  -18.4893 C   0  0  0  0  0  0  0  0  0  0  0  0
   22.5181   -8.3958  -19.5519 O   0  0  0  0  0  0  0  0  0  0  0  0
   20.9838   -9.8594  -18.5884 C   0  0  0  0  0  0  0  0  0  0  0  0
   20.4685  -10.3966  -17.2900 C   0  0  2  0  0  0  0  0  0  0  0  0
   19.4782  -11.4162  -17.4158 N   0  0  0  0  0  0  0  0  0  0  0  0
   20.0169   -9.2703  -16.4132 C   0  0  0  0  0  0  0  0  0  0  0  0
   18.8548   -8.8055  -16.5361 O   0  0  0  0  0  0  0  0  0  0  0  0
   19.2422   -4.4688   -9.0027 O   0  0  0  0  0  0  0  0  0  0  0  0
   19.6618   -5.3326  -10.0221 C   0  0  0  0  0  0  0  0  0  0  0  0
   20.5319   -4.9159  -11.0064 C   0  0  0  0  0  0  0  0  0  0  0  0
   20.9481   -5.7633  -12.0127 C   0  0  0  0  0  0  0  0  0  0  0  0
   20.5122   -7.0804  -12.0866 C   0  0  0  0  0  0  0  0  0  0  0  0
   20.9625   -7.9676  -13.1609 C   0  0  0  0  0  0  0  0  0  0  0  0
   20.3900   -7.6447  -14.5139 C   0  0  2  0  0  0  0  0  0  0  0  0
   20.8440   -8.6786  -15.4247 N   0  0  0  0  0  0  0  0  0  0  0  0
   20.7421   -6.3165  -15.0126 C   0  0  0  0  0  0  0  0  0  0  0  0
   19.9724   -5.1824  -14.8089 O   0  0  0  0  0  0  0  0  0  0  0  0
   19.6425   -7.4772  -11.0926 C   0  0  0  0  0  0  0  0  0  0  0  0
   19.2228   -6.6378  -10.0856 C   0  0  0  0  0  0  0  0  0  0  0  0
   21.8044   -6.1764  -15.6683 O   0  0  0  0  0  0  0  0  0  0  0  0
  1  2  1  0
  3  2  1  0
  3  4  1  6
  5  3  1  0
  5  6  2  0
  7  8  1  0
  8 10  1  0
  8  9  2  0
 11 10  1  6
 11 12  1  0
 12  5  1  0
 13 11  1  0
 13 22  1  0
 14 13  2  0
 15 16  1  0
 16 26  2  0
 17 18  2  0
 17 16  1  0
 18 19  1  0
 19 20  1  0
 19 25  2  0
 21 20  1  1
 21 22  1  0
 21 23  1  0
 23 27  2  0
 23 24  1  0
 26 25  1  0
M  END
$$$$
