SNY.pdb
     RDKit          3D

 27 27  0  0  1  0  0  0  0  0999 V2000
   28.7178  -19.0712  -17.2974 O   0  0  0  0  0  0  0  0  0  0  0  0
   27.7009  -19.6040  -16.5235 C   0  0  0  0  0  0  0  0  0  0  0  0
   28.1855  -20.8981  -15.8982 C   0  0  2  0  0  0  0  0  0  0  0  0
   28.2263  -21.9010  -16.9165 N   0  0  0  0  0  0  0  0  0  0  0  0
   27.2742  -21.2506  -14.7807 C   0  0  0  0  0  0  0  0  0  0  0  0
   26.3037  -22.0249  -14.9675 O   0  0  0  0  0  0  0  0  0  0  0  0
   24.7145  -21.3664  -10.1593 N   0  0  0  0  0  0  0  0  0  0  0  0
   25.9953  -20.8107   -9.9635 C   0  0  0  0  0  0  0  0  0  0  0  0
   26.3439  -20.5269   -8.7925 O   0  0  0  0  0  0  0  0  0  0  0  0
   26.9366  -20.5476  -11.0448 C   0  0  0  0  0  0  0  0  0  0  0  0
   26.4671  -20.9028  -12.4208 C   0  0  2  0  0  0  0  0  0  0  0  0
   27.4445  -20.7380  -13.4472 N   0  0  0  0  0  0  0  0  0  0  0  0
   25.1919  -20.1815  -12.7286 C   0  0  0  0  0  0  0  0  0  0  0  0
   25.2237  -18.9820  -13.1052 O   0  0  0  0  0  0  0  0  0  0  0  0
   18.7375  -18.1451  -17.8919 O   0  0  0  0  0  0  0  0  0  0  0  0
   19.7983  -18.6267  -17.1146 C   0  0  0  0  0  0  0  0  0  0  0  0
   20.5157  -17.7957  -16.2812 C   0  0  0  0  0  0  0  0  0  0  0  0
   21.5615  -18.2656  -15.5136 C   0  0  0  0  0  0  0  0  0  0  0  0
   21.9463  -19.6003  -15.5403 C   0  0  0  0  0  0  0  0  0  0  0  0
   23.0587  -20.0840  -14.7201 C   0  0  0  0  0  0  0  0  0  0  0  0
   22.7233  -20.2682  -13.2654 C   0  0  2  0  0  0  0  0  0  0  0  0
   23.9137  -20.7859  -12.6176 N   0  0  0  0  0  0  0  0  0  0  0  0
   21.5741  -21.1376  -13.0203 C   0  0  0  0  0  0  0  0  0  0  0  0
   21.6645  -22.5070  -12.8285 O   0  0  0  0  0  0  0  0  0  0  0  0
   21.2160  -20.4146  -16.3803 C   0  0  0  0  0  0  0  0  0  0  0  0
   20.1716  -19.9533  -17.1490 C   0  0  0  0  0  0  0  0  0  0  0  0
   20.4263  -20.6288  -12.9777 O   0  0  0  0  0  0  0  0  0  0  0  0
  1  2  1  0
  3  2  1  0
  3  4  1  6
  5  3  1  0
  5  6  2  0
  7  8  1  0
  8 10  1  0
  8  9  2  0
 11 10  1  1
 11 12  1  0
 12  5  1  0
 13 11  1  0
 13 22  1  0
 14 13  2  0
 15 16  1  0
 16 26  2  0
 17 18  2  0
 17 16  1  0
 18 19  1  0
 19 20  1  0
 19 25  2  0
 21 20  1  6
 21 22  1  0
 21 23  1  0
 23 27  2  0
 23 24  1  0
 26 25  1  0
M  END
$$$$
