SNY.pdb
     RDKit          3D

 27 27  0  0  1  0  0  0  0  0999 V2000
   20.3291  -13.9924  -15.8873 O   0  0  0  0  0  0  0  0  0  0  0  0
   20.3752  -12.6143  -16.0131 C   0  0  0  0  0  0  0  0  0  0  0  0
   19.1106  -12.1412  -16.7039 C   0  0  2  0  0  0  0  0  0  0  0  0
   19.1288  -12.6200  -18.0511 N   0  0  0  0  0  0  0  0  0  0  0  0
   19.0554  -10.6601  -16.6212 C   0  0  0  0  0  0  0  0  0  0  0  0
   19.6675   -9.9501  -17.4564 O   0  0  0  0  0  0  0  0  0  0  0  0
   18.2488   -5.6803  -15.0367 N   0  0  0  0  0  0  0  0  0  0  0  0
   17.2371   -6.5144  -14.5185 C   0  0  0  0  0  0  0  0  0  0  0  0
   16.2720   -5.9749  -13.9262 O   0  0  0  0  0  0  0  0  0  0  0  0
   17.2497   -7.9674  -14.6323 C   0  0  0  0  0  0  0  0  0  0  0  0
   18.3785   -8.5512  -15.4230 C   0  0  2  0  0  0  0  0  0  0  0  0
   18.3142   -9.9653  -15.6024 N   0  0  0  0  0  0  0  0  0  0  0  0
   19.6883   -8.1098  -14.8478 C   0  0  0  0  0  0  0  0  0  0  0  0
   20.4345   -8.9428  -14.2727 O   0  0  0  0  0  0  0  0  0  0  0  0
   26.8389   -4.3228  -17.6788 O   0  0  0  0  0  0  0  0  0  0  0  0
   25.7513   -5.0223  -17.1408 C   0  0  0  0  0  0  0  0  0  0  0  0
   25.3133   -6.2071  -17.6920 C   0  0  0  0  0  0  0  0  0  0  0  0
   24.2424   -6.8998  -17.1654 C   0  0  0  0  0  0  0  0  0  0  0  0
   23.5496   -6.4395  -16.0525 C   0  0  0  0  0  0  0  0  0  0  0  0
   22.4147   -7.1856  -15.5054 C   0  0  0  0  0  0  0  0  0  0  0  0
   21.5148   -6.3787  -14.6101 C   0  0  2  0  0  0  0  0  0  0  0  0
   20.1514   -6.7709  -14.9138 N   0  0  0  0  0  0  0  0  0  0  0  0
   21.6835   -4.9321  -14.7365 C   0  0  0  0  0  0  0  0  0  0  0  0
   22.5183   -4.1753  -13.9300 O   0  0  0  0  0  0  0  0  0  0  0  0
   24.0038   -5.2527  -15.5164 C   0  0  0  0  0  0  0  0  0  0  0  0
   25.0712   -4.5562  -16.0360 C   0  0  0  0  0  0  0  0  0  0  0  0
   21.0398   -4.3215  -15.6258 O   0  0  0  0  0  0  0  0  0  0  0  0
  1  2  1  0
  3  2  1  0
  3  4  1  6
  5  3  1  0
  5  6  2  0
  7  8  1  0
  8 10  1  0
  8  9  2  0
 11 10  1  1
 11 12  1  0
 12  5  1  0
 13 11  1  0
 13 22  1  0
 14 13  2  0
 15 16  1  0
 16 26  2  0
 17 18  2  0
 17 16  1  0
 18 19  1  0
 19 20  1  0
 19 25  2  0
 21 20  1  6
 21 22  1  0
 21 23  1  0
 23 27  2  0
 23 24  1  0
 26 25  1  0
M  END
$$$$
