SNY.pdb
     RDKit          3D

 27 27  0  0  1  0  0  0  0  0999 V2000
   18.8555  -21.0691  -13.5828 O   0  0  0  0  0  0  0  0  0  0  0  0
   20.0112  -21.5886  -13.0246 C   0  0  0  0  0  0  0  0  0  0  0  0
   20.8781  -22.1587  -14.1308 C   0  0  2  0  0  0  0  0  0  0  0  0
   20.1998  -23.2817  -14.6993 N   0  0  0  0  0  0  0  0  0  0  0  0
   22.1994  -22.5161  -13.5561 C   0  0  0  0  0  0  0  0  0  0  0  0
   22.3049  -23.4601  -12.7351 O   0  0  0  0  0  0  0  0  0  0  0  0
   25.1629  -24.2995  -15.0695 N   0  0  0  0  0  0  0  0  0  0  0  0
   26.0428  -23.1984  -15.0358 C   0  0  0  0  0  0  0  0  0  0  0  0
   27.0507  -23.2241  -15.7818 O   0  0  0  0  0  0  0  0  0  0  0  0
   25.8471  -22.0326  -14.1831 C   0  0  0  0  0  0  0  0  0  0  0  0
   24.6634  -22.0832  -13.2686 C   0  0  2  0  0  0  0  0  0  0  0  0
   23.4103  -21.8181  -13.8975 N   0  0  0  0  0  0  0  0  0  0  0  0
   24.8987  -21.2069  -12.0778 C   0  0  0  0  0  0  0  0  0  0  0  0
   24.5330  -20.0039  -12.1010 O   0  0  0  0  0  0  0  0  0  0  0  0
   28.7588  -18.7716   -4.3524 O   0  0  0  0  0  0  0  0  0  0  0  0
   28.2505  -19.4789   -5.4491 C   0  0  0  0  0  0  0  0  0  0  0  0
   26.8968  -19.6816   -5.6107 C   0  0  0  0  0  0  0  0  0  0  0  0
   26.3914  -20.3778   -6.6895 C   0  0  0  0  0  0  0  0  0  0  0  0
   27.2201  -20.9108   -7.6691 C   0  0  0  0  0  0  0  0  0  0  0  0
   26.6688  -21.6476   -8.8081 C   0  0  0  0  0  0  0  0  0  0  0  0
   26.0659  -20.7780   -9.8771 C   0  0  2  0  0  0  0  0  0  0  0  0
   25.5274  -21.6643  -10.8917 N   0  0  0  0  0  0  0  0  0  0  0  0
   26.9972  -19.8159  -10.4636 C   0  0  0  0  0  0  0  0  0  0  0  0
   28.0077  -20.1554  -11.3489 O   0  0  0  0  0  0  0  0  0  0  0  0
   28.5705  -20.6969   -7.4887 C   0  0  0  0  0  0  0  0  0  0  0  0
   29.0821  -20.0035   -6.4154 C   0  0  0  0  0  0  0  0  0  0  0  0
   26.8893  -18.6024  -10.1572 O   0  0  0  0  0  0  0  0  0  0  0  0
  1  2  1  0
  3  2  1  0
  3  4  1  1
  5  3  1  0
  5  6  2  0
  7  8  1  0
  8 10  1  0
  8  9  2  0
 11 10  1  6
 11 12  1  0
 12  5  1  0
 13 11  1  0
 13 22  1  0
 14 13  2  0
 15 16  1  0
 16 26  2  0
 17 18  2  0
 17 16  1  0
 18 19  1  0
 19 20  1  0
 19 25  2  0
 21 20  1  1
 21 22  1  0
 21 23  1  0
 23 27  2  0
 23 24  1  0
 26 25  1  0
M  END
$$$$
