SNY.pdb
     RDKit          3D

 27 27  0  0  1  0  0  0  0  0999 V2000
   25.5634  -22.5678  -19.0116 O   0  0  0  0  0  0  0  0  0  0  0  0
   26.3104  -21.5531  -19.5855 C   0  0  0  0  0  0  0  0  0  0  0  0
   25.3677  -20.5132  -20.1599 C   0  0  2  0  0  0  0  0  0  0  0  0
   26.1483  -19.5240  -20.8357 N   0  0  0  0  0  0  0  0  0  0  0  0
   24.5590  -19.9478  -19.0508 C   0  0  0  0  0  0  0  0  0  0  0  0
   24.9574  -18.9383  -18.4196 O   0  0  0  0  0  0  0  0  0  0  0  0
   19.6703  -18.1877  -16.6721 N   0  0  0  0  0  0  0  0  0  0  0  0
   20.2170  -19.4865  -16.7177 C   0  0  0  0  0  0  0  0  0  0  0  0
   19.9803  -20.2614  -15.7603 O   0  0  0  0  0  0  0  0  0  0  0  0
   21.0411  -19.9789  -17.8144 C   0  0  0  0  0  0  0  0  0  0  0  0
   22.5185  -19.9730  -17.5752 C   0  0  2  0  0  0  0  0  0  0  0  0
   23.2991  -20.5098  -18.6422 N   0  0  0  0  0  0  0  0  0  0  0  0
   22.8271  -20.6226  -16.2622 C   0  0  0  0  0  0  0  0  0  0  0  0
   22.9381  -21.8732  -16.1906 O   0  0  0  0  0  0  0  0  0  0  0  0
   26.0796  -21.5452   -8.0271 O   0  0  0  0  0  0  0  0  0  0  0  0
   25.6795  -21.1018   -9.2939 C   0  0  0  0  0  0  0  0  0  0  0  0
   26.3582  -21.4734  -10.4345 C   0  0  0  0  0  0  0  0  0  0  0  0
   25.9678  -21.0392  -11.6846 C   0  0  0  0  0  0  0  0  0  0  0  0
   24.8706  -20.2050  -11.8594 C   0  0  0  0  0  0  0  0  0  0  0  0
   24.4687  -19.7521  -13.1926 C   0  0  0  0  0  0  0  0  0  0  0  0
   23.3127  -20.5114  -13.7840 C   0  0  2  0  0  0  0  0  0  0  0  0
   23.0064  -19.8922  -15.0597 N   0  0  0  0  0  0  0  0  0  0  0  0
   22.1281  -20.5620  -12.9290 C   0  0  0  0  0  0  0  0  0  0  0  0
   21.8047  -21.6355  -12.1148 O   0  0  0  0  0  0  0  0  0  0  0  0
   24.2056  -19.8451  -10.7060 C   0  0  0  0  0  0  0  0  0  0  0  0
   24.5890  -20.2742   -9.4556 C   0  0  0  0  0  0  0  0  0  0  0  0
   21.3441  -19.5805  -12.9196 O   0  0  0  0  0  0  0  0  0  0  0  0
  1  2  1  0
  3  2  1  0
  3  4  1  1
  5  3  1  0
  5  6  2  0
  7  8  1  0
  8 10  1  0
  8  9  2  0
 11 10  1  6
 11 12  1  0
 12  5  1  0
 13 11  1  0
 13 22  1  0
 14 13  2  0
 15 16  1  0
 16 26  2  0
 17 18  2  0
 17 16  1  0
 18 19  1  0
 19 20  1  0
 19 25  2  0
 21 20  1  1
 21 22  1  0
 21 23  1  0
 23 27  2  0
 23 24  1  0
 26 25  1  0
M  END
$$$$
