SNY.pdb
     RDKit          3D

 27 27  0  0  1  0  0  0  0  0999 V2000
   20.1398  -12.1670  -14.9661 O   0  0  0  0  0  0  0  0  0  0  0  0
   20.4907  -10.9033  -15.4101 C   0  0  0  0  0  0  0  0  0  0  0  0
   20.1537  -10.7891  -16.8845 C   0  0  2  0  0  0  0  0  0  0  0  0
   21.0601  -11.6171  -17.6176 N   0  0  0  0  0  0  0  0  0  0  0  0
   20.2360   -9.3597  -17.2764 C   0  0  0  0  0  0  0  0  0  0  0  0
   21.2453   -8.9195  -17.8795 O   0  0  0  0  0  0  0  0  0  0  0  0
   18.6238   -4.4981  -19.4876 N   0  0  0  0  0  0  0  0  0  0  0  0
   18.1813   -4.9977  -18.2457 C   0  0  0  0  0  0  0  0  0  0  0  0
   17.8464   -4.1729  -17.3621 O   0  0  0  0  0  0  0  0  0  0  0  0
   18.0913   -6.4181  -17.9311 C   0  0  0  0  0  0  0  0  0  0  0  0
   19.2991   -7.0223  -17.2859 C   0  0  2  0  0  0  0  0  0  0  0  0
   19.1881   -8.4148  -16.9952 N   0  0  0  0  0  0  0  0  0  0  0  0
   19.6930   -6.2201  -16.0848 C   0  0  0  0  0  0  0  0  0  0  0  0
   19.0507   -6.3409  -15.0104 O   0  0  0  0  0  0  0  0  0  0  0  0
   23.7490  -10.4966  -14.3173 O   0  0  0  0  0  0  0  0  0  0  0  0
   23.4872   -9.1244  -14.4164 C   0  0  0  0  0  0  0  0  0  0  0  0
   22.6318   -8.4894  -13.5420 C   0  0  0  0  0  0  0  0  0  0  0  0
   22.3708   -7.1377  -13.6357 C   0  0  0  0  0  0  0  0  0  0  0  0
   22.9562   -6.3461  -14.6160 C   0  0  0  0  0  0  0  0  0  0  0  0
   22.6690   -4.9129  -14.7030 C   0  0  0  0  0  0  0  0  0  0  0  0
   21.2160   -4.5821  -14.9071 C   0  0  2  0  0  0  0  0  0  0  0  0
   20.7773   -5.3060  -16.0854 N   0  0  0  0  0  0  0  0  0  0  0  0
   20.9390   -3.1527  -15.0378 C   0  0  0  0  0  0  0  0  0  0  0  0
   20.4034   -2.5673  -16.1739 O   0  0  0  0  0  0  0  0  0  0  0  0
   23.8085   -7.0006  -15.4805 C   0  0  0  0  0  0  0  0  0  0  0  0
   24.0738   -8.3484  -15.3933 C   0  0  0  0  0  0  0  0  0  0  0  0
   21.1962   -2.3938  -14.0705 O   0  0  0  0  0  0  0  0  0  0  0  0
  1  2  1  0
  3  2  1  0
  3  4  1  6
  5  3  1  0
  5  6  2  0
  7  8  1  0
  8 10  1  0
  8  9  2  0
 11 10  1  1
 11 12  1  0
 12  5  1  0
 13 11  1  0
 13 22  1  0
 14 13  2  0
 15 16  1  0
 16 26  2  0
 17 18  2  0
 17 16  1  0
 18 19  1  0
 19 20  1  0
 19 25  2  0
 21 20  1  6
 21 22  1  0
 21 23  1  0
 23 27  2  0
 23 24  1  0
 26 25  1  0
M  END
$$$$
