SNY.pdb
     RDKit          3D

 27 27  0  0  1  0  0  0  0  0999 V2000
   29.2755  -33.8293  -18.1992 O   0  0  0  0  0  0  0  0  0  0  0  0
   28.7868  -32.5424  -18.0505 C   0  0  0  0  0  0  0  0  0  0  0  0
   29.2498  -31.9921  -16.7152 C   0  0  2  0  0  0  0  0  0  0  0  0
   28.7946  -32.8725  -15.6845 N   0  0  0  0  0  0  0  0  0  0  0  0
   28.7224  -30.6124  -16.5667 C   0  0  0  0  0  0  0  0  0  0  0  0
   27.6107  -30.4085  -16.0201 O   0  0  0  0  0  0  0  0  0  0  0  0
   28.2743  -25.3469  -16.3652 N   0  0  0  0  0  0  0  0  0  0  0  0
   29.5119  -25.6885  -16.9478 C   0  0  0  0  0  0  0  0  0  0  0  0
   30.3404  -24.7703  -17.1568 O   0  0  0  0  0  0  0  0  0  0  0  0
   29.8824  -27.0480  -17.3206 C   0  0  0  0  0  0  0  0  0  0  0  0
   28.9348  -28.1243  -16.8923 C   0  0  2  0  0  0  0  0  0  0  0  0
   29.4373  -29.4527  -17.0297 N   0  0  0  0  0  0  0  0  0  0  0  0
   27.6132  -27.9430  -17.5718 C   0  0  0  0  0  0  0  0  0  0  0  0
   27.4912  -28.2201  -18.7924 O   0  0  0  0  0  0  0  0  0  0  0  0
   18.7943  -28.0582  -18.4962 O   0  0  0  0  0  0  0  0  0  0  0  0
   20.1197  -28.0739  -18.0438 C   0  0  0  0  0  0  0  0  0  0  0  0
   20.5950  -27.1166  -17.1735 C   0  0  0  0  0  0  0  0  0  0  0  0
   21.8998  -27.1280  -16.7251 C   0  0  0  0  0  0  0  0  0  0  0  0
   22.8028  -28.1044  -17.1271 C   0  0  0  0  0  0  0  0  0  0  0  0
   24.1847  -28.1030  -16.6429 C   0  0  0  0  0  0  0  0  0  0  0  0
   25.1523  -27.3673  -17.5289 C   0  0  2  0  0  0  0  0  0  0  0  0
   26.4579  -27.4635  -16.9035 N   0  0  0  0  0  0  0  0  0  0  0  0
   24.7941  -25.9725  -17.7802 C   0  0  0  0  0  0  0  0  0  0  0  0
   23.9637  -25.5585  -18.8094 O   0  0  0  0  0  0  0  0  0  0  0  0
   22.3074  -29.0524  -17.9977 C   0  0  0  0  0  0  0  0  0  0  0  0
   21.0072  -29.0477  -18.4494 C   0  0  0  0  0  0  0  0  0  0  0  0
   25.2586  -25.0813  -17.0266 O   0  0  0  0  0  0  0  0  0  0  0  0
  1  2  1  0
  3  2  1  0
  3  4  1  1
  5  3  1  0
  5  6  2  0
  7  8  1  0
  8 10  1  0
  8  9  2  0
 11 10  1  6
 11 12  1  0
 12  5  1  0
 13 11  1  0
 13 22  1  0
 14 13  2  0
 15 16  1  0
 16 26  2  0
 17 18  2  0
 17 16  1  0
 18 19  1  0
 19 20  1  0
 19 25  2  0
 21 20  1  1
 21 22  1  0
 21 23  1  0
 23 27  2  0
 23 24  1  0
 26 25  1  0
M  END
$$$$
