SNY.pdb
     RDKit          3D

 27 27  0  0  1  0  0  0  0  0999 V2000
   22.7206  -11.5530  -19.1493 O   0  0  0  0  0  0  0  0  0  0  0  0
   22.6089  -12.5641  -18.2100 C   0  0  0  0  0  0  0  0  0  0  0  0
   21.1534  -12.7017  -17.8066 C   0  0  2  0  0  0  0  0  0  0  0  0
   20.3678  -12.8251  -18.9950 N   0  0  0  0  0  0  0  0  0  0  0  0
   20.7780  -11.5205  -16.9897 C   0  0  0  0  0  0  0  0  0  0  0  0
   19.5715  -11.2132  -16.8272 O   0  0  0  0  0  0  0  0  0  0  0  0
   20.7535   -7.2172  -13.9551 N   0  0  0  0  0  0  0  0  0  0  0  0
   21.5608   -8.2602  -13.4569 C   0  0  0  0  0  0  0  0  0  0  0  0
   21.9391   -8.1961  -12.2628 O   0  0  0  0  0  0  0  0  0  0  0  0
   21.9802   -9.4081  -14.2512 C   0  0  0  0  0  0  0  0  0  0  0  0
   21.4023   -9.4957  -15.6289 C   0  0  2  0  0  0  0  0  0  0  0  0
   21.7517  -10.6764  -16.3499 N   0  0  0  0  0  0  0  0  0  0  0  0
   21.7143   -8.2480  -16.3952 C   0  0  0  0  0  0  0  0  0  0  0  0
   22.7199   -8.2090  -17.1495 O   0  0  0  0  0  0  0  0  0  0  0  0
   15.2015   -6.9939  -19.5995 O   0  0  0  0  0  0  0  0  0  0  0  0
   16.5696   -6.8326  -19.3470 C   0  0  0  0  0  0  0  0  0  0  0  0
   17.4796   -7.8219  -19.6517 C   0  0  0  0  0  0  0  0  0  0  0  0
   18.8284   -7.6676  -19.4048 C   0  0  0  0  0  0  0  0  0  0  0  0
   19.3398   -6.5075  -18.8365 C   0  0  0  0  0  0  0  0  0  0  0  0
   20.7737   -6.3586  -18.5801 C   0  0  0  0  0  0  0  0  0  0  0  0
   21.1123   -5.9222  -17.1810 C   0  0  2  0  0  0  0  0  0  0  0  0
   20.9225   -7.0739  -16.3195 N   0  0  0  0  0  0  0  0  0  0  0  0
   20.3357   -4.7789  -16.7050 C   0  0  0  0  0  0  0  0  0  0  0  0
   20.4311   -3.5020  -17.2346 O   0  0  0  0  0  0  0  0  0  0  0  0
   18.4129   -5.5305  -18.5393 C   0  0  0  0  0  0  0  0  0  0  0  0
   17.0660   -5.6771  -18.7826 C   0  0  0  0  0  0  0  0  0  0  0  0
   19.5274   -4.9463  -15.7581 O   0  0  0  0  0  0  0  0  0  0  0  0
  1  2  1  0
  3  2  1  0
  3  4  1  6
  5  3  1  0
  5  6  2  0
  7  8  1  0
  8 10  1  0
  8  9  2  0
 11 10  1  1
 11 12  1  0
 12  5  1  0
 13 11  1  0
 13 22  1  0
 14 13  2  0
 15 16  1  0
 16 26  2  0
 17 18  2  0
 17 16  1  0
 18 19  1  0
 19 20  1  0
 19 25  2  0
 21 20  1  6
 21 22  1  0
 21 23  1  0
 23 27  2  0
 23 24  1  0
 26 25  1  0
M  END
$$$$
