SNY.pdb
     RDKit          3D

 27 27  0  0  1  0  0  0  0  0999 V2000
   16.0081   -2.6202   -8.2053 O   0  0  0  0  0  0  0  0  0  0  0  0
   15.4338   -3.6723   -7.5121 C   0  0  0  0  0  0  0  0  0  0  0  0
   14.3222   -4.2677   -8.3548 C   0  0  2  0  0  0  0  0  0  0  0  0
   13.6657   -5.2771   -7.5837 N   0  0  0  0  0  0  0  0  0  0  0  0
   14.9147   -4.7972   -9.6088 C   0  0  0  0  0  0  0  0  0  0  0  0
   15.3887   -4.0170  -10.4707 O   0  0  0  0  0  0  0  0  0  0  0  0
   16.8293   -7.3451  -13.6320 N   0  0  0  0  0  0  0  0  0  0  0  0
   17.4930   -6.5279  -12.6942 C   0  0  0  0  0  0  0  0  0  0  0  0
   18.6148   -6.0614  -13.0059 O   0  0  0  0  0  0  0  0  0  0  0  0
   16.9490   -6.1947  -11.3837 C   0  0  0  0  0  0  0  0  0  0  0  0
   15.5785   -6.7208  -11.0921 C   0  0  2  0  0  0  0  0  0  0  0  0
   14.9797   -6.2036   -9.9047 N   0  0  0  0  0  0  0  0  0  0  0  0
   15.5885   -8.2176  -11.1186 C   0  0  0  0  0  0  0  0  0  0  0  0
   16.2725   -8.8563  -10.2784 O   0  0  0  0  0  0  0  0  0  0  0  0
    9.6208   -9.7440   -8.2260 O   0  0  0  0  0  0  0  0  0  0  0  0
   10.5463  -10.0124   -9.2424 C   0  0  0  0  0  0  0  0  0  0  0  0
   10.6452   -9.2080  -10.3571 C   0  0  0  0  0  0  0  0  0  0  0  0
   11.5554   -9.4684  -11.3609 C   0  0  0  0  0  0  0  0  0  0  0  0
   12.4196  -10.5546  -11.3008 C   0  0  0  0  0  0  0  0  0  0  0  0
   13.3800  -10.8182  -12.3743 C   0  0  0  0  0  0  0  0  0  0  0  0
   14.7965  -10.4303  -12.0493 C   0  0  2  0  0  0  0  0  0  0  0  0
   14.8529   -8.9806  -12.0609 N   0  0  0  0  0  0  0  0  0  0  0  0
   15.7962  -11.0001  -12.9508 C   0  0  0  0  0  0  0  0  0  0  0  0
   16.5222  -10.2605  -13.8706 O   0  0  0  0  0  0  0  0  0  0  0  0
   12.3045  -11.3466  -10.1776 C   0  0  0  0  0  0  0  0  0  0  0  0
   11.3991  -11.0933   -9.1722 C   0  0  0  0  0  0  0  0  0  0  0  0
   16.0238  -12.2345  -12.9021 O   0  0  0  0  0  0  0  0  0  0  0  0
  1  2  1  0
  3  2  1  0
  3  4  1  1
  5  3  1  0
  5  6  2  0
  7  8  1  0
  8 10  1  0
  8  9  2  0
 11 10  1  1
 11 12  1  0
 12  5  1  0
 13 11  1  0
 13 22  1  0
 14 13  2  0
 15 16  1  0
 16 26  2  0
 17 18  2  0
 17 16  1  0
 18 19  1  0
 19 20  1  0
 19 25  2  0
 21 20  1  6
 21 22  1  0
 21 23  1  0
 23 27  2  0
 23 24  1  0
 26 25  1  0
M  END
$$$$
