SNY.pdb
     RDKit          3D

 27 27  0  0  1  0  0  0  0  0999 V2000
   26.7228  -18.2566  -16.0812 O   0  0  0  0  0  0  0  0  0  0  0  0
   26.9946  -19.2858  -16.9667 C   0  0  0  0  0  0  0  0  0  0  0  0
   27.5809  -20.4541  -16.1975 C   0  0  2  0  0  0  0  0  0  0  0  0
   27.9129  -21.4850  -17.1311 N   0  0  0  0  0  0  0  0  0  0  0  0
   26.5901  -20.8944  -15.1835 C   0  0  0  0  0  0  0  0  0  0  0  0
   25.5862  -21.5684  -15.5216 O   0  0  0  0  0  0  0  0  0  0  0  0
   25.2746  -20.8886   -9.0419 N   0  0  0  0  0  0  0  0  0  0  0  0
   25.2138  -21.2832  -10.3941 C   0  0  0  0  0  0  0  0  0  0  0  0
   24.2635  -22.0188  -10.7530 O   0  0  0  0  0  0  0  0  0  0  0  0
   26.1927  -20.8844  -11.3977 C   0  0  0  0  0  0  0  0  0  0  0  0
   25.7249  -20.9243  -12.8188 C   0  0  2  0  0  0  0  0  0  0  0  0
   26.7178  -20.5824  -13.7849 N   0  0  0  0  0  0  0  0  0  0  0  0
   24.4789  -20.1085  -12.9706 C   0  0  0  0  0  0  0  0  0  0  0  0
   24.5369  -18.8541  -12.9016 O   0  0  0  0  0  0  0  0  0  0  0  0
   22.2942  -21.6856  -19.5344 O   0  0  0  0  0  0  0  0  0  0  0  0
   22.2714  -21.0214  -18.3016 C   0  0  0  0  0  0  0  0  0  0  0  0
   21.1655  -21.0653  -17.4802 C   0  0  0  0  0  0  0  0  0  0  0  0
   21.1385  -20.4126  -16.2649 C   0  0  0  0  0  0  0  0  0  0  0  0
   22.2240  -19.6772  -15.8054 C   0  0  0  0  0  0  0  0  0  0  0  0
   22.1801  -18.9896  -14.5134 C   0  0  0  0  0  0  0  0  0  0  0  0
   21.9858  -19.8999  -13.3318 C   0  0  2  0  0  0  0  0  0  0  0  0
   23.2006  -20.6809  -13.1934 N   0  0  0  0  0  0  0  0  0  0  0  0
   20.8139  -20.7681  -13.4299 C   0  0  0  0  0  0  0  0  0  0  0  0
   20.8764  -22.1508  -13.4954 O   0  0  0  0  0  0  0  0  0  0  0  0
   23.3200  -19.6460  -16.6419 C   0  0  0  0  0  0  0  0  0  0  0  0
   23.3545  -20.2945  -17.8556 C   0  0  0  0  0  0  0  0  0  0  0  0
   19.6720  -20.2453  -13.4578 O   0  0  0  0  0  0  0  0  0  0  0  0
  1  2  1  0
  3  2  1  0
  3  4  1  6
  5  3  1  0
  5  6  2  0
  7  8  1  0
  8 10  1  0
  8  9  2  0
 11 10  1  1
 11 12  1  0
 12  5  1  0
 13 11  1  0
 13 22  1  0
 14 13  2  0
 15 16  1  0
 16 26  2  0
 17 18  2  0
 17 16  1  0
 18 19  1  0
 19 20  1  0
 19 25  2  0
 21 20  1  6
 21 22  1  0
 21 23  1  0
 23 27  2  0
 23 24  1  0
 26 25  1  0
M  END
$$$$
