SNY.pdb
     RDKit          3D

 27 27  0  0  1  0  0  0  0  0999 V2000
   22.0586  -16.6910  -16.4441 O   0  0  0  0  0  0  0  0  0  0  0  0
   22.4951  -15.5712  -15.7568 C   0  0  0  0  0  0  0  0  0  0  0  0
   22.3888  -14.3630  -16.6674 C   0  0  2  0  0  0  0  0  0  0  0  0
   23.0072  -14.6857  -17.9156 N   0  0  0  0  0  0  0  0  0  0  0  0
   23.0285  -13.2066  -15.9912 C   0  0  0  0  0  0  0  0  0  0  0  0
   22.6683  -12.8606  -14.8393 O   0  0  0  0  0  0  0  0  0  0  0  0
   26.5357  -13.3464  -15.2073 N   0  0  0  0  0  0  0  0  0  0  0  0
   26.9931  -12.1538  -15.8042 C   0  0  0  0  0  0  0  0  0  0  0  0
   28.2295  -12.0032  -15.9520 O   0  0  0  0  0  0  0  0  0  0  0  0
   26.1104  -11.0866  -16.2587 C   0  0  0  0  0  0  0  0  0  0  0  0
   24.6526  -11.2821  -15.9821 C   0  0  2  0  0  0  0  0  0  0  0  0
   24.0754  -12.4308  -16.6012 N   0  0  0  0  0  0  0  0  0  0  0  0
   23.8991  -10.0274  -16.2968 C   0  0  0  0  0  0  0  0  0  0  0  0
   23.8445   -9.6076  -17.4810 O   0  0  0  0  0  0  0  0  0  0  0  0
   17.0031   -5.2937  -17.9793 O   0  0  0  0  0  0  0  0  0  0  0  0
   18.0396   -6.1652  -17.6221 C   0  0  0  0  0  0  0  0  0  0  0  0
   19.3176   -6.0036  -18.1123 C   0  0  0  0  0  0  0  0  0  0  0  0
   20.3419   -6.8596  -17.7632 C   0  0  0  0  0  0  0  0  0  0  0  0
   20.1391   -7.9289  -16.8996 C   0  0  0  0  0  0  0  0  0  0  0  0
   21.2362   -8.8290  -16.5387 C   0  0  0  0  0  0  0  0  0  0  0  0
   22.2648   -8.2195  -15.6260 C   0  0  2  0  0  0  0  0  0  0  0  0
   23.2245   -9.2613  -15.3123 N   0  0  0  0  0  0  0  0  0  0  0  0
   21.7121   -7.6327  -14.4065 C   0  0  0  0  0  0  0  0  0  0  0  0
   21.3485   -6.3014  -14.2823 O   0  0  0  0  0  0  0  0  0  0  0  0
   18.8539   -8.0729  -16.4205 C   0  0  0  0  0  0  0  0  0  0  0  0
   17.8270   -7.2232  -16.7642 C   0  0  0  0  0  0  0  0  0  0  0  0
   21.5500   -8.3662  -13.3996 O   0  0  0  0  0  0  0  0  0  0  0  0
  1  2  1  0
  3  2  1  0
  3  4  1  6
  5  3  1  0
  5  6  2  0
  7  8  1  0
  8 10  1  0
  8  9  2  0
 11 10  1  6
 11 12  1  0
 12  5  1  0
 13 11  1  0
 13 22  1  0
 14 13  2  0
 15 16  1  0
 16 26  2  0
 17 18  2  0
 17 16  1  0
 18 19  1  0
 19 20  1  0
 19 25  2  0
 21 20  1  6
 21 22  1  0
 21 23  1  0
 23 27  2  0
 23 24  1  0
 26 25  1  0
M  END
$$$$
