GGP.pdb
     RDKit          3D

 16 16  0  0  1  0  0  0  0  0999 V2000
   23.8597  -20.8744  -12.1097 N   0  0  0  0  0  0  0  0  0  0  0  0
   23.8575  -20.2969  -10.8010 C   0  0  0  0  0  0  0  0  0  0  0  0
   25.2550  -20.2010  -10.2460 C   0  0  0  0  0  0  0  0  0  0  0  0
   26.2307  -19.9134  -10.9863 O   0  0  0  0  0  0  0  0  0  0  0  0
   25.5150  -20.4324   -8.8689 N   0  0  0  0  0  0  0  0  0  0  0  0
   26.7488  -20.0028   -8.2661 C   0  0  0  0  0  0  0  0  0  0  0  0
   26.7654  -20.2255   -6.7973 C   0  0  0  0  0  0  0  0  0  0  0  0
   25.6712  -20.3952   -6.2343 O   0  0  0  0  0  0  0  0  0  0  0  0
   27.9900  -20.2367   -6.1082 N   0  0  0  0  0  0  0  0  0  0  0  0
   29.2474  -20.6077   -6.8122 C   0  0  0  0  0  0  0  0  0  0  0  0
   30.3426  -19.8460   -6.1201 C   0  0  0  0  0  0  0  0  0  0  0  0
   29.6292  -19.0410   -5.0560 C   0  0  0  0  0  0  0  0  0  0  0  0
   28.4289  -19.9803   -4.7847 C   0  0  1  0  0  0  0  0  0  0  0  0
   27.5234  -19.4075   -3.8205 C   0  0  0  0  0  0  0  0  0  0  0  0
   27.4145  -19.6521   -2.4797 O   0  0  0  0  0  0  0  0  0  0  0  0
   26.6941  -18.5401   -4.2803 O   0  0  0  0  0  0  0  0  0  0  0  0
  2  1  1  0
  3  5  1  0
  3  2  1  0
  4  3  2  0
  6  5  1  0
  7  6  1  0
  8  7  2  0
  9 13  1  0
  9  7  1  0
 10  9  1  0
 11 10  1  0
 11 12  1  0
 12 13  1  0
 14 15  1  0
 13 14  1  1
 16 14  2  0
M  END
$$$$
