GGP.pdb
     RDKit          3D

 16 16  0  0  1  0  0  0  0  0999 V2000
   22.6839  -21.4950   -9.4834 N   0  0  0  0  0  0  0  0  0  0  0  0
   23.6934  -20.6582   -8.9114 C   0  0  0  0  0  0  0  0  0  0  0  0
   24.8880  -20.5460   -9.8227 C   0  0  0  0  0  0  0  0  0  0  0  0
   25.6847  -19.5763   -9.7345 O   0  0  0  0  0  0  0  0  0  0  0  0
   25.1526  -21.5319  -10.8103 N   0  0  0  0  0  0  0  0  0  0  0  0
   26.2598  -21.3917  -11.7184 C   0  0  0  0  0  0  0  0  0  0  0  0
   25.9294  -20.5264  -12.8799 C   0  0  0  0  0  0  0  0  0  0  0  0
   24.7282  -20.2932  -13.0933 O   0  0  0  0  0  0  0  0  0  0  0  0
   26.9626  -20.0115  -13.6812 N   0  0  0  0  0  0  0  0  0  0  0  0
   28.3535  -19.9320  -13.1582 C   0  0  0  0  0  0  0  0  0  0  0  0
   29.2490  -20.0788  -14.3562 C   0  0  0  0  0  0  0  0  0  0  0  0
   28.2984  -20.2693  -15.5178 C   0  0  0  0  0  0  0  0  0  0  0  0
   27.0814  -19.4729  -14.9873 C   0  0  1  0  0  0  0  0  0  0  0  0
   25.9703  -19.5435  -15.9028 C   0  0  0  0  0  0  0  0  0  0  0  0
   25.2668  -20.6346  -16.3317 O   0  0  0  0  0  0  0  0  0  0  0  0
   25.5783  -18.4216  -16.3921 O   0  0  0  0  0  0  0  0  0  0  0  0
  2  1  1  0
  3  5  1  0
  3  2  1  0
  4  3  2  0
  6  5  1  0
  7  6  1  0
  8  7  2  0
  9 13  1  0
  9  7  1  0
 10  9  1  0
 11 10  1  0
 11 12  1  0
 12 13  1  0
 14 15  1  0
 13 14  1  6
 16 14  2  0
M  END
$$$$
