GGP.pdb
     RDKit          3D

 16 16  0  0  1  0  0  0  0  0999 V2000
   18.7587  -11.2172  -15.6831 N   0  0  0  0  0  0  0  0  0  0  0  0
   17.8712  -10.1213  -15.4430 C   0  0  0  0  0  0  0  0  0  0  0  0
   17.7035   -9.8701  -13.9668 C   0  0  0  0  0  0  0  0  0  0  0  0
   18.3227  -10.5589  -13.1152 O   0  0  0  0  0  0  0  0  0  0  0  0
   16.8409   -8.8475  -13.4899 N   0  0  0  0  0  0  0  0  0  0  0  0
   16.7381   -8.5617  -12.0835 C   0  0  0  0  0  0  0  0  0  0  0  0
   15.8197   -7.4277  -11.8049 C   0  0  0  0  0  0  0  0  0  0  0  0
   15.4798   -6.7200  -12.7675 O   0  0  0  0  0  0  0  0  0  0  0  0
   15.3754   -7.1974  -10.4918 N   0  0  0  0  0  0  0  0  0  0  0  0
   15.4838   -8.2657   -9.4614 C   0  0  0  0  0  0  0  0  0  0  0  0
   15.6562   -7.5518   -8.1502 C   0  0  0  0  0  0  0  0  0  0  0  0
   15.6680   -6.0841   -8.5173 C   0  0  0  0  0  0  0  0  0  0  0  0
   14.7746   -6.1280   -9.7809 C   0  0  1  0  0  0  0  0  0  0  0  0
   14.6646   -4.8261  -10.3897 C   0  0  0  0  0  0  0  0  0  0  0  0
   15.6327   -4.0543  -10.9697 O   0  0  0  0  0  0  0  0  0  0  0  0
   13.4884   -4.3082  -10.3908 O   0  0  0  0  0  0  0  0  0  0  0  0
  2  1  1  0
  3  5  1  0
  3  2  1  0
  4  3  2  0
  6  5  1  0
  7  6  1  0
  8  7  2  0
  9 13  1  0
  9  7  1  0
 10  9  1  0
 11 10  1  0
 11 12  1  0
 12 13  1  0
 14 15  1  0
 13 14  1  6
 16 14  2  0
M  END
$$$$
