GGP.pdb
     RDKit          3D

 16 16  0  0  1  0  0  0  0  0999 V2000
   22.8124  -19.1868  -15.2357 N   0  0  0  0  0  0  0  0  0  0  0  0
   21.5945  -19.7860  -14.7840 C   0  0  0  0  0  0  0  0  0  0  0  0
   21.8630  -21.0626  -14.0300 C   0  0  0  0  0  0  0  0  0  0  0  0
   22.6331  -21.0811  -13.0354 O   0  0  0  0  0  0  0  0  0  0  0  0
   21.2548  -22.2859  -14.4186 N   0  0  0  0  0  0  0  0  0  0  0  0
   21.2645  -23.4282  -13.5439 C   0  0  0  0  0  0  0  0  0  0  0  0
   19.8938  -23.8654  -13.1733 C   0  0  0  0  0  0  0  0  0  0  0  0
   18.9788  -23.0339  -13.2925 O   0  0  0  0  0  0  0  0  0  0  0  0
   19.6815  -25.1752  -12.7107 N   0  0  0  0  0  0  0  0  0  0  0  0
   20.7190  -26.2229  -12.9121 C   0  0  0  0  0  0  0  0  0  0  0  0
   20.5700  -27.1721  -11.7564 C   0  0  0  0  0  0  0  0  0  0  0  0
   19.4516  -26.5831  -10.9249 C   0  0  0  0  0  0  0  0  0  0  0  0
   18.6461  -25.8756  -12.0417 C   0  0  1  0  0  0  0  0  0  0  0  0
   17.5197  -25.1576  -11.5001 C   0  0  0  0  0  0  0  0  0  0  0  0
   17.4998  -24.0398  -10.7131 O   0  0  0  0  0  0  0  0  0  0  0  0
   16.3620  -25.6312  -11.7949 O   0  0  0  0  0  0  0  0  0  0  0  0
  2  1  1  0
  3  5  1  0
  3  2  1  0
  4  3  2  0
  6  5  1  0
  7  6  1  0
  8  7  2  0
  9 13  1  0
  9  7  1  0
 10  9  1  0
 11 10  1  0
 11 12  1  0
 12 13  1  0
 14 15  1  0
 13 14  1  1
 16 14  2  0
M  END
$$$$
