GGP.pdb
     RDKit          3D

 16 16  0  0  1  0  0  0  0  0999 V2000
   17.0338  -12.3827  -15.7362 N   0  0  0  0  0  0  0  0  0  0  0  0
   16.9283  -10.9578  -15.8054 C   0  0  0  0  0  0  0  0  0  0  0  0
   18.2498  -10.2990  -15.5056 C   0  0  0  0  0  0  0  0  0  0  0  0
   19.3315  -10.9323  -15.6124 O   0  0  0  0  0  0  0  0  0  0  0  0
   18.3159   -8.9415  -15.0928 N   0  0  0  0  0  0  0  0  0  0  0  0
   19.5822   -8.2784  -14.9290 C   0  0  0  0  0  0  0  0  0  0  0  0
   19.4252   -6.8408  -14.5887 C   0  0  0  0  0  0  0  0  0  0  0  0
   18.2918   -6.3471  -14.7097 O   0  0  0  0  0  0  0  0  0  0  0  0
   20.5381   -6.1029  -14.1510 N   0  0  0  0  0  0  0  0  0  0  0  0
   21.7627   -6.7992  -13.6716 C   0  0  0  0  0  0  0  0  0  0  0  0
   22.9076   -5.8812  -13.9960 C   0  0  0  0  0  0  0  0  0  0  0  0
   22.2613   -4.6998  -14.6857 C   0  0  0  0  0  0  0  0  0  0  0  0
   20.8717   -4.7328  -14.0040 C   0  0  1  0  0  0  0  0  0  0  0  0
   20.0022   -3.7151  -14.5386 C   0  0  0  0  0  0  0  0  0  0  0  0
   19.4455   -2.6334  -13.9145 O   0  0  0  0  0  0  0  0  0  0  0  0
   19.7010   -3.8352  -15.7822 O   0  0  0  0  0  0  0  0  0  0  0  0
  2  1  1  0
  3  5  1  0
  3  2  1  0
  4  3  2  0
  6  5  1  0
  7  6  1  0
  8  7  2  0
  9 13  1  0
  9  7  1  0
 10  9  1  0
 11 10  1  0
 11 12  1  0
 12 13  1  0
 14 15  1  0
 13 14  1  6
 16 14  2  0
M  END
$$$$
