GGP.pdb
     RDKit          3D

 16 16  0  0  1  0  0  0  0  0999 V2000
   22.9448  -19.6600  -15.2791 N   0  0  0  0  0  0  0  0  0  0  0  0
   23.0696  -19.1801  -13.9373 C   0  0  0  0  0  0  0  0  0  0  0  0
   24.3468  -19.6654  -13.3022 C   0  0  0  0  0  0  0  0  0  0  0  0
   25.0937  -20.4895  -13.8904 O   0  0  0  0  0  0  0  0  0  0  0  0
   24.7481  -19.2078  -12.0189 N   0  0  0  0  0  0  0  0  0  0  0  0
   25.9357  -19.7197  -11.3882 C   0  0  0  0  0  0  0  0  0  0  0  0
   25.6340  -20.7932  -10.4066 C   0  0  0  0  0  0  0  0  0  0  0  0
   25.0006  -21.7795  -10.8177 O   0  0  0  0  0  0  0  0  0  0  0  0
   26.0648  -20.6614   -9.0756 N   0  0  0  0  0  0  0  0  0  0  0  0
   27.3775  -20.0319   -8.7673 C   0  0  0  0  0  0  0  0  0  0  0  0
   27.2148  -19.3884   -7.4189 C   0  0  0  0  0  0  0  0  0  0  0  0
   25.7771  -19.6662   -7.0382 C   0  0  0  0  0  0  0  0  0  0  0  0
   25.5646  -21.0010   -7.7932 C   0  0  1  0  0  0  0  0  0  0  0  0
   24.2114  -21.4755   -7.6468 C   0  0  0  0  0  0  0  0  0  0  0  0
   23.7350  -22.5288   -6.9168 O   0  0  0  0  0  0  0  0  0  0  0  0
   23.3166  -20.8184   -8.2942 O   0  0  0  0  0  0  0  0  0  0  0  0
  2  1  1  0
  3  5  1  0
  3  2  1  0
  4  3  2  0
  6  5  1  0
  7  6  1  0
  8  7  2  0
  9 13  1  0
  9  7  1  0
 10  9  1  0
 11 10  1  0
 11 12  1  0
 12 13  1  0
 14 15  1  0
 13 14  1  6
 16 14  2  0
M  END
$$$$
