GGP.pdb
     RDKit          3D

 16 16  0  0  1  0  0  0  0  0999 V2000
   28.2561  -17.8472  -17.7263 N   0  0  0  0  0  0  0  0  0  0  0  0
   26.9550  -17.6928  -17.1521 C   0  0  0  0  0  0  0  0  0  0  0  0
   26.9993  -17.8473  -15.6540 C   0  0  0  0  0  0  0  0  0  0  0  0
   26.9787  -16.8437  -14.8956 O   0  0  0  0  0  0  0  0  0  0  0  0
   27.0659  -19.1313  -15.0504 N   0  0  0  0  0  0  0  0  0  0  0  0
   26.8258  -19.3007  -13.6419 C   0  0  0  0  0  0  0  0  0  0  0  0
   25.4863  -19.8802  -13.3647 C   0  0  0  0  0  0  0  0  0  0  0  0
   24.6322  -19.7963  -14.2627 O   0  0  0  0  0  0  0  0  0  0  0  0
   25.2344  -20.4904  -12.1242 N   0  0  0  0  0  0  0  0  0  0  0  0
   26.3604  -20.8655  -11.2264 C   0  0  0  0  0  0  0  0  0  0  0  0
   25.8185  -20.7649   -9.8283 C   0  0  0  0  0  0  0  0  0  0  0  0
   24.3908  -20.2976  -10.0087 C   0  0  0  0  0  0  0  0  0  0  0  0
   24.0926  -20.9129  -11.3977 C   0  0  1  0  0  0  0  0  0  0  0  0
   22.7723  -20.5584  -11.8547 C   0  0  0  0  0  0  0  0  0  0  0  0
   22.3198  -19.3742  -12.3669 O   0  0  0  0  0  0  0  0  0  0  0  0
   21.8854  -21.4848  -11.7712 O   0  0  0  0  0  0  0  0  0  0  0  0
  2  1  1  0
  3  5  1  0
  3  2  1  0
  4  3  2  0
  6  5  1  0
  7  6  1  0
  8  7  2  0
  9 13  1  0
  9  7  1  0
 10  9  1  0
 11 10  1  0
 11 12  1  0
 12 13  1  0
 14 15  1  0
 13 14  1  6
 16 14  2  0
M  END
$$$$
