GGP.pdb
     RDKit          3D

 16 16  0  0  1  0  0  0  0  0999 V2000
   26.7011  -18.9288  -18.2164 N   0  0  0  0  0  0  0  0  0  0  0  0
   27.7013  -18.1857  -17.5138 C   0  0  0  0  0  0  0  0  0  0  0  0
   27.4078  -18.1395  -16.0367 C   0  0  0  0  0  0  0  0  0  0  0  0
   26.8702  -17.1305  -15.5115 O   0  0  0  0  0  0  0  0  0  0  0  0
   27.7288  -19.2340  -15.1903 N   0  0  0  0  0  0  0  0  0  0  0  0
   27.2768  -19.2714  -13.8248 C   0  0  0  0  0  0  0  0  0  0  0  0
   26.0289  -20.0617  -13.6661 C   0  0  0  0  0  0  0  0  0  0  0  0
   25.2835  -20.1545  -14.6554 O   0  0  0  0  0  0  0  0  0  0  0  0
   25.7386  -20.6648  -12.4306 N   0  0  0  0  0  0  0  0  0  0  0  0
   26.8353  -21.1855  -11.5700 C   0  0  0  0  0  0  0  0  0  0  0  0
   26.3429  -21.0527  -10.1563 C   0  0  0  0  0  0  0  0  0  0  0  0
   24.9747  -20.4208  -10.2902 C   0  0  0  0  0  0  0  0  0  0  0  0
   24.5737  -20.9684  -11.6816 C   0  0  1  0  0  0  0  0  0  0  0  0
   23.2924  -20.4550  -12.0968 C   0  0  0  0  0  0  0  0  0  0  0  0
   22.9642  -19.2110  -12.5594 O   0  0  0  0  0  0  0  0  0  0  0  0
   22.3102  -21.2806  -12.0240 O   0  0  0  0  0  0  0  0  0  0  0  0
  2  1  1  0
  3  5  1  0
  3  2  1  0
  4  3  2  0
  6  5  1  0
  7  6  1  0
  8  7  2  0
  9 13  1  0
  9  7  1  0
 10  9  1  0
 11 10  1  0
 11 12  1  0
 12 13  1  0
 14 15  1  0
 13 14  1  6
 16 14  2  0
M  END
$$$$
