GGP.pdb
     RDKit          3D

 16 16  0  0  1  0  0  0  0  0999 V2000
   25.5441  -17.8888  -18.1323 N   0  0  0  0  0  0  0  0  0  0  0  0
   25.3314  -16.8379  -17.1854 C   0  0  0  0  0  0  0  0  0  0  0  0
   25.8586  -17.2157  -15.8254 C   0  0  0  0  0  0  0  0  0  0  0  0
   26.1586  -16.3367  -14.9767 O   0  0  0  0  0  0  0  0  0  0  0  0
   26.0335  -18.5766  -15.4584 N   0  0  0  0  0  0  0  0  0  0  0  0
   26.1925  -18.9572  -14.0800 C   0  0  0  0  0  0  0  0  0  0  0  0
   25.0477  -19.7629  -13.5827 C   0  0  0  0  0  0  0  0  0  0  0  0
   24.0313  -19.8092  -14.2952 O   0  0  0  0  0  0  0  0  0  0  0  0
   25.1492  -20.4312  -12.3507 N   0  0  0  0  0  0  0  0  0  0  0  0
   26.4801  -20.8279  -11.8160 C   0  0  0  0  0  0  0  0  0  0  0  0
   26.3441  -20.7976  -10.3196 C   0  0  0  0  0  0  0  0  0  0  0  0
   24.9207  -20.3453  -10.0782 C   0  0  0  0  0  0  0  0  0  0  0  0
   24.2530  -20.9032  -11.3586 C   0  0  1  0  0  0  0  0  0  0  0  0
   22.8569  -20.5496  -11.4177 C   0  0  0  0  0  0  0  0  0  0  0  0
   22.2697  -19.4080  -11.8881 O   0  0  0  0  0  0  0  0  0  0  0  0
   22.0385  -21.4301  -10.9631 O   0  0  0  0  0  0  0  0  0  0  0  0
  2  1  1  0
  3  5  1  0
  3  2  1  0
  4  3  2  0
  6  5  1  0
  7  6  1  0
  8  7  2  0
  9 13  1  0
  9  7  1  0
 10  9  1  0
 11 10  1  0
 11 12  1  0
 12 13  1  0
 14 15  1  0
 13 14  1  6
 16 14  2  0
M  END
$$$$
