GGP.pdb
     RDKit          3D

 16 16  0  0  1  0  0  0  0  0999 V2000
   17.4799  -14.7928  -19.1582 N   0  0  0  0  0  0  0  0  0  0  0  0
   17.5251  -13.4771  -18.5986 C   0  0  0  0  0  0  0  0  0  0  0  0
   18.7979  -13.2593  -17.8222 C   0  0  0  0  0  0  0  0  0  0  0  0
   19.7308  -14.1029  -17.8524 O   0  0  0  0  0  0  0  0  0  0  0  0
   18.9848  -12.0943  -17.0316 N   0  0  0  0  0  0  0  0  0  0  0  0
   20.2508  -11.8197  -16.4054 C   0  0  0  0  0  0  0  0  0  0  0  0
   20.2193  -10.5764  -15.5929 C   0  0  0  0  0  0  0  0  0  0  0  0
   19.2011   -9.8693  -15.6725 O   0  0  0  0  0  0  0  0  0  0  0  0
   21.3169  -10.2479  -14.7792 N   0  0  0  0  0  0  0  0  0  0  0  0
   22.2892  -11.2960  -14.3662 C   0  0  0  0  0  0  0  0  0  0  0  0
   23.6058  -10.5898  -14.2035 C   0  0  0  0  0  0  0  0  0  0  0  0
   23.3117   -9.1519  -14.5709 C   0  0  0  0  0  0  0  0  0  0  0  0
   21.8224   -9.0797  -14.1548 C   0  0  1  0  0  0  0  0  0  0  0  0
   21.2546   -7.7912  -14.4631 C   0  0  0  0  0  0  0  0  0  0  0  0
   20.6610   -6.8826  -13.6316 O   0  0  0  0  0  0  0  0  0  0  0  0
   21.3099   -7.4380  -15.6975 O   0  0  0  0  0  0  0  0  0  0  0  0
  2  1  1  0
  3  5  1  0
  3  2  1  0
  4  3  2  0
  6  5  1  0
  7  6  1  0
  8  7  2  0
  9 13  1  0
  9  7  1  0
 10  9  1  0
 11 10  1  0
 11 12  1  0
 12 13  1  0
 14 15  1  0
 13 14  1  6
 16 14  2  0
M  END
$$$$
