GGP.pdb
     RDKit          3D

 16 16  0  0  1  0  0  0  0  0999 V2000
   18.2806  -14.3091  -19.0750 N   0  0  0  0  0  0  0  0  0  0  0  0
   17.8937  -13.0292  -18.5666 C   0  0  0  0  0  0  0  0  0  0  0  0
   19.0495  -12.3414  -17.8874 C   0  0  0  0  0  0  0  0  0  0  0  0
   20.2219  -12.7865  -17.9883 O   0  0  0  0  0  0  0  0  0  0  0  0
   18.8517  -11.1683  -17.1114 N   0  0  0  0  0  0  0  0  0  0  0  0
   19.9696  -10.4371  -16.5768 C   0  0  0  0  0  0  0  0  0  0  0  0
   19.5439   -9.2330  -15.8178 C   0  0  0  0  0  0  0  0  0  0  0  0
   18.3436   -8.9185  -15.8747 O   0  0  0  0  0  0  0  0  0  0  0  0
   20.4909   -8.5055  -15.0771 N   0  0  0  0  0  0  0  0  0  0  0  0
   21.8048   -9.1126  -14.7310 C   0  0  0  0  0  0  0  0  0  0  0  0
   22.7754   -7.9678  -14.6533 C   0  0  0  0  0  0  0  0  0  0  0  0
   21.9495   -6.7477  -14.9974 C   0  0  0  0  0  0  0  0  0  0  0  0
   20.5673   -7.2198  -14.4844 C   0  0  1  0  0  0  0  0  0  0  0  0
   19.5464   -6.2381  -14.7519 C   0  0  0  0  0  0  0  0  0  0  0  0
   19.0984   -5.7559  -15.9503 O   0  0  0  0  0  0  0  0  0  0  0  0
   18.9688   -5.7379  -13.7186 O   0  0  0  0  0  0  0  0  0  0  0  0
  2  1  1  0
  3  5  1  0
  3  2  1  0
  4  3  2  0
  6  5  1  0
  7  6  1  0
  8  7  2  0
  9 13  1  0
  9  7  1  0
 10  9  1  0
 11 10  1  0
 11 12  1  0
 12 13  1  0
 14 15  1  0
 13 14  1  6
 16 14  2  0
M  END
$$$$
