GGP.pdb
     RDKit          3D

 16 16  0  0  1  0  0  0  0  0999 V2000
   20.2203  -22.0068  -11.2346 N   0  0  0  0  0  0  0  0  0  0  0  0
   20.4981  -21.2746  -12.4317 C   0  0  0  0  0  0  0  0  0  0  0  0
   21.9390  -21.4313  -12.8435 C   0  0  0  0  0  0  0  0  0  0  0  0
   22.2486  -21.7379  -14.0238 O   0  0  0  0  0  0  0  0  0  0  0  0
   22.9935  -21.2377  -11.9119 N   0  0  0  0  0  0  0  0  0  0  0  0
   24.3677  -21.4055  -12.3038 C   0  0  0  0  0  0  0  0  0  0  0  0
   24.8314  -20.3227  -13.2091 C   0  0  0  0  0  0  0  0  0  0  0  0
   23.9922  -19.4785  -13.5643 O   0  0  0  0  0  0  0  0  0  0  0  0
   26.1733  -20.2890  -13.6248 N   0  0  0  0  0  0  0  0  0  0  0  0
   27.2338  -20.9295  -12.8005 C   0  0  0  0  0  0  0  0  0  0  0  0
   28.2929  -21.3724  -13.7706 C   0  0  0  0  0  0  0  0  0  0  0  0
   27.7513  -20.9789  -15.1274 C   0  0  0  0  0  0  0  0  0  0  0  0
   26.8991  -19.7529  -14.7184 C   0  0  1  0  0  0  0  0  0  0  0  0
   26.1986  -19.2011  -15.8508 C   0  0  0  0  0  0  0  0  0  0  0  0
   26.2170  -17.9270  -16.3464 O   0  0  0  0  0  0  0  0  0  0  0  0
   25.4440  -20.0196  -16.4931 O   0  0  0  0  0  0  0  0  0  0  0  0
  2  1  1  0
  3  5  1  0
  3  2  1  0
  4  3  2  0
  6  5  1  0
  7  6  1  0
  8  7  2  0
  9 13  1  0
  9  7  1  0
 10  9  1  0
 11 10  1  0
 11 12  1  0
 12 13  1  0
 14 15  1  0
 13 14  1  6
 16 14  2  0
M  END
$$$$
