GGP.pdb
     RDKit          3D

 16 16  0  0  1  0  0  0  0  0999 V2000
   25.4697  -18.7668  -18.1480 N   0  0  0  0  0  0  0  0  0  0  0  0
   25.8874  -19.7498  -17.1964 C   0  0  0  0  0  0  0  0  0  0  0  0
   25.7465  -19.2371  -15.7867 C   0  0  0  0  0  0  0  0  0  0  0  0
   24.7091  -18.6294  -15.4160 O   0  0  0  0  0  0  0  0  0  0  0  0
   26.7809  -19.4236  -14.8313 N   0  0  0  0  0  0  0  0  0  0  0  0
   26.5386  -19.2178  -13.4281 C   0  0  0  0  0  0  0  0  0  0  0  0
   25.8259  -20.3633  -12.8057 C   0  0  0  0  0  0  0  0  0  0  0  0
   25.2510  -21.1584  -13.5674 O   0  0  0  0  0  0  0  0  0  0  0  0
   25.8252  -20.5069  -11.4079 N   0  0  0  0  0  0  0  0  0  0  0  0
   27.0255  -20.1335  -10.6114 C   0  0  0  0  0  0  0  0  0  0  0  0
   26.5054  -19.6930   -9.2719 C   0  0  0  0  0  0  0  0  0  0  0  0
   25.0019  -19.8129   -9.3918 C   0  0  0  0  0  0  0  0  0  0  0  0
   24.9173  -20.9665  -10.4207 C   0  0  1  0  0  0  0  0  0  0  0  0
   23.5496  -21.2541  -10.7734 C   0  0  0  0  0  0  0  0  0  0  0  0
   22.7731  -22.3274  -10.4352 O   0  0  0  0  0  0  0  0  0  0  0  0
   22.9686  -20.3793  -11.5142 O   0  0  0  0  0  0  0  0  0  0  0  0
  2  1  1  0
  3  5  1  0
  3  2  1  0
  4  3  2  0
  6  5  1  0
  7  6  1  0
  8  7  2  0
  9 13  1  0
  9  7  1  0
 10  9  1  0
 11 10  1  0
 11 12  1  0
 12 13  1  0
 14 15  1  0
 13 14  1  6
 16 14  2  0
M  END
$$$$
