GGP.pdb
     RDKit          3D

 16 16  0  0  1  0  0  0  0  0999 V2000
   10.1847  -18.6145    1.6984 N   0  0  0  0  0  0  0  0  0  0  0  0
   11.2934  -18.8872    2.5602 C   0  0  0  0  0  0  0  0  0  0  0  0
   12.1574  -17.6657    2.7385 C   0  0  0  0  0  0  0  0  0  0  0  0
   11.7790  -16.5364    2.3333 O   0  0  0  0  0  0  0  0  0  0  0  0
   13.4269  -17.7508    3.3699 N   0  0  0  0  0  0  0  0  0  0  0  0
   14.2372  -16.5779    3.5643 C   0  0  0  0  0  0  0  0  0  0  0  0
   15.4870  -16.8742    4.3107 C   0  0  0  0  0  0  0  0  0  0  0  0
   15.6020  -18.0095    4.8015 O   0  0  0  0  0  0  0  0  0  0  0  0
   16.4759  -15.8836    4.4348 N   0  0  0  0  0  0  0  0  0  0  0  0
   16.5188  -14.7386    3.4853 C   0  0  0  0  0  0  0  0  0  0  0  0
   17.0994  -13.5884    4.2590 C   0  0  0  0  0  0  0  0  0  0  0  0
   17.3319  -14.1450    5.6466 C   0  0  0  0  0  0  0  0  0  0  0  0
   17.5786  -15.6310    5.2894 C   0  0  1  0  0  0  0  0  0  0  0  0
   17.7733  -16.4287    6.4741 C   0  0  0  0  0  0  0  0  0  0  0  0
   18.9068  -17.0413    6.9315 O   0  0  0  0  0  0  0  0  0  0  0  0
   16.7347  -16.5934    7.2129 O   0  0  0  0  0  0  0  0  0  0  0  0
  2  1  1  0
  3  5  1  0
  3  2  1  0
  4  3  2  0
  6  5  1  0
  7  6  1  0
  8  7  2  0
  9 13  1  0
  9  7  1  0
 10  9  1  0
 11 10  1  0
 11 12  1  0
 12 13  1  0
 14 15  1  0
 13 14  1  1
 16 14  2  0
M  END
$$$$
