YQT.pdb
     RDKit          3D

 29 29  0  0  1  0  0  0  0  0999 V2000
    7.8219  -12.3009   18.0528 O   0  0  0  0  0  0  0  0  0  0  0  0
    7.8299  -12.9964   19.2483 C   0  0  0  0  0  0  0  0  0  0  0  0
    8.5799  -14.1537   19.4082 C   0  0  0  0  0  0  0  0  0  0  0  0
    8.5796  -14.8287   20.5906 C   0  0  0  0  0  0  0  0  0  0  0  0
    7.8306  -14.3846   21.6749 C   0  0  0  0  0  0  0  0  0  0  0  0
    7.8842  -15.1817   22.9318 C   0  0  0  0  0  0  0  0  0  0  0  0
    8.1033  -16.6423   22.6588 C   0  0  2  0  0  0  0  0  0  0  0  0
    6.8005  -17.2866   22.4733 N   0  0  0  0  0  0  0  0  0  0  0  0
    8.7948  -17.2768   23.8158 C   0  0  0  0  0  0  0  0  0  0  0  0
    8.1558  -17.8755   24.7261 O   0  0  0  0  0  0  0  0  0  0  0  0
    7.0971  -13.2544   21.5219 C   0  0  0  0  0  0  0  0  0  0  0  0
    7.0941  -12.5581   20.3125 C   0  0  0  0  0  0  0  0  0  0  0  0
   14.1670  -20.0435   23.7756 N   0  0  0  0  0  0  0  0  0  0  0  0
   14.0370  -18.7922   23.1256 C   0  0  0  0  0  0  0  0  0  0  0  0
   14.8631  -18.3575   22.3136 O   0  0  0  0  0  0  0  0  0  0  0  0
   12.8284  -17.9695   23.4540 C   0  0  0  0  0  0  0  0  0  0  0  0
   11.9750  -18.7185   24.4270 C   0  0  0  0  0  0  0  0  0  0  0  0
   10.8850  -17.9332   25.0629 C   0  0  2  0  0  0  0  0  0  0  0  0
   10.1995  -17.2382   23.9493 N   0  0  0  0  0  0  0  0  0  0  0  0
   11.2532  -16.9161   26.0350 C   0  0  0  0  0  0  0  0  0  0  0  0
   12.4765  -16.6564   26.3144 O   0  0  0  0  0  0  0  0  0  0  0  0
    9.6897  -13.1077   26.6958 C   0  0  0  0  0  0  0  0  0  0  0  0
    9.6225  -14.0926   27.8313 C   0  0  1  0  0  0  0  0  0  0  0  0
    8.3040  -14.5562   27.8744 O   0  0  0  0  0  0  0  0  0  0  0  0
   10.6122  -15.1985   27.7692 C   0  0  2  0  0  0  0  0  0  0  0  0
   10.2705  -16.1575   26.7148 N   0  0  0  0  0  0  0  0  0  0  0  0
   10.7090  -15.9275   29.0863 C   0  0  0  0  0  0  0  0  0  0  0  0
   10.4371  -17.1289   29.2106 O   0  0  0  0  0  0  0  0  0  0  0  0
   11.1267  -15.1811   30.1742 O   0  0  0  0  0  0  0  0  0  0  0  0
  2  3  2  0
  2  1  1  0
  4  3  1  0
  5  4  2  0
  6  5  1  0
  7  6  1  0
  7  8  1  1
  9  7  1  0
  9 10  2  0
 11  5  1  0
 11 12  2  0
 12  2  1  0
 14 13  1  0
 15 14  2  0
 16 14  1  0
 18 17  1  6
 17 16  1  0
 18 19  1  0
 19  9  1  0
 20 18  1  0
 21 20  2  0
 23 22  1  6
 23 25  1  0
 24 23  1  0
 25 27  1  0
 25 26  1  6
 26 20  1  0
 27 29  1  0
 28 27  2  0
M  END
$$$$
