YQT.pdb
     RDKit          3D

 29 29  0  0  1  0  0  0  0  0999 V2000
    5.5727  -10.7631   28.6389 O   0  0  0  0  0  0  0  0  0  0  0  0
    6.1282  -11.7295   27.8201 C   0  0  0  0  0  0  0  0  0  0  0  0
    7.0511  -12.6465   28.3047 C   0  0  0  0  0  0  0  0  0  0  0  0
    7.5901  -13.5934   27.4882 C   0  0  0  0  0  0  0  0  0  0  0  0
    7.2370  -13.6744   26.1456 C   0  0  0  0  0  0  0  0  0  0  0  0
    7.8739  -14.7382   25.3207 C   0  0  0  0  0  0  0  0  0  0  0  0
    6.8677  -15.4729   24.4818 C   0  0  2  0  0  0  0  0  0  0  0  0
    6.3889  -16.6363   25.2330 N   0  0  0  0  0  0  0  0  0  0  0  0
    7.5050  -15.9425   23.2197 C   0  0  0  0  0  0  0  0  0  0  0  0
    7.8781  -17.1397   23.0682 O   0  0  0  0  0  0  0  0  0  0  0  0
    6.3358  -12.7801   25.6693 C   0  0  0  0  0  0  0  0  0  0  0  0
    5.7795  -11.8079   26.5017 C   0  0  0  0  0  0  0  0  0  0  0  0
    7.7465  -12.7844   17.4411 N   0  0  0  0  0  0  0  0  0  0  0  0
    8.0705  -14.1614   17.5031 C   0  0  0  0  0  0  0  0  0  0  0  0
    7.6565  -14.9958   16.6888 O   0  0  0  0  0  0  0  0  0  0  0  0
    8.9625  -14.6077   18.6214 C   0  0  0  0  0  0  0  0  0  0  0  0
    8.2461  -14.4283   19.9215 C   0  0  0  0  0  0  0  0  0  0  0  0
    8.4228  -15.5248   20.9093 C   0  0  2  0  0  0  0  0  0  0  0  0
    7.7223  -15.0695   22.1320 N   0  0  0  0  0  0  0  0  0  0  0  0
    9.7776  -15.8778   21.3031 C   0  0  0  0  0  0  0  0  0  0  0  0
   10.4821  -15.1222   22.0610 O   0  0  0  0  0  0  0  0  0  0  0  0
   11.3986  -19.2760   22.8579 C   0  0  0  0  0  0  0  0  0  0  0  0
   11.9132  -18.8652   21.5050 C   0  0  1  0  0  0  0  0  0  0  0  0
   11.2714  -19.6861   20.5725 O   0  0  0  0  0  0  0  0  0  0  0  0
   11.7703  -17.4218   21.1852 C   0  0  2  0  0  0  0  0  0  0  0  0
   10.3795  -17.0835   20.8700 N   0  0  0  0  0  0  0  0  0  0  0  0
   12.6496  -17.0233   20.0260 C   0  0  0  0  0  0  0  0  0  0  0  0
   12.1985  -16.7257   18.9121 O   0  0  0  0  0  0  0  0  0  0  0  0
   14.0123  -17.0010   20.2657 O   0  0  0  0  0  0  0  0  0  0  0  0
  2  3  2  0
  2  1  1  0
  4  3  1  0
  5  4  2  0
  6  5  1  0
  7  6  1  0
  7  8  1  1
  9  7  1  0
  9 10  2  0
 11  5  1  0
 11 12  2  0
 12  2  1  0
 14 13  1  0
 15 14  2  0
 16 14  1  0
 18 17  1  6
 17 16  1  0
 18 19  1  0
 19  9  1  0
 20 18  1  0
 21 20  2  0
 23 22  1  1
 23 25  1  0
 24 23  1  0
 25 27  1  0
 25 26  1  6
 26 20  1  0
 27 29  1  0
 28 27  2  0
M  END
$$$$
