YQT.pdb
     RDKit          3D

 29 29  0  0  1  0  0  0  0  0999 V2000
    8.3936  -13.5436   16.2160 O   0  0  0  0  0  0  0  0  0  0  0  0
    8.0520  -13.8349   17.5242 C   0  0  0  0  0  0  0  0  0  0  0  0
    8.0153  -15.1424   17.9896 C   0  0  0  0  0  0  0  0  0  0  0  0
    7.6780  -15.4155   19.2800 C   0  0  0  0  0  0  0  0  0  0  0  0
    7.3591  -14.3986   20.1734 C   0  0  0  0  0  0  0  0  0  0  0  0
    6.9994  -14.7826   21.5666 C   0  0  0  0  0  0  0  0  0  0  0  0
    6.9581  -16.2737   21.7427 C   0  0  2  0  0  0  0  0  0  0  0  0
    5.8093  -16.8030   21.0031 N   0  0  0  0  0  0  0  0  0  0  0  0
    6.7997  -16.6102   23.1853 C   0  0  0  0  0  0  0  0  0  0  0  0
    5.6746  -16.8991   23.6814 O   0  0  0  0  0  0  0  0  0  0  0  0
    7.3940  -13.1204   19.7219 C   0  0  0  0  0  0  0  0  0  0  0  0
    7.7398  -12.8344   18.4004 C   0  0  0  0  0  0  0  0  0  0  0  0
    6.4591  -20.9396   25.6643 N   0  0  0  0  0  0  0  0  0  0  0  0
    7.4995  -20.7494   24.7228 C   0  0  0  0  0  0  0  0  0  0  0  0
    7.9835  -21.6666   24.0480 O   0  0  0  0  0  0  0  0  0  0  0  0
    8.0255  -19.3567   24.5520 C   0  0  0  0  0  0  0  0  0  0  0  0
    7.2588  -18.4305   25.4408 C   0  0  0  0  0  0  0  0  0  0  0  0
    7.7489  -17.0279   25.4830 C   0  0  2  0  0  0  0  0  0  0  0  0
    7.9018  -16.6218   24.0671 N   0  0  0  0  0  0  0  0  0  0  0  0
    9.0209  -16.7681   26.1385 C   0  0  0  0  0  0  0  0  0  0  0  0
   10.1410  -16.9758   25.5520 O   0  0  0  0  0  0  0  0  0  0  0  0
   10.0628  -13.3956   27.6873 C   0  0  0  0  0  0  0  0  0  0  0  0
   10.2470  -14.5105   28.6808 C   0  0  1  0  0  0  0  0  0  0  0  0
    9.2014  -14.3952   29.6020 O   0  0  0  0  0  0  0  0  0  0  0  0
   10.3404  -15.8719   28.0942 C   0  0  2  0  0  0  0  0  0  0  0  0
    9.0785  -16.2638   27.4599 N   0  0  0  0  0  0  0  0  0  0  0  0
   10.7078  -16.8985   29.1367 C   0  0  0  0  0  0  0  0  0  0  0  0
    9.9626  -17.8372   29.4469 O   0  0  0  0  0  0  0  0  0  0  0  0
   11.9420  -16.7454   29.7437 O   0  0  0  0  0  0  0  0  0  0  0  0
  2  3  2  0
  2  1  1  0
  4  3  1  0
  5  4  2  0
  6  5  1  0
  7  6  1  0
  7  8  1  6
  9  7  1  0
  9 10  2  0
 11  5  1  0
 11 12  2  0
 12  2  1  0
 14 13  1  0
 15 14  2  0
 16 14  1  0
 18 17  1  6
 17 16  1  0
 18 19  1  0
 19  9  1  0
 20 18  1  0
 21 20  2  0
 23 22  1  6
 23 25  1  0
 24 23  1  0
 25 27  1  0
 25 26  1  1
 26 20  1  0
 27 29  1  0
 28 27  2  0
M  END
$$$$
