YQT.pdb
     RDKit          3D

 29 29  0  0  1  0  0  0  0  0999 V2000
    7.7925  -12.1196   17.1274 O   0  0  0  0  0  0  0  0  0  0  0  0
    7.8672  -12.7927   18.3333 C   0  0  0  0  0  0  0  0  0  0  0  0
    9.0870  -13.1716   18.8773 C   0  0  0  0  0  0  0  0  0  0  0  0
    9.1468  -13.8333   20.0657 C   0  0  0  0  0  0  0  0  0  0  0  0
    7.9927  -14.1520   20.7731 C   0  0  0  0  0  0  0  0  0  0  0  0
    8.1452  -14.8784   22.0643 C   0  0  0  0  0  0  0  0  0  0  0  0
    8.8060  -16.2145   21.8795 C   0  0  2  0  0  0  0  0  0  0  0  0
    7.9673  -17.0369   21.0035 N   0  0  0  0  0  0  0  0  0  0  0  0
    8.9448  -16.8985   23.1957 C   0  0  0  0  0  0  0  0  0  0  0  0
    7.9441  -17.3536   23.8177 O   0  0  0  0  0  0  0  0  0  0  0  0
    6.7997  -13.7832   20.2444 C   0  0  0  0  0  0  0  0  0  0  0  0
    6.7324  -13.1042   19.0271 C   0  0  0  0  0  0  0  0  0  0  0  0
   12.4940  -21.2323   24.4036 N   0  0  0  0  0  0  0  0  0  0  0  0
   12.1097  -20.5712   23.2118 C   0  0  0  0  0  0  0  0  0  0  0  0
   12.4295  -20.9625   22.0825 O   0  0  0  0  0  0  0  0  0  0  0  0
   11.2728  -19.3361   23.3504 C   0  0  0  0  0  0  0  0  0  0  0  0
   11.1225  -19.0058   24.8010 C   0  0  0  0  0  0  0  0  0  0  0  0
   10.3372  -17.7804   25.1031 C   0  0  2  0  0  0  0  0  0  0  0  0
   10.2037  -17.0702   23.8106 N   0  0  0  0  0  0  0  0  0  0  0  0
   10.8923  -16.8303   26.0539 C   0  0  0  0  0  0  0  0  0  0  0  0
   11.8266  -16.0150   25.7310 O   0  0  0  0  0  0  0  0  0  0  0  0
    9.8890  -13.7331   27.4780 C   0  0  0  0  0  0  0  0  0  0  0  0
   10.0574  -14.6930   28.6243 C   0  0  1  0  0  0  0  0  0  0  0  0
    8.7723  -15.1165   28.9768 O   0  0  0  0  0  0  0  0  0  0  0  0
   10.9801  -15.8285   28.3686 C   0  0  2  0  0  0  0  0  0  0  0  0
   10.4171  -16.7582   27.3853 N   0  0  0  0  0  0  0  0  0  0  0  0
   11.2929  -16.5824   29.6372 C   0  0  0  0  0  0  0  0  0  0  0  0
   11.0057  -17.7760   29.7974 O   0  0  0  0  0  0  0  0  0  0  0  0
   11.9316  -15.8689   30.6361 O   0  0  0  0  0  0  0  0  0  0  0  0
  2  3  2  0
  2  1  1  0
  4  3  1  0
  5  4  2  0
  6  5  1  0
  7  6  1  0
  7  8  1  6
  9  7  1  0
  9 10  2  0
 11  5  1  0
 11 12  2  0
 12  2  1  0
 14 13  1  0
 15 14  2  0
 16 14  1  0
 18 17  1  6
 17 16  1  0
 18 19  1  0
 19  9  1  0
 20 18  1  0
 21 20  2  0
 23 22  1  6
 23 25  1  0
 24 23  1  0
 25 27  1  0
 25 26  1  6
 26 20  1  0
 27 29  1  0
 28 27  2  0
M  END
$$$$
