YQT.pdb
     RDKit          3D

 29 29  0  0  1  0  0  0  0  0999 V2000
   11.4760  -15.1273   29.4641 O   0  0  0  0  0  0  0  0  0  0  0  0
   10.3509  -15.0359   28.6648 C   0  0  0  0  0  0  0  0  0  0  0  0
    9.5106  -16.1236   28.4694 C   0  0  0  0  0  0  0  0  0  0  0  0
    8.4057  -16.0202   27.6806 C   0  0  0  0  0  0  0  0  0  0  0  0
    8.0819  -14.8264   27.0450 C   0  0  0  0  0  0  0  0  0  0  0  0
    6.8571  -14.7978   26.1983 C   0  0  0  0  0  0  0  0  0  0  0  0
    6.5863  -16.1310   25.5615 C   0  0  2  0  0  0  0  0  0  0  0  0
    6.8590  -17.1847   26.5424 N   0  0  0  0  0  0  0  0  0  0  0  0
    7.4811  -16.3230   24.3859 C   0  0  0  0  0  0  0  0  0  0  0  0
    8.1733  -17.3695   24.2406 O   0  0  0  0  0  0  0  0  0  0  0  0
    8.9007  -13.7621   27.2339 C   0  0  0  0  0  0  0  0  0  0  0  0
   10.0341  -13.8620   28.0420 C   0  0  0  0  0  0  0  0  0  0  0  0
    6.5976  -13.3017   19.1930 N   0  0  0  0  0  0  0  0  0  0  0  0
    7.9380  -13.6620   18.9130 C   0  0  0  0  0  0  0  0  0  0  0  0
    8.5854  -13.1953   17.9676 O   0  0  0  0  0  0  0  0  0  0  0  0
    8.5849  -14.6621   19.8222 C   0  0  0  0  0  0  0  0  0  0  0  0
    7.9640  -14.5650   21.1790 C   0  0  0  0  0  0  0  0  0  0  0  0
    8.4184  -15.5777   22.1676 C   0  0  2  0  0  0  0  0  0  0  0  0
    7.5976  -15.3422   23.3775 N   0  0  0  0  0  0  0  0  0  0  0  0
    9.8106  -15.5466   22.5867 C   0  0  0  0  0  0  0  0  0  0  0  0
   10.2652  -14.6332   23.3618 O   0  0  0  0  0  0  0  0  0  0  0  0
   11.8448  -17.5217   24.9076 C   0  0  0  0  0  0  0  0  0  0  0  0
   12.3977  -17.6787   23.5171 C   0  0  1  0  0  0  0  0  0  0  0  0
   11.9016  -18.8916   23.0295 O   0  0  0  0  0  0  0  0  0  0  0  0
   12.1290  -16.5437   22.5974 C   0  0  2  0  0  0  0  0  0  0  0  0
   10.7299  -16.5349   22.1604 N   0  0  0  0  0  0  0  0  0  0  0  0
   13.0241  -16.5922   21.3841 C   0  0  0  0  0  0  0  0  0  0  0  0
   12.5939  -16.7840   20.2392 O   0  0  0  0  0  0  0  0  0  0  0  0
   14.3768  -16.4060   21.6089 O   0  0  0  0  0  0  0  0  0  0  0  0
  2  3  2  0
  2  1  1  0
  4  3  1  0
  5  4  2  0
  6  5  1  0
  7  6  1  0
  7  8  1  1
  9  7  1  0
  9 10  2  0
 11  5  1  0
 11 12  2  0
 12  2  1  0
 14 13  1  0
 15 14  2  0
 16 14  1  0
 18 17  1  6
 17 16  1  0
 18 19  1  0
 19  9  1  0
 20 18  1  0
 21 20  2  0
 23 22  1  1
 23 25  1  0
 24 23  1  0
 25 27  1  0
 25 26  1  6
 26 20  1  0
 27 29  1  0
 28 27  2  0
M  END
$$$$
