YQT.pdb
     RDKit          3D

 29 29  0  0  1  0  0  0  0  0999 V2000
    6.8690  -11.8571   17.8417 O   0  0  0  0  0  0  0  0  0  0  0  0
    7.4085  -12.6659   18.8255 C   0  0  0  0  0  0  0  0  0  0  0  0
    6.6007  -13.3843   19.6966 C   0  0  0  0  0  0  0  0  0  0  0  0
    7.1445  -14.1774   20.6604 C   0  0  0  0  0  0  0  0  0  0  0  0
    8.5225  -14.2948   20.8058 C   0  0  0  0  0  0  0  0  0  0  0  0
    9.0360  -15.1819   21.8862 C   0  0  0  0  0  0  0  0  0  0  0  0
    9.6529  -16.4354   21.3346 C   0  0  2  0  0  0  0  0  0  0  0  0
    8.6010  -17.2412   20.7092 N   0  0  0  0  0  0  0  0  0  0  0  0
   10.2733  -17.2231   22.4364 C   0  0  0  0  0  0  0  0  0  0  0  0
    9.5866  -17.9708   23.1880 O   0  0  0  0  0  0  0  0  0  0  0  0
    9.3143  -13.5944   19.9564 C   0  0  0  0  0  0  0  0  0  0  0  0
    8.7625  -12.7804   18.9661 C   0  0  0  0  0  0  0  0  0  0  0  0
   15.6287  -19.9401   23.9394 N   0  0  0  0  0  0  0  0  0  0  0  0
   14.7878  -20.4820   22.9373 C   0  0  0  0  0  0  0  0  0  0  0  0
   14.9545  -21.6031   22.4413 O   0  0  0  0  0  0  0  0  0  0  0  0
   13.6434  -19.6356   22.4691 C   0  0  0  0  0  0  0  0  0  0  0  0
   13.6091  -18.3719   23.2677 C   0  0  0  0  0  0  0  0  0  0  0  0
   12.2722  -17.9705   23.7783 C   0  0  2  0  0  0  0  0  0  0  0  0
   11.6603  -17.1705   22.6926 N   0  0  0  0  0  0  0  0  0  0  0  0
   12.2167  -17.1605   24.9849 C   0  0  0  0  0  0  0  0  0  0  0  0
   13.0724  -16.2365   25.2214 O   0  0  0  0  0  0  0  0  0  0  0  0
    8.6810  -16.1335   26.8493 C   0  0  0  0  0  0  0  0  0  0  0  0
   10.0452  -15.5706   27.1426 C   0  0  1  0  0  0  0  0  0  0  0  0
    9.9262  -14.8468   28.3330 O   0  0  0  0  0  0  0  0  0  0  0  0
   11.1444  -16.5685   27.1914 C   0  0  2  0  0  0  0  0  0  0  0  0
   11.2038  -17.3530   25.9548 N   0  0  0  0  0  0  0  0  0  0  0  0
   10.9876  -17.5059   28.3629 C   0  0  0  0  0  0  0  0  0  0  0  0
   10.9696  -17.1156   29.5377 O   0  0  0  0  0  0  0  0  0  0  0  0
   10.8589  -18.8506   28.0628 O   0  0  0  0  0  0  0  0  0  0  0  0
  2  3  2  0
  2  1  1  0
  4  3  1  0
  5  4  2  0
  6  5  1  0
  7  6  1  0
  7  8  1  1
  9  7  1  0
  9 10  2  0
 11  5  1  0
 11 12  2  0
 12  2  1  0
 14 13  1  0
 15 14  2  0
 16 14  1  0
 18 17  1  6
 17 16  1  0
 18 19  1  0
 19  9  1  0
 20 18  1  0
 21 20  2  0
 23 22  1  1
 23 25  1  0
 24 23  1  0
 25 27  1  0
 25 26  1  6
 26 20  1  0
 27 29  1  0
 28 27  2  0
M  END
$$$$
