YQT.pdb
     RDKit          3D

 29 29  0  0  1  0  0  0  0  0999 V2000
    7.7267  -12.5891   16.7861 O   0  0  0  0  0  0  0  0  0  0  0  0
    7.9306  -13.1089   18.0515 C   0  0  0  0  0  0  0  0  0  0  0  0
    9.1380  -13.6939   18.4085 C   0  0  0  0  0  0  0  0  0  0  0  0
    9.3261  -14.2014   19.6578 C   0  0  0  0  0  0  0  0  0  0  0  0
    8.3194  -14.1522   20.6159 C   0  0  0  0  0  0  0  0  0  0  0  0
    8.6058  -14.7312   21.9578 C   0  0  0  0  0  0  0  0  0  0  0  0
    8.8115  -16.2177   21.8930 C   0  0  2  0  0  0  0  0  0  0  0  0
    7.5621  -16.8468   21.4569 N   0  0  0  0  0  0  0  0  0  0  0  0
    9.1695  -16.7398   23.2416 C   0  0  0  0  0  0  0  0  0  0  0  0
    8.2904  -16.9851   24.1149 O   0  0  0  0  0  0  0  0  0  0  0  0
    7.1390  -13.5812   20.2703 C   0  0  0  0  0  0  0  0  0  0  0  0
    6.9407  -13.0588   18.9915 C   0  0  0  0  0  0  0  0  0  0  0  0
   14.0554  -20.0548   23.8592 N   0  0  0  0  0  0  0  0  0  0  0  0
   13.7319  -20.1279   25.2358 C   0  0  0  0  0  0  0  0  0  0  0  0
   14.3495  -20.8321   26.0441 O   0  0  0  0  0  0  0  0  0  0  0  0
   12.5781  -19.3007   25.7153 C   0  0  0  0  0  0  0  0  0  0  0  0
   11.9932  -18.5570   24.5575 C   0  0  0  0  0  0  0  0  0  0  0  0
   10.8482  -17.6653   24.8788 C   0  0  2  0  0  0  0  0  0  0  0  0
   10.5105  -16.9851   23.6074 N   0  0  0  0  0  0  0  0  0  0  0  0
   11.0506  -16.6257   25.8753 C   0  0  0  0  0  0  0  0  0  0  0  0
   11.7548  -15.5827   25.6339 O   0  0  0  0  0  0  0  0  0  0  0  0
    9.2966  -13.8853   27.1927 C   0  0  0  0  0  0  0  0  0  0  0  0
    9.5484  -14.8044   28.3570 C   0  0  1  0  0  0  0  0  0  0  0  0
    8.3536  -15.4958   28.5799 O   0  0  0  0  0  0  0  0  0  0  0  0
   10.7121  -15.7148   28.2044 C   0  0  2  0  0  0  0  0  0  0  0  0
   10.4688  -16.7165   27.1625 N   0  0  0  0  0  0  0  0  0  0  0  0
   11.0363  -16.4184   29.4988 C   0  0  0  0  0  0  0  0  0  0  0  0
   10.9617  -17.6470   29.6324 O   0  0  0  0  0  0  0  0  0  0  0  0
   11.4323  -15.6155   30.5540 O   0  0  0  0  0  0  0  0  0  0  0  0
  2  3  2  0
  2  1  1  0
  4  3  1  0
  5  4  2  0
  6  5  1  0
  7  6  1  0
  7  8  1  1
  9  7  1  0
  9 10  2  0
 11  5  1  0
 11 12  2  0
 12  2  1  0
 14 13  1  0
 15 14  2  0
 16 14  1  0
 18 17  1  6
 17 16  1  0
 18 19  1  0
 19  9  1  0
 20 18  1  0
 21 20  2  0
 23 22  1  6
 23 25  1  0
 24 23  1  0
 25 27  1  0
 25 26  1  6
 26 20  1  0
 27 29  1  0
 28 27  2  0
M  END
$$$$
