YQT.pdb
     RDKit          3D

 29 29  0  0  1  0  0  0  0  0999 V2000
    5.5144  -10.5842   28.4597 O   0  0  0  0  0  0  0  0  0  0  0  0
    6.1060  -11.5556   27.6728 C   0  0  0  0  0  0  0  0  0  0  0  0
    7.1946  -12.2897   28.1239 C   0  0  0  0  0  0  0  0  0  0  0  0
    7.7675  -13.2437   27.3394 C   0  0  0  0  0  0  0  0  0  0  0  0
    7.2846  -13.5146   26.0637 C   0  0  0  0  0  0  0  0  0  0  0  0
    7.9692  -14.5724   25.2698 C   0  0  0  0  0  0  0  0  0  0  0  0
    6.9886  -15.5063   24.6197 C   0  0  2  0  0  0  0  0  0  0  0  0
    6.6988  -16.6035   25.5465 N   0  0  0  0  0  0  0  0  0  0  0  0
    7.5758  -16.0707   23.3723 C   0  0  0  0  0  0  0  0  0  0  0  0
    8.0067  -17.2568   23.3173 O   0  0  0  0  0  0  0  0  0  0  0  0
    6.2213  -12.7993   25.6202 C   0  0  0  0  0  0  0  0  0  0  0  0
    5.6296  -11.8208   26.4202 C   0  0  0  0  0  0  0  0  0  0  0  0
    7.7193  -12.8970   18.1587 N   0  0  0  0  0  0  0  0  0  0  0  0
    8.4291  -14.0096   17.6455 C   0  0  0  0  0  0  0  0  0  0  0  0
    8.7884  -14.1027   16.4653 O   0  0  0  0  0  0  0  0  0  0  0  0
    8.7507  -15.1192   18.5999 C   0  0  0  0  0  0  0  0  0  0  0  0
    8.0940  -14.8413   19.9142 C   0  0  0  0  0  0  0  0  0  0  0  0
    8.3549  -15.8373   20.9862 C   0  0  2  0  0  0  0  0  0  0  0  0
    7.6783  -15.3049   22.1911 N   0  0  0  0  0  0  0  0  0  0  0  0
    9.7373  -16.0969   21.3559 C   0  0  0  0  0  0  0  0  0  0  0  0
   10.4363  -15.2442   22.0086 O   0  0  0  0  0  0  0  0  0  0  0  0
   11.5407  -18.5759   23.6507 C   0  0  0  0  0  0  0  0  0  0  0  0
   11.9087  -18.7827   22.2066 C   0  0  1  0  0  0  0  0  0  0  0  0
   11.1367  -19.8564   21.7522 O   0  0  0  0  0  0  0  0  0  0  0  0
   11.7776  -17.5821   21.3419 C   0  0  2  0  0  0  0  0  0  0  0  0
   10.3741  -17.3144   21.0154 N   0  0  0  0  0  0  0  0  0  0  0  0
   12.5611  -17.7351   20.0619 C   0  0  0  0  0  0  0  0  0  0  0  0
   12.0212  -17.8747   18.9566 O   0  0  0  0  0  0  0  0  0  0  0  0
   13.9399  -17.7095   20.1770 O   0  0  0  0  0  0  0  0  0  0  0  0
  2  3  2  0
  2  1  1  0
  4  3  1  0
  5  4  2  0
  6  5  1  0
  7  6  1  0
  7  8  1  1
  9  7  1  0
  9 10  2  0
 11  5  1  0
 11 12  2  0
 12  2  1  0
 14 13  1  0
 15 14  2  0
 16 14  1  0
 18 17  1  6
 17 16  1  0
 18 19  1  0
 19  9  1  0
 20 18  1  0
 21 20  2  0
 23 22  1  1
 23 25  1  0
 24 23  1  0
 25 27  1  0
 25 26  1  6
 26 20  1  0
 27 29  1  0
 28 27  2  0
M  END
$$$$
