YQT.pdb
     RDKit          3D

 29 29  0  0  1  0  0  0  0  0999 V2000
    7.1642  -11.7599   17.4791 O   0  0  0  0  0  0  0  0  0  0  0  0
    7.6247  -12.6012   18.4756 C   0  0  0  0  0  0  0  0  0  0  0  0
    6.7566  -13.3973   19.2104 C   0  0  0  0  0  0  0  0  0  0  0  0
    7.2229  -14.2218   20.1884 C   0  0  0  0  0  0  0  0  0  0  0  0
    8.5797  -14.2945   20.4848 C   0  0  0  0  0  0  0  0  0  0  0  0
    9.0070  -15.2203   21.5702 C   0  0  0  0  0  0  0  0  0  0  0  0
    9.7190  -16.4267   21.0281 C   0  0  2  0  0  0  0  0  0  0  0  0
    8.7778  -17.2032   20.2169 N   0  0  0  0  0  0  0  0  0  0  0  0
   10.2037  -17.2772   22.1512 C   0  0  0  0  0  0  0  0  0  0  0  0
    9.4310  -18.0554   22.7779 O   0  0  0  0  0  0  0  0  0  0  0  0
    9.4303  -13.5182   19.7688 C   0  0  0  0  0  0  0  0  0  0  0  0
    8.9580  -12.6717   18.7647 C   0  0  0  0  0  0  0  0  0  0  0  0
   15.1033  -21.5753   23.9458 N   0  0  0  0  0  0  0  0  0  0  0  0
   15.1215  -20.1990   23.6134 C   0  0  0  0  0  0  0  0  0  0  0  0
   15.8878  -19.7114   22.7732 O   0  0  0  0  0  0  0  0  0  0  0  0
   14.1538  -19.3064   24.3290 C   0  0  0  0  0  0  0  0  0  0  0  0
   13.4303  -18.4645   23.3272 C   0  0  0  0  0  0  0  0  0  0  0  0
   12.0292  -18.1118   23.6763 C   0  0  2  0  0  0  0  0  0  0  0  0
   11.5520  -17.2529   22.5683 N   0  0  0  0  0  0  0  0  0  0  0  0
   11.7963  -17.3797   24.9111 C   0  0  0  0  0  0  0  0  0  0  0  0
   12.2909  -16.2150   25.1124 O   0  0  0  0  0  0  0  0  0  0  0  0
    9.0910  -15.5942   26.4648 C   0  0  0  0  0  0  0  0  0  0  0  0
    9.4547  -16.7191   27.3955 C   0  0  1  0  0  0  0  0  0  0  0  0
    8.4800  -17.7065   27.2213 O   0  0  0  0  0  0  0  0  0  0  0  0
   10.8340  -17.2481   27.2403 C   0  0  2  0  0  0  0  0  0  0  0  0
   11.0016  -17.9217   25.9495 N   0  0  0  0  0  0  0  0  0  0  0  0
   11.1842  -18.2105   28.3479 C   0  0  0  0  0  0  0  0  0  0  0  0
   11.3770  -19.4178   28.1526 O   0  0  0  0  0  0  0  0  0  0  0  0
   11.2862  -17.6751   29.6198 O   0  0  0  0  0  0  0  0  0  0  0  0
  2  3  2  0
  2  1  1  0
  4  3  1  0
  5  4  2  0
  6  5  1  0
  7  6  1  0
  7  8  1  6
  9  7  1  0
  9 10  2  0
 11  5  1  0
 11 12  2  0
 12  2  1  0
 14 13  1  0
 15 14  2  0
 16 14  1  0
 18 17  1  6
 17 16  1  0
 18 19  1  0
 19  9  1  0
 20 18  1  0
 21 20  2  0
 23 22  1  6
 23 25  1  0
 24 23  1  0
 25 27  1  0
 25 26  1  6
 26 20  1  0
 27 29  1  0
 28 27  2  0
M  END
$$$$
