YQT.pdb
     RDKit          3D

 29 29  0  0  1  0  0  0  0  0999 V2000
    7.8400  -12.3377   16.7226 O   0  0  0  0  0  0  0  0  0  0  0  0
    8.0040  -12.8934   17.9785 C   0  0  0  0  0  0  0  0  0  0  0  0
    9.2658  -13.1276   18.5080 C   0  0  0  0  0  0  0  0  0  0  0  0
    9.4135  -13.6748   19.7460 C   0  0  0  0  0  0  0  0  0  0  0  0
    8.3101  -14.0173   20.5199 C   0  0  0  0  0  0  0  0  0  0  0  0
    8.5584  -14.6125   21.8623 C   0  0  0  0  0  0  0  0  0  0  0  0
    8.9985  -16.0454   21.7660 C   0  0  2  0  0  0  0  0  0  0  0  0
    7.9053  -16.8355   21.1937 N   0  0  0  0  0  0  0  0  0  0  0  0
    9.3147  -16.5716   23.1234 C   0  0  0  0  0  0  0  0  0  0  0  0
    8.4074  -16.9238   23.9285 O   0  0  0  0  0  0  0  0  0  0  0  0
    7.0762  -13.7898   20.0055 C   0  0  0  0  0  0  0  0  0  0  0  0
    6.9188  -13.2285   18.7375 C   0  0  0  0  0  0  0  0  0  0  0  0
   14.3044  -19.5949   24.1270 N   0  0  0  0  0  0  0  0  0  0  0  0
   13.9088  -19.6364   25.4860 C   0  0  0  0  0  0  0  0  0  0  0  0
   14.5108  -20.2844   26.3511 O   0  0  0  0  0  0  0  0  0  0  0  0
   12.6954  -18.8469   25.8728 C   0  0  0  0  0  0  0  0  0  0  0  0
   12.1583  -18.1494   24.6641 C   0  0  0  0  0  0  0  0  0  0  0  0
   10.9561  -17.3050   24.8905 C   0  0  2  0  0  0  0  0  0  0  0  0
   10.6460  -16.7012   23.5744 N   0  0  0  0  0  0  0  0  0  0  0  0
   11.0586  -16.2125   25.8449 C   0  0  0  0  0  0  0  0  0  0  0  0
   11.8800  -15.2429   25.6802 O   0  0  0  0  0  0  0  0  0  0  0  0
    8.9096  -13.4265   26.7175 C   0  0  0  0  0  0  0  0  0  0  0  0
    9.1133  -14.2390   27.9674 C   0  0  1  0  0  0  0  0  0  0  0  0
    7.9459  -14.9875   28.1464 O   0  0  0  0  0  0  0  0  0  0  0  0
   10.3366  -15.0813   27.9822 C   0  0  2  0  0  0  0  0  0  0  0  0
   10.2448  -16.1672   27.0021 N   0  0  0  0  0  0  0  0  0  0  0  0
   10.5852  -15.6701   29.3487 C   0  0  0  0  0  0  0  0  0  0  0  0
   10.7725  -14.9748   30.3557 O   0  0  0  0  0  0  0  0  0  0  0  0
   10.5923  -17.0514   29.4321 O   0  0  0  0  0  0  0  0  0  0  0  0
  2  3  2  0
  2  1  1  0
  4  3  1  0
  5  4  2  0
  6  5  1  0
  7  6  1  0
  7  8  1  1
  9  7  1  0
  9 10  2  0
 11  5  1  0
 11 12  2  0
 12  2  1  0
 14 13  1  0
 15 14  2  0
 16 14  1  0
 18 17  1  6
 17 16  1  0
 18 19  1  0
 19  9  1  0
 20 18  1  0
 21 20  2  0
 23 22  1  6
 23 25  1  0
 24 23  1  0
 25 27  1  0
 25 26  1  6
 26 20  1  0
 27 29  1  0
 28 27  2  0
M  END
$$$$
