YQT.pdb
     RDKit          3D

 29 29  0  0  1  0  0  0  0  0999 V2000
    6.8227  -11.5166   18.5814 O   0  0  0  0  0  0  0  0  0  0  0  0
    7.4097  -12.6629   19.0856 C   0  0  0  0  0  0  0  0  0  0  0  0
    6.7559  -13.8872   19.0509 C   0  0  0  0  0  0  0  0  0  0  0  0
    7.3453  -15.0084   19.5501 C   0  0  0  0  0  0  0  0  0  0  0  0
    8.6173  -14.9667   20.1104 C   0  0  0  0  0  0  0  0  0  0  0  0
    9.1895  -16.2376   20.6352 C   0  0  0  0  0  0  0  0  0  0  0  0
    9.6874  -17.1250   19.5303 C   0  0  2  0  0  0  0  0  0  0  0  0
    8.5382  -17.6038   18.7577 N   0  0  0  0  0  0  0  0  0  0  0  0
   10.4045  -18.2975   20.1052 C   0  0  0  0  0  0  0  0  0  0  0  0
    9.8016  -19.3681   20.3978 O   0  0  0  0  0  0  0  0  0  0  0  0
    9.2586  -13.7724   20.1457 C   0  0  0  0  0  0  0  0  0  0  0  0
    8.6598  -12.6200   19.6349 C   0  0  0  0  0  0  0  0  0  0  0  0
   13.8904  -21.6051   18.4008 N   0  0  0  0  0  0  0  0  0  0  0  0
   14.5018  -21.7829   19.6655 C   0  0  0  0  0  0  0  0  0  0  0  0
   14.8214  -22.8892   20.1179 O   0  0  0  0  0  0  0  0  0  0  0  0
   14.7655  -20.5533   20.4802 C   0  0  0  0  0  0  0  0  0  0  0  0
   13.7984  -19.4846   20.0822 C   0  0  0  0  0  0  0  0  0  0  0  0
   12.5161  -19.4659   20.8338 C   0  0  2  0  0  0  0  0  0  0  0  0
   11.7942  -18.2666   20.3504 N   0  0  0  0  0  0  0  0  0  0  0  0
   12.5755  -19.3695   22.2837 C   0  0  0  0  0  0  0  0  0  0  0  0
   12.9965  -18.3145   22.8766 O   0  0  0  0  0  0  0  0  0  0  0  0
   11.1661  -21.2296   26.6999 C   0  0  0  0  0  0  0  0  0  0  0  0
   11.1668  -21.2118   25.1954 C   0  0  1  0  0  0  0  0  0  0  0  0
    9.8791  -20.8323   24.8043 O   0  0  0  0  0  0  0  0  0  0  0  0
   12.2211  -20.3708   24.5730 C   0  0  2  0  0  0  0  0  0  0  0  0
   12.1610  -20.4412   23.1102 N   0  0  0  0  0  0  0  0  0  0  0  0
   13.5982  -20.7832   25.0303 C   0  0  0  0  0  0  0  0  0  0  0  0
   14.2179  -21.7291   24.5265 O   0  0  0  0  0  0  0  0  0  0  0  0
   14.1539  -20.0413   26.0579 O   0  0  0  0  0  0  0  0  0  0  0  0
  2  3  2  0
  2  1  1  0
  4  3  1  0
  5  4  2  0
  6  5  1  0
  7  6  1  0
  7  8  1  1
  9  7  1  0
  9 10  2  0
 11  5  1  0
 11 12  2  0
 12  2  1  0
 14 13  1  0
 15 14  2  0
 16 14  1  0
 18 17  1  6
 17 16  1  0
 18 19  1  0
 19  9  1  0
 20 18  1  0
 21 20  2  0
 23 22  1  1
 23 25  1  0
 24 23  1  0
 25 27  1  0
 25 26  1  6
 26 20  1  0
 27 29  1  0
 28 27  2  0
M  END
$$$$
