KGE.pdb
     RDKit          3D

 23 22  0  0  1  0  0  0  0  0999 V2000
   15.7929  -14.5594  -17.4297 N   0  0  0  0  0  0  0  0  0  0  0  0
   16.8970  -14.3653  -16.5381 C   0  0  1  0  0  0  0  0  0  0  0  0
   17.7997  -15.5753  -16.4797 C   0  0  0  0  0  0  0  0  0  0  0  0
   17.0933  -16.8651  -16.2462 C   0  0  0  0  0  0  0  0  0  0  0  0
   17.9650  -18.0709  -16.1159 C   0  0  0  0  0  0  0  0  0  0  0  0
   17.1989  -19.3592  -16.0828 C   0  0  0  0  0  0  0  0  0  0  0  0
   18.1567  -20.4474  -16.0609 N   0  0  0  0  0  0  0  0  0  0  0  0
   17.7406  -13.2044  -16.9037 C   0  0  0  0  0  0  0  0  0  0  0  0
   18.3423  -13.2343  -18.0079 O   0  0  0  0  0  0  0  0  0  0  0  0
   17.9179  -12.0541  -16.0897 N   0  0  0  0  0  0  0  0  0  0  0  0
   18.8158  -10.9830  -16.4200 C   0  0  0  0  0  0  0  0  0  0  0  0
   18.8647   -9.9357  -15.3707 C   0  0  0  0  0  0  0  0  0  0  0  0
   18.0624  -10.0011  -14.4073 O   0  0  0  0  0  0  0  0  0  0  0  0
   19.7897   -8.8621  -15.4213 N   0  0  0  0  0  0  0  0  0  0  0  0
   19.7689   -7.7649  -14.4573 C   0  0  1  0  0  0  0  0  0  0  0  0
   21.0978   -7.0747  -14.5939 C   0  0  0  0  0  0  0  0  0  0  0  0
   21.3013   -5.8930  -13.7019 C   0  0  0  0  0  0  0  0  0  0  0  0
   22.4907   -5.1191  -14.0384 C   0  0  0  0  0  0  0  0  0  0  0  0
   23.3914   -5.4670  -14.8337 O   0  0  0  0  0  0  0  0  0  0  0  0
   18.6045   -6.8960  -14.6492 C   0  0  0  0  0  0  0  0  0  0  0  0
   17.9969   -6.3344  -13.5314 O   0  0  0  0  0  0  0  0  0  0  0  0
   22.6620   -3.8650  -13.4256 O   0  0  0  0  0  0  0  0  0  0  0  0
   18.1048   -6.6147  -15.7624 O   0  0  0  0  0  0  0  0  0  0  0  0
  2  8  1  0
  2  1  1  6
  3  2  1  0
  4  3  1  0
  5  6  1  0
  5  4  1  0
  7  6  1  0
  8  9  2  0
 10 11  1  0
 10  8  1  0
 12 11  1  0
 12 14  1  0
 13 12  2  0
 15 14  1  0
 15 16  1  6
 16 17  1  0
 18 17  1  0
 18 22  1  0
 19 18  2  0
 20 15  1  0
 21 20  1  0
 23 20  2  0
M  END
$$$$
