KGE.pdb
     RDKit          3D

 23 22  0  0  1  0  0  0  0  0999 V2000
   25.4405  -20.6828  -15.1362 N   0  0  0  0  0  0  0  0  0  0  0  0
   26.0354  -20.8296  -13.8415 C   0  0  1  0  0  0  0  0  0  0  0  0
   27.3204  -20.0454  -13.7144 C   0  0  0  0  0  0  0  0  0  0  0  0
   28.4107  -20.4898  -14.6261 C   0  0  0  0  0  0  0  0  0  0  0  0
   28.2260  -20.1610  -16.0712 C   0  0  0  0  0  0  0  0  0  0  0  0
   29.3789  -20.5846  -16.9308 C   0  0  0  0  0  0  0  0  0  0  0  0
   29.0922  -20.1799  -18.2931 N   0  0  0  0  0  0  0  0  0  0  0  0
   25.1444  -20.3953  -12.7413 C   0  0  0  0  0  0  0  0  0  0  0  0
   24.4671  -19.3483  -12.9063 O   0  0  0  0  0  0  0  0  0  0  0  0
   25.0013  -21.0826  -11.5067 N   0  0  0  0  0  0  0  0  0  0  0  0
   24.0821  -20.6793  -10.4796 C   0  0  0  0  0  0  0  0  0  0  0  0
   22.6841  -20.5919  -10.9677 C   0  0  0  0  0  0  0  0  0  0  0  0
   21.9570  -19.6500  -10.5673 O   0  0  0  0  0  0  0  0  0  0  0  0
   22.1422  -21.5395  -11.8729 N   0  0  0  0  0  0  0  0  0  0  0  0
   20.7883  -21.4249  -12.4086 C   0  0  1  0  0  0  0  0  0  0  0  0
   20.8474  -21.9983  -13.7973 C   0  0  0  0  0  0  0  0  0  0  0  0
   19.5466  -22.0347  -14.5321 C   0  0  0  0  0  0  0  0  0  0  0  0
   19.6508  -22.6465  -15.8518 C   0  0  0  0  0  0  0  0  0  0  0  0
   20.6537  -23.2379  -16.3091 O   0  0  0  0  0  0  0  0  0  0  0  0
   19.8009  -22.0544  -11.5273 C   0  0  0  0  0  0  0  0  0  0  0  0
   20.1624  -23.2008  -10.8279 O   0  0  0  0  0  0  0  0  0  0  0  0
   18.5351  -22.5780  -16.7053 O   0  0  0  0  0  0  0  0  0  0  0  0
   18.6352  -21.6321  -11.3518 O   0  0  0  0  0  0  0  0  0  0  0  0
  2  8  1  0
  2  1  1  6
  3  2  1  0
  4  3  1  0
  5  6  1  0
  5  4  1  0
  7  6  1  0
  8  9  2  0
 10 11  1  0
 10  8  1  0
 12 11  1  0
 12 14  1  0
 13 12  2  0
 15 14  1  0
 15 16  1  6
 16 17  1  0
 18 17  1  0
 18 22  1  0
 19 18  2  0
 20 15  1  0
 21 20  1  0
 23 20  2  0
M  END
$$$$
