KGE.pdb
     RDKit          3D

 23 22  0  0  1  0  0  0  0  0999 V2000
   27.8147  -18.7325  -20.0335 N   0  0  0  0  0  0  0  0  0  0  0  0
   27.1421  -18.7848  -18.7699 C   0  0  1  0  0  0  0  0  0  0  0  0
   28.0080  -19.3900  -17.6899 C   0  0  0  0  0  0  0  0  0  0  0  0
   28.5705  -20.7278  -18.0232 C   0  0  0  0  0  0  0  0  0  0  0  0
   28.2136  -21.8360  -17.0878 C   0  0  0  0  0  0  0  0  0  0  0  0
   28.7615  -23.1676  -17.5049 C   0  0  0  0  0  0  0  0  0  0  0  0
   28.2636  -24.1652  -16.5781 N   0  0  0  0  0  0  0  0  0  0  0  0
   26.7058  -17.4537  -18.2895 C   0  0  0  0  0  0  0  0  0  0  0  0
   26.0213  -17.3999  -17.2355 O   0  0  0  0  0  0  0  0  0  0  0  0
   27.0082  -16.2279  -18.9399 N   0  0  0  0  0  0  0  0  0  0  0  0
   26.5469  -14.9506  -18.4727 C   0  0  0  0  0  0  0  0  0  0  0  0
   25.3027  -14.5109  -19.1503 C   0  0  0  0  0  0  0  0  0  0  0  0
   25.0532  -14.9399  -20.3035 O   0  0  0  0  0  0  0  0  0  0  0  0
   24.3856  -13.6206  -18.5364 N   0  0  0  0  0  0  0  0  0  0  0  0
   23.1509  -13.1947  -19.1903 C   0  0  1  0  0  0  0  0  0  0  0  0
   22.0328  -13.6787  -18.3092 C   0  0  0  0  0  0  0  0  0  0  0  0
   20.6535  -13.4011  -18.8128 C   0  0  0  0  0  0  0  0  0  0  0  0
   19.6097  -13.9738  -17.9705 C   0  0  0  0  0  0  0  0  0  0  0  0
   19.7863  -14.5546  -16.8767 O   0  0  0  0  0  0  0  0  0  0  0  0
   23.1448  -11.7527  -19.4517 C   0  0  0  0  0  0  0  0  0  0  0  0
   22.2492  -11.2457  -20.3870 O   0  0  0  0  0  0  0  0  0  0  0  0
   18.2764  -13.8764  -18.4069 O   0  0  0  0  0  0  0  0  0  0  0  0
   23.8976  -10.9261  -18.8875 O   0  0  0  0  0  0  0  0  0  0  0  0
  2  8  1  0
  2  1  1  6
  3  2  1  0
  4  3  1  0
  5  6  1  0
  5  4  1  0
  7  6  1  0
  8  9  2  0
 10 11  1  0
 10  8  1  0
 12 11  1  0
 12 14  1  0
 13 12  2  0
 15 14  1  0
 15 16  1  1
 16 17  1  0
 18 17  1  0
 18 22  1  0
 19 18  2  0
 20 15  1  0
 21 20  1  0
 23 20  2  0
M  END
$$$$
