KGE.pdb
     RDKit          3D

 23 22  0  0  1  0  0  0  0  0999 V2000
   18.0252  -15.5712  -17.5430 N   0  0  0  0  0  0  0  0  0  0  0  0
   18.8274  -14.9277  -16.5459 C   0  0  1  0  0  0  0  0  0  0  0  0
   20.0734  -15.7184  -16.2219 C   0  0  0  0  0  0  0  0  0  0  0  0
   19.8225  -17.1204  -15.7876 C   0  0  0  0  0  0  0  0  0  0  0  0
   20.9997  -17.8494  -15.2277 C   0  0  0  0  0  0  0  0  0  0  0  0
   20.6630  -19.2149  -14.7085 C   0  0  0  0  0  0  0  0  0  0  0  0
   21.8677  -19.7846  -14.1373 N   0  0  0  0  0  0  0  0  0  0  0  0
   19.2597  -13.5669  -16.9387 C   0  0  0  0  0  0  0  0  0  0  0  0
   19.5531  -13.3642  -18.1450 O   0  0  0  0  0  0  0  0  0  0  0  0
   19.3664  -12.4698  -16.0432 N   0  0  0  0  0  0  0  0  0  0  0  0
   19.7979  -11.1604  -16.4455 C   0  0  0  0  0  0  0  0  0  0  0  0
   19.7383  -10.1750  -15.3383 C   0  0  0  0  0  0  0  0  0  0  0  0
   19.1881  -10.5044  -14.2590 O   0  0  0  0  0  0  0  0  0  0  0  0
   20.2834   -8.8717  -15.4604 N   0  0  0  0  0  0  0  0  0  0  0  0
   20.2228   -7.8932  -14.3777 C   0  0  1  0  0  0  0  0  0  0  0  0
   21.2322   -6.8344  -14.7256 C   0  0  0  0  0  0  0  0  0  0  0  0
   21.4551   -5.7921  -13.6781 C   0  0  0  0  0  0  0  0  0  0  0  0
   22.4084   -4.7659  -14.0845 C   0  0  0  0  0  0  0  0  0  0  0  0
   23.4294   -4.9489  -14.7836 O   0  0  0  0  0  0  0  0  0  0  0  0
   18.8596   -7.3961  -14.1713 C   0  0  0  0  0  0  0  0  0  0  0  0
   18.4263   -7.1501  -12.8730 O   0  0  0  0  0  0  0  0  0  0  0  0
   22.1797   -3.4435  -13.6642 O   0  0  0  0  0  0  0  0  0  0  0  0
   18.0395   -7.1715  -15.0906 O   0  0  0  0  0  0  0  0  0  0  0  0
  2  8  1  0
  2  1  1  6
  3  2  1  0
  4  3  1  0
  5  6  1  0
  5  4  1  0
  7  6  1  0
  8  9  2  0
 10 11  1  0
 10  8  1  0
 12 11  1  0
 12 14  1  0
 13 12  2  0
 15 14  1  0
 15 16  1  6
 16 17  1  0
 18 17  1  0
 18 22  1  0
 19 18  2  0
 20 15  1  0
 21 20  1  0
 23 20  2  0
M  END
$$$$
