KGE.pdb
     RDKit          3D

 23 22  0  0  1  0  0  0  0  0999 V2000
   18.3623  -22.0733  -16.0876 N   0  0  0  0  0  0  0  0  0  0  0  0
   17.5174  -21.9721  -17.2399 C   0  0  1  0  0  0  0  0  0  0  0  0
   16.4113  -20.9615  -17.0465 C   0  0  0  0  0  0  0  0  0  0  0  0
   15.8241  -20.9392  -15.6783 C   0  0  0  0  0  0  0  0  0  0  0  0
   14.9875  -22.1200  -15.3091 C   0  0  0  0  0  0  0  0  0  0  0  0
   14.4248  -22.0413  -13.9218 C   0  0  0  0  0  0  0  0  0  0  0  0
   13.8082  -23.3177  -13.6173 N   0  0  0  0  0  0  0  0  0  0  0  0
   18.2532  -21.5896  -18.4668 C   0  0  0  0  0  0  0  0  0  0  0  0
   17.5844  -21.2968  -19.4911 O   0  0  0  0  0  0  0  0  0  0  0  0
   19.6686  -21.5303  -18.5671 N   0  0  0  0  0  0  0  0  0  0  0  0
   20.3594  -21.0815  -19.7436 C   0  0  0  0  0  0  0  0  0  0  0  0
   21.4164  -20.0863  -19.4396 C   0  0  0  0  0  0  0  0  0  0  0  0
   21.1074  -19.0405  -18.8176 O   0  0  0  0  0  0  0  0  0  0  0  0
   22.7661  -20.2788  -19.8296 N   0  0  0  0  0  0  0  0  0  0  0  0
   23.8229  -19.3307  -19.4867 C   0  0  1  0  0  0  0  0  0  0  0  0
   25.1176  -20.0609  -19.7132 C   0  0  0  0  0  0  0  0  0  0  0  0
   26.3549  -19.2890  -19.3866 C   0  0  0  0  0  0  0  0  0  0  0  0
   27.5812  -19.9995  -19.7305 C   0  0  0  0  0  0  0  0  0  0  0  0
   27.6548  -21.1779  -20.1438 O   0  0  0  0  0  0  0  0  0  0  0  0
   23.6887  -18.0757  -20.2317 C   0  0  0  0  0  0  0  0  0  0  0  0
   24.2546  -16.9202  -19.7039 O   0  0  0  0  0  0  0  0  0  0  0  0
   28.8039  -19.3185  -19.5930 O   0  0  0  0  0  0  0  0  0  0  0  0
   23.0929  -17.9611  -21.3271 O   0  0  0  0  0  0  0  0  0  0  0  0
  2  8  1  0
  2  1  1  1
  3  2  1  0
  4  3  1  0
  5  6  1  0
  5  4  1  0
  7  6  1  0
  8  9  2  0
 10 11  1  0
 10  8  1  0
 12 11  1  0
 12 14  1  0
 13 12  2  0
 15 14  1  0
 15 16  1  6
 16 17  1  0
 18 17  1  0
 18 22  1  0
 19 18  2  0
 20 15  1  0
 21 20  1  0
 23 20  2  0
M  END
$$$$
