KGE.pdb
     RDKit          3D

 23 22  0  0  1  0  0  0  0  0999 V2000
   20.1191  -10.7515  -18.5449 N   0  0  0  0  0  0  0  0  0  0  0  0
   21.5068  -10.6931  -18.1948 C   0  0  1  0  0  0  0  0  0  0  0  0
   22.3144   -9.9081  -19.2016 C   0  0  0  0  0  0  0  0  0  0  0  0
   22.4731  -10.5741  -20.5239 C   0  0  0  0  0  0  0  0  0  0  0  0
   23.3698  -11.7683  -20.5483 C   0  0  0  0  0  0  0  0  0  0  0  0
   23.6008  -12.3119  -21.9262 C   0  0  0  0  0  0  0  0  0  0  0  0
   24.4133  -13.5065  -21.8042 N   0  0  0  0  0  0  0  0  0  0  0  0
   21.7447  -10.0817  -16.8672 C   0  0  0  0  0  0  0  0  0  0  0  0
   22.9132  -10.1117  -16.4024 O   0  0  0  0  0  0  0  0  0  0  0  0
   20.7397   -9.4608  -16.0787 N   0  0  0  0  0  0  0  0  0  0  0  0
   21.0021   -8.8374  -14.8118 C   0  0  0  0  0  0  0  0  0  0  0  0
   21.4072   -7.4169  -14.9482 C   0  0  0  0  0  0  0  0  0  0  0  0
   21.3159   -6.8628  -16.0710 O   0  0  0  0  0  0  0  0  0  0  0  0
   21.8950   -6.6645  -13.8496 N   0  0  0  0  0  0  0  0  0  0  0  0
   22.1987   -5.2394  -13.9502 C   0  0  1  0  0  0  0  0  0  0  0  0
   23.3121   -5.1278  -14.9546 C   0  0  0  0  0  0  0  0  0  0  0  0
   23.7112   -3.7341  -15.3173 C   0  0  0  0  0  0  0  0  0  0  0  0
   24.7664   -3.6834  -16.3228 C   0  0  0  0  0  0  0  0  0  0  0  0
   25.4165   -4.6614  -16.7537 O   0  0  0  0  0  0  0  0  0  0  0  0
   21.0049   -4.4513  -14.2686 C   0  0  0  0  0  0  0  0  0  0  0  0
   21.0392   -3.0750  -14.0720 O   0  0  0  0  0  0  0  0  0  0  0  0
   25.1007   -2.4327  -16.8720 O   0  0  0  0  0  0  0  0  0  0  0  0
   19.9362   -4.9300  -14.7123 O   0  0  0  0  0  0  0  0  0  0  0  0
  2  8  1  0
  2  1  1  6
  3  2  1  0
  4  3  1  0
  5  6  1  0
  5  4  1  0
  7  6  1  0
  8  9  2  0
 10 11  1  0
 10  8  1  0
 12 11  1  0
 12 14  1  0
 13 12  2  0
 15 14  1  0
 15 16  1  6
 16 17  1  0
 18 17  1  0
 18 22  1  0
 19 18  2  0
 20 15  1  0
 21 20  1  0
 23 20  2  0
M  END
$$$$
