KGE.pdb
     RDKit          3D

 23 22  0  0  1  0  0  0  0  0999 V2000
   23.4458  -18.7354  -15.7653 N   0  0  0  0  0  0  0  0  0  0  0  0
   24.2777  -19.7733  -15.2338 C   0  0  1  0  0  0  0  0  0  0  0  0
   25.7291  -19.3593  -15.1658 C   0  0  0  0  0  0  0  0  0  0  0  0
   26.0949  -18.2312  -16.0662 C   0  0  0  0  0  0  0  0  0  0  0  0
   25.9991  -18.5092  -17.5305 C   0  0  0  0  0  0  0  0  0  0  0  0
   26.5868  -17.4246  -18.3826 C   0  0  0  0  0  0  0  0  0  0  0  0
   26.3466  -17.7681  -19.7706 N   0  0  0  0  0  0  0  0  0  0  0  0
   23.8771  -20.1979  -13.8729 C   0  0  0  0  0  0  0  0  0  0  0  0
   24.5587  -21.0907  -13.3067 O   0  0  0  0  0  0  0  0  0  0  0  0
   22.7712  -19.6640  -13.1594 N   0  0  0  0  0  0  0  0  0  0  0  0
   22.3570  -20.1425  -11.8702 C   0  0  0  0  0  0  0  0  0  0  0  0
   21.2532  -21.1298  -11.9561 C   0  0  0  0  0  0  0  0  0  0  0  0
   20.7307  -21.3634  -13.0735 O   0  0  0  0  0  0  0  0  0  0  0  0
   20.7689  -21.8186  -10.8151 N   0  0  0  0  0  0  0  0  0  0  0  0
   19.6305  -22.7315  -10.8766 C   0  0  1  0  0  0  0  0  0  0  0  0
   19.5909  -23.4272   -9.5441 C   0  0  0  0  0  0  0  0  0  0  0  0
   18.4997  -24.4347   -9.3789 C   0  0  0  0  0  0  0  0  0  0  0  0
   18.5041  -25.0745   -8.0683 C   0  0  0  0  0  0  0  0  0  0  0  0
   17.6789  -25.9230   -7.6636 O   0  0  0  0  0  0  0  0  0  0  0  0
   18.3942  -22.0335  -11.2403 C   0  0  0  0  0  0  0  0  0  0  0  0
   18.1379  -20.7883  -10.6767 O   0  0  0  0  0  0  0  0  0  0  0  0
   19.5184  -24.7213   -7.1605 O   0  0  0  0  0  0  0  0  0  0  0  0
   17.5347  -22.4797  -12.0342 O   0  0  0  0  0  0  0  0  0  0  0  0
  2  8  1  0
  2  1  1  1
  3  2  1  0
  4  3  1  0
  5  6  1  0
  5  4  1  0
  7  6  1  0
  8  9  2  0
 10 11  1  0
 10  8  1  0
 12 11  1  0
 12 14  1  0
 13 12  2  0
 15 14  1  0
 15 16  1  1
 16 17  1  0
 18 17  1  0
 18 22  1  0
 19 18  2  0
 20 15  1  0
 21 20  1  0
 23 20  2  0
M  END
$$$$
