KGE.pdb
     RDKit          3D

 23 22  0  0  1  0  0  0  0  0999 V2000
   17.3023  -24.1194  -10.8150 N   0  0  0  0  0  0  0  0  0  0  0  0
   18.1457  -23.2113  -10.0968 C   0  0  1  0  0  0  0  0  0  0  0  0
   18.7115  -23.8332   -8.8416 C   0  0  0  0  0  0  0  0  0  0  0  0
   17.7714  -24.7325   -8.1172 C   0  0  0  0  0  0  0  0  0  0  0  0
   18.2266  -25.2066   -6.7761 C   0  0  0  0  0  0  0  0  0  0  0  0
   17.2145  -26.0577   -6.0698 C   0  0  0  0  0  0  0  0  0  0  0  0
   17.7406  -26.3809   -4.7580 N   0  0  0  0  0  0  0  0  0  0  0  0
   19.2900  -22.7237  -10.9004 C   0  0  0  0  0  0  0  0  0  0  0  0
   19.6299  -23.3902  -11.9116 O   0  0  0  0  0  0  0  0  0  0  0  0
   20.0337  -21.5499  -10.6068 N   0  0  0  0  0  0  0  0  0  0  0  0
   21.1309  -21.0879  -11.4101 C   0  0  0  0  0  0  0  0  0  0  0  0
   20.7116  -20.1008  -12.4348 C   0  0  0  0  0  0  0  0  0  0  0  0
   19.6045  -19.5229  -12.3066 O   0  0  0  0  0  0  0  0  0  0  0  0
   21.5223  -19.7889  -13.5557 N   0  0  0  0  0  0  0  0  0  0  0  0
   21.1041  -18.8403  -14.5845 C   0  0  1  0  0  0  0  0  0  0  0  0
   22.3226  -18.5878  -15.4285 C   0  0  0  0  0  0  0  0  0  0  0  0
   22.1278  -17.6429  -16.5697 C   0  0  0  0  0  0  0  0  0  0  0  0
   23.3420  -17.4260  -17.3479 C   0  0  0  0  0  0  0  0  0  0  0  0
   24.4462  -17.9810  -17.1544 O   0  0  0  0  0  0  0  0  0  0  0  0
   19.9352  -19.3232  -15.3250 C   0  0  0  0  0  0  0  0  0  0  0  0
   18.9599  -18.4084  -15.7070 O   0  0  0  0  0  0  0  0  0  0  0  0
   23.2909  -16.5147  -18.4178 O   0  0  0  0  0  0  0  0  0  0  0  0
   19.7429  -20.5182  -15.6464 O   0  0  0  0  0  0  0  0  0  0  0  0
  2  8  1  0
  2  1  1  6
  3  2  1  0
  4  3  1  0
  5  6  1  0
  5  4  1  0
  7  6  1  0
  8  9  2  0
 10 11  1  0
 10  8  1  0
 12 11  1  0
 12 14  1  0
 13 12  2  0
 15 14  1  0
 15 16  1  6
 16 17  1  0
 18 17  1  0
 18 22  1  0
 19 18  2  0
 20 15  1  0
 21 20  1  0
 23 20  2  0
M  END
$$$$
