KGE.pdb
     RDKit          3D

 23 22  0  0  1  0  0  0  0  0999 V2000
   25.7016  -21.9338  -12.5407 N   0  0  0  0  0  0  0  0  0  0  0  0
   26.0036  -20.5545  -12.2997 C   0  0  1  0  0  0  0  0  0  0  0  0
   26.5321  -20.3242  -10.9033 C   0  0  0  0  0  0  0  0  0  0  0  0
   25.6674  -20.8614   -9.8166 C   0  0  0  0  0  0  0  0  0  0  0  0
   24.3207  -20.2295   -9.6833 C   0  0  0  0  0  0  0  0  0  0  0  0
   23.4918  -20.8202   -8.5825 C   0  0  0  0  0  0  0  0  0  0  0  0
   22.2205  -20.1235   -8.5583 N   0  0  0  0  0  0  0  0  0  0  0  0
   27.0033  -20.0060  -13.2445 C   0  0  0  0  0  0  0  0  0  0  0  0
   27.9060  -20.7752  -13.6636 O   0  0  0  0  0  0  0  0  0  0  0  0
   27.0132  -18.6650  -13.7122 N   0  0  0  0  0  0  0  0  0  0  0  0
   27.3283  -18.3024  -15.0656 C   0  0  0  0  0  0  0  0  0  0  0  0
   26.1621  -18.4225  -15.9744 C   0  0  0  0  0  0  0  0  0  0  0  0
   26.1796  -19.2967  -16.8753 O   0  0  0  0  0  0  0  0  0  0  0  0
   25.0272  -17.5803  -15.8579 N   0  0  0  0  0  0  0  0  0  0  0  0
   23.7165  -17.9562  -16.3814 C   0  0  1  0  0  0  0  0  0  0  0  0
   23.1657  -18.9701  -15.4172 C   0  0  0  0  0  0  0  0  0  0  0  0
   23.3673  -20.3992  -15.8048 C   0  0  0  0  0  0  0  0  0  0  0  0
   22.6838  -21.3350  -14.9194 C   0  0  0  0  0  0  0  0  0  0  0  0
   22.0125  -21.0314  -13.9085 O   0  0  0  0  0  0  0  0  0  0  0  0
   22.8611  -16.7853  -16.5944 C   0  0  0  0  0  0  0  0  0  0  0  0
   22.1217  -16.7013  -17.7692 O   0  0  0  0  0  0  0  0  0  0  0  0
   22.7734  -22.7084  -15.2083 O   0  0  0  0  0  0  0  0  0  0  0  0
   22.7421  -15.8370  -15.7853 O   0  0  0  0  0  0  0  0  0  0  0  0
  2  8  1  0
  2  1  1  6
  3  2  1  0
  4  3  1  0
  5  6  1  0
  5  4  1  0
  7  6  1  0
  8  9  2  0
 10 11  1  0
 10  8  1  0
 12 11  1  0
 12 14  1  0
 13 12  2  0
 15 14  1  0
 15 16  1  1
 16 17  1  0
 18 17  1  0
 18 22  1  0
 19 18  2  0
 20 15  1  0
 21 20  1  0
 23 20  2  0
M  END
$$$$
