KGE.pdb
     RDKit          3D

 23 22  0  0  1  0  0  0  0  0999 V2000
   18.7358  -15.3478  -15.9524 N   0  0  0  0  0  0  0  0  0  0  0  0
   18.5008  -14.8907  -17.2894 C   0  0  1  0  0  0  0  0  0  0  0  0
   17.0447  -14.9957  -17.6782 C   0  0  0  0  0  0  0  0  0  0  0  0
   16.2146  -15.8187  -16.7558 C   0  0  0  0  0  0  0  0  0  0  0  0
   15.3696  -16.8678  -17.4008 C   0  0  0  0  0  0  0  0  0  0  0  0
   14.4884  -17.6006  -16.4342 C   0  0  0  0  0  0  0  0  0  0  0  0
   13.6126  -18.4678  -17.1979 N   0  0  0  0  0  0  0  0  0  0  0  0
   18.9125  -13.4842  -17.5023 C   0  0  0  0  0  0  0  0  0  0  0  0
   19.0722  -13.0867  -18.6850 O   0  0  0  0  0  0  0  0  0  0  0  0
   19.1407  -12.5488  -16.4583 N   0  0  0  0  0  0  0  0  0  0  0  0
   19.5657  -11.1963  -16.6879 C   0  0  0  0  0  0  0  0  0  0  0  0
   19.6925  -10.4173  -15.4319 C   0  0  0  0  0  0  0  0  0  0  0  0
   19.3784  -10.9601  -14.3444 O   0  0  0  0  0  0  0  0  0  0  0  0
   20.1575   -9.0778  -15.4207 N   0  0  0  0  0  0  0  0  0  0  0  0
   20.2909   -8.3057  -14.1881 C   0  0  1  0  0  0  0  0  0  0  0  0
   21.1227   -7.1050  -14.5448 C   0  0  0  0  0  0  0  0  0  0  0  0
   21.4340   -6.1811  -13.4122 C   0  0  0  0  0  0  0  0  0  0  0  0
   22.1163   -4.9639  -13.8364 C   0  0  0  0  0  0  0  0  0  0  0  0
   21.9202   -3.8160  -13.3797 O   0  0  0  0  0  0  0  0  0  0  0  0
   18.9856   -7.9939  -13.5992 C   0  0  0  0  0  0  0  0  0  0  0  0
   18.8732   -7.9334  -12.2144 O   0  0  0  0  0  0  0  0  0  0  0  0
   23.0865   -5.0653  -14.8494 O   0  0  0  0  0  0  0  0  0  0  0  0
   17.9441   -7.7735  -14.2586 O   0  0  0  0  0  0  0  0  0  0  0  0
  2  8  1  0
  2  1  1  1
  3  2  1  0
  4  3  1  0
  5  6  1  0
  5  4  1  0
  7  6  1  0
  8  9  2  0
 10 11  1  0
 10  8  1  0
 12 11  1  0
 12 14  1  0
 13 12  2  0
 15 14  1  0
 15 16  1  6
 16 17  1  0
 18 17  1  0
 18 22  1  0
 19 18  2  0
 20 15  1  0
 21 20  1  0
 23 20  2  0
M  END
$$$$
