KGE.pdb
     RDKit          3D

 23 22  0  0  1  0  0  0  0  0999 V2000
   23.2281  -14.5410  -18.5247 N   0  0  0  0  0  0  0  0  0  0  0  0
   21.9512  -14.0042  -18.8895 C   0  0  1  0  0  0  0  0  0  0  0  0
   20.9351  -15.0889  -19.1601 C   0  0  0  0  0  0  0  0  0  0  0  0
   21.2523  -15.9587  -20.3262 C   0  0  0  0  0  0  0  0  0  0  0  0
   20.2301  -16.9941  -20.6638 C   0  0  0  0  0  0  0  0  0  0  0  0
   20.5683  -17.7878  -21.8899 C   0  0  0  0  0  0  0  0  0  0  0  0
   19.4624  -18.6859  -22.1591 N   0  0  0  0  0  0  0  0  0  0  0  0
   21.3791  -13.1138  -17.8537 C   0  0  0  0  0  0  0  0  0  0  0  0
   20.8529  -13.6445  -16.8419 O   0  0  0  0  0  0  0  0  0  0  0  0
   21.3834  -11.6954  -17.9243 N   0  0  0  0  0  0  0  0  0  0  0  0
   20.8112  -10.8520  -16.9124 C   0  0  0  0  0  0  0  0  0  0  0  0
   20.9693   -9.4088  -17.2165 C   0  0  0  0  0  0  0  0  0  0  0  0
   21.5727   -9.0697  -18.2638 O   0  0  0  0  0  0  0  0  0  0  0  0
   20.4602   -8.3991  -16.3608 N   0  0  0  0  0  0  0  0  0  0  0  0
   20.5224   -6.9800  -16.7010 C   0  0  1  0  0  0  0  0  0  0  0  0
   19.6409   -6.2807  -15.7036 C   0  0  0  0  0  0  0  0  0  0  0  0
   18.1793   -6.5660  -15.8286 C   0  0  0  0  0  0  0  0  0  0  0  0
   17.3699   -5.8508  -14.8487 C   0  0  0  0  0  0  0  0  0  0  0  0
   17.6776   -5.6438  -13.6540 O   0  0  0  0  0  0  0  0  0  0  0  0
   21.9038   -6.4927  -16.7455 C   0  0  0  0  0  0  0  0  0  0  0  0
   22.1892   -5.3569  -17.4955 O   0  0  0  0  0  0  0  0  0  0  0  0
   16.1269   -5.3384  -15.2612 O   0  0  0  0  0  0  0  0  0  0  0  0
   22.8652   -7.0299  -16.1494 O   0  0  0  0  0  0  0  0  0  0  0  0
  2  8  1  0
  2  1  1  1
  3  2  1  0
  4  3  1  0
  5  6  1  0
  5  4  1  0
  7  6  1  0
  8  9  2  0
 10 11  1  0
 10  8  1  0
 12 11  1  0
 12 14  1  0
 13 12  2  0
 15 14  1  0
 15 16  1  1
 16 17  1  0
 18 17  1  0
 18 22  1  0
 19 18  2  0
 20 15  1  0
 21 20  1  0
 23 20  2  0
M  END
$$$$
