KGE.pdb
     RDKit          3D

 23 22  0  0  1  0  0  0  0  0999 V2000
   17.3070  -12.0710  -15.1414 N   0  0  0  0  0  0  0  0  0  0  0  0
   16.1702  -11.7792  -15.9626 C   0  0  1  0  0  0  0  0  0  0  0  0
   14.9063  -12.4118  -15.4290 C   0  0  0  0  0  0  0  0  0  0  0  0
   15.0189  -13.8664  -15.1313 C   0  0  0  0  0  0  0  0  0  0  0  0
   13.7409  -14.5641  -14.7991 C   0  0  0  0  0  0  0  0  0  0  0  0
   13.9056  -16.0385  -14.5830 C   0  0  0  0  0  0  0  0  0  0  0  0
   12.6461  -16.5608  -14.0902 N   0  0  0  0  0  0  0  0  0  0  0  0
   15.9115  -10.3277  -16.1003 C   0  0  0  0  0  0  0  0  0  0  0  0
   15.0061   -9.9603  -16.8925 O   0  0  0  0  0  0  0  0  0  0  0  0
   16.6184   -9.3169  -15.3963 N   0  0  0  0  0  0  0  0  0  0  0  0
   16.3309   -7.9157  -15.5250 C   0  0  0  0  0  0  0  0  0  0  0  0
   17.2472   -7.0694  -14.7222 C   0  0  0  0  0  0  0  0  0  0  0  0
   17.5643   -7.4421  -13.5661 O   0  0  0  0  0  0  0  0  0  0  0  0
   17.7767   -5.8516  -15.2196 N   0  0  0  0  0  0  0  0  0  0  0  0
   18.8809   -5.1534  -14.5664 C   0  0  1  0  0  0  0  0  0  0  0  0
   20.0324   -6.1203  -14.5637 C   0  0  0  0  0  0  0  0  0  0  0  0
   21.2678   -5.6445  -13.8703 C   0  0  0  0  0  0  0  0  0  0  0  0
   22.3102   -6.6615  -13.7944 C   0  0  0  0  0  0  0  0  0  0  0  0
   22.5273   -7.4183  -12.8223 O   0  0  0  0  0  0  0  0  0  0  0  0
   19.1635   -3.8658  -15.2068 C   0  0  0  0  0  0  0  0  0  0  0  0
   18.7585   -3.6695  -16.5227 O   0  0  0  0  0  0  0  0  0  0  0  0
   23.1607   -6.8245  -14.9025 O   0  0  0  0  0  0  0  0  0  0  0  0
   19.7523   -2.9108  -14.6507 O   0  0  0  0  0  0  0  0  0  0  0  0
  2  8  1  0
  2  1  1  1
  3  2  1  0
  4  3  1  0
  5  6  1  0
  5  4  1  0
  7  6  1  0
  8  9  2  0
 10 11  1  0
 10  8  1  0
 12 11  1  0
 12 14  1  0
 13 12  2  0
 15 14  1  0
 15 16  1  6
 16 17  1  0
 18 17  1  0
 18 22  1  0
 19 18  2  0
 20 15  1  0
 21 20  1  0
 23 20  2  0
M  END
$$$$
