KGE.pdb
     RDKit          3D

 23 22  0  0  1  0  0  0  0  0999 V2000
   25.1561  -15.4273  -17.4311 N   0  0  0  0  0  0  0  0  0  0  0  0
   23.7701  -15.3817  -17.0724 C   0  0  1  0  0  0  0  0  0  0  0  0
   23.2968  -16.6824  -16.4669 C   0  0  0  0  0  0  0  0  0  0  0  0
   23.6181  -17.8938  -17.2709 C   0  0  0  0  0  0  0  0  0  0  0  0
   23.0979  -19.1875  -16.7360 C   0  0  0  0  0  0  0  0  0  0  0  0
   23.5924  -20.3857  -17.4893 C   0  0  0  0  0  0  0  0  0  0  0  0
   23.0594  -21.5696  -16.8441 N   0  0  0  0  0  0  0  0  0  0  0  0
   23.4567  -14.3060  -16.1042 C   0  0  0  0  0  0  0  0  0  0  0  0
   22.2880  -14.2469  -15.6427 O   0  0  0  0  0  0  0  0  0  0  0  0
   24.3890  -13.3317  -15.6585 N   0  0  0  0  0  0  0  0  0  0  0  0
   24.0578  -12.2873  -14.7300 C   0  0  0  0  0  0  0  0  0  0  0  0
   23.3636  -11.1475  -15.3776 C   0  0  0  0  0  0  0  0  0  0  0  0
   23.3819  -11.0552  -16.6295 O   0  0  0  0  0  0  0  0  0  0  0  0
   22.6795  -10.1580  -14.6268 N   0  0  0  0  0  0  0  0  0  0  0  0
   21.9522   -9.0599  -15.2582 C   0  0  1  0  0  0  0  0  0  0  0  0
   20.6175   -9.6273  -15.6548 C   0  0  0  0  0  0  0  0  0  0  0  0
   19.6872   -8.6694  -16.3259 C   0  0  0  0  0  0  0  0  0  0  0  0
   18.4088   -9.2705  -16.6881 C   0  0  0  0  0  0  0  0  0  0  0  0
   18.0781  -10.4617  -16.4972 O   0  0  0  0  0  0  0  0  0  0  0  0
   21.8835   -7.8830  -14.3876 C   0  0  0  0  0  0  0  0  0  0  0  0
   21.5814   -6.6489  -14.9529 O   0  0  0  0  0  0  0  0  0  0  0  0
   17.4448   -8.4566  -17.3094 O   0  0  0  0  0  0  0  0  0  0  0  0
   22.0794   -7.9028  -13.1509 O   0  0  0  0  0  0  0  0  0  0  0  0
  2  8  1  0
  2  1  1  1
  3  2  1  0
  4  3  1  0
  5  6  1  0
  5  4  1  0
  7  6  1  0
  8  9  2  0
 10 11  1  0
 10  8  1  0
 12 11  1  0
 12 14  1  0
 13 12  2  0
 15 14  1  0
 15 16  1  1
 16 17  1  0
 18 17  1  0
 18 22  1  0
 19 18  2  0
 20 15  1  0
 21 20  1  0
 23 20  2  0
M  END
$$$$
