SRF.pdb
     RDKit          3D

 29 29  0  0  1  0  0  0  0  0999 V2000
    7.9207  -11.7962   21.3971 O   0  0  0  0  0  0  0  0  0  0  0  0
    8.8381  -12.2339   20.4330 C   0  0  0  0  0  0  0  0  0  0  0  0
    8.3232  -13.4695   19.7021 C   0  0  2  0  0  0  0  0  0  0  0  0
    7.0478  -13.1340   19.1456 N   0  0  0  0  0  0  0  0  0  0  0  0
    8.1826  -14.5475   20.7432 C   0  0  0  0  0  0  0  0  0  0  0  0
    7.0398  -14.8088   21.1909 O   0  0  0  0  0  0  0  0  0  0  0  0
    8.9958  -20.8590   20.3687 N   0  0  0  0  0  0  0  0  0  0  0  0
    9.9202  -20.7952   19.3042 C   0  0  0  0  0  0  0  0  0  0  0  0
    9.7435  -21.4906   18.2141 N   0  0  0  0  0  0  0  0  0  0  0  0
   11.0613  -19.9457   19.4492 N   0  0  0  0  0  0  0  0  0  0  0  0
   11.1742  -19.1661   20.6567 C   0  0  0  0  0  0  0  0  0  0  0  0
   10.0092  -18.1603   20.7584 C   0  0  0  0  0  0  0  0  0  0  0  0
   10.1568  -17.3193   21.9611 C   0  0  0  0  0  0  0  0  0  0  0  0
    9.1295  -16.3001   22.2595 C   0  0  2  0  0  0  0  0  0  0  0  0
    9.2852  -15.2688   21.2290 N   0  0  0  0  0  0  0  0  0  0  0  0
    9.1187  -15.7167   23.6004 C   0  0  0  0  0  0  0  0  0  0  0  0
    8.8746  -14.5092   23.8672 O   0  0  0  0  0  0  0  0  0  0  0  0
   10.4346  -21.4624   17.4570 N   0  0  0  0  0  0  0  0  0  0  0  0
    9.3951  -16.5365   24.7218 C   0  0  2  0  0  0  0  0  0  0  0  0
    9.0784  -16.1089   26.0859 C   0  0  0  0  0  0  0  0  0  0  0  0
    7.5824  -15.9023   26.1851 C   0  0  0  0  0  0  0  0  0  0  0  0
    7.1751  -14.4899   26.1688 C   0  0  0  0  0  0  0  0  0  0  0  0
    7.8583  -13.5335   26.9286 C   0  0  0  0  0  0  0  0  0  0  0  0
    7.4661  -12.2187   26.8953 C   0  0  0  0  0  0  0  0  0  0  0  0
    6.4034  -11.8088   26.1238 C   0  0  0  0  0  0  0  0  0  0  0  0
    5.7067  -12.7355   25.3596 C   0  0  0  0  0  0  0  0  0  0  0  0
    6.1125  -14.0612   25.4014 C   0  0  0  0  0  0  0  0  0  0  0  0
    9.6309  -17.0189   27.0895 O   0  0  0  0  0  0  0  0  0  0  0  0
   10.2250  -18.2441   26.7948 O   0  0  0  0  0  0  0  0  0  0  0  0
  2  1  1  0
  3  2  1  0
  3  4  1  1
  5  3  1  0
  6  5  2  0
  7  8  1  0
  8  9  2  0
 10 11  1  0
 10  8  1  0
 12 11  1  0
 12 13  1  0
 14 13  1  1
 14 15  1  0
 15  5  1  0
 16 14  1  0
 17 16  2  0
 18 16  1  0
 19 20  1  6
 19 18  1  0
 20 21  1  0
 21 22  2  0
 22 23  1  0
 24 23  2  0
 25 24  1  0
 26 21  1  0
 26 25  2  0
 27 28  1  0
 27 19  1  0
 29 27  2  0
M  END
$$$$
