SRF.pdb
     RDKit          3D

 29 29  0  0  1  0  0  0  0  0999 V2000
    8.3431  -19.6122   26.9417 O   0  0  0  0  0  0  0  0  0  0  0  0
    7.0600  -19.2997   26.4741 C   0  0  0  0  0  0  0  0  0  0  0  0
    6.7702  -19.9978   25.1495 C   0  0  2  0  0  0  0  0  0  0  0  0
    7.0153  -21.3949   25.3422 N   0  0  0  0  0  0  0  0  0  0  0  0
    7.7355  -19.4213   24.1487 C   0  0  0  0  0  0  0  0  0  0  0  0
    8.6974  -20.1280   23.7615 O   0  0  0  0  0  0  0  0  0  0  0  0
    6.7448  -12.7348   18.9687 N   0  0  0  0  0  0  0  0  0  0  0  0
    7.8898  -13.2875   18.3563 C   0  0  0  0  0  0  0  0  0  0  0  0
    8.4753  -12.6890   17.3552 N   0  0  0  0  0  0  0  0  0  0  0  0
    8.3960  -14.5257   18.8617 N   0  0  0  0  0  0  0  0  0  0  0  0
    7.7118  -15.1304   19.9772 C   0  0  0  0  0  0  0  0  0  0  0  0
    8.4142  -16.4390   20.3938 C   0  0  0  0  0  0  0  0  0  0  0  0
    7.7386  -17.0390   21.5595 C   0  0  0  0  0  0  0  0  0  0  0  0
    8.5538  -17.5749   22.6693 C   0  0  2  0  0  0  0  0  0  0  0  0
    7.5956  -18.1218   23.6350 N   0  0  0  0  0  0  0  0  0  0  0  0
    9.5037  -16.6697   23.3150 C   0  0  0  0  0  0  0  0  0  0  0  0
    9.5527  -15.4220   23.1430 O   0  0  0  0  0  0  0  0  0  0  0  0
    9.3302  -13.0756   16.9413 N   0  0  0  0  0  0  0  0  0  0  0  0
   10.4627  -17.1907   24.2178 C   0  0  1  0  0  0  0  0  0  0  0  0
   10.8117  -16.4947   25.4578 C   0  0  0  0  0  0  0  0  0  0  0  0
    9.6422  -15.6220   25.8595 C   0  0  0  0  0  0  0  0  0  0  0  0
    9.8636  -14.8656   27.1004 C   0  0  0  0  0  0  0  0  0  0  0  0
    8.9267  -13.9285   27.5508 C   0  0  0  0  0  0  0  0  0  0  0  0
    9.1491  -13.2367   28.7150 C   0  0  0  0  0  0  0  0  0  0  0  0
   10.2853  -13.4421   29.4629 C   0  0  0  0  0  0  0  0  0  0  0  0
   11.2325  -14.3656   29.0408 C   0  0  0  0  0  0  0  0  0  0  0  0
   10.9965  -15.0586   27.8627 C   0  0  0  0  0  0  0  0  0  0  0  0
   11.2620  -17.4189   26.4988 O   0  0  0  0  0  0  0  0  0  0  0  0
   10.5712  -18.5667   26.8810 O   0  0  0  0  0  0  0  0  0  0  0  0
  2  1  1  0
  3  2  1  0
  3  4  1  1
  5  3  1  0
  6  5  2  0
  7  8  1  0
  8  9  2  0
 10 11  1  0
 10  8  1  0
 12 11  1  0
 12 13  1  0
 14 13  1  6
 14 15  1  0
 15  5  1  0
 16 14  1  0
 17 16  2  0
 18 16  1  0
 19 20  1  6
 19 18  1  0
 20 21  1  0
 21 22  2  0
 22 23  1  0
 24 23  2  0
 25 24  1  0
 26 21  1  0
 26 25  2  0
 27 28  1  0
 27 19  1  0
 29 27  2  0
M  END
$$$$
