SRF.pdb
     RDKit          3D

 29 29  0  0  1  0  0  0  0  0999 V2000
    9.2106  -12.0967   19.5438 O   0  0  0  0  0  0  0  0  0  0  0  0
    9.7209  -13.0916   18.6997 C   0  0  0  0  0  0  0  0  0  0  0  0
    8.6422  -14.1011   18.3216 C   0  0  2  0  0  0  0  0  0  0  0  0
    7.4608  -13.3604   17.9982 N   0  0  0  0  0  0  0  0  0  0  0  0
    8.4178  -14.9552   19.5406 C   0  0  0  0  0  0  0  0  0  0  0  0
    7.4420  -14.6981   20.2865 O   0  0  0  0  0  0  0  0  0  0  0  0
   12.5089  -19.7394   19.4361 N   0  0  0  0  0  0  0  0  0  0  0  0
   13.1279  -19.7077   20.7039 C   0  0  0  0  0  0  0  0  0  0  0  0
   14.4217  -19.5820   20.8205 N   0  0  0  0  0  0  0  0  0  0  0  0
   12.2994  -19.8172   21.8642 N   0  0  0  0  0  0  0  0  0  0  0  0
   10.9115  -20.1576   21.6737 C   0  0  0  0  0  0  0  0  0  0  0  0
   10.0080  -18.9690   22.0610 C   0  0  0  0  0  0  0  0  0  0  0  0
    9.9454  -17.9883   20.9610 C   0  0  0  0  0  0  0  0  0  0  0  0
    9.0571  -16.8147   21.0902 C   0  0  2  0  0  0  0  0  0  0  0  0
    9.2622  -16.0278   19.8701 N   0  0  0  0  0  0  0  0  0  0  0  0
    9.1930  -15.9866   22.2878 C   0  0  0  0  0  0  0  0  0  0  0  0
   10.1693  -15.2316   22.5442 O   0  0  0  0  0  0  0  0  0  0  0  0
   14.8768  -19.6749   21.7348 N   0  0  0  0  0  0  0  0  0  0  0  0
    8.1681  -15.9976   23.2654 C   0  0  2  0  0  0  0  0  0  0  0  0
    8.1884  -15.0890   24.4135 C   0  0  0  0  0  0  0  0  0  0  0  0
    7.0697  -14.0836   24.2449 C   0  0  0  0  0  0  0  0  0  0  0  0
    6.9260  -13.1587   25.3786 C   0  0  0  0  0  0  0  0  0  0  0  0
    7.7837  -12.0631   25.5287 C   0  0  0  0  0  0  0  0  0  0  0  0
    7.6294  -11.2078   26.5909 C   0  0  0  0  0  0  0  0  0  0  0  0
    6.6395  -11.4010   27.5265 C   0  0  0  0  0  0  0  0  0  0  0  0
    5.7737  -12.4796   27.4034 C   0  0  0  0  0  0  0  0  0  0  0  0
    5.9396  -13.3369   26.3257 C   0  0  0  0  0  0  0  0  0  0  0  0
    8.1660  -15.8107   25.6860 O   0  0  0  0  0  0  0  0  0  0  0  0
    7.4273  -16.9688   25.9180 O   0  0  0  0  0  0  0  0  0  0  0  0
  2  1  1  0
  3  2  1  0
  3  4  1  1
  5  3  1  0
  6  5  2  0
  7  8  1  0
  8  9  2  0
 10 11  1  0
 10  8  1  0
 12 11  1  0
 12 13  1  0
 14 13  1  1
 14 15  1  0
 15  5  1  0
 16 14  1  0
 17 16  2  0
 18 16  1  0
 19 20  1  1
 19 18  1  0
 20 21  1  0
 21 22  2  0
 22 23  1  0
 24 23  2  0
 25 24  1  0
 26 21  1  0
 26 25  2  0
 27 28  1  0
 27 19  1  0
 29 27  2  0
M  END
$$$$
