SRF.pdb
     RDKit          3D

 29 29  0  0  1  0  0  0  0  0999 V2000
    6.2480  -19.4292   25.7159 O   0  0  0  0  0  0  0  0  0  0  0  0
    6.5620  -20.6409   25.0869 C   0  0  0  0  0  0  0  0  0  0  0  0
    6.5240  -20.5007   23.5688 C   0  0  2  0  0  0  0  0  0  0  0  0
    7.0459  -21.7136   23.0161 N   0  0  0  0  0  0  0  0  0  0  0  0
    7.4145  -19.3353   23.2303 C   0  0  0  0  0  0  0  0  0  0  0  0
    8.6585  -19.4886   23.2909 O   0  0  0  0  0  0  0  0  0  0  0  0
    9.0554  -13.7311   18.1463 N   0  0  0  0  0  0  0  0  0  0  0  0
    8.2581  -12.8698   18.9298 C   0  0  0  0  0  0  0  0  0  0  0  0
    8.6003  -11.6258   19.1264 N   0  0  0  0  0  0  0  0  0  0  0  0
    7.0597  -13.3953   19.5065 N   0  0  0  0  0  0  0  0  0  0  0  0
    7.0852  -13.7623   20.9004 C   0  0  0  0  0  0  0  0  0  0  0  0
    8.0241  -14.9657   21.1227 C   0  0  0  0  0  0  0  0  0  0  0  0
    7.2609  -16.1353   21.5971 C   0  0  0  0  0  0  0  0  0  0  0  0
    7.7612  -16.9014   22.7572 C   0  0  2  0  0  0  0  0  0  0  0  0
    6.9007  -18.0850   22.8498 N   0  0  0  0  0  0  0  0  0  0  0  0
    7.8548  -16.2085   24.0415 C   0  0  0  0  0  0  0  0  0  0  0  0
    6.8801  -15.9246   24.7886 O   0  0  0  0  0  0  0  0  0  0  0  0
    8.0668  -11.0311   19.7693 N   0  0  0  0  0  0  0  0  0  0  0  0
    9.1229  -15.8078   24.5289 C   0  0  1  0  0  0  0  0  0  0  0  0
    9.3615  -15.5721   25.9542 C   0  0  0  0  0  0  0  0  0  0  0  0
    8.0348  -15.2657   26.6148 C   0  0  0  0  0  0  0  0  0  0  0  0
    7.5610  -13.8926   26.3882 C   0  0  0  0  0  0  0  0  0  0  0  0
    8.4265  -12.8999   25.9148 C   0  0  0  0  0  0  0  0  0  0  0  0
    7.9634  -11.6253   25.7042 C   0  0  0  0  0  0  0  0  0  0  0  0
    6.6515  -11.2915   25.9494 C   0  0  0  0  0  0  0  0  0  0  0  0
    5.7698  -12.2557   26.4195 C   0  0  0  0  0  0  0  0  0  0  0  0
    6.2495  -13.5403   26.6285 C   0  0  0  0  0  0  0  0  0  0  0  0
   10.1076  -16.6668   26.5750 O   0  0  0  0  0  0  0  0  0  0  0  0
   10.6073  -17.7673   25.8822 O   0  0  0  0  0  0  0  0  0  0  0  0
  2  1  1  0
  3  2  1  0
  3  4  1  6
  5  3  1  0
  6  5  2  0
  7  8  1  0
  8  9  2  0
 10 11  1  0
 10  8  1  0
 12 11  1  0
 12 13  1  0
 14 13  1  6
 14 15  1  0
 15  5  1  0
 16 14  1  0
 17 16  2  0
 18 16  1  0
 19 20  1  1
 19 18  1  0
 20 21  1  0
 21 22  2  0
 22 23  1  0
 24 23  2  0
 25 24  1  0
 26 21  1  0
 26 25  2  0
 27 28  1  0
 27 19  1  0
 29 27  2  0
M  END
$$$$
