SRF.pdb
     RDKit          3D

 29 29  0  0  1  0  0  0  0  0999 V2000
   10.2779  -12.3690   18.4531 O   0  0  0  0  0  0  0  0  0  0  0  0
    9.5058  -13.0218   19.4229 C   0  0  0  0  0  0  0  0  0  0  0  0
    8.6753  -14.1417   18.8050 C   0  0  2  0  0  0  0  0  0  0  0  0
    7.5869  -13.5285   18.1061 N   0  0  0  0  0  0  0  0  0  0  0  0
    8.1692  -14.9741   19.9525 C   0  0  0  0  0  0  0  0  0  0  0  0
    7.1181  -14.6186   20.5387 O   0  0  0  0  0  0  0  0  0  0  0  0
    6.9600  -22.0854   20.3138 N   0  0  0  0  0  0  0  0  0  0  0  0
    6.9599  -21.9811   21.7211 C   0  0  0  0  0  0  0  0  0  0  0  0
    5.8571  -22.1083   22.4074 N   0  0  0  0  0  0  0  0  0  0  0  0
    8.2036  -21.7313   22.3811 N   0  0  0  0  0  0  0  0  0  0  0  0
    9.0510  -20.6908   21.8543 C   0  0  0  0  0  0  0  0  0  0  0  0
    8.5702  -19.3080   22.3401 C   0  0  0  0  0  0  0  0  0  0  0  0
    8.7297  -18.3019   21.2735 C   0  0  0  0  0  0  0  0  0  0  0  0
    8.3542  -16.8985   21.5432 C   0  0  2  0  0  0  0  0  0  0  0  0
    8.8327  -16.1326   20.3880 N   0  0  0  0  0  0  0  0  0  0  0  0
    8.8038  -16.3031   22.8009 C   0  0  0  0  0  0  0  0  0  0  0  0
    9.8979  -15.7008   22.9714 O   0  0  0  0  0  0  0  0  0  0  0  0
    5.8669  -22.0452   23.4310 N   0  0  0  0  0  0  0  0  0  0  0  0
    7.9749  -16.3808   23.9468 C   0  0  2  0  0  0  0  0  0  0  0  0
    8.0925  -15.4245   25.0494 C   0  0  0  0  0  0  0  0  0  0  0  0
    7.1925  -14.2441   24.7540 C   0  0  0  0  0  0  0  0  0  0  0  0
    7.1949  -13.2171   25.8059 C   0  0  0  0  0  0  0  0  0  0  0  0
    8.3903  -12.6341   26.2419 C   0  0  0  0  0  0  0  0  0  0  0  0
    8.3708  -11.6727   27.2211 C   0  0  0  0  0  0  0  0  0  0  0  0
    7.1904  -11.2599   27.7945 C   0  0  0  0  0  0  0  0  0  0  0  0
    5.9890  -11.8205   27.3819 C   0  0  0  0  0  0  0  0  0  0  0  0
    6.0214  -12.7912   26.3917 C   0  0  0  0  0  0  0  0  0  0  0  0
    7.8582  -16.0531   26.3495 O   0  0  0  0  0  0  0  0  0  0  0  0
    8.6147  -15.7989   27.4914 O   0  0  0  0  0  0  0  0  0  0  0  0
  2  1  1  0
  3  2  1  0
  3  4  1  1
  5  3  1  0
  6  5  2  0
  7  8  1  0
  8  9  2  0
 10 11  1  0
 10  8  1  0
 12 11  1  0
 12 13  1  0
 14 13  1  6
 14 15  1  0
 15  5  1  0
 16 14  1  0
 17 16  2  0
 18 16  1  0
 19 20  1  6
 19 18  1  0
 20 21  1  0
 21 22  2  0
 22 23  1  0
 24 23  2  0
 25 24  1  0
 26 21  1  0
 26 25  2  0
 27 28  1  0
 27 19  1  0
 29 27  2  0
M  END
$$$$
