SRF.pdb
     RDKit          3D

 29 29  0  0  1  0  0  0  0  0999 V2000
    7.4524  -17.1582   14.7445 O   0  0  0  0  0  0  0  0  0  0  0  0
    8.0987  -15.9404   14.9935 C   0  0  0  0  0  0  0  0  0  0  0  0
    9.3896  -16.1509   15.7777 C   0  0  2  0  0  0  0  0  0  0  0  0
   10.0712  -17.2615   15.1851 N   0  0  0  0  0  0  0  0  0  0  0  0
    8.9781  -16.4710   17.1897 C   0  0  0  0  0  0  0  0  0  0  0  0
    8.2990  -15.6293   17.8261 O   0  0  0  0  0  0  0  0  0  0  0  0
   11.7520  -21.1817   22.1390 N   0  0  0  0  0  0  0  0  0  0  0  0
   12.0641  -21.8833   20.9550 C   0  0  0  0  0  0  0  0  0  0  0  0
   13.2835  -22.2746   20.7037 N   0  0  0  0  0  0  0  0  0  0  0  0
   11.0067  -22.1570   20.0321 N   0  0  0  0  0  0  0  0  0  0  0  0
    9.7075  -21.5960   20.3075 C   0  0  0  0  0  0  0  0  0  0  0  0
    9.7859  -20.0564   20.3566 C   0  0  0  0  0  0  0  0  0  0  0  0
    8.9555  -19.4630   19.2918 C   0  0  0  0  0  0  0  0  0  0  0  0
    8.8739  -17.9922   19.1754 C   0  0  2  0  0  0  0  0  0  0  0  0
    9.3279  -17.6777   17.8172 N   0  0  0  0  0  0  0  0  0  0  0  0
    9.5807  -17.1900   20.1730 C   0  0  0  0  0  0  0  0  0  0  0  0
   10.7995  -16.8727   20.1218 O   0  0  0  0  0  0  0  0  0  0  0  0
   13.4955  -22.8206   19.8619 N   0  0  0  0  0  0  0  0  0  0  0  0
    8.8797  -16.7046   21.3040 C   0  0  1  0  0  0  0  0  0  0  0  0
    9.5291  -15.8616   22.3099 C   0  0  0  0  0  0  0  0  0  0  0  0
    8.5941  -14.7215   22.6513 C   0  0  0  0  0  0  0  0  0  0  0  0
    8.1232  -13.9679   21.4802 C   0  0  0  0  0  0  0  0  0  0  0  0
    8.9226  -12.9846   20.8862 C   0  0  0  0  0  0  0  0  0  0  0  0
    8.4671  -12.2961   19.7899 C   0  0  0  0  0  0  0  0  0  0  0  0
    7.2273  -12.5498   19.2505 C   0  0  0  0  0  0  0  0  0  0  0  0
    6.4123  -13.5199   19.8187 C   0  0  0  0  0  0  0  0  0  0  0  0
    6.8836  -14.2090   20.9263 C   0  0  0  0  0  0  0  0  0  0  0  0
    9.9853  -16.6359   23.4644 O   0  0  0  0  0  0  0  0  0  0  0  0
   10.9328  -16.1898   24.3831 O   0  0  0  0  0  0  0  0  0  0  0  0
  2  1  1  0
  3  2  1  0
  3  4  1  6
  5  3  1  0
  6  5  2  0
  7  8  1  0
  8  9  2  0
 10 11  1  0
 10  8  1  0
 12 11  1  0
 12 13  1  0
 14 13  1  1
 14 15  1  0
 15  5  1  0
 16 14  1  0
 17 16  2  0
 18 16  1  0
 19 20  1  6
 19 18  1  0
 20 21  1  0
 21 22  2  0
 22 23  1  0
 24 23  2  0
 25 24  1  0
 26 21  1  0
 26 25  2  0
 27 28  1  0
 27 19  1  0
 29 27  2  0
M  END
$$$$
