SRF.pdb
     RDKit          3D

 29 29  0  0  1  0  0  0  0  0999 V2000
    8.7683  -12.1617   21.1975 O   0  0  0  0  0  0  0  0  0  0  0  0
    7.5631  -12.4236   20.5329 C   0  0  0  0  0  0  0  0  0  0  0  0
    7.6431  -13.7213   19.7360 C   0  0  2  0  0  0  0  0  0  0  0  0
    6.3879  -13.8889   19.0686 N   0  0  0  0  0  0  0  0  0  0  0  0
    7.8626  -14.8206   20.7405 C   0  0  0  0  0  0  0  0  0  0  0  0
    6.8814  -15.2390   21.4015 O   0  0  0  0  0  0  0  0  0  0  0  0
   12.4906  -20.8046   22.0987 N   0  0  0  0  0  0  0  0  0  0  0  0
   11.3108  -21.2199   22.7522 C   0  0  0  0  0  0  0  0  0  0  0  0
   11.3590  -21.8967   23.8670 N   0  0  0  0  0  0  0  0  0  0  0  0
   10.0542  -20.8796   22.1605 N   0  0  0  0  0  0  0  0  0  0  0  0
    9.9636  -19.6375   21.4345 C   0  0  0  0  0  0  0  0  0  0  0  0
   10.7351  -18.5249   22.1735 C   0  0  0  0  0  0  0  0  0  0  0  0
   10.4817  -17.2153   21.5442 C   0  0  0  0  0  0  0  0  0  0  0  0
    9.3348  -16.4043   22.0024 C   0  0  2  0  0  0  0  0  0  0  0  0
    9.1260  -15.3922   20.9622 N   0  0  0  0  0  0  0  0  0  0  0  0
    9.4184  -15.7955   23.3294 C   0  0  0  0  0  0  0  0  0  0  0  0
   10.1563  -14.8215   23.6386 O   0  0  0  0  0  0  0  0  0  0  0  0
   10.4975  -22.2021   24.3321 N   0  0  0  0  0  0  0  0  0  0  0  0
    8.6214  -16.3049   24.3837 C   0  0  2  0  0  0  0  0  0  0  0  0
    8.8193  -15.8841   25.7721 C   0  0  0  0  0  0  0  0  0  0  0  0
    7.4774  -15.4791   26.3429 C   0  0  0  0  0  0  0  0  0  0  0  0
    7.0823  -14.1020   26.0132 C   0  0  0  0  0  0  0  0  0  0  0  0
    5.8774  -13.8359   25.3528 C   0  0  0  0  0  0  0  0  0  0  0  0
    5.5238  -12.5428   25.0590 C   0  0  0  0  0  0  0  0  0  0  0  0
    6.3337  -11.4847   25.4011 C   0  0  0  0  0  0  0  0  0  0  0  0
    7.5351  -11.7184   26.0569 C   0  0  0  0  0  0  0  0  0  0  0  0
    7.8816  -13.0294   26.3484 C   0  0  0  0  0  0  0  0  0  0  0  0
    9.5302  -16.8939   26.5566 O   0  0  0  0  0  0  0  0  0  0  0  0
    9.8910  -18.1504   26.0749 O   0  0  0  0  0  0  0  0  0  0  0  0
  2  1  1  0
  3  2  1  0
  3  4  1  1
  5  3  1  0
  6  5  2  0
  7  8  1  0
  8  9  2  0
 10 11  1  0
 10  8  1  0
 12 11  1  0
 12 13  1  0
 14 13  1  6
 14 15  1  0
 15  5  1  0
 16 14  1  0
 17 16  2  0
 18 16  1  0
 19 20  1  1
 19 18  1  0
 20 21  1  0
 21 22  2  0
 22 23  1  0
 24 23  2  0
 25 24  1  0
 26 21  1  0
 26 25  2  0
 27 28  1  0
 27 19  1  0
 29 27  2  0
M  END
$$$$
