SRF.pdb
     RDKit          3D

 29 29  0  0  1  0  0  0  0  0999 V2000
    7.6901  -12.6949   17.7240 O   0  0  0  0  0  0  0  0  0  0  0  0
    7.7485  -13.7373   18.6581 C   0  0  0  0  0  0  0  0  0  0  0  0
    8.7185  -13.4114   19.7889 C   0  0  2  0  0  0  0  0  0  0  0  0
    9.8761  -12.8125   19.1971 N   0  0  0  0  0  0  0  0  0  0  0  0
    9.0702  -14.7246   20.4349 C   0  0  0  0  0  0  0  0  0  0  0  0
    8.1624  -15.3819   20.9994 O   0  0  0  0  0  0  0  0  0  0  0  0
   13.3968  -15.4170   17.0193 N   0  0  0  0  0  0  0  0  0  0  0  0
   12.9771  -16.4729   16.1824 C   0  0  0  0  0  0  0  0  0  0  0  0
   12.8586  -16.3064   14.8935 N   0  0  0  0  0  0  0  0  0  0  0  0
   12.6831  -17.7366   16.7836 N   0  0  0  0  0  0  0  0  0  0  0  0
   12.7726  -17.8392   18.2188 C   0  0  0  0  0  0  0  0  0  0  0  0
   11.6092  -17.0775   18.8861 C   0  0  0  0  0  0  0  0  0  0  0  0
   11.7083  -17.1674   20.3550 C   0  0  0  0  0  0  0  0  0  0  0  0
   10.7316  -16.4383   21.1903 C   0  0  2  0  0  0  0  0  0  0  0  0
   10.3774  -15.2377   20.4268 N   0  0  0  0  0  0  0  0  0  0  0  0
   11.1222  -16.1037   22.5592 C   0  0  0  0  0  0  0  0  0  0  0  0
   12.2702  -15.7258   22.9172 O   0  0  0  0  0  0  0  0  0  0  0  0
   12.6218  -17.0956   14.2829 N   0  0  0  0  0  0  0  0  0  0  0  0
   10.1661  -16.1924   23.6005 C   0  0  1  0  0  0  0  0  0  0  0  0
   10.5134  -15.9002   24.9926 C   0  0  0  0  0  0  0  0  0  0  0  0
    9.3501  -15.1721   25.6308 C   0  0  0  0  0  0  0  0  0  0  0  0
    9.5385  -14.8894   27.0612 C   0  0  0  0  0  0  0  0  0  0  0  0
   10.2362  -13.7529   27.4858 C   0  0  0  0  0  0  0  0  0  0  0  0
   10.3963  -13.5036   28.8259 C   0  0  0  0  0  0  0  0  0  0  0  0
    9.8820  -14.3533   29.7778 C   0  0  0  0  0  0  0  0  0  0  0  0
    9.1852  -15.4887   29.3860 C   0  0  0  0  0  0  0  0  0  0  0  0
    9.0299  -15.7299   28.0289 C   0  0  0  0  0  0  0  0  0  0  0  0
   10.9467  -17.0971   25.7138 O   0  0  0  0  0  0  0  0  0  0  0  0
   11.9751  -17.1172   26.6534 O   0  0  0  0  0  0  0  0  0  0  0  0
  2  1  1  0
  3  2  1  0
  3  4  1  6
  5  3  1  0
  6  5  2  0
  7  8  1  0
  8  9  2  0
 10 11  1  0
 10  8  1  0
 12 11  1  0
 12 13  1  0
 14 13  1  6
 14 15  1  0
 15  5  1  0
 16 14  1  0
 17 16  2  0
 18 16  1  0
 19 20  1  1
 19 18  1  0
 20 21  1  0
 21 22  2  0
 22 23  1  0
 24 23  2  0
 25 24  1  0
 26 21  1  0
 26 25  2  0
 27 28  1  0
 27 19  1  0
 29 27  2  0
M  END
$$$$
