SRF.pdb
     RDKit          3D

 29 29  0  0  1  0  0  0  0  0999 V2000
    7.0032  -19.0462   26.1173 O   0  0  0  0  0  0  0  0  0  0  0  0
    6.8838  -20.2851   25.4741 C   0  0  0  0  0  0  0  0  0  0  0  0
    6.4803  -20.1120   24.0136 C   0  0  2  0  0  0  0  0  0  0  0  0
    6.5742  -21.3976   23.3910 N   0  0  0  0  0  0  0  0  0  0  0  0
    7.4743  -19.1553   23.4118 C   0  0  0  0  0  0  0  0  0  0  0  0
    8.6113  -19.5841   23.0984 O   0  0  0  0  0  0  0  0  0  0  0  0
    9.7350  -13.7995   18.4312 N   0  0  0  0  0  0  0  0  0  0  0  0
    8.6020  -13.0258   18.7615 C   0  0  0  0  0  0  0  0  0  0  0  0
    8.6814  -11.7285   18.8795 N   0  0  0  0  0  0  0  0  0  0  0  0
    7.3578  -13.7008   18.9649 N   0  0  0  0  0  0  0  0  0  0  0  0
    6.9452  -13.9629   20.3211 C   0  0  0  0  0  0  0  0  0  0  0  0
    7.9843  -14.8494   21.0377 C   0  0  0  0  0  0  0  0  0  0  0  0
    7.3116  -15.8999   21.8248 C   0  0  0  0  0  0  0  0  0  0  0  0
    8.1296  -16.9026   22.5380 C   0  0  2  0  0  0  0  0  0  0  0  0
    7.1724  -17.8020   23.1897 N   0  0  0  0  0  0  0  0  0  0  0  0
    9.1323  -16.4149   23.4842 C   0  0  0  0  0  0  0  0  0  0  0  0
   10.1589  -15.7501   23.1792 O   0  0  0  0  0  0  0  0  0  0  0  0
    7.8635  -11.1770   19.1595 N   0  0  0  0  0  0  0  0  0  0  0  0
    8.9780  -16.6831   24.8664 C   0  0  1  0  0  0  0  0  0  0  0  0
    9.9259  -16.1758   25.8604 C   0  0  0  0  0  0  0  0  0  0  0  0
   10.0800  -14.6844   25.6539 C   0  0  0  0  0  0  0  0  0  0  0  0
    8.8508  -13.9191   25.9080 C   0  0  0  0  0  0  0  0  0  0  0  0
    7.6275  -14.3150   25.3552 C   0  0  0  0  0  0  0  0  0  0  0  0
    6.4900  -13.5903   25.6091 C   0  0  0  0  0  0  0  0  0  0  0  0
    6.5198  -12.4680   26.4042 C   0  0  0  0  0  0  0  0  0  0  0  0
    7.7193  -12.0513   26.9662 C   0  0  0  0  0  0  0  0  0  0  0  0
    8.8620  -12.7919   26.7024 C   0  0  0  0  0  0  0  0  0  0  0  0
    9.5545  -16.5625   27.2217 O   0  0  0  0  0  0  0  0  0  0  0  0
   10.3175  -16.2810   28.3528 O   0  0  0  0  0  0  0  0  0  0  0  0
  2  1  1  0
  3  2  1  0
  3  4  1  6
  5  3  1  0
  6  5  2  0
  7  8  1  0
  8  9  2  0
 10 11  1  0
 10  8  1  0
 12 11  1  0
 12 13  1  0
 14 13  1  1
 14 15  1  0
 15  5  1  0
 16 14  1  0
 17 16  2  0
 18 16  1  0
 19 20  1  6
 19 18  1  0
 20 21  1  0
 21 22  2  0
 22 23  1  0
 24 23  2  0
 25 24  1  0
 26 21  1  0
 26 25  2  0
 27 28  1  0
 27 19  1  0
 29 27  2  0
M  END
$$$$
