SRF.pdb
     RDKit          3D

 29 29  0  0  1  0  0  0  0  0999 V2000
    9.0732  -20.0776   23.5216 O   0  0  0  0  0  0  0  0  0  0  0  0
    7.7986  -19.9080   22.9654 C   0  0  0  0  0  0  0  0  0  0  0  0
    7.8844  -19.3472   21.5498 C   0  0  2  0  0  0  0  0  0  0  0  0
    8.7235  -20.2266   20.7938 N   0  0  0  0  0  0  0  0  0  0  0  0
    8.5144  -17.9857   21.6728 C   0  0  0  0  0  0  0  0  0  0  0  0
    9.7635  -17.9043   21.7604 O   0  0  0  0  0  0  0  0  0  0  0  0
    8.4896  -12.4400   17.5078 N   0  0  0  0  0  0  0  0  0  0  0  0
    8.1354  -13.7290   17.0557 C   0  0  0  0  0  0  0  0  0  0  0  0
    8.6426  -14.2230   15.9594 N   0  0  0  0  0  0  0  0  0  0  0  0
    7.2024  -14.4854   17.8318 N   0  0  0  0  0  0  0  0  0  0  0  0
    6.7234  -13.9085   19.0630 C   0  0  0  0  0  0  0  0  0  0  0  0
    7.8619  -13.8341   20.1009 C   0  0  0  0  0  0  0  0  0  0  0  0
    7.4635  -14.5037   21.3533 C   0  0  0  0  0  0  0  0  0  0  0  0
    8.3693  -15.5026   21.9573 C   0  0  2  0  0  0  0  0  0  0  0  0
    7.7525  -16.8062   21.6928 N   0  0  0  0  0  0  0  0  0  0  0  0
    8.7055  -15.3491   23.3722 C   0  0  0  0  0  0  0  0  0  0  0  0
    8.0012  -14.7474   24.2270 O   0  0  0  0  0  0  0  0  0  0  0  0
    8.3799  -15.1603   15.6366 N   0  0  0  0  0  0  0  0  0  0  0  0
    9.9080  -15.9084   23.8697 C   0  0  1  0  0  0  0  0  0  0  0  0
   10.4492  -15.5334   25.1775 C   0  0  0  0  0  0  0  0  0  0  0  0
    9.3226  -15.5702   26.1874 C   0  0  0  0  0  0  0  0  0  0  0  0
    9.7135  -15.1184   27.5307 C   0  0  0  0  0  0  0  0  0  0  0  0
    9.9994  -16.0381   28.5461 C   0  0  0  0  0  0  0  0  0  0  0  0
   10.3683  -15.5963   29.7920 C   0  0  0  0  0  0  0  0  0  0  0  0
   10.4662  -14.2534   30.0745 C   0  0  0  0  0  0  0  0  0  0  0  0
   10.1885  -13.3179   29.0867 C   0  0  0  0  0  0  0  0  0  0  0  0
    9.8168  -13.7766   27.8316 C   0  0  0  0  0  0  0  0  0  0  0  0
   11.6145  -16.3395   25.5419 O   0  0  0  0  0  0  0  0  0  0  0  0
   12.6369  -15.9051   26.3826 O   0  0  0  0  0  0  0  0  0  0  0  0
  2  1  1  0
  3  2  1  0
  3  4  1  6
  5  3  1  0
  6  5  2  0
  7  8  1  0
  8  9  2  0
 10 11  1  0
 10  8  1  0
 12 11  1  0
 12 13  1  0
 14 13  1  1
 14 15  1  0
 15  5  1  0
 16 14  1  0
 17 16  2  0
 18 16  1  0
 19 20  1  6
 19 18  1  0
 20 21  1  0
 21 22  2  0
 22 23  1  0
 24 23  2  0
 25 24  1  0
 26 21  1  0
 26 25  2  0
 27 28  1  0
 27 19  1  0
 29 27  2  0
M  END
$$$$
