SRF.pdb
     RDKit          3D

 29 29  0  0  1  0  0  0  0  0999 V2000
    8.2956  -11.7831   21.5256 O   0  0  0  0  0  0  0  0  0  0  0  0
    8.8834  -12.4888   20.4677 C   0  0  0  0  0  0  0  0  0  0  0  0
    8.0280  -13.6832   20.0585 C   0  0  2  0  0  0  0  0  0  0  0  0
    6.6847  -13.2124   19.9066 N   0  0  0  0  0  0  0  0  0  0  0  0
    8.1199  -14.6747   21.1873 C   0  0  0  0  0  0  0  0  0  0  0  0
    7.1671  -14.7541   22.0000 O   0  0  0  0  0  0  0  0  0  0  0  0
   11.6659  -19.8188   18.1586 N   0  0  0  0  0  0  0  0  0  0  0  0
   11.9782  -19.6119   19.5191 C   0  0  0  0  0  0  0  0  0  0  0  0
   13.1171  -19.0851   19.8778 N   0  0  0  0  0  0  0  0  0  0  0  0
   11.0118  -19.9954   20.5010 N   0  0  0  0  0  0  0  0  0  0  0  0
   11.3409  -19.7892   21.8893 C   0  0  0  0  0  0  0  0  0  0  0  0
   10.2840  -18.8918   22.5651 C   0  0  0  0  0  0  0  0  0  0  0  0
   10.1760  -17.6008   21.8601 C   0  0  0  0  0  0  0  0  0  0  0  0
    9.2397  -16.5770   22.3684 C   0  0  2  0  0  0  0  0  0  0  0  0
    9.2340  -15.5118   21.3608 N   0  0  0  0  0  0  0  0  0  0  0  0
    9.4777  -16.0420   23.7084 C   0  0  0  0  0  0  0  0  0  0  0  0
   10.3247  -15.1547   23.9984 O   0  0  0  0  0  0  0  0  0  0  0  0
   13.3703  -19.0095   20.8687 N   0  0  0  0  0  0  0  0  0  0  0  0
    8.7164  -16.5266   24.8001 C   0  0  1  0  0  0  0  0  0  0  0  0
    8.8834  -15.9931   26.1534 C   0  0  0  0  0  0  0  0  0  0  0  0
    7.5234  -15.5814   26.6742 C   0  0  0  0  0  0  0  0  0  0  0  0
    7.0827  -14.2594   26.2058 C   0  0  0  0  0  0  0  0  0  0  0  0
    6.2794  -14.1287   25.0671 C   0  0  0  0  0  0  0  0  0  0  0  0
    5.8737  -12.8860   24.6493 C   0  0  0  0  0  0  0  0  0  0  0  0
    6.2407  -11.7478   25.3294 C   0  0  0  0  0  0  0  0  0  0  0  0
    7.0371  -11.8468   26.4625 C   0  0  0  0  0  0  0  0  0  0  0  0
    7.4408  -13.1081   26.8750 C   0  0  0  0  0  0  0  0  0  0  0  0
    9.6092  -16.9188   27.0234 O   0  0  0  0  0  0  0  0  0  0  0  0
   10.0571  -18.1777   26.6293 O   0  0  0  0  0  0  0  0  0  0  0  0
  2  1  1  0
  3  2  1  0
  3  4  1  1
  5  3  1  0
  6  5  2  0
  7  8  1  0
  8  9  2  0
 10 11  1  0
 10  8  1  0
 12 11  1  0
 12 13  1  0
 14 13  1  6
 14 15  1  0
 15  5  1  0
 16 14  1  0
 17 16  2  0
 18 16  1  0
 19 20  1  1
 19 18  1  0
 20 21  1  0
 21 22  2  0
 22 23  1  0
 24 23  2  0
 25 24  1  0
 26 21  1  0
 26 25  2  0
 27 28  1  0
 27 19  1  0
 29 27  2  0
M  END
$$$$
