SRF.pdb
     RDKit          3D

 29 29  0  0  1  0  0  0  0  0999 V2000
    6.9077  -13.1143   21.4271 O   0  0  0  0  0  0  0  0  0  0  0  0
    6.8224  -12.8584   20.0524 C   0  0  0  0  0  0  0  0  0  0  0  0
    8.2067  -12.7997   19.4150 C   0  0  2  0  0  0  0  0  0  0  0  0
    8.0194  -12.6856   18.0005 N   0  0  0  0  0  0  0  0  0  0  0  0
    8.8850  -14.0986   19.7590 C   0  0  0  0  0  0  0  0  0  0  0  0
    8.9320  -15.0035   18.8908 O   0  0  0  0  0  0  0  0  0  0  0  0
   16.2941  -14.2129   17.1413 N   0  0  0  0  0  0  0  0  0  0  0  0
   15.7440  -15.1124   18.0792 C   0  0  0  0  0  0  0  0  0  0  0  0
   16.4399  -15.5326   19.1002 N   0  0  0  0  0  0  0  0  0  0  0  0
   14.3983  -15.5550   17.8834 N   0  0  0  0  0  0  0  0  0  0  0  0
   13.3342  -14.7309   18.3999 C   0  0  0  0  0  0  0  0  0  0  0  0
   12.7878  -15.3205   19.7163 C   0  0  0  0  0  0  0  0  0  0  0  0
   11.6640  -14.5079   20.2187 C   0  0  0  0  0  0  0  0  0  0  0  0
   10.6967  -15.1153   21.1561 C   0  0  2  0  0  0  0  0  0  0  0  0
    9.4656  -14.3311   21.0163 N   0  0  0  0  0  0  0  0  0  0  0  0
   11.0934  -15.2395   22.5581 C   0  0  0  0  0  0  0  0  0  0  0  0
   12.0185  -14.5881   23.1136 O   0  0  0  0  0  0  0  0  0  0  0  0
   16.0198  -16.1520   19.8012 N   0  0  0  0  0  0  0  0  0  0  0  0
   10.4091  -16.1499   23.4002 C   0  0  1  0  0  0  0  0  0  0  0  0
    9.5687  -15.6921   24.5084 C   0  0  0  0  0  0  0  0  0  0  0  0
    8.5784  -14.6823   23.9696 C   0  0  0  0  0  0  0  0  0  0  0  0
    7.8542  -13.9443   25.0146 C   0  0  0  0  0  0  0  0  0  0  0  0
    6.4758  -13.7220   24.9168 C   0  0  0  0  0  0  0  0  0  0  0  0
    5.8168  -13.0355   25.9058 C   0  0  0  0  0  0  0  0  0  0  0  0
    6.4842  -12.5526   27.0075 C   0  0  0  0  0  0  0  0  0  0  0  0
    7.8519  -12.7580   27.1315 C   0  0  0  0  0  0  0  0  0  0  0  0
    8.5068  -13.4531   26.1256 C   0  0  0  0  0  0  0  0  0  0  0  0
    8.9606  -16.8075   25.2342 O   0  0  0  0  0  0  0  0  0  0  0  0
    9.0400  -16.9816   26.6141 O   0  0  0  0  0  0  0  0  0  0  0  0
  2  1  1  0
  3  2  1  0
  3  4  1  6
  5  3  1  0
  6  5  2  0
  7  8  1  0
  8  9  2  0
 10 11  1  0
 10  8  1  0
 12 11  1  0
 12 13  1  0
 14 13  1  6
 14 15  1  0
 15  5  1  0
 16 14  1  0
 17 16  2  0
 18 16  1  0
 19 20  1  1
 19 18  1  0
 20 21  1  0
 21 22  2  0
 22 23  1  0
 24 23  2  0
 25 24  1  0
 26 21  1  0
 26 25  2  0
 27 28  1  0
 27 19  1  0
 29 27  2  0
M  END
$$$$
