GES.pdb
     RDKit          3D

 20 19  0  0  1  0  0  0  0  0999 V2000
   27.2279  -22.3944  -15.8355 N   0  0  0  0  0  0  0  0  0  0  0  0
   26.1148  -21.9572  -16.6416 C   0  0  0  0  0  0  0  0  0  0  0  0
   25.3141  -20.9710  -15.8336 C   0  0  0  0  0  0  0  0  0  0  0  0
   25.7947  -20.6544  -14.7297 O   0  0  0  0  0  0  0  0  0  0  0  0
   24.1067  -20.4612  -16.3240 N   0  0  0  0  0  0  0  0  0  0  0  0
   23.3247  -19.4513  -15.6979 C   0  0  1  0  0  0  0  0  0  0  0  0
   22.8101  -18.3972  -16.6438 C   0  0  0  0  0  0  0  0  0  0  0  0
   22.0820  -17.2601  -16.0361 C   0  0  0  0  0  0  0  0  0  0  0  0
   21.4389  -16.3615  -17.0378 C   0  0  0  0  0  0  0  0  0  0  0  0
   20.7457  -15.4022  -16.6990 O   0  0  0  0  0  0  0  0  0  0  0  0
   22.1874  -20.0060  -14.9198 C   0  0  0  0  0  0  0  0  0  0  0  0
   21.4871  -20.9387  -15.4521 O   0  0  0  0  0  0  0  0  0  0  0  0
   21.6086  -16.5878  -18.4088 O   0  0  0  0  0  0  0  0  0  0  0  0
   21.9107  -20.6023  -10.8108 O   0  0  0  0  0  0  0  0  0  0  0  0
   20.8326  -19.9402  -11.4088 C   0  0  0  0  0  0  0  0  0  0  0  0
   20.8321  -20.2560  -12.8832 C   0  0  2  0  0  0  0  0  0  0  0  0
   21.8350  -19.5598  -13.6208 N   0  0  0  0  0  0  0  0  0  0  0  0
   19.4839  -19.8760  -13.4064 C   0  0  0  0  0  0  0  0  0  0  0  0
   19.3945  -18.9239  -14.2190 O   0  0  0  0  0  0  0  0  0  0  0  0
   18.3425  -20.5462  -13.0167 O   0  0  0  0  0  0  0  0  0  0  0  0
  2  1  1  0
  3  5  1  0
  3  2  1  0
  4  3  2  0
  6 11  1  0
  6  5  1  0
  6  7  1  6
  8  7  1  0
  9  8  1  0
 10  9  2  0
 11 12  2  0
 13  9  1  0
 14 15  1  0
 16 15  1  1
 17 11  1  0
 17 16  1  0
 18 16  1  0
 18 20  1  0
 19 18  2  0
M  END
$$$$
