GES.pdb
     RDKit          3D

 20 19  0  0  1  0  0  0  0  0999 V2000
   22.0884  -12.1987  -16.5252 N   0  0  0  0  0  0  0  0  0  0  0  0
   20.6538  -12.0517  -16.5200 C   0  0  0  0  0  0  0  0  0  0  0  0
   20.3365  -10.5813  -16.5821 C   0  0  0  0  0  0  0  0  0  0  0  0
   20.8219   -9.9599  -17.5455 O   0  0  0  0  0  0  0  0  0  0  0  0
   19.5409   -9.9815  -15.5996 N   0  0  0  0  0  0  0  0  0  0  0  0
   19.0364   -8.6524  -15.6469 C   0  0  1  0  0  0  0  0  0  0  0  0
   17.5777   -8.5351  -15.2878 C   0  0  0  0  0  0  0  0  0  0  0  0
   16.6144   -9.1793  -16.2096 C   0  0  0  0  0  0  0  0  0  0  0  0
   15.1921   -9.0221  -15.7891 C   0  0  0  0  0  0  0  0  0  0  0  0
   14.7920   -9.4141  -14.6928 O   0  0  0  0  0  0  0  0  0  0  0  0
   19.8224   -7.7100  -14.8098 C   0  0  0  0  0  0  0  0  0  0  0  0
   20.1562   -8.0824  -13.6293 O   0  0  0  0  0  0  0  0  0  0  0  0
   14.2612   -8.4165  -16.6413 O   0  0  0  0  0  0  0  0  0  0  0  0
   23.2856   -4.7833  -14.1308 O   0  0  0  0  0  0  0  0  0  0  0  0
   22.5401   -5.6705  -14.9152 C   0  0  0  0  0  0  0  0  0  0  0  0
   21.1094   -5.6475  -14.4397 C   0  0  2  0  0  0  0  0  0  0  0  0
   20.2230   -6.4216  -15.2458 N   0  0  0  0  0  0  0  0  0  0  0  0
   20.6703   -4.2184  -14.4586 C   0  0  0  0  0  0  0  0  0  0  0  0
   20.1830   -3.7472  -15.5148 O   0  0  0  0  0  0  0  0  0  0  0  0
   20.7888   -3.4113  -13.3458 O   0  0  0  0  0  0  0  0  0  0  0  0
  2  1  1  0
  3  5  1  0
  3  2  1  0
  4  3  2  0
  6 11  1  0
  6  5  1  0
  6  7  1  1
  8  7  1  0
  9  8  1  0
 10  9  2  0
 11 12  2  0
 13  9  1  0
 14 15  1  0
 16 15  1  6
 17 11  1  0
 17 16  1  0
 18 16  1  0
 18 20  1  0
 19 18  2  0
M  END
$$$$
