GES.pdb
     RDKit          3D

 20 19  0  0  1  0  0  0  0  0999 V2000
   15.2953  -11.4471  -14.3175 N   0  0  0  0  0  0  0  0  0  0  0  0
   15.1727  -10.0107  -14.3570 C   0  0  0  0  0  0  0  0  0  0  0  0
   16.4699   -9.4469  -14.8727 C   0  0  0  0  0  0  0  0  0  0  0  0
   17.4286  -10.2400  -14.9171 O   0  0  0  0  0  0  0  0  0  0  0  0
   16.5577   -8.1080  -15.2697 N   0  0  0  0  0  0  0  0  0  0  0  0
   17.7227   -7.4776  -15.7881 C   0  0  1  0  0  0  0  0  0  0  0  0
   17.4375   -6.3656  -16.7642 C   0  0  0  0  0  0  0  0  0  0  0  0
   16.8375   -6.7585  -18.0596 C   0  0  0  0  0  0  0  0  0  0  0  0
   16.5565   -5.6033  -18.9601 C   0  0  0  0  0  0  0  0  0  0  0  0
   15.4099   -5.3040  -19.2936 O   0  0  0  0  0  0  0  0  0  0  0  0
   18.6242   -6.9715  -14.7214 C   0  0  0  0  0  0  0  0  0  0  0  0
   18.0941   -6.4392  -13.6825 O   0  0  0  0  0  0  0  0  0  0  0  0
   17.6031   -4.8177  -19.4570 O   0  0  0  0  0  0  0  0  0  0  0  0
   22.4325   -7.2710  -12.0447 O   0  0  0  0  0  0  0  0  0  0  0  0
   21.7543   -7.7427  -13.1741 C   0  0  0  0  0  0  0  0  0  0  0  0
   20.8213   -6.6629  -13.6610 C   0  0  2  0  0  0  0  0  0  0  0  0
   20.0386   -7.0455  -14.7904 N   0  0  0  0  0  0  0  0  0  0  0  0
   21.6720   -5.4891  -14.0270 C   0  0  0  0  0  0  0  0  0  0  0  0
   21.8298   -5.2086  -15.2400 O   0  0  0  0  0  0  0  0  0  0  0  0
   22.2838   -4.7121  -13.0648 O   0  0  0  0  0  0  0  0  0  0  0  0
  2  1  1  0
  3  5  1  0
  3  2  1  0
  4  3  2  0
  6 11  1  0
  6  5  1  0
  6  7  1  6
  8  7  1  0
  9  8  1  0
 10  9  2  0
 11 12  2  0
 13  9  1  0
 14 15  1  0
 16 15  1  6
 17 11  1  0
 17 16  1  0
 18 16  1  0
 18 20  1  0
 19 18  2  0
M  END
$$$$
