GES.pdb
     RDKit          3D

 20 19  0  0  1  0  0  0  0  0999 V2000
   11.0697  -11.9919   -9.7649 N   0  0  0  0  0  0  0  0  0  0  0  0
   11.5657  -11.4662  -11.0128 C   0  0  0  0  0  0  0  0  0  0  0  0
   12.9564  -10.9404  -10.7763 C   0  0  0  0  0  0  0  0  0  0  0  0
   13.3217  -10.8829   -9.5875 O   0  0  0  0  0  0  0  0  0  0  0  0
   13.7629  -10.5487  -11.8506 N   0  0  0  0  0  0  0  0  0  0  0  0
   15.0638   -9.9840  -11.7406 C   0  0  1  0  0  0  0  0  0  0  0  0
   15.9536  -10.2537  -12.9264 C   0  0  0  0  0  0  0  0  0  0  0  0
   17.3304   -9.7129  -12.8583 C   0  0  0  0  0  0  0  0  0  0  0  0
   18.1392   -9.9886  -14.0808 C   0  0  0  0  0  0  0  0  0  0  0  0
   17.6833  -10.6244  -15.0312 O   0  0  0  0  0  0  0  0  0  0  0  0
   15.0346   -8.5228  -11.4746 C   0  0  0  0  0  0  0  0  0  0  0  0
   14.2234   -7.7996  -12.1548 O   0  0  0  0  0  0  0  0  0  0  0  0
   19.4562   -9.5253  -14.1816 O   0  0  0  0  0  0  0  0  0  0  0  0
   16.6893   -6.8032   -8.1478 O   0  0  0  0  0  0  0  0  0  0  0  0
   15.6664   -6.1173   -8.8124 C   0  0  0  0  0  0  0  0  0  0  0  0
   15.7104   -6.4861  -10.2737 C   0  0  2  0  0  0  0  0  0  0  0  0
   15.8550   -7.8855  -10.5096 N   0  0  0  0  0  0  0  0  0  0  0  0
   16.8776   -5.7641  -10.8670 C   0  0  0  0  0  0  0  0  0  0  0  0
   16.9420   -4.5162  -10.7511 O   0  0  0  0  0  0  0  0  0  0  0  0
   17.8797   -6.4370  -11.5354 O   0  0  0  0  0  0  0  0  0  0  0  0
  2  1  1  0
  3  5  1  0
  3  2  1  0
  4  3  2  0
  6 11  1  0
  6  5  1  0
  6  7  1  6
  8  7  1  0
  9  8  1  0
 10  9  2  0
 11 12  2  0
 13  9  1  0
 14 15  1  0
 16 15  1  1
 17 11  1  0
 17 16  1  0
 18 16  1  0
 18 20  1  0
 19 18  2  0
M  END
$$$$
