GES.pdb
     RDKit          3D

 20 19  0  0  1  0  0  0  0  0999 V2000
   26.6716  -23.1035  -15.4205 N   0  0  0  0  0  0  0  0  0  0  0  0
   25.7649  -22.4319  -16.3187 C   0  0  0  0  0  0  0  0  0  0  0  0
   24.7082  -21.7512  -15.4901 C   0  0  0  0  0  0  0  0  0  0  0  0
   24.7303  -21.9981  -14.2701 O   0  0  0  0  0  0  0  0  0  0  0  0
   23.7731  -20.8988  -16.0876 N   0  0  0  0  0  0  0  0  0  0  0  0
   22.7473  -20.1916  -15.4013 C   0  0  1  0  0  0  0  0  0  0  0  0
   22.4885  -18.8080  -15.9392 C   0  0  0  0  0  0  0  0  0  0  0  0
   21.5387  -17.9670  -15.1755 C   0  0  0  0  0  0  0  0  0  0  0  0
   21.3136  -16.6229  -15.7817 C   0  0  0  0  0  0  0  0  0  0  0  0
   22.1441  -15.7195  -15.6845 O   0  0  0  0  0  0  0  0  0  0  0  0
   21.4668  -20.9430  -15.3513 C   0  0  0  0  0  0  0  0  0  0  0  0
   21.0184  -21.4487  -16.4407 O   0  0  0  0  0  0  0  0  0  0  0  0
   20.1358  -16.3491  -16.4868 O   0  0  0  0  0  0  0  0  0  0  0  0
   20.6330  -23.6536  -12.9302 O   0  0  0  0  0  0  0  0  0  0  0  0
   19.4583  -22.8966  -13.0036 C   0  0  0  0  0  0  0  0  0  0  0  0
   19.5585  -21.9663  -14.1859 C   0  0  2  0  0  0  0  0  0  0  0  0
   20.7145  -21.1310  -14.1641 N   0  0  0  0  0  0  0  0  0  0  0  0
   18.3327  -21.1102  -14.1677 C   0  0  0  0  0  0  0  0  0  0  0  0
   18.4642  -19.8625  -14.1387 O   0  0  0  0  0  0  0  0  0  0  0  0
   17.0672  -21.6600  -14.1819 O   0  0  0  0  0  0  0  0  0  0  0  0
  2  1  1  0
  3  5  1  0
  3  2  1  0
  4  3  2  0
  6 11  1  0
  6  5  1  0
  6  7  1  6
  8  7  1  0
  9  8  1  0
 10  9  2  0
 11 12  2  0
 13  9  1  0
 14 15  1  0
 16 15  1  1
 17 11  1  0
 17 16  1  0
 18 16  1  0
 18 20  1  0
 19 18  2  0
M  END
$$$$
