GES.pdb
     RDKit          3D

 20 19  0  0  1  0  0  0  0  0999 V2000
   19.3678  -13.3878  -16.4265 N   0  0  0  0  0  0  0  0  0  0  0  0
   18.4282  -12.5949  -15.6726 C   0  0  0  0  0  0  0  0  0  0  0  0
   18.6632  -11.1472  -16.0124 C   0  0  0  0  0  0  0  0  0  0  0  0
   19.6191  -10.9154  -16.7757 O   0  0  0  0  0  0  0  0  0  0  0  0
   17.8380  -10.1479  -15.4846 N   0  0  0  0  0  0  0  0  0  0  0  0
   17.9756   -8.7531  -15.7273 C   0  0  1  0  0  0  0  0  0  0  0  0
   16.7266   -7.9553  -15.4550 C   0  0  0  0  0  0  0  0  0  0  0  0
   16.7810   -6.5102  -15.7729 C   0  0  0  0  0  0  0  0  0  0  0  0
   15.5018   -5.7926  -15.5019 C   0  0  0  0  0  0  0  0  0  0  0  0
   15.3672   -4.5926  -15.7413 O   0  0  0  0  0  0  0  0  0  0  0  0
   19.1115   -8.1505  -14.9835 C   0  0  0  0  0  0  0  0  0  0  0  0
   19.3086   -8.5235  -13.7728 O   0  0  0  0  0  0  0  0  0  0  0  0
   14.4051   -6.4737  -14.9608 O   0  0  0  0  0  0  0  0  0  0  0  0
   23.5464   -6.8354  -14.8036 O   0  0  0  0  0  0  0  0  0  0  0  0
   22.4464   -7.1783  -15.5977 C   0  0  0  0  0  0  0  0  0  0  0  0
   21.1850   -6.8356  -14.8461 C   0  0  2  0  0  0  0  0  0  0  0  0
   19.9890   -7.1858  -15.5402 N   0  0  0  0  0  0  0  0  0  0  0  0
   21.2060   -5.3583  -14.6168 C   0  0  0  0  0  0  0  0  0  0  0  0
   20.5660   -4.6136  -15.3982 O   0  0  0  0  0  0  0  0  0  0  0  0
   21.9103   -4.7996  -13.5700 O   0  0  0  0  0  0  0  0  0  0  0  0
  2  1  1  0
  3  5  1  0
  3  2  1  0
  4  3  2  0
  6 11  1  0
  6  5  1  0
  6  7  1  1
  8  7  1  0
  9  8  1  0
 10  9  2  0
 11 12  2  0
 13  9  1  0
 14 15  1  0
 16 15  1  6
 17 11  1  0
 17 16  1  0
 18 16  1  0
 18 20  1  0
 19 18  2  0
M  END
$$$$
