GES.pdb
     RDKit          3D

 20 19  0  0  1  0  0  0  0  0999 V2000
   26.2090  -11.2155  -15.7918 N   0  0  0  0  0  0  0  0  0  0  0  0
   24.8551  -11.4710  -15.3658 C   0  0  0  0  0  0  0  0  0  0  0  0
   24.0078  -10.2973  -15.7794 C   0  0  0  0  0  0  0  0  0  0  0  0
   24.5994   -9.3865  -16.3881 O   0  0  0  0  0  0  0  0  0  0  0  0
   22.6410  -10.2644  -15.4815 N   0  0  0  0  0  0  0  0  0  0  0  0
   21.7193   -9.2877  -15.9505 C   0  0  1  0  0  0  0  0  0  0  0  0
   20.3508   -9.8344  -16.2648 C   0  0  0  0  0  0  0  0  0  0  0  0
   20.2833  -10.9053  -17.2851 C   0  0  0  0  0  0  0  0  0  0  0  0
   18.8994  -11.4013  -17.5367 C   0  0  0  0  0  0  0  0  0  0  0  0
   18.3266  -11.2113  -18.6097 O   0  0  0  0  0  0  0  0  0  0  0  0
   21.5833   -8.1351  -15.0232 C   0  0  0  0  0  0  0  0  0  0  0  0
   21.5808   -8.3689  -13.7627 O   0  0  0  0  0  0  0  0  0  0  0  0
   18.2053  -12.1059  -16.5461 O   0  0  0  0  0  0  0  0  0  0  0  0
   22.5885   -3.9761  -13.4303 O   0  0  0  0  0  0  0  0  0  0  0  0
   22.6929   -4.9132  -14.4644 C   0  0  0  0  0  0  0  0  0  0  0  0
   21.4313   -5.7382  -14.4952 C   0  0  2  0  0  0  0  0  0  0  0  0
   21.4561   -6.7912  -15.4572 N   0  0  0  0  0  0  0  0  0  0  0  0
   20.3106   -4.8028  -14.8187 C   0  0  0  0  0  0  0  0  0  0  0  0
   20.0190   -4.5981  -16.0220 O   0  0  0  0  0  0  0  0  0  0  0  0
   19.5944   -4.1633  -13.8278 O   0  0  0  0  0  0  0  0  0  0  0  0
  2  1  1  0
  3  5  1  0
  3  2  1  0
  4  3  2  0
  6 11  1  0
  6  5  1  0
  6  7  1  1
  8  7  1  0
  9  8  1  0
 10  9  2  0
 11 12  2  0
 13  9  1  0
 14 15  1  0
 16 15  1  6
 17 11  1  0
 17 16  1  0
 18 16  1  0
 18 20  1  0
 19 18  2  0
M  END
$$$$
