GES.pdb
     RDKit          3D

 20 19  0  0  1  0  0  0  0  0999 V2000
   14.6035  -12.9405  -13.6583 N   0  0  0  0  0  0  0  0  0  0  0  0
   14.5667  -11.5020  -13.5632 C   0  0  0  0  0  0  0  0  0  0  0  0
   15.6978  -10.9519  -14.3905 C   0  0  0  0  0  0  0  0  0  0  0  0
   16.4678  -11.7942  -14.8883 O   0  0  0  0  0  0  0  0  0  0  0  0
   15.8454   -9.5718  -14.5687 N   0  0  0  0  0  0  0  0  0  0  0  0
   16.8148   -8.9482  -15.4020 C   0  0  1  0  0  0  0  0  0  0  0  0
   16.2779   -7.8007  -16.2177 C   0  0  0  0  0  0  0  0  0  0  0  0
   17.1975   -7.2106  -17.2170 C   0  0  0  0  0  0  0  0  0  0  0  0
   16.6188   -6.0423  -17.9416 C   0  0  0  0  0  0  0  0  0  0  0  0
   16.0105   -6.1735  -19.0038 O   0  0  0  0  0  0  0  0  0  0  0  0
   18.0118   -8.4936  -14.6489 C   0  0  0  0  0  0  0  0  0  0  0  0
   17.8421   -8.0243  -13.4679 O   0  0  0  0  0  0  0  0  0  0  0  0
   16.7536   -4.7478  -17.4262 O   0  0  0  0  0  0  0  0  0  0  0  0
   21.4770  -10.3026  -14.2026 O   0  0  0  0  0  0  0  0  0  0  0  0
   21.6861   -8.9792  -14.6064 C   0  0  0  0  0  0  0  0  0  0  0  0
   20.4314   -8.1888  -14.3331 C   0  0  2  0  0  0  0  0  0  0  0  0
   19.3311   -8.5508  -15.1655 N   0  0  0  0  0  0  0  0  0  0  0  0
   20.7684   -6.7500  -14.5612 C   0  0  0  0  0  0  0  0  0  0  0  0
   20.1627   -6.1203  -15.4621 O   0  0  0  0  0  0  0  0  0  0  0  0
   21.7257   -6.1037  -13.8066 O   0  0  0  0  0  0  0  0  0  0  0  0
  2  1  1  0
  3  5  1  0
  3  2  1  0
  4  3  2  0
  6 11  1  0
  6  5  1  0
  6  7  1  1
  8  7  1  0
  9  8  1  0
 10  9  2  0
 11 12  2  0
 13  9  1  0
 14 15  1  0
 16 15  1  6
 17 11  1  0
 17 16  1  0
 18 16  1  0
 18 20  1  0
 19 18  2  0
M  END
$$$$
