GES.pdb
     RDKit          3D

 20 19  0  0  1  0  0  0  0  0999 V2000
   21.5426  -10.4547  -15.2681 N   0  0  0  0  0  0  0  0  0  0  0  0
   21.8225   -9.7943  -14.0169 C   0  0  0  0  0  0  0  0  0  0  0  0
   21.1712   -8.4374  -14.0510 C   0  0  0  0  0  0  0  0  0  0  0  0
   20.6856   -8.0941  -15.1448 O   0  0  0  0  0  0  0  0  0  0  0  0
   21.1318   -7.6364  -12.9043 N   0  0  0  0  0  0  0  0  0  0  0  0
   20.4933   -6.3691  -12.8068 C   0  0  1  0  0  0  0  0  0  0  0  0
   19.9440   -6.0608  -11.4379 C   0  0  0  0  0  0  0  0  0  0  0  0
   18.6275   -6.6505  -11.1040 C   0  0  0  0  0  0  0  0  0  0  0  0
   18.1964   -6.3878   -9.7005 C   0  0  0  0  0  0  0  0  0  0  0  0
   17.0114   -6.4192   -9.3687 O   0  0  0  0  0  0  0  0  0  0  0  0
   21.3675   -5.2508  -13.2450 C   0  0  0  0  0  0  0  0  0  0  0  0
   22.6038   -5.2802  -12.9068 O   0  0  0  0  0  0  0  0  0  0  0  0
   19.1406   -6.0947   -8.7095 O   0  0  0  0  0  0  0  0  0  0  0  0
   23.3508   -3.5668  -16.6651 O   0  0  0  0  0  0  0  0  0  0  0  0
   22.5161   -4.3555  -15.8654 C   0  0  0  0  0  0  0  0  0  0  0  0
   21.8175   -3.4623  -14.8716 C   0  0  2  0  0  0  0  0  0  0  0  0
   20.9085   -4.1535  -14.0169 N   0  0  0  0  0  0  0  0  0  0  0  0
   21.0674   -2.4389  -15.6626 C   0  0  0  0  0  0  0  0  0  0  0  0
   19.9878   -2.7676  -16.2114 O   0  0  0  0  0  0  0  0  0  0  0  0
   21.5346   -1.1480  -15.8013 O   0  0  0  0  0  0  0  0  0  0  0  0
  2  1  1  0
  3  5  1  0
  3  2  1  0
  4  3  2  0
  6 11  1  0
  6  5  1  0
  6  7  1  1
  8  7  1  0
  9  8  1  0
 10  9  2  0
 11 12  2  0
 13  9  1  0
 14 15  1  0
 16 15  1  6
 17 11  1  0
 17 16  1  0
 18 16  1  0
 18 20  1  0
 19 18  2  0
M  END
$$$$
