GES.pdb
     RDKit          3D

 20 19  0  0  1  0  0  0  0  0999 V2000
   21.7540  -16.8687  -16.0132 N   0  0  0  0  0  0  0  0  0  0  0  0
   21.5666  -15.7764  -15.0903 C   0  0  0  0  0  0  0  0  0  0  0  0
   21.2641  -14.5377  -15.8907 C   0  0  0  0  0  0  0  0  0  0  0  0
   21.6080  -14.5651  -17.0870 O   0  0  0  0  0  0  0  0  0  0  0  0
   20.6335  -13.4400  -15.2946 N   0  0  0  0  0  0  0  0  0  0  0  0
   20.2816  -12.2321  -15.9584 C   0  0  1  0  0  0  0  0  0  0  0  0
   18.8034  -12.0734  -16.2038 C   0  0  0  0  0  0  0  0  0  0  0  0
   17.9598  -13.2662  -15.9632 C   0  0  0  0  0  0  0  0  0  0  0  0
   16.5049  -13.0200  -16.1807 C   0  0  0  0  0  0  0  0  0  0  0  0
   15.7356  -12.8055  -15.2439 O   0  0  0  0  0  0  0  0  0  0  0  0
   20.7931  -11.0242  -15.2612 C   0  0  0  0  0  0  0  0  0  0  0  0
   20.7490  -11.0001  -13.9801 O   0  0  0  0  0  0  0  0  0  0  0  0
   15.9680  -13.0263  -17.4734 O   0  0  0  0  0  0  0  0  0  0  0  0
   22.3639   -7.7143  -17.2125 O   0  0  0  0  0  0  0  0  0  0  0  0
   22.8387   -7.9588  -15.9190 C   0  0  0  0  0  0  0  0  0  0  0  0
   21.8200   -8.7912  -15.1820 C   0  0  2  0  0  0  0  0  0  0  0  0
   21.3270   -9.8971  -15.9360 N   0  0  0  0  0  0  0  0  0  0  0  0
   20.6830   -7.8818  -14.8417 C   0  0  0  0  0  0  0  0  0  0  0  0
   19.5403   -8.1456  -15.2884 O   0  0  0  0  0  0  0  0  0  0  0  0
   20.8626   -6.7652  -14.0514 O   0  0  0  0  0  0  0  0  0  0  0  0
  2  1  1  0
  3  5  1  0
  3  2  1  0
  4  3  2  0
  6 11  1  0
  6  5  1  0
  6  7  1  1
  8  7  1  0
  9  8  1  0
 10  9  2  0
 11 12  2  0
 13  9  1  0
 14 15  1  0
 16 15  1  6
 17 11  1  0
 17 16  1  0
 18 16  1  0
 18 20  1  0
 19 18  2  0
M  END
$$$$
