GES.pdb
     RDKit          3D

 20 19  0  0  1  0  0  0  0  0999 V2000
   20.0452  -12.9536  -16.5673 N   0  0  0  0  0  0  0  0  0  0  0  0
   20.4145  -11.6722  -17.1162 C   0  0  0  0  0  0  0  0  0  0  0  0
   20.0675  -10.6144  -16.1027 C   0  0  0  0  0  0  0  0  0  0  0  0
   19.1432  -10.8955  -15.3173 O   0  0  0  0  0  0  0  0  0  0  0  0
   20.7620   -9.4000  -16.0732 N   0  0  0  0  0  0  0  0  0  0  0  0
   20.4180   -8.2739  -15.2751 C   0  0  1  0  0  0  0  0  0  0  0  0
   21.5407   -7.2865  -15.0882 C   0  0  0  0  0  0  0  0  0  0  0  0
   21.2955   -6.1758  -14.1402 C   0  0  0  0  0  0  0  0  0  0  0  0
   22.4815   -5.2946  -13.9362 C   0  0  0  0  0  0  0  0  0  0  0  0
   23.5698   -5.5399  -14.4567 O   0  0  0  0  0  0  0  0  0  0  0  0
   19.2176   -7.5584  -15.7791 C   0  0  0  0  0  0  0  0  0  0  0  0
   19.1221   -7.3498  -17.0405 O   0  0  0  0  0  0  0  0  0  0  0  0
   22.3875   -4.1495  -13.1366 O   0  0  0  0  0  0  0  0  0  0  0  0
   14.6515   -6.4529  -15.6493 O   0  0  0  0  0  0  0  0  0  0  0  0
   15.7216   -7.1754  -15.1098 C   0  0  0  0  0  0  0  0  0  0  0  0
   17.0093   -6.5077  -15.5216 C   0  0  2  0  0  0  0  0  0  0  0  0
   18.1726   -7.0942  -14.9407 N   0  0  0  0  0  0  0  0  0  0  0  0
   16.9120   -5.0788  -15.0923 C   0  0  0  0  0  0  0  0  0  0  0  0
   17.6660   -4.6674  -14.1773 O   0  0  0  0  0  0  0  0  0  0  0  0
   16.0160   -4.2079  -15.6774 O   0  0  0  0  0  0  0  0  0  0  0  0
  2  1  1  0
  3  5  1  0
  3  2  1  0
  4  3  2  0
  6 11  1  0
  6  5  1  0
  6  7  1  6
  8  7  1  0
  9  8  1  0
 10  9  2  0
 11 12  2  0
 13  9  1  0
 14 15  1  0
 16 15  1  1
 17 11  1  0
 17 16  1  0
 18 16  1  0
 18 20  1  0
 19 18  2  0
M  END
$$$$
