NWN.pdb
     RDKit          3D

 31 32  0  0  1  0  0  0  0  0999 V2000
    9.3160   -5.8234  -15.0566 N   0  0  0  0  0  0  0  0  0  0  0  0
   10.6256   -6.2661  -14.7268 C   0  0  0  0  0  0  0  0  0  0  0  0
   11.0374   -7.2926  -15.3552 O   0  0  0  0  0  0  0  0  0  0  0  0
   11.4857   -5.6010  -13.7217 C   0  0  0  0  0  0  0  0  0  0  0  0
   12.3137   -6.6578  -13.0169 C   0  0  2  0  0  0  0  0  0  0  0  0
   11.4812   -7.2947  -12.0015 N   0  0  0  0  0  0  0  0  0  0  0  0
   13.5214   -6.0663  -12.3861 C   0  0  0  0  0  0  0  0  0  0  0  0
   13.3607   -5.0066  -11.7277 O   0  0  0  0  0  0  0  0  0  0  0  0
   14.8095   -6.6476  -12.5031 N   0  0  0  0  0  0  0  0  0  0  0  0
   16.0088   -6.0145  -11.9632 C   0  0  1  0  0  0  0  0  0  0  0  0
   16.9171   -7.0144  -11.3308 C   0  0  0  0  0  0  0  0  0  0  0  0
   18.1860   -6.4914  -10.8052 C   0  0  0  0  0  0  0  0  0  0  0  0
   18.3627   -6.0557   -9.4872 C   0  0  0  0  0  0  0  0  0  0  0  0
   19.6201   -5.6616   -9.2937 N   0  0  0  0  0  0  0  0  0  0  0  0
   20.3008   -5.8211  -10.4565 C   0  0  0  0  0  0  0  0  0  0  0  0
   21.6179   -5.5538  -10.7653 C   0  0  0  0  0  0  0  0  0  0  0  0
   22.1030   -5.7884  -12.0270 C   0  0  0  0  0  0  0  0  0  0  0  0
   21.2262   -6.2961  -12.9589 C   0  0  0  0  0  0  0  0  0  0  0  0
   19.9076   -6.5688  -12.6665 C   0  0  0  0  0  0  0  0  0  0  0  0
   19.4071   -6.3391  -11.4037 C   0  0  0  0  0  0  0  0  0  0  0  0
   16.6450   -5.0650  -12.8756 C   0  0  0  0  0  0  0  0  0  0  0  0
   16.6991   -5.3115  -14.1066 O   0  0  0  0  0  0  0  0  0  0  0  0
   18.7921   -1.0655  -15.1141 N   0  0  0  0  0  0  0  0  0  0  0  0
   17.8212   -1.9482  -15.6361 C   0  0  0  0  0  0  0  0  0  0  0  0
   17.4682   -1.8393  -16.8235 O   0  0  0  0  0  0  0  0  0  0  0  0
   17.2378   -2.9853  -14.7737 C   0  0  0  0  0  0  0  0  0  0  0  0
   17.7367   -2.8554  -13.3749 C   0  0  2  0  0  0  0  0  0  0  0  0
   17.2294   -3.8340  -12.4495 N   0  0  0  0  0  0  0  0  0  0  0  0
   17.3602   -1.4984  -12.8659 C   0  0  0  0  0  0  0  0  0  0  0  0
   18.1725   -0.3815  -13.0609 O   0  0  0  0  0  0  0  0  0  0  0  0
   16.2862   -1.3026  -12.2345 O   0  0  0  0  0  0  0  0  0  0  0  0
  2  1  1  0
  2  3  2  0
  4  2  1  0
  5  4  1  0
  5  6  1  1
  7  5  1  0
  7  8  2  0
  9  7  1  0
 10  9  1  0
 10 11  1  6
 12 11  1  0
 12 13  2  0
 14 13  1  0
 15 20  2  0
 15 14  1  0
 16 15  1  0
 17 16  2  0
 18 17  1  0
 18 19  2  0
 19 20  1  0
 20 12  1  0
 21 28  1  0
 21 10  1  0
 22 21  2  0
 23 24  1  0
 24 26  1  0
 25 24  2  0
 27 26  1  6
 27 28  1  0
 27 29  1  0
 29 31  2  0
 29 30  1  0
M  END
$$$$
