NWN.pdb
     RDKit          3D

 31 32  0  0  1  0  0  0  0  0999 V2000
   30.9286  -23.1611  -17.9011 N   0  0  0  0  0  0  0  0  0  0  0  0
   29.5576  -22.7941  -17.8281 C   0  0  0  0  0  0  0  0  0  0  0  0
   29.0152  -22.4580  -18.9285 O   0  0  0  0  0  0  0  0  0  0  0  0
   28.7770  -22.7909  -16.5699 C   0  0  0  0  0  0  0  0  0  0  0  0
   27.4557  -22.0908  -16.8211 C   0  0  2  0  0  0  0  0  0  0  0  0
   27.7196  -20.6724  -17.0403 N   0  0  0  0  0  0  0  0  0  0  0  0
   26.5261  -22.2636  -15.6754 C   0  0  0  0  0  0  0  0  0  0  0  0
   26.2673  -23.4430  -15.3232 O   0  0  0  0  0  0  0  0  0  0  0  0
   25.9424  -21.1677  -14.9905 N   0  0  0  0  0  0  0  0  0  0  0  0
   25.0211  -21.3416  -13.8717 C   0  0  1  0  0  0  0  0  0  0  0  0
   25.2172  -20.2888  -12.8335 C   0  0  0  0  0  0  0  0  0  0  0  0
   24.5158  -20.5006  -11.5596 C   0  0  0  0  0  0  0  0  0  0  0  0
   25.0729  -21.1729  -10.4660 C   0  0  0  0  0  0  0  0  0  0  0  0
   24.2170  -21.1875   -9.4456 N   0  0  0  0  0  0  0  0  0  0  0  0
   23.0884  -20.5378   -9.8262 C   0  0  0  0  0  0  0  0  0  0  0  0
   21.9215  -20.2923   -9.1337 C   0  0  0  0  0  0  0  0  0  0  0  0
   20.8873  -19.6105   -9.7234 C   0  0  0  0  0  0  0  0  0  0  0  0
   21.0650  -19.1882  -11.0215 C   0  0  0  0  0  0  0  0  0  0  0  0
   22.2246  -19.4253  -11.7271 C   0  0  0  0  0  0  0  0  0  0  0  0
   23.2715  -20.1076  -11.1474 C   0  0  0  0  0  0  0  0  0  0  0  0
   23.6365  -21.5903  -14.2715 C   0  0  0  0  0  0  0  0  0  0  0  0
   23.0925  -20.8698  -15.1455 O   0  0  0  0  0  0  0  0  0  0  0  0
   18.6022  -24.6148  -13.7037 N   0  0  0  0  0  0  0  0  0  0  0  0
   19.6679  -24.4337  -14.6123 C   0  0  0  0  0  0  0  0  0  0  0  0
   19.4334  -24.3938  -15.8330 O   0  0  0  0  0  0  0  0  0  0  0  0
   21.0416  -24.2945  -14.1090 C   0  0  0  0  0  0  0  0  0  0  0  0
   21.4752  -22.8685  -14.1362 C   0  0  2  0  0  0  0  0  0  0  0  0
   22.8319  -22.6318  -13.7181 N   0  0  0  0  0  0  0  0  0  0  0  0
   20.5703  -22.0850  -13.2365 C   0  0  0  0  0  0  0  0  0  0  0  0
   20.5209  -22.3050  -11.8601 O   0  0  0  0  0  0  0  0  0  0  0  0
   19.8077  -21.1859  -13.6845 O   0  0  0  0  0  0  0  0  0  0  0  0
  2  1  1  0
  2  3  2  0
  4  2  1  0
  5  4  1  0
  5  6  1  1
  7  5  1  0
  7  8  2  0
  9  7  1  0
 10  9  1  0
 10 11  1  1
 12 11  1  0
 12 13  2  0
 14 13  1  0
 15 20  2  0
 15 14  1  0
 16 15  1  0
 17 16  2  0
 18 17  1  0
 18 19  2  0
 19 20  1  0
 20 12  1  0
 21 28  1  0
 21 10  1  0
 22 21  2  0
 23 24  1  0
 24 26  1  0
 25 24  2  0
 27 26  1  1
 27 28  1  0
 27 29  1  0
 29 31  2  0
 29 30  1  0
M  END
$$$$
