NWN.pdb
     RDKit          3D

 31 32  0  0  1  0  0  0  0  0999 V2000
   27.7901  -22.5552  -21.0531 N   0  0  0  0  0  0  0  0  0  0  0  0
   27.5857  -21.8005  -19.8664 C   0  0  0  0  0  0  0  0  0  0  0  0
   27.9760  -20.5905  -19.9059 O   0  0  0  0  0  0  0  0  0  0  0  0
   26.9615  -22.3527  -18.6424 C   0  0  0  0  0  0  0  0  0  0  0  0
   27.9802  -22.3158  -17.5200 C   0  0  2  0  0  0  0  0  0  0  0  0
   28.8290  -23.4979  -17.6283 N   0  0  0  0  0  0  0  0  0  0  0  0
   27.3185  -22.2854  -16.1904 C   0  0  0  0  0  0  0  0  0  0  0  0
   26.9844  -23.3916  -15.6937 O   0  0  0  0  0  0  0  0  0  0  0  0
   27.0628  -21.0797  -15.4893 N   0  0  0  0  0  0  0  0  0  0  0  0
   26.4762  -21.0576  -14.1530 C   0  0  1  0  0  0  0  0  0  0  0  0
   27.1634  -20.0708  -13.2705 C   0  0  0  0  0  0  0  0  0  0  0  0
   26.8075  -20.1223  -11.8456 C   0  0  0  0  0  0  0  0  0  0  0  0
   25.5397  -19.8016  -11.3473 C   0  0  0  0  0  0  0  0  0  0  0  0
   25.5060  -19.9649  -10.0258 N   0  0  0  0  0  0  0  0  0  0  0  0
   26.7279  -20.3902   -9.6173 C   0  0  0  0  0  0  0  0  0  0  0  0
   27.1932  -20.6928   -8.3550 C   0  0  0  0  0  0  0  0  0  0  0  0
   28.4880  -21.1051   -8.1660 C   0  0  0  0  0  0  0  0  0  0  0  0
   29.2914  -21.2016   -9.2796 C   0  0  0  0  0  0  0  0  0  0  0  0
   28.8419  -20.9033  -10.5475 C   0  0  0  0  0  0  0  0  0  0  0  0
   27.5441  -20.4891  -10.7523 C   0  0  0  0  0  0  0  0  0  0  0  0
   25.0145  -21.0095  -14.1433 C   0  0  0  0  0  0  0  0  0  0  0  0
   24.3993  -20.3301  -15.0030 O   0  0  0  0  0  0  0  0  0  0  0  0
   19.9015  -23.4184  -12.1882 N   0  0  0  0  0  0  0  0  0  0  0  0
   20.6272  -22.2071  -12.2040 C   0  0  0  0  0  0  0  0  0  0  0  0
   20.0231  -21.1319  -12.3634 O   0  0  0  0  0  0  0  0  0  0  0  0
   22.0867  -22.2274  -12.0326 C   0  0  0  0  0  0  0  0  0  0  0  0
   22.7722  -21.7229  -13.2565 C   0  0  2  0  0  0  0  0  0  0  0  0
   24.2098  -21.7056  -13.1912 N   0  0  0  0  0  0  0  0  0  0  0  0
   22.3037  -20.3243  -13.5147 C   0  0  0  0  0  0  0  0  0  0  0  0
   21.3778  -20.0247  -14.5138 O   0  0  0  0  0  0  0  0  0  0  0  0
   22.7274  -19.3486  -12.8372 O   0  0  0  0  0  0  0  0  0  0  0  0
  2  1  1  0
  2  3  2  0
  4  2  1  0
  5  4  1  0
  5  6  1  1
  7  5  1  0
  7  8  2  0
  9  7  1  0
 10  9  1  0
 10 11  1  6
 12 11  1  0
 12 13  2  0
 14 13  1  0
 15 20  2  0
 15 14  1  0
 16 15  1  0
 17 16  2  0
 18 17  1  0
 18 19  2  0
 19 20  1  0
 20 12  1  0
 21 28  1  0
 21 10  1  0
 22 21  2  0
 23 24  1  0
 24 26  1  0
 25 24  2  0
 27 26  1  1
 27 28  1  0
 27 29  1  0
 29 31  2  0
 29 30  1  0
M  END
$$$$
