NWN.pdb
     RDKit          3D

 31 32  0  0  1  0  0  0  0  0999 V2000
   26.9589  -22.8761  -19.9669 N   0  0  0  0  0  0  0  0  0  0  0  0
   26.5389  -24.0187  -19.2336 C   0  0  0  0  0  0  0  0  0  0  0  0
   26.9728  -25.1375  -19.6559 O   0  0  0  0  0  0  0  0  0  0  0  0
   25.6536  -23.9511  -18.0487 C   0  0  0  0  0  0  0  0  0  0  0  0
   26.4864  -23.5614  -16.8431 C   0  0  2  0  0  0  0  0  0  0  0  0
   27.3002  -24.7087  -16.4543 N   0  0  0  0  0  0  0  0  0  0  0  0
   25.6279  -23.1389  -15.7069 C   0  0  0  0  0  0  0  0  0  0  0  0
   25.1880  -24.0467  -14.9555 O   0  0  0  0  0  0  0  0  0  0  0  0
   25.3027  -21.7818  -15.4557 N   0  0  0  0  0  0  0  0  0  0  0  0
   24.5527  -21.3592  -14.2770 C   0  0  1  0  0  0  0  0  0  0  0  0
   25.1621  -20.1536  -13.6445 C   0  0  0  0  0  0  0  0  0  0  0  0
   26.1187  -20.4090  -12.5585 C   0  0  0  0  0  0  0  0  0  0  0  0
   27.4888  -20.6116  -12.7590 C   0  0  0  0  0  0  0  0  0  0  0  0
   28.1063  -20.7926  -11.5928 N   0  0  0  0  0  0  0  0  0  0  0  0
   27.1805  -20.7171  -10.6038 C   0  0  0  0  0  0  0  0  0  0  0  0
   27.3198  -20.8415   -9.2376 C   0  0  0  0  0  0  0  0  0  0  0  0
   26.2309  -20.7348   -8.4099 C   0  0  0  0  0  0  0  0  0  0  0  0
   25.0083  -20.5010   -8.9979 C   0  0  0  0  0  0  0  0  0  0  0  0
   24.8523  -20.3740  -10.3611 C   0  0  0  0  0  0  0  0  0  0  0  0
   25.9369  -20.4779  -11.2040 C   0  0  0  0  0  0  0  0  0  0  0  0
   23.1047  -21.3091  -14.4769 C   0  0  0  0  0  0  0  0  0  0  0  0
   22.6313  -20.8877  -15.5619 O   0  0  0  0  0  0  0  0  0  0  0  0
   18.2482  -22.0969  -14.5820 N   0  0  0  0  0  0  0  0  0  0  0  0
   18.5707  -22.6176  -13.3096 C   0  0  0  0  0  0  0  0  0  0  0  0
   17.7316  -23.2994  -12.6950 O   0  0  0  0  0  0  0  0  0  0  0  0
   19.8916  -22.3499  -12.7238 C   0  0  0  0  0  0  0  0  0  0  0  0
   20.7389  -21.5607  -13.6628 C   0  0  2  0  0  0  0  0  0  0  0  0
   22.1587  -21.7206  -13.4899 N   0  0  0  0  0  0  0  0  0  0  0  0
   20.4115  -20.1103  -13.4852 C   0  0  0  0  0  0  0  0  0  0  0  0
   19.4936  -19.4515  -14.3029 O   0  0  0  0  0  0  0  0  0  0  0  0
   20.9537  -19.4149  -12.5835 O   0  0  0  0  0  0  0  0  0  0  0  0
  2  1  1  0
  2  3  2  0
  4  2  1  0
  5  4  1  0
  5  6  1  1
  7  5  1  0
  7  8  2  0
  9  7  1  0
 10  9  1  0
 10 11  1  6
 12 11  1  0
 12 13  2  0
 14 13  1  0
 15 20  2  0
 15 14  1  0
 16 15  1  0
 17 16  2  0
 18 17  1  0
 18 19  2  0
 19 20  1  0
 20 12  1  0
 21 28  1  0
 21 10  1  0
 22 21  2  0
 23 24  1  0
 24 26  1  0
 25 24  2  0
 27 26  1  1
 27 28  1  0
 27 29  1  0
 29 31  2  0
 29 30  1  0
M  END
$$$$
