NWN.pdb
     RDKit          3D

 31 32  0  0  1  0  0  0  0  0999 V2000
   29.0821  -20.8621  -17.0903 N   0  0  0  0  0  0  0  0  0  0  0  0
   28.8240  -22.1856  -16.6415 C   0  0  0  0  0  0  0  0  0  0  0  0
   29.3857  -23.1143  -17.3048 O   0  0  0  0  0  0  0  0  0  0  0  0
   27.9620  -22.5027  -15.4801 C   0  0  0  0  0  0  0  0  0  0  0  0
   27.3893  -21.2092  -14.9341 C   0  0  2  0  0  0  0  0  0  0  0  0
   28.4965  -20.3503  -14.5267 N   0  0  0  0  0  0  0  0  0  0  0  0
   26.4901  -21.4614  -13.7789 C   0  0  0  0  0  0  0  0  0  0  0  0
   25.8210  -22.5263  -13.7982 O   0  0  0  0  0  0  0  0  0  0  0  0
   26.3712  -20.5611  -12.6899 N   0  0  0  0  0  0  0  0  0  0  0  0
   25.4147  -20.7620  -11.6058 C   0  0  1  0  0  0  0  0  0  0  0  0
   25.8598  -20.0876  -10.3521 C   0  0  0  0  0  0  0  0  0  0  0  0
   27.1176  -20.5752   -9.7691 C   0  0  0  0  0  0  0  0  0  0  0  0
   28.0048  -21.4291  -10.4339 C   0  0  0  0  0  0  0  0  0  0  0  0
   29.0674  -21.6791   -9.6707 N   0  0  0  0  0  0  0  0  0  0  0  0
   28.9179  -21.0110   -8.4993 C   0  0  0  0  0  0  0  0  0  0  0  0
   29.7379  -20.9533   -7.3921 C   0  0  0  0  0  0  0  0  0  0  0  0
   29.3831  -20.2087   -6.2959 C   0  0  0  0  0  0  0  0  0  0  0  0
   28.1864  -19.5305   -6.3506 C   0  0  0  0  0  0  0  0  0  0  0  0
   27.3559  -19.5776   -7.4491 C   0  0  0  0  0  0  0  0  0  0  0  0
   27.6998  -20.3203   -8.5572 C   0  0  0  0  0  0  0  0  0  0  0  0
   24.0216  -20.5359  -11.9893 C   0  0  0  0  0  0  0  0  0  0  0  0
   23.7016  -19.5002  -12.6248 O   0  0  0  0  0  0  0  0  0  0  0  0
   19.6485  -22.1660  -14.8944 N   0  0  0  0  0  0  0  0  0  0  0  0
   19.8509  -22.4322  -13.5224 C   0  0  0  0  0  0  0  0  0  0  0  0
   18.8694  -22.5278  -12.7646 O   0  0  0  0  0  0  0  0  0  0  0  0
   21.2161  -22.5934  -13.0030 C   0  0  0  0  0  0  0  0  0  0  0  0
   21.6656  -21.3587  -12.2987 C   0  0  2  0  0  0  0  0  0  0  0  0
   22.9627  -21.4427  -11.6809 N   0  0  0  0  0  0  0  0  0  0  0  0
   20.6652  -21.0354  -11.2324 C   0  0  0  0  0  0  0  0  0  0  0  0
   20.6903  -21.6502   -9.9808 O   0  0  0  0  0  0  0  0  0  0  0  0
   19.7496  -20.1881  -11.4186 O   0  0  0  0  0  0  0  0  0  0  0  0
  2  1  1  0
  2  3  2  0
  4  2  1  0
  5  4  1  0
  5  6  1  1
  7  5  1  0
  7  8  2  0
  9  7  1  0
 10  9  1  0
 10 11  1  1
 12 11  1  0
 12 13  2  0
 14 13  1  0
 15 20  2  0
 15 14  1  0
 16 15  1  0
 17 16  2  0
 18 17  1  0
 18 19  2  0
 19 20  1  0
 20 12  1  0
 21 28  1  0
 21 10  1  0
 22 21  2  0
 23 24  1  0
 24 26  1  0
 25 24  2  0
 27 26  1  1
 27 28  1  0
 27 29  1  0
 29 31  2  0
 29 30  1  0
M  END
$$$$
