NWN.pdb
     RDKit          3D

 31 32  0  0  1  0  0  0  0  0999 V2000
   34.8800  -25.7674  -16.5048 N   0  0  0  0  0  0  0  0  0  0  0  0
   33.8937  -25.8126  -17.5269 C   0  0  0  0  0  0  0  0  0  0  0  0
   34.2215  -26.4380  -18.5850 O   0  0  0  0  0  0  0  0  0  0  0  0
   32.5586  -25.1841  -17.4046 C   0  0  0  0  0  0  0  0  0  0  0  0
   32.5184  -24.3776  -16.1213 C   0  0  2  0  0  0  0  0  0  0  0  0
   32.7612  -25.2808  -15.0010 N   0  0  0  0  0  0  0  0  0  0  0  0
   31.2087  -23.6976  -15.9511 C   0  0  0  0  0  0  0  0  0  0  0  0
   30.4216  -24.1803  -15.0970 O   0  0  0  0  0  0  0  0  0  0  0  0
   30.8357  -22.5545  -16.7028 N   0  0  0  0  0  0  0  0  0  0  0  0
   29.6045  -21.8137  -16.4465 C   0  0  1  0  0  0  0  0  0  0  0  0
   29.7570  -20.3679  -16.7799 C   0  0  0  0  0  0  0  0  0  0  0  0
   28.7874  -19.4564  -16.1563 C   0  0  0  0  0  0  0  0  0  0  0  0
   27.8227  -19.8622  -15.2274 C   0  0  0  0  0  0  0  0  0  0  0  0
   27.1054  -18.8175  -14.8174 N   0  0  0  0  0  0  0  0  0  0  0  0
   27.5649  -17.7094  -15.4514 C   0  0  0  0  0  0  0  0  0  0  0  0
   27.1513  -16.3965  -15.3696 C   0  0  0  0  0  0  0  0  0  0  0  0
   27.7626  -15.4218  -16.1168 C   0  0  0  0  0  0  0  0  0  0  0  0
   28.7945  -15.8091  -16.9415 C   0  0  0  0  0  0  0  0  0  0  0  0
   29.2199  -17.1163  -17.0346 C   0  0  0  0  0  0  0  0  0  0  0  0
   28.6160  -18.1053  -16.2896 C   0  0  0  0  0  0  0  0  0  0  0  0
   28.3993  -22.4616  -16.9629 C   0  0  0  0  0  0  0  0  0  0  0  0
   28.3930  -22.9537  -18.1191 O   0  0  0  0  0  0  0  0  0  0  0  0
   25.3430  -25.8074  -16.4539 N   0  0  0  0  0  0  0  0  0  0  0  0
   24.6798  -24.8902  -15.6095 C   0  0  0  0  0  0  0  0  0  0  0  0
   23.9012  -25.3123  -14.7365 O   0  0  0  0  0  0  0  0  0  0  0  0
   24.9145  -23.4483  -15.7694 C   0  0  0  0  0  0  0  0  0  0  0  0
   26.0025  -23.1935  -16.7562 C   0  0  2  0  0  0  0  0  0  0  0  0
   27.1869  -22.5780  -16.2180 N   0  0  0  0  0  0  0  0  0  0  0  0
   25.4633  -22.2996  -17.8297 C   0  0  0  0  0  0  0  0  0  0  0  0
   25.1463  -22.7758  -19.1017 O   0  0  0  0  0  0  0  0  0  0  0  0
   25.2704  -21.0691  -17.6315 O   0  0  0  0  0  0  0  0  0  0  0  0
  2  1  1  0
  2  3  2  0
  4  2  1  0
  5  4  1  0
  5  6  1  1
  7  5  1  0
  7  8  2  0
  9  7  1  0
 10  9  1  0
 10 11  1  6
 12 11  1  0
 12 13  2  0
 14 13  1  0
 15 20  2  0
 15 14  1  0
 16 15  1  0
 17 16  2  0
 18 17  1  0
 18 19  2  0
 19 20  1  0
 20 12  1  0
 21 28  1  0
 21 10  1  0
 22 21  2  0
 23 24  1  0
 24 26  1  0
 25 24  2  0
 27 26  1  1
 27 28  1  0
 27 29  1  0
 29 31  2  0
 29 30  1  0
M  END
$$$$
