NWN.pdb
     RDKit          3D

 31 32  0  0  1  0  0  0  0  0999 V2000
   29.2437  -21.0714  -17.6446 N   0  0  0  0  0  0  0  0  0  0  0  0
   29.1016  -22.3582  -17.0585 C   0  0  0  0  0  0  0  0  0  0  0  0
   29.5534  -23.3309  -17.7424 O   0  0  0  0  0  0  0  0  0  0  0  0
   28.4735  -22.5913  -15.7380 C   0  0  0  0  0  0  0  0  0  0  0  0
   27.8272  -21.3006  -15.2741 C   0  0  2  0  0  0  0  0  0  0  0  0
   28.8680  -20.2869  -15.1369 N   0  0  0  0  0  0  0  0  0  0  0  0
   27.1226  -21.4839  -13.9793 C   0  0  0  0  0  0  0  0  0  0  0  0
   26.0680  -22.1693  -13.9953 O   0  0  0  0  0  0  0  0  0  0  0  0
   27.5939  -20.9242  -12.7647 N   0  0  0  0  0  0  0  0  0  0  0  0
   26.8309  -20.9889  -11.5220 C   0  0  1  0  0  0  0  0  0  0  0  0
   27.6742  -20.6349  -10.3437 C   0  0  0  0  0  0  0  0  0  0  0  0
   26.9653  -20.4845   -9.0652 C   0  0  0  0  0  0  0  0  0  0  0  0
   25.5783  -20.6056   -8.9245 C   0  0  0  0  0  0  0  0  0  0  0  0
   25.2257  -20.4455   -7.6501 N   0  0  0  0  0  0  0  0  0  0  0  0
   26.3480  -20.2175   -6.9225 C   0  0  0  0  0  0  0  0  0  0  0  0
   26.5066  -19.9883   -5.5720 C   0  0  0  0  0  0  0  0  0  0  0  0
   27.7524  -19.7715   -5.0400 C   0  0  0  0  0  0  0  0  0  0  0  0
   28.8233  -19.7927   -5.9046 C   0  0  0  0  0  0  0  0  0  0  0  0
   28.6819  -20.0204   -7.2562 C   0  0  0  0  0  0  0  0  0  0  0  0
   27.4372  -20.2406   -7.8040 C   0  0  0  0  0  0  0  0  0  0  0  0
   25.5246  -20.3346  -11.5887 C   0  0  0  0  0  0  0  0  0  0  0  0
   25.4486  -19.0935  -11.7705 O   0  0  0  0  0  0  0  0  0  0  0  0
   23.3663  -18.6182  -13.8283 N   0  0  0  0  0  0  0  0  0  0  0  0
   22.8157  -19.8550  -14.2300 C   0  0  0  0  0  0  0  0  0  0  0  0
   22.5469  -20.0465  -15.4290 O   0  0  0  0  0  0  0  0  0  0  0  0
   22.5654  -20.9026  -13.2302 C   0  0  0  0  0  0  0  0  0  0  0  0
   23.0308  -20.4713  -11.8812 C   0  0  2  0  0  0  0  0  0  0  0  0
   24.2863  -21.0329  -11.4571 N   0  0  0  0  0  0  0  0  0  0  0  0
   21.9883  -20.8586  -10.8785 C   0  0  0  0  0  0  0  0  0  0  0  0
   21.2649  -19.9097  -10.1564 O   0  0  0  0  0  0  0  0  0  0  0  0
   21.7157  -22.0667  -10.6399 O   0  0  0  0  0  0  0  0  0  0  0  0
  2  1  1  0
  2  3  2  0
  4  2  1  0
  5  4  1  0
  5  6  1  1
  7  5  1  0
  7  8  2  0
  9  7  1  0
 10  9  1  0
 10 11  1  1
 12 11  1  0
 12 13  2  0
 14 13  1  0
 15 20  2  0
 15 14  1  0
 16 15  1  0
 17 16  2  0
 18 17  1  0
 18 19  2  0
 19 20  1  0
 20 12  1  0
 21 28  1  0
 21 10  1  0
 22 21  2  0
 23 24  1  0
 24 26  1  0
 25 24  2  0
 27 26  1  6
 27 28  1  0
 27 29  1  0
 29 31  2  0
 29 30  1  0
M  END
$$$$
