NWN.pdb
     RDKit          3D

 31 32  0  0  1  0  0  0  0  0999 V2000
   23.8875  -22.4425   -9.1865 N   0  0  0  0  0  0  0  0  0  0  0  0
   23.3692  -21.1331   -9.3777 C   0  0  0  0  0  0  0  0  0  0  0  0
   22.6551  -20.6766   -8.4292 O   0  0  0  0  0  0  0  0  0  0  0  0
   23.6227  -20.3214  -10.5898 C   0  0  0  0  0  0  0  0  0  0  0  0
   24.4215  -21.1546  -11.5728 C   0  0  2  0  0  0  0  0  0  0  0  0
   25.6751  -21.5444  -10.9353 N   0  0  0  0  0  0  0  0  0  0  0  0
   24.6998  -20.3988  -12.8210 C   0  0  0  0  0  0  0  0  0  0  0  0
   23.7281  -19.8093  -13.3599 O   0  0  0  0  0  0  0  0  0  0  0  0
   25.9916  -20.3270  -13.4013 N   0  0  0  0  0  0  0  0  0  0  0  0
   26.2464  -19.6502  -14.6692 C   0  0  1  0  0  0  0  0  0  0  0  0
   27.5240  -18.8815  -14.6314 C   0  0  0  0  0  0  0  0  0  0  0  0
   27.4851  -17.5364  -15.2223 C   0  0  0  0  0  0  0  0  0  0  0  0
   26.8373  -16.4451  -14.6327 C   0  0  0  0  0  0  0  0  0  0  0  0
   26.9925  -15.3542  -15.3810 N   0  0  0  0  0  0  0  0  0  0  0  0
   27.7335  -15.6848  -16.4685 C   0  0  0  0  0  0  0  0  0  0  0  0
   28.1568  -14.9131  -17.5299 C   0  0  0  0  0  0  0  0  0  0  0  0
   28.9037  -15.4622  -18.5412 C   0  0  0  0  0  0  0  0  0  0  0  0
   29.2074  -16.8018  -18.4493 C   0  0  0  0  0  0  0  0  0  0  0  0
   28.7923  -17.5865  -17.3955 C   0  0  0  0  0  0  0  0  0  0  0  0
   28.0427  -17.0483  -16.3727 C   0  0  0  0  0  0  0  0  0  0  0  0
   26.0465  -20.4939  -15.8470 C   0  0  0  0  0  0  0  0  0  0  0  0
   26.1502  -21.7427  -15.7542 O   0  0  0  0  0  0  0  0  0  0  0  0
   21.6009  -21.8139  -17.8411 N   0  0  0  0  0  0  0  0  0  0  0  0
   22.0648  -20.4834  -17.7473 C   0  0  0  0  0  0  0  0  0  0  0  0
   21.4467  -19.5756  -18.3307 O   0  0  0  0  0  0  0  0  0  0  0  0
   23.2710  -20.1836  -16.9632 C   0  0  0  0  0  0  0  0  0  0  0  0
   24.4929  -20.2760  -17.8123 C   0  0  2  0  0  0  0  0  0  0  0  0
   25.7305  -19.9786  -17.1405 N   0  0  0  0  0  0  0  0  0  0  0  0
   24.3448  -19.3192  -18.9545 C   0  0  0  0  0  0  0  0  0  0  0  0
   24.4945  -17.9419  -18.7926 O   0  0  0  0  0  0  0  0  0  0  0  0
   24.0765  -19.7170  -20.1209 O   0  0  0  0  0  0  0  0  0  0  0  0
  2  1  1  0
  2  3  2  0
  4  2  1  0
  5  4  1  0
  5  6  1  1
  7  5  1  0
  7  8  2  0
  9  7  1  0
 10  9  1  0
 10 11  1  1
 12 11  1  0
 12 13  2  0
 14 13  1  0
 15 20  2  0
 15 14  1  0
 16 15  1  0
 17 16  2  0
 18 17  1  0
 18 19  2  0
 19 20  1  0
 20 12  1  0
 21 28  1  0
 21 10  1  0
 22 21  2  0
 23 24  1  0
 24 26  1  0
 25 24  2  0
 27 26  1  1
 27 28  1  0
 27 29  1  0
 29 31  2  0
 29 30  1  0
M  END
$$$$
