NWN.pdb
     RDKit          3D

 31 32  0  0  1  0  0  0  0  0999 V2000
   31.6164  -30.1268    9.7285 N   0  0  0  0  0  0  0  0  0  0  0  0
   32.6256  -29.6621   10.6147 C   0  0  0  0  0  0  0  0  0  0  0  0
   32.5006  -30.0158   11.8301 O   0  0  0  0  0  0  0  0  0  0  0  0
   33.7651  -28.8186   10.1875 C   0  0  0  0  0  0  0  0  0  0  0  0
   33.6337  -28.5425    8.7024 C   0  0  2  0  0  0  0  0  0  0  0  0
   34.2649  -29.6371    7.9722 N   0  0  0  0  0  0  0  0  0  0  0  0
   34.2706  -27.2521    8.3341 C   0  0  0  0  0  0  0  0  0  0  0  0
   35.2853  -26.9078    8.9928 O   0  0  0  0  0  0  0  0  0  0  0  0
   33.7796  -26.4253    7.2919 N   0  0  0  0  0  0  0  0  0  0  0  0
   34.4185  -25.1665    6.9211 C   0  0  1  0  0  0  0  0  0  0  0  0
   33.9163  -24.6641    5.6095 C   0  0  0  0  0  0  0  0  0  0  0  0
   34.4880  -23.3927    5.1441 C   0  0  0  0  0  0  0  0  0  0  0  0
   35.8287  -23.2292    4.7780 C   0  0  0  0  0  0  0  0  0  0  0  0
   36.0500  -21.9792    4.3746 N   0  0  0  0  0  0  0  0  0  0  0  0
   34.8842  -21.2906    4.4605 C   0  0  0  0  0  0  0  0  0  0  0  0
   34.5996  -19.9742    4.1644 C   0  0  0  0  0  0  0  0  0  0  0  0
   33.3326  -19.4762    4.3343 C   0  0  0  0  0  0  0  0  0  0  0  0
   32.3706  -20.3393    4.8080 C   0  0  0  0  0  0  0  0  0  0  0  0
   32.6385  -21.6572    5.1084 C   0  0  0  0  0  0  0  0  0  0  0  0
   33.9057  -22.1710    4.9417 C   0  0  0  0  0  0  0  0  0  0  0  0
   34.4701  -24.1821    8.0016 C   0  0  0  0  0  0  0  0  0  0  0  0
   33.4272  -23.8874    8.6376 O   0  0  0  0  0  0  0  0  0  0  0  0
   35.8927  -20.6432   11.3850 N   0  0  0  0  0  0  0  0  0  0  0  0
   35.7806  -21.9820   11.8199 C   0  0  0  0  0  0  0  0  0  0  0  0
   35.7541  -22.2312   13.0380 O   0  0  0  0  0  0  0  0  0  0  0  0
   35.6965  -23.0667   10.8319 C   0  0  0  0  0  0  0  0  0  0  0  0
   35.6885  -22.5217    9.4443 C   0  0  2  0  0  0  0  0  0  0  0  0
   35.6654  -23.5093    8.3976 N   0  0  0  0  0  0  0  0  0  0  0  0
   36.9154  -21.6827    9.2620 C   0  0  0  0  0  0  0  0  0  0  0  0
   37.1900  -20.5836   10.0755 O   0  0  0  0  0  0  0  0  0  0  0  0
   37.7605  -21.9330    8.3598 O   0  0  0  0  0  0  0  0  0  0  0  0
  2  1  1  0
  2  3  2  0
  4  2  1  0
  5  4  1  0
  5  6  1  6
  7  5  1  0
  7  8  2  0
  9  7  1  0
 10  9  1  0
 10 11  1  6
 12 11  1  0
 12 13  2  0
 14 13  1  0
 15 20  2  0
 15 14  1  0
 16 15  1  0
 17 16  2  0
 18 17  1  0
 18 19  2  0
 19 20  1  0
 20 12  1  0
 21 28  1  0
 21 10  1  0
 22 21  2  0
 23 24  1  0
 24 26  1  0
 25 24  2  0
 27 26  1  1
 27 28  1  0
 27 29  1  0
 29 31  2  0
 29 30  1  0
M  END
$$$$
