NWN.pdb
     RDKit          3D

 31 32  0  0  1  0  0  0  0  0999 V2000
   28.3603  -26.9942  -16.7722 N   0  0  0  0  0  0  0  0  0  0  0  0
   27.3000  -26.0594  -16.9188 C   0  0  0  0  0  0  0  0  0  0  0  0
   26.9573  -25.7943  -18.1147 O   0  0  0  0  0  0  0  0  0  0  0  0
   26.6136  -25.4144  -15.7763 C   0  0  0  0  0  0  0  0  0  0  0  0
   26.0961  -24.0611  -16.2232 C   0  0  2  0  0  0  0  0  0  0  0  0
   27.2388  -23.2188  -16.5614 N   0  0  0  0  0  0  0  0  0  0  0  0
   25.2852  -23.4144  -15.1597 C   0  0  0  0  0  0  0  0  0  0  0  0
   24.5950  -24.1705  -14.4289 O   0  0  0  0  0  0  0  0  0  0  0  0
   25.2706  -22.0115  -14.9539 N   0  0  0  0  0  0  0  0  0  0  0  0
   24.5383  -21.3864  -13.8568 C   0  0  1  0  0  0  0  0  0  0  0  0
   25.2548  -20.1869  -13.3348 C   0  0  0  0  0  0  0  0  0  0  0  0
   26.3141  -20.4463  -12.3497 C   0  0  0  0  0  0  0  0  0  0  0  0
   27.6712  -20.5508  -12.6746 C   0  0  0  0  0  0  0  0  0  0  0  0
   28.3957  -20.7621  -11.5771 N   0  0  0  0  0  0  0  0  0  0  0  0
   27.5554  -20.8035  -10.5127 C   0  0  0  0  0  0  0  0  0  0  0  0
   27.8183  -21.0002   -9.1734 C   0  0  0  0  0  0  0  0  0  0  0  0
   26.8000  -21.0111   -8.2540 C   0  0  0  0  0  0  0  0  0  0  0  0
   25.5202  -20.8194   -8.7234 C   0  0  0  0  0  0  0  0  0  0  0  0
   25.2408  -20.6214  -10.0581 C   0  0  0  0  0  0  0  0  0  0  0  0
   26.2533  -20.6070  -10.9921 C   0  0  0  0  0  0  0  0  0  0  0  0
   23.1097  -21.2110  -14.1161 C   0  0  0  0  0  0  0  0  0  0  0  0
   22.7204  -20.7378  -15.2131 O   0  0  0  0  0  0  0  0  0  0  0  0
   18.0744  -21.1574  -14.1233 N   0  0  0  0  0  0  0  0  0  0  0  0
   18.3808  -22.0812  -13.1002 C   0  0  0  0  0  0  0  0  0  0  0  0
   17.4664  -22.7406  -12.5750 O   0  0  0  0  0  0  0  0  0  0  0  0
   19.7739  -22.2551  -12.6658 C   0  0  0  0  0  0  0  0  0  0  0  0
   20.6893  -21.3836  -13.4562 C   0  0  2  0  0  0  0  0  0  0  0  0
   22.0909  -21.5524  -13.1759 N   0  0  0  0  0  0  0  0  0  0  0  0
   20.3314  -19.9556  -13.1823 C   0  0  0  0  0  0  0  0  0  0  0  0
   21.2719  -19.0278  -12.7352 O   0  0  0  0  0  0  0  0  0  0  0  0
   19.1572  -19.5246  -13.3443 O   0  0  0  0  0  0  0  0  0  0  0  0
  2  1  1  0
  2  3  2  0
  4  2  1  0
  5  4  1  0
  5  6  1  1
  7  5  1  0
  7  8  2  0
  9  7  1  0
 10  9  1  0
 10 11  1  6
 12 11  1  0
 12 13  2  0
 14 13  1  0
 15 20  2  0
 15 14  1  0
 16 15  1  0
 17 16  2  0
 18 17  1  0
 18 19  2  0
 19 20  1  0
 20 12  1  0
 21 28  1  0
 21 10  1  0
 22 21  2  0
 23 24  1  0
 24 26  1  0
 25 24  2  0
 27 26  1  1
 27 28  1  0
 27 29  1  0
 29 31  2  0
 29 30  1  0
M  END
$$$$
