ILF.pdb
     RDKit          3D

 28 28  0  0  1  0  0  0  0  0999 V2000
   11.4953  -21.8621   21.0031 C   0  0  0  0  0  0  0  0  0  0  0  0
   10.6254  -20.7867   20.4367 C   0  0  0  0  0  0  0  0  0  0  0  0
   10.7814  -19.4662   21.1450 C   0  0  2  0  0  0  0  0  0  0  0  0
   10.5202  -19.7521   22.6141 C   0  0  0  0  0  0  0  0  0  0  0  0
    9.8394  -18.4762   20.5751 C   0  0  2  0  0  0  0  0  0  0  0  0
    9.9306  -18.4457   19.1380 N   0  0  0  0  0  0  0  0  0  0  0  0
    9.9830  -17.1126   21.1422 C   0  0  0  0  0  0  0  0  0  0  0  0
   11.0522  -16.4622   21.0926 O   0  0  0  0  0  0  0  0  0  0  0  0
    6.1317  -13.6461   20.1773 C   0  0  0  0  0  0  0  0  0  0  0  0
    7.5656  -14.2440   20.3117 C   0  0  1  0  0  0  0  0  0  0  0  0
    8.4536  -13.2091   19.6909 C   0  0  0  0  0  0  0  0  0  0  0  0
    7.7465  -14.4842   21.7575 C   0  0  0  0  0  0  0  0  0  0  0  0
    8.9979  -15.1085   22.2708 C   0  0  2  0  0  0  0  0  0  0  0  0
    8.8689  -16.5249   21.7629 N   0  0  0  0  0  0  0  0  0  0  0  0
    9.0994  -15.2104   23.7223 C   0  0  0  0  0  0  0  0  0  0  0  0
    9.1847  -14.1105   24.3764 O   0  0  0  0  0  0  0  0  0  0  0  0
    9.1042  -16.3858   24.5121 N   0  0  0  0  0  0  0  0  0  0  0  0
    9.1046  -16.2708   25.9378 C   0  0  1  0  0  0  0  0  0  0  0  0
    7.6629  -15.9215   26.3329 C   0  0  0  0  0  0  0  0  0  0  0  0
    7.4964  -14.4572   26.3656 C   0  0  0  0  0  0  0  0  0  0  0  0
    8.3868  -13.6118   26.9941 C   0  0  0  0  0  0  0  0  0  0  0  0
    8.1589  -12.2522   26.9791 C   0  0  0  0  0  0  0  0  0  0  0  0
    7.0582  -11.7203   26.3480 C   0  0  0  0  0  0  0  0  0  0  0  0
    6.1767  -12.5692   25.7246 C   0  0  0  0  0  0  0  0  0  0  0  0
    6.3866  -13.9290   25.7285 C   0  0  0  0  0  0  0  0  0  0  0  0
    9.5235  -17.4861   26.6416 C   0  0  0  0  0  0  0  0  0  0  0  0
    9.9313  -18.6506   26.0282 O   0  0  0  0  0  0  0  0  0  0  0  0
    9.5256  -17.5119   27.9138 O   0  0  0  0  0  0  0  0  0  0  0  0
  2  1  1  0
  3  2  1  0
  3  4  1  1
  5  6  1  6
  5  3  1  0
  7  5  1  0
  8  7  2  0
 10  9  1  1
 10 12  1  0
 11 10  1  0
 13 12  1  1
 13 14  1  0
 14  7  1  0
 15 13  1  0
 15 17  1  0
 16 15  2  0
 18 26  1  0
 18 19  1  1
 18 17  1  0
 20 19  1  0
 20 25  2  0
 21 20  1  0
 22 21  2  0
 22 23  1  0
 23 24  2  0
 24 25  1  0
 26 27  1  0
 28 26  2  0
M  END
$$$$
