ILF.pdb
     RDKit          3D

 28 28  0  0  1  0  0  0  0  0999 V2000
    2.2163  -18.5267   20.7533 C   0  0  0  0  0  0  0  0  0  0  0  0
    3.4045  -18.7958   21.6191 C   0  0  0  0  0  0  0  0  0  0  0  0
    4.6041  -17.9615   21.2523 C   0  0  2  0  0  0  0  0  0  0  0  0
    4.9036  -18.2856   19.7984 C   0  0  0  0  0  0  0  0  0  0  0  0
    5.7324  -18.2791   22.1569 C   0  0  2  0  0  0  0  0  0  0  0  0
    5.3442  -18.1328   23.5361 N   0  0  0  0  0  0  0  0  0  0  0  0
    6.9680  -17.5086   21.8717 C   0  0  0  0  0  0  0  0  0  0  0  0
    7.8261  -17.8794   21.0380 O   0  0  0  0  0  0  0  0  0  0  0  0
    7.1417  -12.5435   20.5437 C   0  0  0  0  0  0  0  0  0  0  0  0
    7.5590  -14.0454   20.5877 C   0  0  1  0  0  0  0  0  0  0  0  0
    8.5350  -14.1875   19.4599 C   0  0  0  0  0  0  0  0  0  0  0  0
    8.0916  -14.2552   21.9490 C   0  0  0  0  0  0  0  0  0  0  0  0
    8.5136  -15.6120   22.3963 C   0  0  2  0  0  0  0  0  0  0  0  0
    7.1849  -16.3089   22.5687 N   0  0  0  0  0  0  0  0  0  0  0  0
    9.1682  -15.6688   23.6984 C   0  0  0  0  0  0  0  0  0  0  0  0
   10.3762  -15.2420   23.7594 O   0  0  0  0  0  0  0  0  0  0  0  0
    8.6276  -16.1311   24.9230 N   0  0  0  0  0  0  0  0  0  0  0  0
    9.4550  -16.1527   26.0894 C   0  0  1  0  0  0  0  0  0  0  0  0
    8.5557  -15.7108   27.2524 C   0  0  0  0  0  0  0  0  0  0  0  0
    7.9551  -14.3996   26.9471 C   0  0  0  0  0  0  0  0  0  0  0  0
    6.7003  -14.2568   26.3926 C   0  0  0  0  0  0  0  0  0  0  0  0
    6.2102  -12.9938   26.1373 C   0  0  0  0  0  0  0  0  0  0  0  0
    6.9496  -11.8699   26.4253 C   0  0  0  0  0  0  0  0  0  0  0  0
    8.1981  -12.0212   26.9773 C   0  0  0  0  0  0  0  0  0  0  0  0
    8.7049  -13.2732   27.2396 C   0  0  0  0  0  0  0  0  0  0  0  0
   10.0376  -17.4628   26.3924 C   0  0  0  0  0  0  0  0  0  0  0  0
   10.9094  -17.7164   27.4289 O   0  0  0  0  0  0  0  0  0  0  0  0
    9.7444  -18.4684   25.6700 O   0  0  0  0  0  0  0  0  0  0  0  0
  2  1  1  0
  3  2  1  0
  3  4  1  6
  5  6  1  1
  5  3  1  0
  7  5  1  0
  8  7  2  0
 10  9  1  1
 10 12  1  0
 11 10  1  0
 13 12  1  1
 13 14  1  0
 14  7  1  0
 15 13  1  0
 15 17  1  0
 16 15  2  0
 18 26  1  0
 18 19  1  1
 18 17  1  0
 20 19  1  0
 20 25  2  0
 21 20  1  0
 22 21  2  0
 22 23  1  0
 23 24  2  0
 24 25  1  0
 26 27  1  0
 28 26  2  0
M  END
$$$$
