ILF.pdb
     RDKit          3D

 28 28  0  0  1  0  0  0  0  0999 V2000
   10.2783  -22.4822   18.9156 C   0  0  0  0  0  0  0  0  0  0  0  0
    9.3394  -21.3234   19.0137 C   0  0  0  0  0  0  0  0  0  0  0  0
   10.0079  -20.0599   19.4895 C   0  0  2  0  0  0  0  0  0  0  0  0
   10.5908  -20.3895   20.8533 C   0  0  0  0  0  0  0  0  0  0  0  0
    9.0213  -18.9568   19.5368 C   0  0  2  0  0  0  0  0  0  0  0  0
    8.3795  -18.7842   18.2590 N   0  0  0  0  0  0  0  0  0  0  0  0
    9.5783  -17.6714   20.0257 C   0  0  0  0  0  0  0  0  0  0  0  0
   10.7823  -17.3539   19.8900 O   0  0  0  0  0  0  0  0  0  0  0  0
    6.6954  -13.1180   19.6982 C   0  0  0  0  0  0  0  0  0  0  0  0
    7.9224  -14.0718   19.5707 C   0  0  1  0  0  0  0  0  0  0  0  0
    8.9716  -13.2325   18.9078 C   0  0  0  0  0  0  0  0  0  0  0  0
    8.2086  -14.5141   20.9503 C   0  0  0  0  0  0  0  0  0  0  0  0
    9.3001  -15.4910   21.2214 C   0  0  2  0  0  0  0  0  0  0  0  0
    8.7157  -16.7699   20.6702 N   0  0  0  0  0  0  0  0  0  0  0  0
    9.5755  -15.7503   22.6300 C   0  0  0  0  0  0  0  0  0  0  0  0
   10.6960  -15.3276   23.0893 O   0  0  0  0  0  0  0  0  0  0  0  0
    8.7460  -16.4085   23.5704 N   0  0  0  0  0  0  0  0  0  0  0  0
    8.3877  -15.7345   24.7799 C   0  0  1  0  0  0  0  0  0  0  0  0
    7.7665  -14.3983   24.3497 C   0  0  0  0  0  0  0  0  0  0  0  0
    7.4537  -13.5881   25.5408 C   0  0  0  0  0  0  0  0  0  0  0  0
    6.1703  -13.2164   25.8831 C   0  0  0  0  0  0  0  0  0  0  0  0
    5.9618  -12.4571   27.0147 C   0  0  0  0  0  0  0  0  0  0  0  0
    7.0112  -12.0616   27.8116 C   0  0  0  0  0  0  0  0  0  0  0  0
    8.2859  -12.4360   27.4636 C   0  0  0  0  0  0  0  0  0  0  0  0
    8.5145  -13.1938   26.3380 C   0  0  0  0  0  0  0  0  0  0  0  0
    7.4371  -16.4673   25.6208 C   0  0  0  0  0  0  0  0  0  0  0  0
    7.5915  -16.6929   26.9713 O   0  0  0  0  0  0  0  0  0  0  0  0
    6.3774  -16.9486   25.1066 O   0  0  0  0  0  0  0  0  0  0  0  0
  2  1  1  0
  3  2  1  0
  3  4  1  1
  5  6  1  6
  5  3  1  0
  7  5  1  0
  8  7  2  0
 10  9  1  1
 10 12  1  0
 11 10  1  0
 13 12  1  1
 13 14  1  0
 14  7  1  0
 15 13  1  0
 15 17  1  0
 16 15  2  0
 18 26  1  0
 18 19  1  6
 18 17  1  0
 20 19  1  0
 20 25  2  0
 21 20  1  0
 22 21  2  0
 22 23  1  0
 23 24  2  0
 24 25  1  0
 26 27  1  0
 28 26  2  0
M  END
$$$$
