ILF.pdb
     RDKit          3D

 28 28  0  0  1  0  0  0  0  0999 V2000
    9.6682  -22.1107   21.1708 C   0  0  0  0  0  0  0  0  0  0  0  0
    9.0999  -20.9070   20.4910 C   0  0  0  0  0  0  0  0  0  0  0  0
    9.5664  -19.6098   21.0987 C   0  0  2  0  0  0  0  0  0  0  0  0
    9.2297  -19.7017   22.5773 C   0  0  0  0  0  0  0  0  0  0  0  0
    8.8995  -18.4717   20.4262 C   0  0  2  0  0  0  0  0  0  0  0  0
    9.0439  -18.5614   18.9961 N   0  0  0  0  0  0  0  0  0  0  0  0
    9.3362  -17.1417   20.9185 C   0  0  0  0  0  0  0  0  0  0  0  0
   10.4949  -16.6979   20.7480 O   0  0  0  0  0  0  0  0  0  0  0  0
    6.3920  -12.9270   19.9457 C   0  0  0  0  0  0  0  0  0  0  0  0
    7.5751  -13.9329   20.0878 C   0  0  1  0  0  0  0  0  0  0  0  0
    8.7033  -13.2778   19.3509 C   0  0  0  0  0  0  0  0  0  0  0  0
    7.7547  -14.1099   21.5429 C   0  0  0  0  0  0  0  0  0  0  0  0
    8.8454  -14.9760   22.0716 C   0  0  2  0  0  0  0  0  0  0  0  0
    8.4074  -16.3446   21.6070 N   0  0  0  0  0  0  0  0  0  0  0  0
    8.9355  -15.0555   23.5251 C   0  0  0  0  0  0  0  0  0  0  0  0
    8.7250  -13.9726   24.1794 O   0  0  0  0  0  0  0  0  0  0  0  0
    9.2187  -16.1951   24.3167 N   0  0  0  0  0  0  0  0  0  0  0  0
    9.0720  -16.1144   25.7372 C   0  0  1  0  0  0  0  0  0  0  0  0
    7.5713  -15.9200   25.9955 C   0  0  0  0  0  0  0  0  0  0  0  0
    7.2750  -14.4846   26.1532 C   0  0  0  0  0  0  0  0  0  0  0  0
    6.1724  -13.8768   25.5900 C   0  0  0  0  0  0  0  0  0  0  0  0
    5.9666  -12.5276   25.7850 C   0  0  0  0  0  0  0  0  0  0  0  0
    6.8414  -11.7733   26.5323 C   0  0  0  0  0  0  0  0  0  0  0  0
    7.9368  -12.3863   27.0895 C   0  0  0  0  0  0  0  0  0  0  0  0
    8.1596  -13.7318   26.9064 C   0  0  0  0  0  0  0  0  0  0  0  0
    9.5433  -17.2982   26.4612 C   0  0  0  0  0  0  0  0  0  0  0  0
   10.0775  -18.4222   25.8699 O   0  0  0  0  0  0  0  0  0  0  0  0
    9.4720  -17.3334   27.7312 O   0  0  0  0  0  0  0  0  0  0  0  0
  2  1  1  0
  3  2  1  0
  3  4  1  1
  5  6  1  6
  5  3  1  0
  7  5  1  0
  8  7  2  0
 10  9  1  1
 10 12  1  0
 11 10  1  0
 13 12  1  1
 13 14  1  0
 14  7  1  0
 15 13  1  0
 15 17  1  0
 16 15  2  0
 18 26  1  0
 18 19  1  6
 18 17  1  0
 20 19  1  0
 20 25  2  0
 21 20  1  0
 22 21  2  0
 22 23  1  0
 23 24  2  0
 24 25  1  0
 26 27  1  0
 28 26  2  0
M  END
$$$$
