ILF.pdb
     RDKit          3D

 28 28  0  0  1  0  0  0  0  0999 V2000
   12.6912  -21.3061   20.6464 C   0  0  0  0  0  0  0  0  0  0  0  0
   11.7629  -20.2482   20.1435 C   0  0  0  0  0  0  0  0  0  0  0  0
   11.5691  -19.1186   21.1213 C   0  0  2  0  0  0  0  0  0  0  0  0
   11.0922  -19.7657   22.4106 C   0  0  0  0  0  0  0  0  0  0  0  0
   10.5996  -18.1420   20.5748 C   0  0  2  0  0  0  0  0  0  0  0  0
   10.8397  -17.9057   19.1745 N   0  0  0  0  0  0  0  0  0  0  0  0
   10.5463  -16.8626   21.3244 C   0  0  0  0  0  0  0  0  0  0  0  0
   11.5036  -16.0560   21.3663 O   0  0  0  0  0  0  0  0  0  0  0  0
    6.1650  -13.8537   21.0641 C   0  0  0  0  0  0  0  0  0  0  0  0
    7.6796  -14.2245   21.0541 C   0  0  1  0  0  0  0  0  0  0  0  0
    8.3656  -12.9517   20.6614 C   0  0  0  0  0  0  0  0  0  0  0  0
    7.9592  -14.7302   22.4131 C   0  0  0  0  0  0  0  0  0  0  0  0
    9.3153  -15.2329   22.7700 C   0  0  2  0  0  0  0  0  0  0  0  0
    9.3685  -16.5419   22.0187 N   0  0  0  0  0  0  0  0  0  0  0  0
    9.5107  -15.5690   24.1758 C   0  0  0  0  0  0  0  0  0  0  0  0
    9.3914  -14.6132   25.0227 O   0  0  0  0  0  0  0  0  0  0  0  0
    9.8081  -16.8367   24.7325 N   0  0  0  0  0  0  0  0  0  0  0  0
   10.6919  -16.9185   25.8541 C   0  0  1  0  0  0  0  0  0  0  0  0
    9.8297  -16.6331   27.0918 C   0  0  0  0  0  0  0  0  0  0  0  0
    9.4600  -15.2065   27.1230 C   0  0  0  0  0  0  0  0  0  0  0  0
    8.5917  -14.6335   26.2174 C   0  0  0  0  0  0  0  0  0  0  0  0
    8.2971  -13.2902   26.3151 C   0  0  0  0  0  0  0  0  0  0  0  0
    8.8534  -12.5077   27.3004 C   0  0  0  0  0  0  0  0  0  0  0  0
    9.7171  -13.0862   28.1980 C   0  0  0  0  0  0  0  0  0  0  0  0
   10.0236  -14.4252   28.1172 C   0  0  0  0  0  0  0  0  0  0  0  0
   11.3537  -18.2169   26.0082 C   0  0  0  0  0  0  0  0  0  0  0  0
   12.2706  -18.5219   26.9904 O   0  0  0  0  0  0  0  0  0  0  0  0
   11.0921  -19.1610   25.1962 O   0  0  0  0  0  0  0  0  0  0  0  0
  2  1  1  0
  3  2  1  0
  3  4  1  1
  5  6  1  6
  5  3  1  0
  7  5  1  0
  8  7  2  0
 10  9  1  1
 10 12  1  0
 11 10  1  0
 13 12  1  1
 13 14  1  0
 14  7  1  0
 15 13  1  0
 15 17  1  0
 16 15  2  0
 18 26  1  0
 18 19  1  1
 18 17  1  0
 20 19  1  0
 20 25  2  0
 21 20  1  0
 22 21  2  0
 22 23  1  0
 23 24  2  0
 24 25  1  0
 26 27  1  0
 28 26  2  0
M  END
$$$$
