ILF.pdb
     RDKit          3D

 28 28  0  0  1  0  0  0  0  0999 V2000
   10.0920  -20.6945   21.5004 C   0  0  0  0  0  0  0  0  0  0  0  0
    9.6834  -19.3255   21.0614 C   0  0  0  0  0  0  0  0  0  0  0  0
    8.2398  -19.0153   21.3606 C   0  0  2  0  0  0  0  0  0  0  0  0
    7.4373  -20.1467   20.7406 C   0  0  0  0  0  0  0  0  0  0  0  0
    7.8861  -17.6883   20.8071 C   0  0  2  0  0  0  0  0  0  0  0  0
    8.0768  -17.6575   19.3799 N   0  0  0  0  0  0  0  0  0  0  0  0
    8.5912  -16.5569   21.4585 C   0  0  0  0  0  0  0  0  0  0  0  0
    9.5720  -15.9751   20.9403 O   0  0  0  0  0  0  0  0  0  0  0  0
    6.0648  -13.7294   25.6975 C   0  0  0  0  0  0  0  0  0  0  0  0
    6.7219  -13.8539   24.2888 C   0  0  1  0  0  0  0  0  0  0  0  0
    6.9127  -12.4351   23.8469 C   0  0  0  0  0  0  0  0  0  0  0  0
    7.9492  -14.6456   24.5073 C   0  0  0  0  0  0  0  0  0  0  0  0
    8.8572  -14.9645   23.3702 C   0  0  2  0  0  0  0  0  0  0  0  0
    8.1381  -16.1187   22.7133 N   0  0  0  0  0  0  0  0  0  0  0  0
   10.1739  -15.4708   23.7407 C   0  0  0  0  0  0  0  0  0  0  0  0
   11.1893  -14.8169   23.3089 O   0  0  0  0  0  0  0  0  0  0  0  0
   10.4769  -16.6018   24.5373 N   0  0  0  0  0  0  0  0  0  0  0  0
   10.9122  -16.4111   25.8863 C   0  0  1  0  0  0  0  0  0  0  0  0
    9.7944  -15.6219   26.5823 C   0  0  0  0  0  0  0  0  0  0  0  0
   10.1807  -15.3350   27.9757 C   0  0  0  0  0  0  0  0  0  0  0  0
   10.4681  -14.0653   28.4314 C   0  0  0  0  0  0  0  0  0  0  0  0
   10.8220  -13.8810   29.7511 C   0  0  0  0  0  0  0  0  0  0  0  0
   10.8943  -14.9412   30.6249 C   0  0  0  0  0  0  0  0  0  0  0  0
   10.6066  -16.2021   30.1629 C   0  0  0  0  0  0  0  0  0  0  0  0
   10.2515  -16.4066   28.8494 C   0  0  0  0  0  0  0  0  0  0  0  0
   11.1636  -17.6539   26.6212 C   0  0  0  0  0  0  0  0  0  0  0  0
   10.4491  -18.8213   26.4621 O   0  0  0  0  0  0  0  0  0  0  0  0
   12.1013  -17.7029   27.4800 O   0  0  0  0  0  0  0  0  0  0  0  0
  2  1  1  0
  3  2  1  0
  3  4  1  6
  5  6  1  6
  5  3  1  0
  7  5  1  0
  8  7  2  0
 10  9  1  1
 10 12  1  0
 11 10  1  0
 13 12  1  1
 13 14  1  0
 14  7  1  0
 15 13  1  0
 15 17  1  0
 16 15  2  0
 18 26  1  0
 18 19  1  1
 18 17  1  0
 20 19  1  0
 20 25  2  0
 21 20  1  0
 22 21  2  0
 22 23  1  0
 23 24  2  0
 24 25  1  0
 26 27  1  0
 28 26  2  0
M  END
$$$$
