ILF.pdb
     RDKit          3D

 28 28  0  0  1  0  0  0  0  0999 V2000
    8.5310  -19.1516   17.8397 C   0  0  0  0  0  0  0  0  0  0  0  0
    7.7794  -18.0284   18.4780 C   0  0  0  0  0  0  0  0  0  0  0  0
    8.5088  -17.4179   19.6463 C   0  0  2  0  0  0  0  0  0  0  0  0
    8.8128  -18.5688   20.5905 C   0  0  0  0  0  0  0  0  0  0  0  0
    7.6701  -16.3687   20.2693 C   0  0  2  0  0  0  0  0  0  0  0  0
    7.2501  -15.3970   19.2927 N   0  0  0  0  0  0  0  0  0  0  0  0
    8.3036  -15.7052   21.4356 C   0  0  0  0  0  0  0  0  0  0  0  0
    9.3076  -14.9631   21.3360 O   0  0  0  0  0  0  0  0  0  0  0  0
    5.6946  -13.2242   25.7845 C   0  0  0  0  0  0  0  0  0  0  0  0
    6.6591  -13.3792   24.5690 C   0  0  1  0  0  0  0  0  0  0  0  0
    7.6801  -12.3015   24.7717 C   0  0  0  0  0  0  0  0  0  0  0  0
    7.1479  -14.7708   24.6429 C   0  0  0  0  0  0  0  0  0  0  0  0
    8.3591  -15.1894   23.8834 C   0  0  2  0  0  0  0  0  0  0  0  0
    7.7518  -15.9194   22.7090 N   0  0  0  0  0  0  0  0  0  0  0  0
    9.2190  -16.1567   24.5559 C   0  0  0  0  0  0  0  0  0  0  0  0
    8.9844  -17.3972   24.3296 O   0  0  0  0  0  0  0  0  0  0  0  0
   10.3023  -15.8956   25.4299 N   0  0  0  0  0  0  0  0  0  0  0  0
   11.1123  -16.9832   25.8846 C   0  0  1  0  0  0  0  0  0  0  0  0
   12.3104  -16.3454   26.6017 C   0  0  0  0  0  0  0  0  0  0  0  0
   11.8356  -15.5201   27.7270 C   0  0  0  0  0  0  0  0  0  0  0  0
   11.3600  -14.2349   27.5704 C   0  0  0  0  0  0  0  0  0  0  0  0
   10.9341  -13.5288   28.6752 C   0  0  0  0  0  0  0  0  0  0  0  0
   10.9740  -14.0819   29.9342 C   0  0  0  0  0  0  0  0  0  0  0  0
   11.4489  -15.3621   30.0813 C   0  0  0  0  0  0  0  0  0  0  0  0
   11.8787  -16.0832   28.9910 C   0  0  0  0  0  0  0  0  0  0  0  0
   10.4297  -17.9042   26.7976 C   0  0  0  0  0  0  0  0  0  0  0  0
   10.9664  -19.0787   27.2783 O   0  0  0  0  0  0  0  0  0  0  0  0
    9.2526  -17.6388   27.2013 O   0  0  0  0  0  0  0  0  0  0  0  0
  2  1  1  0
  3  2  1  0
  3  4  1  1
  5  6  1  6
  5  3  1  0
  7  5  1  0
  8  7  2  0
 10  9  1  1
 10 12  1  0
 11 10  1  0
 13 12  1  1
 13 14  1  0
 14  7  1  0
 15 13  1  0
 15 17  1  0
 16 15  2  0
 18 26  1  0
 18 19  1  1
 18 17  1  0
 20 19  1  0
 20 25  2  0
 21 20  1  0
 22 21  2  0
 22 23  1  0
 23 24  2  0
 24 25  1  0
 26 27  1  0
 28 26  2  0
M  END
$$$$
