ILF.pdb
     RDKit          3D

 28 28  0  0  1  0  0  0  0  0999 V2000
    5.6270  -21.4394   25.1367 C   0  0  0  0  0  0  0  0  0  0  0  0
    5.9793  -21.5811   23.6911 C   0  0  0  0  0  0  0  0  0  0  0  0
    6.8752  -20.4783   23.1904 C   0  0  2  0  0  0  0  0  0  0  0  0
    8.1608  -20.5946   23.9916 C   0  0  0  0  0  0  0  0  0  0  0  0
    6.2055  -19.1692   23.3640 C   0  0  2  0  0  0  0  0  0  0  0  0
    4.9452  -19.1385   22.6675 N   0  0  0  0  0  0  0  0  0  0  0  0
    7.0468  -18.0074   22.9845 C   0  0  0  0  0  0  0  0  0  0  0  0
    7.4822  -17.8306   21.8235 O   0  0  0  0  0  0  0  0  0  0  0  0
    6.8412  -13.3962   26.0579 C   0  0  0  0  0  0  0  0  0  0  0  0
    6.8971  -14.0699   24.6526 C   0  0  1  0  0  0  0  0  0  0  0  0
    6.9780  -12.9184   23.6974 C   0  0  0  0  0  0  0  0  0  0  0  0
    8.0699  -14.9658   24.7037 C   0  0  0  0  0  0  0  0  0  0  0  0
    8.3212  -15.9475   23.6118 C   0  0  2  0  0  0  0  0  0  0  0  0
    7.3694  -17.0631   23.9726 N   0  0  0  0  0  0  0  0  0  0  0  0
    9.6520  -16.5443   23.5977 C   0  0  0  0  0  0  0  0  0  0  0  0
    9.8015  -17.6119   22.9028 O   0  0  0  0  0  0  0  0  0  0  0  0
   10.8185  -16.0813   24.2539 N   0  0  0  0  0  0  0  0  0  0  0  0
   11.0749  -16.4938   25.5992 C   0  0  1  0  0  0  0  0  0  0  0  0
    9.8090  -16.1464   26.3951 C   0  0  0  0  0  0  0  0  0  0  0  0
   10.1654  -15.3163   27.5600 C   0  0  0  0  0  0  0  0  0  0  0  0
    9.9728  -13.9511   27.5993 C   0  0  0  0  0  0  0  0  0  0  0  0
   10.3333  -13.2463   28.7279 C   0  0  0  0  0  0  0  0  0  0  0  0
   10.8828  -13.8791   29.8189 C   0  0  0  0  0  0  0  0  0  0  0  0
   11.0711  -15.2387   29.7715 C   0  0  0  0  0  0  0  0  0  0  0  0
   10.7178  -15.9599   28.6542 C   0  0  0  0  0  0  0  0  0  0  0  0
   11.3690  -17.9218   25.7474 C   0  0  0  0  0  0  0  0  0  0  0  0
   12.4289  -18.4377   26.4609 O   0  0  0  0  0  0  0  0  0  0  0  0
   10.6159  -18.7842   25.1922 O   0  0  0  0  0  0  0  0  0  0  0  0
  2  1  1  0
  3  2  1  0
  3  4  1  1
  5  6  1  6
  5  3  1  0
  7  5  1  0
  8  7  2  0
 10  9  1  1
 10 12  1  0
 11 10  1  0
 13 12  1  1
 13 14  1  0
 14  7  1  0
 15 13  1  0
 15 17  1  0
 16 15  2  0
 18 26  1  0
 18 19  1  1
 18 17  1  0
 20 19  1  0
 20 25  2  0
 21 20  1  0
 22 21  2  0
 22 23  1  0
 23 24  2  0
 24 25  1  0
 26 27  1  0
 28 26  2  0
M  END
$$$$
