ILF.pdb
     RDKit          3D

 28 28  0  0  1  0  0  0  0  0999 V2000
    3.2671  -17.6333   20.6864 C   0  0  0  0  0  0  0  0  0  0  0  0
    4.3795  -17.5265   21.6789 C   0  0  0  0  0  0  0  0  0  0  0  0
    5.0593  -18.8436   21.9487 C   0  0  2  0  0  0  0  0  0  0  0  0
    3.9837  -19.7553   22.5145 C   0  0  0  0  0  0  0  0  0  0  0  0
    6.1920  -18.6426   22.8808 C   0  0  2  0  0  0  0  0  0  0  0  0
    5.7444  -18.0533   24.1164 N   0  0  0  0  0  0  0  0  0  0  0  0
    7.3169  -17.8664   22.3029 C   0  0  0  0  0  0  0  0  0  0  0  0
    8.1165  -18.3445   21.4657 O   0  0  0  0  0  0  0  0  0  0  0  0
    6.9610  -12.4222   21.3644 C   0  0  0  0  0  0  0  0  0  0  0  0
    7.3496  -13.8866   20.9954 C   0  0  1  0  0  0  0  0  0  0  0  0
    8.0744  -13.7555   19.6907 C   0  0  0  0  0  0  0  0  0  0  0  0
    8.1426  -14.3730   22.1424 C   0  0  0  0  0  0  0  0  0  0  0  0
    8.6696  -15.7662   22.1623 C   0  0  2  0  0  0  0  0  0  0  0  0
    7.4927  -16.5352   22.7138 N   0  0  0  0  0  0  0  0  0  0  0  0
    9.7738  -16.0069   23.0843 C   0  0  0  0  0  0  0  0  0  0  0  0
   10.9222  -15.5459   22.7470 O   0  0  0  0  0  0  0  0  0  0  0  0
    9.7354  -16.6845   24.3273 N   0  0  0  0  0  0  0  0  0  0  0  0
   10.9361  -16.8071   25.0948 C   0  0  1  0  0  0  0  0  0  0  0  0
   11.3386  -15.3763   25.4791 C   0  0  0  0  0  0  0  0  0  0  0  0
   10.3443  -14.8123   26.4098 C   0  0  0  0  0  0  0  0  0  0  0  0
    9.1757  -14.2116   25.9902 C   0  0  0  0  0  0  0  0  0  0  0  0
    8.2967  -13.7084   26.9255 C   0  0  0  0  0  0  0  0  0  0  0  0
    8.5626  -13.7936   28.2726 C   0  0  0  0  0  0  0  0  0  0  0  0
    9.7284  -14.3932   28.6818 C   0  0  0  0  0  0  0  0  0  0  0  0
   10.6184  -14.9016   27.7638 C   0  0  0  0  0  0  0  0  0  0  0  0
   10.7976  -17.6183   26.3074 C   0  0  0  0  0  0  0  0  0  0  0  0
    9.6605  -18.3079   26.6680 O   0  0  0  0  0  0  0  0  0  0  0  0
   11.7750  -17.7206   27.1156 O   0  0  0  0  0  0  0  0  0  0  0  0
  2  1  1  0
  3  2  1  0
  3  4  1  1
  5  6  1  1
  5  3  1  0
  7  5  1  0
  8  7  2  0
 10  9  1  1
 10 12  1  0
 11 10  1  0
 13 12  1  1
 13 14  1  0
 14  7  1  0
 15 13  1  0
 15 17  1  0
 16 15  2  0
 18 26  1  0
 18 19  1  1
 18 17  1  0
 20 19  1  0
 20 25  2  0
 21 20  1  0
 22 21  2  0
 22 23  1  0
 23 24  2  0
 24 25  1  0
 26 27  1  0
 28 26  2  0
M  END
$$$$
