ILF.pdb
     RDKit          3D

 28 28  0  0  1  0  0  0  0  0999 V2000
   -2.1665  -30.4580   25.7121 C   0  0  0  0  0  0  0  0  0  0  0  0
   -1.7340  -29.0446   25.4899 C   0  0  0  0  0  0  0  0  0  0  0  0
   -2.4274  -28.0645   26.3999 C   0  0  2  0  0  0  0  0  0  0  0  0
   -3.9039  -28.1515   26.0524 C   0  0  0  0  0  0  0  0  0  0  0  0
   -1.8676  -26.7087   26.1977 C   0  0  2  0  0  0  0  0  0  0  0  0
   -0.4396  -26.7075   26.3848 N   0  0  0  0  0  0  0  0  0  0  0  0
   -2.5100  -25.6618   27.0301 C   0  0  0  0  0  0  0  0  0  0  0  0
   -2.2229  -25.4769   28.2352 O   0  0  0  0  0  0  0  0  0  0  0  0
   -4.2961  -20.8774   28.1060 C   0  0  0  0  0  0  0  0  0  0  0  0
   -4.9764  -21.4287   26.8156 C   0  0  1  0  0  0  0  0  0  0  0  0
   -4.9342  -20.2766   25.8585 C   0  0  0  0  0  0  0  0  0  0  0  0
   -4.1866  -22.6204   26.4456 C   0  0  0  0  0  0  0  0  0  0  0  0
   -4.1940  -23.8326   27.3114 C   0  0  2  0  0  0  0  0  0  0  0  0
   -3.4843  -24.8410   26.4395 N   0  0  0  0  0  0  0  0  0  0  0  0
   -5.5095  -24.3979   27.5894 C   0  0  0  0  0  0  0  0  0  0  0  0
   -6.1896  -24.8071   26.5820 O   0  0  0  0  0  0  0  0  0  0  0  0
   -6.1344  -24.5650   28.8492 N   0  0  0  0  0  0  0  0  0  0  0  0
   -7.4422  -25.1408   28.9107 C   0  0  1  0  0  0  0  0  0  0  0  0
   -7.3095  -26.5521   28.3213 C   0  0  0  0  0  0  0  0  0  0  0  0
   -6.6601  -27.4418   29.3009 C   0  0  0  0  0  0  0  0  0  0  0  0
   -7.2951  -27.9055   30.4341 C   0  0  0  0  0  0  0  0  0  0  0  0
   -6.6171  -28.7353   31.3014 C   0  0  0  0  0  0  0  0  0  0  0  0
   -5.3161  -29.1112   31.0586 C   0  0  0  0  0  0  0  0  0  0  0  0
   -4.6912  -28.6449   29.9279 C   0  0  0  0  0  0  0  0  0  0  0  0
   -5.3510  -27.8159   29.0500 C   0  0  0  0  0  0  0  0  0  0  0  0
   -8.0016  -25.2262   30.2625 C   0  0  0  0  0  0  0  0  0  0  0  0
   -7.3575  -24.8144   31.4089 O   0  0  0  0  0  0  0  0  0  0  0  0
   -9.1653  -25.7107   30.4366 O   0  0  0  0  0  0  0  0  0  0  0  0
  2  1  1  0
  3  2  1  0
  3  4  1  6
  5  6  1  1
  5  3  1  0
  7  5  1  0
  8  7  2  0
 10  9  1  1
 10 12  1  0
 11 10  1  0
 13 12  1  6
 13 14  1  0
 14  7  1  0
 15 13  1  0
 15 17  1  0
 16 15  2  0
 18 26  1  0
 18 19  1  1
 18 17  1  0
 20 19  1  0
 20 25  2  0
 21 20  1  0
 22 21  2  0
 22 23  1  0
 23 24  2  0
 24 25  1  0
 26 27  1  0
 28 26  2  0
M  END
$$$$
