ILF.pdb
     RDKit          3D

 28 28  0  0  1  0  0  0  0  0999 V2000
    6.3248  -21.8407   22.0545 C   0  0  0  0  0  0  0  0  0  0  0  0
    6.3430  -20.6028   21.2172 C   0  0  0  0  0  0  0  0  0  0  0  0
    7.3457  -19.5832   21.6915 C   0  0  2  0  0  0  0  0  0  0  0  0
    6.9380  -19.2331   23.1126 C   0  0  0  0  0  0  0  0  0  0  0  0
    7.3381  -18.4121   20.7856 C   0  0  2  0  0  0  0  0  0  0  0  0
    7.4813  -18.8217   19.4123 N   0  0  0  0  0  0  0  0  0  0  0  0
    8.3400  -17.3747   21.1342 C   0  0  0  0  0  0  0  0  0  0  0  0
    9.5713  -17.5319   20.9670 O   0  0  0  0  0  0  0  0  0  0  0  0
    6.8730  -14.4796   19.9074 C   0  0  0  0  0  0  0  0  0  0  0  0
    7.9979  -13.5060   20.3748 C   0  0  1  0  0  0  0  0  0  0  0  0
    7.4294  -12.1425   20.1247 C   0  0  0  0  0  0  0  0  0  0  0  0
    8.2529  -13.8639   21.7847 C   0  0  0  0  0  0  0  0  0  0  0  0
    8.9147  -15.1528   22.1311 C   0  0  2  0  0  0  0  0  0  0  0  0
    7.8866  -16.1614   21.6766 N   0  0  0  0  0  0  0  0  0  0  0  0
    9.1116  -15.3948   23.5559 C   0  0  0  0  0  0  0  0  0  0  0  0
   10.1932  -14.9433   24.0768 O   0  0  0  0  0  0  0  0  0  0  0  0
    8.2425  -16.0642   24.4514 N   0  0  0  0  0  0  0  0  0  0  0  0
    8.6521  -16.2622   25.8074 C   0  0  1  0  0  0  0  0  0  0  0  0
    7.4892  -15.7625   26.6762 C   0  0  0  0  0  0  0  0  0  0  0  0
    7.4144  -14.2918   26.6102 C   0  0  0  0  0  0  0  0  0  0  0  0
    8.4341  -13.4660   27.0351 C   0  0  0  0  0  0  0  0  0  0  0  0
    8.2857  -12.0987   26.9394 C   0  0  0  0  0  0  0  0  0  0  0  0
    7.1376  -11.5400   26.4270 C   0  0  0  0  0  0  0  0  0  0  0  0
    6.1272  -12.3695   26.0061 C   0  0  0  0  0  0  0  0  0  0  0  0
    6.2563  -13.7367   26.0934 C   0  0  0  0  0  0  0  0  0  0  0  0
    8.9548  -17.6546   26.1497 C   0  0  0  0  0  0  0  0  0  0  0  0
    8.9073  -18.7110   25.2663 O   0  0  0  0  0  0  0  0  0  0  0  0
    9.2902  -17.9554   27.3397 O   0  0  0  0  0  0  0  0  0  0  0  0
  2  1  1  0
  3  2  1  0
  3  4  1  1
  5  6  1  6
  5  3  1  0
  7  5  1  0
  8  7  2  0
 10  9  1  1
 10 12  1  0
 11 10  1  0
 13 12  1  1
 13 14  1  0
 14  7  1  0
 15 13  1  0
 15 17  1  0
 16 15  2  0
 18 26  1  0
 18 19  1  1
 18 17  1  0
 20 19  1  0
 20 25  2  0
 21 20  1  0
 22 21  2  0
 22 23  1  0
 23 24  2  0
 24 25  1  0
 26 27  1  0
 28 26  2  0
M  END
$$$$
