ILF.pdb
     RDKit          3D

 28 28  0  0  1  0  0  0  0  0999 V2000
    8.6304  -22.8032   20.9417 C   0  0  0  0  0  0  0  0  0  0  0  0
    8.0430  -21.4736   20.5940 C   0  0  0  0  0  0  0  0  0  0  0  0
    9.0417  -20.3482   20.6701 C   0  0  2  0  0  0  0  0  0  0  0  0
    9.6275  -20.4100   22.0706 C   0  0  0  0  0  0  0  0  0  0  0  0
    8.3699  -19.0602   20.3837 C   0  0  2  0  0  0  0  0  0  0  0  0
    7.6331  -19.1267   19.1480 N   0  0  0  0  0  0  0  0  0  0  0  0
    9.2825  -17.8902   20.3918 C   0  0  0  0  0  0  0  0  0  0  0  0
   10.3367  -17.8426   19.7172 O   0  0  0  0  0  0  0  0  0  0  0  0
    7.1177  -12.9435   21.2778 C   0  0  0  0  0  0  0  0  0  0  0  0
    7.7238  -14.3037   21.7407 C   0  0  1  0  0  0  0  0  0  0  0  0
    6.6256  -15.2944   21.5013 C   0  0  0  0  0  0  0  0  0  0  0  0
    8.9489  -14.4717   20.9334 C   0  0  0  0  0  0  0  0  0  0  0  0
    9.8836  -15.6002   21.2013 C   0  0  2  0  0  0  0  0  0  0  0  0
    8.9486  -16.7861   21.1927 N   0  0  0  0  0  0  0  0  0  0  0  0
   10.5133  -15.5954   22.5169 C   0  0  0  0  0  0  0  0  0  0  0  0
   11.2202  -14.5683   22.8179 O   0  0  0  0  0  0  0  0  0  0  0  0
   10.4326  -16.5897   23.5221 N   0  0  0  0  0  0  0  0  0  0  0  0
   10.6996  -16.2337   24.8814 C   0  0  1  0  0  0  0  0  0  0  0  0
    9.5666  -15.2861   25.2994 C   0  0  0  0  0  0  0  0  0  0  0  0
    9.8151  -14.7835   26.6627 C   0  0  0  0  0  0  0  0  0  0  0  0
    9.8475  -15.6016   27.7727 C   0  0  0  0  0  0  0  0  0  0  0  0
   10.0866  -15.0526   29.0145 C   0  0  0  0  0  0  0  0  0  0  0  0
   10.2941  -13.7014   29.1691 C   0  0  0  0  0  0  0  0  0  0  0  0
   10.2602  -12.8940   28.0587 C   0  0  0  0  0  0  0  0  0  0  0  0
   10.0231  -13.4229   26.8107 C   0  0  0  0  0  0  0  0  0  0  0  0
   10.7514  -17.3708   25.8045 C   0  0  0  0  0  0  0  0  0  0  0  0
   11.6862  -17.5321   26.8038 O   0  0  0  0  0  0  0  0  0  0  0  0
    9.8886  -18.3014   25.7115 O   0  0  0  0  0  0  0  0  0  0  0  0
  2  1  1  0
  3  2  1  0
  3  4  1  1
  5  6  1  6
  5  3  1  0
  7  5  1  0
  8  7  2  0
 10  9  1  6
 10 12  1  0
 11 10  1  0
 13 12  1  1
 13 14  1  0
 14  7  1  0
 15 13  1  0
 15 17  1  0
 16 15  2  0
 18 26  1  0
 18 19  1  1
 18 17  1  0
 20 19  1  0
 20 25  2  0
 21 20  1  0
 22 21  2  0
 22 23  1  0
 23 24  2  0
 24 25  1  0
 26 27  1  0
 28 26  2  0
M  END
$$$$
