ILF.pdb
     RDKit          3D

 28 28  0  0  1  0  0  0  0  0999 V2000
    5.3408  -21.5725   24.6067 C   0  0  0  0  0  0  0  0  0  0  0  0
    5.4313  -20.7949   23.3335 C   0  0  0  0  0  0  0  0  0  0  0  0
    6.5258  -19.7598   23.3498 C   0  0  2  0  0  0  0  0  0  0  0  0
    6.2033  -18.8360   24.5120 C   0  0  0  0  0  0  0  0  0  0  0  0
    6.5693  -19.0542   22.0488 C   0  0  2  0  0  0  0  0  0  0  0  0
    6.6582  -19.9900   20.9576 N   0  0  0  0  0  0  0  0  0  0  0  0
    7.6391  -18.0303   21.9546 C   0  0  0  0  0  0  0  0  0  0  0  0
    8.8288  -18.3098   21.6802 O   0  0  0  0  0  0  0  0  0  0  0  0
    8.6908  -13.6318   19.6637 C   0  0  0  0  0  0  0  0  0  0  0  0
    8.2606  -13.2381   21.1100 C   0  0  1  0  0  0  0  0  0  0  0  0
    7.4040  -12.0237   20.9195 C   0  0  0  0  0  0  0  0  0  0  0  0
    7.5901  -14.4380   21.6501 C   0  0  0  0  0  0  0  0  0  0  0  0
    8.3814  -15.6419   22.0287 C   0  0  2  0  0  0  0  0  0  0  0  0
    7.3018  -16.6865   22.1838 N   0  0  0  0  0  0  0  0  0  0  0  0
    9.0574  -15.5690   23.3191 C   0  0  0  0  0  0  0  0  0  0  0  0
   10.2422  -15.0776   23.3263 O   0  0  0  0  0  0  0  0  0  0  0  0
    8.5599  -15.9668   24.5839 N   0  0  0  0  0  0  0  0  0  0  0  0
    9.3391  -15.7082   25.7551 C   0  0  1  0  0  0  0  0  0  0  0  0
    8.3308  -15.4632   26.8865 C   0  0  0  0  0  0  0  0  0  0  0  0
    7.5456  -14.2490   26.5995 C   0  0  0  0  0  0  0  0  0  0  0  0
    6.2195  -14.2815   26.2218 C   0  0  0  0  0  0  0  0  0  0  0  0
    5.5553  -13.0997   25.9711 C   0  0  0  0  0  0  0  0  0  0  0  0
    6.1906  -11.8853   26.0904 C   0  0  0  0  0  0  0  0  0  0  0  0
    7.5112  -11.8619   26.4669 C   0  0  0  0  0  0  0  0  0  0  0  0
    8.1914  -13.0306   26.7215 C   0  0  0  0  0  0  0  0  0  0  0  0
   10.2421  -16.7989   26.1328 C   0  0  0  0  0  0  0  0  0  0  0  0
   10.4142  -17.9629   25.4158 O   0  0  0  0  0  0  0  0  0  0  0  0
   10.9374  -16.7062   27.1944 O   0  0  0  0  0  0  0  0  0  0  0  0
  2  1  1  0
  3  2  1  0
  3  4  1  1
  5  6  1  6
  5  3  1  0
  7  5  1  0
  8  7  2  0
 10  9  1  6
 10 12  1  0
 11 10  1  0
 13 12  1  1
 13 14  1  0
 14  7  1  0
 15 13  1  0
 15 17  1  0
 16 15  2  0
 18 26  1  0
 18 19  1  1
 18 17  1  0
 20 19  1  0
 20 25  2  0
 21 20  1  0
 22 21  2  0
 22 23  1  0
 23 24  2  0
 24 25  1  0
 26 27  1  0
 28 26  2  0
M  END
$$$$
