ILF.pdb
     RDKit          3D

 28 28  0  0  1  0  0  0  0  0999 V2000
    7.5963  -20.1733   26.0259 C   0  0  0  0  0  0  0  0  0  0  0  0
    7.6186  -19.8756   24.5614 C   0  0  0  0  0  0  0  0  0  0  0  0
    6.3912  -19.1409   24.0890 C   0  0  2  0  0  0  0  0  0  0  0  0
    5.2116  -20.0184   24.4722 C   0  0  0  0  0  0  0  0  0  0  0  0
    6.4798  -18.9007   22.6306 C   0  0  2  0  0  0  0  0  0  0  0  0
    6.5147  -20.1440   21.9046 N   0  0  0  0  0  0  0  0  0  0  0  0
    7.6094  -18.0249   22.2322 C   0  0  0  0  0  0  0  0  0  0  0  0
    8.6549  -18.4607   21.6977 O   0  0  0  0  0  0  0  0  0  0  0  0
    7.0845  -12.4963   20.6386 C   0  0  0  0  0  0  0  0  0  0  0  0
    7.4810  -13.9929   20.4524 C   0  0  1  0  0  0  0  0  0  0  0  0
    8.5470  -13.9611   19.4001 C   0  0  0  0  0  0  0  0  0  0  0  0
    7.8949  -14.4493   21.7946 C   0  0  0  0  0  0  0  0  0  0  0  0
    8.6077  -15.7459   21.9671 C   0  0  2  0  0  0  0  0  0  0  0  0
    7.5009  -16.6444   22.4655 N   0  0  0  0  0  0  0  0  0  0  0  0
    9.6360  -15.7646   23.0013 C   0  0  0  0  0  0  0  0  0  0  0  0
   10.7394  -15.1682   22.7331 O   0  0  0  0  0  0  0  0  0  0  0  0
    9.5651  -16.3561   24.2861 N   0  0  0  0  0  0  0  0  0  0  0  0
   10.6912  -16.2621   25.1628 C   0  0  1  0  0  0  0  0  0  0  0  0
   10.8352  -14.7727   25.5057 C   0  0  0  0  0  0  0  0  0  0  0  0
    9.7073  -14.3455   26.3533 C   0  0  0  0  0  0  0  0  0  0  0  0
    9.8371  -14.0748   27.6995 C   0  0  0  0  0  0  0  0  0  0  0  0
    8.7319  -13.6799   28.4227 C   0  0  0  0  0  0  0  0  0  0  0  0
    7.4986  -13.5500   27.8268 C   0  0  0  0  0  0  0  0  0  0  0  0
    7.3782  -13.8215   26.4859 C   0  0  0  0  0  0  0  0  0  0  0  0
    8.4695  -14.2169   25.7469 C   0  0  0  0  0  0  0  0  0  0  0  0
   10.5604  -17.0379   26.3993 C   0  0  0  0  0  0  0  0  0  0  0  0
    9.4660  -17.8045   26.7360 O   0  0  0  0  0  0  0  0  0  0  0  0
   11.5033  -17.0312   27.2535 O   0  0  0  0  0  0  0  0  0  0  0  0
  2  1  1  0
  3  2  1  0
  3  4  1  6
  5  6  1  6
  5  3  1  0
  7  5  1  0
  8  7  2  0
 10  9  1  1
 10 12  1  0
 11 10  1  0
 13 12  1  1
 13 14  1  0
 14  7  1  0
 15 13  1  0
 15 17  1  0
 16 15  2  0
 18 26  1  0
 18 19  1  1
 18 17  1  0
 20 19  1  0
 20 25  2  0
 21 20  1  0
 22 21  2  0
 22 23  1  0
 23 24  2  0
 24 25  1  0
 26 27  1  0
 28 26  2  0
M  END
$$$$
