ILF.pdb
     RDKit          3D

 28 28  0  0  1  0  0  0  0  0999 V2000
    6.7021  -20.1649   25.0331 C   0  0  0  0  0  0  0  0  0  0  0  0
    7.1795  -19.8325   23.6564 C   0  0  0  0  0  0  0  0  0  0  0  0
    6.2232  -18.9508   22.8962 C   0  0  2  0  0  0  0  0  0  0  0  0
    4.9490  -19.7631   22.7384 C   0  0  0  0  0  0  0  0  0  0  0  0
    6.8218  -18.5616   21.5991 C   0  0  2  0  0  0  0  0  0  0  0  0
    7.1603  -19.7235   20.8183 N   0  0  0  0  0  0  0  0  0  0  0  0
    7.9868  -17.6509   21.7227 C   0  0  0  0  0  0  0  0  0  0  0  0
    9.1725  -18.0432   21.6277 O   0  0  0  0  0  0  0  0  0  0  0  0
    7.2383  -12.4195   20.3462 C   0  0  0  0  0  0  0  0  0  0  0  0
    7.7547  -13.8906   20.3723 C   0  0  1  0  0  0  0  0  0  0  0  0
    8.6777  -13.9757   19.1951 C   0  0  0  0  0  0  0  0  0  0  0  0
    8.3704  -14.0569   21.7043 C   0  0  0  0  0  0  0  0  0  0  0  0
    8.9382  -15.3706   22.1175 C   0  0  2  0  0  0  0  0  0  0  0  0
    7.7486  -16.2870   21.9570 N   0  0  0  0  0  0  0  0  0  0  0  0
    9.3358  -15.4707   23.5172 C   0  0  0  0  0  0  0  0  0  0  0  0
   10.4859  -14.9963   23.8289 O   0  0  0  0  0  0  0  0  0  0  0  0
    8.5977  -16.0227   24.5924 N   0  0  0  0  0  0  0  0  0  0  0  0
    9.1174  -15.9245   25.9213 C   0  0  1  0  0  0  0  0  0  0  0  0
    7.9089  -15.6508   26.8275 C   0  0  0  0  0  0  0  0  0  0  0  0
    7.4428  -14.2662   26.6314 C   0  0  0  0  0  0  0  0  0  0  0  0
    6.1245  -13.9427   26.3869 C   0  0  0  0  0  0  0  0  0  0  0  0
    5.7697  -12.6217   26.2147 C   0  0  0  0  0  0  0  0  0  0  0  0
    6.7070  -11.6168   26.2819 C   0  0  0  0  0  0  0  0  0  0  0  0
    8.0175  -11.9476   26.5256 C   0  0  0  0  0  0  0  0  0  0  0  0
    8.3914  -13.2602   26.7004 C   0  0  0  0  0  0  0  0  0  0  0  0
    9.8156  -17.1258   26.3871 C   0  0  0  0  0  0  0  0  0  0  0  0
   10.0596  -18.2429   25.6181 O   0  0  0  0  0  0  0  0  0  0  0  0
   10.2447  -17.1848   27.5835 O   0  0  0  0  0  0  0  0  0  0  0  0
  2  1  1  0
  3  2  1  0
  3  4  1  6
  5  6  1  1
  5  3  1  0
  7  5  1  0
  8  7  2  0
 10  9  1  1
 10 12  1  0
 11 10  1  0
 13 12  1  1
 13 14  1  0
 14  7  1  0
 15 13  1  0
 15 17  1  0
 16 15  2  0
 18 26  1  0
 18 19  1  1
 18 17  1  0
 20 19  1  0
 20 25  2  0
 21 20  1  0
 22 21  2  0
 22 23  1  0
 23 24  2  0
 24 25  1  0
 26 27  1  0
 28 26  2  0
M  END
$$$$
