ILF.pdb
     RDKit          3D

 28 28  0  0  1  0  0  0  0  0999 V2000
    5.6807  -12.4309   27.3278 C   0  0  0  0  0  0  0  0  0  0  0  0
    5.3600  -13.5614   26.4043 C   0  0  0  0  0  0  0  0  0  0  0  0
    6.5765  -14.1295   25.7208 C   0  0  2  0  0  0  0  0  0  0  0  0
    7.1898  -12.9768   24.9440 C   0  0  0  0  0  0  0  0  0  0  0  0
    6.1819  -15.2626   24.8532 C   0  0  2  0  0  0  0  0  0  0  0  0
    5.5761  -16.3166   25.6255 N   0  0  0  0  0  0  0  0  0  0  0  0
    7.2854  -15.7908   24.0136 C   0  0  0  0  0  0  0  0  0  0  0  0
    7.6141  -16.9994   24.0002 O   0  0  0  0  0  0  0  0  0  0  0  0
    8.6651  -12.3276   20.0157 C   0  0  0  0  0  0  0  0  0  0  0  0
    8.0398  -13.4852   20.8528 C   0  0  1  0  0  0  0  0  0  0  0  0
    7.0694  -14.1337   19.9134 C   0  0  0  0  0  0  0  0  0  0  0  0
    9.1872  -14.3083   21.2850 C   0  0  0  0  0  0  0  0  0  0  0  0
    8.9882  -15.4585   22.2106 C   0  0  2  0  0  0  0  0  0  0  0  0
    7.9936  -14.8943   23.1970 N   0  0  0  0  0  0  0  0  0  0  0  0
   10.1564  -15.8434   22.9944 C   0  0  0  0  0  0  0  0  0  0  0  0
   11.2042  -16.1910   22.3414 O   0  0  0  0  0  0  0  0  0  0  0  0
   10.2855  -15.8713   24.4044 N   0  0  0  0  0  0  0  0  0  0  0  0
   11.4490  -16.4632   24.9889 C   0  0  1  0  0  0  0  0  0  0  0  0
   11.0761  -16.7771   26.4447 C   0  0  0  0  0  0  0  0  0  0  0  0
   10.7067  -15.5328   27.1434 C   0  0  0  0  0  0  0  0  0  0  0  0
    9.9510  -14.5373   26.5601 C   0  0  0  0  0  0  0  0  0  0  0  0
    9.6483  -13.4026   27.2823 C   0  0  0  0  0  0  0  0  0  0  0  0
   10.0860  -13.2430   28.5767 C   0  0  0  0  0  0  0  0  0  0  0  0
   10.8380  -14.2391   29.1500 C   0  0  0  0  0  0  0  0  0  0  0  0
   11.1506  -15.3791   28.4457 C   0  0  0  0  0  0  0  0  0  0  0  0
   11.9014  -17.6888   24.3251 C   0  0  0  0  0  0  0  0  0  0  0  0
   13.0471  -18.3827   24.6483 O   0  0  0  0  0  0  0  0  0  0  0  0
   11.2160  -18.1836   23.3739 O   0  0  0  0  0  0  0  0  0  0  0  0
  2  1  1  0
  3  2  1  0
  3  4  1  6
  5  6  1  1
  5  3  1  0
  7  5  1  0
  8  7  2  0
 10  9  1  6
 10 12  1  0
 11 10  1  0
 13 12  1  6
 13 14  1  0
 14  7  1  0
 15 13  1  0
 15 17  1  0
 16 15  2  0
 18 26  1  0
 18 19  1  1
 18 17  1  0
 20 19  1  0
 20 25  2  0
 21 20  1  0
 22 21  2  0
 22 23  1  0
 23 24  2  0
 24 25  1  0
 26 27  1  0
 28 26  2  0
M  END
$$$$
