ILF.pdb
     RDKit          3D

 28 28  0  0  1  0  0  0  0  0999 V2000
   12.5622  -21.3140   20.0087 C   0  0  0  0  0  0  0  0  0  0  0  0
   11.7711  -20.1915   19.4187 C   0  0  0  0  0  0  0  0  0  0  0  0
   11.6962  -18.9849   20.3176 C   0  0  2  0  0  0  0  0  0  0  0  0
   11.1223  -19.4846   21.6326 C   0  0  0  0  0  0  0  0  0  0  0  0
   10.8606  -17.9387   19.6856 C   0  0  2  0  0  0  0  0  0  0  0  0
   11.3485  -17.6142   18.3700 N   0  0  0  0  0  0  0  0  0  0  0  0
   10.7054  -16.7136   20.5081 C   0  0  0  0  0  0  0  0  0  0  0  0
   11.6783  -16.0746   20.9707 O   0  0  0  0  0  0  0  0  0  0  0  0
    6.2431  -13.5358   19.9069 C   0  0  0  0  0  0  0  0  0  0  0  0
    7.7561  -13.9048   19.9866 C   0  0  1  0  0  0  0  0  0  0  0  0
    8.4629  -12.6020   19.7678 C   0  0  0  0  0  0  0  0  0  0  0  0
    7.9281  -14.5320   21.3124 C   0  0  0  0  0  0  0  0  0  0  0  0
    9.2500  -15.0817   21.7245 C   0  0  2  0  0  0  0  0  0  0  0  0
    9.4082  -16.2497   20.7803 N   0  0  0  0  0  0  0  0  0  0  0  0
    9.3052  -15.6428   23.0696 C   0  0  0  0  0  0  0  0  0  0  0  0
   10.4702  -15.8452   23.5663 O   0  0  0  0  0  0  0  0  0  0  0  0
    8.2203  -15.9864   23.9126 N   0  0  0  0  0  0  0  0  0  0  0  0
    8.4791  -16.3613   25.2684 C   0  0  1  0  0  0  0  0  0  0  0  0
    9.0433  -15.1079   25.9519 C   0  0  0  0  0  0  0  0  0  0  0  0
    7.9446  -14.1797   26.2750 C   0  0  0  0  0  0  0  0  0  0  0  0
    6.7166  -14.2189   25.6482 C   0  0  0  0  0  0  0  0  0  0  0  0
    5.7406  -13.3144   26.0086 C   0  0  0  0  0  0  0  0  0  0  0  0
    5.9677  -12.3708   26.9838 C   0  0  0  0  0  0  0  0  0  0  0  0
    7.1932  -12.3387   27.6029 C   0  0  0  0  0  0  0  0  0  0  0  0
    8.1802  -13.2330   27.2572 C   0  0  0  0  0  0  0  0  0  0  0  0
    7.2993  -16.8288   26.0014 C   0  0  0  0  0  0  0  0  0  0  0  0
    6.0164  -16.8482   25.4990 O   0  0  0  0  0  0  0  0  0  0  0  0
    7.4231  -17.2564   27.1934 O   0  0  0  0  0  0  0  0  0  0  0  0
  2  1  1  0
  3  2  1  0
  3  4  1  1
  5  6  1  6
  5  3  1  0
  7  5  1  0
  8  7  2  0
 10  9  1  1
 10 12  1  0
 11 10  1  0
 13 12  1  6
 13 14  1  0
 14  7  1  0
 15 13  1  0
 15 17  1  0
 16 15  2  0
 18 26  1  0
 18 19  1  1
 18 17  1  0
 20 19  1  0
 20 25  2  0
 21 20  1  0
 22 21  2  0
 22 23  1  0
 23 24  2  0
 24 25  1  0
 26 27  1  0
 28 26  2  0
M  END
$$$$
