TML.pdb
     RDKit          3D

 24 23  0  0  1  0  0  0  0  0999 V2000
   26.4854  -22.7105  -16.1375 C   0  0  0  0  0  0  0  0  0  0  0  0
   27.4968  -21.6494  -16.4428 C   0  0  1  0  0  0  0  0  0  0  0  0
   28.6017  -22.1812  -17.0912 O   0  0  0  0  0  0  0  0  0  0  0  0
   26.8617  -20.5199  -17.2571 C   0  0  2  0  0  0  0  0  0  0  0  0
   27.8854  -19.5381  -17.5865 N   0  0  0  0  0  0  0  0  0  0  0  0
   25.8756  -19.8683  -16.3587 C   0  0  0  0  0  0  0  0  0  0  0  0
   26.2502  -18.9542  -15.5799 O   0  0  0  0  0  0  0  0  0  0  0  0
   20.0539  -19.3282  -18.4160 C   0  0  0  0  0  0  0  0  0  0  0  0
   19.7682  -18.3824  -16.8909 S   0  0  0  0  0  0  0  0  0  0  0  0
   21.1747  -18.5751  -15.7374 C   0  0  0  0  0  0  0  0  0  0  0  0
   22.3394  -19.2065  -16.3906 C   0  0  0  0  0  0  0  0  0  0  0  0
   23.5169  -19.5211  -15.5260 C   0  0  2  0  0  0  0  0  0  0  0  0
   24.5231  -20.2281  -16.3354 N   0  0  0  0  0  0  0  0  0  0  0  0
   23.2158  -20.4005  -14.3688 C   0  0  0  0  0  0  0  0  0  0  0  0
   22.9915  -21.6477  -14.5834 O   0  0  0  0  0  0  0  0  0  0  0  0
   25.6269  -19.9729   -9.5934 C   0  0  0  0  0  0  0  0  0  0  0  0
   25.0058  -20.4686  -10.8831 C   0  0  1  0  0  0  0  0  0  0  0  0
   25.5995  -21.8402  -11.2470 C   0  0  0  0  0  0  0  0  0  0  0  0
   23.5220  -20.5736  -10.6929 C   0  0  0  0  0  0  0  0  0  0  0  0
   22.8405  -20.9556  -11.9583 C   0  0  2  0  0  0  0  0  0  0  0  0
   23.1521  -19.9989  -13.0250 N   0  0  0  0  0  0  0  0  0  0  0  0
   21.3846  -21.0193  -11.7847 C   0  0  0  0  0  0  0  0  0  0  0  0
   20.5765  -20.1920  -12.2332 O   0  0  0  0  0  0  0  0  0  0  0  0
   20.8045  -22.0842  -11.0593 O   0  0  0  0  0  0  0  0  0  0  0  0
  2  1  1  6
  3  2  1  0
  4  2  1  0
  4  5  1  1
  6  4  1  0
  7  6  2  0
  8  9  1  0
  9 10  1  0
 11 10  1  0
 12 11  1  6
 12 13  1  0
 13  6  1  0
 14 12  1  0
 14 15  2  0
 17 16  1  1
 17 18  1  0
 20 19  1  1
 19 17  1  0
 20 21  1  0
 21 14  1  0
 22 20  1  0
 23 22  2  0
 24 22  1  0
M  END
$$$$
