TML.pdb
     RDKit          3D

 24 23  0  0  1  0  0  0  0  0999 V2000
   18.3841  -30.3305   -8.7323 C   0  0  0  0  0  0  0  0  0  0  0  0
   17.6752  -29.4897   -7.7160 C   0  0  1  0  0  0  0  0  0  0  0  0
   16.4724  -29.0097   -8.2130 O   0  0  0  0  0  0  0  0  0  0  0  0
   17.4697  -30.2744   -6.4183 C   0  0  2  0  0  0  0  0  0  0  0  0
   16.4151  -31.2581   -6.6199 N   0  0  0  0  0  0  0  0  0  0  0  0
   16.9916  -29.2913   -5.4136 C   0  0  0  0  0  0  0  0  0  0  0  0
   15.7571  -29.0990   -5.2675 O   0  0  0  0  0  0  0  0  0  0  0  0
   21.0817  -26.3685   -0.7782 C   0  0  0  0  0  0  0  0  0  0  0  0
   19.5003  -26.8722   -0.0382 S   0  0  0  0  0  0  0  0  0  0  0  0
   18.1529  -26.7881   -1.2725 C   0  0  0  0  0  0  0  0  0  0  0  0
   18.4509  -27.6019   -2.4686 C   0  0  0  0  0  0  0  0  0  0  0  0
   17.4025  -27.6580   -3.5320 C   0  0  2  0  0  0  0  0  0  0  0  0
   17.8644  -28.5537   -4.6052 N   0  0  0  0  0  0  0  0  0  0  0  0
   17.1036  -26.3534   -4.1737 C   0  0  0  0  0  0  0  0  0  0  0  0
   16.6056  -25.4117   -3.4548 O   0  0  0  0  0  0  0  0  0  0  0  0
   19.1094  -24.5891   -9.2568 C   0  0  0  0  0  0  0  0  0  0  0  0
   17.9669  -24.9421   -8.3267 C   0  0  1  0  0  0  0  0  0  0  0  0
   17.8623  -26.4713   -8.1964 C   0  0  0  0  0  0  0  0  0  0  0  0
   18.2268  -24.3186   -6.9878 C   0  0  0  0  0  0  0  0  0  0  0  0
   17.1551  -24.6604   -6.0151 C   0  0  2  0  0  0  0  0  0  0  0  0
   17.3184  -26.0322   -5.5235 N   0  0  0  0  0  0  0  0  0  0  0  0
   15.8230  -24.5241   -6.6158 C   0  0  0  0  0  0  0  0  0  0  0  0
   14.9772  -25.4287   -6.6866 O   0  0  0  0  0  0  0  0  0  0  0  0
   15.4203  -23.2888   -7.1712 O   0  0  0  0  0  0  0  0  0  0  0  0
  2  1  1  6
  3  2  1  0
  4  2  1  0
  4  5  1  6
  6  4  1  0
  7  6  2  0
  8  9  1  0
  9 10  1  0
 11 10  1  0
 12 11  1  1
 12 13  1  0
 13  6  1  0
 14 12  1  0
 14 15  2  0
 17 16  1  6
 17 18  1  0
 20 19  1  6
 19 17  1  0
 20 21  1  0
 21 14  1  0
 22 20  1  0
 23 22  2  0
 24 22  1  0
M  END
$$$$
