TML.pdb
     RDKit          3D

 24 23  0  0  1  0  0  0  0  0999 V2000
   26.7929  -18.0442  -14.8130 C   0  0  0  0  0  0  0  0  0  0  0  0
   27.4365  -19.1215  -15.6299 C   0  0  1  0  0  0  0  0  0  0  0  0
   28.2878  -18.5859  -16.5852 O   0  0  0  0  0  0  0  0  0  0  0  0
   28.1674  -20.1172  -14.7262 C   0  0  2  0  0  0  0  0  0  0  0  0
   28.7961  -21.1370  -15.5538 N   0  0  0  0  0  0  0  0  0  0  0  0
   27.1193  -20.7759  -13.9065 C   0  0  0  0  0  0  0  0  0  0  0  0
   26.5081  -21.7763  -14.3624 O   0  0  0  0  0  0  0  0  0  0  0  0
   27.0454  -20.0063   -7.6218 C   0  0  0  0  0  0  0  0  0  0  0  0
   25.3679  -20.7007   -7.7001 S   0  0  0  0  0  0  0  0  0  0  0  0
   24.9243  -21.1270   -9.4227 C   0  0  0  0  0  0  0  0  0  0  0  0
   25.9244  -20.6274  -10.3881 C   0  0  0  0  0  0  0  0  0  0  0  0
   25.6880  -20.9318  -11.8319 C   0  0  2  0  0  0  0  0  0  0  0  0
   26.7715  -20.3297  -12.6262 N   0  0  0  0  0  0  0  0  0  0  0  0
   24.4177  -20.3910  -12.3768 C   0  0  0  0  0  0  0  0  0  0  0  0
   24.4501  -19.2926  -13.0434 O   0  0  0  0  0  0  0  0  0  0  0  0
   23.4247  -21.1163  -16.7392 C   0  0  0  0  0  0  0  0  0  0  0  0
   23.0802  -20.3972  -15.4511 C   0  0  1  0  0  0  0  0  0  0  0  0
   22.1424  -19.2164  -15.7551 C   0  0  0  0  0  0  0  0  0  0  0  0
   22.4159  -21.3682  -14.5212 C   0  0  0  0  0  0  0  0  0  0  0  0
   22.0863  -20.7304  -13.2189 C   0  0  2  0  0  0  0  0  0  0  0  0
   23.1483  -20.9746  -12.2377 N   0  0  0  0  0  0  0  0  0  0  0  0
   20.8161  -21.2330  -12.6823 C   0  0  0  0  0  0  0  0  0  0  0  0
   20.6865  -22.2650  -12.0064 O   0  0  0  0  0  0  0  0  0  0  0  0
   19.6168  -20.5259  -12.9238 O   0  0  0  0  0  0  0  0  0  0  0  0
  2  1  1  1
  3  2  1  0
  4  2  1  0
  4  5  1  6
  6  4  1  0
  7  6  2  0
  8  9  1  0
  9 10  1  0
 11 10  1  0
 12 11  1  1
 12 13  1  0
 13  6  1  0
 14 12  1  0
 14 15  2  0
 17 16  1  6
 17 18  1  0
 20 19  1  6
 19 17  1  0
 20 21  1  0
 21 14  1  0
 22 20  1  0
 23 22  2  0
 24 22  1  0
M  END
$$$$
