TML.pdb
     RDKit          3D

 24 23  0  0  1  0  0  0  0  0999 V2000
   21.0211  -13.6803  -21.6867 C   0  0  0  0  0  0  0  0  0  0  0  0
   21.1334  -13.0749  -20.3218 C   0  0  1  0  0  0  0  0  0  0  0  0
   20.0014  -12.3386  -20.0048 O   0  0  0  0  0  0  0  0  0  0  0  0
   21.4068  -14.1571  -19.2747 C   0  0  2  0  0  0  0  0  0  0  0  0
   20.2306  -15.0068  -19.1516 N   0  0  0  0  0  0  0  0  0  0  0  0
   21.5934  -13.4452  -17.9853 C   0  0  0  0  0  0  0  0  0  0  0  0
   20.6475  -13.3958  -17.1576 O   0  0  0  0  0  0  0  0  0  0  0  0
   26.8494  -15.7886  -14.6863 C   0  0  0  0  0  0  0  0  0  0  0  0
   26.5067  -14.0764  -15.1894 S   0  0  0  0  0  0  0  0  0  0  0  0
   24.7203  -13.8402  -15.5042 C   0  0  0  0  0  0  0  0  0  0  0  0
   24.4082  -12.4477  -15.8854 C   0  0  0  0  0  0  0  0  0  0  0  0
   23.0126  -12.1622  -16.3371 C   0  0  2  0  0  0  0  0  0  0  0  0
   22.7938  -12.8141  -17.6388 N   0  0  0  0  0  0  0  0  0  0  0  0
   22.7094  -10.7225  -16.5325 C   0  0  0  0  0  0  0  0  0  0  0  0
   22.6958  -10.2514  -17.7282 O   0  0  0  0  0  0  0  0  0  0  0  0
   20.7723   -6.5007  -17.9980 C   0  0  0  0  0  0  0  0  0  0  0  0
   20.0959   -7.1347  -16.7999 C   0  0  1  0  0  0  0  0  0  0  0  0
   18.5802   -7.2190  -17.0487 C   0  0  0  0  0  0  0  0  0  0  0  0
   20.6699   -8.5045  -16.5926 C   0  0  0  0  0  0  0  0  0  0  0  0
   21.9446   -8.4465  -15.8289 C   0  0  2  0  0  0  0  0  0  0  0  0
   22.4244   -9.7965  -15.5163 N   0  0  0  0  0  0  0  0  0  0  0  0
   21.7863   -7.6949  -14.5784 C   0  0  0  0  0  0  0  0  0  0  0  0
   21.7629   -8.1958  -13.4438 O   0  0  0  0  0  0  0  0  0  0  0  0
   21.6458   -6.2892  -14.6107 O   0  0  0  0  0  0  0  0  0  0  0  0
  2  1  1  6
  3  2  1  0
  4  2  1  0
  4  5  1  1
  6  4  1  0
  7  6  2  0
  8  9  1  0
  9 10  1  0
 11 10  1  0
 12 11  1  6
 12 13  1  0
 13  6  1  0
 14 12  1  0
 14 15  2  0
 17 16  1  6
 17 18  1  0
 20 19  1  1
 19 17  1  0
 20 21  1  0
 21 14  1  0
 22 20  1  0
 23 22  2  0
 24 22  1  0
M  END
$$$$
