TML.pdb
     RDKit          3D

 24 23  0  0  1  0  0  0  0  0999 V2000
   17.4945  -13.1752  -15.9193 C   0  0  0  0  0  0  0  0  0  0  0  0
   17.8513  -13.7262  -17.2651 C   0  0  1  0  0  0  0  0  0  0  0  0
   17.5300  -15.0724  -17.3573 O   0  0  0  0  0  0  0  0  0  0  0  0
   17.1779  -12.9143  -18.3739 C   0  0  2  0  0  0  0  0  0  0  0  0
   17.5005  -13.5111  -19.6624 N   0  0  0  0  0  0  0  0  0  0  0  0
   17.7940  -11.5643  -18.3284 C   0  0  0  0  0  0  0  0  0  0  0  0
   18.9383  -11.3841  -18.8189 O   0  0  0  0  0  0  0  0  0  0  0  0
   14.0907   -6.4620  -18.5095 C   0  0  0  0  0  0  0  0  0  0  0  0
   15.4905   -5.6027  -17.7321 S   0  0  0  0  0  0  0  0  0  0  0  0
   16.9635   -6.6858  -17.6759 C   0  0  0  0  0  0  0  0  0  0  0  0
   16.6019   -8.1130  -17.7946 C   0  0  0  0  0  0  0  0  0  0  0  0
   17.7208   -9.1031  -17.7680 C   0  0  2  0  0  0  0  0  0  0  0  0
   17.1514  -10.4607  -17.7554 N   0  0  0  0  0  0  0  0  0  0  0  0
   18.6023   -9.0067  -16.5777 C   0  0  0  0  0  0  0  0  0  0  0  0
   18.2218   -9.5595  -15.4816 O   0  0  0  0  0  0  0  0  0  0  0  0
   21.8887   -9.9562  -13.1071 C   0  0  0  0  0  0  0  0  0  0  0  0
   22.6701   -9.5427  -14.3374 C   0  0  1  0  0  0  0  0  0  0  0  0
   23.8037  -10.5511  -14.5908 C   0  0  0  0  0  0  0  0  0  0  0  0
   21.7349   -9.5001  -15.5090 C   0  0  0  0  0  0  0  0  0  0  0  0
   20.7013   -8.4448  -15.3375 C   0  0  2  0  0  0  0  0  0  0  0  0
   19.8462   -8.3577  -16.5256 N   0  0  0  0  0  0  0  0  0  0  0  0
   21.3109   -7.1327  -15.0911 C   0  0  0  0  0  0  0  0  0  0  0  0
   22.0292   -6.8517  -14.1196 O   0  0  0  0  0  0  0  0  0  0  0  0
   21.0962   -6.0711  -15.9987 O   0  0  0  0  0  0  0  0  0  0  0  0
  2  1  1  1
  3  2  1  0
  4  2  1  0
  4  5  1  6
  6  4  1  0
  7  6  2  0
  8  9  1  0
  9 10  1  0
 11 10  1  0
 12 11  1  1
 12 13  1  0
 13  6  1  0
 14 12  1  0
 14 15  2  0
 17 16  1  1
 17 18  1  0
 20 19  1  6
 19 17  1  0
 20 21  1  0
 21 14  1  0
 22 20  1  0
 23 22  2  0
 24 22  1  0
M  END
$$$$
