TML.pdb
     RDKit          3D

 24 23  0  0  1  0  0  0  0  0999 V2000
   25.4409  -25.5148  -16.7837 C   0  0  0  0  0  0  0  0  0  0  0  0
   26.8325  -25.2472  -17.2674 C   0  0  1  0  0  0  0  0  0  0  0  0
   27.1869  -23.9211  -17.0672 O   0  0  0  0  0  0  0  0  0  0  0  0
   27.8267  -26.1981  -16.5969 C   0  0  2  0  0  0  0  0  0  0  0  0
   29.1685  -25.8976  -17.0761 N   0  0  0  0  0  0  0  0  0  0  0  0
   27.4700  -27.5622  -17.0620 C   0  0  0  0  0  0  0  0  0  0  0  0
   28.3460  -28.2863  -17.6010 O   0  0  0  0  0  0  0  0  0  0  0  0
   28.1042  -32.8310  -13.8839 C   0  0  0  0  0  0  0  0  0  0  0  0
   27.4282  -32.8399  -15.5707 S   0  0  0  0  0  0  0  0  0  0  0  0
   27.7152  -31.2302  -16.3908 C   0  0  0  0  0  0  0  0  0  0  0  0
   26.7840  -30.1915  -15.9051 C   0  0  0  0  0  0  0  0  0  0  0  0
   25.9038  -29.5380  -16.9206 C   0  0  2  0  0  0  0  0  0  0  0  0
   26.1815  -28.0922  -16.9273 N   0  0  0  0  0  0  0  0  0  0  0  0
   24.4494  -29.6848  -16.6628 C   0  0  0  0  0  0  0  0  0  0  0  0
   23.9285  -29.0399  -15.6806 O   0  0  0  0  0  0  0  0  0  0  0  0
   20.8957  -29.4894  -20.4639 C   0  0  0  0  0  0  0  0  0  0  0  0
   21.4815  -29.2870  -19.0815 C   0  0  1  0  0  0  0  0  0  0  0  0
   20.7732  -28.1103  -18.3889 C   0  0  0  0  0  0  0  0  0  0  0  0
   21.2967  -30.5483  -18.2916 C   0  0  0  0  0  0  0  0  0  0  0  0
   22.1339  -30.5440  -17.0626 C   0  0  2  0  0  0  0  0  0  0  0  0
   23.5582  -30.4760  -17.4050 N   0  0  0  0  0  0  0  0  0  0  0  0
   21.8957  -31.7412  -16.2478 C   0  0  0  0  0  0  0  0  0  0  0  0
   22.6712  -32.7046  -16.1529 O   0  0  0  0  0  0  0  0  0  0  0  0
   20.7073  -31.8578  -15.4923 O   0  0  0  0  0  0  0  0  0  0  0  0
  2  1  1  1
  3  2  1  0
  4  2  1  0
  4  5  1  6
  6  4  1  0
  7  6  2  0
  8  9  1  0
  9 10  1  0
 11 10  1  0
 12 11  1  1
 12 13  1  0
 13  6  1  0
 14 12  1  0
 14 15  2  0
 17 16  1  6
 17 18  1  0
 20 19  1  6
 19 17  1  0
 20 21  1  0
 21 14  1  0
 22 20  1  0
 23 22  2  0
 24 22  1  0
M  END
$$$$
