TML.pdb
     RDKit          3D

 24 23  0  0  1  0  0  0  0  0999 V2000
   26.4243  -19.3605  -15.5552 C   0  0  0  0  0  0  0  0  0  0  0  0
   26.6482  -20.6891  -16.2086 C   0  0  1  0  0  0  0  0  0  0  0  0
   27.3570  -20.5526  -17.3931 O   0  0  0  0  0  0  0  0  0  0  0  0
   27.3495  -21.6501  -15.2458 C   0  0  2  0  0  0  0  0  0  0  0  0
   27.6059  -22.9080  -15.9331 N   0  0  0  0  0  0  0  0  0  0  0  0
   26.3820  -21.9161  -14.1516 C   0  0  0  0  0  0  0  0  0  0  0  0
   25.5900  -22.8891  -14.2421 O   0  0  0  0  0  0  0  0  0  0  0  0
   26.4297  -18.5605   -8.0194 C   0  0  0  0  0  0  0  0  0  0  0  0
   26.1379  -20.3519   -7.9312 S   0  0  0  0  0  0  0  0  0  0  0  0
   25.1967  -20.9263   -9.3907 C   0  0  0  0  0  0  0  0  0  0  0  0
   25.9687  -20.7688  -10.6401 C   0  0  0  0  0  0  0  0  0  0  0  0
   25.4287  -21.4373  -11.8627 C   0  0  2  0  0  0  0  0  0  0  0  0
   26.3067  -21.1217  -13.0015 N   0  0  0  0  0  0  0  0  0  0  0  0
   24.0639  -21.0029  -12.2519 C   0  0  0  0  0  0  0  0  0  0  0  0
   23.1156  -21.1014  -11.3900 O   0  0  0  0  0  0  0  0  0  0  0  0
   23.0486  -18.2386  -16.9754 C   0  0  0  0  0  0  0  0  0  0  0  0
   23.0133  -18.4777  -15.4798 C   0  0  1  0  0  0  0  0  0  0  0  0
   22.4428  -17.2363  -14.7728 C   0  0  0  0  0  0  0  0  0  0  0  0
   22.1567  -19.6774  -15.2048 C   0  0  0  0  0  0  0  0  0  0  0  0
   22.2985  -20.1314  -13.7958 C   0  0  2  0  0  0  0  0  0  0  0  0
   23.6924  -20.4774  -13.4997 N   0  0  0  0  0  0  0  0  0  0  0  0
   21.4488  -21.2957  -13.5199 C   0  0  0  0  0  0  0  0  0  0  0  0
   20.2718  -21.2432  -13.1317 O   0  0  0  0  0  0  0  0  0  0  0  0
   21.9599  -22.6017  -13.6934 O   0  0  0  0  0  0  0  0  0  0  0  0
  2  1  1  1
  3  2  1  0
  4  2  1  0
  4  5  1  6
  6  4  1  0
  7  6  2  0
  8  9  1  0
  9 10  1  0
 11 10  1  0
 12 11  1  1
 12 13  1  0
 13  6  1  0
 14 12  1  0
 14 15  2  0
 17 16  1  6
 17 18  1  0
 20 19  1  6
 19 17  1  0
 20 21  1  0
 21 14  1  0
 22 20  1  0
 23 22  2  0
 24 22  1  0
M  END
$$$$
