TML.pdb
     RDKit          3D

 24 23  0  0  1  0  0  0  0  0999 V2000
   25.4231   -9.4982  -21.7315 C   0  0  0  0  0  0  0  0  0  0  0  0
   25.2040  -10.9175  -22.1554 C   0  0  1  0  0  0  0  0  0  0  0  0
   25.4085  -11.0712  -23.5187 O   0  0  0  0  0  0  0  0  0  0  0  0
   26.0951  -11.8634  -21.3470 C   0  0  2  0  0  0  0  0  0  0  0  0
   25.8415  -13.2332  -21.7711 N   0  0  0  0  0  0  0  0  0  0  0  0
   25.6582  -11.7342  -19.9340 C   0  0  0  0  0  0  0  0  0  0  0  0
   24.6928  -12.4228  -19.5142 O   0  0  0  0  0  0  0  0  0  0  0  0
   29.6405  -14.0710  -15.4793 C   0  0  0  0  0  0  0  0  0  0  0  0
   28.9941  -12.3740  -15.5478 S   0  0  0  0  0  0  0  0  0  0  0  0
   27.5058  -12.2913  -16.6080 C   0  0  0  0  0  0  0  0  0  0  0  0
   26.9887  -10.9125  -16.7238 C   0  0  0  0  0  0  0  0  0  0  0  0
   25.8267  -10.6960  -17.6382 C   0  0  2  0  0  0  0  0  0  0  0  0
   26.2802  -10.8668  -19.0284 N   0  0  0  0  0  0  0  0  0  0  0  0
   25.2213   -9.3432  -17.5574 C   0  0  0  0  0  0  0  0  0  0  0  0
   25.6789   -8.4157  -18.3205 O   0  0  0  0  0  0  0  0  0  0  0  0
   23.3347   -4.9996  -18.5654 C   0  0  0  0  0  0  0  0  0  0  0  0
   22.3314   -6.1133  -18.3461 C   0  0  1  0  0  0  0  0  0  0  0  0
   21.3482   -6.1612  -19.5282 C   0  0  0  0  0  0  0  0  0  0  0  0
   23.0725   -7.4116  -18.2279 C   0  0  0  0  0  0  0  0  0  0  0  0
   23.5302   -7.6477  -16.8328 C   0  0  2  0  0  0  0  0  0  0  0  0
   24.1677   -8.9626  -16.7111 N   0  0  0  0  0  0  0  0  0  0  0  0
   22.4149   -7.5683  -15.8823 C   0  0  0  0  0  0  0  0  0  0  0  0
   21.7816   -6.5367  -15.6110 O   0  0  0  0  0  0  0  0  0  0  0  0
   21.9873   -8.7265  -15.1948 O   0  0  0  0  0  0  0  0  0  0  0  0
  2  1  1  1
  3  2  1  0
  4  2  1  0
  4  5  1  6
  6  4  1  0
  7  6  2  0
  8  9  1  0
  9 10  1  0
 11 10  1  0
 12 11  1  1
 12 13  1  0
 13  6  1  0
 14 12  1  0
 14 15  2  0
 17 16  1  6
 17 18  1  0
 20 19  1  6
 19 17  1  0
 20 21  1  0
 21 14  1  0
 22 20  1  0
 23 22  2  0
 24 22  1  0
M  END
$$$$
