TML.pdb
     RDKit          3D

 24 23  0  0  1  0  0  0  0  0999 V2000
   42.8615   -9.1445   -5.1593 C   0  0  0  0  0  0  0  0  0  0  0  0
   44.3149   -9.4692   -5.3159 C   0  0  1  0  0  0  0  0  0  0  0  0
   45.0140   -9.2183   -4.1443 O   0  0  0  0  0  0  0  0  0  0  0  0
   44.4955  -10.9180   -5.7745 C   0  0  2  0  0  0  0  0  0  0  0  0
   45.9184  -11.2179   -5.8518 N   0  0  0  0  0  0  0  0  0  0  0  0
   43.9383  -10.9877   -7.1489 C   0  0  0  0  0  0  0  0  0  0  0  0
   44.6801  -10.7460   -8.1356 O   0  0  0  0  0  0  0  0  0  0  0  0
   43.5422  -16.0700  -11.1487 C   0  0  0  0  0  0  0  0  0  0  0  0
   42.2267  -15.1801  -10.2657 S   0  0  0  0  0  0  0  0  0  0  0  0
   42.7325  -13.4568   -9.9184 C   0  0  0  0  0  0  0  0  0  0  0  0
   41.7076  -12.7282   -9.1434 C   0  0  0  0  0  0  0  0  0  0  0  0
   42.0203  -11.3187   -8.7579 C   0  0  2  0  0  0  0  0  0  0  0  0
   42.6020  -11.3158   -7.4054 N   0  0  0  0  0  0  0  0  0  0  0  0
   40.8430  -10.4160   -8.7103 C   0  0  0  0  0  0  0  0  0  0  0  0
   40.2100  -10.2853   -7.5994 O   0  0  0  0  0  0  0  0  0  0  0  0
   37.6294   -7.2602   -7.2859 C   0  0  0  0  0  0  0  0  0  0  0  0
   38.6492   -6.6759   -8.2418 C   0  0  1  0  0  0  0  0  0  0  0  0
   39.2635   -5.4066   -7.6272 C   0  0  0  0  0  0  0  0  0  0  0  0
   39.7125   -7.7023   -8.4966 C   0  0  0  0  0  0  0  0  0  0  0  0
   39.3111   -8.6392   -9.5795 C   0  0  2  0  0  0  0  0  0  0  0  0
   40.3374   -9.6663   -9.7843 N   0  0  0  0  0  0  0  0  0  0  0  0
   39.0858   -7.9306  -10.8448 C   0  0  0  0  0  0  0  0  0  0  0  0
   39.8717   -7.9184  -11.8045 O   0  0  0  0  0  0  0  0  0  0  0  0
   37.8986   -7.1894  -11.0391 O   0  0  0  0  0  0  0  0  0  0  0  0
  2  1  1  1
  3  2  1  0
  4  2  1  0
  4  5  1  6
  6  4  1  0
  7  6  2  0
  8  9  1  0
  9 10  1  0
 11 10  1  0
 12 11  1  1
 12 13  1  0
 13  6  1  0
 14 12  1  0
 14 15  2  0
 17 16  1  1
 17 18  1  0
 20 19  1  1
 19 17  1  0
 20 21  1  0
 21 14  1  0
 22 20  1  0
 23 22  2  0
 24 22  1  0
M  END
$$$$
