TML.pdb
     RDKit          3D

 24 23  0  0  1  0  0  0  0  0999 V2000
   28.5764  -18.2584  -15.1692 C   0  0  0  0  0  0  0  0  0  0  0  0
   27.5271  -19.0269  -14.4273 C   0  0  1  0  0  0  0  0  0  0  0  0
   26.4250  -19.2764  -15.2319 O   0  0  0  0  0  0  0  0  0  0  0  0
   28.1101  -20.3238  -13.8614 C   0  0  2  0  0  0  0  0  0  0  0  0
   28.4152  -21.2274  -14.9618 N   0  0  0  0  0  0  0  0  0  0  0  0
   27.0313  -20.9407  -13.0491 C   0  0  0  0  0  0  0  0  0  0  0  0
   26.3670  -21.8997  -13.5197 O   0  0  0  0  0  0  0  0  0  0  0  0
   26.7132  -19.0869   -6.9086 C   0  0  0  0  0  0  0  0  0  0  0  0
   26.9769  -20.8768   -7.0781 S   0  0  0  0  0  0  0  0  0  0  0  0
   26.8783  -21.3816   -8.8335 C   0  0  0  0  0  0  0  0  0  0  0  0
   25.7815  -20.6924   -9.5434 C   0  0  0  0  0  0  0  0  0  0  0  0
   25.5813  -21.0362  -10.9839 C   0  0  2  0  0  0  0  0  0  0  0  0
   26.7110  -20.4989  -11.7601 N   0  0  0  0  0  0  0  0  0  0  0  0
   24.3496  -20.4697  -11.5883 C   0  0  0  0  0  0  0  0  0  0  0  0
   24.4134  -19.3172  -12.1536 O   0  0  0  0  0  0  0  0  0  0  0  0
   22.2922  -21.2294  -16.4203 C   0  0  0  0  0  0  0  0  0  0  0  0
   21.6365  -20.9630  -15.0808 C   0  0  1  0  0  0  0  0  0  0  0  0
   20.4310  -21.9016  -14.9015 C   0  0  0  0  0  0  0  0  0  0  0  0
   22.6464  -21.1941  -13.9966 C   0  0  0  0  0  0  0  0  0  0  0  0
   22.1154  -20.7891  -12.6679 C   0  0  2  0  0  0  0  0  0  0  0  0
   23.0867  -21.0826  -11.6093 N   0  0  0  0  0  0  0  0  0  0  0  0
   20.8548  -21.4759  -12.3627 C   0  0  0  0  0  0  0  0  0  0  0  0
   20.7625  -22.6030  -11.8530 O   0  0  0  0  0  0  0  0  0  0  0  0
   19.6208  -20.8508  -12.6509 O   0  0  0  0  0  0  0  0  0  0  0  0
  2  1  1  6
  3  2  1  0
  4  2  1  0
  4  5  1  6
  6  4  1  0
  7  6  2  0
  8  9  1  0
  9 10  1  0
 11 10  1  0
 12 11  1  1
 12 13  1  0
 13  6  1  0
 14 12  1  0
 14 15  2  0
 17 16  1  6
 17 18  1  0
 20 19  1  6
 19 17  1  0
 20 21  1  0
 21 14  1  0
 22 20  1  0
 23 22  2  0
 24 22  1  0
M  END
$$$$
