AAA.pdb
     RDKit          3D

 16 15  0  0  1  0  0  0  0  0999 V2000
   18.0539  -11.8335  -17.7126 C   0  0  0  0  0  0  0  0  0  0  0  0
   18.7896  -11.3791  -16.4823 C   0  0  2  0  0  0  0  0  0  0  0  0
   17.8663  -11.4314  -15.3640 N   0  0  0  0  0  0  0  0  0  0  0  0
   19.3105   -9.9972  -16.5960 C   0  0  0  0  0  0  0  0  0  0  0  0
   20.4198   -9.7602  -17.1480 O   0  0  0  0  0  0  0  0  0  0  0  0
   17.8064   -6.6208  -16.2237 C   0  0  0  0  0  0  0  0  0  0  0  0
   19.0365   -7.5105  -16.3968 C   0  0  2  0  0  0  0  0  0  0  0  0
   18.6056   -8.8621  -16.0979 N   0  0  0  0  0  0  0  0  0  0  0  0
   20.1408   -7.0716  -15.5071 C   0  0  0  0  0  0  0  0  0  0  0  0
   20.1229   -7.4236  -14.2995 O   0  0  0  0  0  0  0  0  0  0  0  0
   23.5111   -5.3878  -15.8573 C   0  0  0  0  0  0  0  0  0  0  0  0
   22.3376   -5.8945  -15.0879 C   0  0  2  0  0  0  0  0  0  0  0  0
   21.2248   -6.2738  -15.9344 N   0  0  0  0  0  0  0  0  0  0  0  0
   21.9467   -4.8706  -14.0859 C   0  0  0  0  0  0  0  0  0  0  0  0
   21.0481   -4.0117  -14.2866 O   0  0  0  0  0  0  0  0  0  0  0  0
   22.5938   -4.8532  -12.8759 O   0  0  0  0  0  0  0  0  0  0  0  0
  2  1  1  6
  2  3  1  0
  4  8  1  0
  4  2  1  0
  5  4  2  0
  7  6  1  1
  7  8  1  0
  9  7  1  0
  9 13  1  0
 10  9  2  0
 12 13  1  0
 12 11  1  6
 14 12  1  0
 15 14  2  0
 16 14  1  0
M  END
$$$$
