AAA.pdb
     RDKit          3D

 16 15  0  0  1  0  0  0  0  0999 V2000
   24.8706  -12.3173  -15.1571 C   0  0  0  0  0  0  0  0  0  0  0  0
   24.0052  -12.2651  -16.3859 C   0  0  2  0  0  0  0  0  0  0  0  0
   24.8030  -12.7089  -17.5140 N   0  0  0  0  0  0  0  0  0  0  0  0
   23.4954  -10.9056  -16.6782 C   0  0  0  0  0  0  0  0  0  0  0  0
   24.2104  -10.0534  -17.2735 O   0  0  0  0  0  0  0  0  0  0  0  0
   20.1456   -9.2904  -16.6445 C   0  0  0  0  0  0  0  0  0  0  0  0
   21.6679   -9.1862  -16.7252 C   0  0  2  0  0  0  0  0  0  0  0  0
   22.1857  -10.4761  -16.3129 N   0  0  0  0  0  0  0  0  0  0  0  0
   22.1729   -8.0861  -15.8658 C   0  0  0  0  0  0  0  0  0  0  0  0
   22.3664   -8.3116  -14.6434 O   0  0  0  0  0  0  0  0  0  0  0  0
   23.4222   -4.5315  -16.3230 C   0  0  0  0  0  0  0  0  0  0  0  0
   23.0449   -5.7379  -15.5305 C   0  0  2  0  0  0  0  0  0  0  0  0
   22.4539   -6.7853  -16.3382 N   0  0  0  0  0  0  0  0  0  0  0  0
   22.1475   -5.3196  -14.4239 C   0  0  0  0  0  0  0  0  0  0  0  0
   20.8918   -5.3883  -14.4859 O   0  0  0  0  0  0  0  0  0  0  0  0
   22.7084   -4.8317  -13.2704 O   0  0  0  0  0  0  0  0  0  0  0  0
  2  1  1  1
  2  3  1  0
  4  8  1  0
  4  2  1  0
  5  4  2  0
  7  6  1  1
  7  8  1  0
  9  7  1  0
  9 13  1  0
 10  9  2  0
 12 13  1  0
 12 11  1  6
 14 12  1  0
 15 14  2  0
 16 14  1  0
M  END
$$$$
