AAA.pdb
     RDKit          3D

 16 15  0  0  1  0  0  0  0  0999 V2000
   22.1591  -13.2149  -19.3105 C   0  0  0  0  0  0  0  0  0  0  0  0
   21.2082  -13.4800  -18.1761 C   0  0  2  0  0  0  0  0  0  0  0  0
   20.5903  -14.7733  -18.4032 N   0  0  0  0  0  0  0  0  0  0  0  0
   20.1381  -12.4618  -18.0671 C   0  0  0  0  0  0  0  0  0  0  0  0
   19.7787  -11.7817  -19.0672 O   0  0  0  0  0  0  0  0  0  0  0  0
   17.6779  -11.4152  -15.4583 C   0  0  0  0  0  0  0  0  0  0  0  0
   18.4293  -11.1646  -16.7650 C   0  0  2  0  0  0  0  0  0  0  0  0
   19.4544  -12.1865  -16.8464 N   0  0  0  0  0  0  0  0  0  0  0  0
   19.0065   -9.7973  -16.7937 C   0  0  0  0  0  0  0  0  0  0  0  0
   20.1616   -9.6169  -16.3293 O   0  0  0  0  0  0  0  0  0  0  0  0
   18.0883   -6.3742  -18.1424 C   0  0  0  0  0  0  0  0  0  0  0  0
   18.8689   -7.3246  -17.2979 C   0  0  2  0  0  0  0  0  0  0  0  0
   18.3338   -8.6708  -17.3159 N   0  0  0  0  0  0  0  0  0  0  0  0
   18.9506   -6.7801  -15.9188 C   0  0  0  0  0  0  0  0  0  0  0  0
   18.2960   -7.2462  -14.9494 O   0  0  0  0  0  0  0  0  0  0  0  0
   19.7804   -5.7135  -15.6805 O   0  0  0  0  0  0  0  0  0  0  0  0
  2  1  1  6
  2  3  1  0
  4  8  1  0
  4  2  1  0
  5  4  2  0
  7  6  1  1
  7  8  1  0
  9  7  1  0
  9 13  1  0
 10  9  2  0
 12 13  1  0
 12 11  1  6
 14 12  1  0
 15 14  2  0
 16 14  1  0
M  END
$$$$
