AAA.pdb
     RDKit          3D

 16 15  0  0  1  0  0  0  0  0999 V2000
   19.2869   -8.0106  -20.3209 C   0  0  0  0  0  0  0  0  0  0  0  0
   20.0031   -7.8336  -19.0105 C   0  0  2  0  0  0  0  0  0  0  0  0
   20.0561   -9.1255  -18.3515 N   0  0  0  0  0  0  0  0  0  0  0  0
   19.3286   -6.8735  -18.1066 C   0  0  0  0  0  0  0  0  0  0  0  0
   19.3073   -5.6385  -18.3632 O   0  0  0  0  0  0  0  0  0  0  0  0
   16.7790   -7.0524  -15.4737 C   0  0  0  0  0  0  0  0  0  0  0  0
   17.9802   -6.3158  -16.0648 C   0  0  2  0  0  0  0  0  0  0  0  0
   18.6697   -7.2735  -16.9069 N   0  0  0  0  0  0  0  0  0  0  0  0
   18.8602   -5.7858  -14.9932 C   0  0  0  0  0  0  0  0  0  0  0  0
   18.3840   -4.9636  -14.1687 O   0  0  0  0  0  0  0  0  0  0  0  0
   22.1535   -6.5642  -13.3911 C   0  0  0  0  0  0  0  0  0  0  0  0
   21.0901   -5.6083  -13.8170 C   0  0  2  0  0  0  0  0  0  0  0  0
   20.2157   -6.1499  -14.8373 N   0  0  0  0  0  0  0  0  0  0  0  0
   21.7336   -4.3435  -14.2541 C   0  0  0  0  0  0  0  0  0  0  0  0
   21.7130   -3.9300  -15.4433 O   0  0  0  0  0  0  0  0  0  0  0  0
   22.3865   -3.5800  -13.3193 O   0  0  0  0  0  0  0  0  0  0  0  0
  2  1  1  6
  2  3  1  0
  4  8  1  0
  4  2  1  0
  5  4  2  0
  7  6  1  1
  7  8  1  0
  9  7  1  0
  9 13  1  0
 10  9  2  0
 12 13  1  0
 12 11  1  6
 14 12  1  0
 15 14  2  0
 16 14  1  0
M  END
$$$$
