AAA.pdb
     RDKit          3D

 16 15  0  0  1  0  0  0  0  0999 V2000
   18.3151  -11.2201  -18.0449 C   0  0  0  0  0  0  0  0  0  0  0  0
   19.3447  -10.1267  -18.1210 C   0  0  2  0  0  0  0  0  0  0  0  0
   20.5893  -10.7153  -18.5800 N   0  0  0  0  0  0  0  0  0  0  0  0
   19.5898   -9.4698  -16.8164 C   0  0  0  0  0  0  0  0  0  0  0  0
   18.6722   -8.8457  -16.2162 O   0  0  0  0  0  0  0  0  0  0  0  0
   22.3037   -9.5135  -14.2695 C   0  0  0  0  0  0  0  0  0  0  0  0
   21.0602   -8.8639  -14.8750 C   0  0  2  0  0  0  0  0  0  0  0  0
   20.8568   -9.4981  -16.1627 N   0  0  0  0  0  0  0  0  0  0  0  0
   21.2348   -7.3952  -15.0021 C   0  0  0  0  0  0  0  0  0  0  0  0
   21.9002   -6.9452  -15.9703 O   0  0  0  0  0  0  0  0  0  0  0  0
   19.6922   -4.2499  -13.7240 C   0  0  0  0  0  0  0  0  0  0  0  0
   20.8731   -5.0244  -14.2049 C   0  0  2  0  0  0  0  0  0  0  0  0
   20.6949   -6.4579  -14.0943 N   0  0  0  0  0  0  0  0  0  0  0  0
   22.0785   -4.5586  -13.4734 C   0  0  0  0  0  0  0  0  0  0  0  0
   22.5959   -5.1914  -12.5156 O   0  0  0  0  0  0  0  0  0  0  0  0
   22.6647   -3.3781  -13.8551 O   0  0  0  0  0  0  0  0  0  0  0  0
  2  1  1  1
  2  3  1  0
  4  8  1  0
  4  2  1  0
  5  4  2  0
  7  6  1  6
  7  8  1  0
  9  7  1  0
  9 13  1  0
 10  9  2  0
 12 13  1  0
 12 11  1  1
 14 12  1  0
 15 14  2  0
 16 14  1  0
M  END
$$$$
