AAA.pdb
     RDKit          3D

 16 15  0  0  1  0  0  0  0  0999 V2000
   15.7883  -13.7568  -18.0206 C   0  0  0  0  0  0  0  0  0  0  0  0
   17.1709  -14.1201  -17.5537 C   0  0  2  0  0  0  0  0  0  0  0  0
   17.0975  -15.4156  -16.9038 N   0  0  0  0  0  0  0  0  0  0  0  0
   17.7328  -13.1441  -16.5918 C   0  0  0  0  0  0  0  0  0  0  0  0
   17.1746  -12.9250  -15.4818 O   0  0  0  0  0  0  0  0  0  0  0  0
   20.9002  -11.2684  -16.1574 C   0  0  0  0  0  0  0  0  0  0  0  0
   19.3927  -11.3804  -15.9343 C   0  0  2  0  0  0  0  0  0  0  0  0
   18.9212  -12.3998  -16.8509 N   0  0  0  0  0  0  0  0  0  0  0  0
   18.7219  -10.0762  -16.1634 C   0  0  0  0  0  0  0  0  0  0  0  0
   18.4641   -9.7259  -17.3438 O   0  0  0  0  0  0  0  0  0  0  0  0
   16.6727   -7.6586  -14.2016 C   0  0  0  0  0  0  0  0  0  0  0  0
   17.5923   -7.9732  -15.3335 C   0  0  2  0  0  0  0  0  0  0  0  0
   18.3493   -9.1912  -15.1279 N   0  0  0  0  0  0  0  0  0  0  0  0
   18.4777   -6.8042  -15.5670 C   0  0  0  0  0  0  0  0  0  0  0  0
   19.7278   -6.8411  -15.4208 O   0  0  0  0  0  0  0  0  0  0  0  0
   17.9116   -5.6185  -15.9630 O   0  0  0  0  0  0  0  0  0  0  0  0
  2  1  1  1
  2  3  1  0
  4  8  1  0
  4  2  1  0
  5  4  2  0
  7  6  1  6
  7  8  1  0
  9  7  1  0
  9 13  1  0
 10  9  2  0
 12 13  1  0
 12 11  1  1
 14 12  1  0
 15 14  2  0
 16 14  1  0
M  END
$$$$
