AAA.pdb
     RDKit          3D

 16 15  0  0  1  0  0  0  0  0999 V2000
   19.5208   -9.4256  -19.7355 C   0  0  0  0  0  0  0  0  0  0  0  0
   20.0143   -9.2033  -18.3325 C   0  0  2  0  0  0  0  0  0  0  0  0
   19.4244  -10.2222  -17.4841 N   0  0  0  0  0  0  0  0  0  0  0  0
   19.6470   -7.8737  -17.7929 C   0  0  0  0  0  0  0  0  0  0  0  0
   20.1422   -6.8156  -18.2691 O   0  0  0  0  0  0  0  0  0  0  0  0
   16.8886   -6.4885  -15.8084 C   0  0  0  0  0  0  0  0  0  0  0  0
   18.3501   -6.3863  -16.2424 C   0  0  2  0  0  0  0  0  0  0  0  0
   18.7255   -7.7034  -16.7181 N   0  0  0  0  0  0  0  0  0  0  0  0
   19.2095   -5.9376  -15.1183 C   0  0  0  0  0  0  0  0  0  0  0  0
   18.9517   -4.8411  -14.5582 O   0  0  0  0  0  0  0  0  0  0  0  0
   21.9456   -7.3932  -12.9478 C   0  0  0  0  0  0  0  0  0  0  0  0
   21.1021   -6.2834  -13.4794 C   0  0  2  0  0  0  0  0  0  0  0  0
   20.3127   -6.6719  -14.6305 N   0  0  0  0  0  0  0  0  0  0  0  0
   21.9762   -5.1201  -13.7751 C   0  0  0  0  0  0  0  0  0  0  0  0
   22.2533   -4.7402  -14.9432 O   0  0  0  0  0  0  0  0  0  0  0  0
   22.5138   -4.4173  -12.7262 O   0  0  0  0  0  0  0  0  0  0  0  0
  2  1  1  6
  2  3  1  0
  4  8  1  0
  4  2  1  0
  5  4  2  0
  7  6  1  1
  7  8  1  0
  9  7  1  0
  9 13  1  0
 10  9  2  0
 12 13  1  0
 12 11  1  6
 14 12  1  0
 15 14  2  0
 16 14  1  0
M  END
$$$$
