AAA.pdb
     RDKit          3D

 16 15  0  0  1  0  0  0  0  0999 V2000
   17.0614  -12.0287  -16.6271 C   0  0  0  0  0  0  0  0  0  0  0  0
   17.1128  -10.5295  -16.5222 C   0  0  2  0  0  0  0  0  0  0  0  0
   16.7084   -9.9774  -17.8020 N   0  0  0  0  0  0  0  0  0  0  0  0
   18.4639  -10.0174  -16.1966 C   0  0  0  0  0  0  0  0  0  0  0  0
   19.0112  -10.2749  -15.0895 O   0  0  0  0  0  0  0  0  0  0  0  0
   21.2132   -8.3226  -18.0584 C   0  0  0  0  0  0  0  0  0  0  0  0
   20.5399   -8.7182  -16.7451 C   0  0  2  0  0  0  0  0  0  0  0  0
   19.2234   -9.2133  -17.0966 N   0  0  0  0  0  0  0  0  0  0  0  0
   20.4673   -7.5637  -15.8148 C   0  0  0  0  0  0  0  0  0  0  0  0
   19.5496   -6.7173  -15.9691 O   0  0  0  0  0  0  0  0  0  0  0  0
   21.7154   -6.5541  -12.4585 C   0  0  0  0  0  0  0  0  0  0  0  0
   21.3240   -6.2138  -13.8574 C   0  0  2  0  0  0  0  0  0  0  0  0
   21.3742   -7.3513  -14.7533 N   0  0  0  0  0  0  0  0  0  0  0  0
   22.1789   -5.0968  -14.3331 C   0  0  0  0  0  0  0  0  0  0  0  0
   23.0167   -5.2135  -15.2658 O   0  0  0  0  0  0  0  0  0  0  0  0
   22.0554   -3.8705  -13.7298 O   0  0  0  0  0  0  0  0  0  0  0  0
  2  1  1  6
  2  3  1  0
  4  8  1  0
  4  2  1  0
  5  4  2  0
  7  6  1  6
  7  8  1  0
  9  7  1  0
  9 13  1  0
 10  9  2  0
 12 13  1  0
 12 11  1  1
 14 12  1  0
 15 14  2  0
 16 14  1  0
M  END
$$$$
