AAA.pdb
     RDKit          3D

 16 15  0  0  1  0  0  0  0  0999 V2000
   22.0964  -11.6260  -18.3462 C   0  0  0  0  0  0  0  0  0  0  0  0
   20.7189  -11.6644  -17.7443 C   0  0  2  0  0  0  0  0  0  0  0  0
   19.8061  -12.1789  -18.7485 N   0  0  0  0  0  0  0  0  0  0  0  0
   20.2379  -10.3319  -17.3123 C   0  0  0  0  0  0  0  0  0  0  0  0
   20.0804   -9.3936  -18.1409 O   0  0  0  0  0  0  0  0  0  0  0  0
   18.5449   -8.9313  -14.3508 C   0  0  0  0  0  0  0  0  0  0  0  0
   19.4476   -8.7137  -15.5643 C   0  0  2  0  0  0  0  0  0  0  0  0
   19.9260  -10.0253  -15.9550 N   0  0  0  0  0  0  0  0  0  0  0  0
   20.5640   -7.7910  -15.2392 C   0  0  0  0  0  0  0  0  0  0  0  0
   21.6121   -8.2634  -14.7286 O   0  0  0  0  0  0  0  0  0  0  0  0
   21.4104   -4.1273  -15.7463 C   0  0  0  0  0  0  0  0  0  0  0  0
   21.6308   -5.5001  -15.2053 C   0  0  2  0  0  0  0  0  0  0  0  0
   20.5250   -6.3982  -15.4691 N   0  0  0  0  0  0  0  0  0  0  0  0
   21.9269   -5.3984  -13.7538 C   0  0  0  0  0  0  0  0  0  0  0  0
   21.0983   -5.6989  -12.8545 O   0  0  0  0  0  0  0  0  0  0  0  0
   23.1656   -4.9548  -13.3643 O   0  0  0  0  0  0  0  0  0  0  0  0
  2  1  1  6
  2  3  1  0
  4  8  1  0
  4  2  1  0
  5  4  2  0
  7  6  1  1
  7  8  1  0
  9  7  1  0
  9 13  1  0
 10  9  2  0
 12 13  1  0
 12 11  1  1
 14 12  1  0
 15 14  2  0
 16 14  1  0
M  END
$$$$
