AAA.pdb
     RDKit          3D

 16 15  0  0  1  0  0  0  0  0999 V2000
   25.1488  -13.3117  -17.8135 C   0  0  0  0  0  0  0  0  0  0  0  0
   24.8032  -12.0529  -17.0669 C   0  0  2  0  0  0  0  0  0  0  0  0
   24.7553  -12.3710  -15.6517 N   0  0  0  0  0  0  0  0  0  0  0  0
   23.4946  -11.4843  -17.4641 C   0  0  0  0  0  0  0  0  0  0  0  0
   23.3125  -11.0066  -18.6175 O   0  0  0  0  0  0  0  0  0  0  0  0
   20.0218  -11.6666  -16.2683 C   0  0  0  0  0  0  0  0  0  0  0  0
   21.1035  -10.8766  -17.0036 C   0  0  2  0  0  0  0  0  0  0  0  0
   22.3725  -11.4393  -16.5853 N   0  0  0  0  0  0  0  0  0  0  0  0
   21.0101   -9.4283  -16.6919 C   0  0  0  0  0  0  0  0  0  0  0  0
   21.5719   -8.9940  -15.6535 O   0  0  0  0  0  0  0  0  0  0  0  0
   19.7772   -6.2910  -18.4286 C   0  0  0  0  0  0  0  0  0  0  0  0
   20.3637   -7.0601  -17.2926 C   0  0  2  0  0  0  0  0  0  0  0  0
   20.3221   -8.4938  -17.4966 N   0  0  0  0  0  0  0  0  0  0  0  0
   19.6749   -6.6591  -16.0397 C   0  0  0  0  0  0  0  0  0  0  0  0
   19.9122   -5.5820  -15.4323 O   0  0  0  0  0  0  0  0  0  0  0  0
   18.7294   -7.5009  -15.5101 O   0  0  0  0  0  0  0  0  0  0  0  0
  2  1  1  6
  2  3  1  0
  4  8  1  0
  4  2  1  0
  5  4  2  0
  7  6  1  1
  7  8  1  0
  9  7  1  0
  9 13  1  0
 10  9  2  0
 12 13  1  0
 12 11  1  6
 14 12  1  0
 15 14  2  0
 16 14  1  0
M  END
$$$$
