AAA.pdb
     RDKit          3D

 16 15  0  0  1  0  0  0  0  0999 V2000
   20.6694   -8.7957  -21.0854 C   0  0  0  0  0  0  0  0  0  0  0  0
   21.0132   -8.6961  -19.6248 C   0  0  2  0  0  0  0  0  0  0  0  0
   20.4261   -9.8378  -18.9482 N   0  0  0  0  0  0  0  0  0  0  0  0
   20.4986   -7.4601  -18.9914 C   0  0  0  0  0  0  0  0  0  0  0  0
   20.9615   -6.3272  -19.2976 O   0  0  0  0  0  0  0  0  0  0  0  0
   17.4255   -6.4813  -17.2685 C   0  0  0  0  0  0  0  0  0  0  0  0
   18.9198   -6.2361  -17.4723 C   0  0  2  0  0  0  0  0  0  0  0  0
   19.4637   -7.4676  -18.0103 N   0  0  0  0  0  0  0  0  0  0  0  0
   19.5753   -5.8515  -16.1971 C   0  0  0  0  0  0  0  0  0  0  0  0
   19.1463   -4.8465  -15.5738 O   0  0  0  0  0  0  0  0  0  0  0  0
   22.1664   -7.3077  -13.8457 C   0  0  0  0  0  0  0  0  0  0  0  0
   21.2386   -6.2472  -14.3359 C   0  0  2  0  0  0  0  0  0  0  0  0
   20.6641   -6.5503  -15.6308 N   0  0  0  0  0  0  0  0  0  0  0  0
   21.9590   -4.9487  -14.3405 C   0  0  0  0  0  0  0  0  0  0  0  0
   22.3188   -4.3591  -15.3933 O   0  0  0  0  0  0  0  0  0  0  0  0
   22.2515   -4.3541  -13.1388 O   0  0  0  0  0  0  0  0  0  0  0  0
  2  1  1  6
  2  3  1  0
  4  8  1  0
  4  2  1  0
  5  4  2  0
  7  6  1  1
  7  8  1  0
  9  7  1  0
  9 13  1  0
 10  9  2  0
 12 13  1  0
 12 11  1  6
 14 12  1  0
 15 14  2  0
 16 14  1  0
M  END
$$$$
