AAA.pdb
     RDKit          3D

 16 15  0  0  1  0  0  0  0  0999 V2000
   19.7795   -9.6119  -18.8855 C   0  0  0  0  0  0  0  0  0  0  0  0
   20.8365   -8.6173  -18.4920 C   0  0  2  0  0  0  0  0  0  0  0  0
   22.0750   -9.3424  -18.2762 N   0  0  0  0  0  0  0  0  0  0  0  0
   20.5039   -7.8783  -17.2522 C   0  0  0  0  0  0  0  0  0  0  0  0
   19.4817   -7.1420  -17.1845 O   0  0  0  0  0  0  0  0  0  0  0  0
   21.7045   -7.9348  -13.7243 C   0  0  0  0  0  0  0  0  0  0  0  0
   20.9105   -7.2744  -14.8505 C   0  0  2  0  0  0  0  0  0  0  0  0
   21.3026   -7.9480  -16.0729 N   0  0  0  0  0  0  0  0  0  0  0  0
   21.1821   -5.8162  -14.9097 C   0  0  0  0  0  0  0  0  0  0  0  0
   22.2085   -5.4147  -15.5162 O   0  0  0  0  0  0  0  0  0  0  0  0
   19.4329   -2.5785  -14.0541 C   0  0  0  0  0  0  0  0  0  0  0  0
   20.6345   -3.4166  -14.3361 C   0  0  2  0  0  0  0  0  0  0  0  0
   20.3515   -4.8373  -14.3214 N   0  0  0  0  0  0  0  0  0  0  0  0
   21.7044   -3.0555  -13.3718 C   0  0  0  0  0  0  0  0  0  0  0  0
   22.1150   -3.8315  -12.4692 O   0  0  0  0  0  0  0  0  0  0  0  0
   22.2805   -1.8133  -13.4626 O   0  0  0  0  0  0  0  0  0  0  0  0
  2  1  1  1
  2  3  1  0
  4  8  1  0
  4  2  1  0
  5  4  2  0
  7  6  1  1
  7  8  1  0
  9  7  1  0
  9 13  1  0
 10  9  2  0
 12 13  1  0
 12 11  1  1
 14 12  1  0
 15 14  2  0
 16 14  1  0
M  END
$$$$
