AAA.pdb
     RDKit          3D

 16 15  0  0  1  0  0  0  0  0999 V2000
   17.8992  -13.0993  -15.9095 C   0  0  0  0  0  0  0  0  0  0  0  0
   17.6084  -11.6522  -15.6219 C   0  0  2  0  0  0  0  0  0  0  0  0
   16.6423  -11.1871  -16.5999 N   0  0  0  0  0  0  0  0  0  0  0  0
   18.8111  -10.7918  -15.7051 C   0  0  0  0  0  0  0  0  0  0  0  0
   19.6682  -10.7753  -14.7795 O   0  0  0  0  0  0  0  0  0  0  0  0
   20.4626   -8.7403  -18.3396 C   0  0  0  0  0  0  0  0  0  0  0  0
   20.2637   -9.1094  -16.8702 C   0  0  2  0  0  0  0  0  0  0  0  0
   19.0764   -9.9396  -16.8171 N   0  0  0  0  0  0  0  0  0  0  0  0
   20.1278   -7.8937  -16.0293 C   0  0  0  0  0  0  0  0  0  0  0  0
   18.9889   -7.3784  -15.8878 O   0  0  0  0  0  0  0  0  0  0  0  0
   22.2772   -5.8841  -13.6495 C   0  0  0  0  0  0  0  0  0  0  0  0
   21.0748   -6.1173  -14.5013 C   0  0  2  0  0  0  0  0  0  0  0  0
   21.2089   -7.2697  -15.3689 N   0  0  0  0  0  0  0  0  0  0  0  0
   20.7861   -4.8785  -15.2674 C   0  0  0  0  0  0  0  0  0  0  0  0
   20.9253   -4.7868  -16.5155 O   0  0  0  0  0  0  0  0  0  0  0  0
   20.3441   -3.7718  -14.5870 O   0  0  0  0  0  0  0  0  0  0  0  0
  2  1  1  6
  2  3  1  0
  4  8  1  0
  4  2  1  0
  5  4  2  0
  7  6  1  6
  7  8  1  0
  9  7  1  0
  9 13  1  0
 10  9  2  0
 12 13  1  0
 12 11  1  6
 14 12  1  0
 15 14  2  0
 16 14  1  0
M  END
$$$$
