AAA.pdb
     RDKit          3D

 16 15  0  0  1  0  0  0  0  0999 V2000
   18.0906  -12.5472  -15.7692 C   0  0  0  0  0  0  0  0  0  0  0  0
   17.7231  -11.0979  -15.6081 C   0  0  2  0  0  0  0  0  0  0  0  0
   16.8802  -10.7230  -16.7284 N   0  0  0  0  0  0  0  0  0  0  0  0
   18.9011  -10.2004  -15.5869 C   0  0  0  0  0  0  0  0  0  0  0  0
   19.7706  -10.2845  -14.6767 O   0  0  0  0  0  0  0  0  0  0  0  0
   20.5019   -7.8345  -17.9647 C   0  0  0  0  0  0  0  0  0  0  0  0
   20.3013   -8.3484  -16.5398 C   0  0  2  0  0  0  0  0  0  0  0  0
   19.1276   -9.1986  -16.5762 N   0  0  0  0  0  0  0  0  0  0  0  0
   20.1407   -7.2229  -15.5853 C   0  0  0  0  0  0  0  0  0  0  0  0
   18.9930   -6.7409  -15.4036 O   0  0  0  0  0  0  0  0  0  0  0  0
   22.1728   -5.3946  -12.9850 C   0  0  0  0  0  0  0  0  0  0  0  0
   21.0719   -5.5016  -13.9862 C   0  0  2  0  0  0  0  0  0  0  0  0
   21.2074   -6.6506  -14.8581 N   0  0  0  0  0  0  0  0  0  0  0  0
   20.9991   -4.2314  -14.7520 C   0  0  0  0  0  0  0  0  0  0  0  0
   21.3009   -4.1385  -15.9709 O   0  0  0  0  0  0  0  0  0  0  0  0
   20.5823   -3.0956  -14.1046 O   0  0  0  0  0  0  0  0  0  0  0  0
  2  1  1  6
  2  3  1  0
  4  8  1  0
  4  2  1  0
  5  4  2  0
  7  6  1  6
  7  8  1  0
  9  7  1  0
  9 13  1  0
 10  9  2  0
 12 13  1  0
 12 11  1  1
 14 12  1  0
 15 14  2  0
 16 14  1  0
M  END
$$$$
