AAA.pdb
     RDKit          3D

 16 15  0  0  1  0  0  0  0  0999 V2000
   16.8400  -10.4689  -13.4655 C   0  0  0  0  0  0  0  0  0  0  0  0
   16.6435  -10.0036  -14.8819 C   0  0  2  0  0  0  0  0  0  0  0  0
   16.8596  -11.1389  -15.7598 N   0  0  0  0  0  0  0  0  0  0  0  0
   17.5795   -8.9242  -15.2724 C   0  0  0  0  0  0  0  0  0  0  0  0
   18.7340   -9.1862  -15.7083 O   0  0  0  0  0  0  0  0  0  0  0  0
   17.2583   -5.2873  -15.9572 C   0  0  0  0  0  0  0  0  0  0  0  0
   18.1320   -6.5117  -15.6883 C   0  0  2  0  0  0  0  0  0  0  0  0
   17.2445   -7.5410  -15.1834 N   0  0  0  0  0  0  0  0  0  0  0  0
   19.2147   -6.1921  -14.7243 C   0  0  0  0  0  0  0  0  0  0  0  0
   18.9518   -6.1951  -13.4941 O   0  0  0  0  0  0  0  0  0  0  0  0
   22.9760   -5.9370  -14.8313 C   0  0  0  0  0  0  0  0  0  0  0  0
   21.6458   -5.7724  -14.1760 C   0  0  2  0  0  0  0  0  0  0  0  0
   20.5388   -5.8808  -15.1041 N   0  0  0  0  0  0  0  0  0  0  0  0
   21.6312   -4.4796  -13.4458 C   0  0  0  0  0  0  0  0  0  0  0  0
   20.9915   -3.4686  -13.8386 O   0  0  0  0  0  0  0  0  0  0  0  0
   22.3496   -4.3731  -12.2815 O   0  0  0  0  0  0  0  0  0  0  0  0
  2  1  1  1
  2  3  1  0
  4  8  1  0
  4  2  1  0
  5  4  2  0
  7  6  1  1
  7  8  1  0
  9  7  1  0
  9 13  1  0
 10  9  2  0
 12 13  1  0
 12 11  1  6
 14 12  1  0
 15 14  2  0
 16 14  1  0
M  END
$$$$
