AAA.pdb
     RDKit          3D

 16 15  0  0  1  0  0  0  0  0999 V2000
   24.9835  -12.2185  -15.4658 C   0  0  0  0  0  0  0  0  0  0  0  0
   23.7520  -12.3041  -16.3246 C   0  0  2  0  0  0  0  0  0  0  0  0
   24.0860  -13.0713  -17.5104 N   0  0  0  0  0  0  0  0  0  0  0  0
   23.2494  -10.9776  -16.7507 C   0  0  0  0  0  0  0  0  0  0  0  0
   23.9001  -10.2612  -17.5600 O   0  0  0  0  0  0  0  0  0  0  0  0
   20.0673   -9.0957  -16.5817 C   0  0  0  0  0  0  0  0  0  0  0  0
   21.5938   -9.0942  -16.6505 C   0  0  2  0  0  0  0  0  0  0  0  0
   22.0182  -10.4309  -16.2831 N   0  0  0  0  0  0  0  0  0  0  0  0
   22.1666   -8.0636  -15.7487 C   0  0  0  0  0  0  0  0  0  0  0  0
   22.3591   -8.3547  -14.5401 O   0  0  0  0  0  0  0  0  0  0  0  0
   23.6396   -4.5848  -16.0216 C   0  0  0  0  0  0  0  0  0  0  0  0
   23.0525   -5.7424  -15.2858 C   0  0  2  0  0  0  0  0  0  0  0  0
   22.5143   -6.7599  -16.1655 N   0  0  0  0  0  0  0  0  0  0  0  0
   22.0299   -5.2344  -14.3365 C   0  0  0  0  0  0  0  0  0  0  0  0
   20.7917   -5.2800  -14.5614 O   0  0  0  0  0  0  0  0  0  0  0  0
   22.4479   -4.6854  -13.1504 O   0  0  0  0  0  0  0  0  0  0  0  0
  2  1  1  1
  2  3  1  0
  4  8  1  0
  4  2  1  0
  5  4  2  0
  7  6  1  1
  7  8  1  0
  9  7  1  0
  9 13  1  0
 10  9  2  0
 12 13  1  0
 12 11  1  6
 14 12  1  0
 15 14  2  0
 16 14  1  0
M  END
$$$$
