AAA.pdb
     RDKit          3D

 16 15  0  0  1  0  0  0  0  0999 V2000
   18.4070   -9.7664  -19.0858 C   0  0  0  0  0  0  0  0  0  0  0  0
   19.3608  -10.6438  -18.3230 C   0  0  2  0  0  0  0  0  0  0  0  0
   18.7045  -11.9158  -18.0836 N   0  0  0  0  0  0  0  0  0  0  0  0
   19.7593  -10.0688  -17.0175 C   0  0  0  0  0  0  0  0  0  0  0  0
   18.8959   -9.6973  -16.1761 O   0  0  0  0  0  0  0  0  0  0  0  0
   22.8900   -9.6823  -15.0489 C   0  0  0  0  0  0  0  0  0  0  0  0
   21.4826   -9.2083  -15.4088 C   0  0  2  0  0  0  0  0  0  0  0  0
   21.1214   -9.8995  -16.6309 N   0  0  0  0  0  0  0  0  0  0  0  0
   21.4432   -7.7335  -15.5740 C   0  0  0  0  0  0  0  0  0  0  0  0
   21.8813   -7.2309  -16.6408 O   0  0  0  0  0  0  0  0  0  0  0  0
   19.6802   -4.8170  -14.0364 C   0  0  0  0  0  0  0  0  0  0  0  0
   20.8255   -5.4140  -14.7832 C   0  0  2  0  0  0  0  0  0  0  0  0
   20.9388   -6.8464  -14.5979 N   0  0  0  0  0  0  0  0  0  0  0  0
   22.0704   -4.7053  -14.3924 C   0  0  0  0  0  0  0  0  0  0  0  0
   22.9537   -5.2125  -13.6520 O   0  0  0  0  0  0  0  0  0  0  0  0
   22.2764   -3.4311  -14.8582 O   0  0  0  0  0  0  0  0  0  0  0  0
  2  1  1  1
  2  3  1  0
  4  8  1  0
  4  2  1  0
  5  4  2  0
  7  6  1  6
  7  8  1  0
  9  7  1  0
  9 13  1  0
 10  9  2  0
 12 13  1  0
 12 11  1  1
 14 12  1  0
 15 14  2  0
 16 14  1  0
M  END
$$$$
