AAA.pdb
     RDKit          3D

 16 15  0  0  1  0  0  0  0  0999 V2000
   21.5203  -12.9195  -16.3413 C   0  0  0  0  0  0  0  0  0  0  0  0
   20.2266  -12.2542  -16.7222 C   0  0  2  0  0  0  0  0  0  0  0  0
   19.7362  -12.8890  -17.9316 N   0  0  0  0  0  0  0  0  0  0  0  0
   20.3753  -10.8036  -16.9814 C   0  0  0  0  0  0  0  0  0  0  0  0
   21.1566  -10.3760  -17.8749 O   0  0  0  0  0  0  0  0  0  0  0  0
   18.3902   -7.8012  -16.4333 C   0  0  0  0  0  0  0  0  0  0  0  0
   19.7904   -8.3999  -16.5590 C   0  0  2  0  0  0  0  0  0  0  0  0
   19.6581   -9.8104  -16.2515 N   0  0  0  0  0  0  0  0  0  0  0  0
   20.7440   -7.7209  -15.6462 C   0  0  0  0  0  0  0  0  0  0  0  0
   20.8167   -8.1048  -14.4505 O   0  0  0  0  0  0  0  0  0  0  0  0
   23.5465   -5.1901  -15.8904 C   0  0  0  0  0  0  0  0  0  0  0  0
   22.5324   -6.0032  -15.1581 C   0  0  2  0  0  0  0  0  0  0  0  0
   21.5863   -6.6575  -16.0387 N   0  0  0  0  0  0  0  0  0  0  0  0
   21.8532   -5.1346  -14.1635 C   0  0  0  0  0  0  0  0  0  0  0  0
   22.4131   -4.7063  -13.1201 O   0  0  0  0  0  0  0  0  0  0  0  0
   20.5476   -4.7756  -14.3859 O   0  0  0  0  0  0  0  0  0  0  0  0
  2  1  1  6
  2  3  1  0
  4  8  1  0
  4  2  1  0
  5  4  2  0
  7  6  1  1
  7  8  1  0
  9  7  1  0
  9 13  1  0
 10  9  2  0
 12 13  1  0
 12 11  1  6
 14 12  1  0
 15 14  2  0
 16 14  1  0
M  END
$$$$
