AAA.pdb
     RDKit          3D

 16 15  0  0  1  0  0  0  0  0999 V2000
   21.2093  -17.0977  -15.9142 C   0  0  0  0  0  0  0  0  0  0  0  0
   20.8721  -15.9535  -16.8299 C   0  0  2  0  0  0  0  0  0  0  0  0
   20.0891  -16.4790  -17.9329 N   0  0  0  0  0  0  0  0  0  0  0  0
   22.0705  -15.2821  -17.3837 C   0  0  0  0  0  0  0  0  0  0  0  0
   22.6667  -15.7401  -18.3968 O   0  0  0  0  0  0  0  0  0  0  0  0
   23.8075  -12.0276  -16.8297 C   0  0  0  0  0  0  0  0  0  0  0  0
   23.7803  -13.4451  -17.3996 C   0  0  2  0  0  0  0  0  0  0  0  0
   22.6211  -14.0940  -16.8192 N   0  0  0  0  0  0  0  0  0  0  0  0
   25.0368  -14.1701  -17.0846 C   0  0  0  0  0  0  0  0  0  0  0  0
   26.0987  -13.8224  -17.6625 O   0  0  0  0  0  0  0  0  0  0  0  0
   26.3879  -16.5339  -14.5135 C   0  0  0  0  0  0  0  0  0  0  0  0
   26.3264  -15.9944  -15.9031 C   0  0  2  0  0  0  0  0  0  0  0  0
   25.1183  -15.2392  -16.1656 N   0  0  0  0  0  0  0  0  0  0  0  0
   26.4949  -17.1185  -16.8586 C   0  0  0  0  0  0  0  0  0  0  0  0
   25.5490  -17.6006  -17.5356 O   0  0  0  0  0  0  0  0  0  0  0  0
   27.7433  -17.6657  -17.0175 O   0  0  0  0  0  0  0  0  0  0  0  0
  2  1  1  1
  2  3  1  0
  4  8  1  0
  4  2  1  0
  5  4  2  0
  7  6  1  1
  7  8  1  0
  9  7  1  0
  9 13  1  0
 10  9  2  0
 12 13  1  0
 12 11  1  1
 14 12  1  0
 15 14  2  0
 16 14  1  0
M  END
$$$$
