AAA.pdb
     RDKit          3D

 16 15  0  0  1  0  0  0  0  0999 V2000
   18.8500  -12.4038  -17.3714 C   0  0  0  0  0  0  0  0  0  0  0  0
   19.8298  -11.3326  -17.7634 C   0  0  2  0  0  0  0  0  0  0  0  0
   20.9679  -11.9761  -18.3933 N   0  0  0  0  0  0  0  0  0  0  0  0
   20.3174  -10.5428  -16.6092 C   0  0  0  0  0  0  0  0  0  0  0  0
   19.5249   -9.8639  -15.9002 O   0  0  0  0  0  0  0  0  0  0  0  0
   23.5592  -10.1558  -14.7897 C   0  0  0  0  0  0  0  0  0  0  0  0
   22.1437   -9.6832  -15.1179 C   0  0  2  0  0  0  0  0  0  0  0  0
   21.6910  -10.4974  -16.2286 N   0  0  0  0  0  0  0  0  0  0  0  0
   22.1287   -8.2363  -15.4494 C   0  0  0  0  0  0  0  0  0  0  0  0
   22.4831   -7.8742  -16.6008 O   0  0  0  0  0  0  0  0  0  0  0  0
   20.3967   -5.2597  -15.1382 C   0  0  0  0  0  0  0  0  0  0  0  0
   21.7528   -5.8102  -14.8491 C   0  0  2  0  0  0  0  0  0  0  0  0
   21.7370   -7.2262  -14.5434 N   0  0  0  0  0  0  0  0  0  0  0  0
   22.3669   -5.0149  -13.7558 C   0  0  0  0  0  0  0  0  0  0  0  0
   22.5839   -5.4727  -12.6030 O   0  0  0  0  0  0  0  0  0  0  0  0
   22.7187   -3.7126  -14.0069 O   0  0  0  0  0  0  0  0  0  0  0  0
  2  1  1  1
  2  3  1  0
  4  8  1  0
  4  2  1  0
  5  4  2  0
  7  6  1  6
  7  8  1  0
  9  7  1  0
  9 13  1  0
 10  9  2  0
 12 13  1  0
 12 11  1  1
 14 12  1  0
 15 14  2  0
 16 14  1  0
M  END
$$$$
