AAA.pdb
     RDKit          3D

 16 15  0  0  1  0  0  0  0  0999 V2000
   16.1095  -14.3878  -17.3171 C   0  0  0  0  0  0  0  0  0  0  0  0
   16.5050  -13.0073  -17.7636 C   0  0  2  0  0  0  0  0  0  0  0  0
   17.6074  -13.1381  -18.6983 N   0  0  0  0  0  0  0  0  0  0  0  0
   16.9392  -12.1388  -16.6452 C   0  0  0  0  0  0  0  0  0  0  0  0
   16.1730  -11.8921  -15.6737 O   0  0  0  0  0  0  0  0  0  0  0  0
   20.0892  -10.6841  -15.3687 C   0  0  0  0  0  0  0  0  0  0  0  0
   18.5769  -10.5776  -15.5594 C   0  0  2  0  0  0  0  0  0  0  0  0
   18.2294  -11.5338  -16.5922 N   0  0  0  0  0  0  0  0  0  0  0  0
   18.1827   -9.1950  -15.9291 C   0  0  0  0  0  0  0  0  0  0  0  0
   18.3279   -8.8214  -17.1215 O   0  0  0  0  0  0  0  0  0  0  0  0
   16.1463   -6.3920  -14.4913 C   0  0  0  0  0  0  0  0  0  0  0  0
   17.2208   -6.9235  -15.3795 C   0  0  2  0  0  0  0  0  0  0  0  0
   17.6479   -8.2594  -15.0165 N   0  0  0  0  0  0  0  0  0  0  0  0
   18.3531   -5.9629  -15.3849 C   0  0  0  0  0  0  0  0  0  0  0  0
   19.4970   -6.2370  -14.9357 O   0  0  0  0  0  0  0  0  0  0  0  0
   18.1501   -4.7092  -15.9047 O   0  0  0  0  0  0  0  0  0  0  0  0
  2  1  1  1
  2  3  1  0
  4  8  1  0
  4  2  1  0
  5  4  2  0
  7  6  1  6
  7  8  1  0
  9  7  1  0
  9 13  1  0
 10  9  2  0
 12 13  1  0
 12 11  1  1
 14 12  1  0
 15 14  2  0
 16 14  1  0
M  END
$$$$
