AAA.pdb
     RDKit          3D

 16 15  0  0  1  0  0  0  0  0999 V2000
   22.9063   -8.6562  -14.4059 C   0  0  0  0  0  0  0  0  0  0  0  0
   21.4866   -8.8124  -14.8765 C   0  0  2  0  0  0  0  0  0  0  0  0
   21.4500   -9.9025  -15.8338 N   0  0  0  0  0  0  0  0  0  0  0  0
   20.9562   -7.5948  -15.5320 C   0  0  0  0  0  0  0  0  0  0  0  0
   21.2670   -7.3037  -16.7196 O   0  0  0  0  0  0  0  0  0  0  0  0
   18.1501   -5.2828  -14.9597 C   0  0  0  0  0  0  0  0  0  0  0  0
   19.5336   -5.5275  -15.5605 C   0  0  2  0  0  0  0  0  0  0  0  0
   20.0742   -6.6860  -14.8767 N   0  0  0  0  0  0  0  0  0  0  0  0
   20.4024   -4.3345  -15.4008 C   0  0  0  0  0  0  0  0  0  0  0  0
   21.0447   -4.1913  -14.3287 O   0  0  0  0  0  0  0  0  0  0  0  0
   21.6143   -1.4412  -17.5310 C   0  0  0  0  0  0  0  0  0  0  0  0
   21.4304   -2.1888  -16.2531 C   0  0  2  0  0  0  0  0  0  0  0  0
   20.5565   -3.3364  -16.3879 N   0  0  0  0  0  0  0  0  0  0  0  0
   20.9474   -1.2446  -15.2139 C   0  0  0  0  0  0  0  0  0  0  0  0
   19.7830   -1.2761  -14.7357 O   0  0  0  0  0  0  0  0  0  0  0  0
   21.8090   -0.2850  -14.7450 O   0  0  0  0  0  0  0  0  0  0  0  0
  2  1  1  6
  2  3  1  0
  4  8  1  0
  4  2  1  0
  5  4  2  0
  7  6  1  1
  7  8  1  0
  9  7  1  0
  9 13  1  0
 10  9  2  0
 12 13  1  0
 12 11  1  6
 14 12  1  0
 15 14  2  0
 16 14  1  0
M  END
$$$$
