AAA.pdb
     RDKit          3D

 16 15  0  0  1  0  0  0  0  0999 V2000
   19.5984   -6.9368  -19.1107 C   0  0  0  0  0  0  0  0  0  0  0  0
   20.0020   -8.2947  -18.6062 C   0  0  2  0  0  0  0  0  0  0  0  0
   19.0158   -9.2544  -19.0673 N   0  0  0  0  0  0  0  0  0  0  0  0
   20.0711   -8.3669  -17.1284 C   0  0  0  0  0  0  0  0  0  0  0  0
   19.0865   -8.0387  -16.4112 O   0  0  0  0  0  0  0  0  0  0  0  0
   22.1278  -10.0698  -14.6189 C   0  0  0  0  0  0  0  0  0  0  0  0
   21.2751   -8.8547  -14.9812 C   0  0  2  0  0  0  0  0  0  0  0  0
   21.2345   -8.8043  -16.4295 N   0  0  0  0  0  0  0  0  0  0  0  0
   21.8431   -7.6127  -14.3994 C   0  0  0  0  0  0  0  0  0  0  0  0
   21.9001   -7.5004  -13.1477 O   0  0  0  0  0  0  0  0  0  0  0  0
   23.7938   -4.6020  -15.5457 C   0  0  0  0  0  0  0  0  0  0  0  0
   22.8787   -5.3169  -14.6091 C   0  0  2  0  0  0  0  0  0  0  0  0
   22.3302   -6.5346  -15.1705 N   0  0  0  0  0  0  0  0  0  0  0  0
   21.8128   -4.3785  -14.1752 C   0  0  0  0  0  0  0  0  0  0  0  0
   20.6746   -4.3266  -14.7111 O   0  0  0  0  0  0  0  0  0  0  0  0
   22.0742   -3.5201  -13.1370 O   0  0  0  0  0  0  0  0  0  0  0  0
  2  1  1  1
  2  3  1  0
  4  8  1  0
  4  2  1  0
  5  4  2  0
  7  6  1  6
  7  8  1  0
  9  7  1  0
  9 13  1  0
 10  9  2  0
 12 13  1  0
 12 11  1  6
 14 12  1  0
 15 14  2  0
 16 14  1  0
M  END
$$$$
