AAA.pdb
     RDKit          3D

 16 15  0  0  1  0  0  0  0  0999 V2000
   16.8660  -10.6516  -17.5888 C   0  0  0  0  0  0  0  0  0  0  0  0
   17.1235   -9.7992  -16.3769 C   0  0  2  0  0  0  0  0  0  0  0  0
   15.8918   -9.1056  -16.0480 N   0  0  0  0  0  0  0  0  0  0  0  0
   18.1862   -8.7905  -16.5932 C   0  0  0  0  0  0  0  0  0  0  0  0
   19.4067   -9.1065  -16.5461 O   0  0  0  0  0  0  0  0  0  0  0  0
   18.3472   -5.2523  -17.7528 C   0  0  0  0  0  0  0  0  0  0  0  0
   18.9686   -6.4461  -17.0294 C   0  0  2  0  0  0  0  0  0  0  0  0
   17.9063   -7.4187  -16.8642 N   0  0  0  0  0  0  0  0  0  0  0  0
   19.5513   -6.0357  -15.7273 C   0  0  0  0  0  0  0  0  0  0  0  0
   18.7829   -5.8641  -14.7462 O   0  0  0  0  0  0  0  0  0  0  0  0
   22.8657   -6.0672  -14.0272 C   0  0  0  0  0  0  0  0  0  0  0  0
   21.5124   -5.4744  -14.2352 C   0  0  2  0  0  0  0  0  0  0  0  0
   20.9312   -5.8225  -15.5158 N   0  0  0  0  0  0  0  0  0  0  0  0
   21.6028   -4.0039  -14.0500 C   0  0  0  0  0  0  0  0  0  0  0  0
   21.4215   -3.1754  -14.9807 O   0  0  0  0  0  0  0  0  0  0  0  0
   21.8989   -3.5146  -12.8026 O   0  0  0  0  0  0  0  0  0  0  0  0
  2  1  1  6
  2  3  1  0
  4  8  1  0
  4  2  1  0
  5  4  2  0
  7  6  1  1
  7  8  1  0
  9  7  1  0
  9 13  1  0
 10  9  2  0
 12 13  1  0
 12 11  1  6
 14 12  1  0
 15 14  2  0
 16 14  1  0
M  END
$$$$
