AAA.pdb
     RDKit          3D

 16 15  0  0  1  0  0  0  0  0999 V2000
   18.5858  -13.4403  -18.1653 C   0  0  0  0  0  0  0  0  0  0  0  0
   19.3227  -12.2101  -17.7125 C   0  0  2  0  0  0  0  0  0  0  0  0
   20.2386  -12.6006  -16.6567 N   0  0  0  0  0  0  0  0  0  0  0  0
   18.4239  -11.1565  -17.1875 C   0  0  0  0  0  0  0  0  0  0  0  0
   17.5785  -10.5880  -17.9317 O   0  0  0  0  0  0  0  0  0  0  0  0
   17.4240   -9.9219  -13.8350 C   0  0  0  0  0  0  0  0  0  0  0  0
   17.5490   -9.6989  -15.3414 C   0  0  2  0  0  0  0  0  0  0  0  0
   18.4530  -10.7216  -15.8298 N   0  0  0  0  0  0  0  0  0  0  0  0
   18.0466   -8.3321  -15.6381 C   0  0  0  0  0  0  0  0  0  0  0  0
   19.2882   -8.1338  -15.6762 O   0  0  0  0  0  0  0  0  0  0  0  0
   16.5709   -5.0580  -16.8425 C   0  0  0  0  0  0  0  0  0  0  0  0
   17.6728   -5.9374  -16.3544 C   0  0  2  0  0  0  0  0  0  0  0  0
   17.2048   -7.2251  -15.8835 N   0  0  0  0  0  0  0  0  0  0  0  0
   18.4356   -5.2097  -15.3087 C   0  0  0  0  0  0  0  0  0  0  0  0
   18.4511   -5.5523  -14.0971 O   0  0  0  0  0  0  0  0  0  0  0  0
   19.1638   -4.1054  -15.6738 O   0  0  0  0  0  0  0  0  0  0  0  0
  2  1  1  1
  2  3  1  0
  4  8  1  0
  4  2  1  0
  5  4  2  0
  7  6  1  1
  7  8  1  0
  9  7  1  0
  9 13  1  0
 10  9  2  0
 12 13  1  0
 12 11  1  1
 14 12  1  0
 15 14  2  0
 16 14  1  0
M  END
$$$$
