AAA.pdb
     RDKit          3D

 16 15  0  0  1  0  0  0  0  0999 V2000
   22.9461  -12.1015  -15.5662 C   0  0  0  0  0  0  0  0  0  0  0  0
   21.5778  -11.9578  -16.1734 C   0  0  2  0  0  0  0  0  0  0  0  0
   21.6266  -12.4989  -17.5191 N   0  0  0  0  0  0  0  0  0  0  0  0
   21.1229  -10.5504  -16.2502 C   0  0  0  0  0  0  0  0  0  0  0  0
   21.5580   -9.7705  -17.1412 O   0  0  0  0  0  0  0  0  0  0  0  0
   18.4808   -8.4868  -14.6124 C   0  0  0  0  0  0  0  0  0  0  0  0
   19.7684   -8.6047  -15.4267 C   0  0  2  0  0  0  0  0  0  0  0  0
   20.1792   -9.9922  -15.3383 N   0  0  0  0  0  0  0  0  0  0  0  0
   20.8118   -7.6840  -14.9097 C   0  0  0  0  0  0  0  0  0  0  0  0
   21.5531   -8.0735  -13.9709 O   0  0  0  0  0  0  0  0  0  0  0  0
   22.2102   -4.2579  -15.7456 C   0  0  0  0  0  0  0  0  0  0  0  0
   22.0281   -5.4687  -14.8933 C   0  0  2  0  0  0  0  0  0  0  0  0
   21.0289   -6.3815  -15.4103 N   0  0  0  0  0  0  0  0  0  0  0  0
   21.7163   -5.0338  -13.5081 C   0  0  0  0  0  0  0  0  0  0  0  0
   20.5526   -5.0327  -13.0271 O   0  0  0  0  0  0  0  0  0  0  0  0
   22.7444   -4.6097  -12.7043 O   0  0  0  0  0  0  0  0  0  0  0  0
  2  1  1  6
  2  3  1  0
  4  8  1  0
  4  2  1  0
  5  4  2  0
  7  6  1  1
  7  8  1  0
  9  7  1  0
  9 13  1  0
 10  9  2  0
 12 13  1  0
 12 11  1  6
 14 12  1  0
 15 14  2  0
 16 14  1  0
M  END
$$$$
