AAA.pdb
     RDKit          3D

 16 15  0  0  1  0  0  0  0  0999 V2000
   16.1500  -11.3147  -10.1864 C   0  0  0  0  0  0  0  0  0  0  0  0
   15.3561  -10.0705   -9.8978 C   0  0  2  0  0  0  0  0  0  0  0  0
   14.0065  -10.2768  -10.3900 N   0  0  0  0  0  0  0  0  0  0  0  0
   15.9135   -8.8632  -10.5500 C   0  0  0  0  0  0  0  0  0  0  0  0
   15.6704   -8.6029  -11.7603 O   0  0  0  0  0  0  0  0  0  0  0  0
   17.0570   -5.5985   -9.4867 C   0  0  0  0  0  0  0  0  0  0  0  0
   17.2203   -6.7210  -10.5105 C   0  0  2  0  0  0  0  0  0  0  0  0
   16.7474   -7.9305   -9.8659 N   0  0  0  0  0  0  0  0  0  0  0  0
   18.6339   -6.8423  -10.9471 C   0  0  0  0  0  0  0  0  0  0  0  0
   19.4953   -7.2248  -10.1138 O   0  0  0  0  0  0  0  0  0  0  0  0
   20.5530   -6.8482  -14.1945 C   0  0  0  0  0  0  0  0  0  0  0  0
   20.4420   -6.7459  -12.7102 C   0  0  2  0  0  0  0  0  0  0  0  0
   19.0804   -6.5522  -12.2550 N   0  0  0  0  0  0  0  0  0  0  0  0
   21.3424   -5.6635  -12.2386 C   0  0  0  0  0  0  0  0  0  0  0  0
   20.9516   -4.4898  -12.0031 O   0  0  0  0  0  0  0  0  0  0  0  0
   22.6708   -5.9492  -12.0469 O   0  0  0  0  0  0  0  0  0  0  0  0
  2  1  1  6
  2  3  1  0
  4  8  1  0
  4  2  1  0
  5  4  2  0
  7  6  1  1
  7  8  1  0
  9  7  1  0
  9 13  1  0
 10  9  2  0
 12 13  1  0
 12 11  1  6
 14 12  1  0
 15 14  2  0
 16 14  1  0
M  END
$$$$
