HFR.pdb
     RDKit          3D

 33 34  0  0  1  0  0  0  0  0999 V2000
    7.0918  -15.4941   21.3654 N   0  0  0  0  0  0  0  0  0  0  0  0
    8.4882  -15.3301   21.6745 C   0  0  1  0  0  0  0  0  0  0  0  0
    8.9773  -13.9972   21.1624 C   0  0  0  0  0  0  0  0  0  0  0  0
    8.5093  -13.8407   19.7646 C   0  0  0  0  0  0  0  0  0  0  0  0
    7.4183  -13.1356   19.3087 C   0  0  0  0  0  0  0  0  0  0  0  0
    7.3704  -13.2613   17.9693 N   0  0  0  0  0  0  0  0  0  0  0  0
    8.4003  -14.0259   17.5684 C   0  0  0  0  0  0  0  0  0  0  0  0
    9.0890  -14.3734   18.6763 N   0  0  0  0  0  0  0  0  0  0  0  0
    8.7360  -15.5024   23.1274 C   0  0  0  0  0  0  0  0  0  0  0  0
    9.8794  -15.2954   23.6375 O   0  0  0  0  0  0  0  0  0  0  0  0
    7.7578  -15.9018   24.0576 N   0  0  0  0  0  0  0  0  0  0  0  0
    7.9380  -16.0477   25.4573 C   0  0  1  0  0  0  0  0  0  0  0  0
    6.8834  -15.5558   26.3595 C   0  0  0  0  0  0  0  0  0  0  0  0
    6.7735  -14.0797   26.3306 C   0  0  0  0  0  0  0  0  0  0  0  0
    7.7659  -13.2579   26.8241 C   0  0  0  0  0  0  0  0  0  0  0  0
    7.6882  -11.8974   26.8160 C   0  0  0  0  0  0  0  0  0  0  0  0
    6.5702  -11.2792   26.2940 C   0  0  0  0  0  0  0  0  0  0  0  0
    5.5549  -12.0628   25.7904 C   0  0  0  0  0  0  0  0  0  0  0  0
    5.6605  -13.4582   25.8106 C   0  0  0  0  0  0  0  0  0  0  0  0
    8.4081  -17.4302   25.7271 C   0  0  0  0  0  0  0  0  0  0  0  0
    7.7853  -18.4293   25.2827 O   0  0  0  0  0  0  0  0  0  0  0  0
   15.5494  -18.2880   24.1075 N   0  0  0  0  0  0  0  0  0  0  0  0
   14.6722  -17.6379   23.2037 C   0  0  0  0  0  0  0  0  0  0  0  0
   15.0234  -16.8436   22.2779 N   0  0  0  0  0  0  0  0  0  0  0  0
   13.2491  -17.8736   23.3225 N   0  0  0  0  0  0  0  0  0  0  0  0
   12.8114  -18.7173   24.4609 C   0  0  0  0  0  0  0  0  0  0  0  0
   11.3198  -18.7126   24.5466 C   0  0  0  0  0  0  0  0  0  0  0  0
   10.7268  -19.5442   25.5776 C   0  0  0  0  0  0  0  0  0  0  0  0
   10.0216  -19.1040   26.7835 C   0  0  2  0  0  0  0  0  0  0  0  0
    9.5688  -17.6824   26.4890 N   0  0  0  0  0  0  0  0  0  0  0  0
   10.6818  -19.0302   28.0730 C   0  0  0  0  0  0  0  0  0  0  0  0
   11.1203  -20.2093   28.7086 O   0  0  0  0  0  0  0  0  0  0  0  0
   10.9040  -17.9839   28.6911 O   0  0  0  0  0  0  0  0  0  0  0  0
  2  1  1  1
  2  3  1  0
  4  3  1  0
  5  4  2  0
  6  5  1  0
  7  6  1  0
  7  8  2  0
  8  4  1  0
  9  2  1  0
 10  9  2  0
 11  9  1  0
 12 13  1  1
 12 11  1  0
 13 14  1  0
 14 15  2  0
 15 16  1  0
 17 16  2  0
 18 17  1  0
 19 18  2  0
 19 14  1  0
 20 12  1  0
 21 20  2  0
 23 24  2  0
 23 22  1  0
 25 23  1  0
 26 25  1  0
 27 26  1  0
 28 27  1  0
 29 28  1  6
 29 30  1  0
 30 20  1  0
 31 29  1  0
 31 32  1  0
 33 31  2  0
M  END
$$$$
