HFR.pdb
     RDKit          3D

 33 34  0  0  1  0  0  0  0  0999 V2000
    9.1361  -12.5380   18.7187 N   0  0  0  0  0  0  0  0  0  0  0  0
    8.6076  -13.7449   19.2986 C   0  0  1  0  0  0  0  0  0  0  0  0
    9.2774  -14.9495   18.6837 C   0  0  0  0  0  0  0  0  0  0  0  0
    8.8996  -15.0057   17.2514 C   0  0  0  0  0  0  0  0  0  0  0  0
    8.2054  -14.0690   16.5193 C   0  0  0  0  0  0  0  0  0  0  0  0
    8.0886  -14.5275   15.2590 N   0  0  0  0  0  0  0  0  0  0  0  0
    8.6893  -15.7269   15.1764 C   0  0  0  0  0  0  0  0  0  0  0  0
    9.1813  -16.0074   16.4019 N   0  0  0  0  0  0  0  0  0  0  0  0
    8.7307  -13.7237   20.7773 C   0  0  0  0  0  0  0  0  0  0  0  0
    9.8612  -13.6678   21.3511 O   0  0  0  0  0  0  0  0  0  0  0  0
    7.6391  -13.7633   21.6653 N   0  0  0  0  0  0  0  0  0  0  0  0
    7.7078  -13.7764   23.0824 C   0  0  1  0  0  0  0  0  0  0  0  0
    6.5242  -13.3544   23.8500 C   0  0  0  0  0  0  0  0  0  0  0  0
    6.7732  -13.3761   25.3091 C   0  0  0  0  0  0  0  0  0  0  0  0
    7.3452  -12.3110   25.9741 C   0  0  0  0  0  0  0  0  0  0  0  0
    7.5914  -12.3065   27.3144 C   0  0  0  0  0  0  0  0  0  0  0  0
    7.2631  -13.4110   28.0739 C   0  0  0  0  0  0  0  0  0  0  0  0
    6.6895  -14.4971   27.4495 C   0  0  0  0  0  0  0  0  0  0  0  0
    6.4471  -14.4753   26.0713 C   0  0  0  0  0  0  0  0  0  0  0  0
    8.3141  -15.0627   23.5097 C   0  0  0  0  0  0  0  0  0  0  0  0
    7.7352  -16.1594   23.2963 O   0  0  0  0  0  0  0  0  0  0  0  0
   12.7828  -16.2174   19.1598 N   0  0  0  0  0  0  0  0  0  0  0  0
   13.4123  -15.5999   20.2695 C   0  0  0  0  0  0  0  0  0  0  0  0
   14.1439  -14.5637   20.2196 N   0  0  0  0  0  0  0  0  0  0  0  0
   13.2306  -16.1775   21.5841 N   0  0  0  0  0  0  0  0  0  0  0  0
   12.3488  -17.3669   21.6676 C   0  0  0  0  0  0  0  0  0  0  0  0
   11.0830  -17.0065   22.3749 C   0  0  0  0  0  0  0  0  0  0  0  0
   11.1742  -16.8153   23.8106 C   0  0  0  0  0  0  0  0  0  0  0  0
   10.1039  -16.4170   24.7277 C   0  0  2  0  0  0  0  0  0  0  0  0
    9.5605  -15.1109   24.1697 N   0  0  0  0  0  0  0  0  0  0  0  0
   10.3571  -16.1515   26.1311 C   0  0  0  0  0  0  0  0  0  0  0  0
   10.4493  -17.2204   27.0450 O   0  0  0  0  0  0  0  0  0  0  0  0
   10.5053  -15.0261   26.6189 O   0  0  0  0  0  0  0  0  0  0  0  0
  2  1  1  6
  2  3  1  0
  4  3  1  0
  5  4  2  0
  6  5  1  0
  7  6  1  0
  7  8  2  0
  8  4  1  0
  9  2  1  0
 10  9  2  0
 11  9  1  0
 12 13  1  1
 12 11  1  0
 13 14  1  0
 14 15  2  0
 15 16  1  0
 17 16  2  0
 18 17  1  0
 19 18  2  0
 19 14  1  0
 20 12  1  0
 21 20  2  0
 23 24  2  0
 23 22  1  0
 25 23  1  0
 26 25  1  0
 27 26  1  0
 28 27  1  0
 29 28  1  6
 29 30  1  0
 30 20  1  0
 31 29  1  0
 31 32  1  0
 33 31  2  0
M  END
$$$$
