HFR.pdb
     RDKit          3D

 33 34  0  0  1  0  0  0  0  0999 V2000
   10.1891  -16.6272   19.2547 N   0  0  0  0  0  0  0  0  0  0  0  0
    8.8808  -16.3937   19.8081 C   0  0  1  0  0  0  0  0  0  0  0  0
    8.0585  -17.6574   19.7402 C   0  0  0  0  0  0  0  0  0  0  0  0
    7.7721  -17.9448   18.3144 C   0  0  0  0  0  0  0  0  0  0  0  0
    7.6003  -17.0464   17.2854 C   0  0  0  0  0  0  0  0  0  0  0  0
    7.3622  -17.7435   16.1586 N   0  0  0  0  0  0  0  0  0  0  0  0
    7.3789  -19.0556   16.4487 C   0  0  0  0  0  0  0  0  0  0  0  0
    7.6309  -19.1648   17.7705 N   0  0  0  0  0  0  0  0  0  0  0  0
    8.9743  -15.8541   21.1873 C   0  0  0  0  0  0  0  0  0  0  0  0
    9.9096  -16.1952   21.9743 O   0  0  0  0  0  0  0  0  0  0  0  0
    8.0622  -14.9382   21.7449 N   0  0  0  0  0  0  0  0  0  0  0  0
    8.1025  -14.4056   23.0593 C   0  0  1  0  0  0  0  0  0  0  0  0
    7.2775  -13.2256   23.3680 C   0  0  0  0  0  0  0  0  0  0  0  0
    7.3816  -12.8336   24.7917 C   0  0  0  0  0  0  0  0  0  0  0  0
    8.3944  -12.0214   25.2593 C   0  0  0  0  0  0  0  0  0  0  0  0
    8.5179  -11.6503   26.5647 C   0  0  0  0  0  0  0  0  0  0  0  0
    7.5976  -12.0945   27.4922 C   0  0  0  0  0  0  0  0  0  0  0  0
    6.5697  -12.9080   27.0676 C   0  0  0  0  0  0  0  0  0  0  0  0
    6.4659  -13.2738   25.7207 C   0  0  0  0  0  0  0  0  0  0  0  0
    7.9864  -15.5291   24.0232 C   0  0  0  0  0  0  0  0  0  0  0  0
    7.0095  -16.3214   23.9871 O   0  0  0  0  0  0  0  0  0  0  0  0
   11.8030  -20.0593   21.3562 N   0  0  0  0  0  0  0  0  0  0  0  0
   12.2384  -20.8501   22.4489 C   0  0  0  0  0  0  0  0  0  0  0  0
   13.2874  -21.5646   22.4702 N   0  0  0  0  0  0  0  0  0  0  0  0
   11.4397  -20.8713   23.6558 N   0  0  0  0  0  0  0  0  0  0  0  0
   10.2085  -20.0446   23.6484 C   0  0  0  0  0  0  0  0  0  0  0  0
   10.2691  -19.0415   24.7541 C   0  0  0  0  0  0  0  0  0  0  0  0
    9.1543  -18.1177   24.8535 C   0  0  0  0  0  0  0  0  0  0  0  0
    8.9712  -17.0415   25.8299 C   0  0  2  0  0  0  0  0  0  0  0  0
    8.9628  -15.7566   25.0165 N   0  0  0  0  0  0  0  0  0  0  0  0
    9.9242  -16.8058   26.8978 C   0  0  0  0  0  0  0  0  0  0  0  0
    9.9518  -17.6596   28.0187 O   0  0  0  0  0  0  0  0  0  0  0  0
   10.7486  -15.8858   26.9150 O   0  0  0  0  0  0  0  0  0  0  0  0
  2  1  1  1
  2  3  1  0
  4  3  1  0
  5  4  2  0
  6  5  1  0
  7  6  1  0
  7  8  2  0
  8  4  1  0
  9  2  1  0
 10  9  2  0
 11  9  1  0
 12 13  1  6
 12 11  1  0
 13 14  1  0
 14 15  2  0
 15 16  1  0
 17 16  2  0
 18 17  1  0
 19 18  2  0
 19 14  1  0
 20 12  1  0
 21 20  2  0
 23 24  2  0
 23 22  1  0
 25 23  1  0
 26 25  1  0
 27 26  1  0
 28 27  1  0
 29 28  1  6
 29 30  1  0
 30 20  1  0
 31 29  1  0
 31 32  1  0
 33 31  2  0
M  END
$$$$
