HFR.pdb
     RDKit          3D

 33 34  0  0  1  0  0  0  0  0999 V2000
   10.8737  -16.8885   20.1298 N   0  0  0  0  0  0  0  0  0  0  0  0
    9.6057  -17.0289   20.7966 C   0  0  1  0  0  0  0  0  0  0  0  0
    9.3959  -18.4653   21.2097 C   0  0  0  0  0  0  0  0  0  0  0  0
    8.7148  -19.1699   20.0975 C   0  0  0  0  0  0  0  0  0  0  0  0
    8.3577  -18.6673   18.8665 C   0  0  0  0  0  0  0  0  0  0  0  0
    7.7651  -19.6544   18.1689 N   0  0  0  0  0  0  0  0  0  0  0  0
    7.7385  -20.7647   18.9256 C   0  0  0  0  0  0  0  0  0  0  0  0
    8.3227  -20.4546   20.1026 N   0  0  0  0  0  0  0  0  0  0  0  0
    9.4989  -16.0906   21.9413 C   0  0  0  0  0  0  0  0  0  0  0  0
   10.4919  -15.8367   22.6895 O   0  0  0  0  0  0  0  0  0  0  0  0
    8.3211  -15.4093   22.3020 N   0  0  0  0  0  0  0  0  0  0  0  0
    8.1697  -14.5077   23.3870 C   0  0  1  0  0  0  0  0  0  0  0  0
    7.0052  -13.6066   23.3982 C   0  0  0  0  0  0  0  0  0  0  0  0
    6.9255  -12.8194   24.6495 C   0  0  0  0  0  0  0  0  0  0  0  0
    7.7760  -11.7648   24.9110 C   0  0  0  0  0  0  0  0  0  0  0  0
    7.7291  -11.0278   26.0562 C   0  0  0  0  0  0  0  0  0  0  0  0
    6.7932  -11.3279   27.0250 C   0  0  0  0  0  0  0  0  0  0  0  0
    5.9239  -12.3739   26.8042 C   0  0  0  0  0  0  0  0  0  0  0  0
    5.9935  -13.1145   25.6187 C   0  0  0  0  0  0  0  0  0  0  0  0
    8.4072  -15.2513   24.6501 C   0  0  0  0  0  0  0  0  0  0  0  0
    8.7372  -14.6533   25.7069 O   0  0  0  0  0  0  0  0  0  0  0  0
    8.3184  -21.7460   28.1889 N   0  0  0  0  0  0  0  0  0  0  0  0
    6.9672  -22.1543   28.3182 C   0  0  0  0  0  0  0  0  0  0  0  0
    6.5157  -22.9376   29.2092 N   0  0  0  0  0  0  0  0  0  0  0  0
    5.9954  -21.6588   27.3669 N   0  0  0  0  0  0  0  0  0  0  0  0
    6.5235  -20.8441   26.2458 C   0  0  0  0  0  0  0  0  0  0  0  0
    7.1380  -19.5913   26.7798 C   0  0  0  0  0  0  0  0  0  0  0  0
    7.7361  -18.6963   25.8065 C   0  0  0  0  0  0  0  0  0  0  0  0
    8.3391  -17.3844   26.0525 C   0  0  2  0  0  0  0  0  0  0  0  0
    8.2726  -16.6543   24.7201 N   0  0  0  0  0  0  0  0  0  0  0  0
    9.7143  -17.2436   26.4917 C   0  0  0  0  0  0  0  0  0  0  0  0
   10.0323  -17.3586   27.8599 O   0  0  0  0  0  0  0  0  0  0  0  0
   10.6728  -17.0227   25.7441 O   0  0  0  0  0  0  0  0  0  0  0  0
  2  1  1  1
  2  3  1  0
  4  3  1  0
  5  4  2  0
  6  5  1  0
  7  6  1  0
  7  8  2  0
  8  4  1  0
  9  2  1  0
 10  9  2  0
 11  9  1  0
 12 13  1  1
 12 11  1  0
 13 14  1  0
 14 15  2  0
 15 16  1  0
 17 16  2  0
 18 17  1  0
 19 18  2  0
 19 14  1  0
 20 12  1  0
 21 20  2  0
 23 24  2  0
 23 22  1  0
 25 23  1  0
 26 25  1  0
 27 26  1  0
 28 27  1  0
 29 28  1  6
 29 30  1  0
 30 20  1  0
 31 29  1  0
 31 32  1  0
 33 31  2  0
M  END
$$$$
