HFR.pdb
     RDKit          3D

 33 34  0  0  1  0  0  0  0  0999 V2000
    7.9396  -16.3071   21.2689 N   0  0  0  0  0  0  0  0  0  0  0  0
    8.6493  -15.1314   21.7006 C   0  0  1  0  0  0  0  0  0  0  0  0
    8.0204  -13.8986   21.0985 C   0  0  0  0  0  0  0  0  0  0  0  0
    8.0814  -14.0240   19.6228 C   0  0  0  0  0  0  0  0  0  0  0  0
    8.8247  -13.2764   18.7374 C   0  0  0  0  0  0  0  0  0  0  0  0
    8.5779  -13.7337   17.4955 N   0  0  0  0  0  0  0  0  0  0  0  0
    7.7000  -14.7482   17.5734 C   0  0  0  0  0  0  0  0  0  0  0  0
    7.4047  -14.9156   18.8801 N   0  0  0  0  0  0  0  0  0  0  0  0
    8.7183  -15.0646   23.1814 C   0  0  0  0  0  0  0  0  0  0  0  0
    9.6638  -14.4642   23.7780 O   0  0  0  0  0  0  0  0  0  0  0  0
    7.7712  -15.6437   24.0472 N   0  0  0  0  0  0  0  0  0  0  0  0
    7.8850  -15.7682   25.4559 C   0  0  1  0  0  0  0  0  0  0  0  0
    6.7934  -15.2540   26.3000 C   0  0  0  0  0  0  0  0  0  0  0  0
    6.8307  -13.7787   26.4163 C   0  0  0  0  0  0  0  0  0  0  0  0
    7.8729  -13.1148   27.0302 C   0  0  0  0  0  0  0  0  0  0  0  0
    7.9298  -11.7592   27.1568 C   0  0  0  0  0  0  0  0  0  0  0  0
    6.9057  -10.9817   26.6553 C   0  0  0  0  0  0  0  0  0  0  0  0
    5.8450  -11.6044   26.0342 C   0  0  0  0  0  0  0  0  0  0  0  0
    5.8118  -12.9987   25.9173 C   0  0  0  0  0  0  0  0  0  0  0  0
    8.3309  -17.1494   25.7692 C   0  0  0  0  0  0  0  0  0  0  0  0
    7.8346  -18.1445   25.1801 O   0  0  0  0  0  0  0  0  0  0  0  0
   10.5743  -18.7585   20.9155 N   0  0  0  0  0  0  0  0  0  0  0  0
   11.9545  -18.5987   21.1956 C   0  0  0  0  0  0  0  0  0  0  0  0
   12.8800  -18.5341   20.3292 N   0  0  0  0  0  0  0  0  0  0  0  0
   12.3789  -18.5030   22.5760 N   0  0  0  0  0  0  0  0  0  0  0  0
   11.6835  -19.3853   23.5442 C   0  0  0  0  0  0  0  0  0  0  0  0
   11.0198  -18.5556   24.5947 C   0  0  0  0  0  0  0  0  0  0  0  0
   10.2566  -19.2714   25.6003 C   0  0  0  0  0  0  0  0  0  0  0  0
    9.8846  -18.8051   26.9380 C   0  0  2  0  0  0  0  0  0  0  0  0
    9.3268  -17.4048   26.7358 N   0  0  0  0  0  0  0  0  0  0  0  0
   10.8614  -18.6722   28.0020 C   0  0  0  0  0  0  0  0  0  0  0  0
   11.2396  -17.3924   28.4555 O   0  0  0  0  0  0  0  0  0  0  0  0
   11.4156  -19.6185   28.5709 O   0  0  0  0  0  0  0  0  0  0  0  0
  2  1  1  1
  2  3  1  0
  4  3  1  0
  5  4  2  0
  6  5  1  0
  7  6  1  0
  7  8  2  0
  8  4  1  0
  9  2  1  0
 10  9  2  0
 11  9  1  0
 12 13  1  1
 12 11  1  0
 13 14  1  0
 14 15  2  0
 15 16  1  0
 17 16  2  0
 18 17  1  0
 19 18  2  0
 19 14  1  0
 20 12  1  0
 21 20  2  0
 23 24  2  0
 23 22  1  0
 25 23  1  0
 26 25  1  0
 27 26  1  0
 28 27  1  0
 29 28  1  6
 29 30  1  0
 30 20  1  0
 31 29  1  0
 31 32  1  0
 33 31  2  0
M  END
$$$$
