HFR.pdb
     RDKit          3D

 33 34  0  0  1  0  0  0  0  0999 V2000
    8.3545  -16.1294   21.5576 N   0  0  0  0  0  0  0  0  0  0  0  0
    9.4048  -15.2785   22.0528 C   0  0  1  0  0  0  0  0  0  0  0  0
    9.2206  -13.8742   21.5313 C   0  0  0  0  0  0  0  0  0  0  0  0
    8.7148  -13.9617   20.1407 C   0  0  0  0  0  0  0  0  0  0  0  0
    8.4984  -15.0925   19.3857 C   0  0  0  0  0  0  0  0  0  0  0  0
    8.0330  -14.7079   18.1825 N   0  0  0  0  0  0  0  0  0  0  0  0
    7.9502  -13.3668   18.1580 C   0  0  0  0  0  0  0  0  0  0  0  0
    8.3700  -12.9230   19.3619 N   0  0  0  0  0  0  0  0  0  0  0  0
    9.4752  -15.3262   23.5343 C   0  0  0  0  0  0  0  0  0  0  0  0
   10.3608  -14.6868   24.1802 O   0  0  0  0  0  0  0  0  0  0  0  0
    8.5942  -16.0639   24.3475 N   0  0  0  0  0  0  0  0  0  0  0  0
    8.5362  -16.0372   25.7648 C   0  0  1  0  0  0  0  0  0  0  0  0
    7.2854  -15.6067   26.4117 C   0  0  0  0  0  0  0  0  0  0  0  0
    7.1022  -14.1393   26.3427 C   0  0  0  0  0  0  0  0  0  0  0  0
    7.6766  -13.2820   27.2587 C   0  0  0  0  0  0  0  0  0  0  0  0
    7.5196  -11.9288   27.2228 C   0  0  0  0  0  0  0  0  0  0  0  0
    6.7508  -11.3555   26.2304 C   0  0  0  0  0  0  0  0  0  0  0  0
    6.1587  -12.1756   25.2947 C   0  0  0  0  0  0  0  0  0  0  0  0
    6.3367  -13.5625   25.3545 C   0  0  0  0  0  0  0  0  0  0  0  0
    9.1123  -17.3047   26.2808 C   0  0  0  0  0  0  0  0  0  0  0  0
    8.7052  -17.8162   27.3560 O   0  0  0  0  0  0  0  0  0  0  0  0
   12.6773  -20.6371   19.9719 N   0  0  0  0  0  0  0  0  0  0  0  0
   11.2613  -20.6997   19.9652 C   0  0  0  0  0  0  0  0  0  0  0  0
   10.5377  -20.9171   18.9452 N   0  0  0  0  0  0  0  0  0  0  0  0
   10.5490  -20.4980   21.2089 N   0  0  0  0  0  0  0  0  0  0  0  0
   11.3785  -20.2551   22.4140 C   0  0  0  0  0  0  0  0  0  0  0  0
   10.5014  -20.1750   23.6210 C   0  0  0  0  0  0  0  0  0  0  0  0
   11.1698  -20.0106   24.8986 C   0  0  0  0  0  0  0  0  0  0  0  0
   10.6631  -19.3245   26.0893 C   0  0  2  0  0  0  0  0  0  0  0  0
   10.1358  -17.9882   25.5904 N   0  0  0  0  0  0  0  0  0  0  0  0
   11.5248  -18.9959   27.2089 C   0  0  0  0  0  0  0  0  0  0  0  0
   11.7566  -19.9473   28.2226 O   0  0  0  0  0  0  0  0  0  0  0  0
   12.0981  -17.9122   27.3615 O   0  0  0  0  0  0  0  0  0  0  0  0
  2  1  1  1
  2  3  1  0
  4  3  1  0
  5  4  2  0
  6  5  1  0
  7  6  1  0
  7  8  2  0
  8  4  1  0
  9  2  1  0
 10  9  2  0
 11  9  1  0
 12 13  1  6
 12 11  1  0
 13 14  1  0
 14 15  2  0
 15 16  1  0
 17 16  2  0
 18 17  1  0
 19 18  2  0
 19 14  1  0
 20 12  1  0
 21 20  2  0
 23 24  2  0
 23 22  1  0
 25 23  1  0
 26 25  1  0
 27 26  1  0
 28 27  1  0
 29 28  1  6
 29 30  1  0
 30 20  1  0
 31 29  1  0
 31 32  1  0
 33 31  2  0
M  END
$$$$
