HFR.pdb
     RDKit          3D

 33 34  0  0  1  0  0  0  0  0999 V2000
   10.4567  -16.6352   19.5405 N   0  0  0  0  0  0  0  0  0  0  0  0
    9.2640  -16.8604   20.3146 C   0  0  1  0  0  0  0  0  0  0  0  0
    9.0604  -18.3402   20.5304 C   0  0  0  0  0  0  0  0  0  0  0  0
    8.6450  -18.9411   19.2405 C   0  0  0  0  0  0  0  0  0  0  0  0
    9.3855  -19.0712   18.0872 C   0  0  0  0  0  0  0  0  0  0  0  0
    8.6162  -19.6775   17.1637 N   0  0  0  0  0  0  0  0  0  0  0  0
    7.4118  -19.9329   17.7025 C   0  0  0  0  0  0  0  0  0  0  0  0
    7.4429  -19.4776   18.9731 N   0  0  0  0  0  0  0  0  0  0  0  0
    9.3064  -16.1041   21.5907 C   0  0  0  0  0  0  0  0  0  0  0  0
   10.3985  -15.8826   22.1979 O   0  0  0  0  0  0  0  0  0  0  0  0
    8.1740  -15.5733   22.2368 N   0  0  0  0  0  0  0  0  0  0  0  0
    8.1668  -14.8270   23.4434 C   0  0  1  0  0  0  0  0  0  0  0  0
    7.1007  -13.8329   23.6517 C   0  0  0  0  0  0  0  0  0  0  0  0
    7.1786  -13.2092   24.9920 C   0  0  0  0  0  0  0  0  0  0  0  0
    6.4458  -13.6750   26.0643 C   0  0  0  0  0  0  0  0  0  0  0  0
    6.4933  -13.1166   27.3065 C   0  0  0  0  0  0  0  0  0  0  0  0
    7.3074  -12.0260   27.5354 C   0  0  0  0  0  0  0  0  0  0  0  0
    8.0567  -11.5284   26.4916 C   0  0  0  0  0  0  0  0  0  0  0  0
    7.9894  -12.1214   25.2256 C   0  0  0  0  0  0  0  0  0  0  0  0
    8.3892  -15.7633   24.5742 C   0  0  0  0  0  0  0  0  0  0  0  0
    7.5397  -16.6435   24.8691 O   0  0  0  0  0  0  0  0  0  0  0  0
   12.3089  -20.0510   20.6053 N   0  0  0  0  0  0  0  0  0  0  0  0
   12.4339  -19.3877   21.8516 C   0  0  0  0  0  0  0  0  0  0  0  0
   13.1355  -18.3523   22.0687 N   0  0  0  0  0  0  0  0  0  0  0  0
   11.7186  -19.9125   22.9952 N   0  0  0  0  0  0  0  0  0  0  0  0
   11.9508  -19.2294   24.2908 C   0  0  0  0  0  0  0  0  0  0  0  0
   10.7639  -18.3906   24.6374 C   0  0  0  0  0  0  0  0  0  0  0  0
   10.8406  -17.6388   25.8764 C   0  0  0  0  0  0  0  0  0  0  0  0
    9.8278  -16.7446   26.4420 C   0  0  2  0  0  0  0  0  0  0  0  0
    9.5581  -15.7076   25.3629 N   0  0  0  0  0  0  0  0  0  0  0  0
   10.0710  -15.9783   27.6494 C   0  0  0  0  0  0  0  0  0  0  0  0
    9.8692  -16.5705   28.9124 O   0  0  0  0  0  0  0  0  0  0  0  0
   10.4548  -14.8043   27.6725 O   0  0  0  0  0  0  0  0  0  0  0  0
  2  1  1  1
  2  3  1  0
  4  3  1  0
  5  4  2  0
  6  5  1  0
  7  6  1  0
  7  8  2  0
  8  4  1  0
  9  2  1  0
 10  9  2  0
 11  9  1  0
 12 13  1  1
 12 11  1  0
 13 14  1  0
 14 15  2  0
 15 16  1  0
 17 16  2  0
 18 17  1  0
 19 18  2  0
 19 14  1  0
 20 12  1  0
 21 20  2  0
 23 24  2  0
 23 22  1  0
 25 23  1  0
 26 25  1  0
 27 26  1  0
 28 27  1  0
 29 28  1  6
 29 30  1  0
 30 20  1  0
 31 29  1  0
 31 32  1  0
 33 31  2  0
M  END
$$$$
