HFR.pdb
     RDKit          3D

 33 34  0  0  1  0  0  0  0  0999 V2000
    8.2793  -15.7642   19.6919 N   0  0  0  0  0  0  0  0  0  0  0  0
    8.9716  -14.5834   20.1377 C   0  0  1  0  0  0  0  0  0  0  0  0
    8.4480  -13.3711   19.4068 C   0  0  0  0  0  0  0  0  0  0  0  0
    8.4768  -13.6613   17.9534 C   0  0  0  0  0  0  0  0  0  0  0  0
    8.8979  -14.8120   17.3257 C   0  0  0  0  0  0  0  0  0  0  0  0
    8.7478  -14.6421   15.9987 N   0  0  0  0  0  0  0  0  0  0  0  0
    8.2443  -13.4168   15.7726 C   0  0  0  0  0  0  0  0  0  0  0  0
    8.0831  -12.8276   16.9765 N   0  0  0  0  0  0  0  0  0  0  0  0
    8.8809  -14.4372   21.6116 C   0  0  0  0  0  0  0  0  0  0  0  0
    9.3811  -13.4386   22.2141 O   0  0  0  0  0  0  0  0  0  0  0  0
    8.2509  -15.3637   22.4639 N   0  0  0  0  0  0  0  0  0  0  0  0
    8.2327  -15.3246   23.8821 C   0  0  1  0  0  0  0  0  0  0  0  0
    6.9403  -15.4578   24.5749 C   0  0  0  0  0  0  0  0  0  0  0  0
    6.5766  -14.2260   25.3113 C   0  0  0  0  0  0  0  0  0  0  0  0
    5.6834  -14.2338   26.3629 C   0  0  0  0  0  0  0  0  0  0  0  0
    5.3261  -13.1148   27.0537 C   0  0  0  0  0  0  0  0  0  0  0  0
    5.8685  -11.8943   26.7066 C   0  0  0  0  0  0  0  0  0  0  0  0
    6.7652  -11.8414   25.6617 C   0  0  0  0  0  0  0  0  0  0  0  0
    7.1153  -13.0061   24.9692 C   0  0  0  0  0  0  0  0  0  0  0  0
    9.3163  -16.2044   24.3885 C   0  0  0  0  0  0  0  0  0  0  0  0
    9.8216  -17.1003   23.6635 O   0  0  0  0  0  0  0  0  0  0  0  0
   15.1267  -16.3666   21.1264 N   0  0  0  0  0  0  0  0  0  0  0  0
   13.7696  -16.2087   20.7490 C   0  0  0  0  0  0  0  0  0  0  0  0
   13.3603  -15.8491   19.6025 N   0  0  0  0  0  0  0  0  0  0  0  0
   12.7386  -16.4661   21.7315 N   0  0  0  0  0  0  0  0  0  0  0  0
   13.1619  -17.1729   22.9646 C   0  0  0  0  0  0  0  0  0  0  0  0
   11.9711  -17.4372   23.8274 C   0  0  0  0  0  0  0  0  0  0  0  0
   11.9977  -16.8673   25.1618 C   0  0  0  0  0  0  0  0  0  0  0  0
   10.9603  -16.9574   26.1917 C   0  0  2  0  0  0  0  0  0  0  0  0
    9.8250  -16.0740   25.6983 N   0  0  0  0  0  0  0  0  0  0  0  0
   11.1995  -16.5358   27.5589 C   0  0  0  0  0  0  0  0  0  0  0  0
   10.6023  -15.3564   28.0473 O   0  0  0  0  0  0  0  0  0  0  0  0
   11.9093  -17.1419   28.3683 O   0  0  0  0  0  0  0  0  0  0  0  0
  2  1  1  6
  2  3  1  0
  4  3  1  0
  5  4  2  0
  6  5  1  0
  7  6  1  0
  7  8  2  0
  8  4  1  0
  9  2  1  0
 10  9  2  0
 11  9  1  0
 12 13  1  1
 12 11  1  0
 13 14  1  0
 14 15  2  0
 15 16  1  0
 17 16  2  0
 18 17  1  0
 19 18  2  0
 19 14  1  0
 20 12  1  0
 21 20  2  0
 23 24  2  0
 23 22  1  0
 25 23  1  0
 26 25  1  0
 27 26  1  0
 28 27  1  0
 29 28  1  6
 29 30  1  0
 30 20  1  0
 31 29  1  0
 31 32  1  0
 33 31  2  0
M  END
$$$$
