HFR.pdb
     RDKit          3D

 33 34  0  0  1  0  0  0  0  0999 V2000
    8.3922  -15.5216   19.1376 N   0  0  0  0  0  0  0  0  0  0  0  0
    9.1675  -14.3409   19.4154 C   0  0  1  0  0  0  0  0  0  0  0  0
    8.6685  -13.1872   18.5801 C   0  0  0  0  0  0  0  0  0  0  0  0
    8.6605  -13.6154   17.1610 C   0  0  0  0  0  0  0  0  0  0  0  0
    9.7328  -13.7443   16.3072 C   0  0  0  0  0  0  0  0  0  0  0  0
    9.2686  -14.1619   15.1146 N   0  0  0  0  0  0  0  0  0  0  0  0
    7.9341  -14.2995   15.1927 C   0  0  0  0  0  0  0  0  0  0  0  0
    7.5751  -13.9623   16.4497 N   0  0  0  0  0  0  0  0  0  0  0  0
    9.1641  -14.0306   20.8666 C   0  0  0  0  0  0  0  0  0  0  0  0
    9.9004  -13.1197   21.3549 O   0  0  0  0  0  0  0  0  0  0  0  0
    8.3688  -14.6959   21.8187 N   0  0  0  0  0  0  0  0  0  0  0  0
    8.2143  -14.3383   23.1830 C   0  0  1  0  0  0  0  0  0  0  0  0
    6.9012  -13.8544   23.6411 C   0  0  0  0  0  0  0  0  0  0  0  0
    6.9483  -13.3608   25.0360 C   0  0  0  0  0  0  0  0  0  0  0  0
    7.5873  -12.1874   25.3804 C   0  0  0  0  0  0  0  0  0  0  0  0
    7.6515  -11.7130   26.6563 C   0  0  0  0  0  0  0  0  0  0  0  0
    7.0561  -12.4214   27.6801 C   0  0  0  0  0  0  0  0  0  0  0  0
    6.4069  -13.5992   27.3801 C   0  0  0  0  0  0  0  0  0  0  0  0
    6.3556  -14.0635   26.0608 C   0  0  0  0  0  0  0  0  0  0  0  0
    8.8228  -15.4046   24.0181 C   0  0  0  0  0  0  0  0  0  0  0  0
    8.7153  -15.3924   25.2718 O   0  0  0  0  0  0  0  0  0  0  0  0
   12.8145  -16.2641   18.5649 N   0  0  0  0  0  0  0  0  0  0  0  0
   13.4832  -15.5433   19.5857 C   0  0  0  0  0  0  0  0  0  0  0  0
   14.3461  -14.6310   19.4000 N   0  0  0  0  0  0  0  0  0  0  0  0
   13.1841  -15.8526   20.9677 N   0  0  0  0  0  0  0  0  0  0  0  0
   13.1692  -17.2892   21.3354 C   0  0  0  0  0  0  0  0  0  0  0  0
   11.8814  -17.6212   22.0163 C   0  0  0  0  0  0  0  0  0  0  0  0
   11.7807  -17.2695   23.4206 C   0  0  0  0  0  0  0  0  0  0  0  0
   10.5745  -17.2482   24.2512 C   0  0  2  0  0  0  0  0  0  0  0  0
    9.5437  -16.4737   23.4447 N   0  0  0  0  0  0  0  0  0  0  0  0
   10.5610  -16.6371   25.5667 C   0  0  0  0  0  0  0  0  0  0  0  0
   10.2806  -17.4203   26.7045 O   0  0  0  0  0  0  0  0  0  0  0  0
   10.7819  -15.4424   25.7901 O   0  0  0  0  0  0  0  0  0  0  0  0
  2  1  1  1
  2  3  1  0
  4  3  1  0
  5  4  2  0
  6  5  1  0
  7  6  1  0
  7  8  2  0
  8  4  1  0
  9  2  1  0
 10  9  2  0
 11  9  1  0
 12 13  1  1
 12 11  1  0
 13 14  1  0
 14 15  2  0
 15 16  1  0
 17 16  2  0
 18 17  1  0
 19 18  2  0
 19 14  1  0
 20 12  1  0
 21 20  2  0
 23 24  2  0
 23 22  1  0
 25 23  1  0
 26 25  1  0
 27 26  1  0
 28 27  1  0
 29 28  1  6
 29 30  1  0
 30 20  1  0
 31 29  1  0
 31 32  1  0
 33 31  2  0
M  END
$$$$
