HFR.pdb
     RDKit          3D

 33 34  0  0  1  0  0  0  0  0999 V2000
    8.3539  -16.3378   19.5889 N   0  0  0  0  0  0  0  0  0  0  0  0
    9.4806  -15.4863   19.8674 C   0  0  1  0  0  0  0  0  0  0  0  0
    9.6896  -14.5176   18.7291 C   0  0  0  0  0  0  0  0  0  0  0  0
    9.4497  -15.2416   17.4580 C   0  0  0  0  0  0  0  0  0  0  0  0
   10.3691  -15.8878   16.6627 C   0  0  0  0  0  0  0  0  0  0  0  0
    9.7147  -16.4096   15.6083 N   0  0  0  0  0  0  0  0  0  0  0  0
    8.4091  -16.1103   15.7167 C   0  0  0  0  0  0  0  0  0  0  0  0
    8.2606  -15.3959   16.8525 N   0  0  0  0  0  0  0  0  0  0  0  0
    9.3187  -14.7981   21.1722 C   0  0  0  0  0  0  0  0  0  0  0  0
   10.2553  -14.1120   21.6844 O   0  0  0  0  0  0  0  0  0  0  0  0
    8.1459  -14.8368   21.9498 N   0  0  0  0  0  0  0  0  0  0  0  0
    7.9989  -14.3512   23.2748 C   0  0  1  0  0  0  0  0  0  0  0  0
    6.9988  -13.3022   23.5348 C   0  0  0  0  0  0  0  0  0  0  0  0
    6.9925  -12.8821   24.9544 C   0  0  0  0  0  0  0  0  0  0  0  0
    6.3066  -13.5817   25.9260 C   0  0  0  0  0  0  0  0  0  0  0  0
    6.2786  -13.2144   27.2379 C   0  0  0  0  0  0  0  0  0  0  0  0
    6.9617  -12.0874   27.6475 C   0  0  0  0  0  0  0  0  0  0  0  0
    7.6601  -11.3591   26.7091 C   0  0  0  0  0  0  0  0  0  0  0  0
    7.6727  -11.7589   25.3680 C   0  0  0  0  0  0  0  0  0  0  0  0
    7.9513  -15.5141   24.1968 C   0  0  0  0  0  0  0  0  0  0  0  0
    6.9593  -16.2880   24.2200 O   0  0  0  0  0  0  0  0  0  0  0  0
   11.1254  -19.5357   20.3735 N   0  0  0  0  0  0  0  0  0  0  0  0
   11.9156  -20.4000   21.1719 C   0  0  0  0  0  0  0  0  0  0  0  0
   12.9774  -20.9855   20.7960 N   0  0  0  0  0  0  0  0  0  0  0  0
   11.5023  -20.6627   22.5338 N   0  0  0  0  0  0  0  0  0  0  0  0
   10.2523  -20.0040   22.9841 C   0  0  0  0  0  0  0  0  0  0  0  0
   10.5820  -18.7362   23.7027 C   0  0  0  0  0  0  0  0  0  0  0  0
    9.4593  -17.9545   24.1871 C   0  0  0  0  0  0  0  0  0  0  0  0
    9.3555  -17.2342   25.4581 C   0  0  2  0  0  0  0  0  0  0  0  0
    9.0120  -15.8012   25.0822 N   0  0  0  0  0  0  0  0  0  0  0  0
   10.4774  -17.1262   26.3713 C   0  0  0  0  0  0  0  0  0  0  0  0
   11.3707  -16.0413   26.2646 O   0  0  0  0  0  0  0  0  0  0  0  0
   10.7320  -17.9327   27.2718 O   0  0  0  0  0  0  0  0  0  0  0  0
  2  1  1  6
  2  3  1  0
  4  3  1  0
  5  4  2  0
  6  5  1  0
  7  6  1  0
  7  8  2  0
  8  4  1  0
  9  2  1  0
 10  9  2  0
 11  9  1  0
 12 13  1  6
 12 11  1  0
 13 14  1  0
 14 15  2  0
 15 16  1  0
 17 16  2  0
 18 17  1  0
 19 18  2  0
 19 14  1  0
 20 12  1  0
 21 20  2  0
 23 24  2  0
 23 22  1  0
 25 23  1  0
 26 25  1  0
 27 26  1  0
 28 27  1  0
 29 28  1  6
 29 30  1  0
 30 20  1  0
 31 29  1  0
 31 32  1  0
 33 31  2  0
M  END
$$$$
