HFR.pdb
     RDKit          3D

 33 34  0  0  1  0  0  0  0  0999 V2000
    9.2734  -18.0140   21.2331 N   0  0  0  0  0  0  0  0  0  0  0  0
   10.4528  -17.2156   21.4425 C   0  0  1  0  0  0  0  0  0  0  0  0
   10.9739  -16.7077   20.1202 C   0  0  0  0  0  0  0  0  0  0  0  0
   10.7525  -17.7620   19.1020 C   0  0  0  0  0  0  0  0  0  0  0  0
   10.3292  -19.0571   19.2994 C   0  0  0  0  0  0  0  0  0  0  0  0
   10.2636  -19.6620   18.0985 N   0  0  0  0  0  0  0  0  0  0  0  0
   10.6338  -18.7847   17.1502 C   0  0  0  0  0  0  0  0  0  0  0  0
   10.9300  -17.6265   17.7775 N   0  0  0  0  0  0  0  0  0  0  0  0
   10.1888  -16.1174   22.4050 C   0  0  0  0  0  0  0  0  0  0  0  0
   11.0972  -15.3014   22.7504 O   0  0  0  0  0  0  0  0  0  0  0  0
    8.9423  -15.8782   23.0140 N   0  0  0  0  0  0  0  0  0  0  0  0
    8.6757  -14.9390   24.0435 C   0  0  1  0  0  0  0  0  0  0  0  0
    7.4734  -14.0959   23.9351 C   0  0  0  0  0  0  0  0  0  0  0  0
    7.3335  -13.1791   25.0891 C   0  0  0  0  0  0  0  0  0  0  0  0
    8.1036  -12.0421   25.2233 C   0  0  0  0  0  0  0  0  0  0  0  0
    8.0004  -11.1846   26.2773 C   0  0  0  0  0  0  0  0  0  0  0  0
    7.0871  -11.4400   27.2800 C   0  0  0  0  0  0  0  0  0  0  0  0
    6.2976  -12.5653   27.1854 C   0  0  0  0  0  0  0  0  0  0  0  0
    6.4238  -13.4292   26.0916 C   0  0  0  0  0  0  0  0  0  0  0  0
    8.8592  -15.6151   25.3527 C   0  0  0  0  0  0  0  0  0  0  0  0
    8.7698  -14.9778   26.4341 O   0  0  0  0  0  0  0  0  0  0  0  0
    9.2086  -22.8881   24.5239 N   0  0  0  0  0  0  0  0  0  0  0  0
   10.4177  -22.4999   23.8944 C   0  0  0  0  0  0  0  0  0  0  0  0
   10.9266  -23.0524   22.8710 N   0  0  0  0  0  0  0  0  0  0  0  0
   11.1626  -21.3866   24.4425 N   0  0  0  0  0  0  0  0  0  0  0  0
   10.6470  -20.8038   25.7050 C   0  0  0  0  0  0  0  0  0  0  0  0
    9.4958  -19.8987   25.4083 C   0  0  0  0  0  0  0  0  0  0  0  0
    8.9908  -19.1075   26.5152 C   0  0  0  0  0  0  0  0  0  0  0  0
    9.2445  -17.6912   26.7888 C   0  0  2  0  0  0  0  0  0  0  0  0
    9.1394  -16.9953   25.4407 N   0  0  0  0  0  0  0  0  0  0  0  0
   10.4997  -17.2329   27.3532 C   0  0  0  0  0  0  0  0  0  0  0  0
   11.4244  -16.5407   26.5455 O   0  0  0  0  0  0  0  0  0  0  0  0
   10.8469  -17.4014   28.5268 O   0  0  0  0  0  0  0  0  0  0  0  0
  2  1  1  6
  2  3  1  0
  4  3  1  0
  5  4  2  0
  6  5  1  0
  7  6  1  0
  7  8  2  0
  8  4  1  0
  9  2  1  0
 10  9  2  0
 11  9  1  0
 12 13  1  6
 12 11  1  0
 13 14  1  0
 14 15  2  0
 15 16  1  0
 17 16  2  0
 18 17  1  0
 19 18  2  0
 19 14  1  0
 20 12  1  0
 21 20  2  0
 23 24  2  0
 23 22  1  0
 25 23  1  0
 26 25  1  0
 27 26  1  0
 28 27  1  0
 29 28  1  6
 29 30  1  0
 30 20  1  0
 31 29  1  0
 31 32  1  0
 33 31  2  0
M  END
$$$$
