HFR.pdb
     RDKit          3D

 33 34  0  0  1  0  0  0  0  0999 V2000
    7.2651  -15.8485   21.0087 N   0  0  0  0  0  0  0  0  0  0  0  0
    8.5065  -15.1439   21.1955 C   0  0  1  0  0  0  0  0  0  0  0  0
    8.3945  -13.7447   20.6410 C   0  0  0  0  0  0  0  0  0  0  0  0
    7.9580  -13.8428   19.2277 C   0  0  0  0  0  0  0  0  0  0  0  0
    7.6790  -14.9792   18.5024 C   0  0  0  0  0  0  0  0  0  0  0  0
    7.3161  -14.6035   17.2617 N   0  0  0  0  0  0  0  0  0  0  0  0
    7.3590  -13.2625   17.1846 C   0  0  0  0  0  0  0  0  0  0  0  0
    7.7529  -12.8097   18.3940 N   0  0  0  0  0  0  0  0  0  0  0  0
    8.9161  -15.1551   22.6218 C   0  0  0  0  0  0  0  0  0  0  0  0
   10.0855  -14.8187   22.9819 O   0  0  0  0  0  0  0  0  0  0  0  0
    8.0746  -15.5297   23.6864 N   0  0  0  0  0  0  0  0  0  0  0  0
    8.4395  -15.6225   25.0543 C   0  0  1  0  0  0  0  0  0  0  0  0
    7.4454  -15.2539   26.0761 C   0  0  0  0  0  0  0  0  0  0  0  0
    7.1733  -13.7988   26.0853 C   0  0  0  0  0  0  0  0  0  0  0  0
    5.9244  -13.2818   25.8081 C   0  0  0  0  0  0  0  0  0  0  0  0
    5.6475  -11.9475   25.8033 C   0  0  0  0  0  0  0  0  0  0  0  0
    6.6482  -11.0402   26.0859 C   0  0  0  0  0  0  0  0  0  0  0  0
    7.9109  -11.5139   26.3683 C   0  0  0  0  0  0  0  0  0  0  0  0
    8.1680  -12.8897   26.3670 C   0  0  0  0  0  0  0  0  0  0  0  0
    9.1166  -16.9261   25.2706 C   0  0  0  0  0  0  0  0  0  0  0  0
    8.5457  -18.0121   24.9909 O   0  0  0  0  0  0  0  0  0  0  0  0
   16.7135  -16.0581   23.6107 N   0  0  0  0  0  0  0  0  0  0  0  0
   16.3541  -17.4033   23.3459 C   0  0  0  0  0  0  0  0  0  0  0  0
   17.1385  -18.3058   22.9196 N   0  0  0  0  0  0  0  0  0  0  0  0
   14.9837  -17.8145   23.5643 N   0  0  0  0  0  0  0  0  0  0  0  0
   14.0262  -16.7480   23.9451 C   0  0  0  0  0  0  0  0  0  0  0  0
   12.6509  -17.3217   24.0538 C   0  0  0  0  0  0  0  0  0  0  0  0
   12.3954  -18.1823   25.1941 C   0  0  0  0  0  0  0  0  0  0  0  0
   11.1390  -18.3389   25.9304 C   0  0  2  0  0  0  0  0  0  0  0  0
   10.4241  -17.0034   25.7959 N   0  0  0  0  0  0  0  0  0  0  0  0
   11.1150  -18.6385   27.3495 C   0  0  0  0  0  0  0  0  0  0  0  0
   11.4781  -19.9220   27.8048 O   0  0  0  0  0  0  0  0  0  0  0  0
   10.7915  -17.8374   28.2325 O   0  0  0  0  0  0  0  0  0  0  0  0
  2  1  1  1
  2  3  1  0
  4  3  1  0
  5  4  2  0
  6  5  1  0
  7  6  1  0
  7  8  2  0
  8  4  1  0
  9  2  1  0
 10  9  2  0
 11  9  1  0
 12 13  1  1
 12 11  1  0
 13 14  1  0
 14 15  2  0
 15 16  1  0
 17 16  2  0
 18 17  1  0
 19 18  2  0
 19 14  1  0
 20 12  1  0
 21 20  2  0
 23 24  2  0
 23 22  1  0
 25 23  1  0
 26 25  1  0
 27 26  1  0
 28 27  1  0
 29 28  1  1
 29 30  1  0
 30 20  1  0
 31 29  1  0
 31 32  1  0
 33 31  2  0
M  END
$$$$
