HFR.pdb
     RDKit          3D

 33 34  0  0  1  0  0  0  0  0999 V2000
    9.9464  -17.0512   19.3398 N   0  0  0  0  0  0  0  0  0  0  0  0
    9.1966  -17.4891   20.4881 C   0  0  1  0  0  0  0  0  0  0  0  0
    9.6517  -18.8656   20.9076 C   0  0  0  0  0  0  0  0  0  0  0  0
    9.1977  -19.8338   19.8811 C   0  0  0  0  0  0  0  0  0  0  0  0
    7.9059  -20.1543   19.5291 C   0  0  0  0  0  0  0  0  0  0  0  0
    7.9571  -21.0778   18.5509 N   0  0  0  0  0  0  0  0  0  0  0  0
    9.2446  -21.3484   18.2769 C   0  0  0  0  0  0  0  0  0  0  0  0
    9.9929  -20.5806   19.0974 N   0  0  0  0  0  0  0  0  0  0  0  0
    9.2892  -16.5024   21.5927 C   0  0  0  0  0  0  0  0  0  0  0  0
   10.4007  -16.0058   21.9509 O   0  0  0  0  0  0  0  0  0  0  0  0
    8.1873  -16.0332   22.3323 N   0  0  0  0  0  0  0  0  0  0  0  0
    8.2303  -15.1217   23.4188 C   0  0  1  0  0  0  0  0  0  0  0  0
    7.1333  -14.1510   23.5691 C   0  0  0  0  0  0  0  0  0  0  0  0
    7.2421  -13.3826   24.8298 C   0  0  0  0  0  0  0  0  0  0  0  0
    6.6178  -13.7844   25.9929 C   0  0  0  0  0  0  0  0  0  0  0  0
    6.6958  -13.0936   27.1649 C   0  0  0  0  0  0  0  0  0  0  0  0
    7.4296  -11.9263   27.2234 C   0  0  0  0  0  0  0  0  0  0  0  0
    8.0693  -11.4887   26.0842 C   0  0  0  0  0  0  0  0  0  0  0  0
    7.9732  -12.2178   24.8934 C   0  0  0  0  0  0  0  0  0  0  0  0
    8.5815  -15.8759   24.6487 C   0  0  0  0  0  0  0  0  0  0  0  0
    7.8629  -16.8232   25.0606 O   0  0  0  0  0  0  0  0  0  0  0  0
   15.8048  -16.8519   23.2538 N   0  0  0  0  0  0  0  0  0  0  0  0
   15.1152  -18.0470   22.9296 C   0  0  0  0  0  0  0  0  0  0  0  0
   15.3301  -18.7681   21.9072 N   0  0  0  0  0  0  0  0  0  0  0  0
   14.0680  -18.5095   23.8152 N   0  0  0  0  0  0  0  0  0  0  0  0
   13.6880  -17.5986   24.9221 C   0  0  0  0  0  0  0  0  0  0  0  0
   12.2025  -17.5929   25.0818 C   0  0  0  0  0  0  0  0  0  0  0  0
   11.6657  -16.7392   26.1254 C   0  0  0  0  0  0  0  0  0  0  0  0
   10.2575  -16.5213   26.4641 C   0  0  2  0  0  0  0  0  0  0  0  0
    9.7317  -15.5651   25.4050 N   0  0  0  0  0  0  0  0  0  0  0  0
    9.8554  -15.9397   27.7306 C   0  0  0  0  0  0  0  0  0  0  0  0
    9.6979  -16.7613   28.8649 O   0  0  0  0  0  0  0  0  0  0  0  0
    9.6286  -14.7391   27.9133 O   0  0  0  0  0  0  0  0  0  0  0  0
  2  1  1  6
  2  3  1  0
  4  3  1  0
  5  4  2  0
  6  5  1  0
  7  6  1  0
  7  8  2  0
  8  4  1  0
  9  2  1  0
 10  9  2  0
 11  9  1  0
 12 13  1  1
 12 11  1  0
 13 14  1  0
 14 15  2  0
 15 16  1  0
 17 16  2  0
 18 17  1  0
 19 18  2  0
 19 14  1  0
 20 12  1  0
 21 20  2  0
 23 24  2  0
 23 22  1  0
 25 23  1  0
 26 25  1  0
 27 26  1  0
 28 27  1  0
 29 28  1  1
 29 30  1  0
 30 20  1  0
 31 29  1  0
 31 32  1  0
 33 31  2  0
M  END
$$$$
