WYY.pdb
     RDKit          3D

 39 42  0  0  1  0  0  0  0  0999 V2000
    6.8651  -20.6232   26.1865 N   0  0  0  0  0  0  0  0  0  0  0  0
    7.5413  -19.3320   26.1992 C   0  0  1  0  0  0  0  0  0  0  0  0
    9.0073  -19.4875   26.6303 C   0  0  0  0  0  0  0  0  0  0  0  0
    9.1689  -18.7313   27.8789 C   0  0  0  0  0  0  0  0  0  0  0  0
    8.7087  -19.0990   29.1192 C   0  0  0  0  0  0  0  0  0  0  0  0
    9.0721  -18.1194   29.9923 N   0  0  0  0  0  0  0  0  0  0  0  0
    9.7456  -17.1463   29.3446 C   0  0  0  0  0  0  0  0  0  0  0  0
   10.3327  -15.9535   29.7000 C   0  0  0  0  0  0  0  0  0  0  0  0
   10.9639  -15.1552   28.7802 C   0  0  0  0  0  0  0  0  0  0  0  0
   11.0246  -15.5363   27.4609 C   0  0  0  0  0  0  0  0  0  0  0  0
   10.4485  -16.7216   27.0731 C   0  0  0  0  0  0  0  0  0  0  0  0
    9.8071  -17.5271   28.0237 C   0  0  0  0  0  0  0  0  0  0  0  0
    7.5313  -18.7885   24.8405 C   0  0  0  0  0  0  0  0  0  0  0  0
    7.8532  -19.4866   23.8555 O   0  0  0  0  0  0  0  0  0  0  0  0
    7.3443  -13.0418   18.2220 O   0  0  0  0  0  0  0  0  0  0  0  0
    7.1374  -13.6712   19.4493 C   0  0  0  0  0  0  0  0  0  0  0  0
    6.6703  -14.9693   19.4367 C   0  0  0  0  0  0  0  0  0  0  0  0
    6.4680  -15.5831   20.6423 C   0  0  0  0  0  0  0  0  0  0  0  0
    6.7140  -14.9503   21.8639 C   0  0  0  0  0  0  0  0  0  0  0  0
    6.4676  -15.6780   23.1280 C   0  0  0  0  0  0  0  0  0  0  0  0
    7.4144  -16.8305   23.3434 C   0  0  2  0  0  0  0  0  0  0  0  0
    7.1477  -17.4251   24.6131 N   0  0  0  0  0  0  0  0  0  0  0  0
    8.8035  -16.2916   23.2540 C   0  0  0  0  0  0  0  0  0  0  0  0
    9.4748  -16.2678   22.1888 O   0  0  0  0  0  0  0  0  0  0  0  0
    7.1776  -13.6597   21.8190 C   0  0  0  0  0  0  0  0  0  0  0  0
    7.3992  -12.9938   20.6324 C   0  0  0  0  0  0  0  0  0  0  0  0
    5.3898  -11.3907   25.2313 O   0  0  0  0  0  0  0  0  0  0  0  0
    6.6158  -12.0168   25.3228 C   0  0  0  0  0  0  0  0  0  0  0  0
    7.0425  -12.6799   26.4518 C   0  0  0  0  0  0  0  0  0  0  0  0
    8.2745  -13.2979   26.5154 C   0  0  0  0  0  0  0  0  0  0  0  0
    9.1288  -13.2742   25.4451 C   0  0  0  0  0  0  0  0  0  0  0  0
   10.4520  -13.8919   25.4095 C   0  0  0  0  0  0  0  0  0  0  0  0
   10.6317  -14.9997   24.4236 C   0  0  2  0  0  0  0  0  0  0  0  0
    9.3855  -15.7819   24.4427 N   0  0  0  0  0  0  0  0  0  0  0  0
   11.7082  -15.9144   24.8792 C   0  0  0  0  0  0  0  0  0  0  0  0
   11.4769  -17.1246   25.2126 O   0  0  0  0  0  0  0  0  0  0  0  0
    8.6875  -12.5992   24.3045 C   0  0  0  0  0  0  0  0  0  0  0  0
    7.4592  -11.9808   24.2348 C   0  0  0  0  0  0  0  0  0  0  0  0
   13.0504  -15.5195   24.9761 O   0  0  0  0  0  0  0  0  0  0  0  0
  2  3  1  0
  2  1  1  6
  4  5  2  0
  4  3  1  0
  6  5  1  0
  7 12  2  0
  7  6  1  0
  8  7  1  0
  9 10  1  0
  9  8  2  0
 10 11  2  0
 11 12  1  0
 12  4  1  0
 13  2  1  0
 14 13  2  0
 16 15  1  0
 17 16  2  0
 18 17  1  0
 19 18  2  0
 19 25  1  0
 20 19  1  0
 21 20  1  1
 21 22  1  0
 22 13  1  0
 23 21  1  0
 23 34  1  0
 24 23  2  0
 25 26  2  0
 26 16  1  0
 28 38  2  0
 28 27  1  0
 29 28  1  0
 30 31  1  0
 30 29  2  0
 31 37  2  0
 32 31  1  0
 33 34  1  0
 33 32  1  1
 35 33  1  0
 36 35  2  0
 37 38  1  0
 39 35  1  0
M  END
$$$$
