WYY.pdb
     RDKit          3D

 39 42  0  0  1  0  0  0  0  0999 V2000
    6.4753  -17.0760   21.5196 N   0  0  0  0  0  0  0  0  0  0  0  0
    7.8810  -17.4609   21.5428 C   0  0  1  0  0  0  0  0  0  0  0  0
    8.5620  -17.1226   20.2083 C   0  0  0  0  0  0  0  0  0  0  0  0
    7.9532  -15.8784   19.7203 C   0  0  0  0  0  0  0  0  0  0  0  0
    6.7115  -15.7489   19.1487 C   0  0  0  0  0  0  0  0  0  0  0  0
    6.5422  -14.4329   18.8427 N   0  0  0  0  0  0  0  0  0  0  0  0
    7.6353  -13.7283   19.2018 C   0  0  0  0  0  0  0  0  0  0  0  0
    8.0183  -12.4081   19.1377 C   0  0  0  0  0  0  0  0  0  0  0  0
    9.2383  -11.9852   19.6010 C   0  0  0  0  0  0  0  0  0  0  0  0
   10.1196  -12.8868   20.1486 C   0  0  0  0  0  0  0  0  0  0  0  0
    9.7677  -14.2124   20.2276 C   0  0  0  0  0  0  0  0  0  0  0  0
    8.5180  -14.6301   19.7505 C   0  0  0  0  0  0  0  0  0  0  0  0
    8.5549  -16.6972   22.5937 C   0  0  0  0  0  0  0  0  0  0  0  0
    8.0604  -15.6477   23.0575 O   0  0  0  0  0  0  0  0  0  0  0  0
   11.4048  -14.9624   30.3907 O   0  0  0  0  0  0  0  0  0  0  0  0
   10.9065  -15.4098   29.1673 C   0  0  0  0  0  0  0  0  0  0  0  0
   11.1693  -16.7143   28.8031 C   0  0  0  0  0  0  0  0  0  0  0  0
   10.6794  -17.1493   27.6023 C   0  0  0  0  0  0  0  0  0  0  0  0
    9.9356  -16.3310   26.7477 C   0  0  0  0  0  0  0  0  0  0  0  0
    9.4421  -16.8717   25.4623 C   0  0  0  0  0  0  0  0  0  0  0  0
   10.3343  -16.5348   24.2953 C   0  0  2  0  0  0  0  0  0  0  0  0
    9.8134  -17.1460   23.1155 N   0  0  0  0  0  0  0  0  0  0  0  0
   11.7058  -17.0231   24.6247 C   0  0  0  0  0  0  0  0  0  0  0  0
   12.0870  -17.2946   25.7938 O   0  0  0  0  0  0  0  0  0  0  0  0
    9.7034  -15.0426   27.1586 C   0  0  0  0  0  0  0  0  0  0  0  0
   10.1731  -14.5524   28.3585 C   0  0  0  0  0  0  0  0  0  0  0  0
   12.5125  -15.0898   17.3450 O   0  0  0  0  0  0  0  0  0  0  0  0
   12.7167  -15.0304   18.7082 C   0  0  0  0  0  0  0  0  0  0  0  0
   12.4107  -13.9247   19.4699 C   0  0  0  0  0  0  0  0  0  0  0  0
   12.6254  -13.8931   20.8326 C   0  0  0  0  0  0  0  0  0  0  0  0
   13.1572  -14.9733   21.4856 C   0  0  0  0  0  0  0  0  0  0  0  0
   13.4266  -15.0420   22.9196 C   0  0  0  0  0  0  0  0  0  0  0  0
   13.8434  -16.3770   23.4448 C   0  0  2  0  0  0  0  0  0  0  0  0
   12.6183  -17.1849   23.5510 N   0  0  0  0  0  0  0  0  0  0  0  0
   14.3741  -16.2362   24.8238 C   0  0  0  0  0  0  0  0  0  0  0  0
   13.7248  -15.6367   25.7448 O   0  0  0  0  0  0  0  0  0  0  0  0
   13.4645  -16.0900   20.7047 C   0  0  0  0  0  0  0  0  0  0  0  0
   13.2524  -16.1278   19.3447 C   0  0  0  0  0  0  0  0  0  0  0  0
   15.6198  -16.7484   25.2146 O   0  0  0  0  0  0  0  0  0  0  0  0
  2  3  1  0
  2  1  1  6
  4  5  2  0
  4  3  1  0
  6  5  1  0
  7 12  2  0
  7  6  1  0
  8  7  1  0
  9 10  1  0
  9  8  2  0
 10 11  2  0
 11 12  1  0
 12  4  1  0
 13  2  1  0
 14 13  2  0
 16 15  1  0
 17 16  2  0
 18 17  1  0
 19 18  2  0
 19 25  1  0
 20 19  1  0
 21 20  1  1
 21 22  1  0
 22 13  1  0
 23 21  1  0
 23 34  1  0
 24 23  2  0
 25 26  2  0
 26 16  1  0
 28 38  2  0
 28 27  1  0
 29 28  1  0
 30 31  1  0
 30 29  2  0
 31 37  2  0
 32 31  1  0
 33 34  1  0
 33 32  1  1
 35 33  1  0
 36 35  2  0
 37 38  1  0
 39 35  1  0
M  END
$$$$
