WYY.pdb
     RDKit          3D

 39 42  0  0  1  0  0  0  0  0999 V2000
    5.9094  -17.8063   22.9790 N   0  0  0  0  0  0  0  0  0  0  0  0
    6.8027  -16.6917   23.2695 C   0  0  1  0  0  0  0  0  0  0  0  0
    7.2980  -16.7529   24.7221 C   0  0  0  0  0  0  0  0  0  0  0  0
    6.7045  -15.6083   25.4254 C   0  0  0  0  0  0  0  0  0  0  0  0
    5.5601  -15.6228   26.1838 C   0  0  0  0  0  0  0  0  0  0  0  0
    5.3688  -14.3585   26.6518 N   0  0  0  0  0  0  0  0  0  0  0  0
    6.3539  -13.5473   26.2140 C   0  0  0  0  0  0  0  0  0  0  0  0
    6.6689  -12.2158   26.3612 C   0  0  0  0  0  0  0  0  0  0  0  0
    7.7771  -11.6646   25.7698 C   0  0  0  0  0  0  0  0  0  0  0  0
    8.6111  -12.4439   25.0040 C   0  0  0  0  0  0  0  0  0  0  0  0
    8.3251  -13.7772   24.8371 C   0  0  0  0  0  0  0  0  0  0  0  0
    7.1896  -14.3267   25.4474 C   0  0  0  0  0  0  0  0  0  0  0  0
    7.9718  -16.7927   22.3950 C   0  0  0  0  0  0  0  0  0  0  0  0
    8.2699  -17.8635   21.8244 O   0  0  0  0  0  0  0  0  0  0  0  0
    6.6130  -13.2631   16.5817 O   0  0  0  0  0  0  0  0  0  0  0  0
    7.5284  -13.5898   17.5820 C   0  0  0  0  0  0  0  0  0  0  0  0
    7.5449  -12.8098   18.7199 C   0  0  0  0  0  0  0  0  0  0  0  0
    8.4445  -13.1330   19.6983 C   0  0  0  0  0  0  0  0  0  0  0  0
    9.3313  -14.2072   19.5855 C   0  0  0  0  0  0  0  0  0  0  0  0
   10.2788  -14.4929   20.6851 C   0  0  0  0  0  0  0  0  0  0  0  0
    9.9923  -15.7923   21.3925 C   0  0  2  0  0  0  0  0  0  0  0  0
    8.8082  -15.6481   22.1760 N   0  0  0  0  0  0  0  0  0  0  0  0
   11.1849  -16.1196   22.2283 C   0  0  0  0  0  0  0  0  0  0  0  0
   12.3447  -15.6933   21.9852 O   0  0  0  0  0  0  0  0  0  0  0  0
    9.2727  -14.9500   18.4333 C   0  0  0  0  0  0  0  0  0  0  0  0
    8.3859  -14.6689   17.4159 C   0  0  0  0  0  0  0  0  0  0  0  0
   11.2862  -14.5148   30.7937 O   0  0  0  0  0  0  0  0  0  0  0  0
   11.0388  -14.9578   29.5107 C   0  0  0  0  0  0  0  0  0  0  0  0
   10.8050  -16.2790   29.2002 C   0  0  0  0  0  0  0  0  0  0  0  0
   10.5599  -16.6941   27.9073 C   0  0  0  0  0  0  0  0  0  0  0  0
   10.5401  -15.7967   26.8728 C   0  0  0  0  0  0  0  0  0  0  0  0
   10.2944  -16.1309   25.4722 C   0  0  0  0  0  0  0  0  0  0  0  0
   11.4807  -16.5941   24.6913 C   0  0  2  0  0  0  0  0  0  0  0  0
   10.9847  -16.9579   23.3547 N   0  0  0  0  0  0  0  0  0  0  0  0
   12.0271  -17.8380   25.2891 C   0  0  0  0  0  0  0  0  0  0  0  0
   11.4715  -18.9748   25.1206 O   0  0  0  0  0  0  0  0  0  0  0  0
   10.7784  -14.4591   27.1974 C   0  0  0  0  0  0  0  0  0  0  0  0
   11.0233  -14.0386   28.4855 C   0  0  0  0  0  0  0  0  0  0  0  0
   13.1867  -17.8565   26.0775 O   0  0  0  0  0  0  0  0  0  0  0  0
  2  3  1  0
  2  1  1  6
  4  5  2  0
  4  3  1  0
  6  5  1  0
  7 12  2  0
  7  6  1  0
  8  7  1  0
  9 10  1  0
  9  8  2  0
 10 11  2  0
 11 12  1  0
 12  4  1  0
 13  2  1  0
 14 13  2  0
 16 15  1  0
 17 16  2  0
 18 17  1  0
 19 18  2  0
 19 25  1  0
 20 19  1  0
 21 20  1  1
 21 22  1  0
 22 13  1  0
 23 21  1  0
 23 34  1  0
 24 23  2  0
 25 26  2  0
 26 16  1  0
 28 38  2  0
 28 27  1  0
 29 28  1  0
 30 31  1  0
 30 29  2  0
 31 37  2  0
 32 31  1  0
 33 34  1  0
 33 32  1  1
 35 33  1  0
 36 35  2  0
 37 38  1  0
 39 35  1  0
M  END
$$$$
