WYY.pdb
     RDKit          3D

 39 42  0  0  1  0  0  0  0  0999 V2000
    5.6903  -17.9844   22.9423 N   0  0  0  0  0  0  0  0  0  0  0  0
    6.4456  -16.7824   23.2729 C   0  0  1  0  0  0  0  0  0  0  0  0
    6.6087  -16.6408   24.7937 C   0  0  0  0  0  0  0  0  0  0  0  0
    6.0097  -15.3539   25.1705 C   0  0  0  0  0  0  0  0  0  0  0  0
    4.6771  -15.1102   25.3940 C   0  0  0  0  0  0  0  0  0  0  0  0
    4.5555  -13.7934   25.7186 N   0  0  0  0  0  0  0  0  0  0  0  0
    5.7664  -13.1986   25.7072 C   0  0  0  0  0  0  0  0  0  0  0  0
    6.2397  -11.9285   25.9452 C   0  0  0  0  0  0  0  0  0  0  0  0
    7.5737  -11.6235   25.8491 C   0  0  0  0  0  0  0  0  0  0  0  0
    8.4820  -12.5969   25.5068 C   0  0  0  0  0  0  0  0  0  0  0  0
    8.0421  -13.8752   25.2627 C   0  0  0  0  0  0  0  0  0  0  0  0
    6.6764  -14.1724   25.3649 C   0  0  0  0  0  0  0  0  0  0  0  0
    7.7829  -16.8984   22.6898 C   0  0  0  0  0  0  0  0  0  0  0  0
    8.3258  -18.0105   22.5174 O   0  0  0  0  0  0  0  0  0  0  0  0
    7.0127  -13.9559   16.5025 O   0  0  0  0  0  0  0  0  0  0  0  0
    7.8043  -14.0943   17.6424 C   0  0  0  0  0  0  0  0  0  0  0  0
    8.5120  -15.2685   17.7966 C   0  0  0  0  0  0  0  0  0  0  0  0
    9.2868  -15.4006   18.9161 C   0  0  0  0  0  0  0  0  0  0  0  0
    9.3832  -14.4040   19.8911 C   0  0  0  0  0  0  0  0  0  0  0  0
   10.2395  -14.6212   21.0777 C   0  0  0  0  0  0  0  0  0  0  0  0
    9.8579  -15.8459   21.8685 C   0  0  2  0  0  0  0  0  0  0  0  0
    8.5041  -15.7207   22.3022 N   0  0  0  0  0  0  0  0  0  0  0  0
   10.8091  -15.9538   23.0138 C   0  0  0  0  0  0  0  0  0  0  0  0
   12.0533  -16.0914   22.8761 O   0  0  0  0  0  0  0  0  0  0  0  0
    8.6588  -13.2565   19.6882 C   0  0  0  0  0  0  0  0  0  0  0  0
    7.8625  -13.0706   18.5784 C   0  0  0  0  0  0  0  0  0  0  0  0
   12.5268  -16.6831   31.7599 O   0  0  0  0  0  0  0  0  0  0  0  0
   11.9779  -16.3914   30.5283 C   0  0  0  0  0  0  0  0  0  0  0  0
   11.8861  -15.1122   30.0266 C   0  0  0  0  0  0  0  0  0  0  0  0
   11.3321  -14.8493   28.7905 C   0  0  0  0  0  0  0  0  0  0  0  0
   10.8471  -15.8632   28.0077 C   0  0  0  0  0  0  0  0  0  0  0  0
   10.2403  -15.6935   26.6898 C   0  0  0  0  0  0  0  0  0  0  0  0
   11.1136  -16.0117   25.5204 C   0  0  2  0  0  0  0  0  0  0  0  0
   10.2664  -15.8963   24.3229 N   0  0  0  0  0  0  0  0  0  0  0  0
   11.5549  -17.4273   25.5874 C   0  0  0  0  0  0  0  0  0  0  0  0
   10.8466  -18.3833   25.1251 O   0  0  0  0  0  0  0  0  0  0  0  0
   10.9444  -17.1571   28.5249 C   0  0  0  0  0  0  0  0  0  0  0  0
   11.4964  -17.4259   29.7574 C   0  0  0  0  0  0  0  0  0  0  0  0
   12.7748  -17.8167   26.1592 O   0  0  0  0  0  0  0  0  0  0  0  0
  2  3  1  0
  2  1  1  1
  4  5  2  0
  4  3  1  0
  6  5  1  0
  7 12  2  0
  7  6  1  0
  8  7  1  0
  9 10  1  0
  9  8  2  0
 10 11  2  0
 11 12  1  0
 12  4  1  0
 13  2  1  0
 14 13  2  0
 16 15  1  0
 17 16  2  0
 18 17  1  0
 19 18  2  0
 19 25  1  0
 20 19  1  0
 21 20  1  1
 21 22  1  0
 22 13  1  0
 23 21  1  0
 23 34  1  0
 24 23  2  0
 25 26  2  0
 26 16  1  0
 28 38  2  0
 28 27  1  0
 29 28  1  0
 30 31  1  0
 30 29  2  0
 31 37  2  0
 32 31  1  0
 33 34  1  0
 33 32  1  1
 35 33  1  0
 36 35  2  0
 37 38  1  0
 39 35  1  0
M  END
$$$$
