WYY.pdb
     RDKit          3D

 39 42  0  0  1  0  0  0  0  0999 V2000
    6.0005  -18.0150   23.0872 N   0  0  0  0  0  0  0  0  0  0  0  0
    6.8775  -16.9064   23.4429 C   0  0  1  0  0  0  0  0  0  0  0  0
    7.2655  -16.9715   24.9276 C   0  0  0  0  0  0  0  0  0  0  0  0
    6.6524  -15.8082   25.5817 C   0  0  0  0  0  0  0  0  0  0  0  0
    5.4995  -15.8069   26.3273 C   0  0  0  0  0  0  0  0  0  0  0  0
    5.2901  -14.5283   26.7463 N   0  0  0  0  0  0  0  0  0  0  0  0
    6.2720  -13.7234   26.2901 C   0  0  0  0  0  0  0  0  0  0  0  0
    6.5718  -12.3842   26.3919 C   0  0  0  0  0  0  0  0  0  0  0  0
    7.6813  -11.8435   25.7931 C   0  0  0  0  0  0  0  0  0  0  0  0
    8.5319  -12.6416   25.0658 C   0  0  0  0  0  0  0  0  0  0  0  0
    8.2612  -13.9830   24.9448 C   0  0  0  0  0  0  0  0  0  0  0  0
    7.1243  -14.5217   25.5621 C   0  0  0  0  0  0  0  0  0  0  0  0
    8.1063  -17.0145   22.6556 C   0  0  0  0  0  0  0  0  0  0  0  0
    8.4872  -18.1081   22.1865 O   0  0  0  0  0  0  0  0  0  0  0  0
    6.7390  -13.1789   16.9802 O   0  0  0  0  0  0  0  0  0  0  0  0
    7.6460  -13.5126   17.9858 C   0  0  0  0  0  0  0  0  0  0  0  0
    8.1946  -14.7782   17.9644 C   0  0  0  0  0  0  0  0  0  0  0  0
    9.0833  -15.1019   18.9527 C   0  0  0  0  0  0  0  0  0  0  0  0
    9.4469  -14.2094   19.9648 C   0  0  0  0  0  0  0  0  0  0  0  0
   10.4123  -14.6333   21.0025 C   0  0  0  0  0  0  0  0  0  0  0  0
   10.0827  -15.9736   21.6075 C   0  0  2  0  0  0  0  0  0  0  0  0
    8.9068  -15.8505   22.4067 N   0  0  0  0  0  0  0  0  0  0  0  0
   11.2657  -16.4067   22.4081 C   0  0  0  0  0  0  0  0  0  0  0  0
   12.4530  -16.3292   21.9953 O   0  0  0  0  0  0  0  0  0  0  0  0
    8.8717  -12.9640   19.9388 C   0  0  0  0  0  0  0  0  0  0  0  0
    7.9708  -12.5851   18.9665 C   0  0  0  0  0  0  0  0  0  0  0  0
    8.9871  -13.4241   28.7045 O   0  0  0  0  0  0  0  0  0  0  0  0
    9.6451  -14.4309   28.0286 C   0  0  0  0  0  0  0  0  0  0  0  0
   10.9960  -14.4037   27.7621 C   0  0  0  0  0  0  0  0  0  0  0  0
   11.6284  -15.4254   27.0839 C   0  0  0  0  0  0  0  0  0  0  0  0
   10.9275  -16.5173   26.6453 C   0  0  0  0  0  0  0  0  0  0  0  0
   11.4982  -17.6481   25.9177 C   0  0  0  0  0  0  0  0  0  0  0  0
   12.1210  -17.3308   24.5975 C   0  0  2  0  0  0  0  0  0  0  0  0
   11.0229  -16.9322   23.7028 N   0  0  0  0  0  0  0  0  0  0  0  0
   12.7167  -18.5569   24.0101 C   0  0  0  0  0  0  0  0  0  0  0  0
   12.2180  -19.1319   22.9855 O   0  0  0  0  0  0  0  0  0  0  0  0
    9.5580  -16.5360   26.9200 C   0  0  0  0  0  0  0  0  0  0  0  0
    8.9212  -15.5198   27.5965 C   0  0  0  0  0  0  0  0  0  0  0  0
   13.8643  -19.1700   24.5335 O   0  0  0  0  0  0  0  0  0  0  0  0
  2  3  1  0
  2  1  1  6
  4  5  2  0
  4  3  1  0
  6  5  1  0
  7 12  2  0
  7  6  1  0
  8  7  1  0
  9 10  1  0
  9  8  2  0
 10 11  2  0
 11 12  1  0
 12  4  1  0
 13  2  1  0
 14 13  2  0
 16 15  1  0
 17 16  2  0
 18 17  1  0
 19 18  2  0
 19 25  1  0
 20 19  1  0
 21 20  1  1
 21 22  1  0
 22 13  1  0
 23 21  1  0
 23 34  1  0
 24 23  2  0
 25 26  2  0
 26 16  1  0
 28 38  2  0
 28 27  1  0
 29 28  1  0
 30 31  1  0
 30 29  2  0
 31 37  2  0
 32 31  1  0
 33 34  1  0
 33 32  1  1
 35 33  1  0
 36 35  2  0
 37 38  1  0
 39 35  1  0
M  END
$$$$
