WYY.pdb
     RDKit          3D

 39 42  0  0  1  0  0  0  0  0999 V2000
    6.1292  -17.9032   22.8540 N   0  0  0  0  0  0  0  0  0  0  0  0
    6.8917  -16.6988   23.1586 C   0  0  1  0  0  0  0  0  0  0  0  0
    7.2231  -16.6264   24.6567 C   0  0  0  0  0  0  0  0  0  0  0  0
    6.3686  -15.5808   25.2341 C   0  0  0  0  0  0  0  0  0  0  0  0
    5.2092  -15.7759   25.9432 C   0  0  0  0  0  0  0  0  0  0  0  0
    4.7370  -14.5475   26.2927 N   0  0  0  0  0  0  0  0  0  0  0  0
    5.5595  -13.5844   25.8278 C   0  0  0  0  0  0  0  0  0  0  0  0
    5.5869  -12.2093   25.8731 C   0  0  0  0  0  0  0  0  0  0  0  0
    6.5917  -11.4856   25.2827 C   0  0  0  0  0  0  0  0  0  0  0  0
    7.6103  -12.1298   24.6216 C   0  0  0  0  0  0  0  0  0  0  0  0
    7.6126  -13.5021   24.5581 C   0  0  0  0  0  0  0  0  0  0  0  0
    6.5797  -14.2284   25.1661 C   0  0  0  0  0  0  0  0  0  0  0  0
    8.1563  -16.7509   22.4241 C   0  0  0  0  0  0  0  0  0  0  0  0
    8.6624  -17.8375   22.0714 O   0  0  0  0  0  0  0  0  0  0  0  0
    6.4913  -13.9136   16.3480 O   0  0  0  0  0  0  0  0  0  0  0  0
    7.4028  -13.9979   17.4003 C   0  0  0  0  0  0  0  0  0  0  0  0
    8.4175  -14.9272   17.3006 C   0  0  0  0  0  0  0  0  0  0  0  0
    9.3091  -15.0073   18.3349 C   0  0  0  0  0  0  0  0  0  0  0  0
    9.2275  -14.1941   19.4685 C   0  0  0  0  0  0  0  0  0  0  0  0
   10.2272  -14.3417   20.5489 C   0  0  0  0  0  0  0  0  0  0  0  0
   10.0593  -15.6114   21.3432 C   0  0  2  0  0  0  0  0  0  0  0  0
    8.8472  -15.5382   22.0930 N   0  0  0  0  0  0  0  0  0  0  0  0
   11.2579  -15.7519   22.2215 C   0  0  0  0  0  0  0  0  0  0  0  0
   12.1823  -14.8988   22.2812 O   0  0  0  0  0  0  0  0  0  0  0  0
    8.1990  -13.2871   19.5164 C   0  0  0  0  0  0  0  0  0  0  0  0
    7.2731  -13.1639   18.5026 C   0  0  0  0  0  0  0  0  0  0  0  0
   11.7190  -15.3170   30.7209 O   0  0  0  0  0  0  0  0  0  0  0  0
   11.6002  -15.4724   29.3552 C   0  0  0  0  0  0  0  0  0  0  0  0
   12.6125  -15.9622   28.5603 C   0  0  0  0  0  0  0  0  0  0  0  0
   12.4659  -16.1074   27.1960 C   0  0  0  0  0  0  0  0  0  0  0  0
   11.2942  -15.7655   26.5746 C   0  0  0  0  0  0  0  0  0  0  0  0
   11.0372  -15.8766   25.1410 C   0  0  0  0  0  0  0  0  0  0  0  0
   11.8707  -16.8713   24.4010 C   0  0  2  0  0  0  0  0  0  0  0  0
   11.3461  -16.9159   23.0270 N   0  0  0  0  0  0  0  0  0  0  0  0
   11.6687  -18.2266   24.9716 C   0  0  0  0  0  0  0  0  0  0  0  0
   10.7155  -18.9878   24.5957 O   0  0  0  0  0  0  0  0  0  0  0  0
   10.2733  -15.2695   27.3890 C   0  0  0  0  0  0  0  0  0  0  0  0
   10.4133  -15.1225   28.7509 C   0  0  0  0  0  0  0  0  0  0  0  0
   12.5048  -18.7678   25.9589 O   0  0  0  0  0  0  0  0  0  0  0  0
  2  3  1  0
  2  1  1  1
  4  5  2  0
  4  3  1  0
  6  5  1  0
  7 12  2  0
  7  6  1  0
  8  7  1  0
  9 10  1  0
  9  8  2  0
 10 11  2  0
 11 12  1  0
 12  4  1  0
 13  2  1  0
 14 13  2  0
 16 15  1  0
 17 16  2  0
 18 17  1  0
 19 18  2  0
 19 25  1  0
 20 19  1  0
 21 20  1  1
 21 22  1  0
 22 13  1  0
 23 21  1  0
 23 34  1  0
 24 23  2  0
 25 26  2  0
 26 16  1  0
 28 38  2  0
 28 27  1  0
 29 28  1  0
 30 31  1  0
 30 29  2  0
 31 37  2  0
 32 31  1  0
 33 34  1  0
 33 32  1  1
 35 33  1  0
 36 35  2  0
 37 38  1  0
 39 35  1  0
M  END
$$$$
