WYY.pdb
     RDKit          3D

 39 42  0  0  1  0  0  0  0  0999 V2000
   15.9792  -19.6401   20.8849 N   0  0  0  0  0  0  0  0  0  0  0  0
   16.7538  -20.4945   19.9934 C   0  0  1  0  0  0  0  0  0  0  0  0
   16.1211  -20.5404   18.5946 C   0  0  0  0  0  0  0  0  0  0  0  0
   14.7869  -21.1350   18.7474 C   0  0  0  0  0  0  0  0  0  0  0  0
   13.5871  -20.4704   18.6854 C   0  0  0  0  0  0  0  0  0  0  0  0
   12.6035  -21.3921   18.8782 N   0  0  0  0  0  0  0  0  0  0  0  0
   13.1426  -22.6154   19.0598 C   0  0  0  0  0  0  0  0  0  0  0  0
   12.6532  -23.8806   19.2911 C   0  0  0  0  0  0  0  0  0  0  0  0
   13.4840  -24.9622   19.4387 C   0  0  0  0  0  0  0  0  0  0  0  0
   14.8468  -24.8026   19.3574 C   0  0  0  0  0  0  0  0  0  0  0  0
   15.3679  -23.5524   19.1273 C   0  0  0  0  0  0  0  0  0  0  0  0
   14.5071  -22.4566   18.9783 C   0  0  0  0  0  0  0  0  0  0  0  0
   18.0965  -19.9287   19.8573 C   0  0  0  0  0  0  0  0  0  0  0  0
   18.2968  -18.6975   19.9309 O   0  0  0  0  0  0  0  0  0  0  0  0
   25.9446  -17.2397   21.1923 O   0  0  0  0  0  0  0  0  0  0  0  0
   24.6777  -17.8196   21.1302 C   0  0  0  0  0  0  0  0  0  0  0  0
   24.5653  -19.1575   21.4478 C   0  0  0  0  0  0  0  0  0  0  0  0
   23.3213  -19.7228   21.3852 C   0  0  0  0  0  0  0  0  0  0  0  0
   22.1813  -19.0033   21.0166 C   0  0  0  0  0  0  0  0  0  0  0  0
   20.8693  -19.6849   20.9680 C   0  0  0  0  0  0  0  0  0  0  0  0
   20.5325  -20.2270   19.6027 C   0  0  2  0  0  0  0  0  0  0  0  0
   19.2214  -20.7898   19.6324 N   0  0  0  0  0  0  0  0  0  0  0  0
   21.5727  -21.2389   19.2536 C   0  0  0  0  0  0  0  0  0  0  0  0
   22.7730  -20.9484   19.0069 O   0  0  0  0  0  0  0  0  0  0  0  0
   22.3494  -17.6762   20.7109 C   0  0  0  0  0  0  0  0  0  0  0  0
   23.5797  -17.0560   20.7578 C   0  0  0  0  0  0  0  0  0  0  0  0
   24.4556  -23.1267   24.7870 O   0  0  0  0  0  0  0  0  0  0  0  0
   23.8204  -23.5029   23.6215 C   0  0  0  0  0  0  0  0  0  0  0  0
   22.4520  -23.6071   23.5073 C   0  0  0  0  0  0  0  0  0  0  0  0
   21.8432  -23.9856   22.3283 C   0  0  0  0  0  0  0  0  0  0  0  0
   22.5864  -24.2753   21.2149 C   0  0  0  0  0  0  0  0  0  0  0  0
   22.0431  -24.6871   19.9230 C   0  0  0  0  0  0  0  0  0  0  0  0
   22.1087  -23.6705   18.8304 C   0  0  2  0  0  0  0  0  0  0  0  0
   21.1716  -22.5983   19.2009 N   0  0  0  0  0  0  0  0  0  0  0  0
   21.5997  -24.2537   17.5640 C   0  0  0  0  0  0  0  0  0  0  0  0
   22.1435  -25.2703   17.0162 O   0  0  0  0  0  0  0  0  0  0  0  0
   23.9734  -24.1670   21.3404 C   0  0  0  0  0  0  0  0  0  0  0  0
   24.5869  -23.7895   22.5139 C   0  0  0  0  0  0  0  0  0  0  0  0
   20.4907  -23.7347   16.8802 O   0  0  0  0  0  0  0  0  0  0  0  0
  2  3  1  0
  2  1  1  1
  4  5  2  0
  4  3  1  0
  6  5  1  0
  7 12  2  0
  7  6  1  0
  8  7  1  0
  9 10  1  0
  9  8  2  0
 10 11  2  0
 11 12  1  0
 12  4  1  0
 13  2  1  0
 14 13  2  0
 16 15  1  0
 17 16  2  0
 18 17  1  0
 19 18  2  0
 19 25  1  0
 20 19  1  0
 21 20  1  1
 21 22  1  0
 22 13  1  0
 23 21  1  0
 23 34  1  0
 24 23  2  0
 25 26  2  0
 26 16  1  0
 28 38  2  0
 28 27  1  0
 29 28  1  0
 30 31  1  0
 30 29  2  0
 31 37  2  0
 32 31  1  0
 33 34  1  0
 33 32  1  1
 35 33  1  0
 36 35  2  0
 37 38  1  0
 39 35  1  0
M  END
$$$$
