WYY.pdb
     RDKit          3D

 39 42  0  0  1  0  0  0  0  0999 V2000
    6.3124  -17.3419   23.6064 N   0  0  0  0  0  0  0  0  0  0  0  0
    7.4301  -16.4063   23.5952 C   0  0  1  0  0  0  0  0  0  0  0  0
    7.9697  -16.1829   25.0158 C   0  0  0  0  0  0  0  0  0  0  0  0
    7.0537  -15.2460   25.6793 C   0  0  0  0  0  0  0  0  0  0  0  0
    5.9256  -15.5751   26.3893 C   0  0  0  0  0  0  0  0  0  0  0  0
    5.3731  -14.4124   26.8330 N   0  0  0  0  0  0  0  0  0  0  0  0
    6.1148  -13.3612   26.4266 C   0  0  0  0  0  0  0  0  0  0  0  0
    6.0439  -11.9944   26.5702 C   0  0  0  0  0  0  0  0  0  0  0  0
    6.9821  -11.1592   26.0188 C   0  0  0  0  0  0  0  0  0  0  0  0
    8.0312  -11.6787   25.2984 C   0  0  0  0  0  0  0  0  0  0  0  0
    8.1311  -13.0392   25.1364 C   0  0  0  0  0  0  0  0  0  0  0  0
    7.1655  -13.8803   25.7055 C   0  0  0  0  0  0  0  0  0  0  0  0
    8.5104  -16.9819   22.7931 C   0  0  0  0  0  0  0  0  0  0  0  0
    8.6616  -18.2181   22.6925 O   0  0  0  0  0  0  0  0  0  0  0  0
    7.1055  -12.6724   18.2034 O   0  0  0  0  0  0  0  0  0  0  0  0
    8.1272  -13.4310   18.7743 C   0  0  0  0  0  0  0  0  0  0  0  0
    7.9840  -14.8032   18.7811 C   0  0  0  0  0  0  0  0  0  0  0  0
    8.9878  -15.5436   19.3425 C   0  0  0  0  0  0  0  0  0  0  0  0
   10.1325  -14.9668   19.8994 C   0  0  0  0  0  0  0  0  0  0  0  0
   11.1746  -15.8334   20.4922 C   0  0  0  0  0  0  0  0  0  0  0  0
   10.6726  -16.6582   21.6493 C   0  0  2  0  0  0  0  0  0  0  0  0
    9.4281  -16.1245   22.1001 N   0  0  0  0  0  0  0  0  0  0  0  0
   11.7197  -16.6222   22.7124 C   0  0  0  0  0  0  0  0  0  0  0  0
   12.8197  -16.0219   22.5874 O   0  0  0  0  0  0  0  0  0  0  0  0
   10.2242  -13.5982   19.8661 C   0  0  0  0  0  0  0  0  0  0  0  0
    9.2426  -12.8039   19.3128 C   0  0  0  0  0  0  0  0  0  0  0  0
    8.3910  -13.9991   28.1089 O   0  0  0  0  0  0  0  0  0  0  0  0
    9.1957  -15.0165   27.6389 C   0  0  0  0  0  0  0  0  0  0  0  0
    8.7869  -16.3295   27.5651 C   0  0  0  0  0  0  0  0  0  0  0  0
    9.6133  -17.3272   27.0901 C   0  0  0  0  0  0  0  0  0  0  0  0
   10.8859  -17.0450   26.6696 C   0  0  0  0  0  0  0  0  0  0  0  0
   11.8395  -18.0243   26.1544 C   0  0  0  0  0  0  0  0  0  0  0  0
   12.5135  -17.6693   24.8693 C   0  0  2  0  0  0  0  0  0  0  0  0
   11.4458  -17.3063   23.9242 N   0  0  0  0  0  0  0  0  0  0  0  0
   13.1868  -18.8647   24.3029 C   0  0  0  0  0  0  0  0  0  0  0  0
   14.2600  -19.3418   24.8027 O   0  0  0  0  0  0  0  0  0  0  0  0
   11.2917  -15.7107   26.7483 C   0  0  0  0  0  0  0  0  0  0  0  0
   10.4717  -14.7105   27.2211 C   0  0  0  0  0  0  0  0  0  0  0  0
   12.6967  -19.5541   23.1843 O   0  0  0  0  0  0  0  0  0  0  0  0
  2  3  1  0
  2  1  1  1
  4  5  2  0
  4  3  1  0
  6  5  1  0
  7 12  2  0
  7  6  1  0
  8  7  1  0
  9 10  1  0
  9  8  2  0
 10 11  2  0
 11 12  1  0
 12  4  1  0
 13  2  1  0
 14 13  2  0
 16 15  1  0
 17 16  2  0
 18 17  1  0
 19 18  2  0
 19 25  1  0
 20 19  1  0
 21 20  1  6
 21 22  1  0
 22 13  1  0
 23 21  1  0
 23 34  1  0
 24 23  2  0
 25 26  2  0
 26 16  1  0
 28 38  2  0
 28 27  1  0
 29 28  1  0
 30 31  1  0
 30 29  2  0
 31 37  2  0
 32 31  1  0
 33 34  1  0
 33 32  1  1
 35 33  1  0
 36 35  2  0
 37 38  1  0
 39 35  1  0
M  END
$$$$
