WYY.pdb
     RDKit          3D

 39 42  0  0  1  0  0  0  0  0999 V2000
    6.7469  -19.2242   26.2624 N   0  0  0  0  0  0  0  0  0  0  0  0
    6.8382  -17.9638   25.5360 C   0  0  1  0  0  0  0  0  0  0  0  0
    7.8639  -17.0280   26.1927 C   0  0  0  0  0  0  0  0  0  0  0  0
    7.2397  -15.7013   26.2783 C   0  0  0  0  0  0  0  0  0  0  0  0
    5.8934  -15.4323   26.2652 C   0  0  0  0  0  0  0  0  0  0  0  0
    5.7496  -14.0819   26.3648 N   0  0  0  0  0  0  0  0  0  0  0  0
    6.9598  -13.4904   26.4402 C   0  0  0  0  0  0  0  0  0  0  0  0
    7.4162  -12.1967   26.5492 C   0  0  0  0  0  0  0  0  0  0  0  0
    8.7553  -11.9040   26.6036 C   0  0  0  0  0  0  0  0  0  0  0  0
    9.6860  -12.9141   26.5494 C   0  0  0  0  0  0  0  0  0  0  0  0
    9.2634  -14.2167   26.4407 C   0  0  0  0  0  0  0  0  0  0  0  0
    7.8922  -14.5009   26.3863 C   0  0  0  0  0  0  0  0  0  0  0  0
    7.2973  -18.2438   24.1749 C   0  0  0  0  0  0  0  0  0  0  0  0
    8.0620  -19.2004   23.9274 O   0  0  0  0  0  0  0  0  0  0  0  0
    8.2424  -17.5853   15.4351 O   0  0  0  0  0  0  0  0  0  0  0  0
    7.8191  -17.4435   16.7564 C   0  0  0  0  0  0  0  0  0  0  0  0
    7.8295  -16.1772   17.3038 C   0  0  0  0  0  0  0  0  0  0  0  0
    7.4142  -16.0422   18.6001 C   0  0  0  0  0  0  0  0  0  0  0  0
    6.9877  -17.1248   19.3742 C   0  0  0  0  0  0  0  0  0  0  0  0
    6.5562  -16.9008   20.7713 C   0  0  0  0  0  0  0  0  0  0  0  0
    7.3721  -17.6737   21.7754 C   0  0  2  0  0  0  0  0  0  0  0  0
    6.8724  -17.4119   23.0863 N   0  0  0  0  0  0  0  0  0  0  0  0
    8.7944  -17.2487   21.6189 C   0  0  0  0  0  0  0  0  0  0  0  0
    9.5744  -17.7288   20.7547 O   0  0  0  0  0  0  0  0  0  0  0  0
    6.9972  -18.3619   18.7808 C   0  0  0  0  0  0  0  0  0  0  0  0
    7.4054  -18.5549   17.4783 C   0  0  0  0  0  0  0  0  0  0  0  0
    7.6171  -12.5961   17.6358 O   0  0  0  0  0  0  0  0  0  0  0  0
    8.3681  -13.0006   18.7202 C   0  0  0  0  0  0  0  0  0  0  0  0
    9.7161  -13.2722   18.6457 C   0  0  0  0  0  0  0  0  0  0  0  0
   10.4430  -13.6750   19.7473 C   0  0  0  0  0  0  0  0  0  0  0  0
    9.8432  -13.8215   20.9699 C   0  0  0  0  0  0  0  0  0  0  0  0
   10.5184  -14.2443   22.1942 C   0  0  0  0  0  0  0  0  0  0  0  0
   10.6481  -15.7189   22.3952 C   0  0  2  0  0  0  0  0  0  0  0  0
    9.2791  -16.2481   22.4995 N   0  0  0  0  0  0  0  0  0  0  0  0
   11.3059  -15.9974   23.6963 C   0  0  0  0  0  0  0  0  0  0  0  0
   10.6606  -16.4435   24.7032 O   0  0  0  0  0  0  0  0  0  0  0  0
    8.4757  -13.5440   21.0356 C   0  0  0  0  0  0  0  0  0  0  0  0
    7.7450  -13.1414   19.9401 C   0  0  0  0  0  0  0  0  0  0  0  0
   12.6761  -15.7930   23.9141 O   0  0  0  0  0  0  0  0  0  0  0  0
  2  3  1  0
  2  1  1  1
  4  5  2  0
  4  3  1  0
  6  5  1  0
  7 12  2  0
  7  6  1  0
  8  7  1  0
  9 10  1  0
  9  8  2  0
 10 11  2  0
 11 12  1  0
 12  4  1  0
 13  2  1  0
 14 13  2  0
 16 15  1  0
 17 16  2  0
 18 17  1  0
 19 18  2  0
 19 25  1  0
 20 19  1  0
 21 20  1  6
 21 22  1  0
 22 13  1  0
 23 21  1  0
 23 34  1  0
 24 23  2  0
 25 26  2  0
 26 16  1  0
 28 38  2  0
 28 27  1  0
 29 28  1  0
 30 31  1  0
 30 29  2  0
 31 37  2  0
 32 31  1  0
 33 34  1  0
 33 32  1  1
 35 33  1  0
 36 35  2  0
 37 38  1  0
 39 35  1  0
M  END
$$$$
