WYY.pdb
     RDKit          3D

 39 42  0  0  1  0  0  0  0  0999 V2000
    5.7198  -18.1524   22.6755 N   0  0  0  0  0  0  0  0  0  0  0  0
    6.4759  -16.9519   23.0096 C   0  0  1  0  0  0  0  0  0  0  0  0
    6.7451  -16.8786   24.5200 C   0  0  0  0  0  0  0  0  0  0  0  0
    5.9570  -15.7544   25.0414 C   0  0  0  0  0  0  0  0  0  0  0  0
    4.7340  -15.8349   25.6603 C   0  0  0  0  0  0  0  0  0  0  0  0
    4.3603  -14.5662   25.9844 N   0  0  0  0  0  0  0  0  0  0  0  0
    5.3063  -13.6886   25.5906 C   0  0  0  0  0  0  0  0  0  0  0  0
    5.4655  -12.3230   25.6500 C   0  0  0  0  0  0  0  0  0  0  0  0
    6.5782  -11.7015   25.1425 C   0  0  0  0  0  0  0  0  0  0  0  0
    7.5751  -12.4423   24.5536 C   0  0  0  0  0  0  0  0  0  0  0  0
    7.4470  -13.8080   24.4783 C   0  0  0  0  0  0  0  0  0  0  0  0
    6.3048  -14.4294   25.0012 C   0  0  0  0  0  0  0  0  0  0  0  0
    7.7696  -17.0125   22.3283 C   0  0  0  0  0  0  0  0  0  0  0  0
    8.3657  -18.0967   22.1539 O   0  0  0  0  0  0  0  0  0  0  0  0
    7.1756  -13.9069   15.9072 O   0  0  0  0  0  0  0  0  0  0  0  0
    7.9011  -14.0997   17.0826 C   0  0  0  0  0  0  0  0  0  0  0  0
    7.9027  -13.0810   18.0130 C   0  0  0  0  0  0  0  0  0  0  0  0
    8.6159  -13.2735   19.1643 C   0  0  0  0  0  0  0  0  0  0  0  0
    9.3301  -14.4463   19.4243 C   0  0  0  0  0  0  0  0  0  0  0  0
   10.0816  -14.5801   20.6915 C   0  0  0  0  0  0  0  0  0  0  0  0
    9.7550  -15.8441   21.4443 C   0  0  2  0  0  0  0  0  0  0  0  0
    8.3853  -15.8110   21.8436 N   0  0  0  0  0  0  0  0  0  0  0  0
   10.6810  -15.9216   22.6124 C   0  0  0  0  0  0  0  0  0  0  0  0
   11.9359  -15.8930   22.5103 O   0  0  0  0  0  0  0  0  0  0  0  0
    9.2948  -15.4273   18.4655 C   0  0  0  0  0  0  0  0  0  0  0  0
    8.5922  -15.2861   17.2879 C   0  0  0  0  0  0  0  0  0  0  0  0
   12.2947  -16.1417   31.4173 O   0  0  0  0  0  0  0  0  0  0  0  0
   11.7254  -16.1773   30.1611 C   0  0  0  0  0  0  0  0  0  0  0  0
   11.4465  -17.3480   29.4915 C   0  0  0  0  0  0  0  0  0  0  0  0
   10.8761  -17.3539   28.2351 C   0  0  0  0  0  0  0  0  0  0  0  0
   10.5626  -16.1816   27.6000 C   0  0  0  0  0  0  0  0  0  0  0  0
    9.9614  -16.0771   26.2728 C   0  0  0  0  0  0  0  0  0  0  0  0
   10.9151  -15.9922   25.1262 C   0  0  2  0  0  0  0  0  0  0  0  0
   10.1004  -16.0333   23.9016 N   0  0  0  0  0  0  0  0  0  0  0  0
   11.7800  -17.1980   25.0956 C   0  0  0  0  0  0  0  0  0  0  0  0
   12.9426  -17.2149   25.6222 O   0  0  0  0  0  0  0  0  0  0  0  0
   10.8493  -14.9994   28.2867 C   0  0  0  0  0  0  0  0  0  0  0  0
   11.4181  -14.9869   29.5406 C   0  0  0  0  0  0  0  0  0  0  0  0
   11.3863  -18.4003   24.4904 O   0  0  0  0  0  0  0  0  0  0  0  0
  2  3  1  0
  2  1  1  1
  4  5  2  0
  4  3  1  0
  6  5  1  0
  7 12  2  0
  7  6  1  0
  8  7  1  0
  9 10  1  0
  9  8  2  0
 10 11  2  0
 11 12  1  0
 12  4  1  0
 13  2  1  0
 14 13  2  0
 16 15  1  0
 17 16  2  0
 18 17  1  0
 19 18  2  0
 19 25  1  0
 20 19  1  0
 21 20  1  1
 21 22  1  0
 22 13  1  0
 23 21  1  0
 23 34  1  0
 24 23  2  0
 25 26  2  0
 26 16  1  0
 28 38  2  0
 28 27  1  0
 29 28  1  0
 30 31  1  0
 30 29  2  0
 31 37  2  0
 32 31  1  0
 33 34  1  0
 33 32  1  1
 35 33  1  0
 36 35  2  0
 37 38  1  0
 39 35  1  0
M  END
$$$$
