WYY.pdb
     RDKit          3D

 39 42  0  0  1  0  0  0  0  0999 V2000
    9.2434  -17.9110   20.7087 N   0  0  0  0  0  0  0  0  0  0  0  0
    9.4134  -16.8612   21.7056 C   0  0  1  0  0  0  0  0  0  0  0  0
    8.1488  -16.7139   22.5648 C   0  0  0  0  0  0  0  0  0  0  0  0
    7.2150  -15.8677   21.8105 C   0  0  0  0  0  0  0  0  0  0  0  0
    6.0375  -16.2705   21.2305 C   0  0  0  0  0  0  0  0  0  0  0  0
    5.4851  -15.1776   20.6352 N   0  0  0  0  0  0  0  0  0  0  0  0
    6.2745  -14.0992   20.8201 C   0  0  0  0  0  0  0  0  0  0  0  0
    6.2273  -12.7728   20.4568 C   0  0  0  0  0  0  0  0  0  0  0  0
    7.2182  -11.8910   20.8064 C   0  0  0  0  0  0  0  0  0  0  0  0
    8.2984  -12.3209   21.5398 C   0  0  0  0  0  0  0  0  0  0  0  0
    8.3759  -13.6392   21.9187 C   0  0  0  0  0  0  0  0  0  0  0  0
    7.3561  -14.5287   21.5545 C   0  0  0  0  0  0  0  0  0  0  0  0
   10.5145  -17.2370   22.5933 C   0  0  0  0  0  0  0  0  0  0  0  0
   10.8874  -18.4243   22.7048 O   0  0  0  0  0  0  0  0  0  0  0  0
   17.7645  -16.7491   27.4740 O   0  0  0  0  0  0  0  0  0  0  0  0
   16.6518  -16.4528   26.6870 C   0  0  0  0  0  0  0  0  0  0  0  0
   15.7243  -15.5646   27.1911 C   0  0  0  0  0  0  0  0  0  0  0  0
   14.6341  -15.2770   26.4165 C   0  0  0  0  0  0  0  0  0  0  0  0
   14.4323  -15.8430   25.1547 C   0  0  0  0  0  0  0  0  0  0  0  0
   13.2258  -15.4860   24.3767 C   0  0  0  0  0  0  0  0  0  0  0  0
   12.2514  -16.6270   24.2363 C   0  0  2  0  0  0  0  0  0  0  0  0
   11.1932  -16.2346   23.3629 N   0  0  0  0  0  0  0  0  0  0  0  0
   11.7576  -16.9651   25.6037 C   0  0  0  0  0  0  0  0  0  0  0  0
   12.5128  -17.2970   26.5553 O   0  0  0  0  0  0  0  0  0  0  0  0
   15.3854  -16.7199   24.7015 C   0  0  0  0  0  0  0  0  0  0  0  0
   16.5030  -17.0450   25.4401 C   0  0  0  0  0  0  0  0  0  0  0  0
    7.1736  -11.4810   25.0437 O   0  0  0  0  0  0  0  0  0  0  0  0
    7.4976  -12.7160   25.5665 C   0  0  0  0  0  0  0  0  0  0  0  0
    8.5040  -12.9055   26.4873 C   0  0  0  0  0  0  0  0  0  0  0  0
    8.8064  -14.1529   26.9938 C   0  0  0  0  0  0  0  0  0  0  0  0
    8.1086  -15.2617   26.5945 C   0  0  0  0  0  0  0  0  0  0  0  0
    8.3498  -16.6235   27.0649 C   0  0  0  0  0  0  0  0  0  0  0  0
    9.7817  -17.0347   27.1753 C   0  0  2  0  0  0  0  0  0  0  0  0
   10.3585  -16.9046   25.8279 N   0  0  0  0  0  0  0  0  0  0  0  0
    9.8702  -18.4725   27.5326 C   0  0  0  0  0  0  0  0  0  0  0  0
   10.1029  -19.3768   26.6624 O   0  0  0  0  0  0  0  0  0  0  0  0
    7.0900  -15.0597   25.6603 C   0  0  0  0  0  0  0  0  0  0  0  0
    6.7832  -13.8176   25.1513 C   0  0  0  0  0  0  0  0  0  0  0  0
    9.7064  -18.9410   28.8443 O   0  0  0  0  0  0  0  0  0  0  0  0
  2  3  1  0
  2  1  1  6
  4  5  2  0
  4  3  1  0
  6  5  1  0
  7 12  2  0
  7  6  1  0
  8  7  1  0
  9 10  1  0
  9  8  2  0
 10 11  2  0
 11 12  1  0
 12  4  1  0
 13  2  1  0
 14 13  2  0
 16 15  1  0
 17 16  2  0
 18 17  1  0
 19 18  2  0
 19 25  1  0
 20 19  1  0
 21 20  1  1
 21 22  1  0
 22 13  1  0
 23 21  1  0
 23 34  1  0
 24 23  2  0
 25 26  2  0
 26 16  1  0
 28 38  2  0
 28 27  1  0
 29 28  1  0
 30 31  1  0
 30 29  2  0
 31 37  2  0
 32 31  1  0
 33 34  1  0
 33 32  1  6
 35 33  1  0
 36 35  2  0
 37 38  1  0
 39 35  1  0
M  END
$$$$
