WYY.pdb
     RDKit          3D

 39 42  0  0  1  0  0  0  0  0999 V2000
    6.5859  -18.5803   25.3264 N   0  0  0  0  0  0  0  0  0  0  0  0
    6.6599  -17.1616   25.0001 C   0  0  1  0  0  0  0  0  0  0  0  0
    7.6387  -16.4363   25.9357 C   0  0  0  0  0  0  0  0  0  0  0  0
    6.9281  -15.2713   26.4787 C   0  0  0  0  0  0  0  0  0  0  0  0
    5.6429  -15.2535   26.9615 C   0  0  0  0  0  0  0  0  0  0  0  0
    5.3797  -13.9797   27.3643 N   0  0  0  0  0  0  0  0  0  0  0  0
    6.4554  -13.1937   27.1516 C   0  0  0  0  0  0  0  0  0  0  0  0
    6.7586  -11.8668   27.3547 C   0  0  0  0  0  0  0  0  0  0  0  0
    7.9829  -11.3451   27.0221 C   0  0  0  0  0  0  0  0  0  0  0  0
    8.9498  -12.1505   26.4691 C   0  0  0  0  0  0  0  0  0  0  0  0
    8.6792  -13.4800   26.2533 C   0  0  0  0  0  0  0  0  0  0  0  0
    7.4241  -13.9993   26.5983 C   0  0  0  0  0  0  0  0  0  0  0  0
    7.1649  -17.0245   23.6334 C   0  0  0  0  0  0  0  0  0  0  0  0
    7.9496  -17.8624   23.1400 O   0  0  0  0  0  0  0  0  0  0  0  0
    8.8956  -13.5453   15.7679 O   0  0  0  0  0  0  0  0  0  0  0  0
    8.4110  -13.7408   17.0610 C   0  0  0  0  0  0  0  0  0  0  0  0
    7.5325  -14.7841   17.2687 C   0  0  0  0  0  0  0  0  0  0  0  0
    7.0589  -14.9723   18.5382 C   0  0  0  0  0  0  0  0  0  0  0  0
    7.4285  -14.1576   19.6118 C   0  0  0  0  0  0  0  0  0  0  0  0
    6.8712  -14.4210   20.9565 C   0  0  0  0  0  0  0  0  0  0  0  0
    7.4837  -15.6235   21.6275 C   0  0  2  0  0  0  0  0  0  0  0  0
    6.7632  -15.9092   22.8258 N   0  0  0  0  0  0  0  0  0  0  0  0
    8.9175  -15.3056   21.8939 C   0  0  0  0  0  0  0  0  0  0  0  0
    9.2960  -14.3592   22.6335 O   0  0  0  0  0  0  0  0  0  0  0  0
    8.3048  -13.1347   19.3498 C   0  0  0  0  0  0  0  0  0  0  0  0
    8.8130  -12.9000   18.0900 C   0  0  0  0  0  0  0  0  0  0  0  0
   10.0494  -16.7438   27.8023 O   0  0  0  0  0  0  0  0  0  0  0  0
   10.4933  -16.7641   26.4962 C   0  0  0  0  0  0  0  0  0  0  0  0
   11.2423  -15.7524   25.9376 C   0  0  0  0  0  0  0  0  0  0  0  0
   11.6734  -15.7992   24.6277 C   0  0  0  0  0  0  0  0  0  0  0  0
   11.3685  -16.8663   23.8251 C   0  0  0  0  0  0  0  0  0  0  0  0
   11.7713  -17.0125   22.4287 C   0  0  0  0  0  0  0  0  0  0  0  0
   11.3351  -15.9238   21.5034 C   0  0  2  0  0  0  0  0  0  0  0  0
    9.8956  -16.1236   21.2728 N   0  0  0  0  0  0  0  0  0  0  0  0
   11.9974  -16.0834   20.1847 C   0  0  0  0  0  0  0  0  0  0  0  0
   11.3430  -16.3561   19.1233 O   0  0  0  0  0  0  0  0  0  0  0  0
   10.6083  -17.8874   24.4003 C   0  0  0  0  0  0  0  0  0  0  0  0
   10.1754  -17.8468   25.7068 C   0  0  0  0  0  0  0  0  0  0  0  0
   13.3819  -15.9466   20.0083 O   0  0  0  0  0  0  0  0  0  0  0  0
  2  3  1  0
  2  1  1  1
  4  5  2  0
  4  3  1  0
  6  5  1  0
  7 12  2  0
  7  6  1  0
  8  7  1  0
  9 10  1  0
  9  8  2  0
 10 11  2  0
 11 12  1  0
 12  4  1  0
 13  2  1  0
 14 13  2  0
 16 15  1  0
 17 16  2  0
 18 17  1  0
 19 18  2  0
 19 25  1  0
 20 19  1  0
 21 20  1  1
 21 22  1  0
 22 13  1  0
 23 21  1  0
 23 34  1  0
 24 23  2  0
 25 26  2  0
 26 16  1  0
 28 38  2  0
 28 27  1  0
 29 28  1  0
 30 31  1  0
 30 29  2  0
 31 37  2  0
 32 31  1  0
 33 34  1  0
 33 32  1  1
 35 33  1  0
 36 35  2  0
 37 38  1  0
 39 35  1  0
M  END
$$$$
