WYY.pdb
     RDKit          3D

 39 42  0  0  1  0  0  0  0  0999 V2000
    5.9495  -17.2873   24.7801 N   0  0  0  0  0  0  0  0  0  0  0  0
    6.8128  -16.2691   24.1947 C   0  0  1  0  0  0  0  0  0  0  0  0
    7.7471  -15.6692   25.2560 C   0  0  0  0  0  0  0  0  0  0  0  0
    6.9373  -14.7549   26.0716 C   0  0  0  0  0  0  0  0  0  0  0  0
    5.9711  -15.1121   26.9793 C   0  0  0  0  0  0  0  0  0  0  0  0
    5.4702  -13.9628   27.5105 N   0  0  0  0  0  0  0  0  0  0  0  0
    6.0879  -12.8929   26.9684 C   0  0  0  0  0  0  0  0  0  0  0  0
    5.9978  -11.5275   27.1147 C   0  0  0  0  0  0  0  0  0  0  0  0
    6.7893  -10.6688   26.3950 C   0  0  0  0  0  0  0  0  0  0  0  0
    7.7050  -11.1623   25.4965 C   0  0  0  0  0  0  0  0  0  0  0  0
    7.8201  -12.5207   25.3267 C   0  0  0  0  0  0  0  0  0  0  0  0
    7.0051  -13.3860   26.0689 C   0  0  0  0  0  0  0  0  0  0  0  0
    7.6472  -16.8996   23.1710 C   0  0  0  0  0  0  0  0  0  0  0  0
    7.3221  -17.9826   22.6394 O   0  0  0  0  0  0  0  0  0  0  0  0
    8.0927  -13.9687   15.3701 O   0  0  0  0  0  0  0  0  0  0  0  0
    8.0777  -14.2541   16.7352 C   0  0  0  0  0  0  0  0  0  0  0  0
    7.9471  -13.1976   17.6128 C   0  0  0  0  0  0  0  0  0  0  0  0
    7.9334  -13.4815   18.9509 C   0  0  0  0  0  0  0  0  0  0  0  0
    8.0456  -14.7823   19.4492 C   0  0  0  0  0  0  0  0  0  0  0  0
    8.0265  -15.0106   20.9107 C   0  0  0  0  0  0  0  0  0  0  0  0
    9.0716  -15.9939   21.3713 C   0  0  2  0  0  0  0  0  0  0  0  0
    8.8709  -16.2769   22.7556 N   0  0  0  0  0  0  0  0  0  0  0  0
   10.4079  -15.3829   21.1087 C   0  0  0  0  0  0  0  0  0  0  0  0
   11.0496  -15.5438   20.0372 O   0  0  0  0  0  0  0  0  0  0  0  0
    8.1732  -15.7957   18.5329 C   0  0  0  0  0  0  0  0  0  0  0  0
    8.1925  -15.5663   17.1737 C   0  0  0  0  0  0  0  0  0  0  0  0
   11.4703  -16.5900   29.6598 O   0  0  0  0  0  0  0  0  0  0  0  0
   11.2026  -16.3687   28.3246 C   0  0  0  0  0  0  0  0  0  0  0  0
   11.2632  -17.3580   27.3685 C   0  0  0  0  0  0  0  0  0  0  0  0
   10.9899  -17.1082   26.0392 C   0  0  0  0  0  0  0  0  0  0  0  0
   10.6444  -15.8520   25.6167 C   0  0  0  0  0  0  0  0  0  0  0  0
   10.3397  -15.4812   24.2371 C   0  0  0  0  0  0  0  0  0  0  0  0
   11.5136  -15.1651   23.3690 C   0  0  2  0  0  0  0  0  0  0  0  0
   10.9727  -14.5797   22.1322 N   0  0  0  0  0  0  0  0  0  0  0  0
   12.2038  -16.4182   22.9734 C   0  0  0  0  0  0  0  0  0  0  0  0
   11.5833  -17.3967   22.4378 O   0  0  0  0  0  0  0  0  0  0  0  0
   10.5858  -14.8551   26.5936 C   0  0  0  0  0  0  0  0  0  0  0  0
   10.8570  -15.0981   27.9215 C   0  0  0  0  0  0  0  0  0  0  0  0
   13.5796  -16.6184   23.1569 O   0  0  0  0  0  0  0  0  0  0  0  0
  2  3  1  0
  2  1  1  1
  4  5  2  0
  4  3  1  0
  6  5  1  0
  7 12  2  0
  7  6  1  0
  8  7  1  0
  9 10  1  0
  9  8  2  0
 10 11  2  0
 11 12  1  0
 12  4  1  0
 13  2  1  0
 14 13  2  0
 16 15  1  0
 17 16  2  0
 18 17  1  0
 19 18  2  0
 19 25  1  0
 20 19  1  0
 21 20  1  1
 21 22  1  0
 22 13  1  0
 23 21  1  0
 23 34  1  0
 24 23  2  0
 25 26  2  0
 26 16  1  0
 28 38  2  0
 28 27  1  0
 29 28  1  0
 30 31  1  0
 30 29  2  0
 31 37  2  0
 32 31  1  0
 33 34  1  0
 33 32  1  1
 35 33  1  0
 36 35  2  0
 37 38  1  0
 39 35  1  0
M  END
$$$$
