WYY.pdb
     RDKit          3D

 39 42  0  0  1  0  0  0  0  0999 V2000
   10.2098  -17.1865   18.9629 N   0  0  0  0  0  0  0  0  0  0  0  0
    9.8317  -16.4411   20.1571 C   0  0  1  0  0  0  0  0  0  0  0  0
    8.3140  -16.2083   20.1978 C   0  0  0  0  0  0  0  0  0  0  0  0
    8.0824  -14.8200   19.7784 C   0  0  0  0  0  0  0  0  0  0  0  0
    7.9480  -14.3707   18.4879 C   0  0  0  0  0  0  0  0  0  0  0  0
    7.7473  -13.0252   18.5468 N   0  0  0  0  0  0  0  0  0  0  0  0
    7.7507  -12.6109   19.8307 C   0  0  0  0  0  0  0  0  0  0  0  0
    7.6023  -11.4035   20.4741 C   0  0  0  0  0  0  0  0  0  0  0  0
    7.6585  -11.3002   21.8409 C   0  0  0  0  0  0  0  0  0  0  0  0
    7.8678  -12.4199   22.6103 C   0  0  0  0  0  0  0  0  0  0  0  0
    8.0198  -13.6407   21.9990 C   0  0  0  0  0  0  0  0  0  0  0  0
    7.9600  -13.7312   20.6018 C   0  0  0  0  0  0  0  0  0  0  0  0
   10.1931  -17.2331   21.3335 C   0  0  0  0  0  0  0  0  0  0  0  0
   10.0831  -18.4777   21.3418 O   0  0  0  0  0  0  0  0  0  0  0  0
   15.4086  -14.8888   19.6707 O   0  0  0  0  0  0  0  0  0  0  0  0
   14.6935  -15.6344   20.6076 C   0  0  0  0  0  0  0  0  0  0  0  0
   13.7196  -16.4927   20.1402 C   0  0  0  0  0  0  0  0  0  0  0  0
   13.0201  -17.2218   21.0623 C   0  0  0  0  0  0  0  0  0  0  0  0
   13.2546  -17.1276   22.4368 C   0  0  0  0  0  0  0  0  0  0  0  0
   12.4543  -17.9459   23.3738 C   0  0  0  0  0  0  0  0  0  0  0  0
   11.0810  -17.3809   23.6309 C   0  0  2  0  0  0  0  0  0  0  0  0
   10.6854  -16.5847   22.5145 N   0  0  0  0  0  0  0  0  0  0  0  0
   11.1525  -16.5868   24.8927 C   0  0  0  0  0  0  0  0  0  0  0  0
   11.8444  -15.5424   25.0207 O   0  0  0  0  0  0  0  0  0  0  0  0
   14.2343  -16.2589   22.8473 C   0  0  0  0  0  0  0  0  0  0  0  0
   14.9695  -15.5005   21.9616 C   0  0  0  0  0  0  0  0  0  0  0  0
    6.2697  -11.9017   25.1711 O   0  0  0  0  0  0  0  0  0  0  0  0
    6.8815  -12.9813   25.7742 C   0  0  0  0  0  0  0  0  0  0  0  0
    6.2838  -14.2159   25.8976 C   0  0  0  0  0  0  0  0  0  0  0  0
    6.9196  -15.2788   26.5057 C   0  0  0  0  0  0  0  0  0  0  0  0
    8.1837  -15.1435   27.0153 C   0  0  0  0  0  0  0  0  0  0  0  0
    8.9421  -16.2009   27.6790 C   0  0  0  0  0  0  0  0  0  0  0  0
   10.3769  -16.3261   27.2821 C   0  0  2  0  0  0  0  0  0  0  0  0
   10.3939  -17.0466   25.9993 N   0  0  0  0  0  0  0  0  0  0  0  0
   11.0990  -17.1838   28.2547 C   0  0  0  0  0  0  0  0  0  0  0  0
   11.4296  -18.3871   27.9864 O   0  0  0  0  0  0  0  0  0  0  0  0
    8.7817  -13.8878   26.8858 C   0  0  0  0  0  0  0  0  0  0  0  0
    8.1526  -12.8233   26.2798 C   0  0  0  0  0  0  0  0  0  0  0  0
   11.4697  -16.7384   29.5318 O   0  0  0  0  0  0  0  0  0  0  0  0
  2  3  1  0
  2  1  1  6
  4  5  2  0
  4  3  1  0
  6  5  1  0
  7 12  2  0
  7  6  1  0
  8  7  1  0
  9 10  1  0
  9  8  2  0
 10 11  2  0
 11 12  1  0
 12  4  1  0
 13  2  1  0
 14 13  2  0
 16 15  1  0
 17 16  2  0
 18 17  1  0
 19 18  2  0
 19 25  1  0
 20 19  1  0
 21 20  1  6
 21 22  1  0
 22 13  1  0
 23 21  1  0
 23 34  1  0
 24 23  2  0
 25 26  2  0
 26 16  1  0
 28 38  2  0
 28 27  1  0
 29 28  1  0
 30 31  1  0
 30 29  2  0
 31 37  2  0
 32 31  1  0
 33 34  1  0
 33 32  1  1
 35 33  1  0
 36 35  2  0
 37 38  1  0
 39 35  1  0
M  END
$$$$
