HIK.pdb
     RDKit          3D

 28 28  0  0  1  0  0  0  0  0999 V2000
   17.8661  -12.4463  -16.0117 N   0  0  0  0  0  0  0  0  0  0  0  0
   18.5168  -11.4783  -16.8659 C   0  0  1  0  0  0  0  0  0  0  0  0
   17.6332  -11.0530  -18.0196 C   0  0  0  0  0  0  0  0  0  0  0  0
   17.3112  -12.1479  -18.9447 C   0  0  0  0  0  0  0  0  0  0  0  0
   16.1207  -12.8419  -18.9960 C   0  0  0  0  0  0  0  0  0  0  0  0
   16.1831  -13.7807  -19.9711 N   0  0  0  0  0  0  0  0  0  0  0  0
   17.4048  -13.6545  -20.5061 C   0  0  0  0  0  0  0  0  0  0  0  0
   18.0947  -12.6737  -19.8961 N   0  0  0  0  0  0  0  0  0  0  0  0
   18.9340  -10.3260  -16.0411 C   0  0  0  0  0  0  0  0  0  0  0  0
   18.2011   -9.9520  -15.0962 O   0  0  0  0  0  0  0  0  0  0  0  0
   23.6428  -10.1868  -14.0316 C   0  0  0  0  0  0  0  0  0  0  0  0
   22.1340  -10.0134  -14.2600 C   0  0  0  0  0  0  0  0  0  0  0  0
   21.9473   -8.7536  -15.0210 C   0  0  2  0  0  0  0  0  0  0  0  0
   22.5976   -7.5924  -14.3302 C   0  0  0  0  0  0  0  0  0  0  0  0
   20.5106   -8.4419  -15.4137 C   0  0  2  0  0  0  0  0  0  0  0  0
   20.1362   -9.6050  -16.2592 N   0  0  0  0  0  0  0  0  0  0  0  0
   20.4694   -7.2054  -16.1784 C   0  0  0  0  0  0  0  0  0  0  0  0
   21.2435   -7.0671  -17.1679 O   0  0  0  0  0  0  0  0  0  0  0  0
   19.6017   -6.1619  -15.8638 N   0  0  0  0  0  0  0  0  0  0  0  0
   19.6077   -4.8743  -16.5616 C   0  0  1  0  0  0  0  0  0  0  0  0
   18.1713   -4.3500  -16.4570 C   0  0  0  0  0  0  0  0  0  0  0  0
   18.1353   -3.0029  -17.1412 C   0  0  0  0  0  0  0  0  0  0  0  0
   16.7689   -2.3663  -17.0373 C   0  0  0  0  0  0  0  0  0  0  0  0
   16.7129   -1.0417  -17.7409 C   0  0  0  0  0  0  0  0  0  0  0  0
   15.3896   -0.4749  -17.5091 N   0  0  0  0  0  0  0  0  0  0  0  0
   20.4700   -3.8952  -15.8801 C   0  0  0  0  0  0  0  0  0  0  0  0
   20.5698   -3.7465  -14.6430 O   0  0  0  0  0  0  0  0  0  0  0  0
   21.2588   -3.0427  -16.6599 O   0  0  0  0  0  0  0  0  0  0  0  0
  2  1  1  1
  3  2  1  0
  4  3  1  0
  4  5  2  0
  6  5  1  0
  7  8  2  0
  7  6  1  0
  8  4  1  0
  9  2  1  0
 10  9  2  0
 12 11  1  0
 13 15  1  0
 13 12  1  0
 13 14  1  1
 15 16  1  6
 16  9  1  0
 17 15  1  0
 18 17  2  0
 19 17  1  0
 20 26  1  0
 20 19  1  0
 21 22  1  0
 20 21  1  1
 23 24  1  0
 23 22  1  0
 24 25  1  0
 26 28  1  0
 27 26  2  0
M  END
$$$$
