HIK.pdb
     RDKit          3D

 28 28  0  0  1  0  0  0  0  0999 V2000
   27.5639  -18.6379  -16.2963 N   0  0  0  0  0  0  0  0  0  0  0  0
   26.6861  -18.1492  -15.2567 C   0  0  1  0  0  0  0  0  0  0  0  0
   25.8042  -17.0181  -15.7422 C   0  0  0  0  0  0  0  0  0  0  0  0
   26.5557  -15.8226  -16.1475 C   0  0  0  0  0  0  0  0  0  0  0  0
   27.1275  -14.8983  -15.2988 C   0  0  0  0  0  0  0  0  0  0  0  0
   27.7376  -13.9305  -16.0247 N   0  0  0  0  0  0  0  0  0  0  0  0
   27.5356  -14.2683  -17.3053 C   0  0  0  0  0  0  0  0  0  0  0  0
   26.8244  -15.4069  -17.3927 N   0  0  0  0  0  0  0  0  0  0  0  0
   25.8907  -19.2814  -14.7397 C   0  0  0  0  0  0  0  0  0  0  0  0
   25.3895  -20.0972  -15.5478 O   0  0  0  0  0  0  0  0  0  0  0  0
   26.9855  -21.0850   -9.7578 C   0  0  0  0  0  0  0  0  0  0  0  0
   26.6842  -21.1569  -11.2620 C   0  0  0  0  0  0  0  0  0  0  0  0
   25.2536  -20.8068  -11.4403 C   0  0  2  0  0  0  0  0  0  0  0  0
   24.3591  -21.7533  -10.6970 C   0  0  0  0  0  0  0  0  0  0  0  0
   24.8067  -20.6267  -12.8837 C   0  0  2  0  0  0  0  0  0  0  0  0
   25.6565  -19.5039  -13.3582 N   0  0  0  0  0  0  0  0  0  0  0  0
   23.3979  -20.2666  -12.9188 C   0  0  0  0  0  0  0  0  0  0  0  0
   23.0128  -19.2269  -12.3121 O   0  0  0  0  0  0  0  0  0  0  0  0
   22.4505  -21.0253  -13.6024 N   0  0  0  0  0  0  0  0  0  0  0  0
   21.0247  -20.6924  -13.6324 C   0  0  1  0  0  0  0  0  0  0  0  0
   20.5665  -21.0007  -15.0621 C   0  0  0  0  0  0  0  0  0  0  0  0
   19.1178  -20.5833  -15.1681 C   0  0  0  0  0  0  0  0  0  0  0  0
   18.5514  -20.8935  -16.5341 C   0  0  0  0  0  0  0  0  0  0  0  0
   17.1415  -20.4003  -16.6814 C   0  0  0  0  0  0  0  0  0  0  0  0
   16.7542  -20.5820  -18.0753 N   0  0  0  0  0  0  0  0  0  0  0  0
   20.2478  -21.5656  -12.7377 C   0  0  0  0  0  0  0  0  0  0  0  0
   20.5286  -22.7484  -12.4470 O   0  0  0  0  0  0  0  0  0  0  0  0
   19.0881  -21.0537  -12.1460 O   0  0  0  0  0  0  0  0  0  0  0  0
  2  1  1  6
  3  2  1  0
  4  3  1  0
  4  5  2  0
  6  5  1  0
  7  8  2  0
  7  6  1  0
  8  4  1  0
  9  2  1  0
 10  9  2  0
 12 11  1  0
 13 15  1  0
 13 12  1  0
 13 14  1  6
 15 16  1  1
 16  9  1  0
 17 15  1  0
 18 17  2  0
 19 17  1  0
 20 26  1  0
 20 19  1  0
 21 22  1  0
 20 21  1  6
 23 24  1  0
 23 22  1  0
 24 25  1  0
 26 28  1  0
 27 26  2  0
M  END
$$$$
