HIK.pdb
     RDKit          3D

 28 28  0  0  1  0  0  0  0  0999 V2000
   21.3934  -15.5403  -17.4044 N   0  0  0  0  0  0  0  0  0  0  0  0
   21.4394  -14.2050  -17.9563 C   0  0  1  0  0  0  0  0  0  0  0  0
   20.1319  -13.8159  -18.6135 C   0  0  0  0  0  0  0  0  0  0  0  0
   19.7714  -14.6721  -19.7516 C   0  0  0  0  0  0  0  0  0  0  0  0
   20.5660  -14.9432  -20.8455 C   0  0  0  0  0  0  0  0  0  0  0  0
   19.9062  -15.7687  -21.6935 N   0  0  0  0  0  0  0  0  0  0  0  0
   18.7193  -15.9952  -21.1150 C   0  0  0  0  0  0  0  0  0  0  0  0
   18.6256  -15.3398  -19.9438 N   0  0  0  0  0  0  0  0  0  0  0  0
   21.8148  -13.2629  -16.8822 C   0  0  0  0  0  0  0  0  0  0  0  0
   21.2253  -13.3263  -15.7785 O   0  0  0  0  0  0  0  0  0  0  0  0
   26.8132  -10.7819  -14.8986 C   0  0  0  0  0  0  0  0  0  0  0  0
   25.2927  -10.6017  -14.7799 C   0  0  0  0  0  0  0  0  0  0  0  0
   24.6699  -11.4039  -15.8613 C   0  0  2  0  0  0  0  0  0  0  0  0
   25.2985  -11.1152  -17.1918 C   0  0  0  0  0  0  0  0  0  0  0  0
   23.1515  -11.3307  -15.9288 C   0  0  2  0  0  0  0  0  0  0  0  0
   22.8208  -12.2734  -17.0288 N   0  0  0  0  0  0  0  0  0  0  0  0
   22.7409   -9.9756  -16.2611 C   0  0  0  0  0  0  0  0  0  0  0  0
   23.1187   -9.4685  -17.3554 O   0  0  0  0  0  0  0  0  0  0  0  0
   21.9391   -9.2106  -15.4171 N   0  0  0  0  0  0  0  0  0  0  0  0
   21.4984   -7.8521  -15.7415 C   0  0  1  0  0  0  0  0  0  0  0  0
   19.9928   -7.9664  -16.0044 C   0  0  0  0  0  0  0  0  0  0  0  0
   19.5254   -6.6256  -16.5220 C   0  0  0  0  0  0  0  0  0  0  0  0
   18.0216   -6.5806  -16.6625 C   0  0  0  0  0  0  0  0  0  0  0  0
   17.5433   -5.2406  -17.1402 C   0  0  0  0  0  0  0  0  0  0  0  0
   16.0873   -5.2384  -17.0613 N   0  0  0  0  0  0  0  0  0  0  0  0
   21.6637   -6.9431  -14.5956 C   0  0  0  0  0  0  0  0  0  0  0  0
   21.5715   -7.2629  -13.3908 O   0  0  0  0  0  0  0  0  0  0  0  0
   21.9498   -5.5970  -14.8465 O   0  0  0  0  0  0  0  0  0  0  0  0
  2  1  1  1
  3  2  1  0
  4  3  1  0
  4  5  2  0
  6  5  1  0
  7  8  2  0
  7  6  1  0
  8  4  1  0
  9  2  1  0
 10  9  2  0
 12 11  1  0
 13 15  1  0
 13 12  1  0
 13 14  1  6
 15 16  1  6
 16  9  1  0
 17 15  1  0
 18 17  2  0
 19 17  1  0
 20 26  1  0
 20 19  1  0
 21 22  1  0
 20 21  1  1
 23 24  1  0
 23 22  1  0
 24 25  1  0
 26 28  1  0
 27 26  2  0
M  END
$$$$
