HIK.pdb
     RDKit          3D

 28 28  0  0  1  0  0  0  0  0999 V2000
   16.5219  -26.3158  -12.8258 N   0  0  0  0  0  0  0  0  0  0  0  0
   15.8101  -25.7451  -11.7044 C   0  0  1  0  0  0  0  0  0  0  0  0
   14.3848  -26.2489  -11.6194 C   0  0  0  0  0  0  0  0  0  0  0  0
   13.5156  -25.7285  -12.6833 C   0  0  0  0  0  0  0  0  0  0  0  0
   12.6413  -26.4692  -13.4505 C   0  0  0  0  0  0  0  0  0  0  0  0
   12.0082  -25.6568  -14.3309 N   0  0  0  0  0  0  0  0  0  0  0  0
   12.4973  -24.4317  -14.0968 C   0  0  0  0  0  0  0  0  0  0  0  0
   13.4068  -24.4616  -13.1060 N   0  0  0  0  0  0  0  0  0  0  0  0
   16.5676  -26.0319  -10.4691 C   0  0  0  0  0  0  0  0  0  0  0  0
   16.9750  -27.1977  -10.2575 O   0  0  0  0  0  0  0  0  0  0  0  0
   20.2186  -22.5936   -9.2100 C   0  0  0  0  0  0  0  0  0  0  0  0
   19.4916  -23.9306   -9.4162 C   0  0  0  0  0  0  0  0  0  0  0  0
   18.6363  -24.1533   -8.2246 C   0  0  2  0  0  0  0  0  0  0  0  0
   19.4444  -24.1617   -6.9615 C   0  0  0  0  0  0  0  0  0  0  0  0
   17.7111  -25.3585   -8.3085 C   0  0  2  0  0  0  0  0  0  0  0  0
   16.8664  -25.0486   -9.4910 N   0  0  0  0  0  0  0  0  0  0  0  0
   16.9067  -25.4433   -7.0997 C   0  0  0  0  0  0  0  0  0  0  0  0
   16.0835  -24.5197   -6.8418 O   0  0  0  0  0  0  0  0  0  0  0  0
   17.0054  -26.5115   -6.2110 N   0  0  0  0  0  0  0  0  0  0  0  0
   16.1834  -26.6314   -5.0049 C   0  0  1  0  0  0  0  0  0  0  0  0
   16.3708  -28.0762   -4.5287 C   0  0  0  0  0  0  0  0  0  0  0  0
   17.4089  -28.0548   -3.4306 C   0  0  0  0  0  0  0  0  0  0  0  0
   17.5662  -29.4151   -2.7917 C   0  0  0  0  0  0  0  0  0  0  0  0
   18.5841  -29.4017   -1.6888 C   0  0  0  0  0  0  0  0  0  0  0  0
   18.5438  -30.7049   -1.0360 N   0  0  0  0  0  0  0  0  0  0  0  0
   16.6767  -25.7594   -3.9266 C   0  0  0  0  0  0  0  0  0  0  0  0
   17.8276  -25.2784   -3.8455 O   0  0  0  0  0  0  0  0  0  0  0  0
   15.8029  -25.4221   -2.8876 O   0  0  0  0  0  0  0  0  0  0  0  0
  2  1  1  6
  3  2  1  0
  4  3  1  0
  4  5  2  0
  6  5  1  0
  7  8  2  0
  7  6  1  0
  8  4  1  0
  9  2  1  0
 10  9  2  0
 12 11  1  0
 13 15  1  0
 13 12  1  0
 13 14  1  1
 15 16  1  6
 16  9  1  0
 17 15  1  0
 18 17  2  0
 19 17  1  0
 20 26  1  0
 20 19  1  0
 21 22  1  0
 20 21  1  1
 23 24  1  0
 23 22  1  0
 24 25  1  0
 26 28  1  0
 27 26  2  0
M  END
$$$$
