HIK.pdb
     RDKit          3D

 28 28  0  0  1  0  0  0  0  0999 V2000
   22.9542  -19.7822  -16.5180 N   0  0  0  0  0  0  0  0  0  0  0  0
   21.5887  -19.9694  -16.0817 C   0  0  1  0  0  0  0  0  0  0  0  0
   20.7221  -20.5711  -17.1677 C   0  0  0  0  0  0  0  0  0  0  0  0
   20.6051  -19.7220  -18.3609 C   0  0  0  0  0  0  0  0  0  0  0  0
   21.2274  -19.9367  -19.5726 C   0  0  0  0  0  0  0  0  0  0  0  0
   20.8896  -18.9508  -20.4384 N   0  0  0  0  0  0  0  0  0  0  0  0
   20.0675  -18.1447  -19.7536 C   0  0  0  0  0  0  0  0  0  0  0  0
   19.8880  -18.5986  -18.4999 N   0  0  0  0  0  0  0  0  0  0  0  0
   21.5931  -20.8003  -14.8604 C   0  0  0  0  0  0  0  0  0  0  0  0
   22.5194  -21.6253  -14.6844 O   0  0  0  0  0  0  0  0  0  0  0  0
   20.4891  -18.2030  -10.4602 C   0  0  0  0  0  0  0  0  0  0  0  0
   21.1265  -19.1448  -11.4924 C   0  0  0  0  0  0  0  0  0  0  0  0
   20.2854  -20.3654  -11.5510 C   0  0  2  0  0  0  0  0  0  0  0  0
   20.0750  -20.9542  -10.1881 C   0  0  0  0  0  0  0  0  0  0  0  0
   20.7392  -21.4163  -12.5537 C   0  0  2  0  0  0  0  0  0  0  0  0
   20.5932  -20.7181  -13.8573 N   0  0  0  0  0  0  0  0  0  0  0  0
   19.8621  -22.5742  -12.4802 C   0  0  0  0  0  0  0  0  0  0  0  0
   18.6136  -22.4088  -12.5862 O   0  0  0  0  0  0  0  0  0  0  0  0
   20.3472  -23.8676  -12.3004 N   0  0  0  0  0  0  0  0  0  0  0  0
   19.4794  -25.0305  -12.1021 C   0  0  1  0  0  0  0  0  0  0  0  0
   20.3760  -26.1028  -11.4733 C   0  0  0  0  0  0  0  0  0  0  0  0
   19.6111  -27.4056  -11.5125 C   0  0  0  0  0  0  0  0  0  0  0  0
   20.4570  -28.5584  -11.0237 C   0  0  0  0  0  0  0  0  0  0  0  0
   19.7173  -29.8628  -11.0879 C   0  0  0  0  0  0  0  0  0  0  0  0
   20.6713  -30.9256  -10.7940 N   0  0  0  0  0  0  0  0  0  0  0  0
   18.4096  -24.7463  -11.1320 C   0  0  0  0  0  0  0  0  0  0  0  0
   18.5386  -24.0957  -10.0725 O   0  0  0  0  0  0  0  0  0  0  0  0
   17.1247  -25.2346  -11.3922 O   0  0  0  0  0  0  0  0  0  0  0  0
  2  1  1  6
  3  2  1  0
  4  3  1  0
  4  5  2  0
  6  5  1  0
  7  8  2  0
  7  6  1  0
  8  4  1  0
  9  2  1  0
 10  9  2  0
 12 11  1  0
 13 15  1  0
 13 12  1  0
 13 14  1  1
 15 16  1  6
 16  9  1  0
 17 15  1  0
 18 17  2  0
 19 17  1  0
 20 26  1  0
 20 19  1  0
 21 22  1  0
 20 21  1  1
 23 24  1  0
 23 22  1  0
 24 25  1  0
 26 28  1  0
 27 26  2  0
M  END
$$$$
