HIK.pdb
     RDKit          3D

 28 28  0  0  1  0  0  0  0  0999 V2000
   28.3933  -20.6283  -16.8036 N   0  0  0  0  0  0  0  0  0  0  0  0
   27.7467  -19.7718  -15.8350 C   0  0  1  0  0  0  0  0  0  0  0  0
   26.9484  -18.6677  -16.4955 C   0  0  0  0  0  0  0  0  0  0  0  0
   27.7840  -17.6581  -17.1595 C   0  0  0  0  0  0  0  0  0  0  0  0
   29.1623  -17.6461  -17.1999 C   0  0  0  0  0  0  0  0  0  0  0  0
   29.5875  -16.5654  -17.8980 N   0  0  0  0  0  0  0  0  0  0  0  0
   28.4720  -15.9279  -18.2774 C   0  0  0  0  0  0  0  0  0  0  0  0
   27.3781  -16.5765  -17.8384 N   0  0  0  0  0  0  0  0  0  0  0  0
   26.9037  -20.6066  -14.9550 C   0  0  0  0  0  0  0  0  0  0  0  0
   26.4344  -21.6813  -15.3962 O   0  0  0  0  0  0  0  0  0  0  0  0
   25.7287  -20.8464   -8.9678 C   0  0  0  0  0  0  0  0  0  0  0  0
   25.2042  -21.3485  -10.3211 C   0  0  0  0  0  0  0  0  0  0  0  0
   26.0319  -20.7132  -11.3757 C   0  0  2  0  0  0  0  0  0  0  0  0
   26.1313  -19.2302  -11.1778 C   0  0  0  0  0  0  0  0  0  0  0  0
   25.6421  -21.0653  -12.8039 C   0  0  2  0  0  0  0  0  0  0  0  0
   26.5885  -20.2578  -13.6164 N   0  0  0  0  0  0  0  0  0  0  0  0
   24.2665  -20.6617  -13.0496 C   0  0  0  0  0  0  0  0  0  0  0  0
   23.9977  -19.4328  -13.1709 O   0  0  0  0  0  0  0  0  0  0  0  0
   23.2272  -21.5826  -13.1612 N   0  0  0  0  0  0  0  0  0  0  0  0
   21.8446  -21.2012  -13.4576 C   0  0  1  0  0  0  0  0  0  0  0  0
   21.1400  -22.5044  -13.8504 C   0  0  0  0  0  0  0  0  0  0  0  0
   19.7311  -22.1452  -14.2626 C   0  0  0  0  0  0  0  0  0  0  0  0
   18.9524  -23.3666  -14.6927 C   0  0  0  0  0  0  0  0  0  0  0  0
   17.7070  -23.5533  -13.8760 C   0  0  0  0  0  0  0  0  0  0  0  0
   16.9857  -24.6946  -14.4267 N   0  0  0  0  0  0  0  0  0  0  0  0
   21.1579  -20.6887  -12.2609 C   0  0  0  0  0  0  0  0  0  0  0  0
   21.3607  -21.0638  -11.0858 O   0  0  0  0  0  0  0  0  0  0  0  0
   20.1878  -19.6938  -12.4219 O   0  0  0  0  0  0  0  0  0  0  0  0
  2  1  1  6
  3  2  1  0
  4  3  1  0
  4  5  2  0
  6  5  1  0
  7  8  2  0
  7  6  1  0
  8  4  1  0
  9  2  1  0
 10  9  2  0
 12 11  1  0
 13 15  1  0
 13 12  1  0
 13 14  1  6
 15 16  1  6
 16  9  1  0
 17 15  1  0
 18 17  2  0
 19 17  1  0
 20 26  1  0
 20 19  1  0
 21 22  1  0
 20 21  1  1
 23 24  1  0
 23 22  1  0
 24 25  1  0
 26 28  1  0
 27 26  2  0
M  END
$$$$
