HIK.pdb
     RDKit          3D

 28 28  0  0  1  0  0  0  0  0999 V2000
   27.3366  -22.7845  -16.6452 N   0  0  0  0  0  0  0  0  0  0  0  0
   26.6433  -21.5899  -16.2183 C   0  0  1  0  0  0  0  0  0  0  0  0
   25.8901  -20.9324  -17.3553 C   0  0  0  0  0  0  0  0  0  0  0  0
   26.7659  -20.4096  -18.4126 C   0  0  0  0  0  0  0  0  0  0  0  0
   26.9107  -20.9358  -19.6790 C   0  0  0  0  0  0  0  0  0  0  0  0
   27.8025  -20.1948  -20.3802 N   0  0  0  0  0  0  0  0  0  0  0  0
   28.1944  -19.2261  -19.5420 C   0  0  0  0  0  0  0  0  0  0  0  0
   27.5768  -19.3445  -18.3526 N   0  0  0  0  0  0  0  0  0  0  0  0
   25.7476  -21.9393  -15.0969 C   0  0  0  0  0  0  0  0  0  0  0  0
   25.1813  -23.0569  -15.0908 O   0  0  0  0  0  0  0  0  0  0  0  0
   25.5247  -21.2861   -9.3260 C   0  0  0  0  0  0  0  0  0  0  0  0
   24.4911  -20.9401  -10.4080 C   0  0  0  0  0  0  0  0  0  0  0  0
   25.2289  -20.7831  -11.6855 C   0  0  2  0  0  0  0  0  0  0  0  0
   25.5360  -19.3432  -11.9697 C   0  0  0  0  0  0  0  0  0  0  0  0
   24.5967  -21.4711  -12.8865 C   0  0  2  0  0  0  0  0  0  0  0  0
   25.4859  -21.0693  -14.0072 N   0  0  0  0  0  0  0  0  0  0  0  0
   23.2466  -20.9676  -13.0846 C   0  0  0  0  0  0  0  0  0  0  0  0
   23.0817  -19.7545  -13.3987 O   0  0  0  0  0  0  0  0  0  0  0  0
   22.1206  -21.7758  -12.9448 N   0  0  0  0  0  0  0  0  0  0  0  0
   20.7514  -21.2791  -13.0979 C   0  0  1  0  0  0  0  0  0  0  0  0
   19.8514  -22.4036  -12.5738 C   0  0  0  0  0  0  0  0  0  0  0  0
   18.4202  -21.9743  -12.8005 C   0  0  0  0  0  0  0  0  0  0  0  0
   17.4521  -23.0932  -12.4940 C   0  0  0  0  0  0  0  0  0  0  0  0
   16.0500  -22.7491  -12.9041 C   0  0  0  0  0  0  0  0  0  0  0  0
   15.1870  -23.8493  -12.4907 N   0  0  0  0  0  0  0  0  0  0  0  0
   20.5054  -20.1039  -12.2466 C   0  0  0  0  0  0  0  0  0  0  0  0
   20.9033  -19.9580  -11.0706 O   0  0  0  0  0  0  0  0  0  0  0  0
   19.7640  -19.0409  -12.7731 O   0  0  0  0  0  0  0  0  0  0  0  0
  2  1  1  6
  3  2  1  0
  4  3  1  0
  4  5  2  0
  6  5  1  0
  7  8  2  0
  7  6  1  0
  8  4  1  0
  9  2  1  0
 10  9  2  0
 12 11  1  0
 13 15  1  0
 13 12  1  0
 13 14  1  6
 15 16  1  6
 16  9  1  0
 17 15  1  0
 18 17  2  0
 19 17  1  0
 20 26  1  0
 20 19  1  0
 21 22  1  0
 20 21  1  1
 23 24  1  0
 23 22  1  0
 24 25  1  0
 26 28  1  0
 27 26  2  0
M  END
$$$$
