HIK.pdb
     RDKit          3D

 28 28  0  0  1  0  0  0  0  0999 V2000
   27.0329  -20.3328  -17.8476 N   0  0  0  0  0  0  0  0  0  0  0  0
   25.7428  -20.9549  -18.0440 C   0  0  1  0  0  0  0  0  0  0  0  0
   25.8646  -22.4337  -18.3455 C   0  0  0  0  0  0  0  0  0  0  0  0
   26.5734  -22.7188  -19.6003 C   0  0  0  0  0  0  0  0  0  0  0  0
   27.7442  -23.4367  -19.7247 C   0  0  0  0  0  0  0  0  0  0  0  0
   28.1049  -23.4960  -21.0294 N   0  0  0  0  0  0  0  0  0  0  0  0
   27.1572  -22.8175  -21.6898 C   0  0  0  0  0  0  0  0  0  0  0  0
   26.2282  -22.3440  -20.8396 N   0  0  0  0  0  0  0  0  0  0  0  0
   24.9118  -20.7057  -16.8485 C   0  0  0  0  0  0  0  0  0  0  0  0
   25.4048  -20.8880  -15.7112 O   0  0  0  0  0  0  0  0  0  0  0  0
   22.2236  -16.3118  -16.3374 C   0  0  0  0  0  0  0  0  0  0  0  0
   23.0458  -17.5571  -15.9744 C   0  0  0  0  0  0  0  0  0  0  0  0
   22.1064  -18.7042  -15.9249 C   0  0  2  0  0  0  0  0  0  0  0  0
   20.9790  -18.4508  -14.9692 C   0  0  0  0  0  0  0  0  0  0  0  0
   22.7533  -20.0604  -15.6848 C   0  0  2  0  0  0  0  0  0  0  0  0
   23.5649  -20.2646  -16.9127 N   0  0  0  0  0  0  0  0  0  0  0  0
   21.7230  -21.0799  -15.5641 C   0  0  0  0  0  0  0  0  0  0  0  0
   20.9697  -21.3140  -16.5516 O   0  0  0  0  0  0  0  0  0  0  0  0
   21.5350  -21.8163  -14.3967 N   0  0  0  0  0  0  0  0  0  0  0  0
   20.5496  -22.8930  -14.2762 C   0  0  1  0  0  0  0  0  0  0  0  0
   20.7676  -23.4876  -12.8805 C   0  0  0  0  0  0  0  0  0  0  0  0
   19.8664  -24.6951  -12.7623 C   0  0  0  0  0  0  0  0  0  0  0  0
   20.0903  -25.4268  -11.4594 C   0  0  0  0  0  0  0  0  0  0  0  0
   19.1853  -26.6162  -11.3221 C   0  0  0  0  0  0  0  0  0  0  0  0
   19.5840  -27.3370  -10.1189 N   0  0  0  0  0  0  0  0  0  0  0  0
   19.1736  -22.3712  -14.3075 C   0  0  0  0  0  0  0  0  0  0  0  0
   18.7656  -21.3516  -13.7104 O   0  0  0  0  0  0  0  0  0  0  0  0
   18.2165  -23.0557  -15.0640 O   0  0  0  0  0  0  0  0  0  0  0  0
  2  1  1  1
  3  2  1  0
  4  3  1  0
  4  5  2  0
  6  5  1  0
  7  8  2  0
  7  6  1  0
  8  4  1  0
  9  2  1  0
 10  9  2  0
 12 11  1  0
 13 15  1  0
 13 12  1  0
 13 14  1  1
 15 16  1  6
 16  9  1  0
 17 15  1  0
 18 17  2  0
 19 17  1  0
 20 26  1  0
 20 19  1  0
 21 22  1  0
 20 21  1  1
 23 24  1  0
 23 22  1  0
 24 25  1  0
 26 28  1  0
 27 26  2  0
M  END
$$$$
