HIK.pdb
     RDKit          3D

 28 28  0  0  1  0  0  0  0  0999 V2000
   26.9200   -9.1157  -21.0093 N   0  0  0  0  0  0  0  0  0  0  0  0
   26.3933   -8.1167  -20.1068 C   0  0  1  0  0  0  0  0  0  0  0  0
   25.7900   -6.9423  -20.8479 C   0  0  0  0  0  0  0  0  0  0  0  0
   26.7728   -6.1700  -21.6200 C   0  0  0  0  0  0  0  0  0  0  0  0
   27.4372   -5.0416  -21.1876 C   0  0  0  0  0  0  0  0  0  0  0  0
   28.2641   -4.5981  -22.1650 N   0  0  0  0  0  0  0  0  0  0  0  0
   28.1001   -5.4539  -23.1826 C   0  0  0  0  0  0  0  0  0  0  0  0
   27.2037   -6.4061  -22.8665 N   0  0  0  0  0  0  0  0  0  0  0  0
   25.4126   -8.7612  -19.2097 C   0  0  0  0  0  0  0  0  0  0  0  0
   24.5604   -9.5417  -19.6937 O   0  0  0  0  0  0  0  0  0  0  0  0
   26.8733  -11.2691  -14.9431 C   0  0  0  0  0  0  0  0  0  0  0  0
   26.0839  -10.8708  -16.1988 C   0  0  0  0  0  0  0  0  0  0  0  0
   25.1669   -9.7711  -15.8103 C   0  0  2  0  0  0  0  0  0  0  0  0
   24.3036  -10.1600  -14.6476 C   0  0  0  0  0  0  0  0  0  0  0  0
   24.3463   -9.1808  -16.9477 C   0  0  2  0  0  0  0  0  0  0  0  0
   25.3777   -8.5450  -17.8079 N   0  0  0  0  0  0  0  0  0  0  0  0
   23.4217   -8.1892  -16.4210 C   0  0  0  0  0  0  0  0  0  0  0  0
   23.8692   -7.2497  -15.7039 O   0  0  0  0  0  0  0  0  0  0  0  0
   22.0538   -8.2321  -16.6807 N   0  0  0  0  0  0  0  0  0  0  0  0
   21.0945   -7.2961  -16.0904 C   0  0  1  0  0  0  0  0  0  0  0  0
   19.7519   -7.6185  -16.7556 C   0  0  0  0  0  0  0  0  0  0  0  0
   18.7706   -6.5535  -16.3232 C   0  0  0  0  0  0  0  0  0  0  0  0
   17.4383   -6.7143  -17.0177 C   0  0  0  0  0  0  0  0  0  0  0  0
   16.4631   -5.6476  -16.6130 C   0  0  0  0  0  0  0  0  0  0  0  0
   15.2374   -5.8592  -17.3738 N   0  0  0  0  0  0  0  0  0  0  0  0
   20.9245   -7.5357  -14.6481 C   0  0  0  0  0  0  0  0  0  0  0  0
   20.8080   -8.6543  -14.1025 O   0  0  0  0  0  0  0  0  0  0  0  0
   20.8865   -6.4334  -13.7876 O   0  0  0  0  0  0  0  0  0  0  0  0
  2  1  1  6
  3  2  1  0
  4  3  1  0
  4  5  2  0
  6  5  1  0
  7  8  2  0
  7  6  1  0
  8  4  1  0
  9  2  1  0
 10  9  2  0
 12 11  1  0
 13 15  1  0
 13 12  1  0
 13 14  1  1
 15 16  1  6
 16  9  1  0
 17 15  1  0
 18 17  2  0
 19 17  1  0
 20 26  1  0
 20 19  1  0
 21 22  1  0
 20 21  1  6
 23 24  1  0
 23 22  1  0
 24 25  1  0
 26 28  1  0
 27 26  2  0
M  END
$$$$
