HIK.pdb
     RDKit          3D

 28 28  0  0  1  0  0  0  0  0999 V2000
   22.6674  -25.7947  -15.9023 N   0  0  0  0  0  0  0  0  0  0  0  0
   21.2684  -26.0603  -15.6526 C   0  0  1  0  0  0  0  0  0  0  0  0
   20.8588  -27.4401  -16.1227 C   0  0  0  0  0  0  0  0  0  0  0  0
   20.9291  -27.6065  -17.5807 C   0  0  0  0  0  0  0  0  0  0  0  0
   22.0191  -28.0605  -18.2930 C   0  0  0  0  0  0  0  0  0  0  0  0
   21.7216  -28.0826  -19.6147 N   0  0  0  0  0  0  0  0  0  0  0  0
   20.4586  -27.6443  -19.7005 C   0  0  0  0  0  0  0  0  0  0  0  0
   19.9696  -27.3540  -18.4813 N   0  0  0  0  0  0  0  0  0  0  0  0
   21.0016  -25.8703  -14.2122 C   0  0  0  0  0  0  0  0  0  0  0  0
   21.8960  -26.1524  -13.3813 O   0  0  0  0  0  0  0  0  0  0  0  0
   19.2888  -21.4701  -13.4086 C   0  0  0  0  0  0  0  0  0  0  0  0
   20.0891  -22.6320  -12.8020 C   0  0  0  0  0  0  0  0  0  0  0  0
   19.1083  -23.6197  -12.2889 C   0  0  2  0  0  0  0  0  0  0  0  0
   18.5485  -23.2006  -10.9625 C   0  0  0  0  0  0  0  0  0  0  0  0
   19.5947  -25.0614  -12.2640 C   0  0  2  0  0  0  0  0  0  0  0  0
   19.7713  -25.3786  -13.7049 N   0  0  0  0  0  0  0  0  0  0  0  0
   18.5783  -25.9107  -11.6629 C   0  0  0  0  0  0  0  0  0  0  0  0
   17.3916  -25.8498  -12.0935 O   0  0  0  0  0  0  0  0  0  0  0  0
   18.8638  -26.7974  -10.6271 N   0  0  0  0  0  0  0  0  0  0  0  0
   17.8567  -27.6644  -10.0117 C   0  0  1  0  0  0  0  0  0  0  0  0
   18.6284  -28.5402   -9.0184 C   0  0  0  0  0  0  0  0  0  0  0  0
   19.6628  -29.3084   -9.8082 C   0  0  0  0  0  0  0  0  0  0  0  0
   20.4761  -30.2178   -8.9167 C   0  0  0  0  0  0  0  0  0  0  0  0
   21.5247  -30.9661   -9.6869 C   0  0  0  0  0  0  0  0  0  0  0  0
   22.3712  -31.6575   -8.7218 N   0  0  0  0  0  0  0  0  0  0  0  0
   16.8822  -26.8878   -9.2282 C   0  0  0  0  0  0  0  0  0  0  0  0
   17.1574  -25.9822   -8.4118 O   0  0  0  0  0  0  0  0  0  0  0  0
   15.5208  -27.1656   -9.3910 O   0  0  0  0  0  0  0  0  0  0  0  0
  2  1  1  1
  3  2  1  0
  4  3  1  0
  4  5  2  0
  6  5  1  0
  7  8  2  0
  7  6  1  0
  8  4  1  0
  9  2  1  0
 10  9  2  0
 12 11  1  0
 13 15  1  0
 13 12  1  0
 13 14  1  1
 15 16  1  6
 16  9  1  0
 17 15  1  0
 18 17  2  0
 19 17  1  0
 20 26  1  0
 20 19  1  0
 21 22  1  0
 20 21  1  1
 23 24  1  0
 23 22  1  0
 24 25  1  0
 26 28  1  0
 27 26  2  0
M  END
$$$$
