HIK.pdb
     RDKit          3D

 28 28  0  0  1  0  0  0  0  0999 V2000
   19.3234   -7.8841  -16.2822 N   0  0  0  0  0  0  0  0  0  0  0  0
   19.4695   -7.1812  -15.0273 C   0  0  1  0  0  0  0  0  0  0  0  0
   19.7135   -5.7007  -15.2299 C   0  0  0  0  0  0  0  0  0  0  0  0
   20.9757   -5.4046  -15.9209 C   0  0  0  0  0  0  0  0  0  0  0  0
   21.1025   -4.9361  -17.2117 C   0  0  0  0  0  0  0  0  0  0  0  0
   22.4144   -4.7797  -17.5119 N   0  0  0  0  0  0  0  0  0  0  0  0
   23.0768   -5.1517  -16.4085 C   0  0  0  0  0  0  0  0  0  0  0  0
   22.2209   -5.5306  -15.4422 N   0  0  0  0  0  0  0  0  0  0  0  0
   18.2693   -7.4315  -14.2036 C   0  0  0  0  0  0  0  0  0  0  0  0
   17.1437   -7.4573  -14.7534 O   0  0  0  0  0  0  0  0  0  0  0  0
   17.3218  -11.7240  -12.1568 C   0  0  0  0  0  0  0  0  0  0  0  0
   17.0675  -10.3236  -12.7338 C   0  0  0  0  0  0  0  0  0  0  0  0
   17.2123   -9.3564  -11.6182 C   0  0  2  0  0  0  0  0  0  0  0  0
   16.3142   -9.7041  -10.4689 C   0  0  0  0  0  0  0  0  0  0  0  0
   17.0823   -7.8919  -12.0107 C   0  0  2  0  0  0  0  0  0  0  0  0
   18.3160   -7.6481  -12.8022 N   0  0  0  0  0  0  0  0  0  0  0  0
   17.0572   -7.0648  -10.8146 C   0  0  0  0  0  0  0  0  0  0  0  0
   17.9697   -7.2028   -9.9511 O   0  0  0  0  0  0  0  0  0  0  0  0
   16.0625   -6.1174  -10.5832 N   0  0  0  0  0  0  0  0  0  0  0  0
   15.9765   -5.3272   -9.3532 C   0  0  1  0  0  0  0  0  0  0  0  0
   14.8803   -4.2884   -9.6146 C   0  0  0  0  0  0  0  0  0  0  0  0
   14.6798   -3.5160   -8.3311 C   0  0  0  0  0  0  0  0  0  0  0  0
   13.7194   -2.3653   -8.5224 C   0  0  0  0  0  0  0  0  0  0  0  0
   13.5213   -1.5843   -7.2561 C   0  0  0  0  0  0  0  0  0  0  0  0
   12.6535   -0.4544   -7.5662 N   0  0  0  0  0  0  0  0  0  0  0  0
   15.5259   -6.1461   -8.2161 C   0  0  0  0  0  0  0  0  0  0  0  0
   15.8612   -5.9858   -7.0227 O   0  0  0  0  0  0  0  0  0  0  0  0
   14.6443   -7.2040   -8.4624 O   0  0  0  0  0  0  0  0  0  0  0  0
  2  1  1  6
  3  2  1  0
  4  3  1  0
  4  5  2  0
  6  5  1  0
  7  8  2  0
  7  6  1  0
  8  4  1  0
  9  2  1  0
 10  9  2  0
 12 11  1  0
 13 15  1  0
 13 12  1  0
 13 14  1  1
 15 16  1  6
 16  9  1  0
 17 15  1  0
 18 17  2  0
 19 17  1  0
 20 26  1  0
 20 19  1  0
 21 22  1  0
 20 21  1  6
 23 24  1  0
 23 22  1  0
 24 25  1  0
 26 28  1  0
 27 26  2  0
M  END
$$$$
