HIK.pdb
     RDKit          3D

 28 28  0  0  1  0  0  0  0  0999 V2000
   20.8340  -21.1978  -15.2663 N   0  0  0  0  0  0  0  0  0  0  0  0
   19.9110  -20.8404  -14.2126 C   0  0  1  0  0  0  0  0  0  0  0  0
   18.4703  -21.0760  -14.6144 C   0  0  0  0  0  0  0  0  0  0  0  0
   18.0251  -20.2225  -15.7242 C   0  0  0  0  0  0  0  0  0  0  0  0
   17.4104  -18.9938  -15.6055 C   0  0  0  0  0  0  0  0  0  0  0  0
   17.1419  -18.4986  -16.8377 N   0  0  0  0  0  0  0  0  0  0  0  0
   17.5919  -19.4231  -17.6965 C   0  0  0  0  0  0  0  0  0  0  0  0
   18.1266  -20.4672  -17.0377 N   0  0  0  0  0  0  0  0  0  0  0  0
   20.2706  -21.5943  -12.9942 C   0  0  0  0  0  0  0  0  0  0  0  0
   20.6159  -22.7943  -13.0962 O   0  0  0  0  0  0  0  0  0  0  0  0
   23.4155  -21.4130   -8.5019 C   0  0  0  0  0  0  0  0  0  0  0  0
   21.9018  -21.2049   -8.3463 C   0  0  0  0  0  0  0  0  0  0  0  0
   21.3870  -20.7325   -9.6550 C   0  0  2  0  0  0  0  0  0  0  0  0
   20.5282  -19.5131   -9.5002 C   0  0  0  0  0  0  0  0  0  0  0  0
   20.7064  -21.7958  -10.5044 C   0  0  2  0  0  0  0  0  0  0  0  0
   20.2479  -21.0302  -11.6926 N   0  0  0  0  0  0  0  0  0  0  0  0
   19.5784  -22.3558   -9.7768 C   0  0  0  0  0  0  0  0  0  0  0  0
   18.5420  -21.6517   -9.6106 O   0  0  0  0  0  0  0  0  0  0  0  0
   19.5936  -23.6476   -9.2556 N   0  0  0  0  0  0  0  0  0  0  0  0
   18.4677  -24.2315   -8.5233 C   0  0  1  0  0  0  0  0  0  0  0  0
   18.6356  -25.7484   -8.6643 C   0  0  0  0  0  0  0  0  0  0  0  0
   17.4343  -26.3944   -8.0134 C   0  0  0  0  0  0  0  0  0  0  0  0
   17.4800  -27.8996   -8.1388 C   0  0  0  0  0  0  0  0  0  0  0  0
   16.2610  -28.5481   -7.5505 C   0  0  0  0  0  0  0  0  0  0  0  0
   16.4215  -29.9912   -7.6842 N   0  0  0  0  0  0  0  0  0  0  0  0
   18.5424  -23.9257   -7.0855 C   0  0  0  0  0  0  0  0  0  0  0  0
   19.5876  -23.6855   -6.4434 O   0  0  0  0  0  0  0  0  0  0  0  0
   17.3549  -23.8940   -6.3465 O   0  0  0  0  0  0  0  0  0  0  0  0
  2  1  1  6
  3  2  1  0
  4  3  1  0
  4  5  2  0
  6  5  1  0
  7  8  2  0
  7  6  1  0
  8  4  1  0
  9  2  1  0
 10  9  2  0
 12 11  1  0
 13 15  1  0
 13 12  1  0
 13 14  1  1
 15 16  1  6
 16  9  1  0
 17 15  1  0
 18 17  2  0
 19 17  1  0
 20 26  1  0
 20 19  1  0
 21 22  1  0
 20 21  1  1
 23 24  1  0
 23 22  1  0
 24 25  1  0
 26 28  1  0
 27 26  2  0
M  END
$$$$
