HIK.pdb
     RDKit          3D

 28 28  0  0  1  0  0  0  0  0999 V2000
   20.0833  -20.3678  -12.6915 N   0  0  0  0  0  0  0  0  0  0  0  0
   20.9765  -21.2545  -13.4028 C   0  0  1  0  0  0  0  0  0  0  0  0
   20.4659  -21.5833  -14.7898 C   0  0  0  0  0  0  0  0  0  0  0  0
   19.2202  -22.3622  -14.7856 C   0  0  0  0  0  0  0  0  0  0  0  0
   19.0898  -23.6802  -14.4017 C   0  0  0  0  0  0  0  0  0  0  0  0
   17.7971  -24.0655  -14.5297 N   0  0  0  0  0  0  0  0  0  0  0  0
   17.1499  -22.9859  -14.9884 C   0  0  0  0  0  0  0  0  0  0  0  0
   17.9966  -21.9525  -15.1468 N   0  0  0  0  0  0  0  0  0  0  0  0
   22.3185  -20.6388  -13.4444 C   0  0  0  0  0  0  0  0  0  0  0  0
   22.4293  -19.4327  -13.7650 O   0  0  0  0  0  0  0  0  0  0  0  0
   25.6887  -20.9696   -9.5203 C   0  0  0  0  0  0  0  0  0  0  0  0
   24.8528  -20.5272  -10.7304 C   0  0  0  0  0  0  0  0  0  0  0  0
   25.5186  -21.0629  -11.9431 C   0  0  2  0  0  0  0  0  0  0  0  0
   26.9810  -20.7319  -11.9590 C   0  0  0  0  0  0  0  0  0  0  0  0
   24.8466  -20.7062  -13.2610 C   0  0  2  0  0  0  0  0  0  0  0  0
   23.5105  -21.3444  -13.1374 N   0  0  0  0  0  0  0  0  0  0  0  0
   25.5994  -21.2799  -14.3654 C   0  0  0  0  0  0  0  0  0  0  0  0
   25.8022  -22.5271  -14.3903 O   0  0  0  0  0  0  0  0  0  0  0  0
   26.1058  -20.5044  -15.4059 N   0  0  0  0  0  0  0  0  0  0  0  0
   26.8661  -21.0618  -16.5266 C   0  0  1  0  0  0  0  0  0  0  0  0
   27.2215  -19.8622  -17.4118 C   0  0  0  0  0  0  0  0  0  0  0  0
   27.9727  -20.3962  -18.6096 C   0  0  0  0  0  0  0  0  0  0  0  0
   28.3843  -19.2835  -19.5454 C   0  0  0  0  0  0  0  0  0  0  0  0
   29.0337  -19.8109  -20.7915 C   0  0  0  0  0  0  0  0  0  0  0  0
   29.4963  -18.6655  -21.5661 N   0  0  0  0  0  0  0  0  0  0  0  0
   28.1373  -21.6512  -16.0761 C   0  0  0  0  0  0  0  0  0  0  0  0
   28.9127  -21.1556  -15.2301 O   0  0  0  0  0  0  0  0  0  0  0  0
   28.5391  -22.8733  -16.6257 O   0  0  0  0  0  0  0  0  0  0  0  0
  2  1  1  6
  3  2  1  0
  4  3  1  0
  4  5  2  0
  6  5  1  0
  7  8  2  0
  7  6  1  0
  8  4  1  0
  9  2  1  0
 10  9  2  0
 12 11  1  0
 13 15  1  0
 13 12  1  0
 13 14  1  6
 15 16  1  1
 16  9  1  0
 17 15  1  0
 18 17  2  0
 19 17  1  0
 20 26  1  0
 20 19  1  0
 21 22  1  0
 20 21  1  6
 23 24  1  0
 23 22  1  0
 24 25  1  0
 26 28  1  0
 27 26  2  0
M  END
$$$$
