GHS.pdb
     RDKit          3D

 21 21  0  0  1  0  0  0  0  0999 V2000
    8.5083  -19.1234   18.3967 N   0  0  0  0  0  0  0  0  0  0  0  0
    7.8963  -18.7172   19.6246 C   0  0  0  0  0  0  0  0  0  0  0  0
    8.6749  -17.6276   20.3031 C   0  0  0  0  0  0  0  0  0  0  0  0
    9.9262  -17.6760   20.2772 O   0  0  0  0  0  0  0  0  0  0  0  0
    8.0325  -16.5684   20.9583 N   0  0  0  0  0  0  0  0  0  0  0  0
    8.6801  -15.4554   21.5793 C   0  0  1  0  0  0  0  0  0  0  0  0
    7.9548  -14.1282   21.4058 C   0  0  0  0  0  0  0  0  0  0  0  0
    7.7970  -13.7784   19.9708 C   0  0  0  0  0  0  0  0  0  0  0  0
    8.4209  -12.7977   19.2393 C   0  0  0  0  0  0  0  0  0  0  0  0
    7.9952  -12.8288   17.9574 N   0  0  0  0  0  0  0  0  0  0  0  0
    7.1089  -13.8290   17.8986 C   0  0  0  0  0  0  0  0  0  0  0  0
    6.9690  -14.4147   19.0828 N   0  0  0  0  0  0  0  0  0  0  0  0
    9.0322  -15.7555   22.9710 C   0  0  0  0  0  0  0  0  0  0  0  0
    8.1556  -16.0348   23.8554 O   0  0  0  0  0  0  0  0  0  0  0  0
   11.0216  -18.8649   25.2001 O   0  0  0  0  0  0  0  0  0  0  0  0
   10.5812  -18.0496   24.1793 C   0  0  0  0  0  0  0  0  0  0  0  0
   10.8282  -16.5905   24.5149 C   0  0  2  0  0  0  0  0  0  0  0  0
   10.3827  -15.7525   23.4189 N   0  0  0  0  0  0  0  0  0  0  0  0
   12.3103  -16.4259   24.7249 C   0  0  0  0  0  0  0  0  0  0  0  0
   13.0324  -15.9895   23.7948 O   0  0  0  0  0  0  0  0  0  0  0  0
   12.9070  -16.7410   25.9142 O   0  0  0  0  0  0  0  0  0  0  0  0
  2  1  1  0
  3  4  2  0
  3  2  1  0
  5  3  1  0
  6  5  1  0
  7  8  1  0
  6  7  1  1
  8 12  1  0
  9  8  2  0
  9 10  1  0
 10 11  1  0
 12 11  2  0
 13 18  1  0
 13  6  1  0
 14 13  2  0
 15 16  1  0
 17 16  1  6
 17 19  1  0
 17 18  1  0
 19 21  1  0
 20 19  2  0
M  END
$$$$
