GHS.pdb
     RDKit          3D

 21 21  0  0  1  0  0  0  0  0999 V2000
   10.3349  -16.4058   14.2867 N   0  0  0  0  0  0  0  0  0  0  0  0
   10.2244  -16.8028   15.6568 C   0  0  0  0  0  0  0  0  0  0  0  0
   10.9458  -15.8566   16.5724 C   0  0  0  0  0  0  0  0  0  0  0  0
   11.8827  -15.1668   16.1087 O   0  0  0  0  0  0  0  0  0  0  0  0
   10.5927  -15.7332   17.9230 N   0  0  0  0  0  0  0  0  0  0  0  0
   11.2879  -14.9545   18.8998 C   0  0  1  0  0  0  0  0  0  0  0  0
   10.4284  -14.5022   20.0720 C   0  0  0  0  0  0  0  0  0  0  0  0
    9.1801  -13.8437   19.6086 C   0  0  0  0  0  0  0  0  0  0  0  0
    8.9942  -12.5731   19.1216 C   0  0  0  0  0  0  0  0  0  0  0  0
    7.6958  -12.3805   18.8019 N   0  0  0  0  0  0  0  0  0  0  0  0
    7.0811  -13.5328   19.0916 C   0  0  0  0  0  0  0  0  0  0  0  0
    7.9391  -14.4249   19.5742 N   0  0  0  0  0  0  0  0  0  0  0  0
   12.5387  -15.6048   19.3042 C   0  0  0  0  0  0  0  0  0  0  0  0
   12.5857  -16.8193   19.6934 O   0  0  0  0  0  0  0  0  0  0  0  0
   16.0316  -13.5385   18.8744 O   0  0  0  0  0  0  0  0  0  0  0  0
   16.1705  -14.9099   18.8506 C   0  0  0  0  0  0  0  0  0  0  0  0
   15.0322  -15.5764   19.6008 C   0  0  2  0  0  0  0  0  0  0  0  0
   13.7820  -14.9133   19.2858 N   0  0  0  0  0  0  0  0  0  0  0  0
   15.3317  -15.4481   21.0711 C   0  0  0  0  0  0  0  0  0  0  0  0
   14.5609  -14.7926   21.8148 O   0  0  0  0  0  0  0  0  0  0  0  0
   16.4333  -16.0310   21.6336 O   0  0  0  0  0  0  0  0  0  0  0  0
  2  1  1  0
  3  4  2  0
  3  2  1  0
  5  3  1  0
  6  5  1  0
  7  8  1  0
  6  7  1  1
  8 12  1  0
  9  8  2  0
  9 10  1  0
 10 11  1  0
 12 11  2  0
 13 18  1  0
 13  6  1  0
 14 13  2  0
 15 16  1  0
 17 16  1  6
 17 19  1  0
 17 18  1  0
 19 21  1  0
 20 19  2  0
M  END
$$$$
