GHS.pdb
     RDKit          3D

 21 21  0  0  1  0  0  0  0  0999 V2000
   11.0349  -18.5628   16.5467 N   0  0  0  0  0  0  0  0  0  0  0  0
   10.0907  -18.7758   17.6005 C   0  0  0  0  0  0  0  0  0  0  0  0
   10.3873  -17.9197   18.7976 C   0  0  0  0  0  0  0  0  0  0  0  0
   11.5812  -17.6516   19.0653 O   0  0  0  0  0  0  0  0  0  0  0  0
    9.3621  -17.4206   19.6124 N   0  0  0  0  0  0  0  0  0  0  0  0
    9.5414  -16.6235   20.7855 C   0  0  1  0  0  0  0  0  0  0  0  0
    8.3474  -15.7482   21.1402 C   0  0  0  0  0  0  0  0  0  0  0  0
    8.1682  -14.6489   20.1573 C   0  0  0  0  0  0  0  0  0  0  0  0
    8.9362  -14.3211   19.0670 C   0  0  0  0  0  0  0  0  0  0  0  0
    8.4111  -13.2516   18.4301 N   0  0  0  0  0  0  0  0  0  0  0  0
    7.3189  -12.9202   19.1278 C   0  0  0  0  0  0  0  0  0  0  0  0
    7.1471  -13.7344   20.1633 N   0  0  0  0  0  0  0  0  0  0  0  0
   10.0312  -17.4323   21.9065 C   0  0  0  0  0  0  0  0  0  0  0  0
    9.3103  -18.3133   22.4832 O   0  0  0  0  0  0  0  0  0  0  0  0
   13.7400  -19.5972   23.5469 O   0  0  0  0  0  0  0  0  0  0  0  0
   12.5679  -19.3306   22.8719 C   0  0  0  0  0  0  0  0  0  0  0  0
   11.8633  -18.1300   23.4760 C   0  0  2  0  0  0  0  0  0  0  0  0
   11.3494  -17.2799   22.4200 N   0  0  0  0  0  0  0  0  0  0  0  0
   12.8811  -17.3816   24.2958 C   0  0  0  0  0  0  0  0  0  0  0  0
   13.3199  -16.2751   23.8958 O   0  0  0  0  0  0  0  0  0  0  0  0
   13.3517  -17.8744   25.4813 O   0  0  0  0  0  0  0  0  0  0  0  0
  2  1  1  0
  3  4  2  0
  3  2  1  0
  5  3  1  0
  6  5  1  0
  7  8  1  0
  6  7  1  1
  8 12  1  0
  9  8  2  0
  9 10  1  0
 10 11  1  0
 12 11  2  0
 13 18  1  0
 13  6  1  0
 14 13  2  0
 15 16  1  0
 17 16  1  6
 17 19  1  0
 17 18  1  0
 19 21  1  0
 20 19  2  0
M  END
$$$$
