GHS.pdb
     RDKit          3D

 21 21  0  0  1  0  0  0  0  0999 V2000
    4.3097  -18.5679   20.3457 N   0  0  0  0  0  0  0  0  0  0  0  0
    4.5312  -17.4390   21.1964 C   0  0  0  0  0  0  0  0  0  0  0  0
    5.9742  -17.0247   21.2103 C   0  0  0  0  0  0  0  0  0  0  0  0
    6.8476  -17.8754   20.9237 O   0  0  0  0  0  0  0  0  0  0  0  0
    6.3567  -15.7162   21.5352 N   0  0  0  0  0  0  0  0  0  0  0  0
    7.7005  -15.2351   21.6161 C   0  0  1  0  0  0  0  0  0  0  0  0
    7.9071  -13.8441   21.0329 C   0  0  0  0  0  0  0  0  0  0  0  0
    7.8643  -13.8653   19.5482 C   0  0  0  0  0  0  0  0  0  0  0  0
    7.1070  -13.1092   18.6875 C   0  0  0  0  0  0  0  0  0  0  0  0
    7.3846  -13.4398   17.4073 N   0  0  0  0  0  0  0  0  0  0  0  0
    8.3135  -14.3998   17.4789 C   0  0  0  0  0  0  0  0  0  0  0  0
    8.6204  -14.6756   18.7416 N   0  0  0  0  0  0  0  0  0  0  0  0
    8.2387  -15.3904   22.9715 C   0  0  0  0  0  0  0  0  0  0  0  0
    7.6184  -14.9773   24.0074 O   0  0  0  0  0  0  0  0  0  0  0  0
   10.0276  -18.5160   24.0433 O   0  0  0  0  0  0  0  0  0  0  0  0
    9.7457  -17.5997   25.0340 C   0  0  0  0  0  0  0  0  0  0  0  0
   10.0207  -16.1876   24.5512 C   0  0  2  0  0  0  0  0  0  0  0  0
    9.4941  -16.0157   23.2115 N   0  0  0  0  0  0  0  0  0  0  0  0
   11.5149  -15.9999   24.5496 C   0  0  0  0  0  0  0  0  0  0  0  0
   12.1205  -15.7857   23.4706 O   0  0  0  0  0  0  0  0  0  0  0  0
   12.2474  -16.0558   25.7030 O   0  0  0  0  0  0  0  0  0  0  0  0
  2  1  1  0
  3  4  2  0
  3  2  1  0
  5  3  1  0
  6  5  1  0
  7  8  1  0
  6  7  1  1
  8 12  1  0
  9  8  2  0
  9 10  1  0
 10 11  1  0
 12 11  2  0
 13 18  1  0
 13  6  1  0
 14 13  2  0
 15 16  1  0
 17 16  1  6
 17 19  1  0
 17 18  1  0
 19 21  1  0
 20 19  2  0
M  END
$$$$
