GHS.pdb
     RDKit          3D

 21 21  0  0  1  0  0  0  0  0999 V2000
    8.3948  -18.7707   17.7058 N   0  0  0  0  0  0  0  0  0  0  0  0
    8.6459  -18.9349   19.1047 C   0  0  0  0  0  0  0  0  0  0  0  0
    9.2955  -17.7202   19.7019 C   0  0  0  0  0  0  0  0  0  0  0  0
   10.5381  -17.5946   19.6086 O   0  0  0  0  0  0  0  0  0  0  0  0
    8.5432  -16.7347   20.3552 N   0  0  0  0  0  0  0  0  0  0  0  0
    9.0710  -15.5785   21.0097 C   0  0  1  0  0  0  0  0  0  0  0  0
    8.1694  -14.3534   20.9475 C   0  0  0  0  0  0  0  0  0  0  0  0
    7.8936  -13.9522   19.5440 C   0  0  0  0  0  0  0  0  0  0  0  0
    8.3918  -12.8924   18.8268 C   0  0  0  0  0  0  0  0  0  0  0  0
    7.8886  -12.8988   17.5730 N   0  0  0  0  0  0  0  0  0  0  0  0
    7.0801  -13.9631   17.5173 C   0  0  0  0  0  0  0  0  0  0  0  0
    7.0618  -14.6115   18.6766 N   0  0  0  0  0  0  0  0  0  0  0  0
    9.5332  -15.9003   22.3639 C   0  0  0  0  0  0  0  0  0  0  0  0
    8.7283  -16.1556   23.3208 O   0  0  0  0  0  0  0  0  0  0  0  0
   11.6148  -18.5541   23.0800 O   0  0  0  0  0  0  0  0  0  0  0  0
   11.1457  -17.8567   24.1727 C   0  0  0  0  0  0  0  0  0  0  0  0
   11.3811  -16.3677   23.9989 C   0  0  2  0  0  0  0  0  0  0  0  0
   10.9170  -15.9467   22.6915 N   0  0  0  0  0  0  0  0  0  0  0  0
   12.8635  -16.1331   24.1237 C   0  0  0  0  0  0  0  0  0  0  0  0
   13.5341  -15.7985   23.1161 O   0  0  0  0  0  0  0  0  0  0  0  0
   13.5153  -16.2744   25.3174 O   0  0  0  0  0  0  0  0  0  0  0  0
  2  1  1  0
  3  4  2  0
  3  2  1  0
  5  3  1  0
  6  5  1  0
  7  8  1  0
  6  7  1  1
  8 12  1  0
  9  8  2  0
  9 10  1  0
 10 11  1  0
 12 11  2  0
 13 18  1  0
 13  6  1  0
 14 13  2  0
 15 16  1  0
 17 16  1  6
 17 19  1  0
 17 18  1  0
 19 21  1  0
 20 19  2  0
M  END
$$$$
