GHS.pdb
     RDKit          3D

 21 21  0  0  1  0  0  0  0  0999 V2000
    9.6033  -16.6487   14.5465 N   0  0  0  0  0  0  0  0  0  0  0  0
    9.7176  -17.0022   15.9282 C   0  0  0  0  0  0  0  0  0  0  0  0
   10.5510  -16.0131   16.6906 C   0  0  0  0  0  0  0  0  0  0  0  0
   11.4305  -15.3666   16.0764 O   0  0  0  0  0  0  0  0  0  0  0  0
   10.3637  -15.8029   18.0635 N   0  0  0  0  0  0  0  0  0  0  0  0
   11.1554  -14.9491   18.8929 C   0  0  1  0  0  0  0  0  0  0  0  0
   10.4192  -14.3855   20.1003 C   0  0  0  0  0  0  0  0  0  0  0  0
    9.1196  -13.7805   19.7108 C   0  0  0  0  0  0  0  0  0  0  0  0
    8.8703  -12.6877   18.9173 C   0  0  0  0  0  0  0  0  0  0  0  0
    7.5393  -12.4830   18.8088 N   0  0  0  0  0  0  0  0  0  0  0  0
    6.9680  -13.4501   19.5354 C   0  0  0  0  0  0  0  0  0  0  0  0
    7.8837  -14.2396   20.0857 N   0  0  0  0  0  0  0  0  0  0  0  0
   12.4390  -15.5753   19.2265 C   0  0  0  0  0  0  0  0  0  0  0  0
   12.5200  -16.7337   19.7558 O   0  0  0  0  0  0  0  0  0  0  0  0
   15.8983  -13.5373   18.4208 O   0  0  0  0  0  0  0  0  0  0  0  0
   16.0210  -14.9081   18.3408 C   0  0  0  0  0  0  0  0  0  0  0  0
   14.9496  -15.5909   19.1707 C   0  0  2  0  0  0  0  0  0  0  0  0
   13.6781  -14.9219   18.9771 N   0  0  0  0  0  0  0  0  0  0  0  0
   15.3730  -15.4936   20.6127 C   0  0  0  0  0  0  0  0  0  0  0  0
   14.6860  -14.8277   21.4260 O   0  0  0  0  0  0  0  0  0  0  0  0
   16.4993  -16.1165   21.0744 O   0  0  0  0  0  0  0  0  0  0  0  0
  2  1  1  0
  3  4  2  0
  3  2  1  0
  5  3  1  0
  6  5  1  0
  7  8  1  0
  6  7  1  1
  8 12  1  0
  9  8  2  0
  9 10  1  0
 10 11  1  0
 12 11  2  0
 13 18  1  0
 13  6  1  0
 14 13  2  0
 15 16  1  0
 17 16  1  6
 17 19  1  0
 17 18  1  0
 19 21  1  0
 20 19  2  0
M  END
$$$$
