GHS.pdb
     RDKit          3D

 21 21  0  0  1  0  0  0  0  0999 V2000
    6.2176  -14.4618   22.1340 N   0  0  0  0  0  0  0  0  0  0  0  0
    7.0749  -13.5547   21.4344 C   0  0  0  0  0  0  0  0  0  0  0  0
    8.2492  -14.2587   20.8184 C   0  0  0  0  0  0  0  0  0  0  0  0
    8.4410  -15.4651   21.0952 O   0  0  0  0  0  0  0  0  0  0  0  0
    9.1254  -13.5962   19.9482 N   0  0  0  0  0  0  0  0  0  0  0  0
   10.2313  -14.1908   19.2646 C   0  0  1  0  0  0  0  0  0  0  0  0
   10.5695  -13.5408   17.9302 C   0  0  0  0  0  0  0  0  0  0  0  0
    9.6034  -13.9353   16.8730 C   0  0  0  0  0  0  0  0  0  0  0  0
    9.2303  -15.1901   16.4579 C   0  0  0  0  0  0  0  0  0  0  0  0
    8.3105  -15.1019   15.4723 N   0  0  0  0  0  0  0  0  0  0  0  0
    8.1164  -13.7924   15.2799 C   0  0  0  0  0  0  0  0  0  0  0  0
    8.8727  -13.0709   16.0999 N   0  0  0  0  0  0  0  0  0  0  0  0
   11.3868  -14.3408   20.1553 C   0  0  0  0  0  0  0  0  0  0  0  0
   11.8975  -13.3571   20.7879 O   0  0  0  0  0  0  0  0  0  0  0  0
   13.8986  -17.0468   23.1242 O   0  0  0  0  0  0  0  0  0  0  0  0
   12.8041  -16.8025   22.3223 C   0  0  0  0  0  0  0  0  0  0  0  0
   13.1332  -15.7598   21.2701 C   0  0  2  0  0  0  0  0  0  0  0  0
   12.0101  -15.6022   20.3671 N   0  0  0  0  0  0  0  0  0  0  0  0
   14.3402  -16.2526   20.5162 C   0  0  0  0  0  0  0  0  0  0  0  0
   14.2097  -16.7245   19.3599 O   0  0  0  0  0  0  0  0  0  0  0  0
   15.5950  -16.2029   21.0573 O   0  0  0  0  0  0  0  0  0  0  0  0
  2  1  1  0
  3  4  2  0
  3  2  1  0
  5  3  1  0
  6  5  1  0
  7  8  1  0
  6  7  1  6
  8 12  1  0
  9  8  2  0
  9 10  1  0
 10 11  1  0
 12 11  2  0
 13 18  1  0
 13  6  1  0
 14 13  2  0
 15 16  1  0
 17 16  1  1
 17 19  1  0
 17 18  1  0
 19 21  1  0
 20 19  2  0
M  END
$$$$
