GHS.pdb
     RDKit          3D

 21 21  0  0  1  0  0  0  0  0999 V2000
    8.0061  -19.5363   18.7581 N   0  0  0  0  0  0  0  0  0  0  0  0
    7.8753  -19.0816   20.1084 C   0  0  0  0  0  0  0  0  0  0  0  0
    8.8351  -17.9696   20.4187 C   0  0  0  0  0  0  0  0  0  0  0  0
   10.0097  -18.0513   19.9918 O   0  0  0  0  0  0  0  0  0  0  0  0
    8.4434  -16.8533   21.1701 N   0  0  0  0  0  0  0  0  0  0  0  0
    9.3071  -15.8097   21.6269 C   0  0  1  0  0  0  0  0  0  0  0  0
    8.6602  -14.4324   21.6732 C   0  0  0  0  0  0  0  0  0  0  0  0
    8.2279  -13.9893   20.3229 C   0  0  0  0  0  0  0  0  0  0  0  0
    8.8248  -14.1999   19.1041 C   0  0  0  0  0  0  0  0  0  0  0  0
    8.0920  -13.6330   18.1207 N   0  0  0  0  0  0  0  0  0  0  0  0
    7.0429  -13.0731   18.7335 C   0  0  0  0  0  0  0  0  0  0  0  0
    7.0954  -13.2682   20.0465 N   0  0  0  0  0  0  0  0  0  0  0  0
    9.9794  -16.1858   22.8749 C   0  0  0  0  0  0  0  0  0  0  0  0
    9.3376  -16.4853   23.9365 O   0  0  0  0  0  0  0  0  0  0  0  0
   12.2360  -18.8291   23.1879 O   0  0  0  0  0  0  0  0  0  0  0  0
   11.9044  -18.1719   24.3536 C   0  0  0  0  0  0  0  0  0  0  0  0
   12.0648  -16.6721   24.1868 C   0  0  2  0  0  0  0  0  0  0  0  0
   11.3978  -16.2389   22.9747 N   0  0  0  0  0  0  0  0  0  0  0  0
   13.5412  -16.3889   24.0963 C   0  0  0  0  0  0  0  0  0  0  0  0
   14.0503  -16.0504   22.9995 O   0  0  0  0  0  0  0  0  0  0  0  0
   14.3602  -16.4895   25.1867 O   0  0  0  0  0  0  0  0  0  0  0  0
  2  1  1  0
  3  4  2  0
  3  2  1  0
  5  3  1  0
  6  5  1  0
  7  8  1  0
  6  7  1  1
  8 12  1  0
  9  8  2  0
  9 10  1  0
 10 11  1  0
 12 11  2  0
 13 18  1  0
 13  6  1  0
 14 13  2  0
 15 16  1  0
 17 16  1  6
 17 19  1  0
 17 18  1  0
 19 21  1  0
 20 19  2  0
M  END
$$$$
