GHS.pdb
     RDKit          3D

 21 21  0  0  1  0  0  0  0  0999 V2000
   13.0740  -16.1576   14.7228 N   0  0  0  0  0  0  0  0  0  0  0  0
   12.2003  -16.5672   15.7792 C   0  0  0  0  0  0  0  0  0  0  0  0
   12.4604  -15.8052   17.0463 C   0  0  0  0  0  0  0  0  0  0  0  0
   13.4451  -15.0325   17.0929 O   0  0  0  0  0  0  0  0  0  0  0  0
   11.6293  -15.9421   18.1663 N   0  0  0  0  0  0  0  0  0  0  0  0
   11.7032  -15.1609   19.3612 C   0  0  1  0  0  0  0  0  0  0  0  0
   10.3515  -14.7783   19.9477 C   0  0  0  0  0  0  0  0  0  0  0  0
    9.4746  -14.1489   18.9271 C   0  0  0  0  0  0  0  0  0  0  0  0
    9.4225  -12.8416   18.5098 C   0  0  0  0  0  0  0  0  0  0  0  0
    8.4845  -12.6949   17.5486 N   0  0  0  0  0  0  0  0  0  0  0  0
    7.9584  -13.9123   17.3732 C   0  0  0  0  0  0  0  0  0  0  0  0
    8.5277  -14.8006   18.1803 N   0  0  0  0  0  0  0  0  0  0  0  0
   12.6166  -15.7671   20.3355 C   0  0  0  0  0  0  0  0  0  0  0  0
   12.6346  -17.0212   20.5709 O   0  0  0  0  0  0  0  0  0  0  0  0
   16.3631  -14.4570   21.0383 O   0  0  0  0  0  0  0  0  0  0  0  0
   15.6642  -14.6458   22.2115 C   0  0  0  0  0  0  0  0  0  0  0  0
   14.4951  -15.5882   21.9925 C   0  0  2  0  0  0  0  0  0  0  0  0
   13.5428  -14.9852   21.0807 N   0  0  0  0  0  0  0  0  0  0  0  0
   13.8528  -15.8212   23.3346 C   0  0  0  0  0  0  0  0  0  0  0  0
   12.6813  -15.4228   23.5485 O   0  0  0  0  0  0  0  0  0  0  0  0
   14.5131  -16.4628   24.3455 O   0  0  0  0  0  0  0  0  0  0  0  0
  2  1  1  0
  3  4  2  0
  3  2  1  0
  5  3  1  0
  6  5  1  0
  7  8  1  0
  6  7  1  1
  8 12  1  0
  9  8  2  0
  9 10  1  0
 10 11  1  0
 12 11  2  0
 13 18  1  0
 13  6  1  0
 14 13  2  0
 15 16  1  0
 17 16  1  1
 17 19  1  0
 17 18  1  0
 19 21  1  0
 20 19  2  0
M  END
$$$$
