GHS.pdb
     RDKit          3D

 21 21  0  0  1  0  0  0  0  0999 V2000
   -7.5292  -24.0831   20.7014 N   0  0  0  0  0  0  0  0  0  0  0  0
   -7.4724  -22.8076   21.3472 C   0  0  0  0  0  0  0  0  0  0  0  0
   -6.6555  -22.8548   22.6060 C   0  0  0  0  0  0  0  0  0  0  0  0
   -5.7984  -23.7591   22.7341 O   0  0  0  0  0  0  0  0  0  0  0  0
   -6.8334  -21.9142   23.6295 N   0  0  0  0  0  0  0  0  0  0  0  0
   -6.0561  -21.8253   24.8260 C   0  0  1  0  0  0  0  0  0  0  0  0
   -5.5172  -20.4332   25.1244 C   0  0  0  0  0  0  0  0  0  0  0  0
   -4.6049  -19.9618   24.0511 C   0  0  0  0  0  0  0  0  0  0  0  0
   -4.2499  -20.5782   22.8763 C   0  0  0  0  0  0  0  0  0  0  0  0
   -3.4003  -19.7952   22.1760 N   0  0  0  0  0  0  0  0  0  0  0  0
   -3.2317  -18.6958   22.9192 C   0  0  0  0  0  0  0  0  0  0  0  0
   -3.9367  -18.7650   24.0430 N   0  0  0  0  0  0  0  0  0  0  0  0
   -6.7547  -22.4408   25.9592 C   0  0  0  0  0  0  0  0  0  0  0  0
   -7.9474  -22.1238   26.2840 O   0  0  0  0  0  0  0  0  0  0  0  0
   -6.0997  -26.2591   27.0254 O   0  0  0  0  0  0  0  0  0  0  0  0
   -6.1588  -25.4423   28.1343 C   0  0  0  0  0  0  0  0  0  0  0  0
   -6.8666  -24.1412   27.8038 C   0  0  2  0  0  0  0  0  0  0  0  0
   -6.1376  -23.4352   26.7684 N   0  0  0  0  0  0  0  0  0  0  0  0
   -6.9020  -23.3199   29.0656 C   0  0  0  0  0  0  0  0  0  0  0  0
   -6.2450  -22.2523   29.1395 O   0  0  0  0  0  0  0  0  0  0  0  0
   -7.6380  -23.7036   30.1523 O   0  0  0  0  0  0  0  0  0  0  0  0
  2  1  1  0
  3  4  2  0
  3  2  1  0
  5  3  1  0
  6  5  1  0
  7  8  1  0
  6  7  1  1
  8 12  1  0
  9  8  2  0
  9 10  1  0
 10 11  1  0
 12 11  2  0
 13 18  1  0
 13  6  1  0
 14 13  2  0
 15 16  1  0
 17 16  1  1
 17 19  1  0
 17 18  1  0
 19 21  1  0
 20 19  2  0
M  END
$$$$
