GHS.pdb
     RDKit          3D

 21 21  0  0  1  0  0  0  0  0999 V2000
    8.0012  -16.0665   18.5451 N   0  0  0  0  0  0  0  0  0  0  0  0
    7.0650  -16.0535   19.6269 C   0  0  0  0  0  0  0  0  0  0  0  0
    7.6794  -15.5253   20.8909 C   0  0  0  0  0  0  0  0  0  0  0  0
    8.9274  -15.5155   20.9954 O   0  0  0  0  0  0  0  0  0  0  0  0
    6.8886  -15.0479   21.9449 N   0  0  0  0  0  0  0  0  0  0  0  0
    7.3653  -14.6526   23.2334 C   0  0  1  0  0  0  0  0  0  0  0  0
    6.3531  -13.8823   24.0698 C   0  0  0  0  0  0  0  0  0  0  0  0
    6.9549  -13.3927   25.3366 C   0  0  0  0  0  0  0  0  0  0  0  0
    7.6382  -12.2272   25.5833 C   0  0  0  0  0  0  0  0  0  0  0  0
    8.0070  -12.1677   26.8817 N   0  0  0  0  0  0  0  0  0  0  0  0
    7.5506  -13.2966   27.4356 C   0  0  0  0  0  0  0  0  0  0  0  0
    6.9190  -14.0477   26.5402 N   0  0  0  0  0  0  0  0  0  0  0  0
    7.9761  -15.7818   23.9423 C   0  0  0  0  0  0  0  0  0  0  0  0
    7.3853  -16.9043   24.0824 O   0  0  0  0  0  0  0  0  0  0  0  0
   11.9927  -15.8079   24.5572 O   0  0  0  0  0  0  0  0  0  0  0  0
   11.3126  -17.0071   24.5590 C   0  0  0  0  0  0  0  0  0  0  0  0
    9.9201  -16.8320   25.1360 C   0  0  2  0  0  0  0  0  0  0  0  0
    9.2734  -15.6902   24.5195 N   0  0  0  0  0  0  0  0  0  0  0  0
   10.0763  -16.6033   26.6163 C   0  0  0  0  0  0  0  0  0  0  0  0
    9.6974  -15.5213   27.1287 O   0  0  0  0  0  0  0  0  0  0  0  0
   10.6261  -17.5501   27.4355 O   0  0  0  0  0  0  0  0  0  0  0  0
  2  1  1  0
  3  4  2  0
  3  2  1  0
  5  3  1  0
  6  5  1  0
  7  8  1  0
  6  7  1  1
  8 12  1  0
  9  8  2  0
  9 10  1  0
 10 11  1  0
 12 11  2  0
 13 18  1  0
 13  6  1  0
 14 13  2  0
 15 16  1  0
 17 16  1  6
 17 19  1  0
 17 18  1  0
 19 21  1  0
 20 19  2  0
M  END
$$$$
