WSI.pdb
     RDKit          3D

 29 30  0  0  1  0  0  0  0  0999 V2000
    7.9581  -16.8649   20.3085 N   0  0  0  0  0  0  0  0  0  0  0  0
    8.1241  -16.1155   21.5804 C   0  0  1  0  0  0  0  0  0  0  0  0
    6.7405  -15.8865   22.0696 C   0  0  0  0  0  0  0  0  0  0  0  0
    6.6571  -15.3498   23.4262 C   0  0  0  0  0  0  0  0  0  0  0  0
    6.2199  -16.1139   24.5040 C   0  0  0  0  0  0  0  0  0  0  0  0
    6.2271  -15.3533   25.5869 N   0  0  0  0  0  0  0  0  0  0  0  0
    6.6490  -14.1117   25.2928 C   0  0  0  0  0  0  0  0  0  0  0  0
    6.8430  -12.9723   26.0592 C   0  0  0  0  0  0  0  0  0  0  0  0
    7.3113  -11.8306   25.4541 C   0  0  0  0  0  0  0  0  0  0  0  0
    7.5764  -11.8412   24.1079 C   0  0  0  0  0  0  0  0  0  0  0  0
    7.3957  -12.9445   23.3279 C   0  0  0  0  0  0  0  0  0  0  0  0
    6.9218  -14.1035   23.9320 C   0  0  0  0  0  0  0  0  0  0  0  0
    9.0023  -16.9499   22.4083 C   0  0  0  0  0  0  0  0  0  0  0  0
    8.6761  -18.1417   22.6227 O   0  0  0  0  0  0  0  0  0  0  0  0
   12.8966  -16.7725   22.5719 O   0  0  0  0  0  0  0  0  0  0  0  0
   12.2204  -17.8065   23.1771 C   0  0  0  0  0  0  0  0  0  0  0  0
   10.9691  -17.3753   23.9103 C   0  0  2  0  0  0  0  0  0  0  0  0
   10.2189  -16.5092   23.0005 N   0  0  0  0  0  0  0  0  0  0  0  0
   11.4026  -16.6173   25.1166 C   0  0  0  0  0  0  0  0  0  0  0  0
   12.1458  -15.6193   24.9440 O   0  0  0  0  0  0  0  0  0  0  0  0
    8.4334  -14.3792   28.6850 C   0  0  0  0  0  0  0  0  0  0  0  0
    9.2584  -15.5475   28.1932 C   0  0  0  0  0  0  0  0  0  0  0  0
   10.7025  -15.0902   28.0042 C   0  0  2  0  0  0  0  0  0  0  0  0
   10.7098  -14.1407   26.8257 C   0  0  0  0  0  0  0  0  0  0  0  0
   11.5422  -16.2921   27.6162 C   0  0  2  0  0  0  0  0  0  0  0  0
   11.0296  -16.9509   26.4383 N   0  0  0  0  0  0  0  0  0  0  0  0
   11.5036  -17.2449   28.7435 C   0  0  0  0  0  0  0  0  0  0  0  0
   10.9236  -18.3453   28.6279 O   0  0  0  0  0  0  0  0  0  0  0  0
   12.1228  -16.8944   29.9304 O   0  0  0  0  0  0  0  0  0  0  0  0
  2  1  1  6
  2 13  1  0
  3  2  1  0
  4  3  1  0
  4 12  1  0
  5  6  1  0
  5  4  2  0
  6  7  1  0
  7  8  1  0
  7 12  2  0
  8  9  2  0
  9 10  1  0
 11 10  2  0
 12 11  1  0
 13 14  2  0
 15 16  1  0
 17 16  1  6
 18 13  1  0
 18 17  1  0
 19 17  1  0
 19 20  2  0
 21 22  1  0
 23 22  1  0
 23 25  1  0
 23 24  1  6
 25 26  1  6
 26 19  1  0
 27 25  1  0
 28 27  2  0
 29 27  1  0
M  END
$$$$
