WSI.pdb
     RDKit          3D

 29 30  0  0  1  0  0  0  0  0999 V2000
    6.1623  -18.1494   24.2273 N   0  0  0  0  0  0  0  0  0  0  0  0
    7.0428  -16.9540   24.2817 C   0  0  1  0  0  0  0  0  0  0  0  0
    6.8813  -16.4259   25.6605 C   0  0  0  0  0  0  0  0  0  0  0  0
    6.2402  -15.1150   25.7375 C   0  0  0  0  0  0  0  0  0  0  0  0
    4.9281  -14.9517   26.1712 C   0  0  0  0  0  0  0  0  0  0  0  0
    4.6223  -13.6658   26.1059 N   0  0  0  0  0  0  0  0  0  0  0  0
    5.6653  -12.9519   25.6494 C   0  0  0  0  0  0  0  0  0  0  0  0
    5.8553  -11.5981   25.4161 C   0  0  0  0  0  0  0  0  0  0  0  0
    7.0732  -11.1638   24.9501 C   0  0  0  0  0  0  0  0  0  0  0  0
    8.0733  -12.0759   24.7256 C   0  0  0  0  0  0  0  0  0  0  0  0
    7.9175  -13.4124   24.9446 C   0  0  0  0  0  0  0  0  0  0  0  0
    6.6884  -13.8601   25.4156 C   0  0  0  0  0  0  0  0  0  0  0  0
    8.3737  -17.4371   23.8965 C   0  0  0  0  0  0  0  0  0  0  0  0
    8.7486  -18.5623   24.3041 O   0  0  0  0  0  0  0  0  0  0  0  0
   10.6454  -15.1196   21.6162 O   0  0  0  0  0  0  0  0  0  0  0  0
   11.3767  -16.2119   22.0223 C   0  0  0  0  0  0  0  0  0  0  0  0
   10.7270  -17.0062   23.1342 C   0  0  2  0  0  0  0  0  0  0  0  0
    9.2934  -16.7190   23.0819 N   0  0  0  0  0  0  0  0  0  0  0  0
   11.3104  -16.5278   24.4182 C   0  0  0  0  0  0  0  0  0  0  0  0
   12.0819  -15.5373   24.3767 O   0  0  0  0  0  0  0  0  0  0  0  0
   11.0211  -12.9321   27.2565 C   0  0  0  0  0  0  0  0  0  0  0  0
   11.6435  -14.2083   26.7354 C   0  0  0  0  0  0  0  0  0  0  0  0
   10.9841  -15.3994   27.4258 C   0  0  2  0  0  0  0  0  0  0  0  0
   11.3120  -15.2875   28.8991 C   0  0  0  0  0  0  0  0  0  0  0  0
   11.6342  -16.6720   26.9178 C   0  0  2  0  0  0  0  0  0  0  0  0
   11.0492  -17.1180   25.6755 N   0  0  0  0  0  0  0  0  0  0  0  0
   11.4251  -17.7175   27.9392 C   0  0  0  0  0  0  0  0  0  0  0  0
   10.5877  -18.6266   27.7581 O   0  0  0  0  0  0  0  0  0  0  0  0
   12.1753  -17.6697   29.1011 O   0  0  0  0  0  0  0  0  0  0  0  0
  2  1  1  1
  2 13  1  0
  3  2  1  0
  4  3  1  0
  4 12  1  0
  5  6  1  0
  5  4  2  0
  6  7  1  0
  7  8  1  0
  7 12  2  0
  8  9  2  0
  9 10  1  0
 11 10  2  0
 12 11  1  0
 13 14  2  0
 15 16  1  0
 17 16  1  6
 18 13  1  0
 18 17  1  0
 19 17  1  0
 19 20  2  0
 21 22  1  0
 23 22  1  0
 23 25  1  0
 23 24  1  1
 25 26  1  6
 26 19  1  0
 27 25  1  0
 28 27  2  0
 29 27  1  0
M  END
$$$$
