WSI.pdb
     RDKit          3D

 29 30  0  0  1  0  0  0  0  0999 V2000
    7.7427  -19.0374   19.9380 N   0  0  0  0  0  0  0  0  0  0  0  0
    8.1174  -17.7536   20.5850 C   0  0  1  0  0  0  0  0  0  0  0  0
    7.0230  -16.8149   20.2281 C   0  0  0  0  0  0  0  0  0  0  0  0
    7.4576  -15.4420   19.9794 C   0  0  0  0  0  0  0  0  0  0  0  0
    7.9566  -15.0302   18.7473 C   0  0  0  0  0  0  0  0  0  0  0  0
    8.2891  -13.7524   18.8361 N   0  0  0  0  0  0  0  0  0  0  0  0
    8.0381  -13.2805   20.0691 C   0  0  0  0  0  0  0  0  0  0  0  0
    8.1943  -12.0330   20.6545 C   0  0  0  0  0  0  0  0  0  0  0  0
    7.8213  -11.8576   21.9656 C   0  0  0  0  0  0  0  0  0  0  0  0
    7.3037  -12.9172   22.6668 C   0  0  0  0  0  0  0  0  0  0  0  0
    7.1383  -14.1550   22.1201 C   0  0  0  0  0  0  0  0  0  0  0  0
    7.5135  -14.3412   20.7944 C   0  0  0  0  0  0  0  0  0  0  0  0
    8.2935  -18.0745   22.0059 C   0  0  0  0  0  0  0  0  0  0  0  0
    7.6710  -19.0518   22.4856 O   0  0  0  0  0  0  0  0  0  0  0  0
   11.3504  -18.6784   23.9234 O   0  0  0  0  0  0  0  0  0  0  0  0
   10.1027  -18.8782   24.4677 C   0  0  0  0  0  0  0  0  0  0  0  0
    9.1745  -17.6918   24.3260 C   0  0  2  0  0  0  0  0  0  0  0  0
    9.1296  -17.3530   22.9034 N   0  0  0  0  0  0  0  0  0  0  0  0
    9.7639  -16.5729   25.1124 C   0  0  0  0  0  0  0  0  0  0  0  0
   10.7486  -15.9677   24.6202 O   0  0  0  0  0  0  0  0  0  0  0  0
    7.1408  -12.4867   26.7363 C   0  0  0  0  0  0  0  0  0  0  0  0
    8.2387  -13.4424   26.3257 C   0  0  0  0  0  0  0  0  0  0  0  0
    8.8542  -14.0588   27.5793 C   0  0  2  0  0  0  0  0  0  0  0  0
    9.6044  -12.9517   28.2878 C   0  0  0  0  0  0  0  0  0  0  0  0
    9.8785  -15.0936   27.1549 C   0  0  2  0  0  0  0  0  0  0  0  0
    9.2843  -16.1521   26.3734 N   0  0  0  0  0  0  0  0  0  0  0  0
   10.4539  -15.6799   28.3818 C   0  0  0  0  0  0  0  0  0  0  0  0
   10.0236  -16.7624   28.8331 O   0  0  0  0  0  0  0  0  0  0  0  0
   11.4794  -15.0060   29.0216 O   0  0  0  0  0  0  0  0  0  0  0  0
  2  1  1  6
  2 13  1  0
  3  2  1  0
  4  3  1  0
  4 12  1  0
  5  6  1  0
  5  4  2  0
  6  7  1  0
  7  8  1  0
  7 12  2  0
  8  9  2  0
  9 10  1  0
 11 10  2  0
 12 11  1  0
 13 14  2  0
 15 16  1  0
 17 16  1  6
 18 13  1  0
 18 17  1  0
 19 17  1  0
 19 20  2  0
 21 22  1  0
 23 22  1  0
 23 25  1  0
 23 24  1  6
 25 26  1  6
 26 19  1  0
 27 25  1  0
 28 27  2  0
 29 27  1  0
M  END
$$$$
