WSI.pdb
     RDKit          3D

 29 30  0  0  1  0  0  0  0  0999 V2000
    6.4500  -17.3493   23.7214 N   0  0  0  0  0  0  0  0  0  0  0  0
    7.6843  -16.5394   23.8874 C   0  0  1  0  0  0  0  0  0  0  0  0
    7.6526  -16.0843   25.3009 C   0  0  0  0  0  0  0  0  0  0  0  0
    6.8797  -14.8654   25.5292 C   0  0  0  0  0  0  0  0  0  0  0  0
    5.6603  -14.8711   26.1997 C   0  0  0  0  0  0  0  0  0  0  0  0
    5.1911  -13.6340   26.2262 N   0  0  0  0  0  0  0  0  0  0  0  0
    6.0355  -12.7920   25.6064 C   0  0  0  0  0  0  0  0  0  0  0  0
    6.0103  -11.4242   25.3792 C   0  0  0  0  0  0  0  0  0  0  0  0
    7.0580  -10.8376   24.7105 C   0  0  0  0  0  0  0  0  0  0  0  0
    8.1044  -11.6148   24.2824 C   0  0  0  0  0  0  0  0  0  0  0  0
    8.1581  -12.9612   24.4898 C   0  0  0  0  0  0  0  0  0  0  0  0
    7.1021  -13.5626   25.1650 C   0  0  0  0  0  0  0  0  0  0  0  0
    8.7839  -17.4256   23.4890 C   0  0  0  0  0  0  0  0  0  0  0  0
    8.6986  -18.6488   23.7520 O   0  0  0  0  0  0  0  0  0  0  0  0
   12.1017  -15.5935   21.9436 O   0  0  0  0  0  0  0  0  0  0  0  0
   12.2877  -16.9204   22.2558 C   0  0  0  0  0  0  0  0  0  0  0  0
   11.2830  -17.4639   23.2481 C   0  0  2  0  0  0  0  0  0  0  0  0
    9.9638  -17.0027   22.8152 N   0  0  0  0  0  0  0  0  0  0  0  0
   11.6255  -16.8943   24.5808 C   0  0  0  0  0  0  0  0  0  0  0  0
   12.2376  -15.7976   24.6080 O   0  0  0  0  0  0  0  0  0  0  0  0
    8.6210  -14.3705   27.1906 C   0  0  0  0  0  0  0  0  0  0  0  0
    9.9891  -14.9208   26.8546 C   0  0  0  0  0  0  0  0  0  0  0  0
   10.1863  -16.2432   27.5910 C   0  0  2  0  0  0  0  0  0  0  0  0
   10.3849  -15.9044   29.0526 C   0  0  0  0  0  0  0  0  0  0  0  0
   11.4717  -16.8815   27.1006 C   0  0  2  0  0  0  0  0  0  0  0  0
   11.3045  -17.5100   25.8117 N   0  0  0  0  0  0  0  0  0  0  0  0
   11.8587  -17.9145   28.0819 C   0  0  0  0  0  0  0  0  0  0  0  0
   11.5896  -19.1176   27.8801 O   0  0  0  0  0  0  0  0  0  0  0  0
   12.5254  -17.5231   29.2297 O   0  0  0  0  0  0  0  0  0  0  0  0
  2  1  1  1
  2 13  1  0
  3  2  1  0
  4  3  1  0
  4 12  1  0
  5  6  1  0
  5  4  2  0
  6  7  1  0
  7  8  1  0
  7 12  2  0
  8  9  2  0
  9 10  1  0
 11 10  2  0
 12 11  1  0
 13 14  2  0
 15 16  1  0
 17 16  1  6
 18 13  1  0
 18 17  1  0
 19 17  1  0
 19 20  2  0
 21 22  1  0
 23 22  1  0
 23 25  1  0
 23 24  1  1
 25 26  1  6
 26 19  1  0
 27 25  1  0
 28 27  2  0
 29 27  1  0
M  END
$$$$
