WSI.pdb
     RDKit          3D

 29 30  0  0  1  0  0  0  0  0999 V2000
    6.4346  -17.1638   23.4039 N   0  0  0  0  0  0  0  0  0  0  0  0
    7.6901  -16.4258   23.6975 C   0  0  1  0  0  0  0  0  0  0  0  0
    7.6211  -16.1217   25.1497 C   0  0  0  0  0  0  0  0  0  0  0  0
    6.8018  -14.9601   25.4886 C   0  0  0  0  0  0  0  0  0  0  0  0
    5.5330  -15.0807   26.0472 C   0  0  0  0  0  0  0  0  0  0  0  0
    5.0322  -13.8673   26.2152 N   0  0  0  0  0  0  0  0  0  0  0  0
    5.9022  -12.9321   25.7974 C   0  0  0  0  0  0  0  0  0  0  0  0
    5.8609  -11.5462   25.7711 C   0  0  0  0  0  0  0  0  0  0  0  0
    6.9438  -10.8535   25.2849 C   0  0  0  0  0  0  0  0  0  0  0  0
    8.0405  -11.5453   24.8363 C   0  0  0  0  0  0  0  0  0  0  0  0
    8.1113  -12.9067   24.8485 C   0  0  0  0  0  0  0  0  0  0  0  0
    7.0199  -13.6150   25.3384 C   0  0  0  0  0  0  0  0  0  0  0  0
    8.7714  -17.3080   23.2442 C   0  0  0  0  0  0  0  0  0  0  0  0
    8.6896  -18.5360   23.4855 O   0  0  0  0  0  0  0  0  0  0  0  0
   12.1007  -15.5381   21.5463 O   0  0  0  0  0  0  0  0  0  0  0  0
   12.2192  -16.8751   21.8480 C   0  0  0  0  0  0  0  0  0  0  0  0
   11.2608  -17.3499   22.9182 C   0  0  2  0  0  0  0  0  0  0  0  0
    9.9295  -16.8763   22.5390 N   0  0  0  0  0  0  0  0  0  0  0  0
   11.6906  -16.7309   24.2027 C   0  0  0  0  0  0  0  0  0  0  0  0
   12.2953  -15.6311   24.1481 O   0  0  0  0  0  0  0  0  0  0  0  0
   11.1612  -13.3394   28.0312 C   0  0  0  0  0  0  0  0  0  0  0  0
   11.0337  -14.8250   28.2846 C   0  0  0  0  0  0  0  0  0  0  0  0
   10.6819  -15.5233   26.9736 C   0  0  2  0  0  0  0  0  0  0  0  0
    9.3405  -16.1927   27.1809 C   0  0  0  0  0  0  0  0  0  0  0  0
   11.6972  -16.6222   26.7249 C   0  0  2  0  0  0  0  0  0  0  0  0
   11.4598  -17.3031   25.4741 N   0  0  0  0  0  0  0  0  0  0  0  0
   11.5737  -17.5998   27.8244 C   0  0  0  0  0  0  0  0  0  0  0  0
   11.9180  -17.2982   28.9868 O   0  0  0  0  0  0  0  0  0  0  0  0
   11.0689  -18.8569   27.5414 O   0  0  0  0  0  0  0  0  0  0  0  0
  2  1  1  1
  2 13  1  0
  3  2  1  0
  4  3  1  0
  4 12  1  0
  5  6  1  0
  5  4  2  0
  6  7  1  0
  7  8  1  0
  7 12  2  0
  8  9  2  0
  9 10  1  0
 11 10  2  0
 12 11  1  0
 13 14  2  0
 15 16  1  0
 17 16  1  6
 18 13  1  0
 18 17  1  0
 19 17  1  0
 19 20  2  0
 21 22  1  0
 23 22  1  0
 23 25  1  0
 23 24  1  1
 25 26  1  6
 26 19  1  0
 27 25  1  0
 28 27  2  0
 29 27  1  0
M  END
$$$$
