WSI.pdb
     RDKit          3D

 29 30  0  0  1  0  0  0  0  0999 V2000
    6.1539  -17.1904   24.4324 N   0  0  0  0  0  0  0  0  0  0  0  0
    7.4055  -16.3976   24.3229 C   0  0  1  0  0  0  0  0  0  0  0  0
    7.5342  -15.7083   25.6323 C   0  0  0  0  0  0  0  0  0  0  0  0
    6.6592  -14.5496   25.7972 C   0  0  0  0  0  0  0  0  0  0  0  0
    5.3620  -14.6596   26.2887 C   0  0  0  0  0  0  0  0  0  0  0  0
    4.8138  -13.4552   26.2974 N   0  0  0  0  0  0  0  0  0  0  0  0
    5.6788  -12.5360   25.8359 C   0  0  0  0  0  0  0  0  0  0  0  0
    5.5959  -11.1628   25.6611 C   0  0  0  0  0  0  0  0  0  0  0  0
    6.6852  -10.4837   25.1700 C   0  0  0  0  0  0  0  0  0  0  0  0
    7.8292  -11.1763   24.8632 C   0  0  0  0  0  0  0  0  0  0  0  0
    7.9417  -12.5255   25.0233 C   0  0  0  0  0  0  0  0  0  0  0  0
    6.8442  -13.2200   25.5192 C   0  0  0  0  0  0  0  0  0  0  0  0
    8.4470  -17.3679   23.9666 C   0  0  0  0  0  0  0  0  0  0  0  0
    8.4152  -18.5069   24.4903 O   0  0  0  0  0  0  0  0  0  0  0  0
   11.5907  -15.9817   21.7411 O   0  0  0  0  0  0  0  0  0  0  0  0
   11.6890  -17.3103   22.0844 C   0  0  0  0  0  0  0  0  0  0  0  0
   10.8367  -17.7018   23.2717 C   0  0  2  0  0  0  0  0  0  0  0  0
    9.5126  -17.1177   23.0573 N   0  0  0  0  0  0  0  0  0  0  0  0
   11.4752  -17.1204   24.4850 C   0  0  0  0  0  0  0  0  0  0  0  0
   12.0057  -15.9866   24.3800 O   0  0  0  0  0  0  0  0  0  0  0  0
    9.8630  -14.0242   27.4173 C   0  0  0  0  0  0  0  0  0  0  0  0
   10.9190  -14.9225   26.8129 C   0  0  0  0  0  0  0  0  0  0  0  0
   10.9453  -16.2423   27.5796 C   0  0  2  0  0  0  0  0  0  0  0  0
   11.4088  -15.9228   28.9844 C   0  0  0  0  0  0  0  0  0  0  0  0
   11.9948  -17.1419   26.9555 C   0  0  2  0  0  0  0  0  0  0  0  0
   11.5198  -17.7641   25.7424 N   0  0  0  0  0  0  0  0  0  0  0  0
   12.3133  -18.2003   27.9344 C   0  0  0  0  0  0  0  0  0  0  0  0
   11.7803  -19.3270   27.8506 O   0  0  0  0  0  0  0  0  0  0  0  0
   13.2142  -17.9190   28.9465 O   0  0  0  0  0  0  0  0  0  0  0  0
  2  1  1  1
  2 13  1  0
  3  2  1  0
  4  3  1  0
  4 12  1  0
  5  6  1  0
  5  4  2  0
  6  7  1  0
  7  8  1  0
  7 12  2  0
  8  9  2  0
  9 10  1  0
 11 10  2  0
 12 11  1  0
 13 14  2  0
 15 16  1  0
 17 16  1  6
 18 13  1  0
 18 17  1  0
 19 17  1  0
 19 20  2  0
 21 22  1  0
 23 22  1  0
 23 25  1  0
 23 24  1  1
 25 26  1  6
 26 19  1  0
 27 25  1  0
 28 27  2  0
 29 27  1  0
M  END
$$$$
