WSI.pdb
     RDKit          3D

 29 30  0  0  1  0  0  0  0  0999 V2000
    6.2591  -17.4828   24.5922 N   0  0  0  0  0  0  0  0  0  0  0  0
    7.3592  -16.5126   24.3564 C   0  0  1  0  0  0  0  0  0  0  0  0
    7.4608  -15.7393   25.6204 C   0  0  0  0  0  0  0  0  0  0  0  0
    6.5667  -14.5862   25.7004 C   0  0  0  0  0  0  0  0  0  0  0  0
    5.3292  -14.6456   26.3341 C   0  0  0  0  0  0  0  0  0  0  0  0
    4.7431  -13.4646   26.2200 N   0  0  0  0  0  0  0  0  0  0  0  0
    5.5256  -12.6094   25.5400 C   0  0  0  0  0  0  0  0  0  0  0  0
    5.3780  -11.2804   25.1722 C   0  0  0  0  0  0  0  0  0  0  0  0
    6.3890  -10.6627   24.4756 C   0  0  0  0  0  0  0  0  0  0  0  0
    7.5203  -11.3714   24.1589 C   0  0  0  0  0  0  0  0  0  0  0  0
    7.6949  -12.6782   24.5055 C   0  0  0  0  0  0  0  0  0  0  0  0
    6.6768  -13.3108   25.2100 C   0  0  0  0  0  0  0  0  0  0  0  0
    8.5165  -17.3276   23.9699 C   0  0  0  0  0  0  0  0  0  0  0  0
    8.6359  -18.4763   24.4589 O   0  0  0  0  0  0  0  0  0  0  0  0
   11.7475  -15.3401   22.1847 O   0  0  0  0  0  0  0  0  0  0  0  0
   11.7301  -16.7149   22.1369 C   0  0  0  0  0  0  0  0  0  0  0  0
   10.9192  -17.3570   23.2412 C   0  0  2  0  0  0  0  0  0  0  0  0
    9.5359  -16.9136   23.0675 N   0  0  0  0  0  0  0  0  0  0  0  0
   11.4680  -16.8656   24.5355 C   0  0  0  0  0  0  0  0  0  0  0  0
   12.1186  -15.7911   24.5243 O   0  0  0  0  0  0  0  0  0  0  0  0
    9.4659  -14.0001   27.7586 C   0  0  0  0  0  0  0  0  0  0  0  0
   10.5637  -14.8015   27.0953 C   0  0  0  0  0  0  0  0  0  0  0  0
   10.5955  -16.1999   27.7067 C   0  0  2  0  0  0  0  0  0  0  0  0
   10.9711  -16.0319   29.1632 C   0  0  0  0  0  0  0  0  0  0  0  0
   11.7082  -16.9903   27.0455 C   0  0  2  0  0  0  0  0  0  0  0  0
   11.3013  -17.5320   25.7706 N   0  0  0  0  0  0  0  0  0  0  0  0
   12.0542  -18.1095   27.9442 C   0  0  0  0  0  0  0  0  0  0  0  0
   12.8583  -17.9451   28.8860 O   0  0  0  0  0  0  0  0  0  0  0  0
   11.4699  -19.3441   27.7221 O   0  0  0  0  0  0  0  0  0  0  0  0
  2  1  1  1
  2 13  1  0
  3  2  1  0
  4  3  1  0
  4 12  1  0
  5  6  1  0
  5  4  2  0
  6  7  1  0
  7  8  1  0
  7 12  2  0
  8  9  2  0
  9 10  1  0
 11 10  2  0
 12 11  1  0
 13 14  2  0
 15 16  1  0
 17 16  1  6
 18 13  1  0
 18 17  1  0
 19 17  1  0
 19 20  2  0
 21 22  1  0
 23 22  1  0
 23 25  1  0
 23 24  1  1
 25 26  1  6
 26 19  1  0
 27 25  1  0
 28 27  2  0
 29 27  1  0
M  END
$$$$
