WSI.pdb
     RDKit          3D

 29 30  0  0  1  0  0  0  0  0999 V2000
    6.1188  -17.8184   24.2828 N   0  0  0  0  0  0  0  0  0  0  0  0
    7.1243  -16.7249   24.2888 C   0  0  1  0  0  0  0  0  0  0  0  0
    7.0568  -16.1544   25.6585 C   0  0  0  0  0  0  0  0  0  0  0  0
    6.3939  -14.8549   25.7432 C   0  0  0  0  0  0  0  0  0  0  0  0
    5.0568  -14.7229   26.1054 C   0  0  0  0  0  0  0  0  0  0  0  0
    4.7371  -13.4393   26.0667 N   0  0  0  0  0  0  0  0  0  0  0  0
    5.7945  -12.6972   25.6962 C   0  0  0  0  0  0  0  0  0  0  0  0
    5.9784  -11.3338   25.5210 C   0  0  0  0  0  0  0  0  0  0  0  0
    7.2148  -10.8687   25.1417 C   0  0  0  0  0  0  0  0  0  0  0  0
    8.2390  -11.7601   24.9443 C   0  0  0  0  0  0  0  0  0  0  0  0
    8.0898  -13.1053   25.1079 C   0  0  0  0  0  0  0  0  0  0  0  0
    6.8421  -13.5841   25.4911 C   0  0  0  0  0  0  0  0  0  0  0  0
    8.3848  -17.3572   23.8833 C   0  0  0  0  0  0  0  0  0  0  0  0
    8.7011  -18.4565   24.3973 O   0  0  0  0  0  0  0  0  0  0  0  0
   10.6679  -15.4728   21.2459 O   0  0  0  0  0  0  0  0  0  0  0  0
   11.3451  -16.5705   21.7247 C   0  0  0  0  0  0  0  0  0  0  0  0
   10.7082  -17.2005   22.9441 C   0  0  2  0  0  0  0  0  0  0  0  0
    9.2970  -16.8146   22.9355 N   0  0  0  0  0  0  0  0  0  0  0  0
   11.3965  -16.6419   24.1407 C   0  0  0  0  0  0  0  0  0  0  0  0
   11.9732  -15.5326   24.0186 O   0  0  0  0  0  0  0  0  0  0  0  0
    9.7295  -13.8058   27.5847 C   0  0  0  0  0  0  0  0  0  0  0  0
   10.8112  -14.5384   26.8227 C   0  0  0  0  0  0  0  0  0  0  0  0
   10.9602  -15.9434   27.4007 C   0  0  2  0  0  0  0  0  0  0  0  0
   11.5118  -15.7839   28.8009 C   0  0  0  0  0  0  0  0  0  0  0  0
   12.0027  -16.6901   26.5909 C   0  0  2  0  0  0  0  0  0  0  0  0
   11.4395  -17.2813   25.4003 N   0  0  0  0  0  0  0  0  0  0  0  0
   12.5403  -17.7689   27.4437 C   0  0  0  0  0  0  0  0  0  0  0  0
   13.4472  -17.5353   28.2706 O   0  0  0  0  0  0  0  0  0  0  0  0
   12.0194  -19.0438   27.3085 O   0  0  0  0  0  0  0  0  0  0  0  0
  2  1  1  1
  2 13  1  0
  3  2  1  0
  4  3  1  0
  4 12  1  0
  5  6  1  0
  5  4  2  0
  6  7  1  0
  7  8  1  0
  7 12  2  0
  8  9  2  0
  9 10  1  0
 11 10  2  0
 12 11  1  0
 13 14  2  0
 15 16  1  0
 17 16  1  6
 18 13  1  0
 18 17  1  0
 19 17  1  0
 19 20  2  0
 21 22  1  0
 23 22  1  0
 23 25  1  0
 23 24  1  1
 25 26  1  6
 26 19  1  0
 27 25  1  0
 28 27  2  0
 29 27  1  0
M  END
$$$$
