WSI.pdb
     RDKit          3D

 29 30  0  0  1  0  0  0  0  0999 V2000
    6.3741  -18.1243   23.7659 N   0  0  0  0  0  0  0  0  0  0  0  0
    7.2632  -16.9511   23.9662 C   0  0  1  0  0  0  0  0  0  0  0  0
    7.0283  -16.5322   25.3717 C   0  0  0  0  0  0  0  0  0  0  0  0
    6.4172  -15.2129   25.5182 C   0  0  0  0  0  0  0  0  0  0  0  0
    5.1616  -15.0328   26.0904 C   0  0  0  0  0  0  0  0  0  0  0  0
    4.8683  -13.7428   26.0594 N   0  0  0  0  0  0  0  0  0  0  0  0
    5.8660  -13.0420   25.4940 C   0  0  0  0  0  0  0  0  0  0  0  0
    6.0484  -11.6904   25.2428 C   0  0  0  0  0  0  0  0  0  0  0  0
    7.2150  -11.2716   24.6491 C   0  0  0  0  0  0  0  0  0  0  0  0
    8.1727  -12.1966   24.3178 C   0  0  0  0  0  0  0  0  0  0  0  0
    8.0229  -13.5314   24.5512 C   0  0  0  0  0  0  0  0  0  0  0  0
    6.8455  -13.9635   25.1510 C   0  0  0  0  0  0  0  0  0  0  0  0
    8.6086  -17.4228   23.6193 C   0  0  0  0  0  0  0  0  0  0  0  0
    8.9549  -18.5743   23.9753 O   0  0  0  0  0  0  0  0  0  0  0  0
   11.4568  -14.7702   22.2153 O   0  0  0  0  0  0  0  0  0  0  0  0
   11.7017  -16.1006   21.9645 C   0  0  0  0  0  0  0  0  0  0  0  0
   10.9863  -17.0443   22.9063 C   0  0  2  0  0  0  0  0  0  0  0  0
    9.5732  -16.6655   22.8974 N   0  0  0  0  0  0  0  0  0  0  0  0
   11.5730  -16.8461   24.2606 C   0  0  0  0  0  0  0  0  0  0  0  0
   12.8206  -16.9370   24.3762 O   0  0  0  0  0  0  0  0  0  0  0  0
    9.7415  -13.1400   27.8938 C   0  0  0  0  0  0  0  0  0  0  0  0
   10.7003  -14.0271   27.1314 C   0  0  0  0  0  0  0  0  0  0  0  0
   10.5169  -15.4697   27.5956 C   0  0  2  0  0  0  0  0  0  0  0  0
   11.0604  -15.5477   29.0059 C   0  0  0  0  0  0  0  0  0  0  0  0
   11.3817  -16.3679   26.7321 C   0  0  2  0  0  0  0  0  0  0  0  0
   10.8144  -16.5626   25.4188 N   0  0  0  0  0  0  0  0  0  0  0  0
   11.4731  -17.6789   27.4050 C   0  0  0  0  0  0  0  0  0  0  0  0
   10.7387  -18.6271   27.0554 O   0  0  0  0  0  0  0  0  0  0  0  0
   12.3886  -17.8361   28.4308 O   0  0  0  0  0  0  0  0  0  0  0  0
  2  1  1  1
  2 13  1  0
  3  2  1  0
  4  3  1  0
  4 12  1  0
  5  6  1  0
  5  4  2  0
  6  7  1  0
  7  8  1  0
  7 12  2  0
  8  9  2  0
  9 10  1  0
 11 10  2  0
 12 11  1  0
 13 14  2  0
 15 16  1  0
 17 16  1  6
 18 13  1  0
 18 17  1  0
 19 17  1  0
 19 20  2  0
 21 22  1  0
 23 22  1  0
 23 25  1  0
 23 24  1  1
 25 26  1  6
 26 19  1  0
 27 25  1  0
 28 27  2  0
 29 27  1  0
M  END
$$$$
