WSI.pdb
     RDKit          3D

 29 30  0  0  1  0  0  0  0  0999 V2000
    7.9754  -18.1631   21.1922 N   0  0  0  0  0  0  0  0  0  0  0  0
    8.6231  -17.3587   22.2601 C   0  0  1  0  0  0  0  0  0  0  0  0
    7.5686  -16.4193   22.7203 C   0  0  0  0  0  0  0  0  0  0  0  0
    7.1179  -15.4684   21.7063 C   0  0  0  0  0  0  0  0  0  0  0  0
    5.8264  -15.4877   21.1886 C   0  0  0  0  0  0  0  0  0  0  0  0
    5.7259  -14.5331   20.2776 N   0  0  0  0  0  0  0  0  0  0  0  0
    6.8878  -13.8688   20.1553 C   0  0  0  0  0  0  0  0  0  0  0  0
    7.2883  -12.8009   19.3663 C   0  0  0  0  0  0  0  0  0  0  0  0
    8.5723  -12.3256   19.4852 C   0  0  0  0  0  0  0  0  0  0  0  0
    9.4296  -12.9157   20.3793 C   0  0  0  0  0  0  0  0  0  0  0  0
    9.0662  -13.9666   21.1680 C   0  0  0  0  0  0  0  0  0  0  0  0
    7.7692  -14.4539   21.0537 C   0  0  0  0  0  0  0  0  0  0  0  0
    9.1237  -18.3382   23.2312 C   0  0  0  0  0  0  0  0  0  0  0  0
    9.1964  -19.5429   22.8905 O   0  0  0  0  0  0  0  0  0  0  0  0
   12.5251  -19.2659   23.5184 O   0  0  0  0  0  0  0  0  0  0  0  0
   11.7487  -18.1366   23.6400 C   0  0  0  0  0  0  0  0  0  0  0  0
   10.9561  -18.0727   24.9273 C   0  0  2  0  0  0  0  0  0  0  0  0
    9.5419  -18.0276   24.5555 N   0  0  0  0  0  0  0  0  0  0  0  0
   11.3533  -16.8208   25.6292 C   0  0  0  0  0  0  0  0  0  0  0  0
   12.5774  -16.6305   25.8374 O   0  0  0  0  0  0  0  0  0  0  0  0
    7.6647  -12.8096   26.5487 C   0  0  0  0  0  0  0  0  0  0  0  0
    8.9545  -13.5759   26.3576 C   0  0  0  0  0  0  0  0  0  0  0  0
    9.2620  -14.3553   27.6336 C   0  0  2  0  0  0  0  0  0  0  0  0
    9.6555  -13.3383   28.6831 C   0  0  0  0  0  0  0  0  0  0  0  0
   10.4739  -15.2321   27.3831 C   0  0  2  0  0  0  0  0  0  0  0  0
   10.4402  -15.8376   26.0729 N   0  0  0  0  0  0  0  0  0  0  0  0
   10.4653  -16.3044   28.3981 C   0  0  0  0  0  0  0  0  0  0  0  0
    9.5853  -17.1909   28.3808 O   0  0  0  0  0  0  0  0  0  0  0  0
   11.4516  -16.3074   29.3688 O   0  0  0  0  0  0  0  0  0  0  0  0
  2  1  1  6
  2 13  1  0
  3  2  1  0
  4  3  1  0
  4 12  1  0
  5  6  1  0
  5  4  2  0
  6  7  1  0
  7  8  1  0
  7 12  2  0
  8  9  2  0
  9 10  1  0
 11 10  2  0
 12 11  1  0
 13 14  2  0
 15 16  1  0
 17 16  1  6
 18 13  1  0
 18 17  1  0
 19 17  1  0
 19 20  2  0
 21 22  1  0
 23 22  1  0
 23 25  1  0
 23 24  1  1
 25 26  1  6
 26 19  1  0
 27 25  1  0
 28 27  2  0
 29 27  1  0
M  END
$$$$
