WSI.pdb
     RDKit          3D

 29 30  0  0  1  0  0  0  0  0999 V2000
    6.4763  -17.9010   20.9975 N   0  0  0  0  0  0  0  0  0  0  0  0
    7.3020  -16.8844   21.6988 C   0  0  1  0  0  0  0  0  0  0  0  0
    6.4064  -15.7097   21.8547 C   0  0  0  0  0  0  0  0  0  0  0  0
    7.0338  -14.5462   22.4778 C   0  0  0  0  0  0  0  0  0  0  0  0
    8.0202  -13.8005   21.8395 C   0  0  0  0  0  0  0  0  0  0  0  0
    8.4107  -12.8358   22.6568 N   0  0  0  0  0  0  0  0  0  0  0  0
    7.7349  -12.8932   23.8170 C   0  0  0  0  0  0  0  0  0  0  0  0
    7.7635  -12.1196   24.9676 C   0  0  0  0  0  0  0  0  0  0  0  0
    6.9168  -12.4309   26.0044 C   0  0  0  0  0  0  0  0  0  0  0  0
    6.0630  -13.4978   25.8806 C   0  0  0  0  0  0  0  0  0  0  0  0
    6.0116  -14.2773   24.7633 C   0  0  0  0  0  0  0  0  0  0  0  0
    6.8651  -13.9695   23.7100 C   0  0  0  0  0  0  0  0  0  0  0  0
    7.7681  -17.5439   22.9239 C   0  0  0  0  0  0  0  0  0  0  0  0
    6.9371  -18.1654   23.6282 O   0  0  0  0  0  0  0  0  0  0  0  0
   11.4370  -19.0134   23.5420 O   0  0  0  0  0  0  0  0  0  0  0  0
   10.3703  -19.3284   24.3517 C   0  0  0  0  0  0  0  0  0  0  0  0
    9.4706  -18.1532   24.6660 C   0  0  2  0  0  0  0  0  0  0  0  0
    9.1131  -17.5363   23.3885 N   0  0  0  0  0  0  0  0  0  0  0  0
   10.2574  -17.2056   25.5031 C   0  0  0  0  0  0  0  0  0  0  0  0
   11.1162  -16.4918   24.9278 O   0  0  0  0  0  0  0  0  0  0  0  0
    9.0554  -13.1210   28.3615 C   0  0  0  0  0  0  0  0  0  0  0  0
    9.8036  -14.1783   27.5806 C   0  0  0  0  0  0  0  0  0  0  0  0
   10.2960  -15.2528   28.5466 C   0  0  2  0  0  0  0  0  0  0  0  0
   11.3311  -14.5995   29.4367 C   0  0  0  0  0  0  0  0  0  0  0  0
   11.0066  -16.3295   27.7491 C   0  0  2  0  0  0  0  0  0  0  0  0
   10.0967  -17.0609   26.8997 N   0  0  0  0  0  0  0  0  0  0  0  0
   11.6117  -17.2708   28.7123 C   0  0  0  0  0  0  0  0  0  0  0  0
   10.9294  -18.1815   29.2277 O   0  0  0  0  0  0  0  0  0  0  0  0
   12.9500  -17.1239   29.0326 O   0  0  0  0  0  0  0  0  0  0  0  0
  2  1  1  6
  2 13  1  0
  3  2  1  0
  4  3  1  0
  4 12  1  0
  5  6  1  0
  5  4  2  0
  6  7  1  0
  7  8  1  0
  7 12  2  0
  8  9  2  0
  9 10  1  0
 11 10  2  0
 12 11  1  0
 13 14  2  0
 15 16  1  0
 17 16  1  6
 18 13  1  0
 18 17  1  0
 19 17  1  0
 19 20  2  0
 21 22  1  0
 23 22  1  0
 23 25  1  0
 23 24  1  1
 25 26  1  6
 26 19  1  0
 27 25  1  0
 28 27  2  0
 29 27  1  0
M  END
$$$$
