WSI.pdb
     RDKit          3D

 29 30  0  0  1  0  0  0  0  0999 V2000
    5.5493  -19.4046   20.5083 N   0  0  0  0  0  0  0  0  0  0  0  0
    6.5544  -18.3368   20.7463 C   0  0  1  0  0  0  0  0  0  0  0  0
    6.1284  -17.2129   19.8736 C   0  0  0  0  0  0  0  0  0  0  0  0
    7.1064  -16.1339   19.7520 C   0  0  0  0  0  0  0  0  0  0  0  0
    8.2397  -16.2424   18.9519 C   0  0  0  0  0  0  0  0  0  0  0  0
    8.9416  -15.1264   19.0664 N   0  0  0  0  0  0  0  0  0  0  0  0
    8.3365  -14.2683   19.9053 C   0  0  0  0  0  0  0  0  0  0  0  0
    8.6522  -12.9901   20.3410 C   0  0  0  0  0  0  0  0  0  0  0  0
    7.8019  -12.3507   21.2111 C   0  0  0  0  0  0  0  0  0  0  0  0
    6.6614  -12.9882   21.6300 C   0  0  0  0  0  0  0  0  0  0  0  0
    6.3239  -14.2439   21.2204 C   0  0  0  0  0  0  0  0  0  0  0  0
    7.1788  -14.8980   20.3406 C   0  0  0  0  0  0  0  0  0  0  0  0
    6.5387  -18.1080   22.1956 C   0  0  0  0  0  0  0  0  0  0  0  0
    5.4334  -18.0451   22.7847 O   0  0  0  0  0  0  0  0  0  0  0  0
    9.4556  -19.2291   24.7571 O   0  0  0  0  0  0  0  0  0  0  0  0
    8.1632  -18.9407   25.1304 C   0  0  0  0  0  0  0  0  0  0  0  0
    7.5843  -17.7220   24.4457 C   0  0  2  0  0  0  0  0  0  0  0  0
    7.6984  -17.9480   23.0047 N   0  0  0  0  0  0  0  0  0  0  0  0
    8.4062  -16.5507   24.8586 C   0  0  0  0  0  0  0  0  0  0  0  0
    9.3916  -16.2461   24.1415 O   0  0  0  0  0  0  0  0  0  0  0  0
    6.1861  -12.1651   27.0538 C   0  0  0  0  0  0  0  0  0  0  0  0
    7.1121  -13.0592   26.2597 C   0  0  0  0  0  0  0  0  0  0  0  0
    8.1827  -13.6184   27.1931 C   0  0  2  0  0  0  0  0  0  0  0  0
    9.1295  -12.4794   27.5045 C   0  0  0  0  0  0  0  0  0  0  0  0
    8.9776  -14.6686   26.4412 C   0  0  2  0  0  0  0  0  0  0  0  0
    8.1454  -15.7641   26.0034 N   0  0  0  0  0  0  0  0  0  0  0  0
   10.0036  -15.1953   27.3631 C   0  0  0  0  0  0  0  0  0  0  0  0
    9.7945  -16.2363   28.0213 O   0  0  0  0  0  0  0  0  0  0  0  0
   11.2013  -14.5126   27.4832 O   0  0  0  0  0  0  0  0  0  0  0  0
  2  1  1  1
  2 13  1  0
  3  2  1  0
  4  3  1  0
  4 12  1  0
  5  6  1  0
  5  4  2  0
  6  7  1  0
  7  8  1  0
  7 12  2  0
  8  9  2  0
  9 10  1  0
 11 10  2  0
 12 11  1  0
 13 14  2  0
 15 16  1  0
 17 16  1  1
 18 13  1  0
 18 17  1  0
 19 17  1  0
 19 20  2  0
 21 22  1  0
 23 22  1  0
 23 25  1  0
 23 24  1  6
 25 26  1  1
 26 19  1  0
 27 25  1  0
 28 27  2  0
 29 27  1  0
M  END
$$$$
