WSI.pdb
     RDKit          3D

 29 30  0  0  1  0  0  0  0  0999 V2000
    9.9613  -16.2575   21.6462 N   0  0  0  0  0  0  0  0  0  0  0  0
    9.5943  -15.3951   22.7988 C   0  0  1  0  0  0  0  0  0  0  0  0
    8.1350  -15.6041   22.9799 C   0  0  0  0  0  0  0  0  0  0  0  0
    7.4242  -14.4623   23.5514 C   0  0  0  0  0  0  0  0  0  0  0  0
    6.6214  -13.6243   22.7835 C   0  0  0  0  0  0  0  0  0  0  0  0
    6.1380  -12.6738   23.5672 N   0  0  0  0  0  0  0  0  0  0  0  0
    6.5751  -12.8296   24.8284 C   0  0  0  0  0  0  0  0  0  0  0  0
    6.3525  -12.1231   26.0008 C   0  0  0  0  0  0  0  0  0  0  0  0
    6.9454  -12.5528   27.1638 C   0  0  0  0  0  0  0  0  0  0  0  0
    7.7434  -13.6687   27.1415 C   0  0  0  0  0  0  0  0  0  0  0  0
    7.9819  -14.3839   26.0057 C   0  0  0  0  0  0  0  0  0  0  0  0
    7.3863  -13.9558   24.8247 C   0  0  0  0  0  0  0  0  0  0  0  0
   10.4765  -15.8168   23.8928 C   0  0  0  0  0  0  0  0  0  0  0  0
   11.2813  -16.7572   23.6907 O   0  0  0  0  0  0  0  0  0  0  0  0
   10.0915  -14.7211   27.9816 O   0  0  0  0  0  0  0  0  0  0  0  0
   11.3284  -14.7501   27.3798 C   0  0  0  0  0  0  0  0  0  0  0  0
   11.4223  -15.7130   26.2166 C   0  0  2  0  0  0  0  0  0  0  0  0
   10.4945  -15.2349   25.1913 N   0  0  0  0  0  0  0  0  0  0  0  0
   11.0051  -17.0523   26.7166 C   0  0  0  0  0  0  0  0  0  0  0  0
    9.7891  -17.3557   26.6307 O   0  0  0  0  0  0  0  0  0  0  0  0
   14.9893  -20.4568   28.6951 C   0  0  0  0  0  0  0  0  0  0  0  0
   13.8433  -19.4918   28.4876 C   0  0  0  0  0  0  0  0  0  0  0  0
   12.6606  -20.2481   27.8879 C   0  0  2  0  0  0  0  0  0  0  0  0
   13.0594  -20.6389   26.4813 C   0  0  0  0  0  0  0  0  0  0  0  0
   11.4870  -19.2944   27.7722 C   0  0  2  0  0  0  0  0  0  0  0  0
   11.8909  -17.9990   27.2792 N   0  0  0  0  0  0  0  0  0  0  0  0
   10.9142  -19.1271   29.1227 C   0  0  0  0  0  0  0  0  0  0  0  0
   10.9618  -18.0215   29.7024 O   0  0  0  0  0  0  0  0  0  0  0  0
   10.3238  -20.2196   29.7333 O   0  0  0  0  0  0  0  0  0  0  0  0
  2  1  1  6
  2 13  1  0
  3  2  1  0
  4  3  1  0
  4 12  1  0
  5  6  1  0
  5  4  2  0
  6  7  1  0
  7  8  1  0
  7 12  2  0
  8  9  2  0
  9 10  1  0
 11 10  2  0
 12 11  1  0
 13 14  2  0
 15 16  1  0
 17 16  1  1
 18 13  1  0
 18 17  1  0
 19 17  1  0
 19 20  2  0
 21 22  1  0
 23 22  1  0
 23 25  1  0
 23 24  1  6
 25 26  1  1
 26 19  1  0
 27 25  1  0
 28 27  2  0
 29 27  1  0
M  END
$$$$
