SWQ.pdb
     RDKit          3D

 30 31  0  0  1  0  0  0  0  0999 V2000
   18.7262  -14.1149  -19.7035 O   0  0  0  0  0  0  0  0  0  0  0  0
   18.5948  -13.0131  -18.8472 C   0  0  0  0  0  0  0  0  0  0  0  0
   19.4395  -13.3275  -17.6155 C   0  0  2  0  0  0  0  0  0  0  0  0
   19.0834  -14.6044  -17.0800 N   0  0  0  0  0  0  0  0  0  0  0  0
   19.2992  -12.2216  -16.6057 C   0  0  0  0  0  0  0  0  0  0  0  0
   18.3573  -12.2064  -15.7813 O   0  0  0  0  0  0  0  0  0  0  0  0
   20.2577  -11.1866  -16.6007 N   0  0  0  0  0  0  0  0  0  0  0  0
   20.1500   -9.9879  -15.8118 C   0  0  1  0  0  0  0  0  0  0  0  0
   21.5604   -9.6702  -15.2955 C   0  0  0  0  0  0  0  0  0  0  0  0
   21.6183   -8.3941  -14.5752 C   0  0  0  0  0  0  0  0  0  0  0  0
   20.9299   -8.0237  -13.4400 C   0  0  0  0  0  0  0  0  0  0  0  0
   21.2703   -6.7613  -13.0992 N   0  0  0  0  0  0  0  0  0  0  0  0
   22.1689   -6.2841  -13.9815 C   0  0  0  0  0  0  0  0  0  0  0  0
   22.8276   -5.0797  -14.0946 C   0  0  0  0  0  0  0  0  0  0  0  0
   23.7270   -4.8253  -15.1168 C   0  0  0  0  0  0  0  0  0  0  0  0
   23.9469   -5.8248  -16.0293 C   0  0  0  0  0  0  0  0  0  0  0  0
   23.2870   -7.0406  -15.9217 C   0  0  0  0  0  0  0  0  0  0  0  0
   22.3898   -7.3002  -14.9056 C   0  0  0  0  0  0  0  0  0  0  0  0
   19.7882   -8.8605  -16.7040 C   0  0  0  0  0  0  0  0  0  0  0  0
   20.3379   -8.8253  -17.8428 O   0  0  0  0  0  0  0  0  0  0  0  0
   14.8975   -8.0370  -17.1031 N   0  0  0  0  0  0  0  0  0  0  0  0
   15.5491   -8.2753  -18.3171 C   0  0  0  0  0  0  0  0  0  0  0  0
   15.1031   -9.1160  -19.1270 O   0  0  0  0  0  0  0  0  0  0  0  0
   16.8008   -7.5409  -18.7004 C   0  0  0  0  0  0  0  0  0  0  0  0
   17.2262   -6.6012  -17.6278 C   0  0  0  0  0  0  0  0  0  0  0  0
   18.6671   -6.7412  -17.2841 C   0  0  2  0  0  0  0  0  0  0  0  0
   18.8740   -7.8483  -16.3374 N   0  0  0  0  0  0  0  0  0  0  0  0
   19.1953   -5.5034  -16.6719 C   0  0  0  0  0  0  0  0  0  0  0  0
   19.4039   -4.4282  -17.2721 O   0  0  0  0  0  0  0  0  0  0  0  0
   19.5106   -5.4700  -15.2932 O   0  0  0  0  0  0  0  0  0  0  0  0
  2  1  1  0
  3  2  1  0
  3  4  1  1
  5  3  1  0
  5  6  2  0
  7  5  1  0
  8  7  1  0
  9 10  1  0
  8  9  1  6
 10 18  1  0
 11 10  2  0
 11 12  1  0
 12 13  1  0
 13 14  1  0
 14 15  2  0
 16 15  1  0
 17 16  2  0
 18 13  2  0
 18 17  1  0
 19  8  1  0
 19 27  1  0
 20 19  2  0
 21 22  1  0
 22 23  2  0
 22 24  1  0
 24 25  1  0
 26 25  1  1
 26 27  1  0
 26 28  1  0
 28 29  2  0
 28 30  1  0
M  END
$$$$
