SWQ.pdb
     RDKit          3D

 30 31  0  0  1  0  0  0  0  0999 V2000
   29.9105  -31.0692  -16.0141 O   0  0  0  0  0  0  0  0  0  0  0  0
   29.9336  -30.6828  -17.3612 C   0  0  0  0  0  0  0  0  0  0  0  0
   28.4815  -30.4293  -17.7567 C   0  0  2  0  0  0  0  0  0  0  0  0
   27.9391  -29.3482  -16.9947 N   0  0  0  0  0  0  0  0  0  0  0  0
   27.6839  -31.6956  -17.6058 C   0  0  0  0  0  0  0  0  0  0  0  0
   26.7207  -31.7691  -16.8096 O   0  0  0  0  0  0  0  0  0  0  0  0
   28.0416  -32.8156  -18.3853 N   0  0  0  0  0  0  0  0  0  0  0  0
   27.3757  -34.0899  -18.3242 C   0  0  1  0  0  0  0  0  0  0  0  0
   27.9040  -34.9217  -19.5014 C   0  0  0  0  0  0  0  0  0  0  0  0
   27.2252  -36.2161  -19.6210 C   0  0  0  0  0  0  0  0  0  0  0  0
   25.8711  -36.4728  -19.6127 C   0  0  0  0  0  0  0  0  0  0  0  0
   25.6641  -37.8012  -19.7483 N   0  0  0  0  0  0  0  0  0  0  0  0
   26.8493  -38.4333  -19.8466 C   0  0  0  0  0  0  0  0  0  0  0  0
   27.1996  -39.7569  -19.9967 C   0  0  0  0  0  0  0  0  0  0  0  0
   28.5209  -40.1647  -20.0749 C   0  0  0  0  0  0  0  0  0  0  0  0
   29.4877  -39.1956  -19.9973 C   0  0  0  0  0  0  0  0  0  0  0  0
   29.1425  -37.8603  -19.8462 C   0  0  0  0  0  0  0  0  0  0  0  0
   27.8278  -37.4476  -19.7677 C   0  0  0  0  0  0  0  0  0  0  0  0
   27.8192  -34.8018  -17.1016 C   0  0  0  0  0  0  0  0  0  0  0  0
   29.0053  -34.5976  -16.7121 O   0  0  0  0  0  0  0  0  0  0  0  0
   27.5348  -32.3784  -13.8135 N   0  0  0  0  0  0  0  0  0  0  0  0
   26.6649  -33.2293  -13.1249 C   0  0  0  0  0  0  0  0  0  0  0  0
   25.8339  -32.7711  -12.3118 O   0  0  0  0  0  0  0  0  0  0  0  0
   26.6880  -34.7164  -13.3273 C   0  0  0  0  0  0  0  0  0  0  0  0
   27.8482  -35.1305  -14.1621 C   0  0  0  0  0  0  0  0  0  0  0  0
   27.5076  -36.2248  -15.1110 C   0  0  2  0  0  0  0  0  0  0  0  0
   26.9854  -35.6788  -16.3735 N   0  0  0  0  0  0  0  0  0  0  0  0
   26.4878  -37.1309  -14.5412 C   0  0  0  0  0  0  0  0  0  0  0  0
   26.5960  -37.7638  -13.4699 O   0  0  0  0  0  0  0  0  0  0  0  0
   25.2642  -37.3412  -15.2193 O   0  0  0  0  0  0  0  0  0  0  0  0
  2  1  1  0
  3  2  1  0
  3  4  1  1
  5  3  1  0
  5  6  2  0
  7  5  1  0
  8  7  1  0
  9 10  1  0
  8  9  1  6
 10 18  1  0
 11 10  2  0
 11 12  1  0
 12 13  1  0
 13 14  1  0
 14 15  2  0
 16 15  1  0
 17 16  2  0
 18 13  2  0
 18 17  1  0
 19  8  1  0
 19 27  1  0
 20 19  2  0
 21 22  1  0
 22 23  2  0
 22 24  1  0
 24 25  1  0
 26 25  1  1
 26 27  1  0
 26 28  1  0
 28 29  2  0
 28 30  1  0
M  END
$$$$
