SWQ.pdb
     RDKit          3D

 30 31  0  0  1  0  0  0  0  0999 V2000
   27.9277  -21.1989  -19.5897 O   0  0  0  0  0  0  0  0  0  0  0  0
   27.1907  -21.7783  -18.5479 C   0  0  0  0  0  0  0  0  0  0  0  0
   28.2103  -22.2408  -17.5106 C   0  0  2  0  0  0  0  0  0  0  0  0
   28.8507  -23.4435  -17.9433 N   0  0  0  0  0  0  0  0  0  0  0  0
   27.5413  -22.3954  -16.1724 C   0  0  0  0  0  0  0  0  0  0  0  0
   27.2086  -23.5204  -15.7353 O   0  0  0  0  0  0  0  0  0  0  0  0
   27.2900  -21.2384  -15.4056 N   0  0  0  0  0  0  0  0  0  0  0  0
   26.7291  -21.2520  -14.0804 C   0  0  1  0  0  0  0  0  0  0  0  0
   27.3223  -20.0470  -13.3368 C   0  0  0  0  0  0  0  0  0  0  0  0
   27.7927  -20.3955  -11.9922 C   0  0  0  0  0  0  0  0  0  0  0  0
   29.0585  -20.7788  -11.6044 C   0  0  0  0  0  0  0  0  0  0  0  0
   29.0706  -21.0102  -10.2732 N   0  0  0  0  0  0  0  0  0  0  0  0
   27.8421  -20.7896   -9.7673 C   0  0  0  0  0  0  0  0  0  0  0  0
   27.3190  -20.8766   -8.4960 C   0  0  0  0  0  0  0  0  0  0  0  0
   25.9912  -20.5906   -8.2249 C   0  0  0  0  0  0  0  0  0  0  0  0
   25.1980  -20.2116   -9.2771 C   0  0  0  0  0  0  0  0  0  0  0  0
   25.7179  -20.1217  -10.5604 C   0  0  0  0  0  0  0  0  0  0  0  0
   27.0400  -20.4053  -10.8370 C   0  0  0  0  0  0  0  0  0  0  0  0
   25.2738  -20.9853  -14.1756 C   0  0  0  0  0  0  0  0  0  0  0  0
   24.8968  -20.1360  -15.0339 O   0  0  0  0  0  0  0  0  0  0  0  0
   19.4713  -23.1893  -13.9159 N   0  0  0  0  0  0  0  0  0  0  0  0
   19.6073  -22.3822  -12.7823 C   0  0  0  0  0  0  0  0  0  0  0  0
   18.6004  -21.9604  -12.1741 O   0  0  0  0  0  0  0  0  0  0  0  0
   20.9538  -21.9887  -12.2484 C   0  0  0  0  0  0  0  0  0  0  0  0
   22.0494  -22.4904  -13.1216 C   0  0  0  0  0  0  0  0  0  0  0  0
   22.8954  -21.3933  -13.6641 C   0  0  2  0  0  0  0  0  0  0  0  0
   24.3158  -21.6297  -13.3621 N   0  0  0  0  0  0  0  0  0  0  0  0
   22.5113  -20.0859  -13.0904 C   0  0  0  0  0  0  0  0  0  0  0  0
   21.7268  -19.2661  -13.6123 O   0  0  0  0  0  0  0  0  0  0  0  0
   23.0434  -19.6705  -11.8472 O   0  0  0  0  0  0  0  0  0  0  0  0
  2  1  1  0
  3  2  1  0
  3  4  1  6
  5  3  1  0
  5  6  2  0
  7  5  1  0
  8  7  1  0
  9 10  1  0
  8  9  1  1
 10 18  1  0
 11 10  2  0
 11 12  1  0
 12 13  1  0
 13 14  1  0
 14 15  2  0
 16 15  1  0
 17 16  2  0
 18 13  2  0
 18 17  1  0
 19  8  1  0
 19 27  1  0
 20 19  2  0
 21 22  1  0
 22 23  2  0
 22 24  1  0
 24 25  1  0
 26 25  1  1
 26 27  1  0
 26 28  1  0
 28 29  2  0
 28 30  1  0
M  END
$$$$
