SWQ.pdb
     RDKit          3D

 30 31  0  0  1  0  0  0  0  0999 V2000
   25.8573  -19.1693  -17.5684 O   0  0  0  0  0  0  0  0  0  0  0  0
   27.0304  -18.6730  -16.9838 C   0  0  0  0  0  0  0  0  0  0  0  0
   27.8231  -19.8913  -16.5185 C   0  0  2  0  0  0  0  0  0  0  0  0
   28.1232  -20.7433  -17.6266 N   0  0  0  0  0  0  0  0  0  0  0  0
   27.0674  -20.6063  -15.4321 C   0  0  0  0  0  0  0  0  0  0  0  0
   26.4278  -21.6569  -15.6650 O   0  0  0  0  0  0  0  0  0  0  0  0
   27.0896  -20.0685  -14.1282 N   0  0  0  0  0  0  0  0  0  0  0  0
   26.4765  -20.6921  -12.9853 C   0  0  1  0  0  0  0  0  0  0  0  0
   27.0018  -19.9556  -11.7450 C   0  0  0  0  0  0  0  0  0  0  0  0
   26.6092  -20.6143  -10.4950 C   0  0  0  0  0  0  0  0  0  0  0  0
   26.1264  -21.8934  -10.3203 C   0  0  0  0  0  0  0  0  0  0  0  0
   25.8861  -22.1084   -9.0081 N   0  0  0  0  0  0  0  0  0  0  0  0
   26.1980  -21.0018   -8.3067 C   0  0  0  0  0  0  0  0  0  0  0  0
   26.1435  -20.6920   -6.9656 C   0  0  0  0  0  0  0  0  0  0  0  0
   26.5297  -19.4540   -6.4796 C   0  0  0  0  0  0  0  0  0  0  0  0
   26.9759  -18.5288   -7.3878 C   0  0  0  0  0  0  0  0  0  0  0  0
   27.0337  -18.8337   -8.7402 C   0  0  0  0  0  0  0  0  0  0  0  0
   26.6503  -20.0655   -9.2308 C   0  0  0  0  0  0  0  0  0  0  0  0
   25.0187  -20.4245  -13.0207 C   0  0  0  0  0  0  0  0  0  0  0  0
   24.6422  -19.3450  -13.5619 O   0  0  0  0  0  0  0  0  0  0  0  0
   19.4927  -24.0672  -13.7024 N   0  0  0  0  0  0  0  0  0  0  0  0
   19.7606  -22.8282  -14.2923 C   0  0  0  0  0  0  0  0  0  0  0  0
   19.4186  -22.5950  -15.4714 O   0  0  0  0  0  0  0  0  0  0  0  0
   20.4636  -21.7321  -13.5457 C   0  0  0  0  0  0  0  0  0  0  0  0
   21.9181  -22.0162  -13.4113 C   0  0  0  0  0  0  0  0  0  0  0  0
   22.6389  -20.9589  -12.6520 C   0  0  2  0  0  0  0  0  0  0  0  0
   24.0578  -21.3102  -12.4847 N   0  0  0  0  0  0  0  0  0  0  0  0
   22.0485  -20.7650  -11.3104 C   0  0  0  0  0  0  0  0  0  0  0  0
   22.5215  -21.1992  -10.2392 O   0  0  0  0  0  0  0  0  0  0  0  0
   20.8462  -20.0346  -11.1610 O   0  0  0  0  0  0  0  0  0  0  0  0
  2  1  1  0
  3  2  1  0
  3  4  1  6
  5  3  1  0
  5  6  2  0
  7  5  1  0
  8  7  1  0
  9 10  1  0
  8  9  1  1
 10 18  1  0
 11 10  2  0
 11 12  1  0
 12 13  1  0
 13 14  1  0
 14 15  2  0
 16 15  1  0
 17 16  2  0
 18 13  2  0
 18 17  1  0
 19  8  1  0
 19 27  1  0
 20 19  2  0
 21 22  1  0
 22 23  2  0
 22 24  1  0
 24 25  1  0
 26 25  1  1
 26 27  1  0
 26 28  1  0
 28 29  2  0
 28 30  1  0
M  END
$$$$
