SWQ.pdb
     RDKit          3D

 30 31  0  0  1  0  0  0  0  0999 V2000
   25.7199  -22.5161  -18.7949 O   0  0  0  0  0  0  0  0  0  0  0  0
   26.7164  -21.6925  -18.2534 C   0  0  0  0  0  0  0  0  0  0  0  0
   27.5092  -22.5642  -17.2835 C   0  0  2  0  0  0  0  0  0  0  0  0
   27.7518  -23.8519  -17.8553 N   0  0  0  0  0  0  0  0  0  0  0  0
   26.7876  -22.6470  -15.9664 C   0  0  0  0  0  0  0  0  0  0  0  0
   26.4322  -23.7467  -15.4851 O   0  0  0  0  0  0  0  0  0  0  0  0
   26.5128  -21.4510  -15.2709 N   0  0  0  0  0  0  0  0  0  0  0  0
   25.9034  -21.3941  -13.9684 C   0  0  1  0  0  0  0  0  0  0  0  0
   26.4415  -20.1300  -13.2834 C   0  0  0  0  0  0  0  0  0  0  0  0
   27.0057  -20.4086  -11.9587 C   0  0  0  0  0  0  0  0  0  0  0  0
   28.3024  -20.7484  -11.6384 C   0  0  0  0  0  0  0  0  0  0  0  0
   28.4057  -20.9200  -10.3021 N   0  0  0  0  0  0  0  0  0  0  0  0
   27.2075  -20.7021   -9.7268 C   0  0  0  0  0  0  0  0  0  0  0  0
   26.7697  -20.7430   -8.4215 C   0  0  0  0  0  0  0  0  0  0  0  0
   25.4559  -20.4723   -8.0766 C   0  0  0  0  0  0  0  0  0  0  0  0
   24.5879  -20.1568   -9.0900 C   0  0  0  0  0  0  0  0  0  0  0  0
   25.0217  -20.1136  -10.4073 C   0  0  0  0  0  0  0  0  0  0  0  0
   26.3295  -20.3822  -10.7574 C   0  0  0  0  0  0  0  0  0  0  0  0
   24.4471  -21.1699  -14.1325 C   0  0  0  0  0  0  0  0  0  0  0  0
   24.0822  -20.4052  -15.0718 O   0  0  0  0  0  0  0  0  0  0  0  0
   19.6341  -24.9474  -12.8792 N   0  0  0  0  0  0  0  0  0  0  0  0
   19.0157  -23.7778  -13.3316 C   0  0  0  0  0  0  0  0  0  0  0  0
   17.7901  -23.7565  -13.5749 O   0  0  0  0  0  0  0  0  0  0  0  0
   19.7859  -22.5070  -13.5439 C   0  0  0  0  0  0  0  0  0  0  0  0
   21.2191  -22.6765  -13.1812 C   0  0  0  0  0  0  0  0  0  0  0  0
   22.0602  -21.5329  -13.6267 C   0  0  2  0  0  0  0  0  0  0  0  0
   23.4754  -21.7650  -13.2979 N   0  0  0  0  0  0  0  0  0  0  0  0
   21.6358  -20.2718  -12.9822 C   0  0  0  0  0  0  0  0  0  0  0  0
   22.2095  -19.7189  -12.0204 O   0  0  0  0  0  0  0  0  0  0  0  0
   20.4904  -19.5848  -13.4484 O   0  0  0  0  0  0  0  0  0  0  0  0
  2  1  1  0
  3  2  1  0
  3  4  1  6
  5  3  1  0
  5  6  2  0
  7  5  1  0
  8  7  1  0
  9 10  1  0
  8  9  1  1
 10 18  1  0
 11 10  2  0
 11 12  1  0
 12 13  1  0
 13 14  1  0
 14 15  2  0
 16 15  1  0
 17 16  2  0
 18 13  2  0
 18 17  1  0
 19  8  1  0
 19 27  1  0
 20 19  2  0
 21 22  1  0
 22 23  2  0
 22 24  1  0
 24 25  1  0
 26 25  1  1
 26 27  1  0
 26 28  1  0
 28 29  2  0
 28 30  1  0
M  END
$$$$
