SWQ.pdb
     RDKit          3D

 30 31  0  0  1  0  0  0  0  0999 V2000
   27.1841  -20.6515  -17.6934 O   0  0  0  0  0  0  0  0  0  0  0  0
   28.1227  -20.3879  -16.6864 C   0  0  0  0  0  0  0  0  0  0  0  0
   28.3820  -21.7191  -15.9864 C   0  0  2  0  0  0  0  0  0  0  0  0
   28.3119  -22.7966  -16.9234 N   0  0  0  0  0  0  0  0  0  0  0  0
   27.4204  -21.8889  -14.8424 C   0  0  0  0  0  0  0  0  0  0  0  0
   26.3576  -22.5372  -14.9742 O   0  0  0  0  0  0  0  0  0  0  0  0
   27.7372  -21.2988  -13.6009 N   0  0  0  0  0  0  0  0  0  0  0  0
   26.9042  -21.3802  -12.4303 C   0  0  1  0  0  0  0  0  0  0  0  0
   27.6895  -20.7295  -11.2828 C   0  0  0  0  0  0  0  0  0  0  0  0
   26.9225  -20.6870  -10.0336 C   0  0  0  0  0  0  0  0  0  0  0  0
   25.5727  -20.8996   -9.8541 C   0  0  0  0  0  0  0  0  0  0  0  0
   25.2665  -20.7673   -8.5446 N   0  0  0  0  0  0  0  0  0  0  0  0
   26.3816  -20.4716   -7.8498 C   0  0  0  0  0  0  0  0  0  0  0  0
   26.6232  -20.2390   -6.5138 C   0  0  0  0  0  0  0  0  0  0  0  0
   27.8894  -19.9474   -6.0342 C   0  0  0  0  0  0  0  0  0  0  0  0
   28.9141  -19.8961   -6.9438 C   0  0  0  0  0  0  0  0  0  0  0  0
   28.6784  -20.1293   -8.2912 C   0  0  0  0  0  0  0  0  0  0  0  0
   27.4190  -20.4203   -8.7752 C   0  0  0  0  0  0  0  0  0  0  0  0
   25.7111  -20.5237  -12.6334 C   0  0  0  0  0  0  0  0  0  0  0  0
   25.8643  -19.4727  -13.3203 O   0  0  0  0  0  0  0  0  0  0  0  0
   22.5796  -18.8034  -16.9158 N   0  0  0  0  0  0  0  0  0  0  0  0
   22.2358  -18.9226  -15.5658 C   0  0  0  0  0  0  0  0  0  0  0  0
   22.1088  -17.9081  -14.8472 O   0  0  0  0  0  0  0  0  0  0  0  0
   22.0058  -20.2595  -14.9232 C   0  0  0  0  0  0  0  0  0  0  0  0
   23.2221  -20.7320  -14.2079 C   0  0  0  0  0  0  0  0  0  0  0  0
   23.2610  -20.2841  -12.7896 C   0  0  2  0  0  0  0  0  0  0  0  0
   24.4399  -20.8315  -12.1002 N   0  0  0  0  0  0  0  0  0  0  0  0
   22.0527  -20.7184  -12.0566 C   0  0  0  0  0  0  0  0  0  0  0  0
   21.9589  -21.7486  -11.3568 O   0  0  0  0  0  0  0  0  0  0  0  0
   20.8699  -19.9444  -12.1127 O   0  0  0  0  0  0  0  0  0  0  0  0
  2  1  1  0
  3  2  1  0
  3  4  1  6
  5  3  1  0
  5  6  2  0
  7  5  1  0
  8  7  1  0
  9 10  1  0
  8  9  1  1
 10 18  1  0
 11 10  2  0
 11 12  1  0
 12 13  1  0
 13 14  1  0
 14 15  2  0
 16 15  1  0
 17 16  2  0
 18 13  2  0
 18 17  1  0
 19  8  1  0
 19 27  1  0
 20 19  2  0
 21 22  1  0
 22 23  2  0
 22 24  1  0
 24 25  1  0
 26 25  1  6
 26 27  1  0
 26 28  1  0
 28 29  2  0
 28 30  1  0
M  END
$$$$
