SWQ.pdb
     RDKit          3D

 30 31  0  0  1  0  0  0  0  0999 V2000
   28.8879  -20.3295  -13.6744 O   0  0  0  0  0  0  0  0  0  0  0  0
   29.5168  -19.3677  -12.8720 C   0  0  0  0  0  0  0  0  0  0  0  0
   29.9521  -20.0918  -11.6010 C   0  0  2  0  0  0  0  0  0  0  0  0
   31.0807  -20.9285  -11.8661 N   0  0  0  0  0  0  0  0  0  0  0  0
   28.7913  -20.8574  -11.0278 C   0  0  0  0  0  0  0  0  0  0  0  0
   28.8420  -22.0983  -10.8702 O   0  0  0  0  0  0  0  0  0  0  0  0
   27.6275  -20.1475  -10.6651 N   0  0  0  0  0  0  0  0  0  0  0  0
   26.4868  -20.7402  -10.0183 C   0  0  1  0  0  0  0  0  0  0  0  0
   25.9017  -19.6701   -9.0860 C   0  0  0  0  0  0  0  0  0  0  0  0
   26.7931  -19.3573   -7.9643 C   0  0  0  0  0  0  0  0  0  0  0  0
   27.5686  -18.2330   -7.7792 C   0  0  0  0  0  0  0  0  0  0  0  0
   28.2430  -18.3386   -6.6130 N   0  0  0  0  0  0  0  0  0  0  0  0
   27.9338  -19.5070   -6.0189 C   0  0  0  0  0  0  0  0  0  0  0  0
   28.3325  -20.0969   -4.8398 C   0  0  0  0  0  0  0  0  0  0  0  0
   27.8597  -21.3355   -4.4393 C   0  0  0  0  0  0  0  0  0  0  0  0
   26.9672  -21.9692   -5.2650 C   0  0  0  0  0  0  0  0  0  0  0  0
   26.5609  -21.3812   -6.4543 C   0  0  0  0  0  0  0  0  0  0  0  0
   27.0284  -20.1472   -6.8589 C   0  0  0  0  0  0  0  0  0  0  0  0
   25.4407  -20.9969  -11.0372 C   0  0  0  0  0  0  0  0  0  0  0  0
   25.2914  -20.1277  -11.9440 O   0  0  0  0  0  0  0  0  0  0  0  0
   21.9559  -25.3713  -14.1316 N   0  0  0  0  0  0  0  0  0  0  0  0
   23.2049  -24.9701  -14.6153 C   0  0  0  0  0  0  0  0  0  0  0  0
   23.5672  -25.2685  -15.7734 O   0  0  0  0  0  0  0  0  0  0  0  0
   24.1588  -24.1711  -13.7758 C   0  0  0  0  0  0  0  0  0  0  0  0
   23.5448  -23.7887  -12.4754 C   0  0  0  0  0  0  0  0  0  0  0  0
   23.7103  -22.3421  -12.1689 C   0  0  2  0  0  0  0  0  0  0  0  0
   24.6243  -22.1494  -11.0321 N   0  0  0  0  0  0  0  0  0  0  0  0
   22.4150  -21.7132  -11.8335 C   0  0  0  0  0  0  0  0  0  0  0  0
   22.0302  -21.4114  -10.6843 O   0  0  0  0  0  0  0  0  0  0  0  0
   21.4889  -21.4021  -12.8567 O   0  0  0  0  0  0  0  0  0  0  0  0
  2  1  1  0
  3  2  1  0
  3  4  1  6
  5  3  1  0
  5  6  2  0
  7  5  1  0
  8  7  1  0
  9 10  1  0
  8  9  1  1
 10 18  1  0
 11 10  2  0
 11 12  1  0
 12 13  1  0
 13 14  1  0
 14 15  2  0
 16 15  1  0
 17 16  2  0
 18 13  2  0
 18 17  1  0
 19  8  1  0
 19 27  1  0
 20 19  2  0
 21 22  1  0
 22 23  2  0
 22 24  1  0
 24 25  1  0
 26 25  1  1
 26 27  1  0
 26 28  1  0
 28 29  2  0
 28 30  1  0
M  END
$$$$
