SWQ.pdb
     RDKit          3D

 30 31  0  0  1  0  0  0  0  0999 V2000
   24.3729  -22.1978  -16.6556 O   0  0  0  0  0  0  0  0  0  0  0  0
   24.9087  -21.0470  -16.0615 C   0  0  0  0  0  0  0  0  0  0  0  0
   26.1414  -21.5026  -15.2855 C   0  0  2  0  0  0  0  0  0  0  0  0
   26.8443  -22.5116  -16.0147 N   0  0  0  0  0  0  0  0  0  0  0  0
   25.7374  -21.9627  -13.9117 C   0  0  0  0  0  0  0  0  0  0  0  0
   25.7687  -23.1731  -13.5935 O   0  0  0  0  0  0  0  0  0  0  0  0
   25.3164  -20.9974  -12.9732 N   0  0  0  0  0  0  0  0  0  0  0  0
   24.9174  -21.3007  -11.6242 C   0  0  1  0  0  0  0  0  0  0  0  0
   25.4951  -20.1925  -10.7326 C   0  0  0  0  0  0  0  0  0  0  0  0
   26.8343  -20.5185  -10.2317 C   0  0  0  0  0  0  0  0  0  0  0  0
   27.8594  -21.1595  -10.8934 C   0  0  0  0  0  0  0  0  0  0  0  0
   28.9288  -21.2627  -10.0739 N   0  0  0  0  0  0  0  0  0  0  0  0
   28.6381  -20.7052   -8.8829 C   0  0  0  0  0  0  0  0  0  0  0  0
   29.3571  -20.5448   -7.7190 C   0  0  0  0  0  0  0  0  0  0  0  0
   28.8229  -19.9219   -6.6033 C   0  0  0  0  0  0  0  0  0  0  0  0
   27.5346  -19.4611   -6.6920 C   0  0  0  0  0  0  0  0  0  0  0  0
   26.8042  -19.6190   -7.8611 C   0  0  0  0  0  0  0  0  0  0  0  0
   27.3308  -20.2388   -8.9762 C   0  0  0  0  0  0  0  0  0  0  0  0
   23.4443  -21.1684  -11.5213 C   0  0  0  0  0  0  0  0  0  0  0  0
   22.8445  -20.6171  -12.4890 O   0  0  0  0  0  0  0  0  0  0  0  0
   19.5094  -24.1588   -7.4787 N   0  0  0  0  0  0  0  0  0  0  0  0
   18.6760  -23.6364   -8.4725 C   0  0  0  0  0  0  0  0  0  0  0  0
   17.4444  -23.8464   -8.4487 O   0  0  0  0  0  0  0  0  0  0  0  0
   19.2154  -22.8080   -9.6021 C   0  0  0  0  0  0  0  0  0  0  0  0
   20.6694  -22.5416   -9.4310 C   0  0  0  0  0  0  0  0  0  0  0  0
   21.2528  -21.7969  -10.5794 C   0  0  2  0  0  0  0  0  0  0  0  0
   22.7039  -21.6248  -10.4084 N   0  0  0  0  0  0  0  0  0  0  0  0
   20.6406  -20.4582  -10.7173 C   0  0  0  0  0  0  0  0  0  0  0  0
   19.8277  -20.1191  -11.6028 O   0  0  0  0  0  0  0  0  0  0  0  0
   20.9625  -19.4307   -9.7997 O   0  0  0  0  0  0  0  0  0  0  0  0
  2  1  1  0
  3  2  1  0
  3  4  1  6
  5  3  1  0
  5  6  2  0
  7  5  1  0
  8  7  1  0
  9 10  1  0
  8  9  1  1
 10 18  1  0
 11 10  2  0
 11 12  1  0
 12 13  1  0
 13 14  1  0
 14 15  2  0
 16 15  1  0
 17 16  2  0
 18 13  2  0
 18 17  1  0
 19  8  1  0
 19 27  1  0
 20 19  2  0
 21 22  1  0
 22 23  2  0
 22 24  1  0
 24 25  1  0
 26 25  1  1
 26 27  1  0
 26 28  1  0
 28 29  2  0
 28 30  1  0
M  END
$$$$
