SWQ.pdb
     RDKit          3D

 30 31  0  0  1  0  0  0  0  0999 V2000
   27.1135  -18.9779  -14.6843 O   0  0  0  0  0  0  0  0  0  0  0  0
   28.0669  -18.6103  -13.7249 C   0  0  0  0  0  0  0  0  0  0  0  0
   28.6785  -19.9109  -13.2117 C   0  0  2  0  0  0  0  0  0  0  0  0
   29.2103  -20.6738  -14.2976 N   0  0  0  0  0  0  0  0  0  0  0  0
   27.6556  -20.6766  -12.4182 C   0  0  0  0  0  0  0  0  0  0  0  0
   27.1323  -21.7224  -12.8651 O   0  0  0  0  0  0  0  0  0  0  0  0
   27.2887  -20.1929  -11.1449 N   0  0  0  0  0  0  0  0  0  0  0  0
   26.3154  -20.8205  -10.2906 C   0  0  1  0  0  0  0  0  0  0  0  0
   26.4405  -20.1535   -8.9136 C   0  0  0  0  0  0  0  0  0  0  0  0
   27.6319  -20.5977   -8.1829 C   0  0  0  0  0  0  0  0  0  0  0  0
   28.6046  -21.4827   -8.5955 C   0  0  0  0  0  0  0  0  0  0  0  0
   29.5316  -21.6186   -7.6219 N   0  0  0  0  0  0  0  0  0  0  0  0
   29.1975  -20.8444   -6.5717 C   0  0  0  0  0  0  0  0  0  0  0  0
   29.7853  -20.6160   -5.3471 C   0  0  0  0  0  0  0  0  0  0  0  0
   29.2337  -19.7527   -4.4151 C   0  0  0  0  0  0  0  0  0  0  0  0
   28.0647  -19.1204   -4.7524 C   0  0  0  0  0  0  0  0  0  0  0  0
   27.4669  -19.3455   -5.9841 C   0  0  0  0  0  0  0  0  0  0  0  0
   28.0115  -20.2045   -6.9170 C   0  0  0  0  0  0  0  0  0  0  0  0
   24.9588  -20.4757  -10.7793 C   0  0  0  0  0  0  0  0  0  0  0  0
   24.6648  -19.2475  -10.8503 O   0  0  0  0  0  0  0  0  0  0  0  0
   23.1074  -24.5729  -14.8875 N   0  0  0  0  0  0  0  0  0  0  0  0
   21.9734  -24.2859  -14.1216 C   0  0  0  0  0  0  0  0  0  0  0  0
   20.9883  -25.0547  -14.1262 O   0  0  0  0  0  0  0  0  0  0  0  0
   21.8867  -23.0546  -13.2675 C   0  0  0  0  0  0  0  0  0  0  0  0
   23.1659  -22.2945  -13.2832 C   0  0  0  0  0  0  0  0  0  0  0  0
   23.1634  -21.1523  -12.3297 C   0  0  2  0  0  0  0  0  0  0  0  0
   24.0053  -21.4459  -11.1594 N   0  0  0  0  0  0  0  0  0  0  0  0
   21.7959  -20.8540  -11.8534 C   0  0  0  0  0  0  0  0  0  0  0  0
   20.8650  -20.4038  -12.5538 O   0  0  0  0  0  0  0  0  0  0  0  0
   21.4497  -21.0759  -10.4998 O   0  0  0  0  0  0  0  0  0  0  0  0
  2  1  1  0
  3  2  1  0
  3  4  1  6
  5  3  1  0
  5  6  2  0
  7  5  1  0
  8  7  1  0
  9 10  1  0
  8  9  1  1
 10 18  1  0
 11 10  2  0
 11 12  1  0
 12 13  1  0
 13 14  1  0
 14 15  2  0
 16 15  1  0
 17 16  2  0
 18 13  2  0
 18 17  1  0
 19  8  1  0
 19 27  1  0
 20 19  2  0
 21 22  1  0
 22 23  2  0
 22 24  1  0
 24 25  1  0
 26 25  1  6
 26 27  1  0
 26 28  1  0
 28 29  2  0
 28 30  1  0
M  END
$$$$
