SWQ.pdb
     RDKit          3D

 30 31  0  0  1  0  0  0  0  0999 V2000
   26.9161  -19.4182  -15.6107 O   0  0  0  0  0  0  0  0  0  0  0  0
   28.1628  -19.2814  -14.9851 C   0  0  0  0  0  0  0  0  0  0  0  0
   28.5272  -20.6650  -14.4540 C   0  0  2  0  0  0  0  0  0  0  0  0
   28.5573  -21.6161  -15.5210 N   0  0  0  0  0  0  0  0  0  0  0  0
   27.5727  -21.0586  -13.3602 C   0  0  0  0  0  0  0  0  0  0  0  0
   26.7630  -22.0017  -13.5089 O   0  0  0  0  0  0  0  0  0  0  0  0
   27.6029  -20.3397  -12.1470 N   0  0  0  0  0  0  0  0  0  0  0  0
   26.7905  -20.6521  -11.0009 C   0  0  1  0  0  0  0  0  0  0  0  0
   27.1007  -19.5902   -9.9365 C   0  0  0  0  0  0  0  0  0  0  0  0
   26.5737  -19.9508   -8.6163 C   0  0  0  0  0  0  0  0  0  0  0  0
   25.3499  -20.5053   -8.3091 C   0  0  0  0  0  0  0  0  0  0  0  0
   25.2585  -20.6814   -6.9725 N   0  0  0  0  0  0  0  0  0  0  0  0
   26.3932  -20.2569   -6.3843 C   0  0  0  0  0  0  0  0  0  0  0  0
   26.8131  -20.2122   -5.0732 C   0  0  0  0  0  0  0  0  0  0  0  0
   28.0562  -19.7179   -4.7145 C   0  0  0  0  0  0  0  0  0  0  0  0
   28.8717  -19.2663   -5.7199 C   0  0  0  0  0  0  0  0  0  0  0  0
   28.4556  -19.3082   -7.0429 C   0  0  0  0  0  0  0  0  0  0  0  0
   27.2182  -19.7995   -7.4068 C   0  0  0  0  0  0  0  0  0  0  0  0
   25.3653  -20.4545  -11.3583 C   0  0  0  0  0  0  0  0  0  0  0  0
   25.0421  -19.3336  -11.8472 O   0  0  0  0  0  0  0  0  0  0  0  0
   21.6467  -24.5989  -13.8513 N   0  0  0  0  0  0  0  0  0  0  0  0
   22.3010  -23.5837  -14.5559 C   0  0  0  0  0  0  0  0  0  0  0  0
   22.4766  -23.6737  -15.7899 O   0  0  0  0  0  0  0  0  0  0  0  0
   22.8176  -22.3520  -13.8711 C   0  0  0  0  0  0  0  0  0  0  0  0
   22.4934  -22.3646  -12.4188 C   0  0  0  0  0  0  0  0  0  0  0  0
   23.0320  -21.1766  -11.7029 C   0  0  2  0  0  0  0  0  0  0  0  0
   24.3788  -21.4488  -11.1770 N   0  0  0  0  0  0  0  0  0  0  0  0
   22.1617  -20.7923  -10.5711 C   0  0  0  0  0  0  0  0  0  0  0  0
   22.3093  -21.1560   -9.3855 O   0  0  0  0  0  0  0  0  0  0  0  0
   21.0509  -19.9426  -10.7843 O   0  0  0  0  0  0  0  0  0  0  0  0
  2  1  1  0
  3  2  1  0
  3  4  1  6
  5  3  1  0
  5  6  2  0
  7  5  1  0
  8  7  1  0
  9 10  1  0
  8  9  1  1
 10 18  1  0
 11 10  2  0
 11 12  1  0
 12 13  1  0
 13 14  1  0
 14 15  2  0
 16 15  1  0
 17 16  2  0
 18 13  2  0
 18 17  1  0
 19  8  1  0
 19 27  1  0
 20 19  2  0
 21 22  1  0
 22 23  2  0
 22 24  1  0
 24 25  1  0
 26 25  1  1
 26 27  1  0
 26 28  1  0
 28 29  2  0
 28 30  1  0
M  END
$$$$
