SWQ.pdb
     RDKit          3D

 30 31  0  0  1  0  0  0  0  0999 V2000
   27.4713  -20.8844  -19.2278 O   0  0  0  0  0  0  0  0  0  0  0  0
   26.8349  -21.5859  -18.1948 C   0  0  0  0  0  0  0  0  0  0  0  0
   27.9069  -21.8634  -17.1446 C   0  0  2  0  0  0  0  0  0  0  0  0
   28.7575  -22.9305  -17.5709 N   0  0  0  0  0  0  0  0  0  0  0  0
   27.2588  -22.1411  -15.8160 C   0  0  0  0  0  0  0  0  0  0  0  0
   26.8345  -23.2818  -15.5226 O   0  0  0  0  0  0  0  0  0  0  0  0
   27.1337  -21.0829  -14.8917 N   0  0  0  0  0  0  0  0  0  0  0  0
   26.5989  -21.2276  -13.5635 C   0  0  1  0  0  0  0  0  0  0  0  0
   27.0953  -20.0219  -12.7532 C   0  0  0  0  0  0  0  0  0  0  0  0
   26.7101  -20.1004  -11.3404 C   0  0  0  0  0  0  0  0  0  0  0  0
   25.5119  -19.7406  -10.7620 C   0  0  0  0  0  0  0  0  0  0  0  0
   25.5669  -19.9718   -9.4318 N   0  0  0  0  0  0  0  0  0  0  0  0
   26.7739  -20.4770   -9.1128 C   0  0  0  0  0  0  0  0  0  0  0  0
   27.3406  -20.8790   -7.9235 C   0  0  0  0  0  0  0  0  0  0  0  0
   28.6313  -21.3764   -7.8537 C   0  0  0  0  0  0  0  0  0  0  0  0
   29.3417  -21.4588   -9.0236 C   0  0  0  0  0  0  0  0  0  0  0  0
   28.7775  -21.0558  -10.2254 C   0  0  0  0  0  0  0  0  0  0  0  0
   27.4919  -20.5593  -10.3015 C   0  0  0  0  0  0  0  0  0  0  0  0
   25.1243  -21.0873  -13.6251 C   0  0  0  0  0  0  0  0  0  0  0  0
   24.6545  -20.3008  -14.4973 O   0  0  0  0  0  0  0  0  0  0  0  0
   20.0549  -22.6684   -9.7147 N   0  0  0  0  0  0  0  0  0  0  0  0
   19.7887  -22.9168  -11.0646 C   0  0  0  0  0  0  0  0  0  0  0  0
   18.8991  -23.7272  -11.4015 O   0  0  0  0  0  0  0  0  0  0  0  0
   20.5501  -22.2295  -12.1605 C   0  0  0  0  0  0  0  0  0  0  0  0
   22.0182  -22.3086  -11.9306 C   0  0  0  0  0  0  0  0  0  0  0  0
   22.8012  -21.6329  -13.0003 C   0  0  2  0  0  0  0  0  0  0  0  0
   24.2458  -21.7833  -12.7656 N   0  0  0  0  0  0  0  0  0  0  0  0
   22.4898  -20.1890  -13.0623 C   0  0  0  0  0  0  0  0  0  0  0  0
   21.8124  -19.6296  -13.9500 O   0  0  0  0  0  0  0  0  0  0  0  0
   22.9712  -19.3136  -12.0606 O   0  0  0  0  0  0  0  0  0  0  0  0
  2  1  1  0
  3  2  1  0
  3  4  1  6
  5  3  1  0
  5  6  2  0
  7  5  1  0
  8  7  1  0
  9 10  1  0
  8  9  1  1
 10 18  1  0
 11 10  2  0
 11 12  1  0
 12 13  1  0
 13 14  1  0
 14 15  2  0
 16 15  1  0
 17 16  2  0
 18 13  2  0
 18 17  1  0
 19  8  1  0
 19 27  1  0
 20 19  2  0
 21 22  1  0
 22 23  2  0
 22 24  1  0
 24 25  1  0
 26 25  1  1
 26 27  1  0
 26 28  1  0
 28 29  2  0
 28 30  1  0
M  END
$$$$
