SWQ.pdb
     RDKit          3D

 30 31  0  0  1  0  0  0  0  0999 V2000
   26.2491  -19.2850  -15.4685 O   0  0  0  0  0  0  0  0  0  0  0  0
   26.9958  -18.7105  -14.4308 C   0  0  0  0  0  0  0  0  0  0  0  0
   27.8968  -19.8176  -13.8907 C   0  0  2  0  0  0  0  0  0  0  0  0
   28.3463  -20.6584  -14.9560 N   0  0  0  0  0  0  0  0  0  0  0  0
   27.1733  -20.5857  -12.8187 C   0  0  0  0  0  0  0  0  0  0  0  0
   26.8810  -21.7940  -12.9662 O   0  0  0  0  0  0  0  0  0  0  0  0
   26.8236  -19.9158  -11.6276 N   0  0  0  0  0  0  0  0  0  0  0  0
   26.2429  -20.5585  -10.4784 C   0  0  1  0  0  0  0  0  0  0  0  0
   26.3800  -19.5765   -9.3064 C   0  0  0  0  0  0  0  0  0  0  0  0
   26.2800  -20.2427   -8.0037 C   0  0  0  0  0  0  0  0  0  0  0  0
   25.4012  -21.2314   -7.6169 C   0  0  0  0  0  0  0  0  0  0  0  0
   25.6433  -21.5711   -6.3316 N   0  0  0  0  0  0  0  0  0  0  0  0
   26.6627  -20.8310   -5.8554 C   0  0  0  0  0  0  0  0  0  0  0  0
   27.2962  -20.7786   -4.6334 C   0  0  0  0  0  0  0  0  0  0  0  0
   28.3461  -19.9102   -4.3847 C   0  0  0  0  0  0  0  0  0  0  0  0
   28.7440  -19.0892   -5.4083 C   0  0  0  0  0  0  0  0  0  0  0  0
   28.1107  -19.1364   -6.6419 C   0  0  0  0  0  0  0  0  0  0  0  0
   27.0641  -19.9995   -6.8959 C   0  0  0  0  0  0  0  0  0  0  0  0
   24.7854  -20.7111  -10.7028 C   0  0  0  0  0  0  0  0  0  0  0  0
   24.0866  -19.6568  -10.6997 O   0  0  0  0  0  0  0  0  0  0  0  0
   20.8953  -22.4425   -7.1277 N   0  0  0  0  0  0  0  0  0  0  0  0
   20.0654  -22.3238   -8.2467 C   0  0  0  0  0  0  0  0  0  0  0  0
   18.8219  -22.3471   -8.1250 O   0  0  0  0  0  0  0  0  0  0  0  0
   20.6227  -22.1647   -9.6314 C   0  0  0  0  0  0  0  0  0  0  0  0
   22.1099  -22.1163   -9.6134 C   0  0  0  0  0  0  0  0  0  0  0  0
   22.6938  -21.9900  -10.9761 C   0  0  2  0  0  0  0  0  0  0  0  0
   24.1636  -21.9614  -10.9149 N   0  0  0  0  0  0  0  0  0  0  0  0
   22.2340  -20.7539  -11.6443 C   0  0  0  0  0  0  0  0  0  0  0  0
   21.5425  -20.7041  -12.6832 O   0  0  0  0  0  0  0  0  0  0  0  0
   22.5731  -19.4883  -11.1107 O   0  0  0  0  0  0  0  0  0  0  0  0
  2  1  1  0
  3  2  1  0
  3  4  1  6
  5  3  1  0
  5  6  2  0
  7  5  1  0
  8  7  1  0
  9 10  1  0
  8  9  1  1
 10 18  1  0
 11 10  2  0
 11 12  1  0
 12 13  1  0
 13 14  1  0
 14 15  2  0
 16 15  1  0
 17 16  2  0
 18 13  2  0
 18 17  1  0
 19  8  1  0
 19 27  1  0
 20 19  2  0
 21 22  1  0
 22 23  2  0
 22 24  1  0
 24 25  1  0
 26 25  1  1
 26 27  1  0
 26 28  1  0
 28 29  2  0
 28 30  1  0
M  END
$$$$
