SWQ.pdb
     RDKit          3D

 30 31  0  0  1  0  0  0  0  0999 V2000
   26.0085  -20.4205  -18.6256 O   0  0  0  0  0  0  0  0  0  0  0  0
   26.8781  -21.5023  -18.4311 C   0  0  0  0  0  0  0  0  0  0  0  0
   27.6851  -21.1802  -17.1764 C   0  0  2  0  0  0  0  0  0  0  0  0
   29.0157  -21.6893  -17.2956 N   0  0  0  0  0  0  0  0  0  0  0  0
   26.9732  -21.7112  -15.9625 C   0  0  0  0  0  0  0  0  0  0  0  0
   27.1062  -22.9010  -15.5965 O   0  0  0  0  0  0  0  0  0  0  0  0
   26.1415  -20.8373  -15.2316 N   0  0  0  0  0  0  0  0  0  0  0  0
   25.4262  -21.2091  -14.0395 C   0  0  1  0  0  0  0  0  0  0  0  0
   25.4204  -19.9762  -13.1248 C   0  0  0  0  0  0  0  0  0  0  0  0
   24.9549  -20.2873  -11.7694 C   0  0  0  0  0  0  0  0  0  0  0  0
   25.6260  -20.9592  -10.7705 C   0  0  0  0  0  0  0  0  0  0  0  0
   24.8418  -21.0335   -9.6726 N   0  0  0  0  0  0  0  0  0  0  0  0
   23.6651  -20.4264   -9.9187 C   0  0  0  0  0  0  0  0  0  0  0  0
   22.5353  -20.2218   -9.1578 C   0  0  0  0  0  0  0  0  0  0  0  0
   21.4276  -19.5514   -9.6496 C   0  0  0  0  0  0  0  0  0  0  0  0
   21.4889  -19.0890  -10.9390 C   0  0  0  0  0  0  0  0  0  0  0  0
   22.6236  -19.2914  -11.7115 C   0  0  0  0  0  0  0  0  0  0  0  0
   23.7305  -19.9585  -11.2271 C   0  0  0  0  0  0  0  0  0  0  0  0
   24.0065  -21.4519  -14.3911 C   0  0  0  0  0  0  0  0  0  0  0  0
   23.4618  -20.6374  -15.1910 O   0  0  0  0  0  0  0  0  0  0  0  0
   18.7529  -25.9479  -15.9271 N   0  0  0  0  0  0  0  0  0  0  0  0
   19.6552  -25.6279  -14.9081 C   0  0  0  0  0  0  0  0  0  0  0  0
   20.2583  -26.5267  -14.2835 O   0  0  0  0  0  0  0  0  0  0  0  0
   19.9387  -24.2058  -14.5205 C   0  0  0  0  0  0  0  0  0  0  0  0
   21.3509  -24.0359  -14.0830 C   0  0  0  0  0  0  0  0  0  0  0  0
   21.8535  -22.6523  -14.2995 C   0  0  2  0  0  0  0  0  0  0  0  0
   23.2580  -22.5339  -13.8775 N   0  0  0  0  0  0  0  0  0  0  0  0
   21.0565  -21.6668  -13.5383 C   0  0  0  0  0  0  0  0  0  0  0  0
   21.2600  -21.3279  -12.3535 O   0  0  0  0  0  0  0  0  0  0  0  0
   19.9569  -21.0180  -14.1476 O   0  0  0  0  0  0  0  0  0  0  0  0
  2  1  1  0
  3  2  1  0
  3  4  1  6
  5  3  1  0
  5  6  2  0
  7  5  1  0
  8  7  1  0
  9 10  1  0
  8  9  1  1
 10 18  1  0
 11 10  2  0
 11 12  1  0
 12 13  1  0
 13 14  1  0
 14 15  2  0
 16 15  1  0
 17 16  2  0
 18 13  2  0
 18 17  1  0
 19  8  1  0
 19 27  1  0
 20 19  2  0
 21 22  1  0
 22 23  2  0
 22 24  1  0
 24 25  1  0
 26 25  1  1
 26 27  1  0
 26 28  1  0
 28 29  2  0
 28 30  1  0
M  END
$$$$
