SWQ.pdb
     RDKit          3D

 30 31  0  0  1  0  0  0  0  0999 V2000
   26.5772  -21.5459  -18.7130 O   0  0  0  0  0  0  0  0  0  0  0  0
   26.1405  -22.6712  -18.0006 C   0  0  0  0  0  0  0  0  0  0  0  0
   27.1436  -22.8746  -16.8685 C   0  0  2  0  0  0  0  0  0  0  0  0
   27.9414  -24.0355  -17.1124 N   0  0  0  0  0  0  0  0  0  0  0  0
   26.4193  -22.9414  -15.5520 C   0  0  0  0  0  0  0  0  0  0  0  0
   26.2735  -24.0247  -14.9417 O   0  0  0  0  0  0  0  0  0  0  0  0
   25.8989  -21.7491  -15.0066 N   0  0  0  0  0  0  0  0  0  0  0  0
   25.1913  -21.6728  -13.7558 C   0  0  1  0  0  0  0  0  0  0  0  0
   25.5625  -20.3260  -13.1193 C   0  0  0  0  0  0  0  0  0  0  0  0
   26.6860  -20.4400  -12.1837 C   0  0  0  0  0  0  0  0  0  0  0  0
   28.0275  -20.5658  -12.4734 C   0  0  0  0  0  0  0  0  0  0  0  0
   28.7313  -20.6414  -11.3224 N   0  0  0  0  0  0  0  0  0  0  0  0
   27.8885  -20.5687  -10.2744 C   0  0  0  0  0  0  0  0  0  0  0  0
   28.0793  -20.5967   -8.9106 C   0  0  0  0  0  0  0  0  0  0  0  0
   27.0249  -20.5026   -8.0174 C   0  0  0  0  0  0  0  0  0  0  0  0
   25.7630  -20.3785   -8.5391 C   0  0  0  0  0  0  0  0  0  0  0  0
   25.5631  -20.3495   -9.9119 C   0  0  0  0  0  0  0  0  0  0  0  0
   26.6096  -20.4428  -10.8070 C   0  0  0  0  0  0  0  0  0  0  0  0
   23.7372  -21.5954  -14.0343 C   0  0  0  0  0  0  0  0  0  0  0  0
   23.3896  -21.2492  -15.2002 O   0  0  0  0  0  0  0  0  0  0  0  0
   22.2711  -18.9494  -12.0692 N   0  0  0  0  0  0  0  0  0  0  0  0
   20.8840  -18.8709  -12.2268 C   0  0  0  0  0  0  0  0  0  0  0  0
   20.1864  -18.2133  -11.4252 O   0  0  0  0  0  0  0  0  0  0  0  0
   20.1755  -19.5651  -13.3534 C   0  0  0  0  0  0  0  0  0  0  0  0
   21.1068  -20.4316  -14.1255 C   0  0  0  0  0  0  0  0  0  0  0  0
   21.3408  -21.7462  -13.4690 C   0  0  2  0  0  0  0  0  0  0  0  0
   22.7493  -21.8872  -13.0679 N   0  0  0  0  0  0  0  0  0  0  0  0
   21.0026  -22.8654  -14.3739 C   0  0  0  0  0  0  0  0  0  0  0  0
   21.6822  -23.2383  -15.3532 O   0  0  0  0  0  0  0  0  0  0  0  0
   19.8222  -23.6168  -14.1658 O   0  0  0  0  0  0  0  0  0  0  0  0
  2  1  1  0
  3  2  1  0
  3  4  1  6
  5  3  1  0
  5  6  2  0
  7  5  1  0
  8  7  1  0
  9 10  1  0
  8  9  1  6
 10 18  1  0
 11 10  2  0
 11 12  1  0
 12 13  1  0
 13 14  1  0
 14 15  2  0
 16 15  1  0
 17 16  2  0
 18 13  2  0
 18 17  1  0
 19  8  1  0
 19 27  1  0
 20 19  2  0
 21 22  1  0
 22 23  2  0
 22 24  1  0
 24 25  1  0
 26 25  1  6
 26 27  1  0
 26 28  1  0
 28 29  2  0
 28 30  1  0
M  END
$$$$
