SWQ.pdb
     RDKit          3D

 30 31  0  0  1  0  0  0  0  0999 V2000
   25.7634  -21.4016  -17.8113 O   0  0  0  0  0  0  0  0  0  0  0  0
   26.8694  -22.2625  -17.8101 C   0  0  0  0  0  0  0  0  0  0  0  0
   27.6976  -21.8907  -16.5833 C   0  0  2  0  0  0  0  0  0  0  0  0
   28.9648  -22.5516  -16.6187 N   0  0  0  0  0  0  0  0  0  0  0  0
   26.9224  -22.2010  -15.3322 C   0  0  0  0  0  0  0  0  0  0  0  0
   26.7538  -23.3794  -14.9445 O   0  0  0  0  0  0  0  0  0  0  0  0
   26.3800  -21.1303  -14.5911 N   0  0  0  0  0  0  0  0  0  0  0  0
   25.7597  -21.2721  -13.3004 C   0  0  1  0  0  0  0  0  0  0  0  0
   26.2900  -20.1265  -12.4268 C   0  0  0  0  0  0  0  0  0  0  0  0
   27.3619  -20.5607  -11.5249 C   0  0  0  0  0  0  0  0  0  0  0  0
   28.6372  -20.9693  -11.8508 C   0  0  0  0  0  0  0  0  0  0  0  0
   29.3105  -21.2854  -10.7227 N   0  0  0  0  0  0  0  0  0  0  0  0
   28.5122  -21.0964   -9.6547 C   0  0  0  0  0  0  0  0  0  0  0  0
   28.6981  -21.2640   -8.3002 C   0  0  0  0  0  0  0  0  0  0  0  0
   27.6980  -20.9947   -7.3807 C   0  0  0  0  0  0  0  0  0  0  0  0
   26.4958  -20.5484   -7.8660 C   0  0  0  0  0  0  0  0  0  0  0  0
   26.3012  -20.3771   -9.2291 C   0  0  0  0  0  0  0  0  0  0  0  0
   27.2937  -20.6437  -10.1503 C   0  0  0  0  0  0  0  0  0  0  0  0
   24.3044  -21.0259  -13.4409 C   0  0  0  0  0  0  0  0  0  0  0  0
   23.9424  -20.1815  -14.3104 O   0  0  0  0  0  0  0  0  0  0  0  0
   19.2645  -24.0678  -10.9098 N   0  0  0  0  0  0  0  0  0  0  0  0
   18.7290  -23.1614  -11.8300 C   0  0  0  0  0  0  0  0  0  0  0  0
   17.4966  -23.1065  -12.0291 O   0  0  0  0  0  0  0  0  0  0  0  0
   19.5994  -22.2223  -12.6133 C   0  0  0  0  0  0  0  0  0  0  0  0
   21.0320  -22.3752  -12.2408 C   0  0  0  0  0  0  0  0  0  0  0  0
   21.9164  -21.4270  -12.9706 C   0  0  2  0  0  0  0  0  0  0  0  0
   23.3308  -21.6844  -12.6578 N   0  0  0  0  0  0  0  0  0  0  0  0
   21.6107  -20.0252  -12.6134 C   0  0  0  0  0  0  0  0  0  0  0  0
   22.0474  -19.4191  -11.6126 O   0  0  0  0  0  0  0  0  0  0  0  0
   20.7573  -19.2516  -13.4347 O   0  0  0  0  0  0  0  0  0  0  0  0
  2  1  1  0
  3  2  1  0
  3  4  1  1
  5  3  1  0
  5  6  2  0
  7  5  1  0
  8  7  1  0
  9 10  1  0
  8  9  1  1
 10 18  1  0
 11 10  2  0
 11 12  1  0
 12 13  1  0
 13 14  1  0
 14 15  2  0
 16 15  1  0
 17 16  2  0
 18 13  2  0
 18 17  1  0
 19  8  1  0
 19 27  1  0
 20 19  2  0
 21 22  1  0
 22 23  2  0
 22 24  1  0
 24 25  1  0
 26 25  1  1
 26 27  1  0
 26 28  1  0
 28 29  2  0
 28 30  1  0
M  END
$$$$
