CCQ.pdb
     RDKit          3D

 22 21  0  0  1  0  0  0  0  0999 V2000
   13.0199  -17.0562   16.0735 N   0  0  0  0  0  0  0  0  0  0  0  0
   12.6053  -17.6534   17.3028 C   0  0  1  0  0  0  0  0  0  0  0  0
   13.3778  -18.9394   17.5034 C   0  0  0  0  0  0  0  0  0  0  0  0
   12.8250  -19.7617   19.0306 S   0  0  0  0  0  0  0  0  0  0  0  0
   12.9225  -16.7851   18.4835 C   0  0  0  0  0  0  0  0  0  0  0  0
   13.9174  -16.0248   18.3660 O   0  0  0  0  0  0  0  0  0  0  0  0
   12.1563  -16.8109   19.6634 N   0  0  0  0  0  0  0  0  0  0  0  0
   12.4864  -15.9175   20.7806 C   0  0  1  0  0  0  0  0  0  0  0  0
   11.1551  -15.2911   21.1781 C   0  0  0  0  0  0  0  0  0  0  0  0
    9.9610  -16.4774   21.7823 S   0  0  0  0  0  0  0  0  0  0  0  0
   13.0356  -16.7228   21.9147 C   0  0  0  0  0  0  0  0  0  0  0  0
   13.0667  -17.9971   21.8114 O   0  0  0  0  0  0  0  0  0  0  0  0
   19.3290  -16.9863   22.1539 N   0  0  0  0  0  0  0  0  0  0  0  0
   18.3478  -16.1139   22.6919 C   0  0  0  0  0  0  0  0  0  0  0  0
   18.4391  -14.8879   22.4822 O   0  0  0  0  0  0  0  0  0  0  0  0
   17.2497  -16.6750   23.4833 C   0  0  0  0  0  0  0  0  0  0  0  0
   15.9101  -16.3403   22.9424 C   0  0  0  0  0  0  0  0  0  0  0  0
   14.7336  -16.7276   23.7675 C   0  0  2  0  0  0  0  0  0  0  0  0
   13.5343  -16.1894   23.1146 N   0  0  0  0  0  0  0  0  0  0  0  0
   14.7951  -16.3054   25.1802 C   0  0  0  0  0  0  0  0  0  0  0  0
   14.2206  -15.2563   25.5545 O   0  0  0  0  0  0  0  0  0  0  0  0
   15.4813  -17.0338   26.1592 O   0  0  0  0  0  0  0  0  0  0  0  0
  2  1  1  6
  2  5  1  0
  2  3  1  0
  4  3  1  0
  5  6  2  0
  7  8  1  0
  7  5  1  0
  8 11  1  0
  9 10  1  0
  8  9  1  1
 11 12  2  0
 11 19  1  0
 13 14  1  0
 14 15  2  0
 16 17  1  0
 16 14  1  0
 18 20  1  0
 18 17  1  6
 19 18  1  0
 20 22  1  0
 21 20  2  0
M  END
$$$$
