CCQ.pdb
     RDKit          3D

 22 21  0  0  1  0  0  0  0  0999 V2000
   14.3611  -18.3086   16.2927 N   0  0  0  0  0  0  0  0  0  0  0  0
   14.1781  -19.0588   17.4941 C   0  0  1  0  0  0  0  0  0  0  0  0
   15.3351  -18.7727   18.4269 C   0  0  0  0  0  0  0  0  0  0  0  0
   16.5998  -20.0716   18.2609 S   0  0  0  0  0  0  0  0  0  0  0  0
   12.9364  -18.6487   18.2280 C   0  0  0  0  0  0  0  0  0  0  0  0
   12.4768  -17.5103   17.9548 O   0  0  0  0  0  0  0  0  0  0  0  0
   12.3109  -19.4831   19.1727 N   0  0  0  0  0  0  0  0  0  0  0  0
   11.0784  -19.0501   19.8423 C   0  0  1  0  0  0  0  0  0  0  0  0
   10.2152  -20.3045   19.9075 C   0  0  0  0  0  0  0  0  0  0  0  0
    8.7484  -20.1094   20.9118 S   0  0  0  0  0  0  0  0  0  0  0  0
   11.4035  -18.5765   21.2230 C   0  0  0  0  0  0  0  0  0  0  0  0
   12.4214  -19.0668   21.8222 O   0  0  0  0  0  0  0  0  0  0  0  0
    8.4271  -14.0788   24.4119 N   0  0  0  0  0  0  0  0  0  0  0  0
    9.3298  -14.5232   25.4124 C   0  0  0  0  0  0  0  0  0  0  0  0
    9.3343  -13.9600   26.5252 O   0  0  0  0  0  0  0  0  0  0  0  0
   10.2375  -15.6339   25.1134 C   0  0  0  0  0  0  0  0  0  0  0  0
   10.0670  -16.1742   23.7430 C   0  0  0  0  0  0  0  0  0  0  0  0
   11.0288  -17.2229   23.3071 C   0  0  2  0  0  0  0  0  0  0  0  0
   10.6712  -17.6150   21.9385 N   0  0  0  0  0  0  0  0  0  0  0  0
   11.1058  -18.4048   24.1874 C   0  0  0  0  0  0  0  0  0  0  0  0
   10.2138  -19.2843   24.1482 O   0  0  0  0  0  0  0  0  0  0  0  0
   12.1531  -18.6069   25.0942 O   0  0  0  0  0  0  0  0  0  0  0  0
  2  1  1  6
  2  5  1  0
  2  3  1  0
  4  3  1  0
  5  6  2  0
  7  8  1  0
  7  5  1  0
  8 11  1  0
  9 10  1  0
  8  9  1  1
 11 12  2  0
 11 19  1  0
 13 14  1  0
 14 15  2  0
 16 17  1  0
 16 14  1  0
 18 20  1  0
 18 17  1  1
 19 18  1  0
 20 22  1  0
 21 20  2  0
M  END
$$$$
