CCQ.pdb
     RDKit          3D

 22 21  0  0  1  0  0  0  0  0999 V2000
    8.2747  -12.6404   19.2055 N   0  0  0  0  0  0  0  0  0  0  0  0
    7.5877  -13.5458   20.0704 C   0  0  1  0  0  0  0  0  0  0  0  0
    7.7674  -14.9530   19.5429 C   0  0  0  0  0  0  0  0  0  0  0  0
    6.5255  -15.2950   18.2566 S   0  0  0  0  0  0  0  0  0  0  0  0
    8.1602  -13.5412   21.4564 C   0  0  0  0  0  0  0  0  0  0  0  0
    9.4034  -13.3736   21.5463 O   0  0  0  0  0  0  0  0  0  0  0  0
    7.3603  -13.7139   22.6010 N   0  0  0  0  0  0  0  0  0  0  0  0
    7.9694  -13.7167   23.9368 C   0  0  1  0  0  0  0  0  0  0  0  0
    6.9328  -13.0498   24.8333 C   0  0  0  0  0  0  0  0  0  0  0  0
    7.3125  -13.1734   26.5765 S   0  0  0  0  0  0  0  0  0  0  0  0
    8.1978  -15.1280   24.3754 C   0  0  0  0  0  0  0  0  0  0  0  0
    7.2174  -15.9489   24.3560 O   0  0  0  0  0  0  0  0  0  0  0  0
   11.3970  -18.9872   21.1527 N   0  0  0  0  0  0  0  0  0  0  0  0
   11.6269  -17.9712   22.1162 C   0  0  0  0  0  0  0  0  0  0  0  0
   12.7867  -17.5479   22.2930 O   0  0  0  0  0  0  0  0  0  0  0  0
   10.4949  -17.4438   22.8824 C   0  0  0  0  0  0  0  0  0  0  0  0
   10.6331  -17.6499   24.3445 C   0  0  0  0  0  0  0  0  0  0  0  0
    9.5830  -17.0507   25.2123 C   0  0  2  0  0  0  0  0  0  0  0  0
    9.4263  -15.6457   24.8176 N   0  0  0  0  0  0  0  0  0  0  0  0
    9.8323  -17.1627   26.6625 C   0  0  0  0  0  0  0  0  0  0  0  0
   10.0183  -16.1351   27.3555 O   0  0  0  0  0  0  0  0  0  0  0  0
    9.8743  -18.3920   27.3311 O   0  0  0  0  0  0  0  0  0  0  0  0
  2  1  1  6
  2  5  1  0
  2  3  1  0
  4  3  1  0
  5  6  2  0
  7  8  1  0
  7  5  1  0
  8 11  1  0
  9 10  1  0
  8  9  1  1
 11 12  2  0
 11 19  1  0
 13 14  1  0
 14 15  2  0
 16 17  1  0
 16 14  1  0
 18 20  1  0
 18 17  1  6
 19 18  1  0
 20 22  1  0
 21 20  2  0
M  END
$$$$
