CCQ.pdb
     RDKit          3D

 22 21  0  0  1  0  0  0  0  0999 V2000
    7.8729  -13.0630   17.7955 N   0  0  0  0  0  0  0  0  0  0  0  0
    7.4469  -14.0965   18.6843 C   0  0  1  0  0  0  0  0  0  0  0  0
    7.8830  -15.4321   18.1214 C   0  0  0  0  0  0  0  0  0  0  0  0
    7.4841  -16.7607   19.3003 S   0  0  0  0  0  0  0  0  0  0  0  0
    8.0928  -13.9786   20.0325 C   0  0  0  0  0  0  0  0  0  0  0  0
    9.3177  -13.6936   20.0416 O   0  0  0  0  0  0  0  0  0  0  0  0
    7.3779  -14.1740   21.2286 N   0  0  0  0  0  0  0  0  0  0  0  0
    8.0363  -13.9767   22.5257 C   0  0  1  0  0  0  0  0  0  0  0  0
    6.8906  -13.8130   23.5174 C   0  0  0  0  0  0  0  0  0  0  0  0
    7.4036  -13.9364   25.2262 S   0  0  0  0  0  0  0  0  0  0  0  0
    8.8407  -15.1911   22.8641 C   0  0  0  0  0  0  0  0  0  0  0  0
    8.3388  -16.3469   22.6455 O   0  0  0  0  0  0  0  0  0  0  0  0
   14.9224  -15.7619   22.7217 N   0  0  0  0  0  0  0  0  0  0  0  0
   14.6340  -16.9566   23.4308 C   0  0  0  0  0  0  0  0  0  0  0  0
   15.5691  -17.7151   23.7561 O   0  0  0  0  0  0  0  0  0  0  0  0
   13.2423  -17.2718   23.7634 C   0  0  0  0  0  0  0  0  0  0  0  0
   12.3038  -16.1655   23.4558 C   0  0  0  0  0  0  0  0  0  0  0  0
   10.8614  -16.4089   23.7299 C   0  0  2  0  0  0  0  0  0  0  0  0
   10.1329  -15.1744   23.4142 N   0  0  0  0  0  0  0  0  0  0  0  0
   10.5538  -16.8629   25.1000 C   0  0  0  0  0  0  0  0  0  0  0  0
   10.8646  -18.0192   25.4700 O   0  0  0  0  0  0  0  0  0  0  0  0
    9.9133  -16.0487   26.0418 O   0  0  0  0  0  0  0  0  0  0  0  0
  2  1  1  6
  2  5  1  0
  2  3  1  0
  4  3  1  0
  5  6  2  0
  7  8  1  0
  7  5  1  0
  8 11  1  0
  9 10  1  0
  8  9  1  1
 11 12  2  0
 11 19  1  0
 13 14  1  0
 14 15  2  0
 16 17  1  0
 16 14  1  0
 18 20  1  0
 18 17  1  1
 19 18  1  0
 20 22  1  0
 21 20  2  0
M  END
$$$$
