CCQ.pdb
     RDKit          3D

 22 21  0  0  1  0  0  0  0  0999 V2000
    6.8164  -13.7922   19.4061 N   0  0  0  0  0  0  0  0  0  0  0  0
    7.7217  -14.7383   19.9763 C   0  0  1  0  0  0  0  0  0  0  0  0
    9.1378  -14.3091   19.6577 C   0  0  0  0  0  0  0  0  0  0  0  0
    9.3521  -12.5440   20.0478 S   0  0  0  0  0  0  0  0  0  0  0  0
    7.6223  -14.7791   21.4720 C   0  0  0  0  0  0  0  0  0  0  0  0
    6.8801  -13.9155   22.0058 O   0  0  0  0  0  0  0  0  0  0  0  0
    8.3165  -15.7270   22.2462 N   0  0  0  0  0  0  0  0  0  0  0  0
    8.1188  -15.7840   23.6998 C   0  0  1  0  0  0  0  0  0  0  0  0
    6.6437  -16.1254   23.8740 C   0  0  0  0  0  0  0  0  0  0  0  0
    6.1760  -17.6752   23.1139 S   0  0  0  0  0  0  0  0  0  0  0  0
    8.9702  -16.8708   24.2744 C   0  0  0  0  0  0  0  0  0  0  0  0
    9.8820  -17.3937   23.5460 O   0  0  0  0  0  0  0  0  0  0  0  0
    9.4228  -14.2892   29.2954 N   0  0  0  0  0  0  0  0  0  0  0  0
   10.0731  -13.9367   28.0846 C   0  0  0  0  0  0  0  0  0  0  0  0
   10.4286  -12.7551   27.9034 O   0  0  0  0  0  0  0  0  0  0  0  0
   10.3106  -14.9707   27.0739 C   0  0  0  0  0  0  0  0  0  0  0  0
    9.8174  -16.3087   27.4807 C   0  0  0  0  0  0  0  0  0  0  0  0
    9.9929  -17.4178   26.5040 C   0  0  2  0  0  0  0  0  0  0  0  0
    8.8547  -17.3810   25.5779 N   0  0  0  0  0  0  0  0  0  0  0  0
   10.1388  -18.7592   27.1016 C   0  0  0  0  0  0  0  0  0  0  0  0
    9.1857  -19.5726   27.0754 O   0  0  0  0  0  0  0  0  0  0  0  0
   11.3203  -19.1899   27.7168 O   0  0  0  0  0  0  0  0  0  0  0  0
  2  1  1  1
  2  5  1  0
  2  3  1  0
  4  3  1  0
  5  6  2  0
  7  8  1  0
  7  5  1  0
  8 11  1  0
  9 10  1  0
  8  9  1  6
 11 12  2  0
 11 19  1  0
 13 14  1  0
 14 15  2  0
 16 17  1  0
 16 14  1  0
 18 20  1  0
 18 17  1  1
 19 18  1  0
 20 22  1  0
 21 20  2  0
M  END
$$$$
