CCQ.pdb
     RDKit          3D

 22 21  0  0  1  0  0  0  0  0999 V2000
    8.6158  -17.1275   17.7185 N   0  0  0  0  0  0  0  0  0  0  0  0
    7.7731  -17.0900   18.8709 C   0  0  1  0  0  0  0  0  0  0  0  0
    7.5319  -18.5076   19.3432 C   0  0  0  0  0  0  0  0  0  0  0  0
    6.0588  -19.1917   18.5211 S   0  0  0  0  0  0  0  0  0  0  0  0
    8.4207  -16.3708   20.0164 C   0  0  0  0  0  0  0  0  0  0  0  0
    9.6752  -16.4347   20.0780 O   0  0  0  0  0  0  0  0  0  0  0  0
    7.6761  -15.6601   20.9757 N   0  0  0  0  0  0  0  0  0  0  0  0
    8.3479  -15.0411   22.1249 C   0  0  1  0  0  0  0  0  0  0  0  0
    7.2561  -14.2375   22.8213 C   0  0  0  0  0  0  0  0  0  0  0  0
    7.7182  -13.6719   24.4537 S   0  0  0  0  0  0  0  0  0  0  0  0
    8.8603  -16.1107   23.0358 C   0  0  0  0  0  0  0  0  0  0  0  0
    8.1187  -17.1234   23.2805 O   0  0  0  0  0  0  0  0  0  0  0  0
   14.4609  -18.4422   23.2266 N   0  0  0  0  0  0  0  0  0  0  0  0
   13.7492  -19.2217   24.1748 C   0  0  0  0  0  0  0  0  0  0  0  0
   14.0853  -20.4073   24.3669 O   0  0  0  0  0  0  0  0  0  0  0  0
   12.6338  -18.6147   24.9058 C   0  0  0  0  0  0  0  0  0  0  0  0
   11.9748  -17.5165   24.1582 C   0  0  0  0  0  0  0  0  0  0  0  0
   10.5667  -17.2022   24.5234 C   0  0  2  0  0  0  0  0  0  0  0  0
   10.1175  -16.1018   23.6620 N   0  0  0  0  0  0  0  0  0  0  0  0
   10.3481  -16.8765   25.9461 C   0  0  0  0  0  0  0  0  0  0  0  0
   10.0530  -15.7085   26.2915 O   0  0  0  0  0  0  0  0  0  0  0  0
   10.4550  -17.8292   26.9662 O   0  0  0  0  0  0  0  0  0  0  0  0
  2  1  1  6
  2  5  1  0
  2  3  1  0
  4  3  1  0
  5  6  2  0
  7  8  1  0
  7  5  1  0
  8 11  1  0
  9 10  1  0
  8  9  1  1
 11 12  2  0
 11 19  1  0
 13 14  1  0
 14 15  2  0
 16 17  1  0
 16 14  1  0
 18 20  1  0
 18 17  1  1
 19 18  1  0
 20 22  1  0
 21 20  2  0
M  END
$$$$
