CCQ.pdb
     RDKit          3D

 22 21  0  0  1  0  0  0  0  0999 V2000
    5.0439  -18.8766   19.8829 N   0  0  0  0  0  0  0  0  0  0  0  0
    4.9540  -17.6903   20.6730 C   0  0  1  0  0  0  0  0  0  0  0  0
    4.4058  -18.0543   22.0360 C   0  0  0  0  0  0  0  0  0  0  0  0
    2.6034  -18.2897   21.9355 S   0  0  0  0  0  0  0  0  0  0  0  0
    6.2993  -17.0730   20.9133 C   0  0  0  0  0  0  0  0  0  0  0  0
    7.2450  -17.8686   21.1463 O   0  0  0  0  0  0  0  0  0  0  0  0
    6.5045  -15.6813   20.8822 N   0  0  0  0  0  0  0  0  0  0  0  0
    7.8381  -15.1233   21.1380 C   0  0  1  0  0  0  0  0  0  0  0  0
    7.6865  -13.6295   20.8763 C   0  0  0  0  0  0  0  0  0  0  0  0
    7.5662  -13.2185   19.1400 S   0  0  0  0  0  0  0  0  0  0  0  0
    8.2097  -15.3606   22.5670 C   0  0  0  0  0  0  0  0  0  0  0  0
    7.2823  -15.4285   23.4450 O   0  0  0  0  0  0  0  0  0  0  0  0
    8.5481  -19.1338   27.7008 N   0  0  0  0  0  0  0  0  0  0  0  0
    8.4201  -18.3744   26.5091 C   0  0  0  0  0  0  0  0  0  0  0  0
    7.3450  -17.7891   26.2700 O   0  0  0  0  0  0  0  0  0  0  0  0
    9.5551  -18.2970   25.5857 C   0  0  0  0  0  0  0  0  0  0  0  0
    9.2719  -17.4817   24.3798 C   0  0  0  0  0  0  0  0  0  0  0  0
    9.8071  -16.0932   24.3636 C   0  0  2  0  0  0  0  0  0  0  0  0
    9.5216  -15.5205   23.0426 N   0  0  0  0  0  0  0  0  0  0  0  0
   11.2418  -15.9728   24.6877 C   0  0  0  0  0  0  0  0  0  0  0  0
   11.6795  -16.3786   25.7897 O   0  0  0  0  0  0  0  0  0  0  0  0
   12.1732  -15.4125   23.8054 O   0  0  0  0  0  0  0  0  0  0  0  0
  2  1  1  6
  2  5  1  0
  2  3  1  0
  4  3  1  0
  5  6  2  0
  7  8  1  0
  7  5  1  0
  8 11  1  0
  9 10  1  0
  8  9  1  1
 11 12  2  0
 11 19  1  0
 13 14  1  0
 14 15  2  0
 16 17  1  0
 16 14  1  0
 18 20  1  0
 18 17  1  6
 19 18  1  0
 20 22  1  0
 21 20  2  0
M  END
$$$$
