CCQ.pdb
     RDKit          3D

 22 21  0  0  1  0  0  0  0  0999 V2000
    5.4064  -14.2057   26.6761 N   0  0  0  0  0  0  0  0  0  0  0  0
    6.2361  -13.4731   25.7736 C   0  0  1  0  0  0  0  0  0  0  0  0
    7.3290  -12.7878   26.5653 C   0  0  0  0  0  0  0  0  0  0  0  0
    6.8106  -11.0982   27.0018 S   0  0  0  0  0  0  0  0  0  0  0  0
    6.9290  -14.3717   24.7932 C   0  0  0  0  0  0  0  0  0  0  0  0
    7.3290  -15.4785   25.2367 O   0  0  0  0  0  0  0  0  0  0  0  0
    7.1265  -14.0073   23.4486 N   0  0  0  0  0  0  0  0  0  0  0  0
    7.8343  -14.9104   22.5328 C   0  0  1  0  0  0  0  0  0  0  0  0
    7.5798  -14.3295   21.1470 C   0  0  0  0  0  0  0  0  0  0  0  0
    8.3765  -15.2443   19.8330 S   0  0  0  0  0  0  0  0  0  0  0  0
    9.2973  -14.8838   22.8415 C   0  0  0  0  0  0  0  0  0  0  0  0
    9.7673  -13.9145   23.5306 O   0  0  0  0  0  0  0  0  0  0  0  0
    9.4242  -18.0360   26.7143 N   0  0  0  0  0  0  0  0  0  0  0  0
   10.8431  -18.0377   26.7085 C   0  0  0  0  0  0  0  0  0  0  0  0
   11.4578  -18.4624   27.7072 O   0  0  0  0  0  0  0  0  0  0  0  0
   11.5533  -17.5385   25.5281 C   0  0  0  0  0  0  0  0  0  0  0  0
   10.6544  -16.9175   24.5254 C   0  0  0  0  0  0  0  0  0  0  0  0
   11.2948  -16.3333   23.3157 C   0  0  2  0  0  0  0  0  0  0  0  0
   10.2252  -15.8553   22.4315 N   0  0  0  0  0  0  0  0  0  0  0  0
   12.2066  -17.2403   22.5919 C   0  0  0  0  0  0  0  0  0  0  0  0
   13.4201  -17.2984   22.8996 O   0  0  0  0  0  0  0  0  0  0  0  0
   11.7796  -18.0673   21.5461 O   0  0  0  0  0  0  0  0  0  0  0  0
  2  1  1  1
  2  5  1  0
  2  3  1  0
  4  3  1  0
  5  6  2  0
  7  8  1  0
  7  5  1  0
  8 11  1  0
  9 10  1  0
  8  9  1  6
 11 12  2  0
 11 19  1  0
 13 14  1  0
 14 15  2  0
 16 17  1  0
 16 14  1  0
 18 20  1  0
 18 17  1  1
 19 18  1  0
 20 22  1  0
 21 20  2  0
M  END
$$$$
