CCQ.pdb
     RDKit          3D

 22 21  0  0  1  0  0  0  0  0999 V2000
    8.2634  -13.2215   19.7207 N   0  0  0  0  0  0  0  0  0  0  0  0
    7.4671  -13.9174   20.6805 C   0  0  1  0  0  0  0  0  0  0  0  0
    7.4743  -15.3923   20.3406 C   0  0  0  0  0  0  0  0  0  0  0  0
    6.5748  -16.3263   21.6182 S   0  0  0  0  0  0  0  0  0  0  0  0
    8.0305  -13.8035   22.0655 C   0  0  0  0  0  0  0  0  0  0  0  0
    9.2733  -13.9602   22.1772 O   0  0  0  0  0  0  0  0  0  0  0  0
    7.2228  -13.5362   23.1863 N   0  0  0  0  0  0  0  0  0  0  0  0
    7.8157  -13.4704   24.5277 C   0  0  1  0  0  0  0  0  0  0  0  0
    6.7620  -12.7730   25.3799 C   0  0  0  0  0  0  0  0  0  0  0  0
    7.2073  -12.6533   27.1077 S   0  0  0  0  0  0  0  0  0  0  0  0
    8.0524  -14.8573   25.0345 C   0  0  0  0  0  0  0  0  0  0  0  0
    7.5022  -15.8402   24.4290 O   0  0  0  0  0  0  0  0  0  0  0  0
   10.9430  -16.8519   22.3786 N   0  0  0  0  0  0  0  0  0  0  0  0
   11.0416  -18.0317   23.1607 C   0  0  0  0  0  0  0  0  0  0  0  0
   11.3696  -19.1028   22.6123 O   0  0  0  0  0  0  0  0  0  0  0  0
   10.7539  -17.9637   24.5958 C   0  0  0  0  0  0  0  0  0  0  0  0
   10.4442  -16.5913   25.0646 C   0  0  0  0  0  0  0  0  0  0  0  0
    9.5510  -16.4686   26.2486 C   0  0  2  0  0  0  0  0  0  0  0  0
    8.8472  -15.1847   26.1453 N   0  0  0  0  0  0  0  0  0  0  0  0
   10.2253  -16.5927   27.5554 C   0  0  0  0  0  0  0  0  0  0  0  0
   10.5511  -17.7195   27.9968 O   0  0  0  0  0  0  0  0  0  0  0  0
   10.5323  -15.4869   28.3572 O   0  0  0  0  0  0  0  0  0  0  0  0
  2  1  1  6
  2  5  1  0
  2  3  1  0
  4  3  1  0
  5  6  2  0
  7  8  1  0
  7  5  1  0
  8 11  1  0
  9 10  1  0
  8  9  1  1
 11 12  2  0
 11 19  1  0
 13 14  1  0
 14 15  2  0
 16 17  1  0
 16 14  1  0
 18 20  1  0
 18 17  1  6
 19 18  1  0
 20 22  1  0
 21 20  2  0
M  END
$$$$
