CCQ.pdb
     RDKit          3D

 22 21  0  0  1  0  0  0  0  0999 V2000
    8.6381  -15.7129   20.6333 N   0  0  0  0  0  0  0  0  0  0  0  0
    7.7045  -15.8084   21.7098 C   0  0  1  0  0  0  0  0  0  0  0  0
    7.4850  -17.2703   22.0348 C   0  0  0  0  0  0  0  0  0  0  0  0
    6.3778  -17.4256   23.4714 S   0  0  0  0  0  0  0  0  0  0  0  0
    8.2274  -15.1739   22.9639 C   0  0  0  0  0  0  0  0  0  0  0  0
    9.4557  -15.3180   23.1921 O   0  0  0  0  0  0  0  0  0  0  0  0
    7.3987  -14.4546   23.8447 N   0  0  0  0  0  0  0  0  0  0  0  0
    7.9555  -13.8597   25.0659 C   0  0  1  0  0  0  0  0  0  0  0  0
    6.8282  -12.9979   25.6221 C   0  0  0  0  0  0  0  0  0  0  0  0
    7.1299  -12.4161   27.2860 S   0  0  0  0  0  0  0  0  0  0  0  0
    8.2996  -14.9455   26.0348 C   0  0  0  0  0  0  0  0  0  0  0  0
    7.4630  -15.8939   26.2248 O   0  0  0  0  0  0  0  0  0  0  0  0
   12.7665  -20.2129   27.2845 N   0  0  0  0  0  0  0  0  0  0  0  0
   12.2524  -18.9946   26.7701 C   0  0  0  0  0  0  0  0  0  0  0  0
   12.6274  -18.5981   25.6487 O   0  0  0  0  0  0  0  0  0  0  0  0
   11.2927  -18.2295   27.5705 C   0  0  0  0  0  0  0  0  0  0  0  0
   10.7775  -17.0272   26.8720 C   0  0  0  0  0  0  0  0  0  0  0  0
    9.8149  -16.1733   27.6198 C   0  0  2  0  0  0  0  0  0  0  0  0
    9.4920  -15.0185   26.7734 N   0  0  0  0  0  0  0  0  0  0  0  0
   10.2735  -15.7344   28.9521 C   0  0  0  0  0  0  0  0  0  0  0  0
   10.6022  -16.5772   29.8194 O   0  0  0  0  0  0  0  0  0  0  0  0
   10.3654  -14.3854   29.3149 O   0  0  0  0  0  0  0  0  0  0  0  0
  2  1  1  6
  2  5  1  0
  2  3  1  0
  4  3  1  0
  5  6  2  0
  7  8  1  0
  7  5  1  0
  8 11  1  0
  9 10  1  0
  8  9  1  1
 11 12  2  0
 11 19  1  0
 13 14  1  0
 14 15  2  0
 16 17  1  0
 16 14  1  0
 18 20  1  0
 18 17  1  6
 19 18  1  0
 20 22  1  0
 21 20  2  0
M  END
$$$$
