CCQ.pdb
     RDKit          3D

 22 21  0  0  1  0  0  0  0  0999 V2000
    9.1357  -15.0361   20.0897 N   0  0  0  0  0  0  0  0  0  0  0  0
    8.1091  -15.2719   21.0541 C   0  0  1  0  0  0  0  0  0  0  0  0
    7.7268  -16.7357   21.0093 C   0  0  0  0  0  0  0  0  0  0  0  0
    6.4021  -17.0667   22.2133 S   0  0  0  0  0  0  0  0  0  0  0  0
    8.5804  -15.0042   22.4523 C   0  0  0  0  0  0  0  0  0  0  0  0
    9.7845  -15.2731   22.6965 O   0  0  0  0  0  0  0  0  0  0  0  0
    7.7314  -14.4811   23.4450 N   0  0  0  0  0  0  0  0  0  0  0  0
    8.2476  -14.2062   24.7915 C   0  0  1  0  0  0  0  0  0  0  0  0
    7.1851  -13.3252   25.4380 C   0  0  0  0  0  0  0  0  0  0  0  0
    7.5677  -12.8676   27.1239 S   0  0  0  0  0  0  0  0  0  0  0  0
    8.3790  -15.4914   25.5448 C   0  0  0  0  0  0  0  0  0  0  0  0
    7.8151  -16.5413   25.0811 O   0  0  0  0  0  0  0  0  0  0  0  0
   12.0015  -17.4118   23.4909 N   0  0  0  0  0  0  0  0  0  0  0  0
   11.4276  -18.5614   24.0928 C   0  0  0  0  0  0  0  0  0  0  0  0
   11.7656  -19.6935   23.6931 O   0  0  0  0  0  0  0  0  0  0  0  0
   10.4492  -18.3910   25.1701 C   0  0  0  0  0  0  0  0  0  0  0  0
   10.7360  -17.2246   26.0397 C   0  0  0  0  0  0  0  0  0  0  0  0
    9.7420  -16.9158   27.1034 C   0  0  2  0  0  0  0  0  0  0  0  0
    9.0862  -15.6517   26.7476 N   0  0  0  0  0  0  0  0  0  0  0  0
   10.2904  -16.8543   28.4721 C   0  0  0  0  0  0  0  0  0  0  0  0
   10.6200  -15.7546   28.9747 O   0  0  0  0  0  0  0  0  0  0  0  0
   10.4695  -17.9920   29.2680 O   0  0  0  0  0  0  0  0  0  0  0  0
  2  1  1  6
  2  5  1  0
  2  3  1  0
  4  3  1  0
  5  6  2  0
  7  8  1  0
  7  5  1  0
  8 11  1  0
  9 10  1  0
  8  9  1  1
 11 12  2  0
 11 19  1  0
 13 14  1  0
 14 15  2  0
 16 17  1  0
 16 14  1  0
 18 20  1  0
 18 17  1  6
 19 18  1  0
 20 22  1  0
 21 20  2  0
M  END
$$$$
