CCQ.pdb
     RDKit          3D

 22 21  0  0  1  0  0  0  0  0999 V2000
    8.0309  -12.9780   19.8647 N   0  0  0  0  0  0  0  0  0  0  0  0
    7.2905  -13.6279   20.8987 C   0  0  1  0  0  0  0  0  0  0  0  0
    7.0354  -15.0617   20.4864 C   0  0  0  0  0  0  0  0  0  0  0  0
    6.1748  -15.9467   21.8244 S   0  0  0  0  0  0  0  0  0  0  0  0
    8.0599  -13.6919   22.1843 C   0  0  0  0  0  0  0  0  0  0  0  0
    9.2858  -13.9557   22.0886 O   0  0  0  0  0  0  0  0  0  0  0  0
    7.4542  -13.4706   23.4349 N   0  0  0  0  0  0  0  0  0  0  0  0
    8.2527  -13.5303   24.6654 C   0  0  1  0  0  0  0  0  0  0  0  0
    7.4252  -12.7735   25.6977 C   0  0  0  0  0  0  0  0  0  0  0  0
    5.7715  -13.4232   25.9011 S   0  0  0  0  0  0  0  0  0  0  0  0
    8.4163  -14.9571   25.0824 C   0  0  0  0  0  0  0  0  0  0  0  0
    7.4238  -15.7548   24.9632 O   0  0  0  0  0  0  0  0  0  0  0  0
   12.3662  -20.8757   24.3818 N   0  0  0  0  0  0  0  0  0  0  0  0
   12.0640  -19.4894   24.3677 C   0  0  0  0  0  0  0  0  0  0  0  0
   12.6421  -18.7462   23.5497 O   0  0  0  0  0  0  0  0  0  0  0  0
   11.0797  -18.9630   25.3168 C   0  0  0  0  0  0  0  0  0  0  0  0
   10.7540  -17.5345   25.0878 C   0  0  0  0  0  0  0  0  0  0  0  0
    9.6986  -16.9367   25.9500 C   0  0  2  0  0  0  0  0  0  0  0  0
    9.5947  -15.5136   25.6062 N   0  0  0  0  0  0  0  0  0  0  0  0
    9.9041  -17.1115   27.4009 C   0  0  0  0  0  0  0  0  0  0  0  0
   10.1101  -16.1181   28.1367 O   0  0  0  0  0  0  0  0  0  0  0  0
    9.8813  -18.3652   28.0235 O   0  0  0  0  0  0  0  0  0  0  0  0
  2  1  1  6
  2  5  1  0
  2  3  1  0
  4  3  1  0
  5  6  2  0
  7  8  1  0
  7  5  1  0
  8 11  1  0
  9 10  1  0
  8  9  1  1
 11 12  2  0
 11 19  1  0
 13 14  1  0
 14 15  2  0
 16 17  1  0
 16 14  1  0
 18 20  1  0
 18 17  1  6
 19 18  1  0
 20 22  1  0
 21 20  2  0
M  END
$$$$
