CCQ.pdb
     RDKit          3D

 22 21  0  0  1  0  0  0  0  0999 V2000
    5.4262  -19.7465   21.8098 N   0  0  0  0  0  0  0  0  0  0  0  0
    5.8547  -18.7151   22.6998 C   0  0  1  0  0  0  0  0  0  0  0  0
    6.3056  -19.3495   23.9979 C   0  0  0  0  0  0  0  0  0  0  0  0
    5.4592  -20.9437   24.2345 S   0  0  0  0  0  0  0  0  0  0  0  0
    7.0396  -17.9682   22.1643 C   0  0  0  0  0  0  0  0  0  0  0  0
    7.2499  -18.0674   20.9283 O   0  0  0  0  0  0  0  0  0  0  0  0
    7.8774  -17.1957   22.9896 N   0  0  0  0  0  0  0  0  0  0  0  0
    8.3404  -15.8751   22.5461 C   0  0  1  0  0  0  0  0  0  0  0  0
    7.0640  -15.0647   22.3539 C   0  0  0  0  0  0  0  0  0  0  0  0
    7.3411  -13.4651   21.6039 S   0  0  0  0  0  0  0  0  0  0  0  0
    9.1847  -15.2598   23.6161 C   0  0  0  0  0  0  0  0  0  0  0  0
    9.6656  -14.0897   23.4293 O   0  0  0  0  0  0  0  0  0  0  0  0
    6.6599  -11.6492   26.7024 N   0  0  0  0  0  0  0  0  0  0  0  0
    6.3058  -13.0093   26.5076 C   0  0  0  0  0  0  0  0  0  0  0  0
    5.2936  -13.2868   25.8337 O   0  0  0  0  0  0  0  0  0  0  0  0
    7.1381  -14.0569   27.1048 C   0  0  0  0  0  0  0  0  0  0  0  0
    7.6693  -15.0188   26.1091 C   0  0  0  0  0  0  0  0  0  0  0  0
    9.1363  -15.2688   26.1288 C   0  0  2  0  0  0  0  0  0  0  0  0
    9.5039  -15.8690   24.8408 N   0  0  0  0  0  0  0  0  0  0  0  0
    9.6130  -16.1017   27.2499 C   0  0  0  0  0  0  0  0  0  0  0  0
    9.6508  -15.6380   28.4136 O   0  0  0  0  0  0  0  0  0  0  0  0
   10.0398  -17.4245   27.0827 O   0  0  0  0  0  0  0  0  0  0  0  0
  2  1  1  6
  2  5  1  0
  2  3  1  0
  4  3  1  0
  5  6  2  0
  7  8  1  0
  7  5  1  0
  8 11  1  0
  9 10  1  0
  8  9  1  1
 11 12  2  0
 11 19  1  0
 13 14  1  0
 14 15  2  0
 16 17  1  0
 16 14  1  0
 18 20  1  0
 18 17  1  6
 19 18  1  0
 20 22  1  0
 21 20  2  0
M  END
$$$$
