CCQ.pdb
     RDKit          3D

 22 21  0  0  1  0  0  0  0  0999 V2000
    8.0174  -12.5422   19.2168 N   0  0  0  0  0  0  0  0  0  0  0  0
    7.4394  -13.5003   20.1042 C   0  0  1  0  0  0  0  0  0  0  0  0
    7.5719  -14.8762   19.4874 C   0  0  0  0  0  0  0  0  0  0  0  0
    6.6712  -14.9350   17.9065 S   0  0  0  0  0  0  0  0  0  0  0  0
    8.1628  -13.5576   21.4165 C   0  0  0  0  0  0  0  0  0  0  0  0
    9.0474  -12.6838   21.6049 O   0  0  0  0  0  0  0  0  0  0  0  0
    7.8761  -14.5310   22.3913 N   0  0  0  0  0  0  0  0  0  0  0  0
    8.5791  -14.5181   23.6800 C   0  0  1  0  0  0  0  0  0  0  0  0
    8.0457  -13.2831   24.3965 C   0  0  0  0  0  0  0  0  0  0  0  0
    6.2934  -13.3621   24.7447 S   0  0  0  0  0  0  0  0  0  0  0  0
    8.2282  -15.7515   24.4494 C   0  0  0  0  0  0  0  0  0  0  0  0
    7.1702  -16.3974   24.1350 O   0  0  0  0  0  0  0  0  0  0  0  0
   11.1055  -18.2702   21.5686 N   0  0  0  0  0  0  0  0  0  0  0  0
   11.7799  -18.9494   22.6161 C   0  0  0  0  0  0  0  0  0  0  0  0
   12.8030  -19.6131   22.3549 O   0  0  0  0  0  0  0  0  0  0  0  0
   11.2567  -18.8556   23.9815 C   0  0  0  0  0  0  0  0  0  0  0  0
   10.4585  -17.6284   24.2178 C   0  0  0  0  0  0  0  0  0  0  0  0
    9.6128  -17.5992   25.4419 C   0  0  2  0  0  0  0  0  0  0  0  0
    8.9780  -16.2777   25.5142 N   0  0  0  0  0  0  0  0  0  0  0  0
   10.3218  -17.9091   26.6986 C   0  0  0  0  0  0  0  0  0  0  0  0
   10.3541  -19.0831   27.1359 O   0  0  0  0  0  0  0  0  0  0  0  0
   10.9824  -16.9343   27.4557 O   0  0  0  0  0  0  0  0  0  0  0  0
  2  1  1  6
  2  5  1  0
  2  3  1  0
  4  3  1  0
  5  6  2  0
  7  8  1  0
  7  5  1  0
  8 11  1  0
  9 10  1  0
  8  9  1  1
 11 12  2  0
 11 19  1  0
 13 14  1  0
 14 15  2  0
 16 17  1  0
 16 14  1  0
 18 20  1  0
 18 17  1  6
 19 18  1  0
 20 22  1  0
 21 20  2  0
M  END
$$$$
