CCQ.pdb
     RDKit          3D

 22 21  0  0  1  0  0  0  0  0999 V2000
    8.0701  -18.0359   16.6722 N   0  0  0  0  0  0  0  0  0  0  0  0
    7.4472  -17.6054   17.8831 C   0  0  1  0  0  0  0  0  0  0  0  0
    7.1022  -18.8237   18.7122 C   0  0  0  0  0  0  0  0  0  0  0  0
    6.2756  -18.3113   20.2511 S   0  0  0  0  0  0  0  0  0  0  0  0
    8.3693  -16.7735   18.7235 C   0  0  0  0  0  0  0  0  0  0  0  0
    9.5803  -17.1129   18.7267 O   0  0  0  0  0  0  0  0  0  0  0  0
    7.9160  -15.6715   19.4718 N   0  0  0  0  0  0  0  0  0  0  0  0
    8.8590  -14.8830   20.2744 C   0  0  1  0  0  0  0  0  0  0  0  0
    8.2840  -13.4715   20.2666 C   0  0  0  0  0  0  0  0  0  0  0  0
    6.4991  -13.4294   20.1640 S   0  0  0  0  0  0  0  0  0  0  0  0
    8.8912  -15.4181   21.6705 C   0  0  0  0  0  0  0  0  0  0  0  0
    7.8557  -16.0111   22.1304 O   0  0  0  0  0  0  0  0  0  0  0  0
   11.6243  -19.2862   20.2449 N   0  0  0  0  0  0  0  0  0  0  0  0
   11.9014  -19.6647   21.5840 C   0  0  0  0  0  0  0  0  0  0  0  0
   12.4638  -20.7554   21.8069 O   0  0  0  0  0  0  0  0  0  0  0  0
   11.5183  -18.7645   22.6748 C   0  0  0  0  0  0  0  0  0  0  0  0
   10.8817  -17.5117   22.2013 C   0  0  0  0  0  0  0  0  0  0  0  0
   10.5341  -16.4992   23.2351 C   0  0  2  0  0  0  0  0  0  0  0  0
    9.9872  -15.3255   22.5440 N   0  0  0  0  0  0  0  0  0  0  0  0
   11.6435  -16.1117   24.1278 C   0  0  0  0  0  0  0  0  0  0  0  0
   11.6787  -16.5225   25.3113 O   0  0  0  0  0  0  0  0  0  0  0  0
   12.6941  -15.2836   23.7148 O   0  0  0  0  0  0  0  0  0  0  0  0
  2  1  1  6
  2  5  1  0
  2  3  1  0
  4  3  1  0
  5  6  2  0
  7  8  1  0
  7  5  1  0
  8 11  1  0
  9 10  1  0
  8  9  1  1
 11 12  2  0
 11 19  1  0
 13 14  1  0
 14 15  2  0
 16 17  1  0
 16 14  1  0
 18 20  1  0
 18 17  1  6
 19 18  1  0
 20 22  1  0
 21 20  2  0
M  END
$$$$
