CCQ.pdb
     RDKit          3D

 22 21  0  0  1  0  0  0  0  0999 V2000
    8.7629  -17.6485   16.3848 N   0  0  0  0  0  0  0  0  0  0  0  0
    7.9118  -17.2134   17.4459 C   0  0  1  0  0  0  0  0  0  0  0  0
    7.2586  -18.4258   18.0736 C   0  0  0  0  0  0  0  0  0  0  0  0
    5.9150  -19.0286   17.0033 S   0  0  0  0  0  0  0  0  0  0  0  0
    8.6815  -16.5375   18.5412 C   0  0  0  0  0  0  0  0  0  0  0  0
    9.9122  -16.7902   18.5965 O   0  0  0  0  0  0  0  0  0  0  0  0
    8.0710  -15.6664   19.4623 N   0  0  0  0  0  0  0  0  0  0  0  0
    8.8721  -15.0062   20.5002 C   0  0  1  0  0  0  0  0  0  0  0  0
    8.0490  -13.7890   20.9049 C   0  0  0  0  0  0  0  0  0  0  0  0
    6.4555  -14.2054   21.6016 S   0  0  0  0  0  0  0  0  0  0  0  0
    9.0331  -15.9295   21.6655 C   0  0  0  0  0  0  0  0  0  0  0  0
    8.3317  -16.9979   21.7105 O   0  0  0  0  0  0  0  0  0  0  0  0
   12.2465  -19.4550   20.6654 N   0  0  0  0  0  0  0  0  0  0  0  0
   12.4978  -19.7497   22.0304 C   0  0  0  0  0  0  0  0  0  0  0  0
   13.2189  -20.7245   22.3225 O   0  0  0  0  0  0  0  0  0  0  0  0
   11.9022  -18.9012   23.0659 C   0  0  0  0  0  0  0  0  0  0  0  0
   11.1423  -17.7535   22.5142 C   0  0  0  0  0  0  0  0  0  0  0  0
   10.4984  -16.8373   23.4944 C   0  0  2  0  0  0  0  0  0  0  0  0
    9.9101  -15.7221   22.7429 N   0  0  0  0  0  0  0  0  0  0  0  0
   11.3881  -16.3385   24.5610 C   0  0  0  0  0  0  0  0  0  0  0  0
   11.9025  -15.1988   24.4769 O   0  0  0  0  0  0  0  0  0  0  0  0
   11.7008  -17.0906   25.6997 O   0  0  0  0  0  0  0  0  0  0  0  0
  2  1  1  6
  2  5  1  0
  2  3  1  0
  4  3  1  0
  5  6  2  0
  7  8  1  0
  7  5  1  0
  8 11  1  0
  9 10  1  0
  8  9  1  1
 11 12  2  0
 11 19  1  0
 13 14  1  0
 14 15  2  0
 16 17  1  0
 16 14  1  0
 18 20  1  0
 18 17  1  6
 19 18  1  0
 20 22  1  0
 21 20  2  0
M  END
$$$$
