MAG.pdb
     RDKit          3D

 18 17  0  0  1  0  0  0  0  0999 V2000
    7.4556  -11.2456   26.1806 C   0  0  0  0  0  0  0  0  0  0  0  0
    7.5908  -12.3109   27.6208 S   0  0  0  0  0  0  0  0  0  0  0  0
    6.8730  -13.9605   27.2741 C   0  0  0  0  0  0  0  0  0  0  0  0
    7.3507  -14.3706   25.9203 C   0  0  0  0  0  0  0  0  0  0  0  0
    6.7789  -15.6674   25.4195 C   0  0  2  0  0  0  0  0  0  0  0  0
    7.1121  -16.7238   26.3530 N   0  0  0  0  0  0  0  0  0  0  0  0
    7.2215  -16.0634   24.0802 C   0  0  0  0  0  0  0  0  0  0  0  0
    7.5414  -17.2474   23.7548 O   0  0  0  0  0  0  0  0  0  0  0  0
    7.3518  -14.4831   20.6283 C   0  0  0  0  0  0  0  0  0  0  0  0
    7.7433  -15.4842   21.6864 C   0  0  2  0  0  0  0  0  0  0  0  0
    7.3292  -15.1163   23.0074 N   0  0  0  0  0  0  0  0  0  0  0  0
    9.2195  -15.5524   21.6796 C   0  0  0  0  0  0  0  0  0  0  0  0
    9.8006  -15.9663   20.6540 O   0  0  0  0  0  0  0  0  0  0  0  0
   10.0030  -15.1620   22.8032 N   0  0  0  0  0  0  0  0  0  0  0  0
   11.4213  -15.0029   22.6867 C   0  0  0  0  0  0  0  0  0  0  0  0
   12.1171  -16.2364   23.1200 C   0  0  0  0  0  0  0  0  0  0  0  0
   11.3963  -17.2562   23.3783 O   0  0  0  0  0  0  0  0  0  0  0  0
   13.4887  -16.3416   23.2581 O   0  0  0  0  0  0  0  0  0  0  0  0
  2  3  1  0
  2  1  1  0
  4  3  1  0
  5  4  1  0
  5  6  1  1
  7  5  1  0
  7 11  1  0
  8  7  2  0
 10  9  1  6
 10 11  1  0
 10 12  1  0
 12 14  1  0
 12 13  2  0
 14 15  1  0
 15 16  1  0
 16 18  1  0
 17 16  2  0
M  END
$$$$
