MAG.pdb
     RDKit          3D

 18 17  0  0  1  0  0  0  0  0999 V2000
    6.2600  -11.2471   26.3476 C   0  0  0  0  0  0  0  0  0  0  0  0
    7.0682  -12.3133   27.5464 S   0  0  0  0  0  0  0  0  0  0  0  0
    6.6960  -14.0735   27.2003 C   0  0  0  0  0  0  0  0  0  0  0  0
    7.2975  -14.3958   25.8724 C   0  0  0  0  0  0  0  0  0  0  0  0
    7.0009  -15.7807   25.3688 C   0  0  2  0  0  0  0  0  0  0  0  0
    7.5555  -16.7494   26.2922 N   0  0  0  0  0  0  0  0  0  0  0  0
    7.5014  -16.0708   24.0228 C   0  0  0  0  0  0  0  0  0  0  0  0
    8.1477  -17.1174   23.7114 O   0  0  0  0  0  0  0  0  0  0  0  0
    7.1061  -14.5089   20.5617 C   0  0  0  0  0  0  0  0  0  0  0  0
    7.6184  -15.5043   21.5725 C   0  0  2  0  0  0  0  0  0  0  0  0
    7.2924  -15.1687   22.9265 N   0  0  0  0  0  0  0  0  0  0  0  0
    9.0912  -15.5107   21.4521 C   0  0  0  0  0  0  0  0  0  0  0  0
    9.6068  -15.8326   20.3606 O   0  0  0  0  0  0  0  0  0  0  0  0
    9.9436  -15.1622   22.5386 N   0  0  0  0  0  0  0  0  0  0  0  0
   11.3671  -15.1655   22.3824 C   0  0  0  0  0  0  0  0  0  0  0  0
   11.9367  -16.4453   22.8631 C   0  0  0  0  0  0  0  0  0  0  0  0
   11.1187  -17.3825   23.1439 O   0  0  0  0  0  0  0  0  0  0  0  0
   13.2905  -16.6767   23.0220 O   0  0  0  0  0  0  0  0  0  0  0  0
  2  3  1  0
  2  1  1  0
  4  3  1  0
  5  4  1  0
  5  6  1  1
  7  5  1  0
  7 11  1  0
  8  7  2  0
 10  9  1  6
 10 11  1  0
 10 12  1  0
 12 14  1  0
 12 13  2  0
 14 15  1  0
 15 16  1  0
 16 18  1  0
 17 16  2  0
M  END
$$$$
