MAG.pdb
     RDKit          3D

 18 17  0  0  1  0  0  0  0  0999 V2000
    7.3595  -10.9015   27.1500 C   0  0  0  0  0  0  0  0  0  0  0  0
    6.1183  -12.1068   27.6337 S   0  0  0  0  0  0  0  0  0  0  0  0
    6.7370  -13.8115   27.3734 C   0  0  0  0  0  0  0  0  0  0  0  0
    6.3779  -14.1997   25.9772 C   0  0  0  0  0  0  0  0  0  0  0  0
    7.2721  -15.2421   25.3662 C   0  0  2  0  0  0  0  0  0  0  0  0
    8.6541  -14.8824   25.6097 N   0  0  0  0  0  0  0  0  0  0  0  0
    7.0851  -15.4530   23.9285 C   0  0  0  0  0  0  0  0  0  0  0  0
    6.1514  -16.1488   23.4243 O   0  0  0  0  0  0  0  0  0  0  0  0
    8.0861  -13.8992   20.6987 C   0  0  0  0  0  0  0  0  0  0  0  0
    7.8440  -15.1196   21.5513 C   0  0  2  0  0  0  0  0  0  0  0  0
    7.9677  -14.8729   22.9569 N   0  0  0  0  0  0  0  0  0  0  0  0
    8.8742  -16.1101   21.1754 C   0  0  0  0  0  0  0  0  0  0  0  0
    8.9434  -16.4886   19.9867 O   0  0  0  0  0  0  0  0  0  0  0  0
    9.7916  -16.6485   22.1225 N   0  0  0  0  0  0  0  0  0  0  0  0
   10.7363  -17.6532   21.7371 C   0  0  0  0  0  0  0  0  0  0  0  0
   12.0904  -17.0672   21.6084 C   0  0  0  0  0  0  0  0  0  0  0  0
   12.2395  -16.1126   20.7761 O   0  0  0  0  0  0  0  0  0  0  0  0
   13.1884  -17.4934   22.3326 O   0  0  0  0  0  0  0  0  0  0  0  0
  2  3  1  0
  2  1  1  0
  4  3  1  0
  5  4  1  0
  5  6  1  6
  7  5  1  0
  7 11  1  0
  8  7  2  0
 10  9  1  6
 10 11  1  0
 10 12  1  0
 12 14  1  0
 12 13  2  0
 14 15  1  0
 15 16  1  0
 16 18  1  0
 17 16  2  0
M  END
$$$$
