MAG.pdb
     RDKit          3D

 18 17  0  0  1  0  0  0  0  0999 V2000
    7.4814  -11.6626   26.2172 C   0  0  0  0  0  0  0  0  0  0  0  0
    6.2404  -12.4933   27.2157 S   0  0  0  0  0  0  0  0  0  0  0  0
    6.4620  -14.3104   27.1422 C   0  0  0  0  0  0  0  0  0  0  0  0
    7.2528  -14.6060   25.9110 C   0  0  0  0  0  0  0  0  0  0  0  0
    6.8149  -15.8347   25.1639 C   0  0  2  0  0  0  0  0  0  0  0  0
    7.0588  -17.0016   25.9870 N   0  0  0  0  0  0  0  0  0  0  0  0
    7.4591  -16.0312   23.8629 C   0  0  0  0  0  0  0  0  0  0  0  0
    8.1691  -17.0391   23.5625 O   0  0  0  0  0  0  0  0  0  0  0  0
    7.4531  -14.2379   20.4893 C   0  0  0  0  0  0  0  0  0  0  0  0
    7.8471  -15.3000   21.4852 C   0  0  2  0  0  0  0  0  0  0  0  0
    7.3321  -15.0726   22.8025 N   0  0  0  0  0  0  0  0  0  0  0  0
    9.3223  -15.2767   21.5681 C   0  0  0  0  0  0  0  0  0  0  0  0
    9.9887  -15.4204   20.5211 O   0  0  0  0  0  0  0  0  0  0  0  0
   10.0110  -15.0960   22.8017 N   0  0  0  0  0  0  0  0  0  0  0  0
   11.4422  -15.0847   22.8462 C   0  0  0  0  0  0  0  0  0  0  0  0
   11.9677  -16.4670   22.9267 C   0  0  0  0  0  0  0  0  0  0  0  0
   11.1246  -17.4204   22.8463 O   0  0  0  0  0  0  0  0  0  0  0  0
   13.3062  -16.7766   23.0823 O   0  0  0  0  0  0  0  0  0  0  0  0
  2  3  1  0
  2  1  1  0
  4  3  1  0
  5  4  1  0
  5  6  1  1
  7  5  1  0
  7 11  1  0
  8  7  2  0
 10  9  1  6
 10 11  1  0
 10 12  1  0
 12 14  1  0
 12 13  2  0
 14 15  1  0
 15 16  1  0
 16 18  1  0
 17 16  2  0
M  END
$$$$
