MAG.pdb
     RDKit          3D

 18 17  0  0  1  0  0  0  0  0999 V2000
    5.3905  -11.5826   26.5975 C   0  0  0  0  0  0  0  0  0  0  0  0
    6.8234  -12.5700   27.0436 S   0  0  0  0  0  0  0  0  0  0  0  0
    7.6280  -13.2544   25.5467 C   0  0  0  0  0  0  0  0  0  0  0  0
    7.8605  -14.7073   25.7995 C   0  0  0  0  0  0  0  0  0  0  0  0
    7.2464  -15.6273   24.7816 C   0  0  2  0  0  0  0  0  0  0  0  0
    6.3207  -16.5204   25.4478 N   0  0  0  0  0  0  0  0  0  0  0  0
    8.2032  -16.4266   24.0121 C   0  0  0  0  0  0  0  0  0  0  0  0
    8.5598  -17.6049   24.3198 O   0  0  0  0  0  0  0  0  0  0  0  0
    9.9027  -16.1210   20.6159 C   0  0  0  0  0  0  0  0  0  0  0  0
    9.6386  -16.7368   21.9672 C   0  0  2  0  0  0  0  0  0  0  0  0
    8.8252  -15.9233   22.8209 N   0  0  0  0  0  0  0  0  0  0  0  0
   10.9531  -16.9024   22.6216 C   0  0  0  0  0  0  0  0  0  0  0  0
   11.7404  -17.7689   22.1854 O   0  0  0  0  0  0  0  0  0  0  0  0
   11.3537  -16.1073   23.7333 N   0  0  0  0  0  0  0  0  0  0  0  0
   12.5363  -16.4280   24.4744 C   0  0  0  0  0  0  0  0  0  0  0  0
   13.7164  -15.7602   23.8788 C   0  0  0  0  0  0  0  0  0  0  0  0
   13.5987  -15.3111   22.6911 O   0  0  0  0  0  0  0  0  0  0  0  0
   14.9242  -15.5989   24.5322 O   0  0  0  0  0  0  0  0  0  0  0  0
  2  3  1  0
  2  1  1  0
  4  3  1  0
  5  4  1  0
  5  6  1  1
  7  5  1  0
  7 11  1  0
  8  7  2  0
 10  9  1  6
 10 11  1  0
 10 12  1  0
 12 14  1  0
 12 13  2  0
 14 15  1  0
 15 16  1  0
 16 18  1  0
 17 16  2  0
M  END
$$$$
