MAG.pdb
     RDKit          3D

 18 17  0  0  1  0  0  0  0  0999 V2000
    7.2517  -11.1889   26.5567 C   0  0  0  0  0  0  0  0  0  0  0  0
    5.9092  -12.3170   26.9471 S   0  0  0  0  0  0  0  0  0  0  0  0
    6.2186  -13.9678   26.2153 C   0  0  0  0  0  0  0  0  0  0  0  0
    6.5247  -13.7559   24.7694 C   0  0  0  0  0  0  0  0  0  0  0  0
    7.2187  -14.9086   24.0995 C   0  0  2  0  0  0  0  0  0  0  0  0
    6.6832  -16.1505   24.6188 N   0  0  0  0  0  0  0  0  0  0  0  0
    8.6763  -14.9244   24.2468 C   0  0  0  0  0  0  0  0  0  0  0  0
    9.3808  -13.8972   24.4887 O   0  0  0  0  0  0  0  0  0  0  0  0
   10.9932  -16.0377   26.0304 C   0  0  0  0  0  0  0  0  0  0  0  0
   10.8012  -16.2406   24.5482 C   0  0  2  0  0  0  0  0  0  0  0  0
    9.4366  -16.1354   24.1253 N   0  0  0  0  0  0  0  0  0  0  0  0
   11.2625  -17.6113   24.2449 C   0  0  0  0  0  0  0  0  0  0  0  0
   12.3223  -18.0210   24.7643 O   0  0  0  0  0  0  0  0  0  0  0  0
   10.5396  -18.4820   23.3800 N   0  0  0  0  0  0  0  0  0  0  0  0
   10.7683  -18.4654   21.9666 C   0  0  0  0  0  0  0  0  0  0  0  0
   12.0424  -19.1467   21.6412 C   0  0  0  0  0  0  0  0  0  0  0  0
   13.0558  -18.8719   22.3649 O   0  0  0  0  0  0  0  0  0  0  0  0
   12.1915  -20.0536   20.6082 O   0  0  0  0  0  0  0  0  0  0  0  0
  2  3  1  0
  2  1  1  0
  4  3  1  0
  5  4  1  0
  5  6  1  1
  7  5  1  0
  7 11  1  0
  8  7  2  0
 10  9  1  1
 10 11  1  0
 10 12  1  0
 12 14  1  0
 12 13  2  0
 14 15  1  0
 15 16  1  0
 16 18  1  0
 17 16  2  0
M  END
$$$$
