MAG.pdb
     RDKit          3D

 18 17  0  0  1  0  0  0  0  0999 V2000
    7.8185  -11.1759   27.3757 C   0  0  0  0  0  0  0  0  0  0  0  0
    6.3504  -12.2008   27.5226 S   0  0  0  0  0  0  0  0  0  0  0  0
    6.7436  -13.9505   27.1478 C   0  0  0  0  0  0  0  0  0  0  0  0
    6.4347  -14.1696   25.7037 C   0  0  0  0  0  0  0  0  0  0  0  0
    6.9040  -15.4878   25.1546 C   0  0  2  0  0  0  0  0  0  0  0  0
    8.1606  -15.8421   25.7824 N   0  0  0  0  0  0  0  0  0  0  0  0
    7.0748  -15.5276   23.7001 C   0  0  0  0  0  0  0  0  0  0  0  0
    6.1435  -15.3125   22.8655 O   0  0  0  0  0  0  0  0  0  0  0  0
    8.3165  -14.3139   21.1472 C   0  0  0  0  0  0  0  0  0  0  0  0
    8.5760  -15.6985   21.6862 C   0  0  2  0  0  0  0  0  0  0  0  0
    8.3423  -15.8207   23.0942 N   0  0  0  0  0  0  0  0  0  0  0  0
   10.0038  -15.9884   21.4397 C   0  0  0  0  0  0  0  0  0  0  0  0
   10.4736  -15.7858   20.2999 O   0  0  0  0  0  0  0  0  0  0  0  0
   10.8635  -16.4914   22.4579 N   0  0  0  0  0  0  0  0  0  0  0  0
   12.0756  -17.1752   22.1206 C   0  0  0  0  0  0  0  0  0  0  0  0
   12.8690  -17.4525   23.3401 C   0  0  0  0  0  0  0  0  0  0  0  0
   12.2271  -17.7238   24.4081 O   0  0  0  0  0  0  0  0  0  0  0  0
   14.2508  -17.4336   23.3834 O   0  0  0  0  0  0  0  0  0  0  0  0
  2  3  1  0
  2  1  1  0
  4  3  1  0
  5  4  1  0
  5  6  1  1
  7  5  1  0
  7 11  1  0
  8  7  2  0
 10  9  1  1
 10 11  1  0
 10 12  1  0
 12 14  1  0
 12 13  2  0
 14 15  1  0
 15 16  1  0
 16 18  1  0
 17 16  2  0
M  END
$$$$
