MAG.pdb
     RDKit          3D

 18 17  0  0  1  0  0  0  0  0999 V2000
    7.8607  -11.7366   27.4148 C   0  0  0  0  0  0  0  0  0  0  0  0
    6.2662  -12.0136   26.6349 S   0  0  0  0  0  0  0  0  0  0  0  0
    5.9661  -13.8051   26.3961 C   0  0  0  0  0  0  0  0  0  0  0  0
    7.1285  -14.3461   25.6312 C   0  0  0  0  0  0  0  0  0  0  0  0
    6.9688  -15.7676   25.1693 C   0  0  2  0  0  0  0  0  0  0  0  0
    6.8981  -16.6365   26.3263 N   0  0  0  0  0  0  0  0  0  0  0  0
    8.0262  -16.2521   24.2786 C   0  0  0  0  0  0  0  0  0  0  0  0
    9.0650  -16.8661   24.6711 O   0  0  0  0  0  0  0  0  0  0  0  0
    8.7246  -16.1993   20.5194 C   0  0  0  0  0  0  0  0  0  0  0  0
    9.0144  -16.4749   21.9737 C   0  0  2  0  0  0  0  0  0  0  0  0
    7.9647  -16.0633   22.8573 N   0  0  0  0  0  0  0  0  0  0  0  0
   10.2239  -15.6994   22.3191 C   0  0  0  0  0  0  0  0  0  0  0  0
   10.2885  -14.4983   21.9813 O   0  0  0  0  0  0  0  0  0  0  0  0
   11.3194  -16.2747   23.0245 N   0  0  0  0  0  0  0  0  0  0  0  0
   12.4847  -15.4989   23.3257 C   0  0  0  0  0  0  0  0  0  0  0  0
   13.7090  -16.2258   22.9183 C   0  0  0  0  0  0  0  0  0  0  0  0
   13.6376  -16.9562   21.8753 O   0  0  0  0  0  0  0  0  0  0  0  0
   14.9107  -16.1565   23.5985 O   0  0  0  0  0  0  0  0  0  0  0  0
  2  3  1  0
  2  1  1  0
  4  3  1  0
  5  4  1  0
  5  6  1  1
  7  5  1  0
  7 11  1  0
  8  7  2  0
 10  9  1  6
 10 11  1  0
 10 12  1  0
 12 14  1  0
 12 13  2  0
 14 15  1  0
 15 16  1  0
 16 18  1  0
 17 16  2  0
M  END
$$$$
