MAG.pdb
     RDKit          3D

 18 17  0  0  1  0  0  0  0  0999 V2000
    9.4613  -13.0730   29.4770 C   0  0  0  0  0  0  0  0  0  0  0  0
    9.6998  -13.8603   27.8799 S   0  0  0  0  0  0  0  0  0  0  0  0
    8.1045  -14.4658   27.2132 C   0  0  0  0  0  0  0  0  0  0  0  0
    8.3689  -14.9680   25.8323 C   0  0  0  0  0  0  0  0  0  0  0  0
    7.1766  -15.5738   25.1460 C   0  0  2  0  0  0  0  0  0  0  0  0
    6.8476  -16.8297   25.7886 N   0  0  0  0  0  0  0  0  0  0  0  0
    7.3413  -15.8072   23.7091 C   0  0  0  0  0  0  0  0  0  0  0  0
    7.4213  -16.9563   23.1768 O   0  0  0  0  0  0  0  0  0  0  0  0
    7.1572  -13.6723   20.5614 C   0  0  0  0  0  0  0  0  0  0  0  0
    7.4358  -14.9258   21.3526 C   0  0  2  0  0  0  0  0  0  0  0  0
    7.4269  -14.7246   22.7709 N   0  0  0  0  0  0  0  0  0  0  0  0
    8.7904  -15.3759   20.9701 C   0  0  0  0  0  0  0  0  0  0  0  0
    9.0218  -15.6454   19.7723 O   0  0  0  0  0  0  0  0  0  0  0  0
    9.8419  -15.5132   21.9209 N   0  0  0  0  0  0  0  0  0  0  0  0
   11.1165  -16.0375   21.5322 C   0  0  0  0  0  0  0  0  0  0  0  0
   12.0451  -16.0468   22.6858 C   0  0  0  0  0  0  0  0  0  0  0  0
   11.5349  -16.1686   23.8483 O   0  0  0  0  0  0  0  0  0  0  0  0
   13.4183  -15.9322   22.5729 O   0  0  0  0  0  0  0  0  0  0  0  0
  2  3  1  0
  2  1  1  0
  4  3  1  0
  5  4  1  0
  5  6  1  1
  7  5  1  0
  7 11  1  0
  8  7  2  0
 10  9  1  6
 10 11  1  0
 10 12  1  0
 12 14  1  0
 12 13  2  0
 14 15  1  0
 15 16  1  0
 16 18  1  0
 17 16  2  0
M  END
$$$$
