MAG.pdb
     RDKit          3D

 18 17  0  0  1  0  0  0  0  0999 V2000
    7.1477  -11.4205   26.1483 C   0  0  0  0  0  0  0  0  0  0  0  0
    6.1913  -12.7398   26.9045 S   0  0  0  0  0  0  0  0  0  0  0  0
    7.2860  -14.1105   27.4330 C   0  0  0  0  0  0  0  0  0  0  0  0
    7.9171  -14.6677   26.2000 C   0  0  0  0  0  0  0  0  0  0  0  0
    7.0429  -15.6072   25.4174 C   0  0  2  0  0  0  0  0  0  0  0  0
    6.7995  -16.7967   26.2075 N   0  0  0  0  0  0  0  0  0  0  0  0
    7.5758  -16.0075   24.1128 C   0  0  0  0  0  0  0  0  0  0  0  0
    8.2971  -17.0336   23.9203 O   0  0  0  0  0  0  0  0  0  0  0  0
    7.0236  -14.9701   20.4942 C   0  0  0  0  0  0  0  0  0  0  0  0
    7.7323  -15.6781   21.6217 C   0  0  2  0  0  0  0  0  0  0  0  0
    7.3151  -15.2485   22.9230 N   0  0  0  0  0  0  0  0  0  0  0  0
    9.1694  -15.3634   21.4827 C   0  0  0  0  0  0  0  0  0  0  0  0
    9.5398  -14.6347   20.5379 O   0  0  0  0  0  0  0  0  0  0  0  0
   10.1475  -15.8628   22.3897 N   0  0  0  0  0  0  0  0  0  0  0  0
   11.5318  -15.5346   22.2271 C   0  0  0  0  0  0  0  0  0  0  0  0
   12.3321  -16.1071   23.3340 C   0  0  0  0  0  0  0  0  0  0  0  0
   11.7239  -16.8482   24.1750 O   0  0  0  0  0  0  0  0  0  0  0  0
   13.6862  -15.8848   23.5033 O   0  0  0  0  0  0  0  0  0  0  0  0
  2  3  1  0
  2  1  1  0
  4  3  1  0
  5  4  1  0
  5  6  1  1
  7  5  1  0
  7 11  1  0
  8  7  2  0
 10  9  1  6
 10 11  1  0
 10 12  1  0
 12 14  1  0
 12 13  2  0
 14 15  1  0
 15 16  1  0
 16 18  1  0
 17 16  2  0
M  END
$$$$
