FQW.pdb
     RDKit          3D

 35 37  0  0  1  0  0  0  0  0999 V2000
   28.9779  -22.4662  -17.3669 N   0  0  0  0  0  0  0  0  0  0  0  0
   29.3476  -22.6855  -15.9730 C   0  0  1  0  0  0  0  0  0  0  0  0
   30.8374  -22.3294  -15.8822 C   0  0  0  0  0  0  0  0  0  0  0  0
   31.5695  -23.4576  -16.4881 C   0  0  0  0  0  0  0  0  0  0  0  0
   32.2459  -23.3303  -17.6762 C   0  0  0  0  0  0  0  0  0  0  0  0
   32.9340  -24.4129  -18.2315 C   0  0  0  0  0  0  0  0  0  0  0  0
   32.9464  -25.6311  -17.5948 C   0  0  0  0  0  0  0  0  0  0  0  0
   32.2694  -25.7610  -16.4037 C   0  0  0  0  0  0  0  0  0  0  0  0
   31.5840  -24.6774  -15.8541 C   0  0  0  0  0  0  0  0  0  0  0  0
   28.6164  -21.7004  -15.1428 C   0  0  0  0  0  0  0  0  0  0  0  0
   28.9939  -20.4877  -15.1040 O   0  0  0  0  0  0  0  0  0  0  0  0
   24.1703  -22.5414  -16.2694 N   0  0  0  0  0  0  0  0  0  0  0  0
   24.7559  -21.3143  -16.6216 C   0  0  0  0  0  0  0  0  0  0  0  0
   24.7230  -20.9270  -17.8042 O   0  0  0  0  0  0  0  0  0  0  0  0
   25.4076  -20.4900  -15.5894 C   0  0  0  0  0  0  0  0  0  0  0  0
   25.3210  -21.2089  -14.2668 C   0  0  0  0  0  0  0  0  0  0  0  0
   26.7142  -21.2004  -13.6717 C   0  0  2  0  0  0  0  0  0  0  0  0
   27.4981  -22.1508  -14.4043 N   0  0  0  0  0  0  0  0  0  0  0  0
   26.7257  -21.5640  -12.2442 C   0  0  0  0  0  0  0  0  0  0  0  0
   27.5877  -22.3836  -11.8484 O   0  0  0  0  0  0  0  0  0  0  0  0
   25.8037  -21.0190  -11.3288 N   0  0  0  0  0  0  0  0  0  0  0  0
   25.8077  -21.4875   -9.9462 C   0  0  1  0  0  0  0  0  0  0  0  0
   27.1629  -21.2641   -9.3335 C   0  0  0  0  0  0  0  0  0  0  0  0
   27.1290  -20.2771   -8.2478 C   0  0  0  0  0  0  0  0  0  0  0  0
   26.2462  -19.1949   -8.1365 C   0  0  0  0  0  0  0  0  0  0  0  0
   26.5281  -18.4868   -7.0370 N   0  0  0  0  0  0  0  0  0  0  0  0
   27.5611  -19.0295   -6.3865 C   0  0  0  0  0  0  0  0  0  0  0  0
   28.2075  -18.6843   -5.2098 C   0  0  0  0  0  0  0  0  0  0  0  0
   29.2458  -19.4936   -4.8055 C   0  0  0  0  0  0  0  0  0  0  0  0
   29.6484  -20.6039   -5.5161 C   0  0  0  0  0  0  0  0  0  0  0  0
   28.9945  -20.9239   -6.6759 C   0  0  0  0  0  0  0  0  0  0  0  0
   27.9503  -20.1512   -7.1290 C   0  0  0  0  0  0  0  0  0  0  0  0
   24.6517  -21.0199   -9.1965 C   0  0  0  0  0  0  0  0  0  0  0  0
   24.2848  -21.4682   -7.9379 O   0  0  0  0  0  0  0  0  0  0  0  0
   23.8612  -20.1264   -9.6803 O   0  0  0  0  0  0  0  0  0  0  0  0
  2  1  1  6
  2  3  1  0
  3  4  1  0
  4  9  1  0
  4  5  2  0
  5  6  1  0
  6  7  2  0
  8  7  1  0
  9  8  2  0
 10 18  1  0
 10  2  1  0
 11 10  2  0
 12 13  1  0
 13 14  2  0
 15 16  1  0
 15 13  1  0
 17 16  1  6
 17 18  1  0
 19 17  1  0
 19 20  2  0
 21 19  1  0
 22 21  1  0
 22 33  1  0
 22 23  1  1
 24 23  1  0
 25 24  2  0
 26 25  1  0
 27 26  1  0
 27 32  2  0
 28 27  1  0
 29 28  2  0
 29 30  1  0
 30 31  2  0
 31 32  1  0
 32 24  1  0
 33 34  1  0
 35 33  2  0
M  END
$$$$
