FQW.pdb
     RDKit          3D

 35 37  0  0  1  0  0  0  0  0999 V2000
   25.2961  -18.2828  -15.5031 N   0  0  0  0  0  0  0  0  0  0  0  0
   26.3339  -18.7413  -14.5865 C   0  0  1  0  0  0  0  0  0  0  0  0
   26.9646  -17.4671  -14.0093 C   0  0  0  0  0  0  0  0  0  0  0  0
   27.8314  -16.9185  -15.0693 C   0  0  0  0  0  0  0  0  0  0  0  0
   27.5627  -15.7178  -15.6784 C   0  0  0  0  0  0  0  0  0  0  0  0
   28.3988  -15.2165  -16.6801 C   0  0  0  0  0  0  0  0  0  0  0  0
   29.5114  -15.9202  -17.0757 C   0  0  0  0  0  0  0  0  0  0  0  0
   29.7830  -17.1239  -16.4664 C   0  0  0  0  0  0  0  0  0  0  0  0
   28.9450  -17.6197  -15.4674 C   0  0  0  0  0  0  0  0  0  0  0  0
   25.6757  -19.4455  -13.4617 C   0  0  0  0  0  0  0  0  0  0  0  0
   24.5716  -19.0216  -12.9970 O   0  0  0  0  0  0  0  0  0  0  0  0
   23.7681  -24.7031  -12.7684 N   0  0  0  0  0  0  0  0  0  0  0  0
   23.9833  -23.8284  -13.8459 C   0  0  0  0  0  0  0  0  0  0  0  0
   23.3747  -24.0017  -14.9180 O   0  0  0  0  0  0  0  0  0  0  0  0
   24.9294  -22.7085  -13.7034 C   0  0  0  0  0  0  0  0  0  0  0  0
   25.5260  -22.7493  -12.3191 C   0  0  0  0  0  0  0  0  0  0  0  0
   25.6771  -21.3119  -11.8649 C   0  0  2  0  0  0  0  0  0  0  0  0
   26.3108  -20.5912  -12.9296 N   0  0  0  0  0  0  0  0  0  0  0  0
   26.4914  -21.1832  -10.6441 C   0  0  0  0  0  0  0  0  0  0  0  0
   27.5414  -21.8624  -10.5578 O   0  0  0  0  0  0  0  0  0  0  0  0
   26.1214  -20.3268   -9.5882 N   0  0  0  0  0  0  0  0  0  0  0  0
   25.9729  -20.8740   -8.2430 C   0  0  1  0  0  0  0  0  0  0  0  0
   25.8152  -19.7559   -7.2497 C   0  0  0  0  0  0  0  0  0  0  0  0
   27.1029  -19.1684   -6.8611 C   0  0  0  0  0  0  0  0  0  0  0  0
   27.7045  -18.0373   -7.4281 C   0  0  0  0  0  0  0  0  0  0  0  0
   28.8891  -17.8113   -6.8489 N   0  0  0  0  0  0  0  0  0  0  0  0
   29.1311  -18.7314   -5.9110 C   0  0  0  0  0  0  0  0  0  0  0  0
   30.1922  -18.9168   -5.0384 C   0  0  0  0  0  0  0  0  0  0  0  0
   30.1068  -19.9791   -4.1662 C   0  0  0  0  0  0  0  0  0  0  0  0
   29.0287  -20.8373   -4.1369 C   0  0  0  0  0  0  0  0  0  0  0  0
   27.9932  -20.6338   -5.0093 C   0  0  0  0  0  0  0  0  0  0  0  0
   28.0241  -19.5891   -5.9039 C   0  0  0  0  0  0  0  0  0  0  0  0
   25.0035  -21.9577   -8.1866 C   0  0  0  0  0  0  0  0  0  0  0  0
   23.7608  -21.9466   -8.7990 O   0  0  0  0  0  0  0  0  0  0  0  0
   25.2496  -23.0378   -7.5308 O   0  0  0  0  0  0  0  0  0  0  0  0
  2  1  1  6
  2  3  1  0
  3  4  1  0
  4  9  1  0
  4  5  2  0
  5  6  1  0
  6  7  2  0
  8  7  1  0
  9  8  2  0
 10 18  1  0
 10  2  1  0
 11 10  2  0
 12 13  1  0
 13 14  2  0
 15 16  1  0
 15 13  1  0
 17 16  1  6
 17 18  1  0
 19 17  1  0
 19 20  2  0
 21 19  1  0
 22 21  1  0
 22 33  1  0
 22 23  1  1
 24 23  1  0
 25 24  2  0
 26 25  1  0
 27 26  1  0
 27 32  2  0
 28 27  1  0
 29 28  2  0
 29 30  1  0
 30 31  2  0
 31 32  1  0
 32 24  1  0
 33 34  1  0
 35 33  2  0
M  END
$$$$
