FQW.pdb
     RDKit          3D

 35 37  0  0  1  0  0  0  0  0999 V2000
   10.7041  -24.2670    8.6275 N   0  0  0  0  0  0  0  0  0  0  0  0
   11.6541  -23.6835    7.6871 C   0  0  1  0  0  0  0  0  0  0  0  0
   11.3450  -22.1806    7.6702 C   0  0  0  0  0  0  0  0  0  0  0  0
   10.1277  -22.0183    6.8529 C   0  0  0  0  0  0  0  0  0  0  0  0
    8.8704  -22.1023    7.3980 C   0  0  0  0  0  0  0  0  0  0  0  0
    7.7306  -21.9441    6.6045 C   0  0  0  0  0  0  0  0  0  0  0  0
    7.8483  -21.7001    5.2568 C   0  0  0  0  0  0  0  0  0  0  0  0
    9.1076  -21.6152    4.7083 C   0  0  0  0  0  0  0  0  0  0  0  0
   10.2418  -21.7742    5.5048 C   0  0  0  0  0  0  0  0  0  0  0  0
   13.0146  -23.8386    8.2520 C   0  0  0  0  0  0  0  0  0  0  0  0
   13.1796  -23.9516    9.5068 O   0  0  0  0  0  0  0  0  0  0  0  0
   18.1097  -24.9475    4.7771 N   0  0  0  0  0  0  0  0  0  0  0  0
   18.5488  -25.1624    6.0938 C   0  0  0  0  0  0  0  0  0  0  0  0
   19.7075  -25.5660    6.3043 O   0  0  0  0  0  0  0  0  0  0  0  0
   17.6356  -24.9097    7.2215 C   0  0  0  0  0  0  0  0  0  0  0  0
   16.2741  -24.5600    6.6757 C   0  0  0  0  0  0  0  0  0  0  0  0
   15.4182  -24.1572    7.8591 C   0  0  2  0  0  0  0  0  0  0  0  0
   14.1096  -23.8562    7.3576 N   0  0  0  0  0  0  0  0  0  0  0  0
   15.9457  -22.9788    8.5683 C   0  0  0  0  0  0  0  0  0  0  0  0
   15.8841  -21.8656    7.9953 O   0  0  0  0  0  0  0  0  0  0  0  0
   16.5088  -23.0744    9.8563 N   0  0  0  0  0  0  0  0  0  0  0  0
   17.0246  -21.8708   10.5016 C   0  0  1  0  0  0  0  0  0  0  0  0
   16.5082  -21.7841   11.9115 C   0  0  0  0  0  0  0  0  0  0  0  0
   17.4410  -22.3646   12.8846 C   0  0  0  0  0  0  0  0  0  0  0  0
   18.5774  -21.7430   13.4186 C   0  0  0  0  0  0  0  0  0  0  0  0
   19.2090  -22.5811   14.2483 N   0  0  0  0  0  0  0  0  0  0  0  0
   18.5621  -23.7482   14.3115 C   0  0  0  0  0  0  0  0  0  0  0  0
   18.8021  -24.9098   15.0291 C   0  0  0  0  0  0  0  0  0  0  0  0
   17.9012  -25.9395   14.8725 C   0  0  0  0  0  0  0  0  0  0  0  0
   16.8007  -25.8507   14.0474 C   0  0  0  0  0  0  0  0  0  0  0  0
   16.5855  -24.6931   13.3485 C   0  0  0  0  0  0  0  0  0  0  0  0
   17.4527  -23.6315   13.4649 C   0  0  0  0  0  0  0  0  0  0  0  0
   18.4564  -21.7034   10.3045 C   0  0  0  0  0  0  0  0  0  0  0  0
   19.3099  -22.6737    9.8048 O   0  0  0  0  0  0  0  0  0  0  0  0
   19.0446  -20.5972   10.6008 O   0  0  0  0  0  0  0  0  0  0  0  0
  2  1  1  1
  2  3  1  0
  3  4  1  0
  4  9  1  0
  4  5  2  0
  5  6  1  0
  6  7  2  0
  8  7  1  0
  9  8  2  0
 10 18  1  0
 10  2  1  0
 11 10  2  0
 12 13  1  0
 13 14  2  0
 15 16  1  0
 15 13  1  0
 17 16  1  6
 17 18  1  0
 19 17  1  0
 19 20  2  0
 21 19  1  0
 22 21  1  0
 22 33  1  0
 22 23  1  1
 24 23  1  0
 25 24  2  0
 26 25  1  0
 27 26  1  0
 27 32  2  0
 28 27  1  0
 29 28  2  0
 29 30  1  0
 30 31  2  0
 31 32  1  0
 32 24  1  0
 33 34  1  0
 35 33  2  0
M  END
$$$$
