FQW.pdb
     RDKit          3D

 35 37  0  0  1  0  0  0  0  0999 V2000
   28.6413  -21.6063   -9.3993 N   0  0  0  0  0  0  0  0  0  0  0  0
   27.3001  -21.0356   -9.4534 C   0  0  1  0  0  0  0  0  0  0  0  0
   27.3925  -19.6977   -8.7078 C   0  0  0  0  0  0  0  0  0  0  0  0
   27.5320  -20.0306   -7.2775 C   0  0  0  0  0  0  0  0  0  0  0  0
   28.7031  -19.8179   -6.5931 C   0  0  0  0  0  0  0  0  0  0  0  0
   28.8123  -20.1401   -5.2373 C   0  0  0  0  0  0  0  0  0  0  0  0
   27.7436  -20.6783   -4.5608 C   0  0  0  0  0  0  0  0  0  0  0  0
   26.5686  -20.8922   -5.2447 C   0  0  0  0  0  0  0  0  0  0  0  0
   26.4652  -20.5692   -6.5979 C   0  0  0  0  0  0  0  0  0  0  0  0
   26.9906  -20.7217  -10.8676 C   0  0  0  0  0  0  0  0  0  0  0  0
   27.8420  -20.1180  -11.5923 O   0  0  0  0  0  0  0  0  0  0  0  0
   24.6536  -24.6604  -14.3100 N   0  0  0  0  0  0  0  0  0  0  0  0
   23.7584  -24.1472  -13.3572 C   0  0  0  0  0  0  0  0  0  0  0  0
   22.8191  -24.8522  -12.9443 O   0  0  0  0  0  0  0  0  0  0  0  0
   23.9342  -22.7755  -12.8501 C   0  0  0  0  0  0  0  0  0  0  0  0
   25.2088  -22.2061  -13.4203 C   0  0  0  0  0  0  0  0  0  0  0  0
   25.4244  -20.8625  -12.7544 C   0  0  2  0  0  0  0  0  0  0  0  0
   25.7306  -21.1122  -11.3766 N   0  0  0  0  0  0  0  0  0  0  0  0
   24.2397  -19.9907  -12.8348 C   0  0  0  0  0  0  0  0  0  0  0  0
   23.4163  -20.0212  -11.8901 O   0  0  0  0  0  0  0  0  0  0  0  0
   24.0158  -19.1367  -13.9329 N   0  0  0  0  0  0  0  0  0  0  0  0
   22.8509  -18.2570  -13.9279 C   0  0  1  0  0  0  0  0  0  0  0  0
   23.2009  -16.9399  -14.5639 C   0  0  0  0  0  0  0  0  0  0  0  0
   23.9455  -17.1055  -15.8178 C   0  0  0  0  0  0  0  0  0  0  0  0
   23.3983  -17.3738  -17.0794 C   0  0  0  0  0  0  0  0  0  0  0  0
   24.3758  -17.4950  -17.9847 N   0  0  0  0  0  0  0  0  0  0  0  0
   25.5682  -17.3224  -17.4075 C   0  0  0  0  0  0  0  0  0  0  0  0
   26.8591  -17.3336  -17.9126 C   0  0  0  0  0  0  0  0  0  0  0  0
   27.8815  -17.0917  -17.0224 C   0  0  0  0  0  0  0  0  0  0  0  0
   27.6644  -16.8461  -15.6836 C   0  0  0  0  0  0  0  0  0  0  0  0
   26.3802  -16.8411  -15.2084 C   0  0  0  0  0  0  0  0  0  0  0  0
   25.3190  -17.0772  -16.0515 C   0  0  0  0  0  0  0  0  0  0  0  0
   21.6466  -18.9251  -14.3976 C   0  0  0  0  0  0  0  0  0  0  0  0
   21.6238  -20.0856  -15.1541 O   0  0  0  0  0  0  0  0  0  0  0  0
   20.4778  -18.4550  -14.1324 O   0  0  0  0  0  0  0  0  0  0  0  0
  2  1  1  6
  2  3  1  0
  3  4  1  0
  4  9  1  0
  4  5  2  0
  5  6  1  0
  6  7  2  0
  8  7  1  0
  9  8  2  0
 10 18  1  0
 10  2  1  0
 11 10  2  0
 12 13  1  0
 13 14  2  0
 15 16  1  0
 15 13  1  0
 17 16  1  6
 17 18  1  0
 19 17  1  0
 19 20  2  0
 21 19  1  0
 22 21  1  0
 22 33  1  0
 22 23  1  6
 24 23  1  0
 25 24  2  0
 26 25  1  0
 27 26  1  0
 27 32  2  0
 28 27  1  0
 29 28  2  0
 29 30  1  0
 30 31  2  0
 31 32  1  0
 32 24  1  0
 33 34  1  0
 35 33  2  0
M  END
$$$$
