FQW.pdb
     RDKit          3D

 35 37  0  0  1  0  0  0  0  0999 V2000
   23.0986  -10.1498  -15.2448 N   0  0  0  0  0  0  0  0  0  0  0  0
   22.3177   -8.9285  -15.0827 C   0  0  1  0  0  0  0  0  0  0  0  0
   23.0942   -7.8412  -15.8371 C   0  0  0  0  0  0  0  0  0  0  0  0
   22.7092   -6.5567  -15.2224 C   0  0  0  0  0  0  0  0  0  0  0  0
   21.4768   -6.3670  -14.6477 C   0  0  0  0  0  0  0  0  0  0  0  0
   21.1338   -5.1413  -14.0699 C   0  0  0  0  0  0  0  0  0  0  0  0
   22.0289   -4.0981  -14.0662 C   0  0  0  0  0  0  0  0  0  0  0  0
   23.2649   -4.2860  -14.6414 C   0  0  0  0  0  0  0  0  0  0  0  0
   23.6019   -5.5112  -15.2170 C   0  0  0  0  0  0  0  0  0  0  0  0
   21.0290   -9.1093  -15.7905 C   0  0  0  0  0  0  0  0  0  0  0  0
   21.0083   -9.5373  -16.9867 O   0  0  0  0  0  0  0  0  0  0  0  0
   17.3037  -12.1968  -15.5975 N   0  0  0  0  0  0  0  0  0  0  0  0
   16.2310  -11.3206  -15.8299 C   0  0  0  0  0  0  0  0  0  0  0  0
   15.1885  -11.7427  -16.3636 O   0  0  0  0  0  0  0  0  0  0  0  0
   16.3438   -9.9044  -15.4412 C   0  0  0  0  0  0  0  0  0  0  0  0
   17.6671   -9.6940  -14.7495 C   0  0  0  0  0  0  0  0  0  0  0  0
   18.5757   -9.0008  -15.7440 C   0  0  2  0  0  0  0  0  0  0  0  0
   19.8379   -8.7930  -15.0975 N   0  0  0  0  0  0  0  0  0  0  0  0
   18.0438   -7.7022  -16.1921 C   0  0  0  0  0  0  0  0  0  0  0  0
   18.0621   -6.7438  -15.3843 O   0  0  0  0  0  0  0  0  0  0  0  0
   17.5234   -7.5171  -17.4882 N   0  0  0  0  0  0  0  0  0  0  0  0
   17.0102   -6.2053  -17.8714 C   0  0  1  0  0  0  0  0  0  0  0  0
   18.1074   -5.3885  -18.4965 C   0  0  0  0  0  0  0  0  0  0  0  0
   18.3897   -5.7964  -19.8778 C   0  0  0  0  0  0  0  0  0  0  0  0
   17.4427   -6.1238  -20.8570 C   0  0  0  0  0  0  0  0  0  0  0  0
   18.0607   -6.4820  -21.9883 N   0  0  0  0  0  0  0  0  0  0  0  0
   19.3861   -6.4162  -21.8349 C   0  0  0  0  0  0  0  0  0  0  0  0
   20.4387   -6.6658  -22.7019 C   0  0  0  0  0  0  0  0  0  0  0  0
   21.7115   -6.4729  -22.2127 C   0  0  0  0  0  0  0  0  0  0  0  0
   21.9612   -6.0513  -20.9244 C   0  0  0  0  0  0  0  0  0  0  0  0
   20.9047   -5.8121  -20.0868 C   0  0  0  0  0  0  0  0  0  0  0  0
   19.6111   -5.9886  -20.5206 C   0  0  0  0  0  0  0  0  0  0  0  0
   15.7488   -6.2896  -18.5917 C   0  0  0  0  0  0  0  0  0  0  0  0
   14.9634   -5.2062  -18.9509 O   0  0  0  0  0  0  0  0  0  0  0  0
   15.2610   -7.4260  -18.9497 O   0  0  0  0  0  0  0  0  0  0  0  0
  2  1  1  6
  2  3  1  0
  3  4  1  0
  4  9  1  0
  4  5  2  0
  5  6  1  0
  6  7  2  0
  8  7  1  0
  9  8  2  0
 10 18  1  0
 10  2  1  0
 11 10  2  0
 12 13  1  0
 13 14  2  0
 15 16  1  0
 15 13  1  0
 17 16  1  1
 17 18  1  0
 19 17  1  0
 19 20  2  0
 21 19  1  0
 22 21  1  0
 22 33  1  0
 22 23  1  6
 24 23  1  0
 25 24  2  0
 26 25  1  0
 27 26  1  0
 27 32  2  0
 28 27  1  0
 29 28  2  0
 29 30  1  0
 30 31  2  0
 31 32  1  0
 32 24  1  0
 33 34  1  0
 35 33  2  0
M  END
$$$$
