FQW.pdb
     RDKit          3D

 35 37  0  0  1  0  0  0  0  0999 V2000
   18.4478  -17.8576  -25.3883 N   0  0  0  0  0  0  0  0  0  0  0  0
   19.1213  -18.0675  -24.1117 C   0  0  1  0  0  0  0  0  0  0  0  0
   19.3784  -16.6641  -23.5471 C   0  0  0  0  0  0  0  0  0  0  0  0
   20.4788  -16.0925  -24.3460 C   0  0  0  0  0  0  0  0  0  0  0  0
   20.2463  -15.3628  -25.4855 C   0  0  0  0  0  0  0  0  0  0  0  0
   21.3047  -14.8296  -26.2265 C   0  0  0  0  0  0  0  0  0  0  0  0
   22.6047  -15.0269  -25.8257 C   0  0  0  0  0  0  0  0  0  0  0  0
   22.8403  -15.7578  -24.6837 C   0  0  0  0  0  0  0  0  0  0  0  0
   21.7802  -16.2880  -23.9481 C   0  0  0  0  0  0  0  0  0  0  0  0
   18.1695  -18.7350  -23.1937 C   0  0  0  0  0  0  0  0  0  0  0  0
   16.9426  -18.8410  -23.5072 O   0  0  0  0  0  0  0  0  0  0  0  0
   18.7099  -24.3509  -20.4167 N   0  0  0  0  0  0  0  0  0  0  0  0
   18.1338  -23.2681  -19.7324 C   0  0  0  0  0  0  0  0  0  0  0  0
   17.2249  -23.4684  -18.9057 O   0  0  0  0  0  0  0  0  0  0  0  0
   18.6075  -21.8986  -19.9962 C   0  0  0  0  0  0  0  0  0  0  0  0
   17.9339  -21.3828  -21.2428 C   0  0  0  0  0  0  0  0  0  0  0  0
   17.7655  -19.8879  -21.0629 C   0  0  2  0  0  0  0  0  0  0  0  0
   18.6671  -19.2435  -21.9720 N   0  0  0  0  0  0  0  0  0  0  0  0
   18.0639  -19.4425  -19.6908 C   0  0  0  0  0  0  0  0  0  0  0  0
   19.2278  -19.0543  -19.4337 O   0  0  0  0  0  0  0  0  0  0  0  0
   17.0850  -19.4431  -18.6775 N   0  0  0  0  0  0  0  0  0  0  0  0
   17.4574  -19.0426  -17.3241 C   0  0  1  0  0  0  0  0  0  0  0  0
   18.0258  -17.6502  -17.3400 C   0  0  0  0  0  0  0  0  0  0  0  0
   16.9930  -16.6278  -17.5450 C   0  0  0  0  0  0  0  0  0  0  0  0
   15.8821  -16.3932  -16.7241 C   0  0  0  0  0  0  0  0  0  0  0  0
   15.1363  -15.4073  -17.2356 N   0  0  0  0  0  0  0  0  0  0  0  0
   15.6804  -14.9521  -18.3676 C   0  0  0  0  0  0  0  0  0  0  0  0
   15.3043  -13.9464  -19.2445 C   0  0  0  0  0  0  0  0  0  0  0  0
   16.1253  -13.7205  -20.3268 C   0  0  0  0  0  0  0  0  0  0  0  0
   17.2759  -14.4440  -20.5561 C   0  0  0  0  0  0  0  0  0  0  0  0
   17.6259  -15.4327  -19.6758 C   0  0  0  0  0  0  0  0  0  0  0  0
   16.8434  -15.7035  -18.5772 C   0  0  0  0  0  0  0  0  0  0  0  0
   16.4120  -19.3249  -16.3523 C   0  0  0  0  0  0  0  0  0  0  0  0
   16.5955  -19.3835  -14.9802 O   0  0  0  0  0  0  0  0  0  0  0  0
   15.2009  -19.5534  -16.7244 O   0  0  0  0  0  0  0  0  0  0  0  0
  2  1  1  6
  2  3  1  0
  3  4  1  0
  4  9  1  0
  4  5  2  0
  5  6  1  0
  6  7  2  0
  8  7  1  0
  9  8  2  0
 10 18  1  0
 10  2  1  0
 11 10  2  0
 12 13  1  0
 13 14  2  0
 15 16  1  0
 15 13  1  0
 17 16  1  1
 17 18  1  0
 19 17  1  0
 19 20  2  0
 21 19  1  0
 22 21  1  0
 22 33  1  0
 22 23  1  6
 24 23  1  0
 25 24  2  0
 26 25  1  0
 27 26  1  0
 27 32  2  0
 28 27  1  0
 29 28  2  0
 29 30  1  0
 30 31  2  0
 31 32  1  0
 32 24  1  0
 33 34  1  0
 35 33  2  0
M  END
$$$$
