FQW.pdb
     RDKit          3D

 35 37  0  0  1  0  0  0  0  0999 V2000
   27.1966  -18.9643  -16.3307 N   0  0  0  0  0  0  0  0  0  0  0  0
   27.5843  -18.3792  -15.0521 C   0  0  1  0  0  0  0  0  0  0  0  0
   27.7281  -16.8744  -15.3155 C   0  0  0  0  0  0  0  0  0  0  0  0
   28.7983  -16.7313  -16.3206 C   0  0  0  0  0  0  0  0  0  0  0  0
   30.0956  -17.0955  -16.0571 C   0  0  0  0  0  0  0  0  0  0  0  0
   31.0937  -16.9521  -17.0252 C   0  0  0  0  0  0  0  0  0  0  0  0
   30.7929  -16.4412  -18.2654 C   0  0  0  0  0  0  0  0  0  0  0  0
   29.4931  -16.0757  -18.5320 C   0  0  0  0  0  0  0  0  0  0  0  0
   28.5011  -16.2207  -17.5620 C   0  0  0  0  0  0  0  0  0  0  0  0
   26.4550  -18.5467  -14.1082 C   0  0  0  0  0  0  0  0  0  0  0  0
   25.3408  -17.9787  -14.3332 O   0  0  0  0  0  0  0  0  0  0  0  0
   21.7629  -20.1972  -11.7910 N   0  0  0  0  0  0  0  0  0  0  0  0
   22.5101  -20.6952  -12.8710 C   0  0  0  0  0  0  0  0  0  0  0  0
   22.1627  -20.4374  -14.0383 O   0  0  0  0  0  0  0  0  0  0  0  0
   23.7028  -21.5216  -12.6180 C   0  0  0  0  0  0  0  0  0  0  0  0
   24.8853  -20.8941  -13.3122 C   0  0  0  0  0  0  0  0  0  0  0  0
   25.5251  -19.9473  -12.3175 C   0  0  2  0  0  0  0  0  0  0  0  0
   26.6573  -19.3503  -12.9627 N   0  0  0  0  0  0  0  0  0  0  0  0
   25.9729  -20.6282  -11.0904 C   0  0  0  0  0  0  0  0  0  0  0  0
   27.1801  -20.9538  -11.0002 O   0  0  0  0  0  0  0  0  0  0  0  0
   25.0879  -20.9165  -10.0327 N   0  0  0  0  0  0  0  0  0  0  0  0
   25.6293  -21.2445   -8.7173 C   0  0  1  0  0  0  0  0  0  0  0  0
   26.6524  -20.2185   -8.3142 C   0  0  0  0  0  0  0  0  0  0  0  0
   27.0905  -20.3834   -6.9231 C   0  0  0  0  0  0  0  0  0  0  0  0
   26.5071  -21.2197   -5.9623 C   0  0  0  0  0  0  0  0  0  0  0  0
   27.1466  -21.0892   -4.7944 N   0  0  0  0  0  0  0  0  0  0  0  0
   28.1415  -20.2045   -4.9055 C   0  0  0  0  0  0  0  0  0  0  0  0
   29.0860  -19.7449   -4.0008 C   0  0  0  0  0  0  0  0  0  0  0  0
   30.0021  -18.8273   -4.4646 C   0  0  0  0  0  0  0  0  0  0  0  0
   30.0068  -18.3668   -5.7636 C   0  0  0  0  0  0  0  0  0  0  0  0
   29.0632  -18.8354   -6.6383 C   0  0  0  0  0  0  0  0  0  0  0  0
   28.1222  -19.7525   -6.2307 C   0  0  0  0  0  0  0  0  0  0  0  0
   24.5895  -21.5646   -7.7512 C   0  0  0  0  0  0  0  0  0  0  0  0
   24.6625  -22.5788   -6.8100 O   0  0  0  0  0  0  0  0  0  0  0  0
   23.4875  -20.9000   -7.7141 O   0  0  0  0  0  0  0  0  0  0  0  0
  2  1  1  6
  2  3  1  0
  3  4  1  0
  4  9  1  0
  4  5  2  0
  5  6  1  0
  6  7  2  0
  8  7  1  0
  9  8  2  0
 10 18  1  0
 10  2  1  0
 11 10  2  0
 12 13  1  0
 13 14  2  0
 15 16  1  0
 15 13  1  0
 17 16  1  6
 17 18  1  0
 19 17  1  0
 19 20  2  0
 21 19  1  0
 22 21  1  0
 22 33  1  0
 22 23  1  1
 24 23  1  0
 25 24  2  0
 26 25  1  0
 27 26  1  0
 27 32  2  0
 28 27  1  0
 29 28  2  0
 29 30  1  0
 30 31  2  0
 31 32  1  0
 32 24  1  0
 33 34  1  0
 35 33  2  0
M  END
$$$$
