FQW.pdb
     RDKit          3D

 35 37  0  0  1  0  0  0  0  0999 V2000
   15.8802  -12.9540    4.4302 N   0  0  0  0  0  0  0  0  0  0  0  0
   17.1476  -13.2509    5.0882 C   0  0  1  0  0  0  0  0  0  0  0  0
   17.4660  -12.0167    5.9425 C   0  0  0  0  0  0  0  0  0  0  0  0
   18.9097  -12.0803    6.2385 C   0  0  0  0  0  0  0  0  0  0  0  0
   19.3882  -12.6137    7.4096 C   0  0  0  0  0  0  0  0  0  0  0  0
   20.7608  -12.6646    7.6686 C   0  0  0  0  0  0  0  0  0  0  0  0
   21.6615  -12.1793    6.7505 C   0  0  0  0  0  0  0  0  0  0  0  0
   21.1842  -11.6445    5.5757 C   0  0  0  0  0  0  0  0  0  0  0  0
   19.8132  -11.5958    5.3226 C   0  0  0  0  0  0  0  0  0  0  0  0
   16.9272  -14.3786    6.0232 C   0  0  0  0  0  0  0  0  0  0  0  0
   15.8278  -14.4862    6.6512 O   0  0  0  0  0  0  0  0  0  0  0  0
   16.6527  -20.9941    5.9851 N   0  0  0  0  0  0  0  0  0  0  0  0
   16.5050  -19.6771    5.5200 C   0  0  0  0  0  0  0  0  0  0  0  0
   16.2994  -19.4646    4.3107 O   0  0  0  0  0  0  0  0  0  0  0  0
   16.5945  -18.5513    6.4657 C   0  0  0  0  0  0  0  0  0  0  0  0
   17.7658  -17.6838    6.0794 C   0  0  0  0  0  0  0  0  0  0  0  0
   17.7414  -16.4803    6.9993 C   0  0  2  0  0  0  0  0  0  0  0  0
   17.9695  -15.3191    6.1905 N   0  0  0  0  0  0  0  0  0  0  0  0
   18.7717  -16.5460    8.0501 C   0  0  0  0  0  0  0  0  0  0  0  0
   19.7515  -15.7682    7.9688 O   0  0  0  0  0  0  0  0  0  0  0  0
   18.6811  -17.4495    9.1273 N   0  0  0  0  0  0  0  0  0  0  0  0
   19.7015  -17.4218   10.1709 C   0  0  1  0  0  0  0  0  0  0  0  0
   19.8388  -16.0269   10.7162 C   0  0  0  0  0  0  0  0  0  0  0  0
   19.1131  -15.8472   11.9792 C   0  0  0  0  0  0  0  0  0  0  0  0
   19.4048  -16.4688   13.2004 C   0  0  0  0  0  0  0  0  0  0  0  0
   18.5141  -16.0966   14.1266 N   0  0  0  0  0  0  0  0  0  0  0  0
   17.6246  -15.2489   13.6021 C   0  0  0  0  0  0  0  0  0  0  0  0
   16.5388  -14.5813   14.1472 C   0  0  0  0  0  0  0  0  0  0  0  0
   15.8328  -13.7465   13.3099 C   0  0  0  0  0  0  0  0  0  0  0  0
   16.1651  -13.5613   11.9851 C   0  0  0  0  0  0  0  0  0  0  0  0
   17.2416  -14.2324   11.4697 C   0  0  0  0  0  0  0  0  0  0  0  0
   17.9836  -15.0805   12.2591 C   0  0  0  0  0  0  0  0  0  0  0  0
   19.5431  -18.5014   11.1333 C   0  0  0  0  0  0  0  0  0  0  0  0
   20.5302  -18.9500   11.9959 O   0  0  0  0  0  0  0  0  0  0  0  0
   18.4292  -19.1376   11.2431 O   0  0  0  0  0  0  0  0  0  0  0  0
  2  1  1  1
  2  3  1  0
  3  4  1  0
  4  9  1  0
  4  5  2  0
  5  6  1  0
  6  7  2  0
  8  7  1  0
  9  8  2  0
 10 18  1  0
 10  2  1  0
 11 10  2  0
 12 13  1  0
 13 14  2  0
 15 16  1  0
 15 13  1  0
 17 16  1  6
 17 18  1  0
 19 17  1  0
 19 20  2  0
 21 19  1  0
 22 21  1  0
 22 33  1  0
 22 23  1  1
 24 23  1  0
 25 24  2  0
 26 25  1  0
 27 26  1  0
 27 32  2  0
 28 27  1  0
 29 28  2  0
 29 30  1  0
 30 31  2  0
 31 32  1  0
 32 24  1  0
 33 34  1  0
 35 33  2  0
M  END
$$$$
