FQW.pdb
     RDKit          3D

 35 37  0  0  1  0  0  0  0  0999 V2000
   26.9715  -18.1984  -18.2489 N   0  0  0  0  0  0  0  0  0  0  0  0
   27.6728  -19.0237  -17.2718 C   0  0  1  0  0  0  0  0  0  0  0  0
   28.0745  -18.0685  -16.1401 C   0  0  0  0  0  0  0  0  0  0  0  0
   29.1873  -17.2535  -16.6629 C   0  0  0  0  0  0  0  0  0  0  0  0
   30.4187  -17.7956  -16.9364 C   0  0  0  0  0  0  0  0  0  0  0  0
   31.4588  -17.0043  -17.4323 C   0  0  0  0  0  0  0  0  0  0  0  0
   31.2666  -15.6618  -17.6566 C   0  0  0  0  0  0  0  0  0  0  0  0
   30.0331  -15.1161  -17.3835 C   0  0  0  0  0  0  0  0  0  0  0  0
   28.9987  -15.9104  -16.8883 C   0  0  0  0  0  0  0  0  0  0  0  0
   26.7018  -19.9858  -16.7011 C   0  0  0  0  0  0  0  0  0  0  0  0
   25.4843  -19.6551  -16.5490 O   0  0  0  0  0  0  0  0  0  0  0  0
   26.9466  -26.0664  -17.1949 N   0  0  0  0  0  0  0  0  0  0  0  0
   25.8812  -25.8857  -16.2978 C   0  0  0  0  0  0  0  0  0  0  0  0
   25.1816  -26.8585  -15.9601 O   0  0  0  0  0  0  0  0  0  0  0  0
   25.5953  -24.5446  -15.7599 C   0  0  0  0  0  0  0  0  0  0  0  0
   26.6398  -23.5837  -16.2691 C   0  0  0  0  0  0  0  0  0  0  0  0
   26.2570  -22.2098  -15.7582 C   0  0  2  0  0  0  0  0  0  0  0  0
   27.1708  -21.2687  -16.3361 N   0  0  0  0  0  0  0  0  0  0  0  0
   26.3252  -22.1090  -14.2901 C   0  0  0  0  0  0  0  0  0  0  0  0
   27.4239  -22.3359  -13.7309 O   0  0  0  0  0  0  0  0  0  0  0  0
   25.2002  -21.7682  -13.5134 N   0  0  0  0  0  0  0  0  0  0  0  0
   25.3529  -21.5956  -12.0719 C   0  0  1  0  0  0  0  0  0  0  0  0
   26.4968  -20.6619  -11.7862 C   0  0  0  0  0  0  0  0  0  0  0  0
   26.5384  -20.2437  -10.3799 C   0  0  0  0  0  0  0  0  0  0  0  0
   25.4617  -19.7600   -9.6251 C   0  0  0  0  0  0  0  0  0  0  0  0
   25.8737  -19.4441   -8.3921 N   0  0  0  0  0  0  0  0  0  0  0  0
   27.1809  -19.6876   -8.2620 C   0  0  0  0  0  0  0  0  0  0  0  0
   28.0542  -19.5456   -7.1948 C   0  0  0  0  0  0  0  0  0  0  0  0
   29.3628  -19.9205   -7.4030 C   0  0  0  0  0  0  0  0  0  0  0  0
   29.8154  -20.4180   -8.6061 C   0  0  0  0  0  0  0  0  0  0  0  0
   28.9336  -20.5482   -9.6455 C   0  0  0  0  0  0  0  0  0  0  0  0
   27.6141  -20.1888   -9.4957 C   0  0  0  0  0  0  0  0  0  0  0  0
   24.0879  -21.3234  -11.4066 C   0  0  0  0  0  0  0  0  0  0  0  0
   23.7160  -21.8227  -10.1688 O   0  0  0  0  0  0  0  0  0  0  0  0
   23.1954  -20.5741  -11.9538 O   0  0  0  0  0  0  0  0  0  0  0  0
  2  1  1  6
  2  3  1  0
  3  4  1  0
  4  9  1  0
  4  5  2  0
  5  6  1  0
  6  7  2  0
  8  7  1  0
  9  8  2  0
 10 18  1  0
 10  2  1  0
 11 10  2  0
 12 13  1  0
 13 14  2  0
 15 16  1  0
 15 13  1  0
 17 16  1  1
 17 18  1  0
 19 17  1  0
 19 20  2  0
 21 19  1  0
 22 21  1  0
 22 33  1  0
 22 23  1  6
 24 23  1  0
 25 24  2  0
 26 25  1  0
 27 26  1  0
 27 32  2  0
 28 27  1  0
 29 28  2  0
 29 30  1  0
 30 31  2  0
 31 32  1  0
 32 24  1  0
 33 34  1  0
 35 33  2  0
M  END
$$$$
