FQW.pdb
     RDKit          3D

 35 37  0  0  1  0  0  0  0  0999 V2000
   28.2123  -21.4005   -8.6110 N   0  0  0  0  0  0  0  0  0  0  0  0
   27.0382  -20.5359   -8.5752 C   0  0  1  0  0  0  0  0  0  0  0  0
   27.4758  -19.2802   -7.8096 C   0  0  0  0  0  0  0  0  0  0  0  0
   27.6783  -19.6993   -6.4099 C   0  0  0  0  0  0  0  0  0  0  0  0
   28.8295  -19.4039   -5.7225 C   0  0  0  0  0  0  0  0  0  0  0  0
   28.9994  -19.8103   -4.3960 C   0  0  0  0  0  0  0  0  0  0  0  0
   28.0117  -20.5168   -3.7518 C   0  0  0  0  0  0  0  0  0  0  0  0
   26.8567  -20.8138   -4.4387 C   0  0  0  0  0  0  0  0  0  0  0  0
   26.6925  -20.4060   -5.7626 C   0  0  0  0  0  0  0  0  0  0  0  0
   26.7360  -20.1130   -9.9624 C   0  0  0  0  0  0  0  0  0  0  0  0
   27.6531  -19.6384  -10.7029 O   0  0  0  0  0  0  0  0  0  0  0  0
   25.8908  -21.8236  -14.8533 N   0  0  0  0  0  0  0  0  0  0  0  0
   27.1113  -21.5016  -14.2375 C   0  0  0  0  0  0  0  0  0  0  0  0
   28.1170  -21.2711  -14.9342 O   0  0  0  0  0  0  0  0  0  0  0  0
   27.1969  -21.4380  -12.7684 C   0  0  0  0  0  0  0  0  0  0  0  0
   25.8503  -21.7883  -12.1873 C   0  0  0  0  0  0  0  0  0  0  0  0
   25.1766  -20.4809  -11.8240 C   0  0  2  0  0  0  0  0  0  0  0  0
   25.4084  -20.2538  -10.4279 N   0  0  0  0  0  0  0  0  0  0  0  0
   23.7252  -20.4994  -12.0750 C   0  0  0  0  0  0  0  0  0  0  0  0
   23.3266  -20.7948  -13.2262 O   0  0  0  0  0  0  0  0  0  0  0  0
   22.7902  -20.1971  -11.0653 N   0  0  0  0  0  0  0  0  0  0  0  0
   21.3856  -20.0213  -11.4216 C   0  0  1  0  0  0  0  0  0  0  0  0
   21.2427  -18.8847  -12.3962 C   0  0  0  0  0  0  0  0  0  0  0  0
   21.2694  -19.3389  -13.7915 C   0  0  0  0  0  0  0  0  0  0  0  0
   20.3828  -20.2458  -14.3869 C   0  0  0  0  0  0  0  0  0  0  0  0
   20.7290  -20.4523  -15.6626 N   0  0  0  0  0  0  0  0  0  0  0  0
   21.8097  -19.7312  -15.9737 C   0  0  0  0  0  0  0  0  0  0  0  0
   22.5291  -19.5894  -17.1501 C   0  0  0  0  0  0  0  0  0  0  0  0
   23.6019  -18.7262  -17.1273 C   0  0  0  0  0  0  0  0  0  0  0  0
   23.9696  -18.0204  -16.0020 C   0  0  0  0  0  0  0  0  0  0  0  0
   23.2436  -18.1781  -14.8518 C   0  0  0  0  0  0  0  0  0  0  0  0
   22.1621  -19.0276  -14.8153 C   0  0  0  0  0  0  0  0  0  0  0  0
   20.7362  -21.2778  -11.7628 C   0  0  0  0  0  0  0  0  0  0  0  0
   19.3878  -21.5482  -11.5948 O   0  0  0  0  0  0  0  0  0  0  0  0
   21.4051  -22.2602  -12.2579 O   0  0  0  0  0  0  0  0  0  0  0  0
  2  1  1  6
  2  3  1  0
  3  4  1  0
  4  9  1  0
  4  5  2  0
  5  6  1  0
  6  7  2  0
  8  7  1  0
  9  8  2  0
 10 18  1  0
 10  2  1  0
 11 10  2  0
 12 13  1  0
 13 14  2  0
 15 16  1  0
 15 13  1  0
 17 16  1  1
 17 18  1  0
 19 17  1  0
 19 20  2  0
 21 19  1  0
 22 21  1  0
 22 33  1  0
 22 23  1  6
 24 23  1  0
 25 24  2  0
 26 25  1  0
 27 26  1  0
 27 32  2  0
 28 27  1  0
 29 28  2  0
 29 30  1  0
 30 31  2  0
 31 32  1  0
 32 24  1  0
 33 34  1  0
 35 33  2  0
M  END
$$$$
