FQW.pdb
     RDKit          3D

 35 37  0  0  1  0  0  0  0  0999 V2000
   29.8015  -24.2507  -19.3452 N   0  0  0  0  0  0  0  0  0  0  0  0
   28.8316  -24.2918  -18.2566 C   0  0  1  0  0  0  0  0  0  0  0  0
   29.4510  -23.4639  -17.1229 C   0  0  0  0  0  0  0  0  0  0  0  0
   30.7466  -24.0958  -16.8101 C   0  0  0  0  0  0  0  0  0  0  0  0
   31.9200  -23.6674  -17.3799 C   0  0  0  0  0  0  0  0  0  0  0  0
   33.1368  -24.2806  -17.0680 C   0  0  0  0  0  0  0  0  0  0  0  0
   33.1811  -25.3291  -16.1801 C   0  0  0  0  0  0  0  0  0  0  0  0
   32.0063  -25.7600  -15.6075 C   0  0  0  0  0  0  0  0  0  0  0  0
   30.7946  -25.1447  -15.9227 C   0  0  0  0  0  0  0  0  0  0  0  0
   27.6130  -23.5752  -18.6992 C   0  0  0  0  0  0  0  0  0  0  0  0
   27.6457  -22.8264  -19.7253 O   0  0  0  0  0  0  0  0  0  0  0  0
   24.1170  -26.9745  -20.5000 N   0  0  0  0  0  0  0  0  0  0  0  0
   23.2710  -25.8728  -20.7081 C   0  0  0  0  0  0  0  0  0  0  0  0
   22.1515  -26.0384  -21.2269 O   0  0  0  0  0  0  0  0  0  0  0  0
   23.7123  -24.5245  -20.3119 C   0  0  0  0  0  0  0  0  0  0  0  0
   25.0923  -24.6214  -19.7119 C   0  0  0  0  0  0  0  0  0  0  0  0
   25.1589  -23.5957  -18.5990 C   0  0  2  0  0  0  0  0  0  0  0  0
   26.4272  -23.7510  -17.9495 N   0  0  0  0  0  0  0  0  0  0  0  0
   24.0845  -23.7633  -17.6053 C   0  0  0  0  0  0  0  0  0  0  0  0
   24.1881  -24.6937  -16.7717 O   0  0  0  0  0  0  0  0  0  0  0  0
   22.9609  -22.9138  -17.5719 N   0  0  0  0  0  0  0  0  0  0  0  0
   21.9432  -23.1152  -16.5450 C   0  0  1  0  0  0  0  0  0  0  0  0
   21.3226  -21.7967  -16.1732 C   0  0  0  0  0  0  0  0  0  0  0  0
   20.2966  -21.3721  -17.1329 C   0  0  0  0  0  0  0  0  0  0  0  0
   18.9271  -21.2272  -16.8749 C   0  0  0  0  0  0  0  0  0  0  0  0
   18.2887  -20.8578  -17.9910 N   0  0  0  0  0  0  0  0  0  0  0  0
   19.1521  -20.7410  -19.0036 C   0  0  0  0  0  0  0  0  0  0  0  0
   18.9891  -20.3743  -20.3305 C   0  0  0  0  0  0  0  0  0  0  0  0
   20.1219  -20.3356  -21.1127 C   0  0  0  0  0  0  0  0  0  0  0  0
   21.3755  -20.6416  -20.6284 C   0  0  0  0  0  0  0  0  0  0  0  0
   21.5107  -21.0017  -19.3142 C   0  0  0  0  0  0  0  0  0  0  0  0
   20.4139  -21.0585  -18.4857 C   0  0  0  0  0  0  0  0  0  0  0  0
   21.0404  -24.2110  -16.8631 C   0  0  0  0  0  0  0  0  0  0  0  0
   20.1113  -24.7555  -15.9914 O   0  0  0  0  0  0  0  0  0  0  0  0
   21.0542  -24.7700  -18.0228 O   0  0  0  0  0  0  0  0  0  0  0  0
  2  1  1  6
  2  3  1  0
  3  4  1  0
  4  9  1  0
  4  5  2  0
  5  6  1  0
  6  7  2  0
  8  7  1  0
  9  8  2  0
 10 18  1  0
 10  2  1  0
 11 10  2  0
 12 13  1  0
 13 14  2  0
 15 16  1  0
 15 13  1  0
 17 16  1  6
 17 18  1  0
 19 17  1  0
 19 20  2  0
 21 19  1  0
 22 21  1  0
 22 33  1  0
 22 23  1  6
 24 23  1  0
 25 24  2  0
 26 25  1  0
 27 26  1  0
 27 32  2  0
 28 27  1  0
 29 28  2  0
 29 30  1  0
 30 31  2  0
 31 32  1  0
 32 24  1  0
 33 34  1  0
 35 33  2  0
M  END
$$$$
