FQW.pdb
     RDKit          3D

 35 37  0  0  1  0  0  0  0  0999 V2000
   28.8515  -20.6360  -14.8486 N   0  0  0  0  0  0  0  0  0  0  0  0
   27.8095  -21.1446  -13.9637 C   0  0  1  0  0  0  0  0  0  0  0  0
   27.6694  -20.0984  -12.8500 C   0  0  0  0  0  0  0  0  0  0  0  0
   28.7427  -20.3826  -11.8788 C   0  0  0  0  0  0  0  0  0  0  0  0
   28.6472  -21.4073  -10.9701 C   0  0  0  0  0  0  0  0  0  0  0  0
   29.6773  -21.6592  -10.0594 C   0  0  0  0  0  0  0  0  0  0  0  0
   30.8108  -20.8816  -10.0571 C   0  0  0  0  0  0  0  0  0  0  0  0
   30.9089  -19.8540  -10.9673 C   0  0  0  0  0  0  0  0  0  0  0  0
   29.8777  -19.6068  -11.8737 C   0  0  0  0  0  0  0  0  0  0  0  0
   26.5320  -21.1511  -14.7137 C   0  0  0  0  0  0  0  0  0  0  0  0
   26.2546  -20.2065  -15.5172 O   0  0  0  0  0  0  0  0  0  0  0  0
   25.4295  -26.0549  -16.2108 N   0  0  0  0  0  0  0  0  0  0  0  0
   26.0022  -25.0331  -16.9858 C   0  0  0  0  0  0  0  0  0  0  0  0
   26.9918  -25.2762  -17.7009 O   0  0  0  0  0  0  0  0  0  0  0  0
   25.4293  -23.6766  -16.9491 C   0  0  0  0  0  0  0  0  0  0  0  0
   24.3384  -23.6375  -15.9088 C   0  0  0  0  0  0  0  0  0  0  0  0
   24.4152  -22.2780  -15.2446 C   0  0  2  0  0  0  0  0  0  0  0  0
   25.6433  -22.2311  -14.5070 N   0  0  0  0  0  0  0  0  0  0  0  0
   23.2911  -22.0290  -14.3258 C   0  0  0  0  0  0  0  0  0  0  0  0
   23.5000  -22.1266  -13.0937 O   0  0  0  0  0  0  0  0  0  0  0  0
   22.0067  -21.6887  -14.7945 N   0  0  0  0  0  0  0  0  0  0  0  0
   20.9634  -21.3444  -13.8333 C   0  0  1  0  0  0  0  0  0  0  0  0
   21.4839  -20.3283  -12.8542 C   0  0  0  0  0  0  0  0  0  0  0  0
   21.6661  -19.0064  -13.4653 C   0  0  0  0  0  0  0  0  0  0  0  0
   20.6522  -18.1640  -13.9401 C   0  0  0  0  0  0  0  0  0  0  0  0
   21.1874  -17.0550  -14.4630 N   0  0  0  0  0  0  0  0  0  0  0  0
   22.5196  -17.0933  -14.3704 C   0  0  0  0  0  0  0  0  0  0  0  0
   23.5066  -16.1947  -14.7446 C   0  0  0  0  0  0  0  0  0  0  0  0
   24.8099  -16.5490  -14.4758 C   0  0  0  0  0  0  0  0  0  0  0  0
   25.1508  -17.7359  -13.8636 C   0  0  0  0  0  0  0  0  0  0  0  0
   24.1578  -18.6074  -13.5040 C   0  0  0  0  0  0  0  0  0  0  0  0
   22.8377  -18.3069  -13.7484 C   0  0  0  0  0  0  0  0  0  0  0  0
   19.6879  -21.0610  -14.4735 C   0  0  0  0  0  0  0  0  0  0  0  0
   19.5306  -20.6521  -15.7879 O   0  0  0  0  0  0  0  0  0  0  0  0
   18.5795  -21.1721  -13.8281 O   0  0  0  0  0  0  0  0  0  0  0  0
  2  1  1  6
  2  3  1  0
  3  4  1  0
  4  9  1  0
  4  5  2  0
  5  6  1  0
  6  7  2  0
  8  7  1  0
  9  8  2  0
 10 18  1  0
 10  2  1  0
 11 10  2  0
 12 13  1  0
 13 14  2  0
 15 16  1  0
 15 13  1  0
 17 16  1  1
 17 18  1  0
 19 17  1  0
 19 20  2  0
 21 19  1  0
 22 21  1  0
 22 33  1  0
 22 23  1  6
 24 23  1  0
 25 24  2  0
 26 25  1  0
 27 26  1  0
 27 32  2  0
 28 27  1  0
 29 28  2  0
 29 30  1  0
 30 31  2  0
 31 32  1  0
 32 24  1  0
 33 34  1  0
 35 33  2  0
M  END
$$$$
