FQW.pdb
     RDKit          3D

 35 37  0  0  1  0  0  0  0  0999 V2000
   27.3188  -21.8875   -9.9703 N   0  0  0  0  0  0  0  0  0  0  0  0
   26.3071  -20.9927   -9.4198 C   0  0  1  0  0  0  0  0  0  0  0  0
   26.9962  -19.6287   -9.2817 C   0  0  0  0  0  0  0  0  0  0  0  0
   27.5756  -19.5940   -7.9256 C   0  0  0  0  0  0  0  0  0  0  0  0
   26.8937  -19.0652   -6.8577 C   0  0  0  0  0  0  0  0  0  0  0  0
   27.4620  -19.0437   -5.5809 C   0  0  0  0  0  0  0  0  0  0  0  0
   28.7207  -19.5544   -5.3698 C   0  0  0  0  0  0  0  0  0  0  0  0
   29.4061  -20.0852   -6.4387 C   0  0  0  0  0  0  0  0  0  0  0  0
   28.8343  -20.1038   -7.7110 C   0  0  0  0  0  0  0  0  0  0  0  0
   25.2345  -20.8348  -10.4292 C   0  0  0  0  0  0  0  0  0  0  0  0
   25.4932  -20.9652  -11.6664 O   0  0  0  0  0  0  0  0  0  0  0  0
   19.9081  -21.7961   -7.7797 N   0  0  0  0  0  0  0  0  0  0  0  0
   20.9917  -22.6852   -7.8683 C   0  0  0  0  0  0  0  0  0  0  0  0
   21.0923  -23.6247   -7.0577 O   0  0  0  0  0  0  0  0  0  0  0  0
   22.0060  -22.5022   -8.9206 C   0  0  0  0  0  0  0  0  0  0  0  0
   21.6800  -21.2518   -9.6978 C   0  0  0  0  0  0  0  0  0  0  0  0
   22.8024  -21.0513  -10.6954 C   0  0  2  0  0  0  0  0  0  0  0  0
   23.9293  -20.5376   -9.9739 N   0  0  0  0  0  0  0  0  0  0  0  0
   22.4472  -20.1083  -11.7700 C   0  0  0  0  0  0  0  0  0  0  0  0
   22.2054  -18.9184  -11.4582 O   0  0  0  0  0  0  0  0  0  0  0  0
   22.3747  -20.5084  -13.1189 N   0  0  0  0  0  0  0  0  0  0  0  0
   21.8577  -19.5742  -14.1145 C   0  0  1  0  0  0  0  0  0  0  0  0
   22.9080  -19.3026  -15.1561 C   0  0  0  0  0  0  0  0  0  0  0  0
   22.4449  -18.3630  -16.1842 C   0  0  0  0  0  0  0  0  0  0  0  0
   22.5402  -16.9660  -16.1360 C   0  0  0  0  0  0  0  0  0  0  0  0
   21.9843  -16.4324  -17.2296 N   0  0  0  0  0  0  0  0  0  0  0  0
   21.5121  -17.3940  -18.0277 C   0  0  0  0  0  0  0  0  0  0  0  0
   20.8776  -17.3556  -19.2596 C   0  0  0  0  0  0  0  0  0  0  0  0
   20.5372  -18.5637  -19.8261 C   0  0  0  0  0  0  0  0  0  0  0  0
   20.8016  -19.7737  -19.2215 C   0  0  0  0  0  0  0  0  0  0  0  0
   21.4289  -19.7856  -18.0044 C   0  0  0  0  0  0  0  0  0  0  0  0
   21.7916  -18.6092  -17.3902 C   0  0  0  0  0  0  0  0  0  0  0  0
   20.5306  -19.9403  -14.5853 C   0  0  0  0  0  0  0  0  0  0  0  0
   20.1263  -21.2263  -14.9055 O   0  0  0  0  0  0  0  0  0  0  0  0
   19.6124  -19.0523  -14.7458 O   0  0  0  0  0  0  0  0  0  0  0  0
  2  1  1  6
  2  3  1  0
  3  4  1  0
  4  9  1  0
  4  5  2  0
  5  6  1  0
  6  7  2  0
  8  7  1  0
  9  8  2  0
 10 18  1  0
 10  2  1  0
 11 10  2  0
 12 13  1  0
 13 14  2  0
 15 16  1  0
 15 13  1  0
 17 16  1  1
 17 18  1  0
 19 17  1  0
 19 20  2  0
 21 19  1  0
 22 21  1  0
 22 33  1  0
 22 23  1  6
 24 23  1  0
 25 24  2  0
 26 25  1  0
 27 26  1  0
 27 32  2  0
 28 27  1  0
 29 28  2  0
 29 30  1  0
 30 31  2  0
 31 32  1  0
 32 24  1  0
 33 34  1  0
 35 33  2  0
M  END
$$$$
