FQW.pdb
     RDKit          3D

 35 37  0  0  1  0  0  0  0  0999 V2000
   23.1460  -18.7282  -18.7783 N   0  0  0  0  0  0  0  0  0  0  0  0
   23.2279  -18.9256  -17.3355 C   0  0  1  0  0  0  0  0  0  0  0  0
   21.8864  -19.5500  -16.9294 C   0  0  0  0  0  0  0  0  0  0  0  0
   20.8709  -18.4934  -17.0982 C   0  0  0  0  0  0  0  0  0  0  0  0
   20.0685  -18.4282  -18.2103 C   0  0  0  0  0  0  0  0  0  0  0  0
   19.1119  -17.4185  -18.3487 C   0  0  0  0  0  0  0  0  0  0  0  0
   18.9561  -16.4674  -17.3685 C   0  0  0  0  0  0  0  0  0  0  0  0
   19.7591  -16.5309  -16.2527 C   0  0  0  0  0  0  0  0  0  0  0  0
   20.7124  -17.5406  -16.1199 C   0  0  0  0  0  0  0  0  0  0  0  0
   24.2747  -19.9391  -17.0687 C   0  0  0  0  0  0  0  0  0  0  0  0
   24.5886  -20.7879  -17.9607 O   0  0  0  0  0  0  0  0  0  0  0  0
   28.9737  -19.4804  -13.9312 N   0  0  0  0  0  0  0  0  0  0  0  0
   29.2499  -20.7036  -14.5637 C   0  0  0  0  0  0  0  0  0  0  0  0
   30.2477  -21.3667  -14.2254 O   0  0  0  0  0  0  0  0  0  0  0  0
   28.3571  -21.1975  -15.6261 C   0  0  0  0  0  0  0  0  0  0  0  0
   27.2666  -20.1817  -15.8559 C   0  0  0  0  0  0  0  0  0  0  0  0
   25.9544  -20.8682  -15.5362 C   0  0  2  0  0  0  0  0  0  0  0  0
   24.9045  -19.9295  -15.8029 N   0  0  0  0  0  0  0  0  0  0  0  0
   25.8669  -21.3033  -14.1316 C   0  0  0  0  0  0  0  0  0  0  0  0
   26.6789  -22.1687  -13.7276 O   0  0  0  0  0  0  0  0  0  0  0  0
   24.9058  -20.7761  -13.2465 N   0  0  0  0  0  0  0  0  0  0  0  0
   24.9391  -21.1669  -11.8403 C   0  0  1  0  0  0  0  0  0  0  0  0
   26.3449  -21.0696  -11.3147 C   0  0  0  0  0  0  0  0  0  0  0  0
   26.3844  -20.7970   -9.8732 C   0  0  0  0  0  0  0  0  0  0  0  0
   25.3016  -20.4157   -9.0700 C   0  0  0  0  0  0  0  0  0  0  0  0
   25.7128  -20.2193   -7.8122 N   0  0  0  0  0  0  0  0  0  0  0  0
   27.0252  -20.4476   -7.7110 C   0  0  0  0  0  0  0  0  0  0  0  0
   27.9004  -20.3976   -6.6371 C   0  0  0  0  0  0  0  0  0  0  0  0
   29.2155  -20.7219   -6.8860 C   0  0  0  0  0  0  0  0  0  0  0  0
   29.6726  -21.0840   -8.1348 C   0  0  0  0  0  0  0  0  0  0  0  0
   28.7888  -21.1253   -9.1799 C   0  0  0  0  0  0  0  0  0  0  0  0
   27.4629  -20.8107   -8.9907 C   0  0  0  0  0  0  0  0  0  0  0  0
   23.8899  -20.5286  -11.0601 C   0  0  0  0  0  0  0  0  0  0  0  0
   23.4772  -20.9322   -9.8005 O   0  0  0  0  0  0  0  0  0  0  0  0
   23.2487  -19.5089  -11.5146 O   0  0  0  0  0  0  0  0  0  0  0  0
  2  1  1  6
  2  3  1  0
  3  4  1  0
  4  9  1  0
  4  5  2  0
  5  6  1  0
  6  7  2  0
  8  7  1  0
  9  8  2  0
 10 18  1  0
 10  2  1  0
 11 10  2  0
 12 13  1  0
 13 14  2  0
 15 16  1  0
 15 13  1  0
 17 16  1  1
 17 18  1  0
 19 17  1  0
 19 20  2  0
 21 19  1  0
 22 21  1  0
 22 33  1  0
 22 23  1  1
 24 23  1  0
 25 24  2  0
 26 25  1  0
 27 26  1  0
 27 32  2  0
 28 27  1  0
 29 28  2  0
 29 30  1  0
 30 31  2  0
 31 32  1  0
 32 24  1  0
 33 34  1  0
 35 33  2  0
M  END
$$$$
