FQW.pdb
     RDKit          3D

 35 37  0  0  1  0  0  0  0  0999 V2000
   25.3172  -15.0941  -16.7182 N   0  0  0  0  0  0  0  0  0  0  0  0
   26.1341  -16.1790  -16.1861 C   0  0  1  0  0  0  0  0  0  0  0  0
   27.4057  -15.5099  -15.6478 C   0  0  0  0  0  0  0  0  0  0  0  0
   28.3998  -15.5763  -16.7356 C   0  0  0  0  0  0  0  0  0  0  0  0
   28.6210  -14.5188  -17.5829 C   0  0  0  0  0  0  0  0  0  0  0  0
   29.5691  -14.6037  -18.6065 C   0  0  0  0  0  0  0  0  0  0  0  0
   30.3012  -15.7534  -18.7844 C   0  0  0  0  0  0  0  0  0  0  0  0
   30.0814  -16.8146  -17.9362 C   0  0  0  0  0  0  0  0  0  0  0  0
   29.1337  -16.7246  -16.9165 C   0  0  0  0  0  0  0  0  0  0  0  0
   25.4256  -16.7600  -15.0222 C   0  0  0  0  0  0  0  0  0  0  0  0
   24.4490  -16.1436  -14.4921 O   0  0  0  0  0  0  0  0  0  0  0  0
   21.6638  -17.9154  -13.5543 N   0  0  0  0  0  0  0  0  0  0  0  0
   21.7579  -19.3004  -13.3410 C   0  0  0  0  0  0  0  0  0  0  0  0
   20.9026  -19.8818  -12.6480 O   0  0  0  0  0  0  0  0  0  0  0  0
   22.8693  -20.0603  -13.9384 C   0  0  0  0  0  0  0  0  0  0  0  0
   23.7659  -19.1047  -14.6845 C   0  0  0  0  0  0  0  0  0  0  0  0
   24.9567  -18.8315  -13.7886 C   0  0  2  0  0  0  0  0  0  0  0  0
   25.8681  -18.0084  -14.5277 N   0  0  0  0  0  0  0  0  0  0  0  0
   25.6491  -20.0628  -13.3708 C   0  0  0  0  0  0  0  0  0  0  0  0
   25.9930  -20.8792  -14.2576 O   0  0  0  0  0  0  0  0  0  0  0  0
   25.9287  -20.3381  -12.0176 N   0  0  0  0  0  0  0  0  0  0  0  0
   26.6905  -21.5352  -11.6747 C   0  0  1  0  0  0  0  0  0  0  0  0
   27.6690  -21.2225  -10.5762 C   0  0  0  0  0  0  0  0  0  0  0  0
   27.0025  -20.8112   -9.3350 C   0  0  0  0  0  0  0  0  0  0  0  0
   25.6201  -20.7255   -9.1237 C   0  0  0  0  0  0  0  0  0  0  0  0
   25.3740  -20.2832   -7.8853 N   0  0  0  0  0  0  0  0  0  0  0  0
   26.5194  -20.0613   -7.2345 C   0  0  0  0  0  0  0  0  0  0  0  0
   26.7910  -19.6241   -5.9474 C   0  0  0  0  0  0  0  0  0  0  0  0
   28.1164  -19.5261   -5.5865 C   0  0  0  0  0  0  0  0  0  0  0  0
   29.1495  -19.8410   -6.4428 C   0  0  0  0  0  0  0  0  0  0  0  0
   28.8556  -20.2701   -7.7094 C   0  0  0  0  0  0  0  0  0  0  0  0
   27.5495  -20.3866   -8.1257 C   0  0  0  0  0  0  0  0  0  0  0  0
   25.8419  -22.7039  -11.4989 C   0  0  0  0  0  0  0  0  0  0  0  0
   26.2988  -23.9977  -11.3068 O   0  0  0  0  0  0  0  0  0  0  0  0
   24.5585  -22.6039  -11.5177 O   0  0  0  0  0  0  0  0  0  0  0  0
  2  1  1  1
  2  3  1  0
  3  4  1  0
  4  9  1  0
  4  5  2  0
  5  6  1  0
  6  7  2  0
  8  7  1  0
  9  8  2  0
 10 18  1  0
 10  2  1  0
 11 10  2  0
 12 13  1  0
 13 14  2  0
 15 16  1  0
 15 13  1  0
 17 16  1  6
 17 18  1  0
 19 17  1  0
 19 20  2  0
 21 19  1  0
 22 21  1  0
 22 33  1  0
 22 23  1  1
 24 23  1  0
 25 24  2  0
 26 25  1  0
 27 26  1  0
 27 32  2  0
 28 27  1  0
 29 28  2  0
 29 30  1  0
 30 31  2  0
 31 32  1  0
 32 24  1  0
 33 34  1  0
 35 33  2  0
M  END
$$$$
