SIF.pdb
     RDKit          3D

 26 26  0  0  1  0  0  0  0  0999 V2000
   10.9560  -19.8620   21.0972 O   0  0  0  0  0  0  0  0  0  0  0  0
   10.3706  -19.4548   19.8910 C   0  0  0  0  0  0  0  0  0  0  0  0
   11.0466  -18.1452   19.5343 C   0  0  2  0  0  0  0  0  0  0  0  0
   12.4592  -18.3842   19.5268 N   0  0  0  0  0  0  0  0  0  0  0  0
   10.7061  -17.1422   20.5899 C   0  0  0  0  0  0  0  0  0  0  0  0
   11.5964  -16.7313   21.3695 O   0  0  0  0  0  0  0  0  0  0  0  0
    7.2249  -12.3326   21.1003 C   0  0  0  0  0  0  0  0  0  0  0  0
    8.0539  -13.3160   21.9524 C   0  0  0  0  0  0  0  0  0  0  0  0
    8.0627  -14.5914   21.1785 C   0  0  2  0  0  0  0  0  0  0  0  0
    6.6169  -15.0997   21.0788 C   0  0  0  0  0  0  0  0  0  0  0  0
    8.9668  -15.6691   21.6919 C   0  0  2  0  0  0  0  0  0  0  0  0
    9.3813  -16.6388   20.7340 N   0  0  0  0  0  0  0  0  0  0  0  0
    8.6233  -16.1445   23.0383 C   0  0  0  0  0  0  0  0  0  0  0  0
    8.1306  -17.3316   23.1868 O   0  0  0  0  0  0  0  0  0  0  0  0
    8.7646  -15.4305   24.2580 N   0  0  0  0  0  0  0  0  0  0  0  0
    8.5880  -16.1170   25.5384 C   0  0  1  0  0  0  0  0  0  0  0  0
    8.6804  -15.2692   26.7421 C   0  0  0  0  0  0  0  0  0  0  0  0
    7.9437  -13.9923   26.6755 C   0  0  0  0  0  0  0  0  0  0  0  0
    8.5685  -12.7610   26.7687 C   0  0  0  0  0  0  0  0  0  0  0  0
    7.8305  -11.6041   26.6792 C   0  0  0  0  0  0  0  0  0  0  0  0
    6.4854  -11.6240   26.4989 C   0  0  0  0  0  0  0  0  0  0  0  0
    5.8485  -12.8355   26.4041 C   0  0  0  0  0  0  0  0  0  0  0  0
    6.5849  -13.9876   26.4939 C   0  0  0  0  0  0  0  0  0  0  0  0
    7.2430  -16.7829   25.5218 C   0  0  0  0  0  0  0  0  0  0  0  0
    6.3684  -16.4789   24.4946 O   0  0  0  0  0  0  0  0  0  0  0  0
    6.8700  -17.6025   26.3928 O   0  0  0  0  0  0  0  0  0  0  0  0
  2  3  1  0
  2  1  1  0
  3  4  1  1
  5  3  1  0
  5  6  2  0
  8  9  1  0
  8  7  1  0
  9 11  1  0
  9 10  1  1
 11 13  1  0
 11 12  1  6
 12  5  1  0
 13 15  1  0
 14 13  2  0
 15 16  1  0
 16 24  1  0
 16 17  1  1
 18 17  1  0
 19 18  2  0
 20 19  1  0
 21 22  1  0
 21 20  2  0
 22 23  2  0
 23 18  1  0
 24 26  2  0
 24 25  1  0
M  END
$$$$
