SIF.pdb
     RDKit          3D

 26 26  0  0  1  0  0  0  0  0999 V2000
   11.8509  -19.5265   20.1680 O   0  0  0  0  0  0  0  0  0  0  0  0
   10.9143  -18.9871   19.2761 C   0  0  0  0  0  0  0  0  0  0  0  0
   11.3862  -17.5729   18.9993 C   0  0  2  0  0  0  0  0  0  0  0  0
   12.8043  -17.6285   18.8036 N   0  0  0  0  0  0  0  0  0  0  0  0
   11.0705  -16.7335   20.1960 C   0  0  0  0  0  0  0  0  0  0  0  0
   11.9971  -16.3299   20.9362 O   0  0  0  0  0  0  0  0  0  0  0  0
    6.8177  -13.1125   20.4109 C   0  0  0  0  0  0  0  0  0  0  0  0
    8.2136  -13.7680   20.4556 C   0  0  0  0  0  0  0  0  0  0  0  0
    8.1310  -14.7883   21.5408 C   0  0  2  0  0  0  0  0  0  0  0  0
    7.8276  -14.0606   22.8587 C   0  0  0  0  0  0  0  0  0  0  0  0
    9.3198  -15.6859   21.6951 C   0  0  2  0  0  0  0  0  0  0  0  0
    9.7292  -16.3795   20.5199 N   0  0  0  0  0  0  0  0  0  0  0  0
    9.3510  -16.4209   22.9662 C   0  0  0  0  0  0  0  0  0  0  0  0
    8.8415  -17.6086   23.0264 O   0  0  0  0  0  0  0  0  0  0  0  0
    9.8910  -15.9701   24.2002 N   0  0  0  0  0  0  0  0  0  0  0  0
   10.1702  -16.9240   25.2745 C   0  0  1  0  0  0  0  0  0  0  0  0
   11.0693  -16.4467   26.3422 C   0  0  0  0  0  0  0  0  0  0  0  0
   10.5690  -15.3014   27.1267 C   0  0  0  0  0  0  0  0  0  0  0  0
    9.8111  -14.2859   26.5704 C   0  0  0  0  0  0  0  0  0  0  0  0
    9.3557  -13.2542   27.3573 C   0  0  0  0  0  0  0  0  0  0  0  0
    9.6263  -13.1926   28.6859 C   0  0  0  0  0  0  0  0  0  0  0  0
   10.3761  -14.1905   29.2553 C   0  0  0  0  0  0  0  0  0  0  0  0
   10.8298  -15.2179   28.4700 C   0  0  0  0  0  0  0  0  0  0  0  0
    8.8600  -17.3193   25.8908 C   0  0  0  0  0  0  0  0  0  0  0  0
    7.6995  -16.7546   25.3939 O   0  0  0  0  0  0  0  0  0  0  0  0
    8.7624  -18.1369   26.8350 O   0  0  0  0  0  0  0  0  0  0  0  0
  2  3  1  0
  2  1  1  0
  3  4  1  1
  5  3  1  0
  5  6  2  0
  8  9  1  0
  8  7  1  0
  9 11  1  0
  9 10  1  1
 11 13  1  0
 11 12  1  6
 12  5  1  0
 13 15  1  0
 14 13  2  0
 15 16  1  0
 16 24  1  0
 16 17  1  1
 18 17  1  0
 19 18  2  0
 20 19  1  0
 21 22  1  0
 21 20  2  0
 22 23  2  0
 23 18  1  0
 24 26  2  0
 24 25  1  0
M  END
$$$$
