SIF.pdb
     RDKit          3D

 26 26  0  0  1  0  0  0  0  0999 V2000
    8.9123  -18.8279   21.6191 O   0  0  0  0  0  0  0  0  0  0  0  0
    7.6586  -18.2177   21.4801 C   0  0  0  0  0  0  0  0  0  0  0  0
    7.9336  -16.8652   20.8520 C   0  0  2  0  0  0  0  0  0  0  0  0
    8.8497  -17.0769   19.7711 N   0  0  0  0  0  0  0  0  0  0  0  0
    8.5631  -15.9895   21.8880 C   0  0  0  0  0  0  0  0  0  0  0  0
    9.8026  -15.8084   21.8815 O   0  0  0  0  0  0  0  0  0  0  0  0
    6.5758  -12.1674   26.3562 C   0  0  0  0  0  0  0  0  0  0  0  0
    7.8203  -12.8080   25.7074 C   0  0  0  0  0  0  0  0  0  0  0  0
    7.2895  -13.8939   24.8330 C   0  0  2  0  0  0  0  0  0  0  0  0
    6.4947  -14.8701   25.7128 C   0  0  0  0  0  0  0  0  0  0  0  0
    8.2990  -14.6298   24.0073 C   0  0  2  0  0  0  0  0  0  0  0  0
    7.7811  -15.3513   22.8932 N   0  0  0  0  0  0  0  0  0  0  0  0
    9.3650  -15.2636   24.7939 C   0  0  0  0  0  0  0  0  0  0  0  0
   10.1170  -14.5320   25.5510 O   0  0  0  0  0  0  0  0  0  0  0  0
    9.6959  -16.6444   24.8272 N   0  0  0  0  0  0  0  0  0  0  0  0
   10.6522  -17.1493   25.8135 C   0  0  1  0  0  0  0  0  0  0  0  0
   10.1824  -17.1755   27.2116 C   0  0  0  0  0  0  0  0  0  0  0  0
   10.1570  -15.8684   27.8959 C   0  0  0  0  0  0  0  0  0  0  0  0
   11.3074  -15.1927   28.2637 C   0  0  0  0  0  0  0  0  0  0  0  0
   11.2203  -13.9671   28.8812 C   0  0  0  0  0  0  0  0  0  0  0  0
   10.0250  -13.3825   29.1489 C   0  0  0  0  0  0  0  0  0  0  0  0
    8.8736  -14.0374   28.7914 C   0  0  0  0  0  0  0  0  0  0  0  0
    8.9616  -15.2589   28.1766 C   0  0  0  0  0  0  0  0  0  0  0  0
   11.0371  -18.5427   25.4097 C   0  0  0  0  0  0  0  0  0  0  0  0
   11.9667  -19.2198   26.1778 O   0  0  0  0  0  0  0  0  0  0  0  0
   10.5586  -19.1265   24.4098 O   0  0  0  0  0  0  0  0  0  0  0  0
  2  3  1  0
  2  1  1  0
  3  4  1  6
  5  3  1  0
  5  6  2  0
  8  9  1  0
  8  7  1  0
  9 11  1  0
  9 10  1  1
 11 13  1  0
 11 12  1  1
 12  5  1  0
 13 15  1  0
 14 13  2  0
 15 16  1  0
 16 24  1  0
 16 17  1  1
 18 17  1  0
 19 18  2  0
 20 19  1  0
 21 22  1  0
 21 20  2  0
 22 23  2  0
 23 18  1  0
 24 26  2  0
 24 25  1  0
M  END
$$$$
