SIF.pdb
     RDKit          3D

 26 26  0  0  1  0  0  0  0  0999 V2000
   10.5611  -17.3793   19.5891 O   0  0  0  0  0  0  0  0  0  0  0  0
    9.7961  -18.5466   19.4640 C   0  0  0  0  0  0  0  0  0  0  0  0
    8.3507  -18.0930   19.5301 C   0  0  2  0  0  0  0  0  0  0  0  0
    8.2124  -16.9824   18.6357 N   0  0  0  0  0  0  0  0  0  0  0  0
    8.0628  -17.6565   20.9312 C   0  0  0  0  0  0  0  0  0  0  0  0
    7.8487  -16.4467   21.1756 O   0  0  0  0  0  0  0  0  0  0  0  0
    5.2595  -21.0722   24.2756 C   0  0  0  0  0  0  0  0  0  0  0  0
    5.7025  -19.8638   23.4250 C   0  0  0  0  0  0  0  0  0  0  0  0
    6.9314  -19.3455   24.0933 C   0  0  2  0  0  0  0  0  0  0  0  0
    6.5422  -18.8562   25.4960 C   0  0  0  0  0  0  0  0  0  0  0  0
    7.6871  -18.2843   23.3549 C   0  0  2  0  0  0  0  0  0  0  0  0
    8.0275  -18.5908   22.0059 N   0  0  0  0  0  0  0  0  0  0  0  0
    8.6921  -17.5907   24.1708 C   0  0  0  0  0  0  0  0  0  0  0  0
    9.9067  -18.0357   24.1971 O   0  0  0  0  0  0  0  0  0  0  0  0
    8.4899  -16.4404   24.9791 N   0  0  0  0  0  0  0  0  0  0  0  0
    9.6357  -15.7272   25.5454 C   0  0  1  0  0  0  0  0  0  0  0  0
    9.6067  -14.2578   25.4182 C   0  0  0  0  0  0  0  0  0  0  0  0
    8.3580  -13.6081   25.8610 C   0  0  0  0  0  0  0  0  0  0  0  0
    8.2183  -13.0248   27.1082 C   0  0  0  0  0  0  0  0  0  0  0  0
    7.0355  -12.4159   27.4566 C   0  0  0  0  0  0  0  0  0  0  0  0
    5.9785  -12.3637   26.6068 C   0  0  0  0  0  0  0  0  0  0  0  0
    6.0985  -12.9364   25.3659 C   0  0  0  0  0  0  0  0  0  0  0  0
    7.2774  -13.5433   25.0200 C   0  0  0  0  0  0  0  0  0  0  0  0
    9.7246  -16.0818   27.0010 C   0  0  0  0  0  0  0  0  0  0  0  0
   10.8542  -15.7053   27.7045 O   0  0  0  0  0  0  0  0  0  0  0  0
    8.8261  -16.7032   27.6142 O   0  0  0  0  0  0  0  0  0  0  0  0
  2  3  1  0
  2  1  1  0
  3  4  1  6
  5  3  1  0
  5  6  2  0
  8  9  1  0
  8  7  1  0
  9 11  1  0
  9 10  1  1
 11 13  1  0
 11 12  1  6
 12  5  1  0
 13 15  1  0
 14 13  2  0
 15 16  1  0
 16 24  1  0
 16 17  1  1
 18 17  1  0
 19 18  2  0
 20 19  1  0
 21 22  1  0
 21 20  2  0
 22 23  2  0
 23 18  1  0
 24 26  2  0
 24 25  1  0
M  END
$$$$
