SIF.pdb
     RDKit          3D

 26 26  0  0  1  0  0  0  0  0999 V2000
    7.7668  -19.7392   25.0774 O   0  0  0  0  0  0  0  0  0  0  0  0
    6.5940  -19.2649   25.6800 C   0  0  0  0  0  0  0  0  0  0  0  0
    5.8398  -18.5389   24.5829 C   0  0  2  0  0  0  0  0  0  0  0  0
    5.6804  -19.4587   23.4962 N   0  0  0  0  0  0  0  0  0  0  0  0
    6.6648  -17.3714   24.1441 C   0  0  0  0  0  0  0  0  0  0  0  0
    7.4369  -17.4868   23.1644 O   0  0  0  0  0  0  0  0  0  0  0  0
    5.6641  -12.6105   26.8368 C   0  0  0  0  0  0  0  0  0  0  0  0
    5.8473  -13.3604   25.5010 C   0  0  0  0  0  0  0  0  0  0  0  0
    7.2607  -13.8373   25.5118 C   0  0  2  0  0  0  0  0  0  0  0  0
    8.1606  -12.6753   25.0663 C   0  0  0  0  0  0  0  0  0  0  0  0
    7.5490  -15.0667   24.7068 C   0  0  2  0  0  0  0  0  0  0  0  0
    6.5956  -16.1193   24.8201 N   0  0  0  0  0  0  0  0  0  0  0  0
    8.9701  -15.4353   24.6693 C   0  0  0  0  0  0  0  0  0  0  0  0
    9.7714  -14.7982   23.8781 O   0  0  0  0  0  0  0  0  0  0  0  0
    9.6079  -16.4558   25.4238 N   0  0  0  0  0  0  0  0  0  0  0  0
   11.0676  -16.5603   25.4356 C   0  0  1  0  0  0  0  0  0  0  0  0
   11.7794  -15.5496   26.2405 C   0  0  0  0  0  0  0  0  0  0  0  0
   11.1518  -15.2122   27.5327 C   0  0  0  0  0  0  0  0  0  0  0  0
   10.6402  -13.9570   27.8121 C   0  0  0  0  0  0  0  0  0  0  0  0
   10.0480  -13.7083   29.0281 C   0  0  0  0  0  0  0  0  0  0  0  0
    9.9437  -14.6661   29.9840 C   0  0  0  0  0  0  0  0  0  0  0  0
   10.4449  -15.9166   29.7250 C   0  0  0  0  0  0  0  0  0  0  0  0
   11.0352  -16.1632   28.5131 C   0  0  0  0  0  0  0  0  0  0  0  0
   11.4271  -17.9240   25.9494 C   0  0  0  0  0  0  0  0  0  0  0  0
   10.4072  -18.7729   26.3388 O   0  0  0  0  0  0  0  0  0  0  0  0
   12.6069  -18.3347   26.0443 O   0  0  0  0  0  0  0  0  0  0  0  0
  2  3  1  0
  2  1  1  0
  3  4  1  6
  5  3  1  0
  5  6  2  0
  8  9  1  0
  8  7  1  0
  9 11  1  0
  9 10  1  6
 11 13  1  0
 11 12  1  1
 12  5  1  0
 13 15  1  0
 14 13  2  0
 15 16  1  0
 16 24  1  0
 16 17  1  1
 18 17  1  0
 19 18  2  0
 20 19  1  0
 21 22  1  0
 21 20  2  0
 22 23  2  0
 23 18  1  0
 24 26  2  0
 24 25  1  0
M  END
$$$$
