SIF.pdb
     RDKit          3D

 26 26  0  0  1  0  0  0  0  0999 V2000
    7.2246  -19.4321   24.1042 O   0  0  0  0  0  0  0  0  0  0  0  0
    5.9718  -19.1576   23.5395 C   0  0  0  0  0  0  0  0  0  0  0  0
    6.2183  -19.0306   22.0488 C   0  0  2  0  0  0  0  0  0  0  0  0
    6.7489  -20.2824   21.5974 N   0  0  0  0  0  0  0  0  0  0  0  0
    7.2239  -17.9448   21.8335 C   0  0  0  0  0  0  0  0  0  0  0  0
    8.4430  -18.2270   21.7745 O   0  0  0  0  0  0  0  0  0  0  0  0
    7.2231  -11.8382   20.6878 C   0  0  0  0  0  0  0  0  0  0  0  0
    8.0844  -13.0655   21.0509 C   0  0  0  0  0  0  0  0  0  0  0  0
    7.1077  -14.1447   21.3780 C   0  0  2  0  0  0  0  0  0  0  0  0
    6.1438  -13.6090   22.4469 C   0  0  0  0  0  0  0  0  0  0  0  0
    7.6911  -15.4567   21.8034 C   0  0  2  0  0  0  0  0  0  0  0  0
    6.8266  -16.5839   21.6943 N   0  0  0  0  0  0  0  0  0  0  0  0
    8.5514  -15.3699   22.9905 C   0  0  0  0  0  0  0  0  0  0  0  0
    9.6208  -14.6429   22.9487 O   0  0  0  0  0  0  0  0  0  0  0  0
    8.3526  -16.0183   24.2385 N   0  0  0  0  0  0  0  0  0  0  0  0
    9.2450  -15.7390   25.3644 C   0  0  1  0  0  0  0  0  0  0  0  0
    8.6021  -15.1995   26.5775 C   0  0  0  0  0  0  0  0  0  0  0  0
    8.0276  -13.8471   26.4418 C   0  0  0  0  0  0  0  0  0  0  0  0
    6.6734  -13.6224   26.2665 C   0  0  0  0  0  0  0  0  0  0  0  0
    6.1944  -12.3372   26.1666 C   0  0  0  0  0  0  0  0  0  0  0  0
    7.0155  -11.2587   26.2352 C   0  0  0  0  0  0  0  0  0  0  0  0
    8.3611  -11.4618   26.4090 C   0  0  0  0  0  0  0  0  0  0  0  0
    8.8374  -12.7429   26.5079 C   0  0  0  0  0  0  0  0  0  0  0  0
    9.9492  -17.0156   25.7210 C   0  0  0  0  0  0  0  0  0  0  0  0
    9.6113  -18.1693   25.0374 O   0  0  0  0  0  0  0  0  0  0  0  0
   10.8301  -17.0909   26.6086 O   0  0  0  0  0  0  0  0  0  0  0  0
  2  3  1  0
  2  1  1  0
  3  4  1  1
  5  3  1  0
  5  6  2  0
  8  9  1  0
  8  7  1  0
  9 11  1  0
  9 10  1  1
 11 13  1  0
 11 12  1  1
 12  5  1  0
 13 15  1  0
 14 13  2  0
 15 16  1  0
 16 24  1  0
 16 17  1  1
 18 17  1  0
 19 18  2  0
 20 19  1  0
 21 22  1  0
 21 20  2  0
 22 23  2  0
 23 18  1  0
 24 26  2  0
 24 25  1  0
M  END
$$$$
