SIF.pdb
     RDKit          3D

 26 26  0  0  1  0  0  0  0  0999 V2000
    9.7719  -12.9565   18.9334 O   0  0  0  0  0  0  0  0  0  0  0  0
    8.8755  -13.0262   20.0082 C   0  0  0  0  0  0  0  0  0  0  0  0
    7.9435  -14.1776   19.6845 C   0  0  2  0  0  0  0  0  0  0  0  0
    6.8702  -13.6474   18.8975 N   0  0  0  0  0  0  0  0  0  0  0  0
    7.4100  -14.7213   20.9715 C   0  0  0  0  0  0  0  0  0  0  0  0
    6.5223  -14.0931   21.5932 O   0  0  0  0  0  0  0  0  0  0  0  0
    5.5104  -19.6107   21.3073 C   0  0  0  0  0  0  0  0  0  0  0  0
    5.7643  -18.0944   21.4362 C   0  0  0  0  0  0  0  0  0  0  0  0
    6.8258  -17.9634   22.4762 C   0  0  2  0  0  0  0  0  0  0  0  0
    6.2745  -18.5252   23.7949 C   0  0  0  0  0  0  0  0  0  0  0  0
    7.3842  -16.5890   22.6805 C   0  0  2  0  0  0  0  0  0  0  0  0
    7.8921  -15.9469   21.5146 N   0  0  0  0  0  0  0  0  0  0  0  0
    8.1409  -16.4323   23.9293 C   0  0  0  0  0  0  0  0  0  0  0  0
    9.4283  -16.5598   23.9128 O   0  0  0  0  0  0  0  0  0  0  0  0
    7.6136  -16.1502   25.2177 N   0  0  0  0  0  0  0  0  0  0  0  0
    8.5141  -15.8840   26.3403 C   0  0  1  0  0  0  0  0  0  0  0  0
    7.9762  -15.0174   27.4061 C   0  0  0  0  0  0  0  0  0  0  0  0
    7.4201  -13.7277   26.9536 C   0  0  0  0  0  0  0  0  0  0  0  0
    8.1818  -12.5766   26.8547 C   0  0  0  0  0  0  0  0  0  0  0  0
    7.6117  -11.4081   26.4067 C   0  0  0  0  0  0  0  0  0  0  0  0
    6.3039  -11.3392   26.0501 C   0  0  0  0  0  0  0  0  0  0  0  0
    5.5329  -12.4704   26.1413 C   0  0  0  0  0  0  0  0  0  0  0  0
    6.1020  -13.6340   26.5883 C   0  0  0  0  0  0  0  0  0  0  0  0
    8.9007  -17.2031   26.9428 C   0  0  0  0  0  0  0  0  0  0  0  0
    8.2767  -18.3479   26.4818 O   0  0  0  0  0  0  0  0  0  0  0  0
    9.7621  -17.3217   27.8448 O   0  0  0  0  0  0  0  0  0  0  0  0
  2  3  1  0
  2  1  1  0
  3  4  1  6
  5  3  1  0
  5  6  2  0
  8  9  1  0
  8  7  1  0
  9 11  1  0
  9 10  1  1
 11 13  1  0
 11 12  1  6
 12  5  1  0
 13 15  1  0
 14 13  2  0
 15 16  1  0
 16 24  1  0
 16 17  1  1
 18 17  1  0
 19 18  2  0
 20 19  1  0
 21 22  1  0
 21 20  2  0
 22 23  2  0
 23 18  1  0
 24 26  2  0
 24 25  1  0
M  END
$$$$
