SIF.pdb
     RDKit          3D

 26 26  0  0  1  0  0  0  0  0999 V2000
    9.8365  -20.2423   21.5046 O   0  0  0  0  0  0  0  0  0  0  0  0
    8.7540  -19.8333   20.7144 C   0  0  0  0  0  0  0  0  0  0  0  0
    9.3247  -18.8256   19.7355 C   0  0  2  0  0  0  0  0  0  0  0  0
   10.5229  -19.3925   19.1920 N   0  0  0  0  0  0  0  0  0  0  0  0
    9.6500  -17.5759   20.4897 C   0  0  0  0  0  0  0  0  0  0  0  0
   10.8360  -17.3332   20.8119 O   0  0  0  0  0  0  0  0  0  0  0  0
    7.9687  -11.8250   20.9110 C   0  0  0  0  0  0  0  0  0  0  0  0
    8.7361  -12.9343   21.6596 C   0  0  0  0  0  0  0  0  0  0  0  0
    8.2299  -14.2148   21.0855 C   0  0  2  0  0  0  0  0  0  0  0  0
    6.7023  -14.2377   21.2420 C   0  0  0  0  0  0  0  0  0  0  0  0
    8.8355  -15.4697   21.6343 C   0  0  2  0  0  0  0  0  0  0  0  0
    8.6349  -16.6462   20.8564 N   0  0  0  0  0  0  0  0  0  0  0  0
    8.7335  -15.5921   23.0942 C   0  0  0  0  0  0  0  0  0  0  0  0
    7.6850  -16.1437   23.6141 O   0  0  0  0  0  0  0  0  0  0  0  0
    9.6831  -15.1560   24.0562 N   0  0  0  0  0  0  0  0  0  0  0  0
    9.4735  -15.4351   25.4775 C   0  0  1  0  0  0  0  0  0  0  0  0
    8.0753  -15.3835   25.9448 C   0  0  0  0  0  0  0  0  0  0  0  0
    7.5330  -14.0301   26.1724 C   0  0  0  0  0  0  0  0  0  0  0  0
    8.3235  -12.9608   26.5554 C   0  0  0  0  0  0  0  0  0  0  0  0
    7.7637  -11.7173   26.7326 C   0  0  0  0  0  0  0  0  0  0  0  0
    6.4385  -11.4939   26.5420 C   0  0  0  0  0  0  0  0  0  0  0  0
    5.6390  -12.5420   26.1619 C   0  0  0  0  0  0  0  0  0  0  0  0
    6.1979  -13.7808   25.9861 C   0  0  0  0  0  0  0  0  0  0  0  0
   10.0260  -16.8008   25.7645 C   0  0  0  0  0  0  0  0  0  0  0  0
   10.0060  -17.2605   27.0686 O   0  0  0  0  0  0  0  0  0  0  0  0
   10.5059  -17.5486   24.8813 O   0  0  0  0  0  0  0  0  0  0  0  0
  2  3  1  0
  2  1  1  0
  3  4  1  1
  5  3  1  0
  5  6  2  0
  8  9  1  0
  8  7  1  0
  9 11  1  0
  9 10  1  1
 11 13  1  0
 11 12  1  6
 12  5  1  0
 13 15  1  0
 14 13  2  0
 15 16  1  0
 16 24  1  0
 16 17  1  6
 18 17  1  0
 19 18  2  0
 20 19  1  0
 21 22  1  0
 21 20  2  0
 22 23  2  0
 23 18  1  0
 24 26  2  0
 24 25  1  0
M  END
$$$$
