SIF.pdb
     RDKit          3D

 26 26  0  0  1  0  0  0  0  0999 V2000
    8.5376  -18.3092   20.3895 O   0  0  0  0  0  0  0  0  0  0  0  0
    7.2752  -17.7343   20.5876 C   0  0  0  0  0  0  0  0  0  0  0  0
    7.4542  -16.2556   20.3036 C   0  0  2  0  0  0  0  0  0  0  0  0
    8.2414  -16.1438   19.1119 N   0  0  0  0  0  0  0  0  0  0  0  0
    8.1864  -15.6450   21.4558 C   0  0  0  0  0  0  0  0  0  0  0  0
    9.4019  -15.3638   21.3434 O   0  0  0  0  0  0  0  0  0  0  0  0
    6.8516  -12.2337   26.3281 C   0  0  0  0  0  0  0  0  0  0  0  0
    7.9736  -13.0504   25.6541 C   0  0  0  0  0  0  0  0  0  0  0  0
    7.2731  -13.9782   24.7191 C   0  0  2  0  0  0  0  0  0  0  0  0
    6.3153  -14.8524   25.5418 C   0  0  0  0  0  0  0  0  0  0  0  0
    8.1498  -14.8278   23.8518 C   0  0  2  0  0  0  0  0  0  0  0  0
    7.5303  -15.3742   22.6910 N   0  0  0  0  0  0  0  0  0  0  0  0
    9.0744  -15.6889   24.6003 C   0  0  0  0  0  0  0  0  0  0  0  0
    8.6424  -16.8000   25.1029 O   0  0  0  0  0  0  0  0  0  0  0  0
   10.4490  -15.4432   24.8604 N   0  0  0  0  0  0  0  0  0  0  0  0
   11.2575  -16.4445   25.5572 C   0  0  1  0  0  0  0  0  0  0  0  0
   11.9992  -15.9650   26.7388 C   0  0  0  0  0  0  0  0  0  0  0  0
   11.1712  -15.3854   27.8141 C   0  0  0  0  0  0  0  0  0  0  0  0
   10.8714  -16.0684   28.9797 C   0  0  0  0  0  0  0  0  0  0  0  0
   10.1112  -15.4675   29.9555 C   0  0  0  0  0  0  0  0  0  0  0  0
    9.6343  -14.2044   29.8165 C   0  0  0  0  0  0  0  0  0  0  0  0
    9.9215  -13.5115   28.6677 C   0  0  0  0  0  0  0  0  0  0  0  0
   10.6787  -14.1115   27.6959 C   0  0  0  0  0  0  0  0  0  0  0  0
   10.3452  -17.5581   25.9819 C   0  0  0  0  0  0  0  0  0  0  0  0
    9.0095  -17.4877   25.6306 O   0  0  0  0  0  0  0  0  0  0  0  0
   10.7318  -18.5514   26.6403 O   0  0  0  0  0  0  0  0  0  0  0  0
  2  3  1  0
  2  1  1  0
  3  4  1  6
  5  3  1  0
  5  6  2  0
  8  9  1  0
  8  7  1  0
  9 11  1  0
  9 10  1  1
 11 13  1  0
 11 12  1  1
 12  5  1  0
 13 15  1  0
 14 13  2  0
 15 16  1  0
 16 24  1  0
 16 17  1  1
 18 17  1  0
 19 18  2  0
 20 19  1  0
 21 22  1  0
 21 20  2  0
 22 23  2  0
 23 18  1  0
 24 26  2  0
 24 25  1  0
M  END
$$$$
