SIF.pdb
     RDKit          3D

 26 26  0  0  1  0  0  0  0  0999 V2000
    5.9653  -18.9880   23.8073 O   0  0  0  0  0  0  0  0  0  0  0  0
    4.9014  -18.2920   23.2182 C   0  0  0  0  0  0  0  0  0  0  0  0
    5.2327  -18.2207   21.7402 C   0  0  2  0  0  0  0  0  0  0  0  0
    5.3299  -19.5672   21.2609 N   0  0  0  0  0  0  0  0  0  0  0  0
    6.5513  -17.5312   21.5909 C   0  0  0  0  0  0  0  0  0  0  0  0
    7.5988  -18.2081   21.4730 O   0  0  0  0  0  0  0  0  0  0  0  0
    7.0178  -12.2449   19.6435 C   0  0  0  0  0  0  0  0  0  0  0  0
    7.4140  -13.7323   19.7474 C   0  0  0  0  0  0  0  0  0  0  0  0
    7.7725  -13.9415   21.1804 C   0  0  2  0  0  0  0  0  0  0  0  0
    9.0898  -13.2019   21.4562 C   0  0  0  0  0  0  0  0  0  0  0  0
    7.8604  -15.3647   21.6381 C   0  0  2  0  0  0  0  0  0  0  0  0
    6.6475  -16.1100   21.5812 N   0  0  0  0  0  0  0  0  0  0  0  0
    8.7280  -15.5628   22.8064 C   0  0  0  0  0  0  0  0  0  0  0  0
    9.9809  -15.2495   22.7281 O   0  0  0  0  0  0  0  0  0  0  0  0
    8.3501  -16.0852   24.0720 N   0  0  0  0  0  0  0  0  0  0  0  0
    9.2853  -16.0397   25.1969 C   0  0  1  0  0  0  0  0  0  0  0  0
    9.5431  -14.7036   25.7667 C   0  0  0  0  0  0  0  0  0  0  0  0
    8.3419  -13.9277   26.1306 C   0  0  0  0  0  0  0  0  0  0  0  0
    8.3026  -13.0740   27.2191 C   0  0  0  0  0  0  0  0  0  0  0  0
    7.1596  -12.3614   27.4963 C   0  0  0  0  0  0  0  0  0  0  0  0
    6.0460  -12.4649   26.7274 C   0  0  0  0  0  0  0  0  0  0  0  0
    6.0662  -13.3061   25.6437 C   0  0  0  0  0  0  0  0  0  0  0  0
    7.2056  -14.0162   25.3688 C   0  0  0  0  0  0  0  0  0  0  0  0
    8.7459  -16.9280   26.2798 C   0  0  0  0  0  0  0  0  0  0  0  0
    9.5208  -17.1424   27.4050 O   0  0  0  0  0  0  0  0  0  0  0  0
    7.6266  -17.4873   26.2174 O   0  0  0  0  0  0  0  0  0  0  0  0
  2  3  1  0
  2  1  1  0
  3  4  1  1
  5  3  1  0
  5  6  2  0
  8  9  1  0
  8  7  1  0
  9 11  1  0
  9 10  1  6
 11 13  1  0
 11 12  1  1
 12  5  1  0
 13 15  1  0
 14 13  2  0
 15 16  1  0
 16 24  1  0
 16 17  1  1
 18 17  1  0
 19 18  2  0
 20 19  1  0
 21 22  1  0
 21 20  2  0
 22 23  2  0
 23 18  1  0
 24 26  2  0
 24 25  1  0
M  END
$$$$
