SIF.pdb
     RDKit          3D

 26 26  0  0  1  0  0  0  0  0999 V2000
    8.8146  -18.4187   20.8071 O   0  0  0  0  0  0  0  0  0  0  0  0
    7.6339  -17.6800   20.9614 C   0  0  0  0  0  0  0  0  0  0  0  0
    8.0152  -16.2413   20.6714 C   0  0  2  0  0  0  0  0  0  0  0  0
    9.0002  -16.2639   19.6313 N   0  0  0  0  0  0  0  0  0  0  0  0
    8.6026  -15.6550   21.9155 C   0  0  0  0  0  0  0  0  0  0  0  0
    9.8393  -15.4714   21.9943 O   0  0  0  0  0  0  0  0  0  0  0  0
    6.8773  -12.2413   26.7085 C   0  0  0  0  0  0  0  0  0  0  0  0
    7.9842  -13.1758   26.1777 C   0  0  0  0  0  0  0  0  0  0  0  0
    7.3746  -13.8803   25.0125 C   0  0  2  0  0  0  0  0  0  0  0  0
    6.0895  -14.5716   25.4910 C   0  0  0  0  0  0  0  0  0  0  0  0
    8.2585  -14.8503   24.2911 C   0  0  2  0  0  0  0  0  0  0  0  0
    7.7834  -15.2983   23.0249 N   0  0  0  0  0  0  0  0  0  0  0  0
    8.8988  -15.8394   25.1678 C   0  0  0  0  0  0  0  0  0  0  0  0
    8.4937  -15.9618   26.3904 O   0  0  0  0  0  0  0  0  0  0  0  0
    9.9621  -16.7184   24.8300 N   0  0  0  0  0  0  0  0  0  0  0  0
   11.1914  -16.7273   25.6243 C   0  0  1  0  0  0  0  0  0  0  0  0
   11.6347  -15.4181   26.1398 C   0  0  0  0  0  0  0  0  0  0  0  0
   11.1989  -15.0974   27.5127 C   0  0  0  0  0  0  0  0  0  0  0  0
   10.6424  -13.8779   27.8565 C   0  0  0  0  0  0  0  0  0  0  0  0
   10.2362  -13.6447   29.1495 C   0  0  0  0  0  0  0  0  0  0  0  0
   10.3625  -14.5840   30.1211 C   0  0  0  0  0  0  0  0  0  0  0  0
   10.9118  -15.7993   29.7989 C   0  0  0  0  0  0  0  0  0  0  0  0
   11.3166  -16.0303   28.5103 C   0  0  0  0  0  0  0  0  0  0  0  0
   10.9821  -17.6551   26.7854 C   0  0  0  0  0  0  0  0  0  0  0  0
    9.7373  -18.2340   26.9520 O   0  0  0  0  0  0  0  0  0  0  0  0
   11.8793  -17.9334   27.6144 O   0  0  0  0  0  0  0  0  0  0  0  0
  2  3  1  0
  2  1  1  0
  3  4  1  6
  5  3  1  0
  5  6  2  0
  8  9  1  0
  8  7  1  0
  9 11  1  0
  9 10  1  1
 11 13  1  0
 11 12  1  6
 12  5  1  0
 13 15  1  0
 14 13  2  0
 15 16  1  0
 16 24  1  0
 16 17  1  1
 18 17  1  0
 19 18  2  0
 20 19  1  0
 21 22  1  0
 21 20  2  0
 22 23  2  0
 23 18  1  0
 24 26  2  0
 24 25  1  0
M  END
$$$$
