SIF.pdb
     RDKit          3D

 26 26  0  0  1  0  0  0  0  0999 V2000
    8.6325  -19.7996   22.1446 O   0  0  0  0  0  0  0  0  0  0  0  0
    7.4946  -19.5690   21.3599 C   0  0  0  0  0  0  0  0  0  0  0  0
    7.9682  -18.7137   20.2008 C   0  0  2  0  0  0  0  0  0  0  0  0
    8.9127  -19.4920   19.4562 N   0  0  0  0  0  0  0  0  0  0  0  0
    8.6385  -17.4998   20.7608 C   0  0  0  0  0  0  0  0  0  0  0  0
    9.8885  -17.4533   20.8281 O   0  0  0  0  0  0  0  0  0  0  0  0
    6.7546  -12.3070   20.0126 C   0  0  0  0  0  0  0  0  0  0  0  0
    7.7103  -13.5164   20.0778 C   0  0  0  0  0  0  0  0  0  0  0  0
    7.7176  -13.9312   21.5108 C   0  0  2  0  0  0  0  0  0  0  0  0
    8.2954  -12.7749   22.3400 C   0  0  0  0  0  0  0  0  0  0  0  0
    8.4281  -15.2118   21.8240 C   0  0  2  0  0  0  0  0  0  0  0  0
    7.8838  -16.3847   21.2260 N   0  0  0  0  0  0  0  0  0  0  0  0
    8.8973  -15.3093   23.2122 C   0  0  0  0  0  0  0  0  0  0  0  0
    9.4576  -14.2837   23.7673 O   0  0  0  0  0  0  0  0  0  0  0  0
    8.8154  -16.4432   24.0636 N   0  0  0  0  0  0  0  0  0  0  0  0
    8.6152  -16.2708   25.5032 C   0  0  1  0  0  0  0  0  0  0  0  0
    7.2758  -15.8114   25.9168 C   0  0  0  0  0  0  0  0  0  0  0  0
    7.1532  -14.3628   26.1702 C   0  0  0  0  0  0  0  0  0  0  0  0
    5.9756  -13.6641   25.9700 C   0  0  0  0  0  0  0  0  0  0  0  0
    5.9170  -12.3177   26.2434 C   0  0  0  0  0  0  0  0  0  0  0  0
    6.9917  -11.6339   26.7121 C   0  0  0  0  0  0  0  0  0  0  0  0
    8.1679  -12.3099   26.9171 C   0  0  0  0  0  0  0  0  0  0  0  0
    8.2252  -13.6515   26.6437 C   0  0  0  0  0  0  0  0  0  0  0  0
    8.8985  -17.5863   26.1679 C   0  0  0  0  0  0  0  0  0  0  0  0
    9.1343  -18.6916   25.3709 O   0  0  0  0  0  0  0  0  0  0  0  0
    8.9326  -17.7359   27.4113 O   0  0  0  0  0  0  0  0  0  0  0  0
  2  3  1  0
  2  1  1  0
  3  4  1  1
  5  3  1  0
  5  6  2  0
  8  9  1  0
  8  7  1  0
  9 11  1  0
  9 10  1  1
 11 13  1  0
 11 12  1  1
 12  5  1  0
 13 15  1  0
 14 13  2  0
 15 16  1  0
 16 24  1  0
 16 17  1  6
 18 17  1  0
 19 18  2  0
 20 19  1  0
 21 22  1  0
 21 20  2  0
 22 23  2  0
 23 18  1  0
 24 26  2  0
 24 25  1  0
M  END
$$$$
