CQE.pdb
     RDKit          3D

 25 24  0  0  1  0  0  0  0  0999 V2000
    5.7356  -15.8008   26.3424 N   0  0  0  0  0  0  0  0  0  0  0  0
    6.5184  -14.7491   25.7727 C   0  0  1  0  0  0  0  0  0  0  0  0
    7.5122  -14.1665   26.7534 C   0  0  0  0  0  0  0  0  0  0  0  0
    6.8540  -12.6055   27.3842 S   0  0  0  0  0  0  0  0  0  0  0  0
    7.1979  -15.2583   24.5567 C   0  0  0  0  0  0  0  0  0  0  0  0
    7.4550  -16.4825   24.4010 O   0  0  0  0  0  0  0  0  0  0  0  0
    6.6920  -13.1033   18.4914 N   0  0  0  0  0  0  0  0  0  0  0  0
    7.6082  -14.1041   18.9011 C   0  0  0  0  0  0  0  0  0  0  0  0
    7.6044  -15.2353   18.3535 O   0  0  0  0  0  0  0  0  0  0  0  0
    8.5709  -13.8081   19.9809 C   0  0  0  0  0  0  0  0  0  0  0  0
    7.9339  -13.7246   21.3122 C   0  0  0  0  0  0  0  0  0  0  0  0
    8.2813  -14.7882   22.3069 C   0  0  2  0  0  0  0  0  0  0  0  0
    7.5743  -14.3799   23.5403 N   0  0  0  0  0  0  0  0  0  0  0  0
    9.7208  -14.8597   22.6439 C   0  0  0  0  0  0  0  0  0  0  0  0
   10.1067  -14.3693   23.7396 O   0  0  0  0  0  0  0  0  0  0  0  0
   10.7251  -15.4384   21.8396 N   0  0  0  0  0  0  0  0  0  0  0  0
   11.6798  -16.4296   22.3625 C   0  0  1  0  0  0  0  0  0  0  0  0
   10.9992  -17.4690   23.1696 C   0  0  0  0  0  0  0  0  0  0  0  0
   11.6522  -17.9670   24.3916 C   0  0  0  0  0  0  0  0  0  0  0  0
   10.8799  -18.1441   25.6063 C   0  0  0  0  0  0  0  0  0  0  0  0
   10.8750  -17.3552   26.5498 O   0  0  0  0  0  0  0  0  0  0  0  0
   12.6497  -16.8577   21.3552 C   0  0  0  0  0  0  0  0  0  0  0  0
   12.3224  -17.0018   20.1492 O   0  0  0  0  0  0  0  0  0  0  0  0
   10.0858  -19.2880   25.7157 O   0  0  0  0  0  0  0  0  0  0  0  0
   13.9932  -17.1284   21.6581 O   0  0  0  0  0  0  0  0  0  0  0  0
  2  1  1  1
  3  4  1  0
  3  2  1  0
  5  2  1  0
  5  6  2  0
  7  8  1  0
  8 10  1  0
  8  9  2  0
 10 11  1  0
 12 11  1  6
 12 13  1  0
 12 14  1  0
 13  5  1  0
 14 15  2  0
 14 16  1  0
 16 17  1  0
 17 22  1  0
 17 18  1  6
 19 18  1  0
 20 19  1  0
 20 21  2  0
 22 23  2  0
 22 25  1  0
 24 20  1  0
M  END
$$$$
