CQE.pdb
     RDKit          3D

 25 24  0  0  1  0  0  0  0  0999 V2000
    8.8047  -13.4542   19.1289 N   0  0  0  0  0  0  0  0  0  0  0  0
    7.8417  -13.2244   20.1601 C   0  0  1  0  0  0  0  0  0  0  0  0
    6.5034  -13.8626   19.8593 C   0  0  0  0  0  0  0  0  0  0  0  0
    6.6922  -15.6592   19.9251 S   0  0  0  0  0  0  0  0  0  0  0  0
    8.3912  -13.7091   21.4496 C   0  0  0  0  0  0  0  0  0  0  0  0
    9.6086  -14.0072   21.5846 O   0  0  0  0  0  0  0  0  0  0  0  0
    5.5540  -11.6242   26.3297 N   0  0  0  0  0  0  0  0  0  0  0  0
    6.6292  -12.2641   26.9954 C   0  0  0  0  0  0  0  0  0  0  0  0
    6.8452  -12.0466   28.2142 O   0  0  0  0  0  0  0  0  0  0  0  0
    7.4986  -13.1916   26.2441 C   0  0  0  0  0  0  0  0  0  0  0  0
    7.2295  -13.1817   24.7905 C   0  0  0  0  0  0  0  0  0  0  0  0
    8.0439  -14.1023   23.9358 C   0  0  2  0  0  0  0  0  0  0  0  0
    7.5600  -13.8485   22.5613 N   0  0  0  0  0  0  0  0  0  0  0  0
    7.8226  -15.5404   24.2075 C   0  0  0  0  0  0  0  0  0  0  0  0
    6.8739  -15.8690   24.9704 O   0  0  0  0  0  0  0  0  0  0  0  0
    8.5876  -16.6029   23.6818 N   0  0  0  0  0  0  0  0  0  0  0  0
    9.8880  -16.9943   24.2502 C   0  0  1  0  0  0  0  0  0  0  0  0
   10.9937  -16.1814   23.6921 C   0  0  0  0  0  0  0  0  0  0  0  0
   12.3294  -16.2742   24.3047 C   0  0  0  0  0  0  0  0  0  0  0  0
   13.5134  -16.2727   23.4672 C   0  0  0  0  0  0  0  0  0  0  0  0
   14.6660  -16.2026   23.8906 O   0  0  0  0  0  0  0  0  0  0  0  0
    9.8304  -17.1859   25.6989 C   0  0  0  0  0  0  0  0  0  0  0  0
   10.0145  -18.3165   26.2188 O   0  0  0  0  0  0  0  0  0  0  0  0
   13.3365  -16.3566   22.0842 O   0  0  0  0  0  0  0  0  0  0  0  0
    9.5748  -16.1374   26.5963 O   0  0  0  0  0  0  0  0  0  0  0  0
  2  1  1  6
  3  4  1  0
  3  2  1  0
  5  2  1  0
  5  6  2  0
  7  8  1  0
  8 10  1  0
  8  9  2  0
 10 11  1  0
 12 11  1  1
 12 13  1  0
 12 14  1  0
 13  5  1  0
 14 15  2  0
 14 16  1  0
 16 17  1  0
 17 22  1  0
 17 18  1  1
 19 18  1  0
 20 19  1  0
 20 21  2  0
 22 23  2  0
 22 25  1  0
 24 20  1  0
M  END
$$$$
