CQE.pdb
     RDKit          3D

 25 24  0  0  1  0  0  0  0  0999 V2000
    5.2937  -13.5176   26.7369 N   0  0  0  0  0  0  0  0  0  0  0  0
    6.2965  -12.9513   25.8901 C   0  0  1  0  0  0  0  0  0  0  0  0
    7.3678  -12.2178   26.6668 C   0  0  0  0  0  0  0  0  0  0  0  0
    6.8200  -10.5172   26.9417 S   0  0  0  0  0  0  0  0  0  0  0  0
    6.8809  -14.0250   25.0501 C   0  0  0  0  0  0  0  0  0  0  0  0
    6.9520  -15.2185   25.4497 O   0  0  0  0  0  0  0  0  0  0  0  0
    8.1233  -12.6284   19.1646 N   0  0  0  0  0  0  0  0  0  0  0  0
    8.4846  -13.9981   19.1180 C   0  0  0  0  0  0  0  0  0  0  0  0
    8.8300  -14.5304   18.0332 O   0  0  0  0  0  0  0  0  0  0  0  0
    8.4515  -14.7997   20.3577 C   0  0  0  0  0  0  0  0  0  0  0  0
    7.9061  -14.0527   21.5109 C   0  0  0  0  0  0  0  0  0  0  0  0
    7.8987  -14.7477   22.8370 C   0  0  2  0  0  0  0  0  0  0  0  0
    7.3732  -13.7343   23.7777 N   0  0  0  0  0  0  0  0  0  0  0  0
    9.2401  -15.1328   23.3300 C   0  0  0  0  0  0  0  0  0  0  0  0
    9.9964  -14.2306   23.7817 O   0  0  0  0  0  0  0  0  0  0  0  0
    9.7651  -16.4422   23.3449 N   0  0  0  0  0  0  0  0  0  0  0  0
   11.1479  -16.7321   23.7587 C   0  0  1  0  0  0  0  0  0  0  0  0
   11.2135  -17.9117   24.6526 C   0  0  0  0  0  0  0  0  0  0  0  0
   10.4615  -17.8926   25.9183 C   0  0  0  0  0  0  0  0  0  0  0  0
   10.5259  -19.0284   26.8177 C   0  0  0  0  0  0  0  0  0  0  0  0
   11.0719  -20.0978   26.5513 O   0  0  0  0  0  0  0  0  0  0  0  0
   12.0934  -16.6512   22.6459 C   0  0  0  0  0  0  0  0  0  0  0  0
   11.7055  -16.7048   21.4506 O   0  0  0  0  0  0  0  0  0  0  0  0
    9.9279  -18.9028   28.0738 O   0  0  0  0  0  0  0  0  0  0  0  0
   13.4770  -16.5053   22.8312 O   0  0  0  0  0  0  0  0  0  0  0  0
  2  1  1  1
  3  4  1  0
  3  2  1  0
  5  2  1  0
  5  6  2  0
  7  8  1  0
  8 10  1  0
  8  9  2  0
 10 11  1  0
 12 11  1  6
 12 13  1  0
 12 14  1  0
 13  5  1  0
 14 15  2  0
 14 16  1  0
 16 17  1  0
 17 22  1  0
 17 18  1  6
 19 18  1  0
 20 19  1  0
 20 21  2  0
 22 23  2  0
 22 25  1  0
 24 20  1  0
M  END
$$$$
