CQE.pdb
     RDKit          3D

 25 24  0  0  1  0  0  0  0  0999 V2000
    8.9069  -14.9631   19.3635 N   0  0  0  0  0  0  0  0  0  0  0  0
    7.8796  -14.9120   20.3562 C   0  0  1  0  0  0  0  0  0  0  0  0
    6.9521  -16.1058   20.2960 C   0  0  0  0  0  0  0  0  0  0  0  0
    7.9128  -17.6009   20.6270 S   0  0  0  0  0  0  0  0  0  0  0  0
    8.5076  -14.7856   21.6939 C   0  0  0  0  0  0  0  0  0  0  0  0
    9.7281  -15.0383   21.8829 O   0  0  0  0  0  0  0  0  0  0  0  0
    5.2198  -12.0558   26.1586 N   0  0  0  0  0  0  0  0  0  0  0  0
    6.3581  -12.3918   26.9335 C   0  0  0  0  0  0  0  0  0  0  0  0
    6.4536  -12.0085   28.1265 O   0  0  0  0  0  0  0  0  0  0  0  0
    7.4364  -13.1979   26.3269 C   0  0  0  0  0  0  0  0  0  0  0  0
    7.2339  -13.4344   24.8818 C   0  0  0  0  0  0  0  0  0  0  0  0
    8.2875  -14.2160   24.1603 C   0  0  2  0  0  0  0  0  0  0  0  0
    7.7500  -14.3773   22.7918 N   0  0  0  0  0  0  0  0  0  0  0  0
    8.5085  -15.5782   24.6954 C   0  0  0  0  0  0  0  0  0  0  0  0
    7.9874  -16.5538   24.0898 O   0  0  0  0  0  0  0  0  0  0  0  0
    9.2646  -15.8974   25.8429 N   0  0  0  0  0  0  0  0  0  0  0  0
    9.7615  -17.2581   26.1059 C   0  0  1  0  0  0  0  0  0  0  0  0
   10.3926  -17.8498   24.9032 C   0  0  0  0  0  0  0  0  0  0  0  0
   11.7246  -17.3782   24.4893 C   0  0  0  0  0  0  0  0  0  0  0  0
   12.3609  -17.9417   23.3142 C   0  0  0  0  0  0  0  0  0  0  0  0
   11.8885  -18.8517   22.6351 O   0  0  0  0  0  0  0  0  0  0  0  0
   10.4694  -17.3583   27.3816 C   0  0  0  0  0  0  0  0  0  0  0  0
   10.9295  -18.4548   27.7919 O   0  0  0  0  0  0  0  0  0  0  0  0
   13.5953  -17.4172   22.9239 O   0  0  0  0  0  0  0  0  0  0  0  0
   10.6860  -16.2547   28.2211 O   0  0  0  0  0  0  0  0  0  0  0  0
  2  1  1  6
  3  4  1  0
  3  2  1  0
  5  2  1  0
  5  6  2  0
  7  8  1  0
  8 10  1  0
  8  9  2  0
 10 11  1  0
 12 11  1  1
 12 13  1  0
 12 14  1  0
 13  5  1  0
 14 15  2  0
 14 16  1  0
 16 17  1  0
 17 22  1  0
 17 18  1  6
 19 18  1  0
 20 19  1  0
 20 21  2  0
 22 23  2  0
 22 25  1  0
 24 20  1  0
M  END
$$$$
