CQE.pdb
     RDKit          3D

 25 24  0  0  1  0  0  0  0  0999 V2000
    9.1317  -19.4594   17.2160 N   0  0  0  0  0  0  0  0  0  0  0  0
    8.4638  -18.9763   18.3839 C   0  0  1  0  0  0  0  0  0  0  0  0
    8.1265  -20.0814   19.3605 C   0  0  0  0  0  0  0  0  0  0  0  0
    6.8512  -21.1315   18.6267 S   0  0  0  0  0  0  0  0  0  0  0  0
    9.3022  -17.9321   19.0216 C   0  0  0  0  0  0  0  0  0  0  0  0
   10.5578  -17.9262   18.9095 O   0  0  0  0  0  0  0  0  0  0  0  0
    6.5248  -12.6632   19.7221 N   0  0  0  0  0  0  0  0  0  0  0  0
    7.1757  -13.1217   18.5495 C   0  0  0  0  0  0  0  0  0  0  0  0
    6.8432  -12.6799   17.4210 O   0  0  0  0  0  0  0  0  0  0  0  0
    8.2513  -14.1270   18.6628 C   0  0  0  0  0  0  0  0  0  0  0  0
    8.4562  -14.5959   20.0497 C   0  0  0  0  0  0  0  0  0  0  0  0
    9.4270  -15.7162   20.2587 C   0  0  2  0  0  0  0  0  0  0  0  0
    8.7111  -16.9157   19.7723 N   0  0  0  0  0  0  0  0  0  0  0  0
    9.7690  -15.9690   21.6764 C   0  0  0  0  0  0  0  0  0  0  0  0
    8.9028  -16.5092   22.4166 O   0  0  0  0  0  0  0  0  0  0  0  0
   10.9994  -15.6579   22.2928 N   0  0  0  0  0  0  0  0  0  0  0  0
   11.6827  -16.5913   23.2035 C   0  0  1  0  0  0  0  0  0  0  0  0
   11.5928  -17.9887   22.7200 C   0  0  0  0  0  0  0  0  0  0  0  0
   12.2133  -19.0618   23.5145 C   0  0  0  0  0  0  0  0  0  0  0  0
   12.1036  -20.4415   23.0814 C   0  0  0  0  0  0  0  0  0  0  0  0
   12.9343  -21.3156   23.3234 O   0  0  0  0  0  0  0  0  0  0  0  0
   12.9850  -16.0914   23.6429 C   0  0  0  0  0  0  0  0  0  0  0  0
   13.3853  -16.2540   24.8242 O   0  0  0  0  0  0  0  0  0  0  0  0
   10.9787  -20.8063   22.3382 O   0  0  0  0  0  0  0  0  0  0  0  0
   13.8671  -15.4109   22.7892 O   0  0  0  0  0  0  0  0  0  0  0  0
  2  1  1  6
  3  4  1  0
  3  2  1  0
  5  2  1  0
  5  6  2  0
  7  8  1  0
  8 10  1  0
  8  9  2  0
 10 11  1  0
 12 11  1  1
 12 13  1  0
 12 14  1  0
 13  5  1  0
 14 15  2  0
 14 16  1  0
 16 17  1  0
 17 22  1  0
 17 18  1  6
 19 18  1  0
 20 19  1  0
 20 21  2  0
 22 23  2  0
 22 25  1  0
 24 20  1  0
M  END
$$$$
