CQE.pdb
     RDKit          3D

 25 24  0  0  1  0  0  0  0  0999 V2000
    7.6760  -13.6061   17.3934 N   0  0  0  0  0  0  0  0  0  0  0  0
    8.2716  -13.2984   18.6559 C   0  0  1  0  0  0  0  0  0  0  0  0
    7.2448  -13.0175   19.7308 C   0  0  0  0  0  0  0  0  0  0  0  0
    8.0986  -12.8483   21.3152 S   0  0  0  0  0  0  0  0  0  0  0  0
    9.1710  -14.4104   19.0485 C   0  0  0  0  0  0  0  0  0  0  0  0
    8.8556  -15.6175   18.8673 O   0  0  0  0  0  0  0  0  0  0  0  0
   14.9361  -13.7822   18.0631 N   0  0  0  0  0  0  0  0  0  0  0  0
   15.0814  -14.9298   18.8822 C   0  0  0  0  0  0  0  0  0  0  0  0
   16.2058  -15.4718   19.0273 O   0  0  0  0  0  0  0  0  0  0  0  0
   13.8975  -15.4874   19.5662 C   0  0  0  0  0  0  0  0  0  0  0  0
   12.6808  -14.6719   19.3665 C   0  0  0  0  0  0  0  0  0  0  0  0
   11.4095  -15.1757   19.9757 C   0  0  2  0  0  0  0  0  0  0  0  0
   10.4071  -14.1422   19.6368 N   0  0  0  0  0  0  0  0  0  0  0  0
   11.4390  -15.2738   21.4523 C   0  0  0  0  0  0  0  0  0  0  0  0
   11.8957  -14.3000   22.1104 O   0  0  0  0  0  0  0  0  0  0  0  0
   10.9937  -16.3765   22.2114 N   0  0  0  0  0  0  0  0  0  0  0  0
   11.1360  -16.4341   23.6757 C   0  0  1  0  0  0  0  0  0  0  0  0
    9.8253  -16.6062   24.3444 C   0  0  0  0  0  0  0  0  0  0  0  0
    8.6195  -16.7863   23.5189 C   0  0  0  0  0  0  0  0  0  0  0  0
    7.3801  -17.2250   24.1309 C   0  0  0  0  0  0  0  0  0  0  0  0
    7.2412  -17.4631   25.3296 O   0  0  0  0  0  0  0  0  0  0  0  0
   12.2471  -17.2869   24.0965 C   0  0  0  0  0  0  0  0  0  0  0  0
   12.8738  -18.0016   23.2727 O   0  0  0  0  0  0  0  0  0  0  0  0
    6.2653  -17.3896   23.3055 O   0  0  0  0  0  0  0  0  0  0  0  0
   12.6879  -17.3621   25.4269 O   0  0  0  0  0  0  0  0  0  0  0  0
  2  1  1  6
  3  4  1  0
  3  2  1  0
  5  2  1  0
  5  6  2  0
  7  8  1  0
  8 10  1  0
  8  9  2  0
 10 11  1  0
 12 11  1  1
 12 13  1  0
 12 14  1  0
 13  5  1  0
 14 15  2  0
 14 16  1  0
 16 17  1  0
 17 22  1  0
 17 18  1  1
 19 18  1  0
 20 19  1  0
 20 21  2  0
 22 23  2  0
 22 25  1  0
 24 20  1  0
M  END
$$$$
