CQE.pdb
     RDKit          3D

 25 24  0  0  1  0  0  0  0  0999 V2000
    5.6473  -12.2132   26.6264 N   0  0  0  0  0  0  0  0  0  0  0  0
    6.9348  -12.5941   26.1359 C   0  0  1  0  0  0  0  0  0  0  0  0
    7.8641  -13.0552   27.2371 C   0  0  0  0  0  0  0  0  0  0  0  0
    9.4092  -13.6224   26.4895 S   0  0  0  0  0  0  0  0  0  0  0  0
    6.7655  -13.6426   25.1007 C   0  0  0  0  0  0  0  0  0  0  0  0
    5.9739  -14.6111   25.2572 O   0  0  0  0  0  0  0  0  0  0  0  0
    8.5842  -12.2976   19.4099 N   0  0  0  0  0  0  0  0  0  0  0  0
    8.1934  -13.6374   19.1627 C   0  0  0  0  0  0  0  0  0  0  0  0
    8.2369  -14.1103   17.9992 O   0  0  0  0  0  0  0  0  0  0  0  0
    7.7319  -14.4775   20.2860 C   0  0  0  0  0  0  0  0  0  0  0  0
    7.7650  -13.7708   21.5839 C   0  0  0  0  0  0  0  0  0  0  0  0
    7.3450  -14.5425   22.7962 C   0  0  2  0  0  0  0  0  0  0  0  0
    7.4902  -13.5804   23.9102 N   0  0  0  0  0  0  0  0  0  0  0  0
    8.2141  -15.6977   23.1138 C   0  0  0  0  0  0  0  0  0  0  0  0
    8.1323  -16.7280   22.3915 O   0  0  0  0  0  0  0  0  0  0  0  0
    9.1474  -15.7576   24.1701 N   0  0  0  0  0  0  0  0  0  0  0  0
    9.9788  -16.9466   24.4206 C   0  0  1  0  0  0  0  0  0  0  0  0
   11.2296  -16.9140   23.6274 C   0  0  0  0  0  0  0  0  0  0  0  0
   11.7213  -15.6223   23.1201 C   0  0  0  0  0  0  0  0  0  0  0  0
   12.9759  -15.5574   22.3955 C   0  0  0  0  0  0  0  0  0  0  0  0
   13.8412  -14.7022   22.5761 O   0  0  0  0  0  0  0  0  0  0  0  0
   10.0670  -17.2780   25.8423 C   0  0  0  0  0  0  0  0  0  0  0  0
    9.5205  -16.5595   26.7183 O   0  0  0  0  0  0  0  0  0  0  0  0
   13.2220  -16.5316   21.4251 O   0  0  0  0  0  0  0  0  0  0  0  0
   10.7523  -18.4057   26.3203 O   0  0  0  0  0  0  0  0  0  0  0  0
  2  1  1  1
  3  4  1  0
  3  2  1  0
  5  2  1  0
  5  6  2  0
  7  8  1  0
  8 10  1  0
  8  9  2  0
 10 11  1  0
 12 11  1  6
 12 13  1  0
 12 14  1  0
 13  5  1  0
 14 15  2  0
 14 16  1  0
 16 17  1  0
 17 22  1  0
 17 18  1  1
 19 18  1  0
 20 19  1  0
 20 21  2  0
 22 23  2  0
 22 25  1  0
 24 20  1  0
M  END
$$$$
