CQE.pdb
     RDKit          3D

 25 24  0  0  1  0  0  0  0  0999 V2000
    8.2911  -12.8837   17.2244 N   0  0  0  0  0  0  0  0  0  0  0  0
    8.7094  -13.1459   18.5659 C   0  0  1  0  0  0  0  0  0  0  0  0
    7.5444  -13.3225   19.5149 C   0  0  0  0  0  0  0  0  0  0  0  0
    8.0233  -12.6938   21.1407 S   0  0  0  0  0  0  0  0  0  0  0  0
    9.5929  -14.3372   18.5714 C   0  0  0  0  0  0  0  0  0  0  0  0
    9.5782  -15.1813   17.6351 O   0  0  0  0  0  0  0  0  0  0  0  0
   14.7513  -15.5849   17.1401 N   0  0  0  0  0  0  0  0  0  0  0  0
   14.5272  -14.3795   17.8512 C   0  0  0  0  0  0  0  0  0  0  0  0
   15.4048  -13.4803   17.8752 O   0  0  0  0  0  0  0  0  0  0  0  0
   13.2505  -14.1864   18.5676 C   0  0  0  0  0  0  0  0  0  0  0  0
   12.3630  -15.3660   18.4889 C   0  0  0  0  0  0  0  0  0  0  0  0
   11.4799  -15.6398   19.6664 C   0  0  2  0  0  0  0  0  0  0  0  0
   10.4753  -14.5548   19.6298 N   0  0  0  0  0  0  0  0  0  0  0  0
   12.1637  -15.5445   20.9756 C   0  0  0  0  0  0  0  0  0  0  0  0
   12.3764  -14.4001   21.4607 O   0  0  0  0  0  0  0  0  0  0  0  0
   12.6090  -16.6356   21.7512 N   0  0  0  0  0  0  0  0  0  0  0  0
   13.1745  -16.4650   23.0998 C   0  0  1  0  0  0  0  0  0  0  0  0
   12.5419  -17.3823   24.0761 C   0  0  0  0  0  0  0  0  0  0  0  0
   13.0131  -17.3776   25.4710 C   0  0  0  0  0  0  0  0  0  0  0  0
   12.5176  -18.3679   26.4076 C   0  0  0  0  0  0  0  0  0  0  0  0
   11.3610  -18.4166   26.8228 O   0  0  0  0  0  0  0  0  0  0  0  0
   14.6334  -16.3649   23.0861 C   0  0  0  0  0  0  0  0  0  0  0  0
   15.3108  -16.7899   22.1150 O   0  0  0  0  0  0  0  0  0  0  0  0
   13.4128  -19.3345   26.8720 O   0  0  0  0  0  0  0  0  0  0  0  0
   15.3674  -15.7922   24.1363 O   0  0  0  0  0  0  0  0  0  0  0  0
  2  1  1  6
  3  4  1  0
  3  2  1  0
  5  2  1  0
  5  6  2  0
  7  8  1  0
  8 10  1  0
  8  9  2  0
 10 11  1  0
 12 11  1  6
 12 13  1  0
 12 14  1  0
 13  5  1  0
 14 15  2  0
 14 16  1  0
 16 17  1  0
 17 22  1  0
 17 18  1  1
 19 18  1  0
 20 19  1  0
 20 21  2  0
 22 23  2  0
 22 25  1  0
 24 20  1  0
M  END
$$$$
