CQE.pdb
     RDKit          3D

 25 24  0  0  1  0  0  0  0  0999 V2000
    5.0837  -13.6822   26.5412 N   0  0  0  0  0  0  0  0  0  0  0  0
    6.1731  -13.0640   25.8525 C   0  0  1  0  0  0  0  0  0  0  0  0
    7.1581  -12.4059   26.7936 C   0  0  0  0  0  0  0  0  0  0  0  0
    6.7889  -10.6380   26.8724 S   0  0  0  0  0  0  0  0  0  0  0  0
    6.8398  -14.0761   24.9977 C   0  0  0  0  0  0  0  0  0  0  0  0
    7.0531  -15.2515   25.4005 O   0  0  0  0  0  0  0  0  0  0  0  0
    7.3099  -12.9675   18.9611 N   0  0  0  0  0  0  0  0  0  0  0  0
    8.0044  -14.2026   18.9905 C   0  0  0  0  0  0  0  0  0  0  0  0
    8.3287  -14.7778   17.9212 O   0  0  0  0  0  0  0  0  0  0  0  0
    8.3453  -14.8125   20.2914 C   0  0  0  0  0  0  0  0  0  0  0  0
    7.7707  -14.0783   21.4387 C   0  0  0  0  0  0  0  0  0  0  0  0
    7.9685  -14.6694   22.7999 C   0  0  2  0  0  0  0  0  0  0  0  0
    7.2528  -13.7457   23.7068 N   0  0  0  0  0  0  0  0  0  0  0  0
    9.3781  -14.7029   23.2502 C   0  0  0  0  0  0  0  0  0  0  0  0
    9.7046  -14.0148   24.2551 O   0  0  0  0  0  0  0  0  0  0  0  0
   10.4146  -15.4488   22.6504 N   0  0  0  0  0  0  0  0  0  0  0  0
   11.3358  -16.2888   23.4334 C   0  0  1  0  0  0  0  0  0  0  0  0
   10.6040  -17.1751   24.3683 C   0  0  0  0  0  0  0  0  0  0  0  0
   10.7868  -16.9925   25.8178 C   0  0  0  0  0  0  0  0  0  0  0  0
   10.4688  -18.0733   26.7310 C   0  0  0  0  0  0  0  0  0  0  0  0
   10.5698  -18.0036   27.9548 O   0  0  0  0  0  0  0  0  0  0  0  0
   12.3968  -16.8709   22.6124 C   0  0  0  0  0  0  0  0  0  0  0  0
   12.1912  -17.2094   21.4185 O   0  0  0  0  0  0  0  0  0  0  0  0
   10.0162  -19.2776   26.1870 O   0  0  0  0  0  0  0  0  0  0  0  0
   13.6992  -17.0842   23.0902 O   0  0  0  0  0  0  0  0  0  0  0  0
  2  1  1  1
  3  4  1  0
  3  2  1  0
  5  2  1  0
  5  6  2  0
  7  8  1  0
  8 10  1  0
  8  9  2  0
 10 11  1  0
 12 11  1  6
 12 13  1  0
 12 14  1  0
 13  5  1  0
 14 15  2  0
 14 16  1  0
 16 17  1  0
 17 22  1  0
 17 18  1  6
 19 18  1  0
 20 19  1  0
 20 21  2  0
 22 23  2  0
 22 25  1  0
 24 20  1  0
M  END
$$$$
