CQE.pdb
     RDKit          3D

 25 24  0  0  1  0  0  0  0  0999 V2000
   10.4913  -15.1629   13.1600 N   0  0  0  0  0  0  0  0  0  0  0  0
    9.9473  -15.7142   14.3614 C   0  0  1  0  0  0  0  0  0  0  0  0
   10.3121  -17.1702   14.5510 C   0  0  0  0  0  0  0  0  0  0  0  0
    9.5899  -18.1275   13.1982 S   0  0  0  0  0  0  0  0  0  0  0  0
   10.3932  -14.8935   15.5136 C   0  0  0  0  0  0  0  0  0  0  0  0
   11.5108  -14.3104   15.5227 O   0  0  0  0  0  0  0  0  0  0  0  0
    6.2497  -13.5966   19.9139 N   0  0  0  0  0  0  0  0  0  0  0  0
    7.4067  -13.1675   20.6111 C   0  0  0  0  0  0  0  0  0  0  0  0
    7.3130  -12.6907   21.7701 O   0  0  0  0  0  0  0  0  0  0  0  0
    8.7287  -13.2841   19.9638 C   0  0  0  0  0  0  0  0  0  0  0  0
    8.6525  -13.8430   18.5973 C   0  0  0  0  0  0  0  0  0  0  0  0
    9.9329  -13.9556   17.8298 C   0  0  2  0  0  0  0  0  0  0  0  0
    9.5728  -14.7453   16.6320 N   0  0  0  0  0  0  0  0  0  0  0  0
   10.9991  -14.7057   18.5308 C   0  0  0  0  0  0  0  0  0  0  0  0
   11.0006  -15.9642   18.4510 O   0  0  0  0  0  0  0  0  0  0  0  0
   12.0381  -14.1351   19.2959 N   0  0  0  0  0  0  0  0  0  0  0  0
   13.0740  -14.9509   19.9506 C   0  0  1  0  0  0  0  0  0  0  0  0
   14.4197  -14.3515   19.7938 C   0  0  0  0  0  0  0  0  0  0  0  0
   15.5846  -15.0508   20.3611 C   0  0  0  0  0  0  0  0  0  0  0  0
   16.9173  -14.5102   20.1741 C   0  0  0  0  0  0  0  0  0  0  0  0
   17.4900  -14.4289   19.0887 O   0  0  0  0  0  0  0  0  0  0  0  0
   12.6688  -15.4087   21.2791 C   0  0  0  0  0  0  0  0  0  0  0  0
   11.8445  -14.7598   21.9732 O   0  0  0  0  0  0  0  0  0  0  0  0
   17.6004  -14.0491   21.3018 O   0  0  0  0  0  0  0  0  0  0  0  0
   13.1596  -16.5879   21.8608 O   0  0  0  0  0  0  0  0  0  0  0  0
  2  1  1  6
  3  4  1  0
  3  2  1  0
  5  2  1  0
  5  6  2  0
  7  8  1  0
  8 10  1  0
  8  9  2  0
 10 11  1  0
 12 11  1  1
 12 13  1  0
 12 14  1  0
 13  5  1  0
 14 15  2  0
 14 16  1  0
 16 17  1  0
 17 22  1  0
 17 18  1  1
 19 18  1  0
 20 19  1  0
 20 21  2  0
 22 23  2  0
 22 25  1  0
 24 20  1  0
M  END
$$$$
