CQE.pdb
     RDKit          3D

 25 24  0  0  1  0  0  0  0  0999 V2000
   14.5700  -13.9568   15.3939 N   0  0  0  0  0  0  0  0  0  0  0  0
   13.4477  -14.7173   15.8473 C   0  0  1  0  0  0  0  0  0  0  0  0
   13.6874  -16.2093   15.7731 C   0  0  0  0  0  0  0  0  0  0  0  0
   14.0606  -16.6498   14.0600 S   0  0  0  0  0  0  0  0  0  0  0  0
   13.1053  -14.2955   17.2274 C   0  0  0  0  0  0  0  0  0  0  0  0
   13.9640  -13.7950   18.0029 O   0  0  0  0  0  0  0  0  0  0  0  0
    7.2378  -13.2201   18.6165 N   0  0  0  0  0  0  0  0  0  0  0  0
    7.7111  -13.3179   19.9489 C   0  0  0  0  0  0  0  0  0  0  0  0
    6.9341  -13.1259   20.9177 O   0  0  0  0  0  0  0  0  0  0  0  0
    9.1298  -13.6475   20.1924 C   0  0  0  0  0  0  0  0  0  0  0  0
    9.8910  -13.8686   18.9447 C   0  0  0  0  0  0  0  0  0  0  0  0
   11.3700  -14.0649   19.0690 C   0  0  2  0  0  0  0  0  0  0  0  0
   11.8039  -14.4451   17.7070 N   0  0  0  0  0  0  0  0  0  0  0  0
   11.7637  -15.1733   19.9674 C   0  0  0  0  0  0  0  0  0  0  0  0
   12.2162  -16.2320   19.4532 O   0  0  0  0  0  0  0  0  0  0  0  0
   11.6808  -15.1582   21.3758 N   0  0  0  0  0  0  0  0  0  0  0  0
   12.4380  -16.0973   22.2197 C   0  0  1  0  0  0  0  0  0  0  0  0
   13.8555  -16.1874   21.7986 C   0  0  0  0  0  0  0  0  0  0  0  0
   14.8676  -15.3984   22.5204 C   0  0  0  0  0  0  0  0  0  0  0  0
   16.2357  -15.3605   22.0408 C   0  0  0  0  0  0  0  0  0  0  0  0
   17.1886  -15.8888   22.6112 O   0  0  0  0  0  0  0  0  0  0  0  0
   12.1462  -15.9304   23.6430 C   0  0  0  0  0  0  0  0  0  0  0  0
   12.6717  -16.6731   24.5117 O   0  0  0  0  0  0  0  0  0  0  0  0
   16.4925  -14.6779   20.8495 O   0  0  0  0  0  0  0  0  0  0  0  0
   11.2773  -14.9424   24.1316 O   0  0  0  0  0  0  0  0  0  0  0  0
  2  1  1  1
  3  4  1  0
  3  2  1  0
  5  2  1  0
  5  6  2  0
  7  8  1  0
  8 10  1  0
  8  9  2  0
 10 11  1  0
 12 11  1  6
 12 13  1  0
 12 14  1  0
 13  5  1  0
 14 15  2  0
 14 16  1  0
 16 17  1  0
 17 22  1  0
 17 18  1  1
 19 18  1  0
 20 19  1  0
 20 21  2  0
 22 23  2  0
 22 25  1  0
 24 20  1  0
M  END
$$$$
