VNP.pdb
     RDKit          3D

 23 23  0  0  1  0  0  0  0  0999 V2000
    9.4540  -16.1424   20.6807 C   0  0  0  0  0  0  0  0  0  0  0  0
    9.2424  -14.8005   20.0532 C   0  0  2  0  0  0  0  0  0  0  0  0
   10.4520  -13.9087   20.2536 C   0  0  0  0  0  0  0  0  0  0  0  0
    8.0517  -14.0645   20.6105 C   0  0  2  0  0  0  0  0  0  0  0  0
    7.8697  -12.8069   19.9230 N   0  0  0  0  0  0  0  0  0  0  0  0
    8.2274  -13.7487   22.0621 C   0  0  0  0  0  0  0  0  0  0  0  0
    8.8742  -12.7617   22.4625 O   0  0  0  0  0  0  0  0  0  0  0  0
    5.7796  -13.6883   27.0002 N   0  0  0  0  0  0  0  0  0  0  0  0
    6.2941  -14.8987   26.4448 C   0  0  0  0  0  0  0  0  0  0  0  0
    6.6980  -15.7615   27.2539 O   0  0  0  0  0  0  0  0  0  0  0  0
    6.3131  -15.0447   24.9779 C   0  0  0  0  0  0  0  0  0  0  0  0
    7.6005  -14.4024   24.4296 C   0  0  2  0  0  0  0  0  0  0  0  0
    7.6094  -14.6455   22.9773 N   0  0  0  0  0  0  0  0  0  0  0  0
    8.7632  -15.0687   25.0552 C   0  0  0  0  0  0  0  0  0  0  0  0
    9.3837  -15.9342   24.3883 O   0  0  0  0  0  0  0  0  0  0  0  0
    9.2107  -14.7782   26.3634 N   0  0  0  0  0  0  0  0  0  0  0  0
    8.5064  -13.9411   27.3515 C   0  0  0  0  0  0  0  0  0  0  0  0
    9.6194  -13.3002   28.1321 C   0  0  0  0  0  0  0  0  0  0  0  0
   10.9048  -13.8877   27.6336 C   0  0  0  0  0  0  0  0  0  0  0  0
   10.4244  -15.1893   27.0283 C   0  0  1  0  0  0  0  0  0  0  0  0
   10.1182  -16.2105   28.0987 C   0  0  0  0  0  0  0  0  0  0  0  0
    8.9023  -16.8615   28.1085 O   0  0  0  0  0  0  0  0  0  0  0  0
   10.9410  -16.4902   28.9869 O   0  0  0  0  0  0  0  0  0  0  0  0
  2  1  1  1
  2  3  1  0
  4  2  1  0
  4  6  1  0
  4  5  1  6
  6  7  2  0
  8  9  1  0
  9 11  1  0
 10  9  2  0
 12 11  1  1
 12 14  1  0
 13  6  1  0
 13 12  1  0
 14 15  2  0
 16 14  1  0
 16 20  1  0
 17 16  1  0
 18 19  1  0
 18 17  1  0
 19 20  1  0
 20 21  1  1
 21 23  2  0
 21 22  1  0
M  END
$$$$
