VNP.pdb
     RDKit          3D

 23 23  0  0  1  0  0  0  0  0999 V2000
    6.8189  -13.3087   19.2060 C   0  0  0  0  0  0  0  0  0  0  0  0
    8.2906  -13.5783   19.2367 C   0  0  2  0  0  0  0  0  0  0  0  0
    8.7585  -14.1951   17.9331 C   0  0  0  0  0  0  0  0  0  0  0  0
    8.7005  -14.5154   20.3429 C   0  0  2  0  0  0  0  0  0  0  0  0
    8.2804  -15.8646   20.0419 N   0  0  0  0  0  0  0  0  0  0  0  0
    8.0695  -14.1407   21.6465 C   0  0  0  0  0  0  0  0  0  0  0  0
    8.0887  -12.9777   22.0936 O   0  0  0  0  0  0  0  0  0  0  0  0
    6.8799  -17.9257   25.6515 N   0  0  0  0  0  0  0  0  0  0  0  0
    6.9495  -17.3547   24.3447 C   0  0  0  0  0  0  0  0  0  0  0  0
    7.8043  -17.8314   23.5676 O   0  0  0  0  0  0  0  0  0  0  0  0
    6.0223  -16.2590   24.0079 C   0  0  0  0  0  0  0  0  0  0  0  0
    6.8402  -14.9931   23.6929 C   0  0  2  0  0  0  0  0  0  0  0  0
    7.4364  -15.1950   22.3616 N   0  0  0  0  0  0  0  0  0  0  0  0
    7.9103  -14.8592   24.7048 C   0  0  0  0  0  0  0  0  0  0  0  0
    9.0575  -15.2843   24.4184 O   0  0  0  0  0  0  0  0  0  0  0  0
    7.7060  -14.2755   25.9751 N   0  0  0  0  0  0  0  0  0  0  0  0
    6.3997  -14.0217   26.6093 C   0  0  0  0  0  0  0  0  0  0  0  0
    6.6329  -12.7757   27.4169 C   0  0  0  0  0  0  0  0  0  0  0  0
    8.0888  -12.4397   27.3016 C   0  0  0  0  0  0  0  0  0  0  0  0
    8.6769  -13.7820   26.9228 C   0  0  1  0  0  0  0  0  0  0  0  0
    8.7588  -14.7009   28.1191 C   0  0  0  0  0  0  0  0  0  0  0  0
    9.7707  -14.5472   29.0436 O   0  0  0  0  0  0  0  0  0  0  0  0
    7.9287  -15.6072   28.3027 O   0  0  0  0  0  0  0  0  0  0  0  0
  2  1  1  6
  2  3  1  0
  4  2  1  0
  4  6  1  0
  4  5  1  6
  6  7  2  0
  8  9  1  0
  9 11  1  0
 10  9  2  0
 12 11  1  1
 12 14  1  0
 13  6  1  0
 13 12  1  0
 14 15  2  0
 16 14  1  0
 16 20  1  0
 17 16  1  0
 18 19  1  0
 18 17  1  0
 19 20  1  0
 20 21  1  1
 21 23  2  0
 21 22  1  0
M  END
$$$$
