VNP.pdb
     RDKit          3D

 23 23  0  0  1  0  0  0  0  0999 V2000
    9.0307  -12.3301   20.2725 C   0  0  0  0  0  0  0  0  0  0  0  0
    8.3601  -13.2718   19.3223 C   0  0  2  0  0  0  0  0  0  0  0  0
    6.8992  -12.9109   19.1380 C   0  0  0  0  0  0  0  0  0  0  0  0
    8.4084  -14.7079   19.7751 C   0  0  2  0  0  0  0  0  0  0  0  0
    7.8916  -15.5788   18.7446 N   0  0  0  0  0  0  0  0  0  0  0  0
    7.5732  -14.9306   20.9961 C   0  0  0  0  0  0  0  0  0  0  0  0
    6.3330  -15.0436   20.9515 O   0  0  0  0  0  0  0  0  0  0  0  0
    7.2924  -17.9822   25.7584 N   0  0  0  0  0  0  0  0  0  0  0  0
    6.6481  -17.1143   24.8257 C   0  0  0  0  0  0  0  0  0  0  0  0
    5.5206  -16.6812   25.1469 O   0  0  0  0  0  0  0  0  0  0  0  0
    7.3468  -16.7940   23.5676 C   0  0  0  0  0  0  0  0  0  0  0  0
    7.5937  -15.2754   23.5073 C   0  0  2  0  0  0  0  0  0  0  0  0
    8.2764  -15.0081   22.2302 N   0  0  0  0  0  0  0  0  0  0  0  0
    8.4736  -14.8956   24.6336 C   0  0  0  0  0  0  0  0  0  0  0  0
    9.7085  -15.0971   24.5189 O   0  0  0  0  0  0  0  0  0  0  0  0
    7.9940  -14.3162   25.8295 N   0  0  0  0  0  0  0  0  0  0  0  0
    6.5808  -14.2246   26.2391 C   0  0  0  0  0  0  0  0  0  0  0  0
    6.5192  -12.9410   27.0185 C   0  0  0  0  0  0  0  0  0  0  0  0
    7.9195  -12.4167   27.1190 C   0  0  0  0  0  0  0  0  0  0  0  0
    8.7279  -13.6768   26.8957 C   0  0  1  0  0  0  0  0  0  0  0  0
    8.7325  -14.5497   28.1287 C   0  0  0  0  0  0  0  0  0  0  0  0
    9.5593  -14.2463   29.1901 O   0  0  0  0  0  0  0  0  0  0  0  0
    8.0017  -15.5505   28.2213 O   0  0  0  0  0  0  0  0  0  0  0  0
  2  1  1  1
  2  3  1  0
  4  2  1  0
  4  6  1  0
  4  5  1  6
  6  7  2  0
  8  9  1  0
  9 11  1  0
 10  9  2  0
 12 11  1  1
 12 14  1  0
 13  6  1  0
 13 12  1  0
 14 15  2  0
 16 14  1  0
 16 20  1  0
 17 16  1  0
 18 19  1  0
 18 17  1  0
 19 20  1  0
 20 21  1  1
 21 23  2  0
 21 22  1  0
M  END
$$$$
