VNP.pdb
     RDKit          3D

 23 23  0  0  1  0  0  0  0  0999 V2000
    7.3041  -12.5558   19.9819 C   0  0  0  0  0  0  0  0  0  0  0  0
    8.5076  -13.4425   19.9139 C   0  0  2  0  0  0  0  0  0  0  0  0
    9.1681  -13.3607   18.5517 C   0  0  0  0  0  0  0  0  0  0  0  0
    8.1921  -14.8938   20.1673 C   0  0  2  0  0  0  0  0  0  0  0  0
    7.3340  -15.4119   19.1268 N   0  0  0  0  0  0  0  0  0  0  0  0
    7.4716  -15.0842   21.4644 C   0  0  0  0  0  0  0  0  0  0  0  0
    6.2555  -14.8482   21.5996 O   0  0  0  0  0  0  0  0  0  0  0  0
    5.2559  -17.7242   23.8256 N   0  0  0  0  0  0  0  0  0  0  0  0
    6.6209  -17.7707   23.4097 C   0  0  0  0  0  0  0  0  0  0  0  0
    6.8600  -18.3516   22.3293 O   0  0  0  0  0  0  0  0  0  0  0  0
    7.6382  -17.1401   24.2705 C   0  0  0  0  0  0  0  0  0  0  0  0
    7.7253  -15.6424   23.9240 C   0  0  2  0  0  0  0  0  0  0  0  0
    8.2564  -15.5555   22.5533 N   0  0  0  0  0  0  0  0  0  0  0  0
    8.6635  -14.9944   24.8657 C   0  0  0  0  0  0  0  0  0  0  0  0
    9.8921  -15.0350   24.6051 O   0  0  0  0  0  0  0  0  0  0  0  0
    8.2460  -14.3311   26.0412 N   0  0  0  0  0  0  0  0  0  0  0  0
    6.8502  -14.1329   26.4719 C   0  0  0  0  0  0  0  0  0  0  0  0
    6.8839  -12.8129   27.1900 C   0  0  0  0  0  0  0  0  0  0  0  0
    8.3156  -12.3725   27.2393 C   0  0  0  0  0  0  0  0  0  0  0  0
    9.0403  -13.6894   27.0617 C   0  0  1  0  0  0  0  0  0  0  0  0
    9.0180  -14.5024   28.3348 C   0  0  0  0  0  0  0  0  0  0  0  0
    8.2039  -15.6112   28.4354 O   0  0  0  0  0  0  0  0  0  0  0  0
    9.7228  -14.2010   29.3129 O   0  0  0  0  0  0  0  0  0  0  0  0
  2  1  1  6
  2  3  1  0
  4  2  1  0
  4  6  1  0
  4  5  1  6
  6  7  2  0
  8  9  1  0
  9 11  1  0
 10  9  2  0
 12 11  1  1
 12 14  1  0
 13  6  1  0
 13 12  1  0
 14 15  2  0
 16 14  1  0
 16 20  1  0
 17 16  1  0
 18 19  1  0
 18 17  1  0
 19 20  1  0
 20 21  1  1
 21 23  2  0
 21 22  1  0
M  END
$$$$
