VNP.pdb
     RDKit          3D

 23 23  0  0  1  0  0  0  0  0999 V2000
    6.5629  -13.8655   19.3391 C   0  0  0  0  0  0  0  0  0  0  0  0
    7.9496  -13.3398   19.5390 C   0  0  2  0  0  0  0  0  0  0  0  0
    8.7226  -13.3327   18.2347 C   0  0  0  0  0  0  0  0  0  0  0  0
    8.7540  -14.1443   20.5268 C   0  0  2  0  0  0  0  0  0  0  0  0
    8.8997  -15.5062   20.0674 N   0  0  0  0  0  0  0  0  0  0  0  0
    8.0875  -14.2023   21.8648 C   0  0  0  0  0  0  0  0  0  0  0  0
    7.5100  -13.2214   22.3720 O   0  0  0  0  0  0  0  0  0  0  0  0
    6.5894  -18.3113   22.0395 N   0  0  0  0  0  0  0  0  0  0  0  0
    6.2857  -17.5916   23.2346 C   0  0  0  0  0  0  0  0  0  0  0  0
    5.0768  -17.3833   23.4736 O   0  0  0  0  0  0  0  0  0  0  0  0
    7.4021  -17.1509   24.0908 C   0  0  0  0  0  0  0  0  0  0  0  0
    7.6100  -15.6374   23.8989 C   0  0  2  0  0  0  0  0  0  0  0  0
    8.1466  -15.4529   22.5401 N   0  0  0  0  0  0  0  0  0  0  0  0
    8.5974  -15.1672   24.8944 C   0  0  0  0  0  0  0  0  0  0  0  0
    9.8173  -15.3518   24.6565 O   0  0  0  0  0  0  0  0  0  0  0  0
    8.2363  -14.5199   26.0971 N   0  0  0  0  0  0  0  0  0  0  0  0
    6.8607  -14.2801   26.5699 C   0  0  0  0  0  0  0  0  0  0  0  0
    6.9640  -12.9818   27.3201 C   0  0  0  0  0  0  0  0  0  0  0  0
    8.4124  -12.5976   27.3423 C   0  0  0  0  0  0  0  0  0  0  0  0
    9.0808  -13.9360   27.1120 C   0  0  1  0  0  0  0  0  0  0  0  0
    9.0598  -14.7809   28.3642 C   0  0  0  0  0  0  0  0  0  0  0  0
    9.9795  -14.5571   29.3673 O   0  0  0  0  0  0  0  0  0  0  0  0
    8.2250  -15.6874   28.5247 O   0  0  0  0  0  0  0  0  0  0  0  0
  2  1  1  6
  2  3  1  0
  4  2  1  0
  4  6  1  0
  4  5  1  6
  6  7  2  0
  8  9  1  0
  9 11  1  0
 10  9  2  0
 12 11  1  1
 12 14  1  0
 13  6  1  0
 13 12  1  0
 14 15  2  0
 16 14  1  0
 16 20  1  0
 17 16  1  0
 18 19  1  0
 18 17  1  0
 19 20  1  0
 20 21  1  1
 21 23  2  0
 21 22  1  0
M  END
$$$$
