VNP.pdb
     RDKit          3D

 23 23  0  0  1  0  0  0  0  0999 V2000
    7.5984  -12.6344   19.6523 C   0  0  0  0  0  0  0  0  0  0  0  0
    8.7041  -13.6427   19.6378 C   0  0  2  0  0  0  0  0  0  0  0  0
    9.4327  -13.6326   18.3083 C   0  0  0  0  0  0  0  0  0  0  0  0
    8.2264  -15.0524   19.8711 C   0  0  2  0  0  0  0  0  0  0  0  0
    7.3514  -15.4715   18.8006 N   0  0  0  0  0  0  0  0  0  0  0  0
    7.4486  -15.1686   21.1436 C   0  0  0  0  0  0  0  0  0  0  0  0
    6.2113  -15.0277   21.1911 O   0  0  0  0  0  0  0  0  0  0  0  0
    7.5116  -18.2266   26.0393 N   0  0  0  0  0  0  0  0  0  0  0  0
    6.7749  -17.3894   25.1478 C   0  0  0  0  0  0  0  0  0  0  0  0
    5.7006  -16.9176   25.5781 O   0  0  0  0  0  0  0  0  0  0  0  0
    7.3241  -17.1434   23.8019 C   0  0  0  0  0  0  0  0  0  0  0  0
    7.5704  -15.6330   23.6326 C   0  0  2  0  0  0  0  0  0  0  0  0
    8.2035  -15.4525   22.3153 N   0  0  0  0  0  0  0  0  0  0  0  0
    8.4937  -15.1836   24.6968 C   0  0  0  0  0  0  0  0  0  0  0  0
    9.7216  -15.4093   24.5546 O   0  0  0  0  0  0  0  0  0  0  0  0
    8.0631  -14.5120   25.8627 N   0  0  0  0  0  0  0  0  0  0  0  0
    6.6644  -14.3480   26.2986 C   0  0  0  0  0  0  0  0  0  0  0  0
    6.6624  -13.0149   26.9926 C   0  0  0  0  0  0  0  0  0  0  0  0
    8.0803  -12.5308   27.0251 C   0  0  0  0  0  0  0  0  0  0  0  0
    8.8435  -13.8284   26.8666 C   0  0  1  0  0  0  0  0  0  0  0  0
    8.8529  -14.6185   28.1543 C   0  0  0  0  0  0  0  0  0  0  0  0
    9.7006  -14.2603   29.1815 O   0  0  0  0  0  0  0  0  0  0  0  0
    8.1074  -15.5984   28.3230 O   0  0  0  0  0  0  0  0  0  0  0  0
  2  1  1  6
  2  3  1  0
  4  2  1  0
  4  6  1  0
  4  5  1  6
  6  7  2  0
  8  9  1  0
  9 11  1  0
 10  9  2  0
 12 11  1  1
 12 14  1  0
 13  6  1  0
 13 12  1  0
 14 15  2  0
 16 14  1  0
 16 20  1  0
 17 16  1  0
 18 19  1  0
 18 17  1  0
 19 20  1  0
 20 21  1  1
 21 23  2  0
 21 22  1  0
M  END
$$$$
