VNP.pdb
     RDKit          3D

 23 23  0  0  1  0  0  0  0  0999 V2000
    5.9372  -19.1900   24.4256 C   0  0  0  0  0  0  0  0  0  0  0  0
    6.8595  -20.1812   25.0629 C   0  0  2  0  0  0  0  0  0  0  0  0
    6.9341  -19.9700   26.5624 C   0  0  0  0  0  0  0  0  0  0  0  0
    8.2684  -20.1080   24.5342 C   0  0  2  0  0  0  0  0  0  0  0  0
    9.0400  -21.2380   24.9980 N   0  0  0  0  0  0  0  0  0  0  0  0
    8.9718  -18.8746   25.0052 C   0  0  0  0  0  0  0  0  0  0  0  0
    9.4992  -18.7891   26.1310 O   0  0  0  0  0  0  0  0  0  0  0  0
   11.9697  -15.9885   22.6195 N   0  0  0  0  0  0  0  0  0  0  0  0
   10.5937  -16.2214   22.3181 C   0  0  0  0  0  0  0  0  0  0  0  0
   10.3493  -16.9337   21.3208 O   0  0  0  0  0  0  0  0  0  0  0  0
    9.5722  -15.6146   23.1910 C   0  0  0  0  0  0  0  0  0  0  0  0
    9.4656  -16.4435   24.4842 C   0  0  2  0  0  0  0  0  0  0  0  0
    9.0091  -17.7867   24.0894 N   0  0  0  0  0  0  0  0  0  0  0  0
    8.4601  -15.8131   25.3667 C   0  0  0  0  0  0  0  0  0  0  0  0
    7.2671  -16.1977   25.2803 O   0  0  0  0  0  0  0  0  0  0  0  0
    8.7759  -14.8026   26.3021 N   0  0  0  0  0  0  0  0  0  0  0  0
   10.0894  -14.1525   26.4614 C   0  0  0  0  0  0  0  0  0  0  0  0
   10.1590  -13.8474   27.9314 C   0  0  0  0  0  0  0  0  0  0  0  0
    8.8374  -14.2297   28.5258 C   0  0  0  0  0  0  0  0  0  0  0  0
    7.9393  -14.1922   27.3080 C   0  0  1  0  0  0  0  0  0  0  0  0
    7.6018  -12.7715   26.9204 C   0  0  0  0  0  0  0  0  0  0  0  0
    6.5383  -12.1247   27.5144 O   0  0  0  0  0  0  0  0  0  0  0  0
    8.2634  -12.1536   26.0692 O   0  0  0  0  0  0  0  0  0  0  0  0
  2  1  1  6
  2  3  1  0
  4  2  1  0
  4  6  1  0
  4  5  1  1
  6  7  2  0
  8  9  1  0
  9 11  1  0
 10  9  2  0
 12 11  1  6
 12 14  1  0
 13  6  1  0
 13 12  1  0
 14 15  2  0
 16 14  1  0
 16 20  1  0
 17 16  1  0
 18 19  1  0
 18 17  1  0
 19 20  1  0
 20 21  1  6
 21 23  2  0
 21 22  1  0
M  END
$$$$
