VNP.pdb
     RDKit          3D

 23 23  0  0  1  0  0  0  0  0999 V2000
    8.4226  -12.0115   19.9556 C   0  0  0  0  0  0  0  0  0  0  0  0
    9.2284  -13.2642   19.8114 C   0  0  2  0  0  0  0  0  0  0  0  0
   10.0412  -13.2447   18.5317 C   0  0  0  0  0  0  0  0  0  0  0  0
    8.3861  -14.5131   19.7826 C   0  0  2  0  0  0  0  0  0  0  0  0
    7.4212  -14.4454   18.7094 N   0  0  0  0  0  0  0  0  0  0  0  0
    7.6163  -14.6896   21.0531 C   0  0  0  0  0  0  0  0  0  0  0  0
    6.4918  -14.1841   21.2342 O   0  0  0  0  0  0  0  0  0  0  0  0
    5.8084  -18.0746   25.1011 N   0  0  0  0  0  0  0  0  0  0  0  0
    7.1033  -17.4874   24.9706 C   0  0  0  0  0  0  0  0  0  0  0  0
    7.7180  -17.2404   26.0303 O   0  0  0  0  0  0  0  0  0  0  0  0
    7.6175  -17.2174   23.6155 C   0  0  0  0  0  0  0  0  0  0  0  0
    7.6261  -15.6959   23.3797 C   0  0  2  0  0  0  0  0  0  0  0  0
    8.2419  -15.4756   22.0603 N   0  0  0  0  0  0  0  0  0  0  0  0
    8.4520  -15.0607   24.4292 C   0  0  0  0  0  0  0  0  0  0  0  0
    9.7004  -15.0617   24.2866 O   0  0  0  0  0  0  0  0  0  0  0  0
    7.9062  -14.4522   25.5814 N   0  0  0  0  0  0  0  0  0  0  0  0
    6.4732  -14.3660   25.9165 C   0  0  0  0  0  0  0  0  0  0  0  0
    6.3582  -13.0607   26.6527 C   0  0  0  0  0  0  0  0  0  0  0  0
    7.7459  -12.5163   26.8075 C   0  0  0  0  0  0  0  0  0  0  0  0
    8.5782  -13.7723   26.6633 C   0  0  1  0  0  0  0  0  0  0  0  0
    8.5300  -14.6082   27.9208 C   0  0  0  0  0  0  0  0  0  0  0  0
    9.3040  -14.2673   29.0103 O   0  0  0  0  0  0  0  0  0  0  0  0
    7.8015  -15.6112   28.0090 O   0  0  0  0  0  0  0  0  0  0  0  0
  2  1  1  6
  2  3  1  0
  4  2  1  0
  4  6  1  0
  4  5  1  6
  6  7  2  0
  8  9  1  0
  9 11  1  0
 10  9  2  0
 12 11  1  1
 12 14  1  0
 13  6  1  0
 13 12  1  0
 14 15  2  0
 16 14  1  0
 16 20  1  0
 17 16  1  0
 18 19  1  0
 18 17  1  0
 19 20  1  0
 20 21  1  1
 21 23  2  0
 21 22  1  0
M  END
$$$$
