VNP.pdb
     RDKit          3D

 23 23  0  0  1  0  0  0  0  0999 V2000
    6.7423  -13.3501   19.2760 C   0  0  0  0  0  0  0  0  0  0  0  0
    8.2115  -13.1370   19.4639 C   0  0  2  0  0  0  0  0  0  0  0  0
    8.9484  -13.2272   18.1420 C   0  0  0  0  0  0  0  0  0  0  0  0
    8.8438  -14.1403   20.3933 C   0  0  2  0  0  0  0  0  0  0  0  0
    8.7557  -15.4698   19.8349 N   0  0  0  0  0  0  0  0  0  0  0  0
    8.1535  -14.1758   21.7200 C   0  0  0  0  0  0  0  0  0  0  0  0
    7.6385  -13.1661   22.2378 O   0  0  0  0  0  0  0  0  0  0  0  0
    6.4383  -18.1014   21.7278 N   0  0  0  0  0  0  0  0  0  0  0  0
    6.1249  -17.4830   22.9759 C   0  0  0  0  0  0  0  0  0  0  0  0
    4.9141  -17.2939   23.2213 O   0  0  0  0  0  0  0  0  0  0  0  0
    7.2343  -17.1158   23.8747 C   0  0  0  0  0  0  0  0  0  0  0  0
    7.5309  -15.6137   23.7126 C   0  0  2  0  0  0  0  0  0  0  0  0
    8.1136  -15.4398   22.3714 N   0  0  0  0  0  0  0  0  0  0  0  0
    8.5154  -15.2138   24.7411 C   0  0  0  0  0  0  0  0  0  0  0  0
    9.7364  -15.3736   24.4909 O   0  0  0  0  0  0  0  0  0  0  0  0
    8.1504  -14.6597   25.9883 N   0  0  0  0  0  0  0  0  0  0  0  0
    6.7749  -14.5044   26.4954 C   0  0  0  0  0  0  0  0  0  0  0  0
    6.8418  -13.2541   27.3269 C   0  0  0  0  0  0  0  0  0  0  0  0
    8.2749  -12.8164   27.3533 C   0  0  0  0  0  0  0  0  0  0  0  0
    8.9893  -14.1103   27.0269 C   0  0  1  0  0  0  0  0  0  0  0  0
    9.0212  -15.0343   28.2216 C   0  0  0  0  0  0  0  0  0  0  0  0
    9.9302  -14.8236   29.2373 O   0  0  0  0  0  0  0  0  0  0  0  0
    8.2402  -15.9956   28.3229 O   0  0  0  0  0  0  0  0  0  0  0  0
  2  1  1  6
  2  3  1  0
  4  2  1  0
  4  6  1  0
  4  5  1  6
  6  7  2  0
  8  9  1  0
  9 11  1  0
 10  9  2  0
 12 11  1  1
 12 14  1  0
 13  6  1  0
 13 12  1  0
 14 15  2  0
 16 14  1  0
 16 20  1  0
 17 16  1  0
 18 19  1  0
 18 17  1  0
 19 20  1  0
 20 21  1  1
 21 23  2  0
 21 22  1  0
M  END
$$$$
