VNP.pdb
     RDKit          3D

 23 23  0  0  1  0  0  0  0  0999 V2000
    7.2912  -17.6042   22.2362 C   0  0  0  0  0  0  0  0  0  0  0  0
    8.1700  -17.0713   21.1485 C   0  0  2  0  0  0  0  0  0  0  0  0
    9.5939  -17.5676   21.3064 C   0  0  0  0  0  0  0  0  0  0  0  0
    8.2264  -15.5661   21.1135 C   0  0  2  0  0  0  0  0  0  0  0  0
    8.9798  -15.1167   19.9655 N   0  0  0  0  0  0  0  0  0  0  0  0
    8.9031  -15.0103   22.3263 C   0  0  0  0  0  0  0  0  0  0  0  0
   10.1412  -14.8995   22.4147 O   0  0  0  0  0  0  0  0  0  0  0  0
    6.5610  -15.6578   25.3982 N   0  0  0  0  0  0  0  0  0  0  0  0
    6.3787  -14.2826   25.7361 C   0  0  0  0  0  0  0  0  0  0  0  0
    5.3344  -13.9899   26.3571 O   0  0  0  0  0  0  0  0  0  0  0  0
    7.4192  -13.3181   25.3351 C   0  0  0  0  0  0  0  0  0  0  0  0
    8.5742  -14.0820   24.6620 C   0  0  2  0  0  0  0  0  0  0  0  0
    8.0493  -14.6082   23.3907 N   0  0  0  0  0  0  0  0  0  0  0  0
    8.9732  -15.2029   25.5403 C   0  0  0  0  0  0  0  0  0  0  0  0
    8.8693  -16.3737   25.0963 O   0  0  0  0  0  0  0  0  0  0  0  0
    9.4666  -15.0213   26.8516 N   0  0  0  0  0  0  0  0  0  0  0  0
    8.9371  -14.0755   27.8507 C   0  0  0  0  0  0  0  0  0  0  0  0
   10.1524  -13.6731   28.6382 C   0  0  0  0  0  0  0  0  0  0  0  0
   11.2998  -14.4931   28.1312 C   0  0  0  0  0  0  0  0  0  0  0  0
   10.5763  -15.6687   27.5102 C   0  0  1  0  0  0  0  0  0  0  0  0
   10.0757  -16.6241   28.5680 C   0  0  0  0  0  0  0  0  0  0  0  0
    8.7229  -16.7475   28.8068 O   0  0  0  0  0  0  0  0  0  0  0  0
   10.8564  -17.3168   29.2425 O   0  0  0  0  0  0  0  0  0  0  0  0
  2  1  1  1
  2  3  1  0
  4  2  1  0
  4  6  1  0
  4  5  1  6
  6  7  2  0
  8  9  1  0
  9 11  1  0
 10  9  2  0
 12 11  1  1
 12 14  1  0
 13  6  1  0
 13 12  1  0
 14 15  2  0
 16 14  1  0
 16 20  1  0
 17 16  1  0
 18 19  1  0
 18 17  1  0
 19 20  1  0
 20 21  1  1
 21 23  2  0
 21 22  1  0
M  END
$$$$
