VNP.pdb
     RDKit          3D

 23 23  0  0  1  0  0  0  0  0999 V2000
    9.4918  -12.8208   20.3535 C   0  0  0  0  0  0  0  0  0  0  0  0
    8.6812  -13.6469   19.4049 C   0  0  2  0  0  0  0  0  0  0  0  0
    7.3050  -13.0453   19.1980 C   0  0  0  0  0  0  0  0  0  0  0  0
    8.4796  -15.0645   19.8736 C   0  0  2  0  0  0  0  0  0  0  0  0
    7.7998  -15.8383   18.8605 N   0  0  0  0  0  0  0  0  0  0  0  0
    7.6372  -15.1235   21.1085 C   0  0  0  0  0  0  0  0  0  0  0  0
    6.4255  -14.8324   21.1110 O   0  0  0  0  0  0  0  0  0  0  0  0
    6.6742  -18.3630   21.9503 N   0  0  0  0  0  0  0  0  0  0  0  0
    6.3048  -17.5617   23.0728 C   0  0  0  0  0  0  0  0  0  0  0  0
    5.0835  -17.3541   23.2379 O   0  0  0  0  0  0  0  0  0  0  0  0
    7.3734  -17.0425   23.9459 C   0  0  0  0  0  0  0  0  0  0  0  0
    7.6198  -15.5614   23.6052 C   0  0  2  0  0  0  0  0  0  0  0  0
    8.2988  -15.5350   22.2987 N   0  0  0  0  0  0  0  0  0  0  0  0
    8.5029  -14.9803   24.6393 C   0  0  0  0  0  0  0  0  0  0  0  0
    9.7441  -15.0052   24.4452 O   0  0  0  0  0  0  0  0  0  0  0  0
    8.0194  -14.3978   25.8321 N   0  0  0  0  0  0  0  0  0  0  0  0
    6.6038  -14.2904   26.2292 C   0  0  0  0  0  0  0  0  0  0  0  0
    6.5502  -13.0077   27.0108 C   0  0  0  0  0  0  0  0  0  0  0  0
    7.9556  -12.5001   27.1249 C   0  0  0  0  0  0  0  0  0  0  0  0
    8.7511  -13.7691   26.9062 C   0  0  1  0  0  0  0  0  0  0  0  0
    8.7345  -14.6445   28.1373 C   0  0  0  0  0  0  0  0  0  0  0  0
    9.5975  -14.3883   29.1822 O   0  0  0  0  0  0  0  0  0  0  0  0
    7.9535  -15.6054   28.2431 O   0  0  0  0  0  0  0  0  0  0  0  0
  2  1  1  1
  2  3  1  0
  4  2  1  0
  4  6  1  0
  4  5  1  6
  6  7  2  0
  8  9  1  0
  9 11  1  0
 10  9  2  0
 12 11  1  1
 12 14  1  0
 13  6  1  0
 13 12  1  0
 14 15  2  0
 16 14  1  0
 16 20  1  0
 17 16  1  0
 18 19  1  0
 18 17  1  0
 19 20  1  0
 20 21  1  1
 21 23  2  0
 21 22  1  0
M  END
$$$$
