VNP.pdb
     RDKit          3D

 23 23  0  0  1  0  0  0  0  0999 V2000
    9.1217  -12.6134   20.4073 C   0  0  0  0  0  0  0  0  0  0  0  0
    8.3919  -13.5229   19.4694 C   0  0  2  0  0  0  0  0  0  0  0  0
    6.9411  -13.1068   19.3260 C   0  0  0  0  0  0  0  0  0  0  0  0
    8.3985  -14.9630   19.9120 C   0  0  2  0  0  0  0  0  0  0  0  0
    7.8317  -15.8080   18.8864 N   0  0  0  0  0  0  0  0  0  0  0  0
    7.5799  -15.1649   21.1477 C   0  0  0  0  0  0  0  0  0  0  0  0
    6.3590  -15.4118   21.1131 O   0  0  0  0  0  0  0  0  0  0  0  0
    7.0618  -18.3542   25.6466 N   0  0  0  0  0  0  0  0  0  0  0  0
    6.6184  -17.2004   24.9321 C   0  0  0  0  0  0  0  0  0  0  0  0
    5.6756  -16.5540   25.4375 O   0  0  0  0  0  0  0  0  0  0  0  0
    7.2930  -16.8567   23.6671 C   0  0  0  0  0  0  0  0  0  0  0  0
    7.6317  -15.3547   23.6749 C   0  0  2  0  0  0  0  0  0  0  0  0
    8.2757  -15.0594   22.3840 N   0  0  0  0  0  0  0  0  0  0  0  0
    8.5800  -15.0910   24.7786 C   0  0  0  0  0  0  0  0  0  0  0  0
    9.7674  -15.4815   24.6499 O   0  0  0  0  0  0  0  0  0  0  0  0
    8.2168  -14.4206   25.9680 N   0  0  0  0  0  0  0  0  0  0  0  0
    6.8425  -14.0989   26.3933 C   0  0  0  0  0  0  0  0  0  0  0  0
    6.9965  -12.8072   27.1461 C   0  0  0  0  0  0  0  0  0  0  0  0
    8.4635  -12.5091   27.2178 C   0  0  0  0  0  0  0  0  0  0  0  0
    9.0592  -13.8852   27.0111 C   0  0  1  0  0  0  0  0  0  0  0  0
    8.9455  -14.7244   28.2621 C   0  0  0  0  0  0  0  0  0  0  0  0
    9.8104  -14.5184   29.3164 O   0  0  0  0  0  0  0  0  0  0  0  0
    8.0815  -15.6103   28.3761 O   0  0  0  0  0  0  0  0  0  0  0  0
  2  1  1  1
  2  3  1  0
  4  2  1  0
  4  6  1  0
  4  5  1  6
  6  7  2  0
  8  9  1  0
  9 11  1  0
 10  9  2  0
 12 11  1  6
 12 14  1  0
 13  6  1  0
 13 12  1  0
 14 15  2  0
 16 14  1  0
 16 20  1  0
 17 16  1  0
 18 19  1  0
 18 17  1  0
 19 20  1  0
 20 21  1  1
 21 23  2  0
 21 22  1  0
M  END
$$$$
