AVD.pdb
     RDKit          3D

 21 20  0  0  1  0  0  0  0  0999 V2000
    7.6843  -18.8221   17.9334 C   0  0  0  0  0  0  0  0  0  0  0  0
    8.1036  -17.4767   17.3843 C   0  0  2  0  0  0  0  0  0  0  0  0
    8.9014  -17.5855   16.2051 N   0  0  0  0  0  0  0  0  0  0  0  0
    8.8283  -16.6748   18.3947 C   0  0  0  0  0  0  0  0  0  0  0  0
   10.0742  -16.7621   18.5035 O   0  0  0  0  0  0  0  0  0  0  0  0
    7.9566  -13.2409   21.8974 C   0  0  0  0  0  0  0  0  0  0  0  0
    7.7109  -13.9181   20.5811 C   0  0  1  0  0  0  0  0  0  0  0  0
    7.4366  -12.9475   19.4590 C   0  0  0  0  0  0  0  0  0  0  0  0
    8.7327  -14.9716   20.2489 C   0  0  2  0  0  0  0  0  0  0  0  0
    8.1123  -15.8157   19.2310 N   0  0  0  0  0  0  0  0  0  0  0  0
    9.1327  -15.8292   21.3781 C   0  0  0  0  0  0  0  0  0  0  0  0
    8.3400  -16.7232   21.7889 O   0  0  0  0  0  0  0  0  0  0  0  0
   10.3753  -15.7306   22.0609 N   0  0  0  0  0  0  0  0  0  0  0  0
   10.8390  -16.6492   23.0836 C   0  0  1  0  0  0  0  0  0  0  0  0
   12.3065  -16.8429   23.0771 C   0  0  0  0  0  0  0  0  0  0  0  0
   12.7147  -17.7364   24.1783 C   0  0  0  0  0  0  0  0  0  0  0  0
   12.5559  -17.4848   25.4089 O   0  0  0  0  0  0  0  0  0  0  0  0
   10.3450  -16.2890   24.4235 C   0  0  0  0  0  0  0  0  0  0  0  0
   10.1151  -15.0873   24.6897 O   0  0  0  0  0  0  0  0  0  0  0  0
   13.3322  -18.9748   23.9200 O   0  0  0  0  0  0  0  0  0  0  0  0
   10.1206  -17.2258   25.4067 O   0  0  0  0  0  0  0  0  0  0  0  0
  2  1  1  1
  2  3  1  0
  4  2  1  0
  5  4  2  0
  7  6  1  1
  7  9  1  0
  8  7  1  0
  9 11  1  0
  9 10  1  6
 10  4  1  0
 11 13  1  0
 12 11  2  0
 13 14  1  0
 14 15  1  1
 14 18  1  0
 16 20  1  0
 16 15  1  0
 17 16  2  0
 18 19  2  0
 18 21  1  0
M  END
$$$$
