AVD.pdb
     RDKit          3D

 21 20  0  0  1  0  0  0  0  0999 V2000
    7.7911  -19.3899   18.9812 C   0  0  0  0  0  0  0  0  0  0  0  0
    7.8963  -17.9891   18.4208 C   0  0  2  0  0  0  0  0  0  0  0  0
    8.4750  -17.9582   17.1158 N   0  0  0  0  0  0  0  0  0  0  0  0
    8.6623  -17.0966   19.3184 C   0  0  0  0  0  0  0  0  0  0  0  0
    9.9019  -16.9677   19.1828 O   0  0  0  0  0  0  0  0  0  0  0  0
    7.9341  -13.8128   22.9827 C   0  0  0  0  0  0  0  0  0  0  0  0
    7.6151  -14.5044   21.6898 C   0  0  1  0  0  0  0  0  0  0  0  0
    7.2011  -13.5512   20.5959 C   0  0  0  0  0  0  0  0  0  0  0  0
    8.6574  -15.5063   21.2727 C   0  0  2  0  0  0  0  0  0  0  0  0
    7.9925  -16.3948   20.3230 N   0  0  0  0  0  0  0  0  0  0  0  0
    9.2051  -16.3272   22.3666 C   0  0  0  0  0  0  0  0  0  0  0  0
    8.4930  -17.2395   22.8735 O   0  0  0  0  0  0  0  0  0  0  0  0
   10.5084  -16.1726   22.9119 N   0  0  0  0  0  0  0  0  0  0  0  0
   11.0555  -16.9622   23.9992 C   0  0  1  0  0  0  0  0  0  0  0  0
   12.5352  -16.9580   24.0410 C   0  0  0  0  0  0  0  0  0  0  0  0
   13.0907  -17.2309   22.7013 C   0  0  0  0  0  0  0  0  0  0  0  0
   12.8121  -18.2454   21.9971 O   0  0  0  0  0  0  0  0  0  0  0  0
   10.4747  -16.5966   25.3022 C   0  0  0  0  0  0  0  0  0  0  0  0
    9.9071  -15.4880   25.4313 O   0  0  0  0  0  0  0  0  0  0  0  0
   14.0031  -16.3452   22.0973 O   0  0  0  0  0  0  0  0  0  0  0  0
   10.5271  -17.4299   26.3965 O   0  0  0  0  0  0  0  0  0  0  0  0
  2  1  1  1
  2  3  1  0
  4  2  1  0
  5  4  2  0
  7  6  1  1
  7  9  1  0
  8  7  1  0
  9 11  1  0
  9 10  1  6
 10  4  1  0
 11 13  1  0
 12 11  2  0
 13 14  1  0
 14 15  1  1
 14 18  1  0
 16 20  1  0
 16 15  1  0
 17 16  2  0
 18 19  2  0
 18 21  1  0
M  END
$$$$
