AVD.pdb
     RDKit          3D

 21 20  0  0  1  0  0  0  0  0999 V2000
    6.5374  -15.4203   21.1977 C   0  0  0  0  0  0  0  0  0  0  0  0
    6.8882  -13.9868   21.5286 C   0  0  2  0  0  0  0  0  0  0  0  0
    7.4520  -13.2859   20.4196 N   0  0  0  0  0  0  0  0  0  0  0  0
    7.8097  -13.9013   22.6829 C   0  0  0  0  0  0  0  0  0  0  0  0
    9.0499  -13.8514   22.5060 O   0  0  0  0  0  0  0  0  0  0  0  0
    7.1030  -11.5698   25.8462 C   0  0  0  0  0  0  0  0  0  0  0  0
    7.2719  -13.0226   26.1812 C   0  0  1  0  0  0  0  0  0  0  0  0
    5.9727  -13.7024   26.5368 C   0  0  0  0  0  0  0  0  0  0  0  0
    8.1079  -13.7750   25.1816 C   0  0  2  0  0  0  0  0  0  0  0  0
    7.2870  -13.8764   23.9777 N   0  0  0  0  0  0  0  0  0  0  0  0
    8.4946  -15.1361   25.5920 C   0  0  0  0  0  0  0  0  0  0  0  0
    7.6297  -16.0570   25.5786 O   0  0  0  0  0  0  0  0  0  0  0  0
    9.8005  -15.5080   26.0119 N   0  0  0  0  0  0  0  0  0  0  0  0
   10.1749  -16.8200   26.5052 C   0  0  1  0  0  0  0  0  0  0  0  0
   11.5119  -17.2599   26.0467 C   0  0  0  0  0  0  0  0  0  0  0  0
   11.5248  -17.4320   24.5812 C   0  0  0  0  0  0  0  0  0  0  0  0
   10.4953  -17.6082   23.8657 O   0  0  0  0  0  0  0  0  0  0  0  0
   10.0406  -16.9261   27.9679 C   0  0  0  0  0  0  0  0  0  0  0  0
    9.9026  -15.8840   28.6482 O   0  0  0  0  0  0  0  0  0  0  0  0
   12.7315  -17.4110   23.8564 O   0  0  0  0  0  0  0  0  0  0  0  0
   10.0584  -18.1340   28.6277 O   0  0  0  0  0  0  0  0  0  0  0  0
  2  1  1  6
  2  3  1  0
  4  2  1  0
  5  4  2  0
  7  6  1  6
  7  9  1  0
  8  7  1  0
  9 11  1  0
  9 10  1  6
 10  4  1  0
 11 13  1  0
 12 11  2  0
 13 14  1  0
 14 15  1  1
 14 18  1  0
 16 20  1  0
 16 15  1  0
 17 16  2  0
 18 19  2  0
 18 21  1  0
M  END
$$$$
