AVD.pdb
     RDKit          3D

 21 20  0  0  1  0  0  0  0  0999 V2000
    6.6320  -15.0649   20.6323 C   0  0  0  0  0  0  0  0  0  0  0  0
    7.0421  -13.6645   21.0297 C   0  0  2  0  0  0  0  0  0  0  0  0
    7.8332  -13.0166   20.0331 N   0  0  0  0  0  0  0  0  0  0  0  0
    7.7694  -13.6519   22.3181 C   0  0  0  0  0  0  0  0  0  0  0  0
    9.0160  -13.7820   22.3474 O   0  0  0  0  0  0  0  0  0  0  0  0
    6.9754  -13.0475   27.2047 C   0  0  0  0  0  0  0  0  0  0  0  0
    6.6548  -12.8651   25.7503 C   0  0  1  0  0  0  0  0  0  0  0  0
    6.2800  -11.4459   25.4008 C   0  0  0  0  0  0  0  0  0  0  0  0
    7.6756  -13.4775   24.8299 C   0  0  2  0  0  0  0  0  0  0  0  0
    7.0552  -13.4936   23.5076 N   0  0  0  0  0  0  0  0  0  0  0  0
    8.0733  -14.8549   25.1694 C   0  0  0  0  0  0  0  0  0  0  0  0
    7.2299  -15.7891   25.0580 O   0  0  0  0  0  0  0  0  0  0  0  0
    9.3673  -15.2286   25.6232 N   0  0  0  0  0  0  0  0  0  0  0  0
    9.7993  -16.5897   25.8792 C   0  0  1  0  0  0  0  0  0  0  0  0
   10.9938  -16.9832   25.0984 C   0  0  0  0  0  0  0  0  0  0  0  0
   11.4234  -18.3470   25.4633 C   0  0  0  0  0  0  0  0  0  0  0  0
   10.6461  -19.2720   25.8414 O   0  0  0  0  0  0  0  0  0  0  0  0
    9.9776  -16.8582   27.3163 C   0  0  0  0  0  0  0  0  0  0  0  0
   10.1891  -15.9024   28.0970 O   0  0  0  0  0  0  0  0  0  0  0  0
   12.7796  -18.7209   25.4129 O   0  0  0  0  0  0  0  0  0  0  0  0
    9.9196  -18.1275   27.8454 O   0  0  0  0  0  0  0  0  0  0  0  0
  2  1  1  6
  2  3  1  0
  4  2  1  0
  5  4  2  0
  7  6  1  1
  7  9  1  0
  8  7  1  0
  9 11  1  0
  9 10  1  6
 10  4  1  0
 11 13  1  0
 12 11  2  0
 13 14  1  0
 14 15  1  6
 14 18  1  0
 16 20  1  0
 16 15  1  0
 17 16  2  0
 18 19  2  0
 18 21  1  0
M  END
$$$$
