AVD.pdb
     RDKit          3D

 21 20  0  0  1  0  0  0  0  0999 V2000
    6.3925  -16.6958   22.1156 C   0  0  0  0  0  0  0  0  0  0  0  0
    6.6578  -15.2124   21.9874 C   0  0  2  0  0  0  0  0  0  0  0  0
    7.1153  -14.8433   20.6861 N   0  0  0  0  0  0  0  0  0  0  0  0
    7.6271  -14.7401   23.0005 C   0  0  0  0  0  0  0  0  0  0  0  0
    8.8589  -14.7786   22.7706 O   0  0  0  0  0  0  0  0  0  0  0  0
    5.9197  -13.3995   26.5961 C   0  0  0  0  0  0  0  0  0  0  0  0
    7.1556  -12.7490   26.0475 C   0  0  1  0  0  0  0  0  0  0  0  0
    7.9016  -11.9351   27.0759 C   0  0  0  0  0  0  0  0  0  0  0  0
    8.0251  -13.6869   25.2546 C   0  0  2  0  0  0  0  0  0  0  0  0
    7.1591  -14.2486   24.2211 N   0  0  0  0  0  0  0  0  0  0  0  0
    8.6049  -14.8004   26.0256 C   0  0  0  0  0  0  0  0  0  0  0  0
    7.8717  -15.7757   26.3533 O   0  0  0  0  0  0  0  0  0  0  0  0
    9.9625  -14.8688   26.4407 N   0  0  0  0  0  0  0  0  0  0  0  0
   10.5484  -15.9596   27.1969 C   0  0  1  0  0  0  0  0  0  0  0  0
   11.9245  -16.2979   26.7689 C   0  0  0  0  0  0  0  0  0  0  0  0
   11.9726  -16.5184   25.3106 C   0  0  0  0  0  0  0  0  0  0  0  0
   11.1264  -17.1935   24.6541 O   0  0  0  0  0  0  0  0  0  0  0  0
   10.4716  -15.7360   28.6505 C   0  0  0  0  0  0  0  0  0  0  0  0
   10.2260  -14.5865   29.0820 O   0  0  0  0  0  0  0  0  0  0  0  0
   13.0044  -15.9705   24.5251 O   0  0  0  0  0  0  0  0  0  0  0  0
   10.6582  -16.7466   29.5662 O   0  0  0  0  0  0  0  0  0  0  0  0
  2  1  1  6
  2  3  1  0
  4  2  1  0
  5  4  2  0
  7  6  1  1
  7  9  1  0
  8  7  1  0
  9 11  1  0
  9 10  1  6
 10  4  1  0
 11 13  1  0
 12 11  2  0
 13 14  1  0
 14 15  1  6
 14 18  1  0
 16 20  1  0
 16 15  1  0
 17 16  2  0
 18 19  2  0
 18 21  1  0
M  END
$$$$
