AVD.pdb
     RDKit          3D

 21 20  0  0  1  0  0  0  0  0999 V2000
    7.3657  -18.6613   18.0636 C   0  0  0  0  0  0  0  0  0  0  0  0
    7.8783  -17.3280   17.5668 C   0  0  2  0  0  0  0  0  0  0  0  0
    8.7169  -17.4518   16.4178 N   0  0  0  0  0  0  0  0  0  0  0  0
    8.6025  -16.5909   18.6256 C   0  0  0  0  0  0  0  0  0  0  0  0
    9.8530  -16.6437   18.6974 O   0  0  0  0  0  0  0  0  0  0  0  0
    7.7185  -13.2226   22.1787 C   0  0  0  0  0  0  0  0  0  0  0  0
    7.4819  -13.9108   20.8665 C   0  0  1  0  0  0  0  0  0  0  0  0
    7.2221  -12.9495   19.7330 C   0  0  0  0  0  0  0  0  0  0  0  0
    8.5020  -14.9717   20.5535 C   0  0  2  0  0  0  0  0  0  0  0  0
    7.8810  -15.8320   19.5496 N   0  0  0  0  0  0  0  0  0  0  0  0
    8.8993  -15.8107   21.6976 C   0  0  0  0  0  0  0  0  0  0  0  0
    8.0870  -16.6655   22.1513 O   0  0  0  0  0  0  0  0  0  0  0  0
   10.1599  -15.7352   22.3496 N   0  0  0  0  0  0  0  0  0  0  0  0
   10.5453  -16.5152   23.5106 C   0  0  1  0  0  0  0  0  0  0  0  0
   12.0113  -16.6306   23.6800 C   0  0  0  0  0  0  0  0  0  0  0  0
   12.6188  -17.2744   22.4993 C   0  0  0  0  0  0  0  0  0  0  0  0
   12.1624  -18.3061   21.9246 O   0  0  0  0  0  0  0  0  0  0  0  0
    9.8920  -16.0427   24.7430 C   0  0  0  0  0  0  0  0  0  0  0  0
    9.4206  -14.8833   24.7813 O   0  0  0  0  0  0  0  0  0  0  0  0
   13.7921  -16.7623   21.9139 O   0  0  0  0  0  0  0  0  0  0  0  0
    9.7736  -16.8287   25.8668 O   0  0  0  0  0  0  0  0  0  0  0  0
  2  1  1  1
  2  3  1  0
  4  2  1  0
  5  4  2  0
  7  6  1  1
  7  9  1  0
  8  7  1  0
  9 11  1  0
  9 10  1  6
 10  4  1  0
 11 13  1  0
 12 11  2  0
 13 14  1  0
 14 15  1  1
 14 18  1  0
 16 20  1  0
 16 15  1  0
 17 16  2  0
 18 19  2  0
 18 21  1  0
M  END
$$$$
