AVD.pdb
     RDKit          3D

 21 20  0  0  1  0  0  0  0  0999 V2000
    7.3327  -18.1802   17.3511 C   0  0  0  0  0  0  0  0  0  0  0  0
    7.8726  -16.8127   16.9960 C   0  0  2  0  0  0  0  0  0  0  0  0
    8.6165  -16.8118   15.7772 N   0  0  0  0  0  0  0  0  0  0  0  0
    8.7092  -16.2557   18.0817 C   0  0  0  0  0  0  0  0  0  0  0  0
    9.9387  -16.4967   18.1265 O   0  0  0  0  0  0  0  0  0  0  0  0
    7.6465  -12.6388   19.5524 C   0  0  0  0  0  0  0  0  0  0  0  0
    7.9646  -13.6666   20.5982 C   0  0  1  0  0  0  0  0  0  0  0  0
    6.7432  -14.1576   21.3355 C   0  0  0  0  0  0  0  0  0  0  0  0
    8.8695  -14.7632   20.1054 C   0  0  2  0  0  0  0  0  0  0  0  0
    8.1179  -15.4556   19.0618 N   0  0  0  0  0  0  0  0  0  0  0  0
    9.2617  -15.7522   21.1245 C   0  0  0  0  0  0  0  0  0  0  0  0
    8.5409  -16.7738   21.3068 O   0  0  0  0  0  0  0  0  0  0  0  0
   10.4201  -15.6478   21.9413 N   0  0  0  0  0  0  0  0  0  0  0  0
   10.8986  -16.6780   22.8438 C   0  0  1  0  0  0  0  0  0  0  0  0
   12.3235  -17.0226   22.6386 C   0  0  0  0  0  0  0  0  0  0  0  0
   12.7461  -18.0643   23.5946 C   0  0  0  0  0  0  0  0  0  0  0  0
   12.3982  -19.2803   23.5380 O   0  0  0  0  0  0  0  0  0  0  0  0
   10.6143  -16.3616   24.2538 C   0  0  0  0  0  0  0  0  0  0  0  0
   10.2762  -15.1968   24.5646 O   0  0  0  0  0  0  0  0  0  0  0  0
   13.5965  -17.7597   24.6743 O   0  0  0  0  0  0  0  0  0  0  0  0
   10.7031  -17.3008   25.2561 O   0  0  0  0  0  0  0  0  0  0  0  0
  2  1  1  1
  2  3  1  0
  4  2  1  0
  5  4  2  0
  7  6  1  6
  7  9  1  0
  8  7  1  0
  9 11  1  0
  9 10  1  6
 10  4  1  0
 11 13  1  0
 12 11  2  0
 13 14  1  0
 14 15  1  1
 14 18  1  0
 16 20  1  0
 16 15  1  0
 17 16  2  0
 18 19  2  0
 18 21  1  0
M  END
$$$$
