AVD.pdb
     RDKit          3D

 21 20  0  0  1  0  0  0  0  0999 V2000
    6.8160  -16.7059   21.9401 C   0  0  0  0  0  0  0  0  0  0  0  0
    6.8882  -15.1957   21.9769 C   0  0  2  0  0  0  0  0  0  0  0  0
    7.3267  -14.6332   20.7399 N   0  0  0  0  0  0  0  0  0  0  0  0
    7.7611  -14.7159   23.0709 C   0  0  0  0  0  0  0  0  0  0  0  0
    8.9801  -14.5052   22.8676 O   0  0  0  0  0  0  0  0  0  0  0  0
    7.5114  -12.8473   27.6691 C   0  0  0  0  0  0  0  0  0  0  0  0
    6.9720  -13.2441   26.3262 C   0  0  1  0  0  0  0  0  0  0  0  0
    6.2489  -12.1214   25.6242 C   0  0  0  0  0  0  0  0  0  0  0  0
    7.9750  -13.9643   25.4663 C   0  0  2  0  0  0  0  0  0  0  0  0
    7.2161  -14.4981   24.3381 N   0  0  0  0  0  0  0  0  0  0  0  0
    8.6705  -15.0837   26.1251 C   0  0  0  0  0  0  0  0  0  0  0  0
    8.0064  -16.0899   26.5030 O   0  0  0  0  0  0  0  0  0  0  0  0
   10.0689  -15.1249   26.3750 N   0  0  0  0  0  0  0  0  0  0  0  0
   10.7553  -16.1794   27.0974 C   0  0  1  0  0  0  0  0  0  0  0  0
   12.1223  -16.4421   26.5939 C   0  0  0  0  0  0  0  0  0  0  0  0
   12.1661  -16.3101   25.1248 C   0  0  0  0  0  0  0  0  0  0  0  0
   11.3897  -16.9071   24.3227 O   0  0  0  0  0  0  0  0  0  0  0  0
   10.7465  -15.9565   28.5531 C   0  0  0  0  0  0  0  0  0  0  0  0
   10.4065  -14.8374   29.0000 O   0  0  0  0  0  0  0  0  0  0  0  0
   13.1128  -15.4789   24.4965 O   0  0  0  0  0  0  0  0  0  0  0  0
   11.0978  -16.9356   29.4545 O   0  0  0  0  0  0  0  0  0  0  0  0
  2  1  1  6
  2  3  1  0
  4  2  1  0
  5  4  2  0
  7  6  1  1
  7  9  1  0
  8  7  1  0
  9 11  1  0
  9 10  1  6
 10  4  1  0
 11 13  1  0
 12 11  2  0
 13 14  1  0
 14 15  1  6
 14 18  1  0
 16 20  1  0
 16 15  1  0
 17 16  2  0
 18 19  2  0
 18 21  1  0
M  END
$$$$
