AVD.pdb
     RDKit          3D

 21 20  0  0  1  0  0  0  0  0999 V2000
    6.6742  -14.9264   20.6020 C   0  0  0  0  0  0  0  0  0  0  0  0
    7.0929  -13.5165   20.9544 C   0  0  2  0  0  0  0  0  0  0  0  0
    7.7881  -12.8645   19.8911 N   0  0  0  0  0  0  0  0  0  0  0  0
    7.9241  -13.4819   22.1779 C   0  0  0  0  0  0  0  0  0  0  0  0
    9.1723  -13.5709   22.1030 O   0  0  0  0  0  0  0  0  0  0  0  0
    5.7807  -13.3802   25.8207 C   0  0  0  0  0  0  0  0  0  0  0  0
    7.1216  -12.7188   25.6934 C   0  0  1  0  0  0  0  0  0  0  0  0
    7.7719  -12.4392   27.0259 C   0  0  0  0  0  0  0  0  0  0  0  0
    8.0267  -13.3861   24.6936 C   0  0  2  0  0  0  0  0  0  0  0  0
    7.3065  -13.3491   23.4233 N   0  0  0  0  0  0  0  0  0  0  0  0
    8.3595  -14.7895   24.9943 C   0  0  0  0  0  0  0  0  0  0  0  0
    7.5121  -15.6939   24.7491 O   0  0  0  0  0  0  0  0  0  0  0  0
    9.5936  -15.2205   25.5520 N   0  0  0  0  0  0  0  0  0  0  0  0
    9.9884  -16.6051   25.7312 C   0  0  1  0  0  0  0  0  0  0  0  0
   11.2188  -16.9652   24.9912 C   0  0  0  0  0  0  0  0  0  0  0  0
   11.5508  -18.3875   25.2018 C   0  0  0  0  0  0  0  0  0  0  0  0
   10.7488  -19.3505   25.0224 O   0  0  0  0  0  0  0  0  0  0  0  0
   10.0802  -16.9803   27.1523 C   0  0  0  0  0  0  0  0  0  0  0  0
   10.2144  -16.0836   28.0159 O   0  0  0  0  0  0  0  0  0  0  0  0
   12.8319  -18.7797   25.6338 O   0  0  0  0  0  0  0  0  0  0  0  0
   10.0226  -18.2879   27.5784 O   0  0  0  0  0  0  0  0  0  0  0  0
  2  1  1  6
  2  3  1  0
  4  2  1  0
  5  4  2  0
  7  6  1  1
  7  9  1  0
  8  7  1  0
  9 11  1  0
  9 10  1  6
 10  4  1  0
 11 13  1  0
 12 11  2  0
 13 14  1  0
 14 15  1  1
 14 18  1  0
 16 20  1  0
 16 15  1  0
 17 16  2  0
 18 19  2  0
 18 21  1  0
M  END
$$$$
