AVD.pdb
     RDKit          3D

 21 20  0  0  1  0  0  0  0  0999 V2000
    6.3109  -16.0614   21.4588 C   0  0  0  0  0  0  0  0  0  0  0  0
    6.6999  -14.6029   21.5515 C   0  0  2  0  0  0  0  0  0  0  0  0
    7.2529  -14.1001   20.3348 N   0  0  0  0  0  0  0  0  0  0  0  0
    7.6495  -14.3590   22.6596 C   0  0  0  0  0  0  0  0  0  0  0  0
    8.8864  -14.4122   22.4622 O   0  0  0  0  0  0  0  0  0  0  0  0
    5.8549  -13.6718   26.3800 C   0  0  0  0  0  0  0  0  0  0  0  0
    7.1605  -13.0113   26.0474 C   0  0  1  0  0  0  0  0  0  0  0  0
    7.9006  -12.5173   27.2660 C   0  0  0  0  0  0  0  0  0  0  0  0
    8.0082  -13.8063   25.0916 C   0  0  2  0  0  0  0  0  0  0  0  0
    7.1571  -14.0678   23.9335 N   0  0  0  0  0  0  0  0  0  0  0  0
    8.4887  -15.0982   25.6118 C   0  0  0  0  0  0  0  0  0  0  0  0
    7.6682  -16.0454   25.7732 O   0  0  0  0  0  0  0  0  0  0  0  0
    9.8402  -15.3735   25.9545 N   0  0  0  0  0  0  0  0  0  0  0  0
   10.3131  -16.6079   26.5525 C   0  0  1  0  0  0  0  0  0  0  0  0
   11.6432  -17.0282   26.0572 C   0  0  0  0  0  0  0  0  0  0  0  0
   11.7448  -16.8107   24.6012 C   0  0  0  0  0  0  0  0  0  0  0  0
   10.9910  -17.3466   23.7367 O   0  0  0  0  0  0  0  0  0  0  0  0
   10.2695  -16.5683   28.0240 C   0  0  0  0  0  0  0  0  0  0  0  0
   10.4184  -17.6301   28.6707 O   0  0  0  0  0  0  0  0  0  0  0  0
   12.7266  -15.9598   24.0591 O   0  0  0  0  0  0  0  0  0  0  0  0
   10.0719  -15.4021   28.7281 O   0  0  0  0  0  0  0  0  0  0  0  0
  2  1  1  6
  2  3  1  0
  4  2  1  0
  5  4  2  0
  7  6  1  1
  7  9  1  0
  8  7  1  0
  9 11  1  0
  9 10  1  6
 10  4  1  0
 11 13  1  0
 12 11  2  0
 13 14  1  0
 14 15  1  1
 14 18  1  0
 16 20  1  0
 16 15  1  0
 17 16  2  0
 18 19  2  0
 18 21  1  0
M  END
$$$$
