VAW.pdb
     RDKit          3D

 27 28  0  0  1  0  0  0  0  0999 V2000
   29.0158  -19.2350  -17.9073 C   0  0  0  0  0  0  0  0  0  0  0  0
   28.2769  -19.3352  -16.6144 C   0  0  1  0  0  0  0  0  0  0  0  0
   29.2808  -19.6627  -15.5280 C   0  0  0  0  0  0  0  0  0  0  0  0
   27.5570  -18.0557  -16.2490 C   0  0  2  0  0  0  0  0  0  0  0  0
   28.4841  -16.9450  -16.3172 N   0  0  0  0  0  0  0  0  0  0  0  0
   26.9781  -18.1110  -14.8942 C   0  0  0  0  0  0  0  0  0  0  0  0
   27.7125  -17.8539  -13.8771 O   0  0  0  0  0  0  0  0  0  0  0  0
   23.5405  -18.4328  -13.5040 C   0  0  0  0  0  0  0  0  0  0  0  0
   25.0722  -18.4188  -13.3875 C   0  0  2  0  0  0  0  0  0  0  0  0
   25.6120  -18.4485  -14.7234 N   0  0  0  0  0  0  0  0  0  0  0  0
   25.4283  -19.6283  -12.6096 C   0  0  0  0  0  0  0  0  0  0  0  0
   25.5904  -20.7038  -13.2402 O   0  0  0  0  0  0  0  0  0  0  0  0
   25.5963  -19.6492  -11.2141 N   0  0  0  0  0  0  0  0  0  0  0  0
   25.8790  -20.8449  -10.4456 C   0  0  1  0  0  0  0  0  0  0  0  0
   27.0654  -20.4854   -9.5391 C   0  0  0  0  0  0  0  0  0  0  0  0
   26.6525  -20.5949   -8.1046 C   0  0  0  0  0  0  0  0  0  0  0  0
   25.5479  -21.1632   -7.5455 C   0  0  0  0  0  0  0  0  0  0  0  0
   25.6500  -20.9933   -6.2045 N   0  0  0  0  0  0  0  0  0  0  0  0
   26.7838  -20.3356   -5.8975 C   0  0  0  0  0  0  0  0  0  0  0  0
   27.3667  -19.9109   -4.7162 C   0  0  0  0  0  0  0  0  0  0  0  0
   28.5732  -19.2395   -4.7296 C   0  0  0  0  0  0  0  0  0  0  0  0
   29.2441  -18.9644   -5.9011 C   0  0  0  0  0  0  0  0  0  0  0  0
   28.6426  -19.3990   -7.0761 C   0  0  0  0  0  0  0  0  0  0  0  0
   27.4345  -20.0725   -7.0769 C   0  0  0  0  0  0  0  0  0  0  0  0
   24.7427  -21.2424   -9.5933 C   0  0  0  0  0  0  0  0  0  0  0  0
   23.6342  -20.4641   -9.3706 O   0  0  0  0  0  0  0  0  0  0  0  0
   24.7665  -22.3797   -9.0132 O   0  0  0  0  0  0  0  0  0  0  0  0
  2  1  1  6
  3  2  1  0
  4  2  1  0
  4  5  1  1
  6  7  2  0
  6  4  1  0
  9  8  1  6
  9 10  1  0
 10  6  1  0
 11  9  1  0
 11 13  1  0
 12 11  2  0
 14 13  1  0
 14 25  1  0
 14 15  1  1
 16 15  1  0
 17 16  2  0
 18 17  1  0
 19 18  1  0
 19 24  2  0
 20 19  1  0
 21 20  2  0
 21 22  1  0
 22 23  2  0
 23 24  1  0
 24 16  1  0
 25 27  2  0
 25 26  1  0
M  END
$$$$
