VAW.pdb
     RDKit          3D

 27 28  0  0  1  0  0  0  0  0999 V2000
   26.6487  -22.8312  -16.1734 C   0  0  0  0  0  0  0  0  0  0  0  0
   27.8500  -23.6962  -16.3642 C   0  0  1  0  0  0  0  0  0  0  0  0
   27.5668  -24.6401  -17.5148 C   0  0  0  0  0  0  0  0  0  0  0  0
   29.1006  -22.9035  -16.6750 C   0  0  2  0  0  0  0  0  0  0  0  0
   28.8846  -22.1110  -17.8679 N   0  0  0  0  0  0  0  0  0  0  0  0
   30.2720  -23.7735  -16.8861 C   0  0  0  0  0  0  0  0  0  0  0  0
   30.5879  -24.1392  -18.0721 O   0  0  0  0  0  0  0  0  0  0  0  0
   33.0525  -25.0883  -14.7999 C   0  0  0  0  0  0  0  0  0  0  0  0
   32.1203  -25.1268  -16.0203 C   0  0  2  0  0  0  0  0  0  0  0  0
   31.0430  -24.2012  -15.7762 N   0  0  0  0  0  0  0  0  0  0  0  0
   31.6472  -26.5271  -16.1222 C   0  0  0  0  0  0  0  0  0  0  0  0
   31.4654  -27.1633  -15.0531 O   0  0  0  0  0  0  0  0  0  0  0  0
   31.3892  -27.1877  -17.3359 N   0  0  0  0  0  0  0  0  0  0  0  0
   30.7063  -28.4616  -17.4406 C   0  0  1  0  0  0  0  0  0  0  0  0
   29.3830  -28.2874  -16.6809 C   0  0  0  0  0  0  0  0  0  0  0  0
   28.5928  -29.5566  -16.7513 C   0  0  0  0  0  0  0  0  0  0  0  0
   28.9982  -30.8541  -16.6642 C   0  0  0  0  0  0  0  0  0  0  0  0
   27.8904  -31.6252  -16.7895 N   0  0  0  0  0  0  0  0  0  0  0  0
   26.7972  -30.8568  -16.9531 C   0  0  0  0  0  0  0  0  0  0  0  0
   25.4484  -31.1165  -17.1237 C   0  0  0  0  0  0  0  0  0  0  0  0
   24.5465  -30.0812  -17.2694 C   0  0  0  0  0  0  0  0  0  0  0  0
   24.9396  -28.7609  -17.2522 C   0  0  0  0  0  0  0  0  0  0  0  0
   26.2976  -28.5212  -17.0799 C   0  0  0  0  0  0  0  0  0  0  0  0
   27.2116  -29.5486  -16.9328 C   0  0  0  0  0  0  0  0  0  0  0  0
   30.3996  -28.8174  -18.8388 C   0  0  0  0  0  0  0  0  0  0  0  0
   30.4255  -30.0973  -19.3342 O   0  0  0  0  0  0  0  0  0  0  0  0
   30.0866  -27.8935  -19.6628 O   0  0  0  0  0  0  0  0  0  0  0  0
  2  1  1  6
  3  2  1  0
  4  2  1  0
  4  5  1  6
  6  7  2  0
  6  4  1  0
  9  8  1  1
  9 10  1  0
 10  6  1  0
 11  9  1  0
 11 13  1  0
 12 11  2  0
 14 13  1  0
 14 25  1  0
 14 15  1  1
 16 15  1  0
 17 16  2  0
 18 17  1  0
 19 18  1  0
 19 24  2  0
 20 19  1  0
 21 20  2  0
 21 22  1  0
 22 23  2  0
 23 24  1  0
 24 16  1  0
 25 27  2  0
 25 26  1  0
M  END
$$$$
