VAW.pdb
     RDKit          3D

 27 28  0  0  1  0  0  0  0  0999 V2000
   26.7974  -14.6498  -16.5283 C   0  0  0  0  0  0  0  0  0  0  0  0
   26.7107  -15.9927  -15.8827 C   0  0  1  0  0  0  0  0  0  0  0  0
   25.5730  -15.9567  -14.8829 C   0  0  0  0  0  0  0  0  0  0  0  0
   26.4577  -17.1060  -16.8754 C   0  0  2  0  0  0  0  0  0  0  0  0
   25.2628  -16.8090  -17.6381 N   0  0  0  0  0  0  0  0  0  0  0  0
   26.2887  -18.4127  -16.2140 C   0  0  0  0  0  0  0  0  0  0  0  0
   25.1284  -18.7787  -15.8144 O   0  0  0  0  0  0  0  0  0  0  0  0
   28.3524  -21.4371  -15.6458 C   0  0  0  0  0  0  0  0  0  0  0  0
   27.2210  -20.4696  -15.2666 C   0  0  2  0  0  0  0  0  0  0  0  0
   27.4107  -19.2578  -16.0232 N   0  0  0  0  0  0  0  0  0  0  0  0
   27.3518  -20.2485  -13.8075 C   0  0  0  0  0  0  0  0  0  0  0  0
   27.9633  -19.2191  -13.4235 O   0  0  0  0  0  0  0  0  0  0  0  0
   26.8366  -21.1147  -12.8276 N   0  0  0  0  0  0  0  0  0  0  0  0
   26.8767  -20.8492  -11.4034 C   0  0  1  0  0  0  0  0  0  0  0  0
   26.0120  -19.5981  -11.1895 C   0  0  0  0  0  0  0  0  0  0  0  0
   24.5641  -19.9702  -11.2606 C   0  0  0  0  0  0  0  0  0  0  0  0
   23.7630  -20.5770  -10.3410 C   0  0  0  0  0  0  0  0  0  0  0  0
   22.5319  -20.6862  -10.8977 N   0  0  0  0  0  0  0  0  0  0  0  0
   22.5287  -20.1679  -12.1402 C   0  0  0  0  0  0  0  0  0  0  0  0
   21.5679  -20.0232  -13.1259 C   0  0  0  0  0  0  0  0  0  0  0  0
   21.8833  -19.4315  -14.3330 C   0  0  0  0  0  0  0  0  0  0  0  0
   23.1494  -18.9642  -14.6098 C   0  0  0  0  0  0  0  0  0  0  0  0
   24.0995  -19.1188  -13.6074 C   0  0  0  0  0  0  0  0  0  0  0  0
   23.7972  -19.7096  -12.3940 C   0  0  0  0  0  0  0  0  0  0  0  0
   26.3034  -21.9547  -10.6131 C   0  0  0  0  0  0  0  0  0  0  0  0
   26.2645  -21.9850   -9.2413 O   0  0  0  0  0  0  0  0  0  0  0  0
   25.8041  -22.9612  -11.2198 O   0  0  0  0  0  0  0  0  0  0  0  0
  2  1  1  6
  3  2  1  0
  4  2  1  0
  4  5  1  1
  6  7  2  0
  6  4  1  0
  9  8  1  6
  9 10  1  0
 10  6  1  0
 11  9  1  0
 11 13  1  0
 12 11  2  0
 14 13  1  0
 14 25  1  0
 14 15  1  6
 16 15  1  0
 17 16  2  0
 18 17  1  0
 19 18  1  0
 19 24  2  0
 20 19  1  0
 21 20  2  0
 21 22  1  0
 22 23  2  0
 23 24  1  0
 24 16  1  0
 25 27  2  0
 25 26  1  0
M  END
$$$$
