VAW.pdb
     RDKit          3D

 27 28  0  0  1  0  0  0  0  0999 V2000
   23.6842  -17.8979  -17.1936 C   0  0  0  0  0  0  0  0  0  0  0  0
   24.7644  -18.7942  -16.6861 C   0  0  1  0  0  0  0  0  0  0  0  0
   26.0962  -18.1833  -17.0710 C   0  0  0  0  0  0  0  0  0  0  0  0
   24.7213  -18.9733  -15.1844 C   0  0  2  0  0  0  0  0  0  0  0  0
   24.8255  -17.6794  -14.5418 N   0  0  0  0  0  0  0  0  0  0  0  0
   25.8115  -19.8373  -14.6962 C   0  0  0  0  0  0  0  0  0  0  0  0
   25.8093  -21.0863  -14.9791 O   0  0  0  0  0  0  0  0  0  0  0  0
   29.1129  -19.3881  -13.0932 C   0  0  0  0  0  0  0  0  0  0  0  0
   27.8240  -20.1850  -13.3447 C   0  0  2  0  0  0  0  0  0  0  0  0
   26.8569  -19.2822  -13.9162 N   0  0  0  0  0  0  0  0  0  0  0  0
   27.4018  -20.6973  -12.0201 C   0  0  0  0  0  0  0  0  0  0  0  0
   28.1473  -21.5346  -11.4511 O   0  0  0  0  0  0  0  0  0  0  0  0
   26.2231  -20.3070  -11.3610 N   0  0  0  0  0  0  0  0  0  0  0  0
   25.8591  -20.7312  -10.0239 C   0  0  1  0  0  0  0  0  0  0  0  0
   26.9735  -20.2100   -9.1047 C   0  0  0  0  0  0  0  0  0  0  0  0
   26.6248  -20.5002   -7.6784 C   0  0  0  0  0  0  0  0  0  0  0  0
   25.5510  -21.1483   -7.1471 C   0  0  0  0  0  0  0  0  0  0  0  0
   25.7101  -21.1427   -5.8010 N   0  0  0  0  0  0  0  0  0  0  0  0
   26.8504  -20.5115   -5.4638 C   0  0  0  0  0  0  0  0  0  0  0  0
   27.4808  -20.2265   -4.2650 C   0  0  0  0  0  0  0  0  0  0  0  0
   28.6795  -19.5414   -4.2468 C   0  0  0  0  0  0  0  0  0  0  0  0
   29.2959  -19.1154   -5.4029 C   0  0  0  0  0  0  0  0  0  0  0  0
   28.6474  -19.4113   -6.5959 C   0  0  0  0  0  0  0  0  0  0  0  0
   27.4465  -20.0966   -6.6283 C   0  0  0  0  0  0  0  0  0  0  0  0
   24.5780  -20.1484   -9.5827 C   0  0  0  0  0  0  0  0  0  0  0  0
   23.7720  -20.6961   -8.6159 O   0  0  0  0  0  0  0  0  0  0  0  0
   24.1690  -19.0641  -10.1187 O   0  0  0  0  0  0  0  0  0  0  0  0
  2  1  1  1
  3  2  1  0
  4  2  1  0
  4  5  1  1
  6  7  2  0
  6  4  1  0
  9  8  1  1
  9 10  1  0
 10  6  1  0
 11  9  1  0
 11 13  1  0
 12 11  2  0
 14 13  1  0
 14 25  1  0
 14 15  1  1
 16 15  1  0
 17 16  2  0
 18 17  1  0
 19 18  1  0
 19 24  2  0
 20 19  1  0
 21 20  2  0
 21 22  1  0
 22 23  2  0
 23 24  1  0
 24 16  1  0
 25 27  2  0
 25 26  1  0
M  END
$$$$
