VAW.pdb
     RDKit          3D

 27 28  0  0  1  0  0  0  0  0999 V2000
   28.2385  -17.9903  -15.5039 C   0  0  0  0  0  0  0  0  0  0  0  0
   27.2684  -18.6849  -14.6072 C   0  0  1  0  0  0  0  0  0  0  0  0
   25.9596  -18.8266  -15.3569 C   0  0  0  0  0  0  0  0  0  0  0  0
   27.7418  -20.0573  -14.1810 C   0  0  2  0  0  0  0  0  0  0  0  0
   28.0003  -20.8640  -15.3558 N   0  0  0  0  0  0  0  0  0  0  0  0
   26.7517  -20.7492  -13.3358 C   0  0  0  0  0  0  0  0  0  0  0  0
   25.8729  -21.5081  -13.8761 O   0  0  0  0  0  0  0  0  0  0  0  0
   25.9554  -20.8049   -9.6825 C   0  0  0  0  0  0  0  0  0  0  0  0
   25.7169  -21.1678  -11.1560 C   0  0  2  0  0  0  0  0  0  0  0  0
   26.7765  -20.5715  -11.9297 N   0  0  0  0  0  0  0  0  0  0  0  0
   24.3876  -20.6104  -11.4984 C   0  0  0  0  0  0  0  0  0  0  0  0
   24.2019  -19.3811  -11.3108 O   0  0  0  0  0  0  0  0  0  0  0  0
   23.3234  -21.3672  -12.0187 N   0  0  0  0  0  0  0  0  0  0  0  0
   22.1045  -20.7967  -12.5561 C   0  0  1  0  0  0  0  0  0  0  0  0
   22.5223  -20.0496  -13.8313 C   0  0  0  0  0  0  0  0  0  0  0  0
   21.3067  -19.5122  -14.5195 C   0  0  0  0  0  0  0  0  0  0  0  0
   20.0524  -19.2806  -14.0415 C   0  0  0  0  0  0  0  0  0  0  0  0
   19.3197  -18.7899  -15.0711 N   0  0  0  0  0  0  0  0  0  0  0  0
   20.0707  -18.7039  -16.1851 C   0  0  0  0  0  0  0  0  0  0  0  0
   19.8331  -18.2836  -17.4823 C   0  0  0  0  0  0  0  0  0  0  0  0
   20.8394  -18.3173  -18.4272 C   0  0  0  0  0  0  0  0  0  0  0  0
   22.1081  -18.7639  -18.1290 C   0  0  0  0  0  0  0  0  0  0  0  0
   22.3263  -19.1814  -16.8215 C   0  0  0  0  0  0  0  0  0  0  0  0
   21.3275  -19.1529  -15.8653 C   0  0  0  0  0  0  0  0  0  0  0  0
   21.1179  -21.8304  -12.9217 C   0  0  0  0  0  0  0  0  0  0  0  0
   21.4175  -22.9700  -13.6259 O   0  0  0  0  0  0  0  0  0  0  0  0
   19.8990  -21.6801  -12.5724 O   0  0  0  0  0  0  0  0  0  0  0  0
  2  1  1  6
  3  2  1  0
  4  2  1  0
  4  5  1  6
  6  7  2  0
  6  4  1  0
  9  8  1  1
  9 10  1  0
 10  6  1  0
 11  9  1  0
 11 13  1  0
 12 11  2  0
 14 13  1  0
 14 25  1  0
 14 15  1  6
 16 15  1  0
 17 16  2  0
 18 17  1  0
 19 18  1  0
 19 24  2  0
 20 19  1  0
 21 20  2  0
 21 22  1  0
 22 23  2  0
 23 24  1  0
 24 16  1  0
 25 27  2  0
 25 26  1  0
M  END
$$$$
