VAW.pdb
     RDKit          3D

 27 28  0  0  1  0  0  0  0  0999 V2000
   26.4672  -21.4776  -19.8146 C   0  0  0  0  0  0  0  0  0  0  0  0
   26.6635  -21.3301  -18.3424 C   0  0  1  0  0  0  0  0  0  0  0  0
   26.8290  -22.7158  -17.7530 C   0  0  0  0  0  0  0  0  0  0  0  0
   27.8781  -20.4987  -17.9925 C   0  0  2  0  0  0  0  0  0  0  0  0
   29.0738  -21.1767  -18.4493 N   0  0  0  0  0  0  0  0  0  0  0  0
   27.9897  -20.2606  -16.5419 C   0  0  0  0  0  0  0  0  0  0  0  0
   28.6793  -21.0598  -15.8168 O   0  0  0  0  0  0  0  0  0  0  0  0
   26.8847  -17.6040  -14.1702 C   0  0  0  0  0  0  0  0  0  0  0  0
   27.3893  -19.0114  -14.5228 C   0  0  2  0  0  0  0  0  0  0  0  0
   27.3334  -19.1490  -15.9563 N   0  0  0  0  0  0  0  0  0  0  0  0
   26.4770  -19.9518  -13.8311 C   0  0  0  0  0  0  0  0  0  0  0  0
   25.3854  -20.2274  -14.3908 O   0  0  0  0  0  0  0  0  0  0  0  0
   26.7543  -20.5541  -12.5916 N   0  0  0  0  0  0  0  0  0  0  0  0
   25.8280  -21.4085  -11.8759 C   0  0  1  0  0  0  0  0  0  0  0  0
   26.5750  -21.8665  -10.6146 C   0  0  0  0  0  0  0  0  0  0  0  0
   26.5672  -20.7668   -9.5993 C   0  0  0  0  0  0  0  0  0  0  0  0
   25.6521  -19.7842   -9.3701 C   0  0  0  0  0  0  0  0  0  0  0  0
   26.1168  -19.0426   -8.3350 N   0  0  0  0  0  0  0  0  0  0  0  0
   27.2969  -19.5248   -7.9021 C   0  0  0  0  0  0  0  0  0  0  0  0
   28.1833  -19.1608   -6.9033 C   0  0  0  0  0  0  0  0  0  0  0  0
   29.3463  -19.8770   -6.7008 C   0  0  0  0  0  0  0  0  0  0  0  0
   29.6750  -20.9710   -7.4709 C   0  0  0  0  0  0  0  0  0  0  0  0
   28.7723  -21.3203   -8.4681 C   0  0  0  0  0  0  0  0  0  0  0  0
   27.6040  -20.6117   -8.6818 C   0  0  0  0  0  0  0  0  0  0  0  0
   24.6094  -20.6878  -11.4621 C   0  0  0  0  0  0  0  0  0  0  0  0
   24.5229  -19.3235  -11.3384 O   0  0  0  0  0  0  0  0  0  0  0  0
   23.5523  -21.3525  -11.1958 O   0  0  0  0  0  0  0  0  0  0  0  0
  2  1  1  6
  3  2  1  0
  4  2  1  0
  4  5  1  1
  6  7  2  0
  6  4  1  0
  9  8  1  6
  9 10  1  0
 10  6  1  0
 11  9  1  0
 11 13  1  0
 12 11  2  0
 14 13  1  0
 14 25  1  0
 14 15  1  1
 16 15  1  0
 17 16  2  0
 18 17  1  0
 19 18  1  0
 19 24  2  0
 20 19  1  0
 21 20  2  0
 21 22  1  0
 22 23  2  0
 23 24  1  0
 24 16  1  0
 25 27  2  0
 25 26  1  0
M  END
$$$$
