VAW.pdb
     RDKit          3D

 27 28  0  0  1  0  0  0  0  0999 V2000
   16.9690  -26.4207   -9.5087 C   0  0  0  0  0  0  0  0  0  0  0  0
   17.1746  -25.3738  -10.5525 C   0  0  1  0  0  0  0  0  0  0  0  0
   17.7571  -24.1496   -9.8764 C   0  0  0  0  0  0  0  0  0  0  0  0
   18.1110  -25.8193  -11.6542 C   0  0  2  0  0  0  0  0  0  0  0  0
   19.3030  -26.3975  -11.0688 N   0  0  0  0  0  0  0  0  0  0  0  0
   18.5048  -24.7038  -12.5339 C   0  0  0  0  0  0  0  0  0  0  0  0
   19.4784  -23.9421  -12.1992 O   0  0  0  0  0  0  0  0  0  0  0  0
   17.6869  -23.6502  -15.9990 C   0  0  0  0  0  0  0  0  0  0  0  0
   18.2496  -23.4006  -14.5916 C   0  0  2  0  0  0  0  0  0  0  0  0
   17.8045  -24.4791  -13.7457 N   0  0  0  0  0  0  0  0  0  0  0  0
   17.7049  -22.0901  -14.1663 C   0  0  0  0  0  0  0  0  0  0  0  0
   16.6917  -22.0905  -13.4218 O   0  0  0  0  0  0  0  0  0  0  0  0
   18.2482  -20.8491  -14.5415 N   0  0  0  0  0  0  0  0  0  0  0  0
   17.7067  -19.5671  -14.1370 C   0  0  1  0  0  0  0  0  0  0  0  0
   18.3832  -19.2338  -12.7991 C   0  0  0  0  0  0  0  0  0  0  0  0
   19.8649  -19.3987  -12.9309 C   0  0  0  0  0  0  0  0  0  0  0  0
   20.6840  -19.1921  -13.9996 C   0  0  0  0  0  0  0  0  0  0  0  0
   21.9442  -19.4866  -13.5965 N   0  0  0  0  0  0  0  0  0  0  0  0
   21.9485  -19.8730  -12.3069 C   0  0  0  0  0  0  0  0  0  0  0  0
   22.9325  -20.2745  -11.4202 C   0  0  0  0  0  0  0  0  0  0  0  0
   22.6108  -20.6187  -10.1223 C   0  0  0  0  0  0  0  0  0  0  0  0
   21.3153  -20.5796   -9.6549 C   0  0  0  0  0  0  0  0  0  0  0  0
   20.3422  -20.1741  -10.5604 C   0  0  0  0  0  0  0  0  0  0  0  0
   20.6506  -19.8267  -11.8631 C   0  0  0  0  0  0  0  0  0  0  0  0
   18.0248  -18.4973  -15.1013 C   0  0  0  0  0  0  0  0  0  0  0  0
   17.5178  -17.2234  -15.0374 O   0  0  0  0  0  0  0  0  0  0  0  0
   18.8211  -18.7461  -16.0680 O   0  0  0  0  0  0  0  0  0  0  0  0
  2  1  1  1
  3  2  1  0
  4  2  1  0
  4  5  1  1
  6  7  2  0
  6  4  1  0
  9  8  1  6
  9 10  1  0
 10  6  1  0
 11  9  1  0
 11 13  1  0
 12 11  2  0
 14 13  1  0
 14 25  1  0
 14 15  1  1
 16 15  1  0
 17 16  2  0
 18 17  1  0
 19 18  1  0
 19 24  2  0
 20 19  1  0
 21 20  2  0
 21 22  1  0
 22 23  2  0
 23 24  1  0
 24 16  1  0
 25 27  2  0
 25 26  1  0
M  END
$$$$
