VAW.pdb
     RDKit          3D

 27 28  0  0  1  0  0  0  0  0999 V2000
   23.4102  -16.0707  -17.1770 C   0  0  0  0  0  0  0  0  0  0  0  0
   24.5642  -17.0164  -17.1368 C   0  0  1  0  0  0  0  0  0  0  0  0
   25.8308  -16.2161  -17.3616 C   0  0  0  0  0  0  0  0  0  0  0  0
   24.6748  -17.7520  -15.8193 C   0  0  2  0  0  0  0  0  0  0  0  0
   24.8832  -16.7970  -14.7505 N   0  0  0  0  0  0  0  0  0  0  0  0
   25.7852  -18.7217  -15.8156 C   0  0  0  0  0  0  0  0  0  0  0  0
   25.7471  -19.7362  -16.5961 O   0  0  0  0  0  0  0  0  0  0  0  0
   29.0597  -19.0441  -14.0531 C   0  0  0  0  0  0  0  0  0  0  0  0
   27.8607  -19.5868  -14.8454 C   0  0  2  0  0  0  0  0  0  0  0  0
   26.8896  -18.5270  -14.9485 N   0  0  0  0  0  0  0  0  0  0  0  0
   27.3533  -20.7415  -14.0680 C   0  0  0  0  0  0  0  0  0  0  0  0
   28.0292  -21.8015  -14.0848 O   0  0  0  0  0  0  0  0  0  0  0  0
   26.1667  -20.7268  -13.3146 N   0  0  0  0  0  0  0  0  0  0  0  0
   25.6362  -21.8755  -12.6080 C   0  0  1  0  0  0  0  0  0  0  0  0
   26.5662  -22.0891  -11.4047 C   0  0  0  0  0  0  0  0  0  0  0  0
   26.2456  -21.0887  -10.3385 C   0  0  0  0  0  0  0  0  0  0  0  0
   25.1109  -20.3682  -10.1175 C   0  0  0  0  0  0  0  0  0  0  0  0
   25.3336  -19.6039   -9.0203 N   0  0  0  0  0  0  0  0  0  0  0  0
   26.5730  -19.8180   -8.5403 C   0  0  0  0  0  0  0  0  0  0  0  0
   27.2971  -19.3172   -7.4723 C   0  0  0  0  0  0  0  0  0  0  0  0
   28.5873  -19.7478   -7.2345 C   0  0  0  0  0  0  0  0  0  0  0  0
   29.2061  -20.6818   -8.0363 C   0  0  0  0  0  0  0  0  0  0  0  0
   28.4626  -21.1722   -9.1031 C   0  0  0  0  0  0  0  0  0  0  0  0
   27.1695  -20.7496   -9.3526 C   0  0  0  0  0  0  0  0  0  0  0  0
   24.2691  -21.6402  -12.1067 C   0  0  0  0  0  0  0  0  0  0  0  0
   23.5343  -22.5623  -11.4039 O   0  0  0  0  0  0  0  0  0  0  0  0
   23.7097  -20.5138  -12.3270 O   0  0  0  0  0  0  0  0  0  0  0  0
  2  1  1  1
  3  2  1  0
  4  2  1  0
  4  5  1  1
  6  7  2  0
  6  4  1  0
  9  8  1  1
  9 10  1  0
 10  6  1  0
 11  9  1  0
 11 13  1  0
 12 11  2  0
 14 13  1  0
 14 25  1  0
 14 15  1  1
 16 15  1  0
 17 16  2  0
 18 17  1  0
 19 18  1  0
 19 24  2  0
 20 19  1  0
 21 20  2  0
 21 22  1  0
 22 23  2  0
 23 24  1  0
 24 16  1  0
 25 27  2  0
 25 26  1  0
M  END
$$$$
