VAW.pdb
     RDKit          3D

 27 28  0  0  1  0  0  0  0  0999 V2000
   29.4228  -18.9728  -17.2716 C   0  0  0  0  0  0  0  0  0  0  0  0
   28.5886  -18.7520  -16.0538 C   0  0  1  0  0  0  0  0  0  0  0  0
   29.0340  -17.4536  -15.4127 C   0  0  0  0  0  0  0  0  0  0  0  0
   27.1100  -18.6657  -16.3629 C   0  0  2  0  0  0  0  0  0  0  0  0
   26.8855  -17.6395  -17.3601 N   0  0  0  0  0  0  0  0  0  0  0  0
   26.3094  -18.3507  -15.1658 C   0  0  0  0  0  0  0  0  0  0  0  0
   26.4060  -17.1957  -14.6210 O   0  0  0  0  0  0  0  0  0  0  0  0
   23.2595  -19.1955  -13.6126 C   0  0  0  0  0  0  0  0  0  0  0  0
   24.7683  -19.0196  -13.3839 C   0  0  2  0  0  0  0  0  0  0  0  0
   25.4366  -19.3270  -14.6232 N   0  0  0  0  0  0  0  0  0  0  0  0
   25.1252  -19.9667  -12.3019 C   0  0  0  0  0  0  0  0  0  0  0  0
   25.1727  -21.1904  -12.5867 O   0  0  0  0  0  0  0  0  0  0  0  0
   25.4135  -19.5845  -10.9803 N   0  0  0  0  0  0  0  0  0  0  0  0
   25.7201  -20.5145   -9.9119 C   0  0  1  0  0  0  0  0  0  0  0  0
   26.7223  -19.7876   -9.0032 C   0  0  0  0  0  0  0  0  0  0  0  0
   26.6428  -20.3488   -7.6180 C   0  0  0  0  0  0  0  0  0  0  0  0
   25.8006  -21.2806   -7.0907 C   0  0  0  0  0  0  0  0  0  0  0  0
   26.1457  -21.4361   -5.7891 N   0  0  0  0  0  0  0  0  0  0  0  0
   27.1794  -20.6323   -5.4762 C   0  0  0  0  0  0  0  0  0  0  0  0
   27.9072  -20.3963   -4.3228 C   0  0  0  0  0  0  0  0  0  0  0  0
   28.9417  -19.4818   -4.3195 C   0  0  0  0  0  0  0  0  0  0  0  0
   29.2936  -18.7715   -5.4464 C   0  0  0  0  0  0  0  0  0  0  0  0
   28.5510  -19.0227   -6.5939 C   0  0  0  0  0  0  0  0  0  0  0  0
   27.5124  -19.9359   -6.6110 C   0  0  0  0  0  0  0  0  0  0  0  0
   24.5291  -20.8593   -9.1130 C   0  0  0  0  0  0  0  0  0  0  0  0
   23.3827  -20.1057   -9.0698 O   0  0  0  0  0  0  0  0  0  0  0  0
   24.5390  -21.9230   -8.4067 O   0  0  0  0  0  0  0  0  0  0  0  0
  2  1  1  6
  3  2  1  0
  4  2  1  0
  4  5  1  6
  6  7  2  0
  6  4  1  0
  9  8  1  6
  9 10  1  0
 10  6  1  0
 11  9  1  0
 11 13  1  0
 12 11  2  0
 14 13  1  0
 14 25  1  0
 14 15  1  1
 16 15  1  0
 17 16  2  0
 18 17  1  0
 19 18  1  0
 19 24  2  0
 20 19  1  0
 21 20  2  0
 21 22  1  0
 22 23  2  0
 23 24  1  0
 24 16  1  0
 25 27  2  0
 25 26  1  0
M  END
$$$$
