VAW.pdb
     RDKit          3D

 27 28  0  0  1  0  0  0  0  0999 V2000
   25.9483  -21.9582  -14.9567 C   0  0  0  0  0  0  0  0  0  0  0  0
   25.8380  -20.5946  -15.5535 C   0  0  1  0  0  0  0  0  0  0  0  0
   26.0663  -20.7190  -17.0460 C   0  0  0  0  0  0  0  0  0  0  0  0
   24.4870  -19.9568  -15.3143 C   0  0  2  0  0  0  0  0  0  0  0  0
   24.4086  -18.7072  -16.0426 N   0  0  0  0  0  0  0  0  0  0  0  0
   24.2428  -19.6916  -13.8847 C   0  0  0  0  0  0  0  0  0  0  0  0
   24.9359  -18.8044  -13.2744 O   0  0  0  0  0  0  0  0  0  0  0  0
   21.7892  -20.8651  -11.3304 C   0  0  0  0  0  0  0  0  0  0  0  0
   23.0839  -20.1723  -11.7816 C   0  0  2  0  0  0  0  0  0  0  0  0
   23.2427  -20.4194  -13.1925 N   0  0  0  0  0  0  0  0  0  0  0  0
   24.1687  -20.7822  -10.9777 C   0  0  0  0  0  0  0  0  0  0  0  0
   24.4690  -21.9804  -11.2125 O   0  0  0  0  0  0  0  0  0  0  0  0
   24.8819  -20.1076   -9.9717 N   0  0  0  0  0  0  0  0  0  0  0  0
   25.8775  -20.7298   -9.1221 C   0  0  1  0  0  0  0  0  0  0  0  0
   26.8913  -19.6245   -8.7918 C   0  0  0  0  0  0  0  0  0  0  0  0
   28.0066  -20.1945   -7.9726 C   0  0  0  0  0  0  0  0  0  0  0  0
   28.8985  -21.1825   -8.2627 C   0  0  0  0  0  0  0  0  0  0  0  0
   29.7046  -21.3195   -7.1814 N   0  0  0  0  0  0  0  0  0  0  0  0
   29.3510  -20.4497   -6.2166 C   0  0  0  0  0  0  0  0  0  0  0  0
   29.8219  -20.1704   -4.9454 C   0  0  0  0  0  0  0  0  0  0  0  0
   29.2285  -19.1893   -4.1761 C   0  0  0  0  0  0  0  0  0  0  0  0
   28.1561  -18.4529   -4.6297 C   0  0  0  0  0  0  0  0  0  0  0  0
   27.6983  -18.7484   -5.9082 C   0  0  0  0  0  0  0  0  0  0  0  0
   28.2833  -19.7284   -6.6893 C   0  0  0  0  0  0  0  0  0  0  0  0
   25.3011  -21.2284   -7.8593 C   0  0  0  0  0  0  0  0  0  0  0  0
   25.8481  -22.2363   -7.1048 O   0  0  0  0  0  0  0  0  0  0  0  0
   24.2235  -20.7057   -7.4167 O   0  0  0  0  0  0  0  0  0  0  0  0
  2  1  1  1
  3  2  1  0
  4  2  1  0
  4  5  1  6
  6  7  2  0
  6  4  1  0
  9  8  1  1
  9 10  1  0
 10  6  1  0
 11  9  1  0
 11 13  1  0
 12 11  2  0
 14 13  1  0
 14 25  1  0
 14 15  1  1
 16 15  1  0
 17 16  2  0
 18 17  1  0
 19 18  1  0
 19 24  2  0
 20 19  1  0
 21 20  2  0
 21 22  1  0
 22 23  2  0
 23 24  1  0
 24 16  1  0
 25 27  2  0
 25 26  1  0
M  END
$$$$
