VAW.pdb
     RDKit          3D

 27 28  0  0  1  0  0  0  0  0999 V2000
   30.0097  -17.4139  -17.3592 C   0  0  0  0  0  0  0  0  0  0  0  0
   28.8364  -18.2001  -16.8763 C   0  0  1  0  0  0  0  0  0  0  0  0
   28.3400  -17.5584  -15.5969 C   0  0  0  0  0  0  0  0  0  0  0  0
   27.7035  -18.2393  -17.8783 C   0  0  2  0  0  0  0  0  0  0  0  0
   27.4315  -16.8973  -18.3505 N   0  0  0  0  0  0  0  0  0  0  0  0
   26.4691  -18.8007  -17.3000 C   0  0  0  0  0  0  0  0  0  0  0  0
   25.6673  -18.0413  -16.6515 O   0  0  0  0  0  0  0  0  0  0  0  0
   24.5995  -21.9922  -17.5158 C   0  0  0  0  0  0  0  0  0  0  0  0
   25.0163  -20.7048  -16.7888 C   0  0  2  0  0  0  0  0  0  0  0  0
   26.1753  -20.1776  -17.4640 N   0  0  0  0  0  0  0  0  0  0  0  0
   25.3120  -21.1072  -15.3939 C   0  0  0  0  0  0  0  0  0  0  0  0
   26.4457  -21.5945  -15.1526 O   0  0  0  0  0  0  0  0  0  0  0  0
   24.4073  -20.9788  -14.3257 N   0  0  0  0  0  0  0  0  0  0  0  0
   24.7325  -21.2694  -12.9437 C   0  0  1  0  0  0  0  0  0  0  0  0
   25.8262  -20.2643  -12.5539 C   0  0  0  0  0  0  0  0  0  0  0  0
   26.1201  -20.3839  -11.0913 C   0  0  0  0  0  0  0  0  0  0  0  0
   25.3176  -20.1759  -10.0103 C   0  0  0  0  0  0  0  0  0  0  0  0
   26.0668  -20.4193   -8.9072 N   0  0  0  0  0  0  0  0  0  0  0  0
   27.3176  -20.7746   -9.2558 C   0  0  0  0  0  0  0  0  0  0  0  0
   28.4571  -21.1218   -8.5509 C   0  0  0  0  0  0  0  0  0  0  0  0
   29.6234  -21.4450   -9.2157 C   0  0  0  0  0  0  0  0  0  0  0  0
   29.7075  -21.4375  -10.5908 C   0  0  0  0  0  0  0  0  0  0  0  0
   28.5531  -21.0863  -11.2801 C   0  0  0  0  0  0  0  0  0  0  0  0
   27.3784  -20.7604  -10.6268 C   0  0  0  0  0  0  0  0  0  0  0  0
   23.5782  -21.0760  -12.0460 C   0  0  0  0  0  0  0  0  0  0  0  0
   23.3558  -21.8057  -10.9048 O   0  0  0  0  0  0  0  0  0  0  0  0
   22.7147  -20.1780  -12.3257 O   0  0  0  0  0  0  0  0  0  0  0  0
  2  1  1  6
  3  2  1  0
  4  2  1  0
  4  5  1  1
  6  7  2  0
  6  4  1  0
  9  8  1  6
  9 10  1  0
 10  6  1  0
 11  9  1  0
 11 13  1  0
 12 11  2  0
 14 13  1  0
 14 25  1  0
 14 15  1  1
 16 15  1  0
 17 16  2  0
 18 17  1  0
 19 18  1  0
 19 24  2  0
 20 19  1  0
 21 20  2  0
 21 22  1  0
 22 23  2  0
 23 24  1  0
 24 16  1  0
 25 27  2  0
 25 26  1  0
M  END
$$$$
