VAW.pdb
     RDKit          3D

 27 28  0  0  1  0  0  0  0  0999 V2000
   22.4348  -16.8682  -14.9430 C   0  0  0  0  0  0  0  0  0  0  0  0
   23.4863  -17.9264  -14.9904 C   0  0  1  0  0  0  0  0  0  0  0  0
   22.8496  -19.1928  -15.5252 C   0  0  0  0  0  0  0  0  0  0  0  0
   24.6556  -17.5527  -15.8748 C   0  0  2  0  0  0  0  0  0  0  0  0
   24.1914  -17.3672  -17.2342 N   0  0  0  0  0  0  0  0  0  0  0  0
   25.7098  -18.5833  -15.8674 C   0  0  0  0  0  0  0  0  0  0  0  0
   25.6303  -19.5811  -16.6661 O   0  0  0  0  0  0  0  0  0  0  0  0
   29.0151  -19.0187  -14.2068 C   0  0  0  0  0  0  0  0  0  0  0  0
   27.7761  -19.5311  -14.9565 C   0  0  2  0  0  0  0  0  0  0  0  0
   26.8062  -18.4653  -14.9766 N   0  0  0  0  0  0  0  0  0  0  0  0
   27.3020  -20.7093  -14.1935 C   0  0  0  0  0  0  0  0  0  0  0  0
   28.0111  -21.7472  -14.2182 O   0  0  0  0  0  0  0  0  0  0  0  0
   26.1122  -20.7399  -13.4455 N   0  0  0  0  0  0  0  0  0  0  0  0
   25.6259  -21.9063  -12.7362 C   0  0  1  0  0  0  0  0  0  0  0  0
   26.6112  -22.1299  -11.5796 C   0  0  0  0  0  0  0  0  0  0  0  0
   26.2756  -21.2087  -10.4488 C   0  0  0  0  0  0  0  0  0  0  0  0
   25.1367  -20.5075  -10.1905 C   0  0  0  0  0  0  0  0  0  0  0  0
   25.3446  -19.8230   -9.0391 N   0  0  0  0  0  0  0  0  0  0  0  0
   26.5787  -20.0688   -8.5608 C   0  0  0  0  0  0  0  0  0  0  0  0
   27.2890  -19.6443   -7.4512 C   0  0  0  0  0  0  0  0  0  0  0  0
   28.5773  -20.0887   -7.2294 C   0  0  0  0  0  0  0  0  0  0  0  0
   29.2078  -20.9622   -8.0882 C   0  0  0  0  0  0  0  0  0  0  0  0
   28.4781  -21.3765   -9.1960 C   0  0  0  0  0  0  0  0  0  0  0  0
   27.1870  -20.9392   -9.4302 C   0  0  0  0  0  0  0  0  0  0  0  0
   24.2804  -21.6947  -12.1701 C   0  0  0  0  0  0  0  0  0  0  0  0
   23.4522  -22.7045  -11.7474 O   0  0  0  0  0  0  0  0  0  0  0  0
   23.8329  -20.5045  -12.0545 O   0  0  0  0  0  0  0  0  0  0  0  0
  2  1  1  6
  3  2  1  0
  4  2  1  0
  4  5  1  6
  6  7  2  0
  6  4  1  0
  9  8  1  1
  9 10  1  0
 10  6  1  0
 11  9  1  0
 11 13  1  0
 12 11  2  0
 14 13  1  0
 14 25  1  0
 14 15  1  1
 16 15  1  0
 17 16  2  0
 18 17  1  0
 19 18  1  0
 19 24  2  0
 20 19  1  0
 21 20  2  0
 21 22  1  0
 22 23  2  0
 23 24  1  0
 24 16  1  0
 25 27  2  0
 25 26  1  0
M  END
$$$$
