VAW.pdb
     RDKit          3D

 27 28  0  0  1  0  0  0  0  0999 V2000
   20.7247  -16.4195  -18.5579 C   0  0  0  0  0  0  0  0  0  0  0  0
   21.3129  -17.2883  -17.4963 C   0  0  1  0  0  0  0  0  0  0  0  0
   20.9916  -16.6655  -16.1532 C   0  0  0  0  0  0  0  0  0  0  0  0
   20.7702  -18.7003  -17.5260 C   0  0  2  0  0  0  0  0  0  0  0  0
   19.3472  -18.6751  -17.2569 N   0  0  0  0  0  0  0  0  0  0  0  0
   21.4278  -19.5695  -16.5332 C   0  0  0  0  0  0  0  0  0  0  0  0
   21.0327  -19.5571  -15.3152 O   0  0  0  0  0  0  0  0  0  0  0  0
   23.6113  -22.5168  -16.5987 C   0  0  0  0  0  0  0  0  0  0  0  0
   23.1226  -21.2278  -15.9209 C   0  0  2  0  0  0  0  0  0  0  0  0
   22.4941  -20.4145  -16.9310 N   0  0  0  0  0  0  0  0  0  0  0  0
   24.3321  -20.5868  -15.3543 C   0  0  0  0  0  0  0  0  0  0  0  0
   24.6130  -19.4231  -15.7386 O   0  0  0  0  0  0  0  0  0  0  0  0
   25.1835  -21.1960  -14.4162 N   0  0  0  0  0  0  0  0  0  0  0  0
   26.2925  -20.5259  -13.7670 C   0  0  1  0  0  0  0  0  0  0  0  0
   25.6637  -19.4186  -12.9084 C   0  0  0  0  0  0  0  0  0  0  0  0
   25.1941  -19.9958  -11.6098 C   0  0  0  0  0  0  0  0  0  0  0  0
   25.8867  -20.6372  -10.6277 C   0  0  0  0  0  0  0  0  0  0  0  0
   24.9946  -20.9616   -9.6600 N   0  0  0  0  0  0  0  0  0  0  0  0
   23.7598  -20.5459   -9.9987 C   0  0  0  0  0  0  0  0  0  0  0  0
   22.5161  -20.6145   -9.3951 C   0  0  0  0  0  0  0  0  0  0  0  0
   21.4042  -20.0786  -10.0141 C   0  0  0  0  0  0  0  0  0  0  0  0
   21.4782  -19.4598  -11.2428 C   0  0  0  0  0  0  0  0  0  0  0  0
   22.7354  -19.4013  -11.8321 C   0  0  0  0  0  0  0  0  0  0  0  0
   23.8571  -19.9339  -11.2233 C   0  0  0  0  0  0  0  0  0  0  0  0
   27.0506  -21.4303  -12.8822 C   0  0  0  0  0  0  0  0  0  0  0  0
   26.6155  -22.6716  -12.4898 O   0  0  0  0  0  0  0  0  0  0  0  0
   28.1887  -21.0586  -12.4384 O   0  0  0  0  0  0  0  0  0  0  0  0
  2  1  1  6
  3  2  1  0
  4  2  1  0
  4  5  1  1
  6  7  2  0
  6  4  1  0
  9  8  1  6
  9 10  1  0
 10  6  1  0
 11  9  1  0
 11 13  1  0
 12 11  2  0
 14 13  1  0
 14 25  1  0
 14 15  1  1
 16 15  1  0
 17 16  2  0
 18 17  1  0
 19 18  1  0
 19 24  2  0
 20 19  1  0
 21 20  2  0
 21 22  1  0
 22 23  2  0
 23 24  1  0
 24 16  1  0
 25 27  2  0
 25 26  1  0
M  END
$$$$
