VAW.pdb
     RDKit          3D

 27 28  0  0  1  0  0  0  0  0999 V2000
   23.1758  -18.3609  -14.2945 C   0  0  0  0  0  0  0  0  0  0  0  0
   22.9143  -18.9285  -15.6499 C   0  0  1  0  0  0  0  0  0  0  0  0
   21.7906  -18.1317  -16.2802 C   0  0  0  0  0  0  0  0  0  0  0  0
   24.1257  -18.8702  -16.5544 C   0  0  2  0  0  0  0  0  0  0  0  0
   23.7599  -19.3265  -17.8795 N   0  0  0  0  0  0  0  0  0  0  0  0
   25.2345  -19.7023  -16.0528 C   0  0  0  0  0  0  0  0  0  0  0  0
   25.1937  -20.9738  -16.2006 O   0  0  0  0  0  0  0  0  0  0  0  0
   28.5776  -19.0668  -14.5307 C   0  0  0  0  0  0  0  0  0  0  0  0
   27.3702  -19.9499  -14.8801 C   0  0  2  0  0  0  0  0  0  0  0  0
   26.3403  -19.0919  -15.4095 N   0  0  0  0  0  0  0  0  0  0  0  0
   26.9650  -20.5990  -13.6115 C   0  0  0  0  0  0  0  0  0  0  0  0
   27.6836  -21.5345  -13.1765 O   0  0  0  0  0  0  0  0  0  0  0  0
   25.8305  -20.2359  -12.8652 N   0  0  0  0  0  0  0  0  0  0  0  0
   25.4671  -20.8302  -11.5943 C   0  0  1  0  0  0  0  0  0  0  0  0
   26.0337  -19.8910  -10.5194 C   0  0  0  0  0  0  0  0  0  0  0  0
   27.2651  -20.4966   -9.9219 C   0  0  0  0  0  0  0  0  0  0  0  0
   28.2104  -21.3039  -10.4788 C   0  0  0  0  0  0  0  0  0  0  0  0
   29.1207  -21.5748   -9.5116 N   0  0  0  0  0  0  0  0  0  0  0  0
   28.7813  -20.9646   -8.3606 C   0  0  0  0  0  0  0  0  0  0  0  0
   29.3397  -20.9051   -7.0955 C   0  0  0  0  0  0  0  0  0  0  0  0
   28.7347  -20.1716   -6.0942 C   0  0  0  0  0  0  0  0  0  0  0  0
   27.5647  -19.4749   -6.3030 C   0  0  0  0  0  0  0  0  0  0  0  0
   27.0200  -19.5474   -7.5794 C   0  0  0  0  0  0  0  0  0  0  0  0
   27.6154  -20.2782   -8.5914 C   0  0  0  0  0  0  0  0  0  0  0  0
   24.0055  -20.9172  -11.4163 C   0  0  0  0  0  0  0  0  0  0  0  0
   23.0873  -20.4322  -12.3140 O   0  0  0  0  0  0  0  0  0  0  0  0
   23.5375  -21.4753  -10.3675 O   0  0  0  0  0  0  0  0  0  0  0  0
  2  1  1  1
  3  2  1  0
  4  2  1  0
  4  5  1  6
  6  7  2  0
  6  4  1  0
  9  8  1  1
  9 10  1  0
 10  6  1  0
 11  9  1  0
 11 13  1  0
 12 11  2  0
 14 13  1  0
 14 25  1  0
 14 15  1  1
 16 15  1  0
 17 16  2  0
 18 17  1  0
 19 18  1  0
 19 24  2  0
 20 19  1  0
 21 20  2  0
 21 22  1  0
 22 23  2  0
 23 24  1  0
 24 16  1  0
 25 27  2  0
 25 26  1  0
M  END
$$$$
