GLR.pdb
     RDKit          3D

 24 23  0  0  1  0  0  0  0  0999 V2000
   24.3996  -26.0763  -15.4626 N   0  0  0  0  0  0  0  0  0  0  0  0
   24.4417  -24.6485  -15.4173 C   0  0  0  0  0  0  0  0  0  0  0  0
   24.0195  -24.0991  -14.0807 C   0  0  0  0  0  0  0  0  0  0  0  0
   23.5871  -24.9225  -13.2546 O   0  0  0  0  0  0  0  0  0  0  0  0
   24.8982  -21.6063   -9.6912 C   0  0  0  0  0  0  0  0  0  0  0  0
   24.8104  -20.5776  -10.7916 C   0  0  1  0  0  0  0  0  0  0  0  0
   25.7102  -19.3995  -10.6198 C   0  0  0  0  0  0  0  0  0  0  0  0
   24.9491  -21.1678  -12.1614 C   0  0  0  0  0  0  0  0  0  0  0  0
   23.9073  -22.1361  -12.5668 C   0  0  2  0  0  0  0  0  0  0  0  0
   24.1427  -22.7030  -13.8615 N   0  0  0  0  0  0  0  0  0  0  0  0
   22.5296  -21.5642  -12.5407 C   0  0  0  0  0  0  0  0  0  0  0  0
   22.1053  -20.9196  -13.5304 O   0  0  0  0  0  0  0  0  0  0  0  0
   18.2750  -24.5749   -6.8486 N   0  0  0  0  0  0  0  0  0  0  0  0
   18.0136  -25.2039   -8.0894 C   0  0  0  0  0  0  0  0  0  0  0  0
   16.9748  -25.9123   -8.2348 N   0  0  0  0  0  0  0  0  0  0  0  0
   18.9159  -25.0403   -9.1635 N   0  0  0  0  0  0  0  0  0  0  0  0
   19.8021  -23.8412   -9.1134 C   0  0  0  0  0  0  0  0  0  0  0  0
   19.1045  -22.8146   -9.9145 C   0  0  0  0  0  0  0  0  0  0  0  0
   19.7265  -21.5391  -10.1894 C   0  0  0  0  0  0  0  0  0  0  0  0
   20.2549  -21.1818  -11.5290 C   0  0  2  0  0  0  0  0  0  0  0  0
   21.6706  -21.7121  -11.4510 N   0  0  0  0  0  0  0  0  0  0  0  0
   20.4310  -19.7647  -11.8521 C   0  0  0  0  0  0  0  0  0  0  0  0
   21.3589  -19.0249  -11.4248 O   0  0  0  0  0  0  0  0  0  0  0  0
   19.4843  -19.1580  -12.7202 O   0  0  0  0  0  0  0  0  0  0  0  0
  1  2  1  0
  3  2  1  0
  3  4  2  0
  6  5  1  1
  6  8  1  0
  7  6  1  0
  9  8  1  6
  9 10  1  0
 10  3  1  0
 11  9  1  0
 12 11  2  0
 13 14  1  0
 14 15  2  0
 16 14  1  0
 16 17  1  0
 17 18  1  0
 20 19  1  1
 19 18  1  0
 20 21  1  0
 21 11  1  0
 22 20  1  0
 23 22  2  0
 24 22  1  0
M  END
$$$$
