GLR.pdb
     RDKit          3D

 24 23  0  0  1  0  0  0  0  0999 V2000
   17.4168  -11.1706  -16.2812 N   0  0  0  0  0  0  0  0  0  0  0  0
   17.5639   -9.7883  -15.9492 C   0  0  0  0  0  0  0  0  0  0  0  0
   18.1260   -9.5814  -14.5679 C   0  0  0  0  0  0  0  0  0  0  0  0
   17.8125  -10.4258  -13.7098 O   0  0  0  0  0  0  0  0  0  0  0  0
   23.1971   -7.7902  -13.9544 C   0  0  0  0  0  0  0  0  0  0  0  0
   21.9099   -8.5154  -13.6477 C   0  0  1  0  0  0  0  0  0  0  0  0
   22.0691   -9.7537  -12.8303 C   0  0  0  0  0  0  0  0  0  0  0  0
   20.8533   -7.6217  -13.0741 C   0  0  0  0  0  0  0  0  0  0  0  0
   19.4792   -8.1677  -13.0421 C   0  0  2  0  0  0  0  0  0  0  0  0
   18.9604   -8.4558  -14.3463 N   0  0  0  0  0  0  0  0  0  0  0  0
   18.5112   -7.2846  -12.3289 C   0  0  0  0  0  0  0  0  0  0  0  0
   18.0933   -6.2413  -12.8874 O   0  0  0  0  0  0  0  0  0  0  0  0
   11.7010   -9.2875   -7.4124 N   0  0  0  0  0  0  0  0  0  0  0  0
   11.7889   -7.8787   -7.3070 C   0  0  0  0  0  0  0  0  0  0  0  0
   10.8664   -7.2267   -6.7358 N   0  0  0  0  0  0  0  0  0  0  0  0
   12.9075   -7.2028   -7.8424 N   0  0  0  0  0  0  0  0  0  0  0  0
   13.9118   -8.0403   -8.5604 C   0  0  0  0  0  0  0  0  0  0  0  0
   14.9325   -7.0871   -9.0420 C   0  0  0  0  0  0  0  0  0  0  0  0
   16.0464   -7.5367   -9.8461 C   0  0  0  0  0  0  0  0  0  0  0  0
   17.0763   -6.6073  -10.3727 C   0  0  2  0  0  0  0  0  0  0  0  0
   18.0360   -7.5644  -11.0470 N   0  0  0  0  0  0  0  0  0  0  0  0
   17.9177   -5.8868   -9.4155 C   0  0  0  0  0  0  0  0  0  0  0  0
   19.0111   -6.3014   -8.9429 O   0  0  0  0  0  0  0  0  0  0  0  0
   17.4784   -4.6104   -8.9732 O   0  0  0  0  0  0  0  0  0  0  0  0
  1  2  1  0
  3  2  1  0
  3  4  2  0
  6  5  1  1
  6  8  1  0
  7  6  1  0
  9  8  1  6
  9 10  1  0
 10  3  1  0
 11  9  1  0
 12 11  2  0
 13 14  1  0
 14 15  2  0
 16 14  1  0
 16 17  1  0
 17 18  1  0
 20 19  1  1
 19 18  1  0
 20 21  1  0
 21 11  1  0
 22 20  1  0
 23 22  2  0
 24 22  1  0
M  END
$$$$
