GLR.pdb
     RDKit          3D

 24 23  0  0  1  0  0  0  0  0999 V2000
   30.8184  -22.6482  -11.1191 N   0  0  0  0  0  0  0  0  0  0  0  0
   30.6856  -21.3921  -10.4506 C   0  0  0  0  0  0  0  0  0  0  0  0
   29.6938  -21.4407   -9.3189 C   0  0  0  0  0  0  0  0  0  0  0  0
   28.9292  -22.4216   -9.2939 O   0  0  0  0  0  0  0  0  0  0  0  0
   28.1757  -20.7499   -4.2672 C   0  0  0  0  0  0  0  0  0  0  0  0
   28.2314  -19.4377   -5.0101 C   0  0  1  0  0  0  0  0  0  0  0  0
   28.4993  -18.2451   -4.1540 C   0  0  0  0  0  0  0  0  0  0  0  0
   29.1490  -19.4700   -6.1937 C   0  0  0  0  0  0  0  0  0  0  0  0
   28.7256  -20.3184   -7.3287 C   0  0  2  0  0  0  0  0  0  0  0  0
   29.7016  -20.3810   -8.3759 N   0  0  0  0  0  0  0  0  0  0  0  0
   27.4198  -19.9035   -7.9190 C   0  0  0  0  0  0  0  0  0  0  0  0
   27.2668  -18.7255   -8.3239 O   0  0  0  0  0  0  0  0  0  0  0  0
   25.8230  -22.6858  -14.7149 N   0  0  0  0  0  0  0  0  0  0  0  0
   24.9064  -21.6760  -14.3359 C   0  0  0  0  0  0  0  0  0  0  0  0
   23.8865  -21.4452  -15.0491 N   0  0  0  0  0  0  0  0  0  0  0  0
   25.1342  -20.9258  -13.1611 N   0  0  0  0  0  0  0  0  0  0  0  0
   26.2902  -21.3445  -12.3161 C   0  0  0  0  0  0  0  0  0  0  0  0
   25.7485  -21.4411  -10.9452 C   0  0  0  0  0  0  0  0  0  0  0  0
   25.5114  -20.2535  -10.1559 C   0  0  0  0  0  0  0  0  0  0  0  0
   25.0736  -20.3116   -8.7394 C   0  0  2  0  0  0  0  0  0  0  0  0
   26.3376  -20.7751   -8.0473 N   0  0  0  0  0  0  0  0  0  0  0  0
   24.0795  -21.3170   -8.3593 C   0  0  0  0  0  0  0  0  0  0  0  0
   22.8724  -21.3298   -8.7251 O   0  0  0  0  0  0  0  0  0  0  0  0
   24.4956  -22.3744   -7.5069 O   0  0  0  0  0  0  0  0  0  0  0  0
  1  2  1  0
  3  2  1  0
  3  4  2  0
  6  5  1  1
  6  8  1  0
  7  6  1  0
  9  8  1  1
  9 10  1  0
 10  3  1  0
 11  9  1  0
 12 11  2  0
 13 14  1  0
 14 15  2  0
 16 14  1  0
 16 17  1  0
 17 18  1  0
 20 19  1  6
 19 18  1  0
 20 21  1  0
 21 11  1  0
 22 20  1  0
 23 22  2  0
 24 22  1  0
M  END
$$$$
