GLR.pdb
     RDKit          3D

 24 23  0  0  1  0  0  0  0  0999 V2000
   30.4115  -22.4875  -11.5219 N   0  0  0  0  0  0  0  0  0  0  0  0
   30.2090  -21.2644  -10.8109 C   0  0  0  0  0  0  0  0  0  0  0  0
   29.2832  -21.4251   -9.6346 C   0  0  0  0  0  0  0  0  0  0  0  0
   28.5434  -22.4252   -9.6442 O   0  0  0  0  0  0  0  0  0  0  0  0
   28.3801  -20.8877   -4.1485 C   0  0  0  0  0  0  0  0  0  0  0  0
   28.0199  -19.7834   -5.1116 C   0  0  1  0  0  0  0  0  0  0  0  0
   27.9026  -18.4294   -4.4952 C   0  0  0  0  0  0  0  0  0  0  0  0
   28.8986  -19.7504   -6.3244 C   0  0  0  0  0  0  0  0  0  0  0  0
   28.4100  -20.4898   -7.5084 C   0  0  2  0  0  0  0  0  0  0  0  0
   29.3196  -20.4400   -8.6145 N   0  0  0  0  0  0  0  0  0  0  0  0
   27.0680  -20.0343   -7.9746 C   0  0  0  0  0  0  0  0  0  0  0  0
   26.9120  -18.8493   -8.3573 O   0  0  0  0  0  0  0  0  0  0  0  0
   23.4398  -22.7562  -14.8039 N   0  0  0  0  0  0  0  0  0  0  0  0
   23.1035  -21.3966  -14.5993 C   0  0  0  0  0  0  0  0  0  0  0  0
   22.1465  -20.8762  -15.2440 N   0  0  0  0  0  0  0  0  0  0  0  0
   23.8396  -20.6223  -13.6756 N   0  0  0  0  0  0  0  0  0  0  0  0
   24.5831  -21.3710  -12.6210 C   0  0  0  0  0  0  0  0  0  0  0  0
   24.5266  -20.5066  -11.4244 C   0  0  0  0  0  0  0  0  0  0  0  0
   25.2543  -20.8525  -10.2243 C   0  0  0  0  0  0  0  0  0  0  0  0
   24.7615  -20.5122   -8.8668 C   0  0  2  0  0  0  0  0  0  0  0  0
   25.9546  -20.8748   -8.0084 N   0  0  0  0  0  0  0  0  0  0  0  0
   23.6710  -21.3095   -8.3025 C   0  0  0  0  0  0  0  0  0  0  0  0
   22.4402  -21.0950   -8.4753 O   0  0  0  0  0  0  0  0  0  0  0  0
   24.0132  -22.4232   -7.4897 O   0  0  0  0  0  0  0  0  0  0  0  0
  1  2  1  0
  3  2  1  0
  3  4  2  0
  6  5  1  1
  6  8  1  0
  7  6  1  0
  9  8  1  1
  9 10  1  0
 10  3  1  0
 11  9  1  0
 12 11  2  0
 13 14  1  0
 14 15  2  0
 16 14  1  0
 16 17  1  0
 17 18  1  0
 20 19  1  6
 19 18  1  0
 20 21  1  0
 21 11  1  0
 22 20  1  0
 23 22  2  0
 24 22  1  0
M  END
$$$$
