GLR.pdb
     RDKit          3D

 24 23  0  0  1  0  0  0  0  0999 V2000
   30.7830  -24.4264  -16.3830 N   0  0  0  0  0  0  0  0  0  0  0  0
   29.8490  -23.6692  -17.1556 C   0  0  0  0  0  0  0  0  0  0  0  0
   29.3795  -22.4289  -16.4430 C   0  0  0  0  0  0  0  0  0  0  0  0
   29.5637  -22.3929  -15.2132 O   0  0  0  0  0  0  0  0  0  0  0  0
   28.1812  -17.1737  -15.8881 C   0  0  0  0  0  0  0  0  0  0  0  0
   27.4023  -17.8776  -16.9719 C   0  0  1  0  0  0  0  0  0  0  0  0
   26.9324  -16.9941  -18.0789 C   0  0  0  0  0  0  0  0  0  0  0  0
   28.1023  -19.0888  -17.5077 C   0  0  0  0  0  0  0  0  0  0  0  0
   28.2206  -20.2393  -16.5859 C   0  0  2  0  0  0  0  0  0  0  0  0
   28.7697  -21.4050  -17.2125 N   0  0  0  0  0  0  0  0  0  0  0  0
   26.9287  -20.6105  -15.9386 C   0  0  0  0  0  0  0  0  0  0  0  0
   26.0946  -21.3050  -16.5687 O   0  0  0  0  0  0  0  0  0  0  0  0
   22.5258  -21.4226   -8.3468 N   0  0  0  0  0  0  0  0  0  0  0  0
   23.9208  -21.2743   -8.1578 C   0  0  0  0  0  0  0  0  0  0  0  0
   24.4221  -21.4091   -7.0034 N   0  0  0  0  0  0  0  0  0  0  0  0
   24.7508  -20.9737   -9.2602 N   0  0  0  0  0  0  0  0  0  0  0  0
   24.0689  -20.7604  -10.5698 C   0  0  0  0  0  0  0  0  0  0  0  0
   24.9388  -21.4169  -11.5671 C   0  0  0  0  0  0  0  0  0  0  0  0
   25.6393  -20.6411  -12.5655 C   0  0  0  0  0  0  0  0  0  0  0  0
   25.3116  -20.7189  -14.0105 C   0  0  2  0  0  0  0  0  0  0  0  0
   26.5928  -20.2180  -14.6423 N   0  0  0  0  0  0  0  0  0  0  0  0
   24.2864  -19.8183  -14.5408 C   0  0  0  0  0  0  0  0  0  0  0  0
   23.0749  -20.1155  -14.7281 O   0  0  0  0  0  0  0  0  0  0  0  0
   24.6742  -18.4937  -14.8766 O   0  0  0  0  0  0  0  0  0  0  0  0
  1  2  1  0
  3  2  1  0
  3  4  2  0
  6  5  1  1
  6  8  1  0
  7  6  1  0
  9  8  1  6
  9 10  1  0
 10  3  1  0
 11  9  1  0
 12 11  2  0
 13 14  1  0
 14 15  2  0
 16 14  1  0
 16 17  1  0
 17 18  1  0
 20 19  1  1
 19 18  1  0
 20 21  1  0
 21 11  1  0
 22 20  1  0
 23 22  2  0
 24 22  1  0
M  END
$$$$
