GLR.pdb
     RDKit          3D

 24 23  0  0  1  0  0  0  0  0999 V2000
   20.8649  -20.4370   -9.4867 N   0  0  0  0  0  0  0  0  0  0  0  0
   22.0923  -20.9905   -9.0075 C   0  0  0  0  0  0  0  0  0  0  0  0
   23.2853  -20.5246   -9.7990 C   0  0  0  0  0  0  0  0  0  0  0  0
   23.0575  -19.7311  -10.7295 O   0  0  0  0  0  0  0  0  0  0  0  0
   28.2093  -20.4324   -7.1384 C   0  0  0  0  0  0  0  0  0  0  0  0
   26.9975  -20.0733   -7.9627 C   0  0  1  0  0  0  0  0  0  0  0  0
   26.7420  -18.6089   -8.0942 C   0  0  0  0  0  0  0  0  0  0  0  0
   26.9746  -20.7477   -9.3001 C   0  0  0  0  0  0  0  0  0  0  0  0
   25.7475  -20.5660  -10.1053 C   0  0  2  0  0  0  0  0  0  0  0  0
   24.5647  -21.0160   -9.4331 N   0  0  0  0  0  0  0  0  0  0  0  0
   25.8165  -21.2265  -11.4412 C   0  0  0  0  0  0  0  0  0  0  0  0
   25.8434  -22.4791  -11.5148 O   0  0  0  0  0  0  0  0  0  0  0  0
   22.3955  -16.9672  -17.0584 N   0  0  0  0  0  0  0  0  0  0  0  0
   23.7623  -17.3352  -17.0550 C   0  0  0  0  0  0  0  0  0  0  0  0
   24.6260  -16.5714  -17.5773 N   0  0  0  0  0  0  0  0  0  0  0  0
   24.1591  -18.5575  -16.4691 N   0  0  0  0  0  0  0  0  0  0  0  0
   23.0896  -19.3554  -15.8018 C   0  0  0  0  0  0  0  0  0  0  0  0
   23.7995  -20.2118  -14.8297 C   0  0  0  0  0  0  0  0  0  0  0  0
   25.2379  -20.3482  -14.8730 C   0  0  0  0  0  0  0  0  0  0  0  0
   25.9819  -21.2449  -13.9545 C   0  0  2  0  0  0  0  0  0  0  0  0
   25.8530  -20.5093  -12.6377 N   0  0  0  0  0  0  0  0  0  0  0  0
   27.4280  -21.3826  -14.1365 C   0  0  0  0  0  0  0  0  0  0  0  0
   28.2916  -20.5163  -13.8291 O   0  0  0  0  0  0  0  0  0  0  0  0
   27.9145  -22.5897  -14.7059 O   0  0  0  0  0  0  0  0  0  0  0  0
  1  2  1  0
  3  2  1  0
  3  4  2  0
  6  5  1  6
  6  8  1  0
  7  6  1  0
  9  8  1  1
  9 10  1  0
 10  3  1  0
 11  9  1  0
 12 11  2  0
 13 14  1  0
 14 15  2  0
 16 14  1  0
 16 17  1  0
 17 18  1  0
 20 19  1  6
 19 18  1  0
 20 21  1  0
 21 11  1  0
 22 20  1  0
 23 22  2  0
 24 22  1  0
M  END
$$$$
