GLR.pdb
     RDKit          3D

 24 23  0  0  1  0  0  0  0  0999 V2000
   22.7885  -15.2190  -20.0428 N   0  0  0  0  0  0  0  0  0  0  0  0
   23.6370  -14.0708  -19.9793 C   0  0  0  0  0  0  0  0  0  0  0  0
   23.6119  -13.4066  -18.6284 C   0  0  0  0  0  0  0  0  0  0  0  0
   22.5363  -13.4578  -18.0056 O   0  0  0  0  0  0  0  0  0  0  0  0
   26.0021  -14.2946  -15.6471 C   0  0  0  0  0  0  0  0  0  0  0  0
   26.5962  -12.9343  -15.3757 C   0  0  1  0  0  0  0  0  0  0  0  0
   28.0761  -12.9251  -15.1837 C   0  0  0  0  0  0  0  0  0  0  0  0
   26.1743  -11.8984  -16.3721 C   0  0  0  0  0  0  0  0  0  0  0  0
   24.8157  -12.0470  -16.9372 C   0  0  2  0  0  0  0  0  0  0  0  0
   24.7982  -12.7792  -18.1687 N   0  0  0  0  0  0  0  0  0  0  0  0
   24.1198  -10.7442  -17.1477 C   0  0  0  0  0  0  0  0  0  0  0  0
   24.4020  -10.0435  -18.1500 O   0  0  0  0  0  0  0  0  0  0  0  0
   15.8248   -9.9214  -17.8096 N   0  0  0  0  0  0  0  0  0  0  0  0
   16.2355   -8.5669  -17.7933 C   0  0  0  0  0  0  0  0  0  0  0  0
   15.3890   -7.6453  -17.9837 N   0  0  0  0  0  0  0  0  0  0  0  0
   17.5923   -8.2471  -17.5661 N   0  0  0  0  0  0  0  0  0  0  0  0
   18.5249   -9.3955  -17.3738 C   0  0  0  0  0  0  0  0  0  0  0  0
   19.8420   -8.7805  -17.1103 C   0  0  0  0  0  0  0  0  0  0  0  0
   21.0178   -9.5991  -16.9185 C   0  0  0  0  0  0  0  0  0  0  0  0
   22.3551   -9.0206  -16.6384 C   0  0  2  0  0  0  0  0  0  0  0  0
   23.1513  -10.2545  -16.2706 N   0  0  0  0  0  0  0  0  0  0  0  0
   22.5055   -8.1484  -15.4722 C   0  0  0  0  0  0  0  0  0  0  0  0
   22.8734   -8.5170  -14.3234 O   0  0  0  0  0  0  0  0  0  0  0  0
   22.2168   -6.7669  -15.6334 O   0  0  0  0  0  0  0  0  0  0  0  0
  1  2  1  0
  3  2  1  0
  3  4  2  0
  6  5  1  6
  6  8  1  0
  7  6  1  0
  9  8  1  6
  9 10  1  0
 10  3  1  0
 11  9  1  0
 12 11  2  0
 13 14  1  0
 14 15  2  0
 16 14  1  0
 16 17  1  0
 17 18  1  0
 20 19  1  1
 19 18  1  0
 20 21  1  0
 21 11  1  0
 22 20  1  0
 23 22  2  0
 24 22  1  0
M  END
$$$$
