GLR.pdb
     RDKit          3D

 24 23  0  0  1  0  0  0  0  0999 V2000
   26.2270  -25.3924  -16.2451 N   0  0  0  0  0  0  0  0  0  0  0  0
   26.2139  -24.0672  -16.7801 C   0  0  0  0  0  0  0  0  0  0  0  0
   25.5643  -23.0749  -15.8527 C   0  0  0  0  0  0  0  0  0  0  0  0
   24.9442  -23.5465  -14.8829 O   0  0  0  0  0  0  0  0  0  0  0  0
   28.0143  -18.1599  -15.7626 C   0  0  0  0  0  0  0  0  0  0  0  0
   27.3594  -19.4332  -15.2865 C   0  0  1  0  0  0  0  0  0  0  0  0
   27.8048  -19.9005  -13.9410 C   0  0  0  0  0  0  0  0  0  0  0  0
   25.8646  -19.3959  -15.3778 C   0  0  0  0  0  0  0  0  0  0  0  0
   25.1683  -20.6960  -15.2679 C   0  0  2  0  0  0  0  0  0  0  0  0
   25.7033  -21.6940  -16.1460 N   0  0  0  0  0  0  0  0  0  0  0  0
   23.6977  -20.5977  -15.4987 C   0  0  0  0  0  0  0  0  0  0  0  0
   23.2608  -20.4317  -16.6635 O   0  0  0  0  0  0  0  0  0  0  0  0
   19.2844  -24.7290  -12.1554 N   0  0  0  0  0  0  0  0  0  0  0  0
   17.9724  -24.2003  -12.2074 C   0  0  0  0  0  0  0  0  0  0  0  0
   17.1237  -24.5219  -11.3250 N   0  0  0  0  0  0  0  0  0  0  0  0
   17.6126  -23.3149  -13.2472 N   0  0  0  0  0  0  0  0  0  0  0  0
   18.6686  -23.0052  -14.2545 C   0  0  0  0  0  0  0  0  0  0  0  0
   19.2399  -21.7119  -13.8266 C   0  0  0  0  0  0  0  0  0  0  0  0
   20.6668  -21.4833  -13.8617 C   0  0  0  0  0  0  0  0  0  0  0  0
   21.2922  -20.4822  -14.7606 C   0  0  2  0  0  0  0  0  0  0  0  0
   22.7634  -20.6829  -14.4657 N   0  0  0  0  0  0  0  0  0  0  0  0
   21.0713  -19.0622  -14.4811 C   0  0  0  0  0  0  0  0  0  0  0  0
   21.6866  -18.3806  -13.6163 O   0  0  0  0  0  0  0  0  0  0  0  0
   20.0838  -18.3805  -15.2414 O   0  0  0  0  0  0  0  0  0  0  0  0
  1  2  1  0
  3  2  1  0
  3  4  2  0
  6  5  1  1
  6  8  1  0
  7  6  1  0
  9  8  1  6
  9 10  1  0
 10  3  1  0
 11  9  1  0
 12 11  2  0
 13 14  1  0
 14 15  2  0
 16 14  1  0
 16 17  1  0
 17 18  1  0
 20 19  1  1
 19 18  1  0
 20 21  1  0
 21 11  1  0
 22 20  1  0
 23 22  2  0
 24 22  1  0
M  END
$$$$
