GLR.pdb
     RDKit          3D

 24 23  0  0  1  0  0  0  0  0999 V2000
   25.4919  -21.2717   -9.7687 N   0  0  0  0  0  0  0  0  0  0  0  0
   26.3862  -21.2186  -10.8822 C   0  0  0  0  0  0  0  0  0  0  0  0
   25.9313  -20.2533  -11.9444 C   0  0  0  0  0  0  0  0  0  0  0  0
   24.8307  -19.7039  -11.7593 O   0  0  0  0  0  0  0  0  0  0  0  0
   26.6595  -16.3497  -15.4076 C   0  0  0  0  0  0  0  0  0  0  0  0
   27.3347  -17.6008  -15.9132 C   0  0  1  0  0  0  0  0  0  0  0  0
   28.5496  -17.3628  -16.7464 C   0  0  0  0  0  0  0  0  0  0  0  0
   27.6091  -18.5998  -14.8312 C   0  0  0  0  0  0  0  0  0  0  0  0
   26.4346  -19.0890  -14.0772 C   0  0  2  0  0  0  0  0  0  0  0  0
   26.7771  -20.0421  -13.0635 N   0  0  0  0  0  0  0  0  0  0  0  0
   25.3792  -19.6805  -14.9500 C   0  0  0  0  0  0  0  0  0  0  0  0
   25.5144  -20.8506  -15.3832 O   0  0  0  0  0  0  0  0  0  0  0  0
   20.4429  -24.2539  -13.8667 N   0  0  0  0  0  0  0  0  0  0  0  0
   19.5089  -23.2394  -13.5477 C   0  0  0  0  0  0  0  0  0  0  0  0
   18.6310  -23.4425  -12.6587 N   0  0  0  0  0  0  0  0  0  0  0  0
   19.5581  -22.0011  -14.2252 N   0  0  0  0  0  0  0  0  0  0  0  0
   20.6502  -21.8324  -15.2274 C   0  0  0  0  0  0  0  0  0  0  0  0
   21.5956  -20.8808  -14.6085 C   0  0  0  0  0  0  0  0  0  0  0  0
   22.0090  -19.6851  -15.3078 C   0  0  0  0  0  0  0  0  0  0  0  0
   23.1932  -19.6529  -16.2011 C   0  0  2  0  0  0  0  0  0  0  0  0
   24.2255  -18.9864  -15.3168 N   0  0  0  0  0  0  0  0  0  0  0  0
   23.1463  -18.7969  -17.3878 C   0  0  0  0  0  0  0  0  0  0  0  0
   23.5460  -17.6020  -17.4465 O   0  0  0  0  0  0  0  0  0  0  0  0
   22.6082  -19.3455  -18.5826 O   0  0  0  0  0  0  0  0  0  0  0  0
  1  2  1  0
  3  2  1  0
  3  4  2  0
  6  5  1  1
  6  8  1  0
  7  6  1  0
  9  8  1  6
  9 10  1  0
 10  3  1  0
 11  9  1  0
 12 11  2  0
 13 14  1  0
 14 15  2  0
 16 14  1  0
 16 17  1  0
 17 18  1  0
 20 19  1  1
 19 18  1  0
 20 21  1  0
 21 11  1  0
 22 20  1  0
 23 22  2  0
 24 22  1  0
M  END
$$$$
