GLR.pdb
     RDKit          3D

 24 23  0  0  1  0  0  0  0  0999 V2000
   28.7088  -22.0829  -15.7931 N   0  0  0  0  0  0  0  0  0  0  0  0
   27.3512  -22.0200  -16.2353 C   0  0  0  0  0  0  0  0  0  0  0  0
   26.5243  -21.0534  -15.4298 C   0  0  0  0  0  0  0  0  0  0  0  0
   26.5031  -21.2339  -14.1992 O   0  0  0  0  0  0  0  0  0  0  0  0
   26.3158  -15.7511  -16.8066 C   0  0  0  0  0  0  0  0  0  0  0  0
   26.3066  -16.9966  -15.9548 C   0  0  1  0  0  0  0  0  0  0  0  0
   26.7437  -16.7919  -14.5427 C   0  0  0  0  0  0  0  0  0  0  0  0
   25.0086  -17.7418  -16.0158 C   0  0  0  0  0  0  0  0  0  0  0  0
   25.0005  -19.0949  -15.4191 C   0  0  2  0  0  0  0  0  0  0  0  0
   25.8386  -20.0215  -16.1207 N   0  0  0  0  0  0  0  0  0  0  0  0
   23.6331  -19.6807  -15.3064 C   0  0  0  0  0  0  0  0  0  0  0  0
   23.1506  -20.3233  -16.2704 O   0  0  0  0  0  0  0  0  0  0  0  0
   20.2162  -23.1359   -9.4288 N   0  0  0  0  0  0  0  0  0  0  0  0
   19.3880  -23.5147  -10.5124 C   0  0  0  0  0  0  0  0  0  0  0  0
   19.1874  -24.7399  -10.7591 N   0  0  0  0  0  0  0  0  0  0  0  0
   18.7880  -22.5220  -11.3182 N   0  0  0  0  0  0  0  0  0  0  0  0
   19.5099  -22.1535  -12.5706 C   0  0  0  0  0  0  0  0  0  0  0  0
   20.7488  -21.4882  -12.1181 C   0  0  0  0  0  0  0  0  0  0  0  0
   21.1738  -20.2358  -12.7015 C   0  0  0  0  0  0  0  0  0  0  0  0
   21.4286  -20.0788  -14.1547 C   0  0  2  0  0  0  0  0  0  0  0  0
   22.8467  -19.5489  -14.1612 N   0  0  0  0  0  0  0  0  0  0  0  0
   20.6731  -19.0613  -14.8876 C   0  0  0  0  0  0  0  0  0  0  0  0
   19.5932  -19.2559  -15.5096 O   0  0  0  0  0  0  0  0  0  0  0  0
   21.1874  -17.7373  -14.9079 O   0  0  0  0  0  0  0  0  0  0  0  0
  1  2  1  0
  3  2  1  0
  3  4  2  0
  6  5  1  1
  6  8  1  0
  7  6  1  0
  9  8  1  6
  9 10  1  0
 10  3  1  0
 11  9  1  0
 12 11  2  0
 13 14  1  0
 14 15  2  0
 16 14  1  0
 16 17  1  0
 17 18  1  0
 20 19  1  1
 19 18  1  0
 20 21  1  0
 21 11  1  0
 22 20  1  0
 23 22  2  0
 24 22  1  0
M  END
$$$$
