SPT.pdb
     RDKit          3D

 21 21  0  0  1  0  0  0  0  0999 V2000
   18.5299  -11.5990  -19.0890 O   0  0  0  0  0  0  0  0  0  0  0  0
   18.9364  -10.6504  -18.1324 C   0  0  0  0  0  0  0  0  0  0  0  0
   19.2509  -11.3853  -16.8339 C   0  0  2  0  0  0  0  0  0  0  0  0
   17.9447  -11.8770  -16.3290 N   0  0  0  0  0  0  0  0  0  0  0  0
   19.8097  -10.4768  -15.8062 C   0  0  0  0  0  0  0  0  0  0  0  0
   18.9690   -9.7110  -15.2223 O   0  0  0  0  0  0  0  0  0  0  0  0
   21.1830  -10.4335  -15.4657 N   0  0  0  0  0  0  0  0  0  0  0  0
   22.1638  -11.3199  -16.0337 C   0  0  0  0  0  0  0  0  0  0  0  0
   23.4811  -10.6955  -15.7524 C   0  0  0  0  0  0  0  0  0  0  0  0
   23.2376  -10.1156  -14.3579 C   0  0  0  0  0  0  0  0  0  0  0  0
   21.8208   -9.5652  -14.5406 C   0  0  1  0  0  0  0  0  0  0  0  0
   21.8774   -8.1495  -14.9941 C   0  0  0  0  0  0  0  0  0  0  0  0
   22.2682   -7.9263  -16.1690 O   0  0  0  0  0  0  0  0  0  0  0  0
   19.1478   -5.7829  -15.5324 C   0  0  0  0  0  0  0  0  0  0  0  0
   20.0989   -5.1201  -14.5579 C   0  0  1  0  0  0  0  0  0  0  0  0
   19.6140   -5.2207  -13.2766 O   0  0  0  0  0  0  0  0  0  0  0  0
   21.5040   -5.6701  -14.6956 C   0  0  2  0  0  0  0  0  0  0  0  0
   21.5227   -7.0307  -14.2019 N   0  0  0  0  0  0  0  0  0  0  0  0
   22.4024   -4.7799  -13.9353 C   0  0  0  0  0  0  0  0  0  0  0  0
   22.6560   -3.5188  -14.4533 O   0  0  0  0  0  0  0  0  0  0  0  0
   22.9535   -5.0892  -12.8483 O   0  0  0  0  0  0  0  0  0  0  0  0
  2  1  1  0
  3  2  1  0
  3  4  1  1
  3  5  1  0
  5  6  2  0
  7  5  1  0
  7 11  1  0
  8  7  1  0
  9  8  1  0
  9 10  1  0
 10 11  1  0
 11 12  1  6
 12 18  1  0
 12 13  2  0
 15 14  1  6
 15 17  1  0
 16 15  1  0
 17 19  1  0
 17 18  1  1
 19 20  1  0
 21 19  2  0
M  END
$$$$
