SPT.pdb
     RDKit          3D

 21 21  0  0  1  0  0  0  0  0999 V2000
   19.4931  -11.8711  -19.6291 O   0  0  0  0  0  0  0  0  0  0  0  0
   19.7679  -10.9128  -18.6362 C   0  0  0  0  0  0  0  0  0  0  0  0
   19.8267  -11.6237  -17.2886 C   0  0  2  0  0  0  0  0  0  0  0  0
   18.4328  -12.0440  -16.9997 N   0  0  0  0  0  0  0  0  0  0  0  0
   20.2492  -10.7118  -16.2006 C   0  0  0  0  0  0  0  0  0  0  0  0
   19.3496   -9.9199  -15.7559 O   0  0  0  0  0  0  0  0  0  0  0  0
   21.5581  -10.6921  -15.6621 N   0  0  0  0  0  0  0  0  0  0  0  0
   22.6009  -11.5848  -16.0935 C   0  0  0  0  0  0  0  0  0  0  0  0
   23.8701  -10.9826  -15.6132 C   0  0  0  0  0  0  0  0  0  0  0  0
   23.4318  -10.4173  -14.2609 C   0  0  0  0  0  0  0  0  0  0  0  0
   22.0637   -9.8448  -14.6409 C   0  0  1  0  0  0  0  0  0  0  0  0
   22.2031   -8.4243  -15.0602 C   0  0  0  0  0  0  0  0  0  0  0  0
   22.7846   -8.1902  -16.1510 O   0  0  0  0  0  0  0  0  0  0  0  0
   19.7832   -6.2156  -16.3139 C   0  0  0  0  0  0  0  0  0  0  0  0
   20.3513   -5.4978  -15.1074 C   0  0  1  0  0  0  0  0  0  0  0  0
   19.5123   -5.6417  -14.0293 O   0  0  0  0  0  0  0  0  0  0  0  0
   21.7666   -5.9498  -14.8106 C   0  0  2  0  0  0  0  0  0  0  0  0
   21.7286   -7.3123  -14.3231 N   0  0  0  0  0  0  0  0  0  0  0  0
   22.3312   -5.0108  -13.8221 C   0  0  0  0  0  0  0  0  0  0  0  0
   22.6671   -3.7373  -14.2561 O   0  0  0  0  0  0  0  0  0  0  0  0
   22.5280   -5.2889  -12.6118 O   0  0  0  0  0  0  0  0  0  0  0  0
  2  1  1  0
  3  2  1  0
  3  4  1  1
  3  5  1  0
  5  6  2  0
  7  5  1  0
  7 11  1  0
  8  7  1  0
  9  8  1  0
  9 10  1  0
 10 11  1  0
 11 12  1  6
 12 18  1  0
 12 13  2  0
 15 14  1  6
 15 17  1  0
 16 15  1  0
 17 19  1  0
 17 18  1  1
 19 20  1  0
 21 19  2  0
M  END
$$$$
