SPT.pdb
     RDKit          3D

 21 21  0  0  1  0  0  0  0  0999 V2000
   19.2355  -11.6229  -19.1073 O   0  0  0  0  0  0  0  0  0  0  0  0
   19.4368  -10.6202  -18.1408 C   0  0  0  0  0  0  0  0  0  0  0  0
   19.3179  -11.2562  -16.7601 C   0  0  2  0  0  0  0  0  0  0  0  0
   17.8654  -11.4747  -16.5468 N   0  0  0  0  0  0  0  0  0  0  0  0
   19.7910  -10.3475  -15.6904 C   0  0  0  0  0  0  0  0  0  0  0  0
   18.9384   -9.4953  -15.2650 O   0  0  0  0  0  0  0  0  0  0  0  0
   21.0982  -10.3924  -15.1490 N   0  0  0  0  0  0  0  0  0  0  0  0
   22.0754  -11.3772  -15.5305 C   0  0  0  0  0  0  0  0  0  0  0  0
   23.3839  -10.8421  -15.0770 C   0  0  0  0  0  0  0  0  0  0  0  0
   22.9865  -10.1789  -13.7569 C   0  0  0  0  0  0  0  0  0  0  0  0
   21.6622   -9.5318  -14.1705 C   0  0  1  0  0  0  0  0  0  0  0  0
   21.9014   -8.1479  -14.6612 C   0  0  0  0  0  0  0  0  0  0  0  0
   22.5467   -8.0099  -15.7324 O   0  0  0  0  0  0  0  0  0  0  0  0
   19.3731   -5.6682  -15.7104 C   0  0  0  0  0  0  0  0  0  0  0  0
   20.2325   -4.9981  -14.6589 C   0  0  1  0  0  0  0  0  0  0  0  0
   19.5775   -4.9770  -13.4516 O   0  0  0  0  0  0  0  0  0  0  0  0
   21.6009   -5.6424  -14.5700 C   0  0  2  0  0  0  0  0  0  0  0  0
   21.4557   -6.9706  -14.0129 N   0  0  0  0  0  0  0  0  0  0  0  0
   22.4466   -4.7678  -13.7349 C   0  0  0  0  0  0  0  0  0  0  0  0
   22.8373   -5.2400  -12.4909 O   0  0  0  0  0  0  0  0  0  0  0  0
   22.8367   -3.6223  -14.0765 O   0  0  0  0  0  0  0  0  0  0  0  0
  2  1  1  0
  3  2  1  0
  3  4  1  1
  3  5  1  0
  5  6  2  0
  7  5  1  0
  7 11  1  0
  8  7  1  0
  9  8  1  0
  9 10  1  0
 10 11  1  0
 11 12  1  6
 12 18  1  0
 12 13  2  0
 15 14  1  6
 15 17  1  0
 16 15  1  0
 17 19  1  0
 17 18  1  1
 19 20  1  0
 21 19  2  0
M  END
$$$$
