SPT.pdb
     RDKit          3D

 21 21  0  0  1  0  0  0  0  0999 V2000
   20.2997  -10.1820  -18.4743 O   0  0  0  0  0  0  0  0  0  0  0  0
   19.1045  -10.7727  -18.0243 C   0  0  0  0  0  0  0  0  0  0  0  0
   19.3826  -11.4590  -16.6914 C   0  0  2  0  0  0  0  0  0  0  0  0
   18.0959  -12.0789  -16.2873 N   0  0  0  0  0  0  0  0  0  0  0  0
   19.7570  -10.4881  -15.6374 C   0  0  0  0  0  0  0  0  0  0  0  0
   18.8211   -9.7184  -15.2301 O   0  0  0  0  0  0  0  0  0  0  0  0
   21.0595  -10.3916  -15.0914 N   0  0  0  0  0  0  0  0  0  0  0  0
   22.1377  -11.2674  -15.4665 C   0  0  0  0  0  0  0  0  0  0  0  0
   23.3799  -10.5943  -15.0103 C   0  0  0  0  0  0  0  0  0  0  0  0
   22.9091   -9.9737  -13.6937 C   0  0  0  0  0  0  0  0  0  0  0  0
   21.5248   -9.4729  -14.1138 C   0  0  1  0  0  0  0  0  0  0  0  0
   21.6166   -8.0727  -14.6081 C   0  0  0  0  0  0  0  0  0  0  0  0
   22.1161   -7.8857  -15.7476 O   0  0  0  0  0  0  0  0  0  0  0  0
   20.0120   -3.4015  -14.4623 C   0  0  0  0  0  0  0  0  0  0  0  0
   20.0075   -4.8286  -13.9556 C   0  0  1  0  0  0  0  0  0  0  0  0
   18.8372   -5.4554  -14.3087 O   0  0  0  0  0  0  0  0  0  0  0  0
   21.2370   -5.5836  -14.4179 C   0  0  2  0  0  0  0  0  0  0  0  0
   21.1820   -6.9312  -13.8919 N   0  0  0  0  0  0  0  0  0  0  0  0
   22.4177   -4.8378  -13.9409 C   0  0  0  0  0  0  0  0  0  0  0  0
   22.9569   -5.1937  -12.7138 O   0  0  0  0  0  0  0  0  0  0  0  0
   22.9676   -3.9006  -14.5736 O   0  0  0  0  0  0  0  0  0  0  0  0
  2  1  1  0
  3  2  1  0
  3  4  1  1
  3  5  1  0
  5  6  2  0
  7  5  1  0
  7 11  1  0
  8  7  1  0
  9  8  1  0
  9 10  1  0
 10 11  1  0
 11 12  1  6
 12 18  1  0
 12 13  2  0
 15 14  1  6
 15 17  1  0
 16 15  1  0
 17 19  1  0
 17 18  1  1
 19 20  1  0
 21 19  2  0
M  END
$$$$
