SPT.pdb
     RDKit          3D

 21 21  0  0  1  0  0  0  0  0999 V2000
   20.8934  -11.3572  -20.6050 O   0  0  0  0  0  0  0  0  0  0  0  0
   20.9357  -10.5559  -19.4491 C   0  0  0  0  0  0  0  0  0  0  0  0
   20.8681  -11.4702  -18.2307 C   0  0  2  0  0  0  0  0  0  0  0  0
   19.4799  -11.9945  -18.2036 N   0  0  0  0  0  0  0  0  0  0  0  0
   21.0855  -10.7261  -16.9687 C   0  0  0  0  0  0  0  0  0  0  0  0
   20.0596  -10.1361  -16.4853 O   0  0  0  0  0  0  0  0  0  0  0  0
   22.3369  -10.6525  -16.3109 N   0  0  0  0  0  0  0  0  0  0  0  0
   23.5040  -11.3666  -16.7562 C   0  0  0  0  0  0  0  0  0  0  0  0
   24.6554  -10.7152  -16.0825 C   0  0  0  0  0  0  0  0  0  0  0  0
   24.0500  -10.3939  -14.7148 C   0  0  0  0  0  0  0  0  0  0  0  0
   22.6613   -9.9126  -15.1433 C   0  0  1  0  0  0  0  0  0  0  0  0
   22.6742   -8.4402  -15.3555 C   0  0  0  0  0  0  0  0  0  0  0  0
   23.4208   -7.9857  -16.2604 O   0  0  0  0  0  0  0  0  0  0  0  0
   19.8452   -6.4108  -16.4680 C   0  0  0  0  0  0  0  0  0  0  0  0
   20.3551   -5.7606  -15.1988 C   0  0  1  0  0  0  0  0  0  0  0  0
   19.5437   -6.0850  -14.1388 O   0  0  0  0  0  0  0  0  0  0  0  0
   21.8094   -6.1032  -14.9475 C   0  0  2  0  0  0  0  0  0  0  0  0
   21.9068   -7.5087  -14.6150 N   0  0  0  0  0  0  0  0  0  0  0  0
   22.2862   -5.2297  -13.8579 C   0  0  0  0  0  0  0  0  0  0  0  0
   22.4635   -5.7952  -12.6042 O   0  0  0  0  0  0  0  0  0  0  0  0
   22.5426   -4.0059  -13.9908 O   0  0  0  0  0  0  0  0  0  0  0  0
  2  1  1  0
  3  2  1  0
  3  4  1  1
  3  5  1  0
  5  6  2  0
  7  5  1  0
  7 11  1  0
  8  7  1  0
  9  8  1  0
  9 10  1  0
 10 11  1  0
 11 12  1  6
 12 18  1  0
 12 13  2  0
 15 14  1  6
 15 17  1  0
 16 15  1  0
 17 19  1  0
 17 18  1  1
 19 20  1  0
 21 19  2  0
M  END
$$$$
