SPT.pdb
     RDKit          3D

 21 21  0  0  1  0  0  0  0  0999 V2000
   21.2963  -23.1481  -15.2124 O   0  0  0  0  0  0  0  0  0  0  0  0
   20.3991  -22.6434  -14.2531 C   0  0  0  0  0  0  0  0  0  0  0  0
   21.1730  -22.3818  -12.9656 C   0  0  2  0  0  0  0  0  0  0  0  0
   20.1742  -21.8573  -12.0010 N   0  0  0  0  0  0  0  0  0  0  0  0
   22.2071  -21.3368  -13.1450 C   0  0  0  0  0  0  0  0  0  0  0  0
   21.7767  -20.1370  -13.2414 O   0  0  0  0  0  0  0  0  0  0  0  0
   23.5940  -21.6132  -13.2089 N   0  0  0  0  0  0  0  0  0  0  0  0
   24.1490  -22.9185  -12.9672 C   0  0  0  0  0  0  0  0  0  0  0  0
   25.5237  -22.8808  -13.5265 C   0  0  0  0  0  0  0  0  0  0  0  0
   25.9440  -21.4531  -13.1727 C   0  0  0  0  0  0  0  0  0  0  0  0
   24.6476  -20.7051  -13.4944 C   0  0  1  0  0  0  0  0  0  0  0  0
   24.6647  -20.2376  -14.9066 C   0  0  0  0  0  0  0  0  0  0  0  0
   24.4224  -21.0832  -15.8062 O   0  0  0  0  0  0  0  0  0  0  0  0
   24.0604  -16.5895  -18.1470 C   0  0  0  0  0  0  0  0  0  0  0  0
   24.1707  -17.1134  -16.7304 C   0  0  1  0  0  0  0  0  0  0  0  0
   22.9340  -17.1329  -16.1326 O   0  0  0  0  0  0  0  0  0  0  0  0
   24.8597  -18.4621  -16.6915 C   0  0  2  0  0  0  0  0  0  0  0  0
   24.9328  -18.9090  -15.3165 N   0  0  0  0  0  0  0  0  0  0  0  0
   26.1920  -18.2944  -17.3034 C   0  0  0  0  0  0  0  0  0  0  0  0
   26.3942  -18.8205  -18.5704 O   0  0  0  0  0  0  0  0  0  0  0  0
   27.1567  -17.7059  -16.7519 O   0  0  0  0  0  0  0  0  0  0  0  0
  2  1  1  0
  3  2  1  0
  3  4  1  1
  3  5  1  0
  5  6  2  0
  7  5  1  0
  7 11  1  0
  8  7  1  0
  9  8  1  0
  9 10  1  0
 10 11  1  0
 11 12  1  6
 12 18  1  0
 12 13  2  0
 15 14  1  6
 15 17  1  0
 16 15  1  0
 17 19  1  0
 17 18  1  1
 19 20  1  0
 21 19  2  0
M  END
$$$$
