SPT.pdb
     RDKit          3D

 21 21  0  0  1  0  0  0  0  0999 V2000
   40.0200  -11.7349   -8.8204 O   0  0  0  0  0  0  0  0  0  0  0  0
   39.6267  -10.3840   -8.8048 C   0  0  0  0  0  0  0  0  0  0  0  0
   40.8832   -9.5201   -8.8149 C   0  0  2  0  0  0  0  0  0  0  0  0
   41.5223   -9.7325   -7.4922 N   0  0  0  0  0  0  0  0  0  0  0  0
   40.5617   -8.0785   -8.9253 C   0  0  0  0  0  0  0  0  0  0  0  0
   40.3370   -7.4711   -7.8231 O   0  0  0  0  0  0  0  0  0  0  0  0
   40.4997   -7.3842  -10.1574 N   0  0  0  0  0  0  0  0  0  0  0  0
   40.8098   -7.9956  -11.4225 C   0  0  0  0  0  0  0  0  0  0  0  0
   40.2354   -7.0967  -12.4550 C   0  0  0  0  0  0  0  0  0  0  0  0
   40.5030   -5.7260  -11.8306 C   0  0  0  0  0  0  0  0  0  0  0  0
   40.1522   -6.0241  -10.3705 C   0  0  1  0  0  0  0  0  0  0  0  0
   38.7155   -5.7300  -10.1202 C   0  0  0  0  0  0  0  0  0  0  0  0
   37.8694   -6.2376  -10.9008 O   0  0  0  0  0  0  0  0  0  0  0  0
   36.6208   -5.9663   -6.8185 C   0  0  0  0  0  0  0  0  0  0  0  0
   36.5069   -4.5785   -7.4138 C   0  0  1  0  0  0  0  0  0  0  0  0
   37.2817   -3.6920   -6.7060 O   0  0  0  0  0  0  0  0  0  0  0  0
   36.8292   -4.5834   -8.8942 C   0  0  2  0  0  0  0  0  0  0  0  0
   38.2264   -4.9208   -9.0662 N   0  0  0  0  0  0  0  0  0  0  0  0
   36.5014   -3.2446   -9.4213 C   0  0  0  0  0  0  0  0  0  0  0  0
   35.1627   -2.8957   -9.5170 O   0  0  0  0  0  0  0  0  0  0  0  0
   37.3558   -2.3988   -9.7895 O   0  0  0  0  0  0  0  0  0  0  0  0
  2  1  1  0
  3  2  1  0
  3  4  1  1
  3  5  1  0
  5  6  2  0
  7  5  1  0
  7 11  1  0
  8  7  1  0
  9  8  1  0
  9 10  1  0
 10 11  1  0
 11 12  1  6
 12 18  1  0
 12 13  2  0
 15 14  1  1
 15 17  1  0
 16 15  1  0
 17 19  1  0
 17 18  1  1
 19 20  1  0
 21 19  2  0
M  END
$$$$
