SPT.pdb
     RDKit          3D

 21 21  0  0  1  0  0  0  0  0999 V2000
   10.8921  -24.5736   -9.1654 O   0  0  0  0  0  0  0  0  0  0  0  0
   11.4712  -24.2698   -7.9195 C   0  0  0  0  0  0  0  0  0  0  0  0
   12.6637  -23.3499   -8.1581 C   0  0  2  0  0  0  0  0  0  0  0  0
   13.7089  -24.2054   -8.7735 N   0  0  0  0  0  0  0  0  0  0  0  0
   13.2151  -22.8197   -6.8898 C   0  0  0  0  0  0  0  0  0  0  0  0
   14.2278  -23.4416   -6.4188 O   0  0  0  0  0  0  0  0  0  0  0  0
   12.6802  -21.6962   -6.2149 N   0  0  0  0  0  0  0  0  0  0  0  0
   11.5602  -20.9401   -6.7090 C   0  0  0  0  0  0  0  0  0  0  0  0
   11.0671  -20.1498   -5.5530 C   0  0  0  0  0  0  0  0  0  0  0  0
   12.3837  -19.7910   -4.8615 C   0  0  0  0  0  0  0  0  0  0  0  0
   13.1278  -21.1222   -4.9957 C   0  0  1  0  0  0  0  0  0  0  0  0
   12.8677  -21.9750   -3.8049 C   0  0  0  0  0  0  0  0  0  0  0  0
   11.7305  -22.5031   -3.7002 O   0  0  0  0  0  0  0  0  0  0  0  0
   15.1739  -24.9047   -2.2334 C   0  0  0  0  0  0  0  0  0  0  0  0
   14.8220  -23.8045   -1.2540 C   0  0  1  0  0  0  0  0  0  0  0  0
   15.8776  -22.9368   -1.1135 O   0  0  0  0  0  0  0  0  0  0  0  0
   13.5378  -23.1034   -1.6477 C   0  0  2  0  0  0  0  0  0  0  0  0
   13.8058  -22.2393   -2.7777 N   0  0  0  0  0  0  0  0  0  0  0  0
   13.0621  -22.3584   -0.4660 C   0  0  0  0  0  0  0  0  0  0  0  0
   12.5502  -23.0873    0.5969 O   0  0  0  0  0  0  0  0  0  0  0  0
   13.0901  -21.1059   -0.3589 O   0  0  0  0  0  0  0  0  0  0  0  0
  2  1  1  0
  3  2  1  0
  3  4  1  1
  3  5  1  0
  5  6  2  0
  7  5  1  0
  7 11  1  0
  8  7  1  0
  9  8  1  0
  9 10  1  0
 10 11  1  0
 11 12  1  1
 12 18  1  0
 12 13  2  0
 15 14  1  6
 15 17  1  0
 16 15  1  0
 17 19  1  0
 17 18  1  6
 19 20  1  0
 21 19  2  0
M  END
$$$$
