SPT.pdb
     RDKit          3D

 21 21  0  0  1  0  0  0  0  0999 V2000
   12.0052  -21.8361    1.8213 O   0  0  0  0  0  0  0  0  0  0  0  0
   12.0085  -20.7378    0.9417 C   0  0  0  0  0  0  0  0  0  0  0  0
   13.2848  -20.7956    0.1094 C   0  0  2  0  0  0  0  0  0  0  0  0
   13.1852  -22.0455   -0.6848 N   0  0  0  0  0  0  0  0  0  0  0  0
   14.4936  -20.9050    0.9582 C   0  0  0  0  0  0  0  0  0  0  0  0
   15.1020  -22.0286    0.9201 O   0  0  0  0  0  0  0  0  0  0  0  0
   14.9744  -19.8513    1.7721 N   0  0  0  0  0  0  0  0  0  0  0  0
   14.3383  -18.5631    1.8501 C   0  0  0  0  0  0  0  0  0  0  0  0
   14.8763  -17.9225    3.0766 C   0  0  0  0  0  0  0  0  0  0  0  0
   16.3284  -18.4028    3.0441 C   0  0  0  0  0  0  0  0  0  0  0  0
   16.1198  -19.8564    2.6114 C   0  0  1  0  0  0  0  0  0  0  0  0
   15.9781  -20.7300    3.8072 C   0  0  0  0  0  0  0  0  0  0  0  0
   14.8627  -20.7497    4.3889 O   0  0  0  0  0  0  0  0  0  0  0  0
   17.3500  -24.5257    4.2026 C   0  0  0  0  0  0  0  0  0  0  0  0
   17.7727  -23.6043    5.3277 C   0  0  1  0  0  0  0  0  0  0  0  0
   19.0775  -23.2104    5.1555 O   0  0  0  0  0  0  0  0  0  0  0  0
   16.8227  -22.4326    5.4696 C   0  0  2  0  0  0  0  0  0  0  0  0
   17.0060  -21.5442    4.3415 N   0  0  0  0  0  0  0  0  0  0  0  0
   17.1190  -21.7784    6.7588 C   0  0  0  0  0  0  0  0  0  0  0  0
   16.7782  -22.4531    7.9214 O   0  0  0  0  0  0  0  0  0  0  0  0
   17.6602  -20.6492    6.8731 O   0  0  0  0  0  0  0  0  0  0  0  0
  2  1  1  0
  3  2  1  0
  3  4  1  6
  3  5  1  0
  5  6  2  0
  7  5  1  0
  7 11  1  0
  8  7  1  0
  9  8  1  0
  9 10  1  0
 10 11  1  0
 11 12  1  1
 12 18  1  0
 12 13  2  0
 15 14  1  6
 15 17  1  0
 16 15  1  0
 17 19  1  0
 17 18  1  6
 19 20  1  0
 21 19  2  0
M  END
$$$$
