SPT.pdb
     RDKit          3D

 21 21  0  0  1  0  0  0  0  0999 V2000
   13.6343  -12.1885  -15.2140 O   0  0  0  0  0  0  0  0  0  0  0  0
   14.9387  -11.6630  -15.1668 C   0  0  0  0  0  0  0  0  0  0  0  0
   15.7730  -12.3573  -16.2378 C   0  0  2  0  0  0  0  0  0  0  0  0
   16.0170  -13.7285  -15.7249 N   0  0  0  0  0  0  0  0  0  0  0  0
   17.0929  -11.7094  -16.4163 C   0  0  0  0  0  0  0  0  0  0  0  0
   17.9795  -11.9999  -15.5424 O   0  0  0  0  0  0  0  0  0  0  0  0
   17.3895  -10.8202  -17.4771 N   0  0  0  0  0  0  0  0  0  0  0  0
   16.4322  -10.4501  -18.4855 C   0  0  0  0  0  0  0  0  0  0  0  0
   16.9797   -9.2305  -19.1314 C   0  0  0  0  0  0  0  0  0  0  0  0
   18.4759   -9.5495  -19.1366 C   0  0  0  0  0  0  0  0  0  0  0  0
   18.6224  -10.1685  -17.7441 C   0  0  1  0  0  0  0  0  0  0  0  0
   18.9671   -9.1159  -16.7510 C   0  0  0  0  0  0  0  0  0  0  0  0
   18.0224   -8.4583  -16.2431 O   0  0  0  0  0  0  0  0  0  0  0  0
   21.2500   -9.5659  -13.5587 C   0  0  0  0  0  0  0  0  0  0  0  0
   21.7170   -8.4214  -14.4337 C   0  0  1  0  0  0  0  0  0  0  0  0
   22.7910   -8.8124  -15.1956 O   0  0  0  0  0  0  0  0  0  0  0  0
   20.5815   -7.8635  -15.2673 C   0  0  2  0  0  0  0  0  0  0  0  0
   20.2816   -8.7977  -16.3317 N   0  0  0  0  0  0  0  0  0  0  0  0
   21.0129   -6.5468  -15.7750 C   0  0  0  0  0  0  0  0  0  0  0  0
   21.1555   -5.5143  -14.8603 O   0  0  0  0  0  0  0  0  0  0  0  0
   21.2599   -6.2987  -16.9827 O   0  0  0  0  0  0  0  0  0  0  0  0
  2  1  1  0
  3  2  1  0
  3  4  1  1
  3  5  1  0
  5  6  2  0
  7  5  1  0
  7 11  1  0
  8  7  1  0
  9  8  1  0
  9 10  1  0
 10 11  1  0
 11 12  1  1
 12 18  1  0
 12 13  2  0
 15 14  1  6
 15 17  1  0
 16 15  1  0
 17 19  1  0
 17 18  1  6
 19 20  1  0
 21 19  2  0
M  END
$$$$
