SPT.pdb
     RDKit          3D

 21 21  0  0  1  0  0  0  0  0999 V2000
   19.7967   -9.9910  -18.8761 O   0  0  0  0  0  0  0  0  0  0  0  0
   18.7613  -10.6713  -18.2089 C   0  0  0  0  0  0  0  0  0  0  0  0
   19.3776  -11.4935  -17.0823 C   0  0  2  0  0  0  0  0  0  0  0  0
   18.2473  -12.2297  -16.4631 N   0  0  0  0  0  0  0  0  0  0  0  0
   19.9743  -10.6343  -16.0338 C   0  0  0  0  0  0  0  0  0  0  0  0
   19.1647   -9.8560  -15.4230 O   0  0  0  0  0  0  0  0  0  0  0  0
   21.3503  -10.6487  -15.7017 N   0  0  0  0  0  0  0  0  0  0  0  0
   22.2947  -11.5566  -16.2967 C   0  0  0  0  0  0  0  0  0  0  0  0
   23.6355  -10.9872  -16.0101 C   0  0  0  0  0  0  0  0  0  0  0  0
   23.4216  -10.4314  -14.6010 C   0  0  0  0  0  0  0  0  0  0  0  0
   22.0247   -9.8259  -14.7613 C   0  0  1  0  0  0  0  0  0  0  0  0
   22.1301   -8.4030  -15.1823 C   0  0  0  0  0  0  0  0  0  0  0  0
   22.5976   -8.1639  -16.3256 O   0  0  0  0  0  0  0  0  0  0  0  0
   19.4129   -5.7623  -14.0801 C   0  0  0  0  0  0  0  0  0  0  0  0
   20.3826   -5.4803  -15.2087 C   0  0  1  0  0  0  0  0  0  0  0  0
   20.3196   -4.1567  -15.5707 O   0  0  0  0  0  0  0  0  0  0  0  0
   21.7876   -5.9228  -14.8543 C   0  0  2  0  0  0  0  0  0  0  0  0
   21.7421   -7.2939  -14.3921 N   0  0  0  0  0  0  0  0  0  0  0  0
   22.2956   -4.9954  -13.8250 C   0  0  0  0  0  0  0  0  0  0  0  0
   22.7127   -3.7379  -14.2347 O   0  0  0  0  0  0  0  0  0  0  0  0
   22.3753   -5.2698  -12.6005 O   0  0  0  0  0  0  0  0  0  0  0  0
  2  1  1  0
  3  2  1  0
  3  4  1  1
  3  5  1  0
  5  6  2  0
  7  5  1  0
  7 11  1  0
  8  7  1  0
  9  8  1  0
  9 10  1  0
 10 11  1  0
 11 12  1  6
 12 18  1  0
 12 13  2  0
 15 14  1  1
 15 17  1  0
 16 15  1  0
 17 19  1  0
 17 18  1  1
 19 20  1  0
 21 19  2  0
M  END
$$$$
