SPT.pdb
     RDKit          3D

 21 21  0  0  1  0  0  0  0  0999 V2000
   25.6047  -13.5706  -15.9747 O   0  0  0  0  0  0  0  0  0  0  0  0
   25.0187  -12.2919  -16.0129 C   0  0  0  0  0  0  0  0  0  0  0  0
   23.8257  -12.3407  -16.9613 C   0  0  2  0  0  0  0  0  0  0  0  0
   24.3981  -12.5914  -18.3076 N   0  0  0  0  0  0  0  0  0  0  0  0
   23.1113  -11.0445  -17.0179 C   0  0  0  0  0  0  0  0  0  0  0  0
   23.6603  -10.1357  -17.7297 O   0  0  0  0  0  0  0  0  0  0  0  0
   21.8944  -10.7932  -16.3398 N   0  0  0  0  0  0  0  0  0  0  0  0
   21.2234  -11.7787  -15.5343 C   0  0  0  0  0  0  0  0  0  0  0  0
   20.2597  -11.0235  -14.6946 C   0  0  0  0  0  0  0  0  0  0  0  0
   19.7991   -9.9450  -15.6769 C   0  0  0  0  0  0  0  0  0  0  0  0
   21.1362   -9.5926  -16.3338 C   0  0  1  0  0  0  0  0  0  0  0  0
   21.7901   -8.4788  -15.5956 C   0  0  0  0  0  0  0  0  0  0  0  0
   22.5254   -8.7759  -14.6189 O   0  0  0  0  0  0  0  0  0  0  0  0
   23.3262   -3.7468  -15.6745 C   0  0  0  0  0  0  0  0  0  0  0  0
   22.4922   -4.8741  -16.2463 C   0  0  1  0  0  0  0  0  0  0  0  0
   22.9487   -5.2175  -17.4956 O   0  0  0  0  0  0  0  0  0  0  0  0
   22.4359   -6.0557  -15.2997 C   0  0  2  0  0  0  0  0  0  0  0  0
   21.6483   -7.1055  -15.9104 N   0  0  0  0  0  0  0  0  0  0  0  0
   21.8539   -5.5769  -14.0309 C   0  0  0  0  0  0  0  0  0  0  0  0
   20.5191   -5.8595  -13.7828 O   0  0  0  0  0  0  0  0  0  0  0  0
   22.4882   -4.9294  -13.1595 O   0  0  0  0  0  0  0  0  0  0  0  0
  2  1  1  0
  3  2  1  0
  3  4  1  6
  3  5  1  0
  5  6  2  0
  7  5  1  0
  7 11  1  0
  8  7  1  0
  9  8  1  0
  9 10  1  0
 10 11  1  0
 11 12  1  1
 12 18  1  0
 12 13  2  0
 15 14  1  1
 15 17  1  0
 16 15  1  0
 17 19  1  0
 17 18  1  6
 19 20  1  0
 21 19  2  0
M  END
$$$$
