SPT.pdb
     RDKit          3D

 21 21  0  0  1  0  0  0  0  0999 V2000
   27.2973  -18.6900  -15.1957 O   0  0  0  0  0  0  0  0  0  0  0  0
   27.6574  -19.7740  -16.0174 C   0  0  0  0  0  0  0  0  0  0  0  0
   27.6576  -21.0394  -15.1666 C   0  0  2  0  0  0  0  0  0  0  0  0
   28.0183  -22.1414  -16.0932 N   0  0  0  0  0  0  0  0  0  0  0  0
   26.3131  -21.3399  -14.6227 C   0  0  0  0  0  0  0  0  0  0  0  0
   25.4326  -21.6971  -15.4779 O   0  0  0  0  0  0  0  0  0  0  0  0
   25.9885  -21.2490  -13.2479 N   0  0  0  0  0  0  0  0  0  0  0  0
   26.9371  -20.8589  -12.2387 C   0  0  0  0  0  0  0  0  0  0  0  0
   26.1296  -20.4907  -11.0486 C   0  0  0  0  0  0  0  0  0  0  0  0
   25.0080  -21.5283  -11.1242 C   0  0  0  0  0  0  0  0  0  0  0  0
   24.7390  -21.5221  -12.6313 C   0  0  1  0  0  0  0  0  0  0  0  0
   23.6833  -20.5259  -12.9575 C   0  0  0  0  0  0  0  0  0  0  0  0
   23.9624  -19.3079  -12.8108 O   0  0  0  0  0  0  0  0  0  0  0  0
   22.7128  -19.2983  -15.8957 C   0  0  0  0  0  0  0  0  0  0  0  0
   21.3894  -19.7868  -15.3448 C   0  0  1  0  0  0  0  0  0  0  0  0
   21.0458  -20.9843  -15.9237 O   0  0  0  0  0  0  0  0  0  0  0  0
   21.4114  -19.8546  -13.8314 C   0  0  2  0  0  0  0  0  0  0  0  0
   22.3848  -20.8452  -13.4230 N   0  0  0  0  0  0  0  0  0  0  0  0
   20.0447  -20.1867  -13.3850 C   0  0  0  0  0  0  0  0  0  0  0  0
   19.8344  -21.4323  -12.8128 O   0  0  0  0  0  0  0  0  0  0  0  0
   19.0575  -19.4149  -13.4890 O   0  0  0  0  0  0  0  0  0  0  0  0
  2  1  1  0
  3  2  1  0
  3  4  1  6
  3  5  1  0
  5  6  2  0
  7  5  1  0
  7 11  1  0
  8  7  1  0
  9  8  1  0
  9 10  1  0
 10 11  1  0
 11 12  1  1
 12 18  1  0
 12 13  2  0
 15 14  1  6
 15 17  1  0
 16 15  1  0
 17 19  1  0
 17 18  1  6
 19 20  1  0
 21 19  2  0
M  END
$$$$
