SPT.pdb
     RDKit          3D

 21 21  0  0  1  0  0  0  0  0999 V2000
   19.3986  -11.6685  -19.3174 O   0  0  0  0  0  0  0  0  0  0  0  0
   19.5703  -10.8060  -18.2190 C   0  0  0  0  0  0  0  0  0  0  0  0
   19.8310  -11.6557  -16.9800 C   0  0  2  0  0  0  0  0  0  0  0  0
   18.5205  -12.2568  -16.6273 N   0  0  0  0  0  0  0  0  0  0  0  0
   20.2659  -10.8334  -15.8274 C   0  0  0  0  0  0  0  0  0  0  0  0
   19.3510  -10.1496  -15.2533 O   0  0  0  0  0  0  0  0  0  0  0  0
   21.6022  -10.7846  -15.3628 N   0  0  0  0  0  0  0  0  0  0  0  0
   22.6352  -11.6644  -15.8415 C   0  0  0  0  0  0  0  0  0  0  0  0
   23.9181  -11.0347  -15.4392 C   0  0  0  0  0  0  0  0  0  0  0  0
   23.5453  -10.4607  -14.0711 C   0  0  0  0  0  0  0  0  0  0  0  0
   22.1484   -9.9165  -14.3808 C   0  0  1  0  0  0  0  0  0  0  0  0
   22.2389   -8.4990  -14.8230 C   0  0  0  0  0  0  0  0  0  0  0  0
   22.7859   -8.2654  -15.9317 O   0  0  0  0  0  0  0  0  0  0  0  0
   19.7560   -6.3116  -16.0276 C   0  0  0  0  0  0  0  0  0  0  0  0
   20.3562   -5.5788  -14.8460 C   0  0  1  0  0  0  0  0  0  0  0  0
   19.5459   -5.7082  -13.7443 O   0  0  0  0  0  0  0  0  0  0  0  0
   21.7787   -6.0280  -14.5810 C   0  0  2  0  0  0  0  0  0  0  0  0
   21.7539   -7.3893  -14.0893 N   0  0  0  0  0  0  0  0  0  0  0  0
   22.3647   -5.0857  -13.6083 C   0  0  0  0  0  0  0  0  0  0  0  0
   22.7051   -3.8186  -14.0575 O   0  0  0  0  0  0  0  0  0  0  0  0
   22.5759   -5.3554  -12.3985 O   0  0  0  0  0  0  0  0  0  0  0  0
  2  1  1  0
  3  2  1  0
  3  4  1  1
  3  5  1  0
  5  6  2  0
  7  5  1  0
  7 11  1  0
  8  7  1  0
  9  8  1  0
  9 10  1  0
 10 11  1  0
 11 12  1  6
 12 18  1  0
 12 13  2  0
 15 14  1  6
 15 17  1  0
 16 15  1  0
 17 19  1  0
 17 18  1  1
 19 20  1  0
 21 19  2  0
M  END
$$$$
