GTA.pdb
     RDKit          3D

 17 16  0  0  1  0  0  0  0  0999 V2000
   19.8310  -11.5671  -19.2281 N   0  0  0  0  0  0  0  0  0  0  0  0
   20.3128  -10.2421  -19.0039 C   0  0  0  0  0  0  0  0  0  0  0  0
   20.2410   -9.9341  -17.5588 C   0  0  0  0  0  0  0  0  0  0  0  0
   19.1732  -10.0644  -16.8922 O   0  0  0  0  0  0  0  0  0  0  0  0
   22.2040   -9.5234  -13.2276 C   0  0  0  0  0  0  0  0  0  0  0  0
   22.2827   -9.9159  -14.6778 C   0  0  1  0  0  0  0  0  0  0  0  0
   22.0301  -11.2585  -14.7892 O   0  0  0  0  0  0  0  0  0  0  0  0
   21.2951   -9.0994  -15.4844 C   0  0  2  0  0  0  0  0  0  0  0  0
   21.3842   -9.4810  -16.8859 N   0  0  0  0  0  0  0  0  0  0  0  0
   21.6869   -7.6564  -15.3644 C   0  0  0  0  0  0  0  0  0  0  0  0
   22.8204   -7.3390  -15.8175 O   0  0  0  0  0  0  0  0  0  0  0  0
   19.9853   -4.4006  -14.5810 C   0  0  0  0  0  0  0  0  0  0  0  0
   21.1678   -5.2980  -14.6275 C   0  0  2  0  0  0  0  0  0  0  0  0
   20.8452   -6.6794  -14.7777 N   0  0  0  0  0  0  0  0  0  0  0  0
   22.1563   -5.0554  -13.5242 C   0  0  0  0  0  0  0  0  0  0  0  0
   22.1111   -5.7892  -12.4789 O   0  0  0  0  0  0  0  0  0  0  0  0
   23.1331   -4.0905  -13.5253 O   0  0  0  0  0  0  0  0  0  0  0  0
  2  1  1  0
  3  2  1  0
  4  3  2  0
  6  5  1  1
  6  8  1  0
  7  6  1  0
  8  9  1  6
  9  3  1  0
 10  8  1  0
 10 14  1  0
 11 10  2  0
 13 12  1  1
 13 14  1  0
 13 15  1  0
 15 17  1  0
 16 15  2  0
M  END
$$$$
