GTA.pdb
     RDKit          3D

 17 16  0  0  1  0  0  0  0  0999 V2000
   16.5429  -12.7959  -15.0314 N   0  0  0  0  0  0  0  0  0  0  0  0
   16.5132  -11.4245  -14.6360 C   0  0  0  0  0  0  0  0  0  0  0  0
   17.6588  -10.7151  -15.2465 C   0  0  0  0  0  0  0  0  0  0  0  0
   18.6488  -11.3295  -15.7403 O   0  0  0  0  0  0  0  0  0  0  0  0
   17.3633   -8.3157  -18.0405 C   0  0  0  0  0  0  0  0  0  0  0  0
   18.1153   -7.6052  -16.9482 C   0  0  1  0  0  0  0  0  0  0  0  0
   17.2550   -6.7648  -16.2905 O   0  0  0  0  0  0  0  0  0  0  0  0
   18.7272   -8.6185  -16.0041 C   0  0  2  0  0  0  0  0  0  0  0  0
   17.6673   -9.3140  -15.2895 N   0  0  0  0  0  0  0  0  0  0  0  0
   19.5565   -7.8703  -15.0029 C   0  0  0  0  0  0  0  0  0  0  0  0
   18.9799   -7.5274  -13.9347 O   0  0  0  0  0  0  0  0  0  0  0  0
   23.1854   -6.9979  -14.4915 C   0  0  0  0  0  0  0  0  0  0  0  0
   21.7266   -6.7526  -14.3580 C   0  0  2  0  0  0  0  0  0  0  0  0
   20.9201   -7.5531  -15.2203 N   0  0  0  0  0  0  0  0  0  0  0  0
   21.3498   -5.3003  -14.4032 C   0  0  0  0  0  0  0  0  0  0  0  0
   21.8462   -4.5038  -13.5358 O   0  0  0  0  0  0  0  0  0  0  0  0
   20.4949   -4.7250  -15.3107 O   0  0  0  0  0  0  0  0  0  0  0  0
  2  1  1  0
  3  2  1  0
  4  3  2  0
  6  5  1  6
  6  8  1  0
  7  6  1  0
  8  9  1  1
  9  3  1  0
 10  8  1  0
 10 14  1  0
 11 10  2  0
 13 12  1  6
 13 14  1  0
 13 15  1  0
 15 17  1  0
 16 15  2  0
M  END
$$$$
