GTA.pdb
     RDKit          3D

 17 16  0  0  1  0  0  0  0  0999 V2000
   19.4795  -12.8812  -17.0547 N   0  0  0  0  0  0  0  0  0  0  0  0
   20.4380  -12.0902  -16.3523 C   0  0  0  0  0  0  0  0  0  0  0  0
   20.0775  -10.6609  -16.4769 C   0  0  0  0  0  0  0  0  0  0  0  0
   19.6721  -10.1586  -17.5653 O   0  0  0  0  0  0  0  0  0  0  0  0
   17.3821   -8.8660  -15.2591 C   0  0  0  0  0  0  0  0  0  0  0  0
   18.5620   -8.1637  -14.6441 C   0  0  1  0  0  0  0  0  0  0  0  0
   18.7242   -8.6101  -13.3583 O   0  0  0  0  0  0  0  0  0  0  0  0
   19.8007   -8.4171  -15.4770 C   0  0  2  0  0  0  0  0  0  0  0  0
   20.1814   -9.8170  -15.3624 N   0  0  0  0  0  0  0  0  0  0  0  0
   20.9111   -7.5805  -14.9140 C   0  0  0  0  0  0  0  0  0  0  0  0
   21.5988   -8.0998  -13.9929 O   0  0  0  0  0  0  0  0  0  0  0  0
   22.5328   -4.2601  -15.7443 C   0  0  0  0  0  0  0  0  0  0  0  0
   22.2374   -5.4324  -14.8814 C   0  0  2  0  0  0  0  0  0  0  0  0
   21.1952   -6.2715  -15.3757 N   0  0  0  0  0  0  0  0  0  0  0  0
   22.0589   -5.0878  -13.4314 C   0  0  0  0  0  0  0  0  0  0  0  0
   20.8763   -4.9369  -12.9711 O   0  0  0  0  0  0  0  0  0  0  0  0
   23.0724   -4.9097  -12.5224 O   0  0  0  0  0  0  0  0  0  0  0  0
  2  1  1  0
  3  2  1  0
  4  3  2  0
  6  5  1  6
  6  8  1  0
  7  6  1  0
  8  9  1  1
  9  3  1  0
 10  8  1  0
 10 14  1  0
 11 10  2  0
 13 12  1  6
 13 14  1  0
 13 15  1  0
 15 17  1  0
 16 15  2  0
M  END
$$$$
