GTA.pdb
     RDKit          3D

 17 16  0  0  1  0  0  0  0  0999 V2000
   28.5310  -21.3073  -15.8901 N   0  0  0  0  0  0  0  0  0  0  0  0
   27.6835  -20.4396  -15.1374 C   0  0  0  0  0  0  0  0  0  0  0  0
   26.4687  -21.1777  -14.7277 C   0  0  0  0  0  0  0  0  0  0  0  0
   26.2211  -22.3503  -15.1341 O   0  0  0  0  0  0  0  0  0  0  0  0
   25.4963  -21.9218  -11.3323 C   0  0  0  0  0  0  0  0  0  0  0  0
   24.2694  -21.2869  -11.9281 C   0  0  1  0  0  0  0  0  0  0  0  0
   24.1562  -20.0062  -11.4526 O   0  0  0  0  0  0  0  0  0  0  0  0
   24.3631  -21.3087  -13.4391 C   0  0  2  0  0  0  0  0  0  0  0  0
   25.5474  -20.5751  -13.8599 N   0  0  0  0  0  0  0  0  0  0  0  0
   23.1559  -20.6046  -13.9838 C   0  0  0  0  0  0  0  0  0  0  0  0
   23.3271  -19.4239  -14.3934 O   0  0  0  0  0  0  0  0  0  0  0  0
   20.6986  -20.4486  -16.0472 C   0  0  0  0  0  0  0  0  0  0  0  0
   20.7000  -20.5987  -14.5696 C   0  0  2  0  0  0  0  0  0  0  0  0
   21.8774  -21.2118  -14.0476 N   0  0  0  0  0  0  0  0  0  0  0  0
   19.4429  -21.2088  -14.0213 C   0  0  0  0  0  0  0  0  0  0  0  0
   19.5249  -22.2778  -13.3259 O   0  0  0  0  0  0  0  0  0  0  0  0
   18.1730  -20.7186  -14.2014 O   0  0  0  0  0  0  0  0  0  0  0  0
  2  1  1  0
  3  2  1  0
  4  3  2  0
  6  5  1  1
  6  8  1  0
  7  6  1  0
  8  9  1  1
  9  3  1  0
 10  8  1  0
 10 14  1  0
 11 10  2  0
 13 12  1  6
 13 14  1  0
 13 15  1  0
 15 17  1  0
 16 15  2  0
M  END
$$$$
