GTA.pdb
     RDKit          3D

 17 16  0  0  1  0  0  0  0  0999 V2000
   17.0985  -11.7375  -15.8652 N   0  0  0  0  0  0  0  0  0  0  0  0
   17.5489  -10.8010  -14.8865 C   0  0  0  0  0  0  0  0  0  0  0  0
   18.3597   -9.7551  -15.5477 C   0  0  0  0  0  0  0  0  0  0  0  0
   19.0218   -9.9793  -16.6025 O   0  0  0  0  0  0  0  0  0  0  0  0
   17.1603   -6.8233  -17.1413 C   0  0  0  0  0  0  0  0  0  0  0  0
   18.1037   -6.3175  -16.0840 C   0  0  1  0  0  0  0  0  0  0  0  0
   17.3761   -5.9204  -14.9923 O   0  0  0  0  0  0  0  0  0  0  0  0
   19.0964   -7.4017  -15.7215 C   0  0  2  0  0  0  0  0  0  0  0  0
   18.4094   -8.4645  -15.0028 N   0  0  0  0  0  0  0  0  0  0  0  0
   20.1192   -6.7993  -14.8045 C   0  0  0  0  0  0  0  0  0  0  0  0
   19.8714   -6.8523  -13.5689 O   0  0  0  0  0  0  0  0  0  0  0  0
   23.6158   -5.3944  -15.1429 C   0  0  0  0  0  0  0  0  0  0  0  0
   22.3183   -5.6098  -14.4530 C   0  0  2  0  0  0  0  0  0  0  0  0
   21.3115   -6.1964  -15.2759 N   0  0  0  0  0  0  0  0  0  0  0  0
   21.8213   -4.4057  -13.7072 C   0  0  0  0  0  0  0  0  0  0  0  0
   20.9141   -3.6786  -14.2378 O   0  0  0  0  0  0  0  0  0  0  0  0
   22.2612   -3.9928  -12.4737 O   0  0  0  0  0  0  0  0  0  0  0  0
  2  1  1  0
  3  2  1  0
  4  3  2  0
  6  5  1  6
  6  8  1  0
  7  6  1  0
  8  9  1  1
  9  3  1  0
 10  8  1  0
 10 14  1  0
 11 10  2  0
 13 12  1  6
 13 14  1  0
 13 15  1  0
 15 17  1  0
 16 15  2  0
M  END
$$$$
