GTA.pdb
     RDKit          3D

 17 16  0  0  1  0  0  0  0  0999 V2000
   18.2293  -12.6038  -16.8245 N   0  0  0  0  0  0  0  0  0  0  0  0
   18.8718  -11.4013  -17.2475 C   0  0  0  0  0  0  0  0  0  0  0  0
   19.6034  -10.8105  -16.1055 C   0  0  0  0  0  0  0  0  0  0  0  0
   19.2968  -11.0615  -14.9037 O   0  0  0  0  0  0  0  0  0  0  0  0
   22.8303  -11.1042  -14.6988 C   0  0  0  0  0  0  0  0  0  0  0  0
   22.7491   -9.6614  -15.1172 C   0  0  1  0  0  0  0  0  0  0  0  0
   23.4069   -9.5068  -16.3098 O   0  0  0  0  0  0  0  0  0  0  0  0
   21.2990   -9.2403  -15.2277 C   0  0  2  0  0  0  0  0  0  0  0  0
   20.6767   -9.9402  -16.3416 N   0  0  0  0  0  0  0  0  0  0  0  0
   21.2695   -7.7696  -15.5213 C   0  0  0  0  0  0  0  0  0  0  0  0
   21.3022   -7.4352  -16.7370 O   0  0  0  0  0  0  0  0  0  0  0  0
   19.9848   -4.7149  -14.9399 C   0  0  0  0  0  0  0  0  0  0  0  0
   21.2948   -5.3774  -14.7143 C   0  0  2  0  0  0  0  0  0  0  0  0
   21.2068   -6.7855  -14.5040 N   0  0  0  0  0  0  0  0  0  0  0  0
   22.1499   -4.6951  -13.6865 C   0  0  0  0  0  0  0  0  0  0  0  0
   22.3771   -5.2873  -12.5771 O   0  0  0  0  0  0  0  0  0  0  0  0
   22.7277   -3.4570  -13.8230 O   0  0  0  0  0  0  0  0  0  0  0  0
  2  1  1  0
  3  2  1  0
  4  3  2  0
  6  5  1  6
  6  8  1  0
  7  6  1  0
  8  9  1  6
  9  3  1  0
 10  8  1  0
 10 14  1  0
 11 10  2  0
 13 12  1  1
 13 14  1  0
 13 15  1  0
 15 17  1  0
 16 15  2  0
M  END
$$$$
