GTA.pdb
     RDKit          3D

 17 16  0  0  1  0  0  0  0  0999 V2000
   33.6643   -7.6939  -16.8572 N   0  0  0  0  0  0  0  0  0  0  0  0
   32.2741   -7.7306  -16.5350 C   0  0  0  0  0  0  0  0  0  0  0  0
   31.5039   -8.1170  -17.7374 C   0  0  0  0  0  0  0  0  0  0  0  0
   31.9771   -8.0106  -18.9062 O   0  0  0  0  0  0  0  0  0  0  0  0
   30.4073  -11.2771  -18.8928 C   0  0  0  0  0  0  0  0  0  0  0  0
   29.1391  -10.4863  -18.7208 C   0  0  1  0  0  0  0  0  0  0  0  0
   28.5604  -10.8288  -17.5263 O   0  0  0  0  0  0  0  0  0  0  0  0
   29.4462   -9.0049  -18.7809 C   0  0  2  0  0  0  0  0  0  0  0  0
   30.2030   -8.6205  -17.5988 N   0  0  0  0  0  0  0  0  0  0  0  0
   28.1416   -8.2649  -18.7650 C   0  0  0  0  0  0  0  0  0  0  0  0
   27.7986   -7.7478  -17.6668 O   0  0  0  0  0  0  0  0  0  0  0  0
   25.5624   -7.1968  -21.3263 C   0  0  0  0  0  0  0  0  0  0  0  0
   26.0669   -7.4537  -19.9531 C   0  0  2  0  0  0  0  0  0  0  0  0
   27.3182   -8.1371  -19.9108 N   0  0  0  0  0  0  0  0  0  0  0  0
   25.0468   -8.0652  -19.0374 C   0  0  0  0  0  0  0  0  0  0  0  0
   24.1697   -7.3108  -18.4945 O   0  0  0  0  0  0  0  0  0  0  0  0
   24.9620   -9.3965  -18.7121 O   0  0  0  0  0  0  0  0  0  0  0  0
  2  1  1  0
  3  2  1  0
  4  3  2  0
  6  5  1  1
  6  8  1  0
  7  6  1  0
  8  9  1  1
  9  3  1  0
 10  8  1  0
 10 14  1  0
 11 10  2  0
 13 12  1  6
 13 14  1  0
 13 15  1  0
 15 17  1  0
 16 15  2  0
M  END
$$$$
