GTA.pdb
     RDKit          3D

 17 16  0  0  1  0  0  0  0  0999 V2000
   14.9660  -10.1175  -14.1990 N   0  0  0  0  0  0  0  0  0  0  0  0
   15.2799   -8.7484  -13.9442 C   0  0  0  0  0  0  0  0  0  0  0  0
   16.5771   -8.4191  -14.5744 C   0  0  0  0  0  0  0  0  0  0  0  0
   17.2705   -9.2837  -15.1852 O   0  0  0  0  0  0  0  0  0  0  0  0
   17.1463   -6.6101  -17.4107 C   0  0  0  0  0  0  0  0  0  0  0  0
   17.9352   -5.8457  -16.3827 C   0  0  1  0  0  0  0  0  0  0  0  0
   17.1963   -4.7690  -15.9659 O   0  0  0  0  0  0  0  0  0  0  0  0
   18.2865   -6.7560  -15.2250 C   0  0  2  0  0  0  0  0  0  0  0  0
   17.0730   -7.1098  -14.5038 N   0  0  0  0  0  0  0  0  0  0  0  0
   19.1799   -5.9906  -14.2944 C   0  0  0  0  0  0  0  0  0  0  0  0
   18.6130   -5.2155  -13.4766 O   0  0  0  0  0  0  0  0  0  0  0  0
   22.8630   -5.9621  -13.4243 C   0  0  0  0  0  0  0  0  0  0  0  0
   21.4906   -5.3959  -13.4688 C   0  0  2  0  0  0  0  0  0  0  0  0
   20.5912   -6.1143  -14.3113 N   0  0  0  0  0  0  0  0  0  0  0  0
   21.4534   -3.9161  -13.7178 C   0  0  0  0  0  0  0  0  0  0  0  0
   21.1742   -3.4916  -14.8904 O   0  0  0  0  0  0  0  0  0  0  0  0
   21.7009   -2.9425  -12.7818 O   0  0  0  0  0  0  0  0  0  0  0  0
  2  1  1  0
  3  2  1  0
  4  3  2  0
  6  5  1  6
  6  8  1  0
  7  6  1  0
  8  9  1  1
  9  3  1  0
 10  8  1  0
 10 14  1  0
 11 10  2  0
 13 12  1  6
 13 14  1  0
 13 15  1  0
 15 17  1  0
 16 15  2  0
M  END
$$$$
