GTA.pdb
     RDKit          3D

 17 16  0  0  1  0  0  0  0  0999 V2000
   18.6636  -12.2470  -16.6461 N   0  0  0  0  0  0  0  0  0  0  0  0
   18.8076  -10.8528  -16.9167 C   0  0  0  0  0  0  0  0  0  0  0  0
   19.6213  -10.2296  -15.8499 C   0  0  0  0  0  0  0  0  0  0  0  0
   19.4641  -10.5137  -14.6268 O   0  0  0  0  0  0  0  0  0  0  0  0
   22.9851  -10.5115  -14.8956 C   0  0  0  0  0  0  0  0  0  0  0  0
   22.8332   -9.0593  -15.2585 C   0  0  1  0  0  0  0  0  0  0  0  0
   23.2983   -8.8689  -16.5338 O   0  0  0  0  0  0  0  0  0  0  0  0
   21.3813   -8.6486  -15.1331 C   0  0  2  0  0  0  0  0  0  0  0  0
   20.6058   -9.2895  -16.1846 N   0  0  0  0  0  0  0  0  0  0  0  0
   21.3058   -7.1637  -15.3322 C   0  0  0  0  0  0  0  0  0  0  0  0
   21.0630   -6.7621  -16.5030 O   0  0  0  0  0  0  0  0  0  0  0  0
   21.2141   -4.1056  -13.1157 C   0  0  0  0  0  0  0  0  0  0  0  0
   21.4169   -4.8190  -14.4025 C   0  0  2  0  0  0  0  0  0  0  0  0
   21.4925   -6.2379  -14.2762 N   0  0  0  0  0  0  0  0  0  0  0  0
   22.5294   -4.2563  -15.2385 C   0  0  0  0  0  0  0  0  0  0  0  0
   23.7003   -4.7567  -15.1303 O   0  0  0  0  0  0  0  0  0  0  0  0
   22.4107   -3.2222  -16.1340 O   0  0  0  0  0  0  0  0  0  0  0  0
  2  1  1  0
  3  2  1  0
  4  3  2  0
  6  5  1  6
  6  8  1  0
  7  6  1  0
  8  9  1  6
  9  3  1  0
 10  8  1  0
 10 14  1  0
 11 10  2  0
 13 12  1  1
 13 14  1  0
 13 15  1  0
 15 17  1  0
 16 15  2  0
M  END
$$$$
