GTA.pdb
     RDKit          3D

 17 16  0  0  1  0  0  0  0  0999 V2000
   18.6354  -15.6578  -16.2474 N   0  0  0  0  0  0  0  0  0  0  0  0
   18.3967  -14.5300  -15.4054 C   0  0  0  0  0  0  0  0  0  0  0  0
   18.6674  -13.2887  -16.1632 C   0  0  0  0  0  0  0  0  0  0  0  0
   19.1097  -13.3034  -17.3487 O   0  0  0  0  0  0  0  0  0  0  0  0
   16.3385  -10.9002  -17.2887 C   0  0  0  0  0  0  0  0  0  0  0  0
   17.2936  -10.0954  -16.4498 C   0  0  1  0  0  0  0  0  0  0  0  0
   16.7330   -9.8844  -15.2169 O   0  0  0  0  0  0  0  0  0  0  0  0
   18.6165  -10.8233  -16.3379 C   0  0  2  0  0  0  0  0  0  0  0  0
   18.4325  -12.0427  -15.5653 N   0  0  0  0  0  0  0  0  0  0  0  0
   19.5677   -9.9341  -15.5932 C   0  0  0  0  0  0  0  0  0  0  0  0
   19.5752  -10.0412  -14.3364 O   0  0  0  0  0  0  0  0  0  0  0  0
   22.3425   -7.5187  -16.4943 C   0  0  0  0  0  0  0  0  0  0  0  0
   21.3403   -8.1362  -15.5887 C   0  0  2  0  0  0  0  0  0  0  0  0
   20.4257   -9.0133  -16.2437 N   0  0  0  0  0  0  0  0  0  0  0  0
   20.6494   -7.1531  -14.6890 C   0  0  0  0  0  0  0  0  0  0  0  0
   19.4781   -6.7464  -14.9986 O   0  0  0  0  0  0  0  0  0  0  0  0
   21.1690   -6.6281  -13.5315 O   0  0  0  0  0  0  0  0  0  0  0  0
  2  1  1  0
  3  2  1  0
  4  3  2  0
  6  5  1  6
  6  8  1  0
  7  6  1  0
  8  9  1  1
  9  3  1  0
 10  8  1  0
 10 14  1  0
 11 10  2  0
 13 12  1  6
 13 14  1  0
 13 15  1  0
 15 17  1  0
 16 15  2  0
M  END
$$$$
