GTA.pdb
     RDKit          3D

 17 16  0  0  1  0  0  0  0  0999 V2000
   19.3223  -13.1589  -17.6481 N   0  0  0  0  0  0  0  0  0  0  0  0
   19.6611  -11.8009  -17.9290 C   0  0  0  0  0  0  0  0  0  0  0  0
   20.1265  -11.1465  -16.6866 C   0  0  0  0  0  0  0  0  0  0  0  0
   19.6093  -11.3928  -15.5583 O   0  0  0  0  0  0  0  0  0  0  0  0
   23.0330  -11.3839  -14.7750 C   0  0  0  0  0  0  0  0  0  0  0  0
   23.0061   -9.9345  -15.1775 C   0  0  1  0  0  0  0  0  0  0  0  0
   23.8570   -9.7514  -16.2364 O   0  0  0  0  0  0  0  0  0  0  0  0
   21.5912   -9.5260  -15.5289 C   0  0  2  0  0  0  0  0  0  0  0  0
   21.1757  -10.2182  -16.7398 N   0  0  0  0  0  0  0  0  0  0  0  0
   21.5950   -8.0522  -15.8080 C   0  0  0  0  0  0  0  0  0  0  0  0
   21.8731   -7.7010  -16.9871 O   0  0  0  0  0  0  0  0  0  0  0  0
   20.0245   -5.0270  -15.1433 C   0  0  0  0  0  0  0  0  0  0  0  0
   21.3561   -5.6703  -15.0057 C   0  0  2  0  0  0  0  0  0  0  0  0
   21.3036   -7.0831  -14.8164 N   0  0  0  0  0  0  0  0  0  0  0  0
   22.2579   -4.9910  -14.0165 C   0  0  0  0  0  0  0  0  0  0  0  0
   22.5177   -5.5765  -12.9107 O   0  0  0  0  0  0  0  0  0  0  0  0
   22.8472   -3.7625  -14.1858 O   0  0  0  0  0  0  0  0  0  0  0  0
  2  1  1  0
  3  2  1  0
  4  3  2  0
  6  5  1  6
  6  8  1  0
  7  6  1  0
  8  9  1  6
  9  3  1  0
 10  8  1  0
 10 14  1  0
 11 10  2  0
 13 12  1  1
 13 14  1  0
 13 15  1  0
 15 17  1  0
 16 15  2  0
M  END
$$$$
