GTA.pdb
     RDKit          3D

 17 16  0  0  1  0  0  0  0  0999 V2000
   14.8739  -10.5801  -15.3055 N   0  0  0  0  0  0  0  0  0  0  0  0
   15.6921   -9.5655  -15.8877 C   0  0  0  0  0  0  0  0  0  0  0  0
   16.9621   -9.4704  -15.1350 C   0  0  0  0  0  0  0  0  0  0  0  0
   17.0711   -9.8717  -13.9399 O   0  0  0  0  0  0  0  0  0  0  0  0
   20.1468  -11.0079  -15.3564 C   0  0  0  0  0  0  0  0  0  0  0  0
   20.4297   -9.5454  -15.5677 C   0  0  1  0  0  0  0  0  0  0  0  0
   20.5693   -9.3093  -16.9107 O   0  0  0  0  0  0  0  0  0  0  0  0
   19.3107   -8.7157  -14.9745 C   0  0  2  0  0  0  0  0  0  0  0  0
   18.0957   -8.9198  -15.7490 N   0  0  0  0  0  0  0  0  0  0  0  0
   19.7018   -7.2719  -15.0854 C   0  0  0  0  0  0  0  0  0  0  0  0
   19.6643   -6.7632  -16.2390 O   0  0  0  0  0  0  0  0  0  0  0  0
   19.8444   -4.1165  -13.4714 C   0  0  0  0  0  0  0  0  0  0  0  0
   20.6901   -5.2008  -14.0327 C   0  0  2  0  0  0  0  0  0  0  0  0
   20.0958   -6.4959  -13.9674 N   0  0  0  0  0  0  0  0  0  0  0  0
   22.1032   -5.1907  -13.5264 C   0  0  0  0  0  0  0  0  0  0  0  0
   22.8364   -4.1694  -13.7551 O   0  0  0  0  0  0  0  0  0  0  0  0
   22.7063   -6.2036  -12.8224 O   0  0  0  0  0  0  0  0  0  0  0  0
  2  1  1  0
  3  2  1  0
  4  3  2  0
  6  5  1  6
  6  8  1  0
  7  6  1  0
  8  9  1  6
  9  3  1  0
 10  8  1  0
 10 14  1  0
 11 10  2  0
 13 12  1  1
 13 14  1  0
 13 15  1  0
 15 17  1  0
 16 15  2  0
M  END
$$$$
