GTA.pdb
     RDKit          3D

 17 16  0  0  1  0  0  0  0  0999 V2000
   13.9544   -8.0117   -7.6591 N   0  0  0  0  0  0  0  0  0  0  0  0
   15.1368   -7.2381   -7.8628 C   0  0  0  0  0  0  0  0  0  0  0  0
   15.8501   -7.7412   -9.0571 C   0  0  0  0  0  0  0  0  0  0  0  0
   15.6731   -8.9105   -9.5074 O   0  0  0  0  0  0  0  0  0  0  0  0
   14.9729   -7.3607  -12.0199 C   0  0  0  0  0  0  0  0  0  0  0  0
   16.3234   -6.7028  -12.1026 C   0  0  1  0  0  0  0  0  0  0  0  0
   16.1694   -5.3502  -11.9420 O   0  0  0  0  0  0  0  0  0  0  0  0
   17.2419   -7.2831  -11.0482 C   0  0  2  0  0  0  0  0  0  0  0  0
   16.7577   -6.9095   -9.7276 N   0  0  0  0  0  0  0  0  0  0  0  0
   18.6006   -6.6769  -11.2394 C   0  0  0  0  0  0  0  0  0  0  0  0
   18.7948   -5.5475  -10.7124 O   0  0  0  0  0  0  0  0  0  0  0  0
   21.8976   -7.7252  -12.7875 C   0  0  0  0  0  0  0  0  0  0  0  0
   20.9035   -6.7496  -12.2717 C   0  0  2  0  0  0  0  0  0  0  0  0
   19.6313   -7.3193  -11.9690 N   0  0  0  0  0  0  0  0  0  0  0  0
   20.7924   -5.5026  -13.0999 C   0  0  0  0  0  0  0  0  0  0  0  0
   19.8353   -5.3999  -13.9404 O   0  0  0  0  0  0  0  0  0  0  0  0
   21.6461   -4.4286  -13.0444 O   0  0  0  0  0  0  0  0  0  0  0  0
  2  1  1  0
  3  2  1  0
  4  3  2  0
  6  5  1  1
  6  8  1  0
  7  6  1  0
  8  9  1  1
  9  3  1  0
 10  8  1  0
 10 14  1  0
 11 10  2  0
 13 12  1  6
 13 14  1  0
 13 15  1  0
 15 17  1  0
 16 15  2  0
M  END
$$$$
