VYQ.pdb
     RDKit          3D

 29 29  0  0  1  0  0  0  0  0999 V2000
   26.2507  -18.8377  -17.4452 C   0  0  0  0  0  0  0  0  0  0  0  0
   27.7074  -19.0022  -17.1718 C   0  0  2  0  0  0  0  0  0  0  0  0
   28.5873  -18.4813  -18.2890 C   0  0  0  0  0  0  0  0  0  0  0  0
   28.0968  -20.4107  -16.7953 C   0  0  2  0  0  0  0  0  0  0  0  0
   27.8120  -21.2826  -17.9036 N   0  0  0  0  0  0  0  0  0  0  0  0
   27.3224  -20.8361  -15.5742 C   0  0  0  0  0  0  0  0  0  0  0  0
   26.2524  -21.4774  -15.6767 O   0  0  0  0  0  0  0  0  0  0  0  0
   24.1309  -20.9069   -7.4547 O   0  0  0  0  0  0  0  0  0  0  0  0
   25.0114  -20.8726   -8.5418 C   0  0  0  0  0  0  0  0  0  0  0  0
   25.1594  -21.9434   -9.4049 C   0  0  0  0  0  0  0  0  0  0  0  0
   26.0369  -21.8651  -10.4604 C   0  0  0  0  0  0  0  0  0  0  0  0
   26.8004  -20.7241  -10.7008 C   0  0  0  0  0  0  0  0  0  0  0  0
   27.7252  -20.7620  -11.8497 C   0  0  0  0  0  0  0  0  0  0  0  0
   26.9473  -20.8302  -13.1235 C   0  0  2  0  0  0  0  0  0  0  0  0
   27.7812  -20.5236  -14.2808 N   0  0  0  0  0  0  0  0  0  0  0  0
   25.7259  -19.9802  -13.1232 C   0  0  0  0  0  0  0  0  0  0  0  0
   25.7731  -18.7355  -13.2459 O   0  0  0  0  0  0  0  0  0  0  0  0
   26.6539  -19.6563   -9.8412 C   0  0  0  0  0  0  0  0  0  0  0  0
   25.7710  -19.7512   -8.7894 C   0  0  0  0  0  0  0  0  0  0  0  0
   21.2947  -18.2196  -16.1301 N   0  0  0  0  0  0  0  0  0  0  0  0
   22.0362  -19.3923  -16.4240 C   0  0  0  0  0  0  0  0  0  0  0  0
   21.8800  -19.9880  -17.5043 O   0  0  0  0  0  0  0  0  0  0  0  0
   23.0040  -19.8971  -15.4174 C   0  0  0  0  0  0  0  0  0  0  0  0
   23.0740  -18.9485  -14.2273 C   0  0  0  0  0  0  0  0  0  0  0  0
   23.2441  -19.7174  -12.9349 C   0  0  2  0  0  0  0  0  0  0  0  0
   24.4288  -20.5468  -12.9817 N   0  0  0  0  0  0  0  0  0  0  0  0
   22.0563  -20.5380  -12.6210 C   0  0  0  0  0  0  0  0  0  0  0  0
   20.8218  -19.9795  -12.3580 O   0  0  0  0  0  0  0  0  0  0  0  0
   22.1732  -21.7851  -12.5923 O   0  0  0  0  0  0  0  0  0  0  0  0
  2  1  1  6
  3  2  1  0
  4  2  1  0
  4  5  1  6
  6  4  1  0
  6  7  2  0
  8  9  1  0
  9 19  2  0
  9 10  1  0
 10 11  2  0
 11 12  1  0
 12 13  1  0
 14 13  1  1
 14 15  1  0
 15  6  1  0
 16 14  1  0
 17 16  2  0
 18 12  2  0
 19 18  1  0
 20 21  1  0
 21 23  1  0
 22 21  2  0
 23 24  1  0
 25 24  1  6
 25 26  1  0
 25 27  1  0
 26 16  1  0
 27 28  1  0
 29 27  2  0
M  END
$$$$
