VYQ.pdb
     RDKit          3D

 29 29  0  0  1  0  0  0  0  0999 V2000
   27.3457  -24.9276  -17.7784 C   0  0  0  0  0  0  0  0  0  0  0  0
   28.3169  -23.9764  -18.3912 C   0  0  2  0  0  0  0  0  0  0  0  0
   29.5103  -24.6641  -19.0208 C   0  0  0  0  0  0  0  0  0  0  0  0
   28.7626  -22.8801  -17.4548 C   0  0  2  0  0  0  0  0  0  0  0  0
   29.4603  -23.4729  -16.3452 N   0  0  0  0  0  0  0  0  0  0  0  0
   27.5589  -22.1109  -16.9737 C   0  0  0  0  0  0  0  0  0  0  0  0
   27.0531  -22.3355  -15.8510 O   0  0  0  0  0  0  0  0  0  0  0  0
   20.6957  -16.7303  -16.4192 O   0  0  0  0  0  0  0  0  0  0  0  0
   21.9028  -17.3132  -16.8209 C   0  0  0  0  0  0  0  0  0  0  0  0
   22.0197  -18.0303  -17.9981 C   0  0  0  0  0  0  0  0  0  0  0  0
   23.2262  -18.5857  -18.3530 C   0  0  0  0  0  0  0  0  0  0  0  0
   24.3618  -18.4521  -17.5559 C   0  0  0  0  0  0  0  0  0  0  0  0
   25.5960  -19.1097  -18.0259 C   0  0  0  0  0  0  0  0  0  0  0  0
   25.8012  -20.3902  -17.2841 C   0  0  2  0  0  0  0  0  0  0  0  0
   26.9680  -21.1159  -17.7748 N   0  0  0  0  0  0  0  0  0  0  0  0
   24.6044  -21.2744  -17.2772 C   0  0  0  0  0  0  0  0  0  0  0  0
   24.3454  -22.0625  -18.2145 O   0  0  0  0  0  0  0  0  0  0  0  0
   24.2466  -17.7377  -16.3825 C   0  0  0  0  0  0  0  0  0  0  0  0
   23.0313  -17.1881  -16.0420 C   0  0  0  0  0  0  0  0  0  0  0  0
   23.2770  -25.6646  -13.9209 N   0  0  0  0  0  0  0  0  0  0  0  0
   21.9575  -25.5018  -14.4147 C   0  0  0  0  0  0  0  0  0  0  0  0
   21.1043  -26.3915  -14.2511 O   0  0  0  0  0  0  0  0  0  0  0  0
   21.6122  -24.2482  -15.1317 C   0  0  0  0  0  0  0  0  0  0  0  0
   22.8395  -23.3542  -15.2570 C   0  0  0  0  0  0  0  0  0  0  0  0
   22.5541  -22.1706  -16.1559 C   0  0  2  0  0  0  0  0  0  0  0  0
   23.6842  -21.2678  -16.1923 N   0  0  0  0  0  0  0  0  0  0  0  0
   21.3336  -21.4471  -15.7442 C   0  0  0  0  0  0  0  0  0  0  0  0
   20.0670  -21.8998  -16.0544 O   0  0  0  0  0  0  0  0  0  0  0  0
   21.4516  -20.3848  -15.0904 O   0  0  0  0  0  0  0  0  0  0  0  0
  2  1  1  1
  3  2  1  0
  4  2  1  0
  4  5  1  1
  6  4  1  0
  6  7  2  0
  8  9  1  0
  9 19  2  0
  9 10  1  0
 10 11  2  0
 11 12  1  0
 12 13  1  0
 14 13  1  6
 14 15  1  0
 15  6  1  0
 16 14  1  0
 17 16  2  0
 18 12  2  0
 19 18  1  0
 20 21  1  0
 21 23  1  0
 22 21  2  0
 23 24  1  0
 25 24  1  1
 25 26  1  0
 25 27  1  0
 26 16  1  0
 27 28  1  0
 29 27  2  0
M  END
$$$$
