VYQ.pdb
     RDKit          3D

 29 29  0  0  1  0  0  0  0  0999 V2000
   23.9502  -17.6332  -18.6076 C   0  0  0  0  0  0  0  0  0  0  0  0
   23.6611  -18.8527  -19.4155 C   0  0  2  0  0  0  0  0  0  0  0  0
   23.7142  -18.6064  -20.9089 C   0  0  0  0  0  0  0  0  0  0  0  0
   22.3745  -19.5417  -19.0314 C   0  0  2  0  0  0  0  0  0  0  0  0
   21.2695  -18.6909  -19.3845 N   0  0  0  0  0  0  0  0  0  0  0  0
   22.3769  -19.8195  -17.5500 C   0  0  0  0  0  0  0  0  0  0  0  0
   23.1870  -20.6285  -17.0440 O   0  0  0  0  0  0  0  0  0  0  0  0
   20.9468  -20.4789   -9.0294 O   0  0  0  0  0  0  0  0  0  0  0  0
   21.0877  -19.9933  -10.3342 C   0  0  0  0  0  0  0  0  0  0  0  0
   20.1739  -19.1221  -10.8995 C   0  0  0  0  0  0  0  0  0  0  0  0
   20.3528  -18.6705  -12.1856 C   0  0  0  0  0  0  0  0  0  0  0  0
   21.4428  -19.0642  -12.9600 C   0  0  0  0  0  0  0  0  0  0  0  0
   21.5196  -18.5336  -14.3344 C   0  0  0  0  0  0  0  0  0  0  0  0
   21.3156  -19.6409  -15.3166 C   0  0  2  0  0  0  0  0  0  0  0  0
   21.4662  -19.1758  -16.6913 N   0  0  0  0  0  0  0  0  0  0  0  0
   20.0218  -20.3565  -15.1489 C   0  0  0  0  0  0  0  0  0  0  0  0
   18.9290  -19.8629  -15.5077 O   0  0  0  0  0  0  0  0  0  0  0  0
   22.3542  -19.9325  -12.3976 C   0  0  0  0  0  0  0  0  0  0  0  0
   22.1601  -20.3750  -11.1088 C   0  0  0  0  0  0  0  0  0  0  0  0
   19.2557  -26.2697  -13.0676 N   0  0  0  0  0  0  0  0  0  0  0  0
   17.9204  -25.8943  -13.3634 C   0  0  0  0  0  0  0  0  0  0  0  0
   17.0130  -26.7442  -13.3890 O   0  0  0  0  0  0  0  0  0  0  0  0
   17.6245  -24.4663  -13.6423 C   0  0  0  0  0  0  0  0  0  0  0  0
   18.9104  -23.6491  -13.6438 C   0  0  0  0  0  0  0  0  0  0  0  0
   18.6975  -22.3112  -14.3184 C   0  0  2  0  0  0  0  0  0  0  0  0
   19.9620  -21.6526  -14.5655 N   0  0  0  0  0  0  0  0  0  0  0  0
   17.8073  -21.4326  -13.5322 C   0  0  0  0  0  0  0  0  0  0  0  0
   18.1854  -20.8942  -12.3188 O   0  0  0  0  0  0  0  0  0  0  0  0
   16.6688  -21.1663  -13.9823 O   0  0  0  0  0  0  0  0  0  0  0  0
  2  1  1  1
  3  2  1  0
  4  2  1  0
  4  5  1  1
  6  4  1  0
  6  7  2  0
  8  9  1  0
  9 19  2  0
  9 10  1  0
 10 11  2  0
 11 12  1  0
 12 13  1  0
 14 13  1  1
 14 15  1  0
 15  6  1  0
 16 14  1  0
 17 16  2  0
 18 12  2  0
 19 18  1  0
 20 21  1  0
 21 23  1  0
 22 21  2  0
 23 24  1  0
 25 24  1  1
 25 26  1  0
 25 27  1  0
 26 16  1  0
 27 28  1  0
 29 27  2  0
M  END
$$$$
