VYQ.pdb
     RDKit          3D

 29 29  0  0  1  0  0  0  0  0999 V2000
   29.4331  -21.4117  -16.7964 C   0  0  0  0  0  0  0  0  0  0  0  0
   28.7253  -22.1973  -17.8478 C   0  0  2  0  0  0  0  0  0  0  0  0
   29.2050  -21.8864  -19.2503 C   0  0  0  0  0  0  0  0  0  0  0  0
   27.2215  -22.1042  -17.7628 C   0  0  2  0  0  0  0  0  0  0  0  0
   26.7959  -20.8840  -18.3949 N   0  0  0  0  0  0  0  0  0  0  0  0
   26.7982  -22.1269  -16.3164 C   0  0  0  0  0  0  0  0  0  0  0  0
   27.0337  -23.1173  -15.5881 O   0  0  0  0  0  0  0  0  0  0  0  0
   24.3673  -20.8717   -8.1668 O   0  0  0  0  0  0  0  0  0  0  0  0
   24.8686  -20.7159   -9.4639 C   0  0  0  0  0  0  0  0  0  0  0  0
   24.5242  -19.6407  -10.2633 C   0  0  0  0  0  0  0  0  0  0  0  0
   25.0414  -19.5283  -11.5322 C   0  0  0  0  0  0  0  0  0  0  0  0
   25.9185  -20.4759  -12.0570 C   0  0  0  0  0  0  0  0  0  0  0  0
   26.3919  -20.2638  -13.4381 C   0  0  0  0  0  0  0  0  0  0  0  0
   25.6179  -21.1305  -14.3772 C   0  0  2  0  0  0  0  0  0  0  0  0
   26.1246  -21.0327  -15.7419 N   0  0  0  0  0  0  0  0  0  0  0  0
   24.1512  -20.8807  -14.3483 C   0  0  0  0  0  0  0  0  0  0  0  0
   23.6410  -19.8219  -14.7787 O   0  0  0  0  0  0  0  0  0  0  0  0
   26.2623  -21.5480  -11.2613 C   0  0  0  0  0  0  0  0  0  0  0  0
   25.7356  -21.6453   -9.9933 C   0  0  0  0  0  0  0  0  0  0  0  0
   19.8555  -24.0197  -10.9349 N   0  0  0  0  0  0  0  0  0  0  0  0
   19.0670  -23.0047  -11.5343 C   0  0  0  0  0  0  0  0  0  0  0  0
   17.8618  -22.8870  -11.2514 O   0  0  0  0  0  0  0  0  0  0  0  0
   19.7070  -22.0834  -12.5071 C   0  0  0  0  0  0  0  0  0  0  0  0
   21.1981  -22.3771  -12.6132 C   0  0  0  0  0  0  0  0  0  0  0  0
   21.8269  -21.5747  -13.7317 C   0  0  2  0  0  0  0  0  0  0  0  0
   23.2455  -21.8442  -13.8239 N   0  0  0  0  0  0  0  0  0  0  0  0
   21.5903  -20.1252  -13.5710 C   0  0  0  0  0  0  0  0  0  0  0  0
   22.2079  -19.3813  -12.5859 O   0  0  0  0  0  0  0  0  0  0  0  0
   20.8013  -19.5504  -14.3563 O   0  0  0  0  0  0  0  0  0  0  0  0
  2  1  1  1
  3  2  1  0
  4  2  1  0
  4  5  1  1
  6  4  1  0
  6  7  2  0
  8  9  1  0
  9 19  2  0
  9 10  1  0
 10 11  2  0
 11 12  1  0
 12 13  1  0
 14 13  1  1
 14 15  1  0
 15  6  1  0
 16 14  1  0
 17 16  2  0
 18 12  2  0
 19 18  1  0
 20 21  1  0
 21 23  1  0
 22 21  2  0
 23 24  1  0
 25 24  1  1
 25 26  1  0
 25 27  1  0
 26 16  1  0
 27 28  1  0
 29 27  2  0
M  END
$$$$
