VYQ.pdb
     RDKit          3D

 29 29  0  0  1  0  0  0  0  0999 V2000
   17.6237  -13.0333  -19.0196 C   0  0  0  0  0  0  0  0  0  0  0  0
   18.3537  -11.7335  -18.9833 C   0  0  2  0  0  0  0  0  0  0  0  0
   18.6968  -11.2024  -20.3594 C   0  0  0  0  0  0  0  0  0  0  0  0
   19.5741  -11.7500  -18.0956 C   0  0  2  0  0  0  0  0  0  0  0  0
   19.2100  -12.2986  -16.8166 N   0  0  0  0  0  0  0  0  0  0  0  0
   20.1000  -10.3461  -17.9395 C   0  0  0  0  0  0  0  0  0  0  0  0
   20.5905   -9.7265  -18.9102 O   0  0  0  0  0  0  0  0  0  0  0  0
   22.0351   -2.2874  -15.4054 O   0  0  0  0  0  0  0  0  0  0  0  0
   21.4634   -3.5623  -15.4818 C   0  0  0  0  0  0  0  0  0  0  0  0
   21.7092   -4.5388  -14.5332 C   0  0  0  0  0  0  0  0  0  0  0  0
   21.1255   -5.7781  -14.6486 C   0  0  0  0  0  0  0  0  0  0  0  0
   20.2767   -6.0971  -15.7072 C   0  0  0  0  0  0  0  0  0  0  0  0
   19.7257   -7.4652  -15.7402 C   0  0  0  0  0  0  0  0  0  0  0  0
   20.6068   -8.3460  -16.5649 C   0  0  2  0  0  0  0  0  0  0  0  0
   20.0545   -9.6902  -16.6950 N   0  0  0  0  0  0  0  0  0  0  0  0
   22.0123   -8.4064  -16.0799 C   0  0  0  0  0  0  0  0  0  0  0  0
   22.3554   -9.1025  -15.0979 O   0  0  0  0  0  0  0  0  0  0  0  0
   20.0311   -5.1249  -16.6533 C   0  0  0  0  0  0  0  0  0  0  0  0
   20.6235   -3.8893  -16.5227 C   0  0  0  0  0  0  0  0  0  0  0  0
   28.0851  -11.1190  -15.5931 N   0  0  0  0  0  0  0  0  0  0  0  0
   26.7596  -10.7905  -15.9759 C   0  0  0  0  0  0  0  0  0  0  0  0
   25.9642  -11.6768  -16.3338 O   0  0  0  0  0  0  0  0  0  0  0  0
   26.3378   -9.3673  -15.9418 C   0  0  0  0  0  0  0  0  0  0  0  0
   24.8753   -9.2381  -16.3486 C   0  0  0  0  0  0  0  0  0  0  0  0
   24.4287   -7.7929  -16.3014 C   0  0  2  0  0  0  0  0  0  0  0  0
   23.0481   -7.6671  -16.7158 N   0  0  0  0  0  0  0  0  0  0  0  0
   25.2921   -6.9217  -17.1249 C   0  0  0  0  0  0  0  0  0  0  0  0
   24.8195   -6.2505  -18.2346 O   0  0  0  0  0  0  0  0  0  0  0  0
   26.4960   -6.7870  -16.8053 O   0  0  0  0  0  0  0  0  0  0  0  0
  2  1  1  6
  3  2  1  0
  4  2  1  0
  4  5  1  1
  6  4  1  0
  6  7  2  0
  8  9  1  0
  9 19  2  0
  9 10  1  0
 10 11  2  0
 11 12  1  0
 12 13  1  0
 14 13  1  1
 14 15  1  0
 15  6  1  0
 16 14  1  0
 17 16  2  0
 18 12  2  0
 19 18  1  0
 20 21  1  0
 21 23  1  0
 22 21  2  0
 23 24  1  0
 25 24  1  6
 25 26  1  0
 25 27  1  0
 26 16  1  0
 27 28  1  0
 29 27  2  0
M  END
$$$$
