VYQ.pdb
     RDKit          3D

 29 29  0  0  1  0  0  0  0  0999 V2000
   24.7275  -14.0908  -17.3424 C   0  0  0  0  0  0  0  0  0  0  0  0
   24.5262  -15.5365  -17.0375 C   0  0  2  0  0  0  0  0  0  0  0  0
   23.8182  -15.7762  -15.7203 C   0  0  0  0  0  0  0  0  0  0  0  0
   25.7916  -16.3544  -17.1224 C   0  0  2  0  0  0  0  0  0  0  0  0
   26.3884  -16.1527  -18.4157 N   0  0  0  0  0  0  0  0  0  0  0  0
   25.4631  -17.8103  -16.9119 C   0  0  0  0  0  0  0  0  0  0  0  0
   24.7583  -18.4405  -17.7323 O   0  0  0  0  0  0  0  0  0  0  0  0
   24.8529  -26.0484  -14.2902 O   0  0  0  0  0  0  0  0  0  0  0  0
   25.3060  -24.7383  -14.4819 C   0  0  0  0  0  0  0  0  0  0  0  0
   25.2391  -23.7816  -13.4850 C   0  0  0  0  0  0  0  0  0  0  0  0
   25.6965  -22.5063  -13.7181 C   0  0  0  0  0  0  0  0  0  0  0  0
   26.2372  -22.1305  -14.9466 C   0  0  0  0  0  0  0  0  0  0  0  0
   26.6750  -20.7289  -15.0896 C   0  0  0  0  0  0  0  0  0  0  0  0
   25.5336  -19.8876  -15.5605 C   0  0  2  0  0  0  0  0  0  0  0  0
   25.9406  -18.5045  -15.7845 N   0  0  0  0  0  0  0  0  0  0  0  0
   24.3444  -19.9413  -14.6676 C   0  0  0  0  0  0  0  0  0  0  0  0
   24.3449  -19.4486  -13.5170 O   0  0  0  0  0  0  0  0  0  0  0  0
   26.3043  -23.0831  -15.9410 C   0  0  0  0  0  0  0  0  0  0  0  0
   25.8419  -24.3552  -15.6909 C   0  0  0  0  0  0  0  0  0  0  0  0
   19.7172  -17.6952  -15.9002 N   0  0  0  0  0  0  0  0  0  0  0  0
   19.1538  -18.9963  -15.9347 C   0  0  0  0  0  0  0  0  0  0  0  0
   18.1792  -19.2468  -16.6653 O   0  0  0  0  0  0  0  0  0  0  0  0
   19.7491  -20.0558  -15.0816 C   0  0  0  0  0  0  0  0  0  0  0  0
   21.0209  -19.5470  -14.4147 C   0  0  0  0  0  0  0  0  0  0  0  0
   22.0007  -20.6782  -14.1898 C   0  0  2  0  0  0  0  0  0  0  0  0
   23.1338  -20.5627  -15.0823 N   0  0  0  0  0  0  0  0  0  0  0  0
   21.3607  -22.0009  -14.3432 C   0  0  0  0  0  0  0  0  0  0  0  0
   21.6247  -22.8288  -15.4156 O   0  0  0  0  0  0  0  0  0  0  0  0
   20.5494  -22.3853  -13.4692 O   0  0  0  0  0  0  0  0  0  0  0  0
  2  1  1  1
  3  2  1  0
  4  2  1  0
  4  5  1  6
  6  4  1  0
  6  7  2  0
  8  9  1  0
  9 19  2  0
  9 10  1  0
 10 11  2  0
 11 12  1  0
 12 13  1  0
 14 13  1  1
 14 15  1  0
 15  6  1  0
 16 14  1  0
 17 16  2  0
 18 12  2  0
 19 18  1  0
 20 21  1  0
 21 23  1  0
 22 21  2  0
 23 24  1  0
 25 24  1  6
 25 26  1  0
 25 27  1  0
 26 16  1  0
 27 28  1  0
 29 27  2  0
M  END
$$$$
