VYQ.pdb
     RDKit          3D

 29 29  0  0  1  0  0  0  0  0999 V2000
   48.7569    0.8144  -78.4099 C   0  0  0  0  0  0  0  0  0  0  0  0
   49.5835    0.7185  -79.6472 C   0  0  2  0  0  0  0  0  0  0  0  0
   49.9898   -0.7007  -79.9856 C   0  0  0  0  0  0  0  0  0  0  0  0
   50.7837    1.6334  -79.6452 C   0  0  2  0  0  0  0  0  0  0  0  0
   51.2426    1.7995  -80.9984 N   0  0  0  0  0  0  0  0  0  0  0  0
   51.8691    1.0355  -78.7873 C   0  0  0  0  0  0  0  0  0  0  0  0
   53.0480    0.9514  -79.1995 O   0  0  0  0  0  0  0  0  0  0  0  0
   56.4846    4.5006  -79.2925 O   0  0  0  0  0  0  0  0  0  0  0  0
   55.8550    3.3386  -78.8324 C   0  0  0  0  0  0  0  0  0  0  0  0
   56.4497    2.0929  -78.9217 C   0  0  0  0  0  0  0  0  0  0  0  0
   55.7937    0.9780  -78.4562 C   0  0  0  0  0  0  0  0  0  0  0  0
   54.5246    1.0547  -77.8850 C   0  0  0  0  0  0  0  0  0  0  0  0
   53.9081   -0.2100  -77.4410 C   0  0  0  0  0  0  0  0  0  0  0  0
   52.6759    0.0790  -76.6470 C   0  0  2  0  0  0  0  0  0  0  0  0
   51.5877    0.5537  -77.4951 N   0  0  0  0  0  0  0  0  0  0  0  0
   52.9015    1.0196  -75.5161 C   0  0  0  0  0  0  0  0  0  0  0  0
   53.8825    0.9207  -74.7451 O   0  0  0  0  0  0  0  0  0  0  0  0
   53.9308    2.2957  -77.7955 C   0  0  0  0  0  0  0  0  0  0  0  0
   54.6014    3.4017  -78.2663 C   0  0  0  0  0  0  0  0  0  0  0  0
   55.5825    6.0867  -75.4704 N   0  0  0  0  0  0  0  0  0  0  0  0
   54.4986    5.7811  -74.6084 C   0  0  0  0  0  0  0  0  0  0  0  0
   54.3754    6.3590  -73.5142 O   0  0  0  0  0  0  0  0  0  0  0  0
   53.5118    4.7573  -75.0361 C   0  0  0  0  0  0  0  0  0  0  0  0
   53.4768    3.6060  -74.0389 C   0  0  0  0  0  0  0  0  0  0  0  0
   52.1332    2.9100  -74.0669 C   0  0  2  0  0  0  0  0  0  0  0  0
   52.0029    2.0903  -75.2521 N   0  0  0  0  0  0  0  0  0  0  0  0
   51.0132    3.8696  -73.9821 C   0  0  0  0  0  0  0  0  0  0  0  0
   51.1637    5.2083  -74.2827 O   0  0  0  0  0  0  0  0  0  0  0  0
   49.8865    3.4542  -73.6247 O   0  0  0  0  0  0  0  0  0  0  0  0
  2  1  1  1
  3  2  1  0
  4  2  1  0
  4  5  1  6
  6  4  1  0
  6  7  2  0
  8  9  1  0
  9 19  2  0
  9 10  1  0
 10 11  2  0
 11 12  1  0
 12 13  1  0
 14 13  1  6
 14 15  1  0
 15  6  1  0
 16 14  1  0
 17 16  2  0
 18 12  2  0
 19 18  1  0
 20 21  1  0
 21 23  1  0
 22 21  2  0
 23 24  1  0
 25 24  1  6
 25 26  1  0
 25 27  1  0
 26 16  1  0
 27 28  1  0
 29 27  2  0
M  END
$$$$
