VYQ.pdb
     RDKit          3D

 29 29  0  0  1  0  0  0  0  0999 V2000
   20.1172  -13.1376  -18.4917 C   0  0  0  0  0  0  0  0  0  0  0  0
   21.0722  -12.2273  -17.7968 C   0  0  2  0  0  0  0  0  0  0  0  0
   22.2567  -12.9525  -17.1929 C   0  0  0  0  0  0  0  0  0  0  0  0
   20.4174  -11.3283  -16.7767 C   0  0  2  0  0  0  0  0  0  0  0  0
   19.3454  -10.6095  -17.4121 N   0  0  0  0  0  0  0  0  0  0  0  0
   21.4405  -10.3712  -16.2209 C   0  0  0  0  0  0  0  0  0  0  0  0
   22.4484  -10.7861  -15.6053 O   0  0  0  0  0  0  0  0  0  0  0  0
   26.3869   -3.7429  -17.6583 O   0  0  0  0  0  0  0  0  0  0  0  0
   25.7038   -4.8917  -17.2438 C   0  0  0  0  0  0  0  0  0  0  0  0
   25.1249   -4.9938  -15.9915 C   0  0  0  0  0  0  0  0  0  0  0  0
   24.4631   -6.1423  -15.6268 C   0  0  0  0  0  0  0  0  0  0  0  0
   24.3495   -7.2324  -16.4880 C   0  0  0  0  0  0  0  0  0  0  0  0
   23.6365   -8.4202  -15.9809 C   0  0  0  0  0  0  0  0  0  0  0  0
   22.2108   -8.0730  -15.6999 C   0  0  2  0  0  0  0  0  0  0  0  0
   21.2917   -8.9805  -16.3785 N   0  0  0  0  0  0  0  0  0  0  0  0
   21.8685   -6.6586  -16.0106 C   0  0  0  0  0  0  0  0  0  0  0  0
   21.9037   -6.1984  -17.1741 O   0  0  0  0  0  0  0  0  0  0  0  0
   24.9261   -7.1318  -17.7363 C   0  0  0  0  0  0  0  0  0  0  0  0
   25.5850   -5.9748  -18.0855 C   0  0  0  0  0  0  0  0  0  0  0  0
   17.3598   -5.8227  -15.1490 N   0  0  0  0  0  0  0  0  0  0  0  0
   17.7799   -5.4880  -16.4616 C   0  0  0  0  0  0  0  0  0  0  0  0
   17.1640   -5.9156  -17.4536 O   0  0  0  0  0  0  0  0  0  0  0  0
   18.9701   -4.6164  -16.6307 C   0  0  0  0  0  0  0  0  0  0  0  0
   19.5668   -4.2651  -15.2737 C   0  0  0  0  0  0  0  0  0  0  0  0
   21.0744   -4.3944  -15.2984 C   0  0  2  0  0  0  0  0  0  0  0  0
   21.4799   -5.7484  -14.9887 N   0  0  0  0  0  0  0  0  0  0  0  0
   21.7250   -3.4413  -14.3760 C   0  0  0  0  0  0  0  0  0  0  0  0
   21.6293   -2.0740  -14.5391 O   0  0  0  0  0  0  0  0  0  0  0  0
   22.3871   -3.8892  -13.4113 O   0  0  0  0  0  0  0  0  0  0  0  0
  2  1  1  1
  3  2  1  0
  4  2  1  0
  4  5  1  6
  6  4  1  0
  6  7  2  0
  8  9  1  0
  9 19  2  0
  9 10  1  0
 10 11  2  0
 11 12  1  0
 12 13  1  0
 14 13  1  6
 14 15  1  0
 15  6  1  0
 16 14  1  0
 17 16  2  0
 18 12  2  0
 19 18  1  0
 20 21  1  0
 21 23  1  0
 22 21  2  0
 23 24  1  0
 25 24  1  1
 25 26  1  0
 25 27  1  0
 26 16  1  0
 27 28  1  0
 29 27  2  0
M  END
$$$$
