RCY.pdb
     RDKit          3D

 30 30  0  0  1  0  0  0  0  0999 V2000
    6.8927  -20.2686   17.9662 N   0  0  0  0  0  0  0  0  0  0  0  0
    7.8276  -19.3212   18.4321 C   0  0  0  0  0  0  0  0  0  0  0  0
    8.2553  -18.3959   17.6278 N   0  0  0  0  0  0  0  0  0  0  0  0
    8.3165  -19.3524   19.7650 N   0  0  0  0  0  0  0  0  0  0  0  0
    9.0033  -18.1702   20.2605 C   0  0  0  0  0  0  0  0  0  0  0  0
    8.0256  -17.0212   20.4371 C   0  0  0  0  0  0  0  0  0  0  0  0
    8.7443  -15.8844   21.1068 C   0  0  0  0  0  0  0  0  0  0  0  0
    7.8091  -14.7514   21.3735 C   0  0  2  0  0  0  0  0  0  0  0  0
    7.9319  -13.7700   20.3285 N   0  0  0  0  0  0  0  0  0  0  0  0
    8.1286  -14.1320   22.6832 C   0  0  0  0  0  0  0  0  0  0  0  0
    9.2483  -13.5457   22.8739 O   0  0  0  0  0  0  0  0  0  0  0  0
    8.9491  -17.6861   17.9263 N   0  0  0  0  0  0  0  0  0  0  0  0
    7.2300  -14.1519   23.7817 C   0  0  2  0  0  0  0  0  0  0  0  0
    7.5123  -13.5820   25.0674 C   0  0  0  0  0  0  0  0  0  0  0  0
    6.3277  -12.8518   25.6556 S   0  0  0  0  0  0  0  0  0  0  0  0
    6.6055  -12.2687   27.3244 C   0  0  0  0  0  0  0  0  0  0  0  0
    8.0568  -14.5966   26.0225 O   0  0  0  0  0  0  0  0  0  0  0  0
    7.5175  -15.7327   26.1636 O   0  0  0  0  0  0  0  0  0  0  0  0
   11.8481  -18.6426   22.7674 C   0  0  0  0  0  0  0  0  0  0  0  0
   11.7085  -17.8512   23.8886 C   0  0  0  0  0  0  0  0  0  0  0  0
   11.6245  -18.4327   25.1308 C   0  0  0  0  0  0  0  0  0  0  0  0
   11.4861  -17.6798   26.2621 C   0  0  0  0  0  0  0  0  0  0  0  0
   11.4307  -16.2982   26.1356 C   0  0  0  0  0  0  0  0  0  0  0  0
   11.2571  -15.4843   27.3563 C   0  0  2  0  0  0  0  0  0  0  0  0
    9.8144  -15.2962   27.6924 N   0  0  0  0  0  0  0  0  0  0  0  0
    9.1953  -14.3031   26.7936 C   0  0  0  0  0  0  0  0  0  0  0  0
    9.6888  -14.7725   29.0609 O   0  0  0  0  0  0  0  0  0  0  0  0
    9.2473  -13.6074   29.2248 C   0  0  0  0  0  0  0  0  0  0  0  0
   11.5134  -15.7047   24.8987 C   0  0  0  0  0  0  0  0  0  0  0  0
   11.6524  -16.4817   23.7758 O   0  0  0  0  0  0  0  0  0  0  0  0
  2  1  1  0
  3  2  2  0
  4  2  1  0
  5  6  1  0
  5  4  1  0
  7  6  1  0
  7  8  1  0
  8 10  1  0
  8  9  1  6
 10 11  2  0
 12 10  1  0
 12 13  1  0
 13 14  1  1
 14 15  1  0
 16 17  2  0
 16 13  1  0
 18 19  1  0
 19 29  2  0
 20 19  1  0
 20 21  2  0
 21 22  1  0
 22 28  2  0
 22 23  1  0
 24 23  1  6
 24 26  1  0
 24 25  1  0
 25 16  1  0
 26 30  1  0
 27 26  2  0
 29 28  1  0
M  END
$$$$
