RCY.pdb
     RDKit          3D

 30 30  0  0  1  0  0  0  0  0999 V2000
    6.9956  -15.3464   14.6825 N   0  0  0  0  0  0  0  0  0  0  0  0
    7.6642  -14.1399   14.3896 C   0  0  0  0  0  0  0  0  0  0  0  0
    8.2632  -14.0021   13.2459 N   0  0  0  0  0  0  0  0  0  0  0  0
    7.7000  -13.0655   15.3175 N   0  0  0  0  0  0  0  0  0  0  0  0
    6.8681  -13.1709   16.5056 C   0  0  0  0  0  0  0  0  0  0  0  0
    7.3094  -14.3452   17.3620 C   0  0  0  0  0  0  0  0  0  0  0  0
    8.0844  -13.8137   18.5343 C   0  0  0  0  0  0  0  0  0  0  0  0
    8.5176  -14.9267   19.4304 C   0  0  2  0  0  0  0  0  0  0  0  0
    7.5773  -16.0119   19.3386 N   0  0  0  0  0  0  0  0  0  0  0  0
    8.5926  -14.4453   20.8316 C   0  0  0  0  0  0  0  0  0  0  0  0
    9.3377  -13.4548   21.1441 O   0  0  0  0  0  0  0  0  0  0  0  0
    8.7496  -13.1256   12.9824 N   0  0  0  0  0  0  0  0  0  0  0  0
    7.8576  -15.0422   21.8891 C   0  0  1  0  0  0  0  0  0  0  0  0
    7.8663  -14.5734   23.2447 C   0  0  0  0  0  0  0  0  0  0  0  0
    6.4777  -14.4316   23.8227 S   0  0  0  0  0  0  0  0  0  0  0  0
    6.4612  -13.7765   25.4878 C   0  0  0  0  0  0  0  0  0  0  0  0
    8.7392  -15.4137   24.1223 O   0  0  0  0  0  0  0  0  0  0  0  0
    8.6880  -16.6778   24.0954 O   0  0  0  0  0  0  0  0  0  0  0  0
   12.8565  -17.3133   31.5978 C   0  0  0  0  0  0  0  0  0  0  0  0
   12.3343  -16.6399   30.5131 C   0  0  0  0  0  0  0  0  0  0  0  0
   12.7694  -16.9425   29.2452 C   0  0  0  0  0  0  0  0  0  0  0  0
   12.2741  -16.2959   28.1487 C   0  0  0  0  0  0  0  0  0  0  0  0
   11.3106  -15.3141   28.3377 C   0  0  0  0  0  0  0  0  0  0  0  0
   10.7917  -14.5978   27.1544 C   0  0  1  0  0  0  0  0  0  0  0  0
   10.2733  -15.5434   26.1214 N   0  0  0  0  0  0  0  0  0  0  0  0
    9.6470  -14.8059   25.0074 C   0  0  0  0  0  0  0  0  0  0  0  0
    9.2304  -16.3970   26.7102 O   0  0  0  0  0  0  0  0  0  0  0  0
    8.0626  -15.9438   26.8100 C   0  0  0  0  0  0  0  0  0  0  0  0
   10.8676  -15.0022   29.6008 C   0  0  0  0  0  0  0  0  0  0  0  0
   11.3797  -15.6655   30.6879 O   0  0  0  0  0  0  0  0  0  0  0  0
  2  1  1  0
  3  2  2  0
  4  2  1  0
  5  6  1  0
  5  4  1  0
  7  6  1  0
  7  8  1  0
  8 10  1  0
  8  9  1  1
 10 11  2  0
 12 10  1  0
 12 13  1  0
 13 14  1  1
 14 15  1  0
 16 17  2  0
 16 13  1  0
 18 19  1  0
 19 29  2  0
 20 19  1  0
 20 21  2  0
 21 22  1  0
 22 28  2  0
 22 23  1  0
 24 23  1  6
 24 26  1  0
 24 25  1  0
 25 16  1  0
 26 30  1  0
 27 26  2  0
 29 28  1  0
M  END
$$$$
