RCY.pdb
     RDKit          3D

 30 30  0  0  1  0  0  0  0  0999 V2000
    8.8367  -21.4994   16.0233 N   0  0  0  0  0  0  0  0  0  0  0  0
    8.2069  -20.2993   15.6337 C   0  0  0  0  0  0  0  0  0  0  0  0
    7.9486  -20.0910   14.3784 N   0  0  0  0  0  0  0  0  0  0  0  0
    7.8457  -19.3070   16.5831 N   0  0  0  0  0  0  0  0  0  0  0  0
    7.9109  -19.6639   17.9915 C   0  0  0  0  0  0  0  0  0  0  0  0
    9.3548  -19.7253   18.4588 C   0  0  0  0  0  0  0  0  0  0  0  0
    9.7321  -18.3811   19.0141 C   0  0  0  0  0  0  0  0  0  0  0  0
    9.6061  -18.3692   20.5018 C   0  0  2  0  0  0  0  0  0  0  0  0
    8.2523  -18.6856   20.8725 N   0  0  0  0  0  0  0  0  0  0  0  0
    9.9703  -17.0306   21.0277 C   0  0  0  0  0  0  0  0  0  0  0  0
   11.1002  -16.5027   20.7472 O   0  0  0  0  0  0  0  0  0  0  0  0
    7.4955  -19.2193   14.0480 N   0  0  0  0  0  0  0  0  0  0  0  0
    9.1052  -16.2699   21.8570 C   0  0  1  0  0  0  0  0  0  0  0  0
    9.3706  -14.9270   22.2853 C   0  0  0  0  0  0  0  0  0  0  0  0
    8.2395  -13.9777   21.9659 S   0  0  0  0  0  0  0  0  0  0  0  0
    6.7288  -14.3435   22.8526 C   0  0  0  0  0  0  0  0  0  0  0  0
    9.7431  -14.8640   23.7329 O   0  0  0  0  0  0  0  0  0  0  0  0
   10.3377  -13.8600   24.2228 O   0  0  0  0  0  0  0  0  0  0  0  0
    5.5361  -11.2004   25.9352 C   0  0  0  0  0  0  0  0  0  0  0  0
    6.2385  -12.3673   26.1540 C   0  0  0  0  0  0  0  0  0  0  0  0
    7.5160  -12.3132   26.6572 C   0  0  0  0  0  0  0  0  0  0  0  0
    8.2402  -13.4485   26.8862 C   0  0  0  0  0  0  0  0  0  0  0  0
    7.6572  -14.6754   26.5984 C   0  0  0  0  0  0  0  0  0  0  0  0
    8.4485  -15.9026   26.8234 C   0  0  2  0  0  0  0  0  0  0  0  0
    9.7181  -15.8912   26.0375 N   0  0  0  0  0  0  0  0  0  0  0  0
    9.4352  -15.9352   24.5900 C   0  0  0  0  0  0  0  0  0  0  0  0
   10.5087  -17.0898   26.3561 O   0  0  0  0  0  0  0  0  0  0  0  0
   10.8866  -17.2678   27.5413 C   0  0  0  0  0  0  0  0  0  0  0  0
    6.3803  -14.7426   26.0945 C   0  0  0  0  0  0  0  0  0  0  0  0
    5.6715  -13.5883   25.8727 O   0  0  0  0  0  0  0  0  0  0  0  0
  2  1  1  0
  3  2  2  0
  4  2  1  0
  5  6  1  0
  5  4  1  0
  7  6  1  0
  7  8  1  0
  8 10  1  0
  8  9  1  6
 10 11  2  0
 12 10  1  0
 12 13  1  0
 13 14  1  6
 14 15  1  0
 16 17  2  0
 16 13  1  0
 18 19  1  0
 19 29  2  0
 20 19  1  0
 20 21  2  0
 21 22  1  0
 22 28  2  0
 22 23  1  0
 24 23  1  6
 24 26  1  0
 24 25  1  0
 25 16  1  0
 26 30  1  0
 27 26  2  0
 29 28  1  0
M  END
$$$$
