RCY.pdb
     RDKit          3D

 30 30  0  0  1  0  0  0  0  0999 V2000
    9.6071  -30.0810   15.5199 N   0  0  0  0  0  0  0  0  0  0  0  0
    8.5243  -30.0911   16.4232 C   0  0  0  0  0  0  0  0  0  0  0  0
    7.7873  -31.1551   16.5262 N   0  0  0  0  0  0  0  0  0  0  0  0
    8.2167  -28.9620   17.2278 N   0  0  0  0  0  0  0  0  0  0  0  0
    9.0326  -27.7700   17.0593 C   0  0  0  0  0  0  0  0  0  0  0  0
    8.5379  -26.6542   17.9635 C   0  0  0  0  0  0  0  0  0  0  0  0
    9.3905  -25.4394   17.7291 C   0  0  0  0  0  0  0  0  0  0  0  0
    9.0236  -24.3450   18.6763 C   0  0  2  0  0  0  0  0  0  0  0  0
    8.0405  -23.4899   18.0658 N   0  0  0  0  0  0  0  0  0  0  0  0
   10.2296  -23.5541   19.0240 C   0  0  0  0  0  0  0  0  0  0  0  0
   11.0678  -23.2089   18.1228 O   0  0  0  0  0  0  0  0  0  0  0  0
    7.0046  -31.2180   17.2028 N   0  0  0  0  0  0  0  0  0  0  0  0
   10.5209  -23.1410   20.3504 C   0  0  1  0  0  0  0  0  0  0  0  0
   11.6765  -22.3776   20.7237 C   0  0  0  0  0  0  0  0  0  0  0  0
   11.3216  -21.0530   21.3576 S   0  0  0  0  0  0  0  0  0  0  0  0
   12.7181  -19.9474   21.5299 C   0  0  0  0  0  0  0  0  0  0  0  0
   12.6112  -23.1630   21.5884 O   0  0  0  0  0  0  0  0  0  0  0  0
   12.2263  -23.6964   22.6695 O   0  0  0  0  0  0  0  0  0  0  0  0
   12.8757  -29.4197   19.3446 C   0  0  0  0  0  0  0  0  0  0  0  0
   13.5834  -28.3168   19.7754 C   0  0  0  0  0  0  0  0  0  0  0  0
   14.4341  -28.4257   20.8490 C   0  0  0  0  0  0  0  0  0  0  0  0
   15.1502  -27.3545   21.3022 C   0  0  0  0  0  0  0  0  0  0  0  0
   15.0032  -26.1364   20.6520 C   0  0  0  0  0  0  0  0  0  0  0  0
   15.7592  -24.9717   21.1563 C   0  0  2  0  0  0  0  0  0  0  0  0
   14.9133  -24.0997   22.0246 N   0  0  0  0  0  0  0  0  0  0  0  0
   13.9558  -23.3262   21.2109 C   0  0  0  0  0  0  0  0  0  0  0  0
   15.7631  -23.1263   22.7269 O   0  0  0  0  0  0  0  0  0  0  0  0
   16.6286  -23.5498   23.5336 C   0  0  0  0  0  0  0  0  0  0  0  0
   14.1552  -26.0147   19.5773 C   0  0  0  0  0  0  0  0  0  0  0  0
   13.4458  -27.1051   19.1394 O   0  0  0  0  0  0  0  0  0  0  0  0
  2  1  1  0
  3  2  2  0
  4  2  1  0
  5  6  1  0
  5  4  1  0
  7  6  1  0
  7  8  1  0
  8 10  1  0
  8  9  1  6
 10 11  2  0
 12 10  1  0
 12 13  1  0
 13 14  1  1
 14 15  1  0
 16 17  2  0
 16 13  1  0
 18 19  1  0
 19 29  2  0
 20 19  1  0
 20 21  2  0
 21 22  1  0
 22 28  2  0
 22 23  1  0
 24 23  1  1
 24 26  1  0
 24 25  1  0
 25 16  1  0
 26 30  1  0
 27 26  2  0
 29 28  1  0
M  END
$$$$
