RCY.pdb
     RDKit          3D

 30 30  0  0  1  0  0  0  0  0999 V2000
    7.1404  -16.0655   13.7397 N   0  0  0  0  0  0  0  0  0  0  0  0
    8.2377  -15.1964   13.5685 C   0  0  0  0  0  0  0  0  0  0  0  0
    9.1356  -15.4693   12.6712 N   0  0  0  0  0  0  0  0  0  0  0  0
    8.3875  -14.0241   14.3558 N   0  0  0  0  0  0  0  0  0  0  0  0
    8.4563  -14.1842   15.7997 C   0  0  0  0  0  0  0  0  0  0  0  0
    7.0646  -14.1420   16.4069 C   0  0  0  0  0  0  0  0  0  0  0  0
    7.1198  -13.3224   17.6649 C   0  0  0  0  0  0  0  0  0  0  0  0
    8.3283  -13.6700   18.4700 C   0  0  2  0  0  0  0  0  0  0  0  0
    9.0278  -14.7593   17.8420 N   0  0  0  0  0  0  0  0  0  0  0  0
    7.9240  -14.0590   19.8434 C   0  0  0  0  0  0  0  0  0  0  0  0
    6.9673  -13.4561   20.4393 O   0  0  0  0  0  0  0  0  0  0  0  0
    9.9533  -14.8538   12.5073 N   0  0  0  0  0  0  0  0  0  0  0  0
    8.5611  -15.1022   20.5650 C   0  0  2  0  0  0  0  0  0  0  0  0
    8.2080  -15.4951   21.8985 C   0  0  0  0  0  0  0  0  0  0  0  0
    6.9708  -16.3610   21.9441 S   0  0  0  0  0  0  0  0  0  0  0  0
    7.0301  -17.7503   20.8178 C   0  0  0  0  0  0  0  0  0  0  0  0
    9.3523  -16.1410   22.6137 O   0  0  0  0  0  0  0  0  0  0  0  0
   10.5201  -16.1507   22.1261 O   0  0  0  0  0  0  0  0  0  0  0  0
   11.5475  -14.3961   30.8210 C   0  0  0  0  0  0  0  0  0  0  0  0
   10.8996  -14.6935   29.6400 C   0  0  0  0  0  0  0  0  0  0  0  0
   10.4367  -15.9676   29.4152 C   0  0  0  0  0  0  0  0  0  0  0  0
    9.7909  -16.2970   28.2575 C   0  0  0  0  0  0  0  0  0  0  0  0
    9.6067  -15.3106   27.2979 C   0  0  0  0  0  0  0  0  0  0  0  0
    8.9294  -15.6719   26.0356 C   0  0  1  0  0  0  0  0  0  0  0  0
    9.8658  -16.3305   25.0769 N   0  0  0  0  0  0  0  0  0  0  0  0
    9.1495  -16.7591   23.8602 C   0  0  0  0  0  0  0  0  0  0  0  0
   10.4316  -17.5417   25.6901 O   0  0  0  0  0  0  0  0  0  0  0  0
    9.7333  -18.5860   25.7228 C   0  0  0  0  0  0  0  0  0  0  0  0
   10.0654  -14.0326   27.5109 C   0  0  0  0  0  0  0  0  0  0  0  0
   10.7115  -13.7247   28.6821 O   0  0  0  0  0  0  0  0  0  0  0  0
  2  1  1  0
  3  2  2  0
  4  2  1  0
  5  6  1  0
  5  4  1  0
  7  6  1  0
  7  8  1  0
  8 10  1  0
  8  9  1  6
 10 11  2  0
 12 10  1  0
 12 13  1  0
 13 14  1  6
 14 15  1  0
 16 17  2  0
 16 13  1  0
 18 19  1  0
 19 29  2  0
 20 19  1  0
 20 21  2  0
 21 22  1  0
 22 28  2  0
 22 23  1  0
 24 23  1  6
 24 26  1  0
 24 25  1  0
 25 16  1  0
 26 30  1  0
 27 26  2  0
 29 28  1  0
M  END
$$$$
