RCY.pdb
     RDKit          3D

 30 30  0  0  1  0  0  0  0  0999 V2000
   17.6407  -19.2982   17.6238 N   0  0  0  0  0  0  0  0  0  0  0  0
   16.8678  -19.5637   16.4746 C   0  0  0  0  0  0  0  0  0  0  0  0
   17.3534  -19.2938   15.3010 N   0  0  0  0  0  0  0  0  0  0  0  0
   15.5652  -20.1215   16.5672 N   0  0  0  0  0  0  0  0  0  0  0  0
   14.5655  -19.3817   17.3210 C   0  0  0  0  0  0  0  0  0  0  0  0
   14.9535  -19.3053   18.7876 C   0  0  0  0  0  0  0  0  0  0  0  0
   14.0408  -18.3263   19.4702 C   0  0  0  0  0  0  0  0  0  0  0  0
   12.6518  -18.8677   19.5536 C   0  0  2  0  0  0  0  0  0  0  0  0
   12.1293  -19.0586   18.2266 N   0  0  0  0  0  0  0  0  0  0  0  0
   11.7868  -17.9230   20.3020 C   0  0  0  0  0  0  0  0  0  0  0  0
   12.2701  -16.8522   20.8059 O   0  0  0  0  0  0  0  0  0  0  0  0
   16.8153  -19.4632   14.4315 N   0  0  0  0  0  0  0  0  0  0  0  0
   10.3990  -18.1451   20.5008 C   0  0  1  0  0  0  0  0  0  0  0  0
    9.5247  -17.2359   21.1836 C   0  0  0  0  0  0  0  0  0  0  0  0
    8.0846  -17.3715   20.7472 S   0  0  0  0  0  0  0  0  0  0  0  0
    6.9415  -16.4372   21.7584 C   0  0  0  0  0  0  0  0  0  0  0  0
    9.6563  -17.3419   22.6701 O   0  0  0  0  0  0  0  0  0  0  0  0
    9.5875  -18.4565   23.2654 O   0  0  0  0  0  0  0  0  0  0  0  0
   10.7087  -14.9772   31.0545 C   0  0  0  0  0  0  0  0  0  0  0  0
   10.5955  -14.9624   29.6798 C   0  0  0  0  0  0  0  0  0  0  0  0
    9.9220  -13.9379   29.0594 C   0  0  0  0  0  0  0  0  0  0  0  0
    9.7907  -13.8915   27.7005 C   0  0  0  0  0  0  0  0  0  0  0  0
   10.3564  -14.9100   26.9452 C   0  0  0  0  0  0  0  0  0  0  0  0
   10.1945  -14.8731   25.4772 C   0  0  2  0  0  0  0  0  0  0  0  0
    9.9047  -16.2282   24.9207 N   0  0  0  0  0  0  0  0  0  0  0  0
    9.8623  -16.1877   23.4463 C   0  0  0  0  0  0  0  0  0  0  0  0
    8.5801  -16.6774   25.3753 O   0  0  0  0  0  0  0  0  0  0  0  0
    7.5566  -16.1774   24.8446 C   0  0  0  0  0  0  0  0  0  0  0  0
   11.0323  -15.9403   27.5541 C   0  0  0  0  0  0  0  0  0  0  0  0
   11.1515  -15.9658   28.9212 O   0  0  0  0  0  0  0  0  0  0  0  0
  2  1  1  0
  3  2  2  0
  4  2  1  0
  5  6  1  0
  5  4  1  0
  7  6  1  0
  7  8  1  0
  8 10  1  0
  8  9  1  6
 10 11  2  0
 12 10  1  0
 12 13  1  0
 13 14  1  1
 14 15  1  0
 16 17  2  0
 16 13  1  0
 18 19  1  0
 19 29  2  0
 20 19  1  0
 20 21  2  0
 21 22  1  0
 22 28  2  0
 22 23  1  0
 24 23  1  6
 24 26  1  0
 24 25  1  0
 25 16  1  0
 26 30  1  0
 27 26  2  0
 29 28  1  0
M  END
$$$$
