RCY.pdb
     RDKit          3D

 30 30  0  0  1  0  0  0  0  0999 V2000
    9.6510  -14.0149   19.2341 N   0  0  0  0  0  0  0  0  0  0  0  0
    8.4797  -13.4659   18.6726 C   0  0  0  0  0  0  0  0  0  0  0  0
    8.4472  -12.2041   18.3681 N   0  0  0  0  0  0  0  0  0  0  0  0
    7.3282  -14.2609   18.4300 N   0  0  0  0  0  0  0  0  0  0  0  0
    7.1158  -15.4201   19.2821 C   0  0  0  0  0  0  0  0  0  0  0  0
    7.4688  -15.0936   20.7229 C   0  0  0  0  0  0  0  0  0  0  0  0
    6.4451  -15.7310   21.6191 C   0  0  0  0  0  0  0  0  0  0  0  0
    6.8593  -17.1156   21.9941 C   0  0  2  0  0  0  0  0  0  0  0  0
    6.0677  -18.0692   21.2631 N   0  0  0  0  0  0  0  0  0  0  0  0
    6.6718  -17.3204   23.4514 C   0  0  0  0  0  0  0  0  0  0  0  0
    5.5751  -16.9951   24.0220 O   0  0  0  0  0  0  0  0  0  0  0  0
    7.6059  -11.7596   17.9571 N   0  0  0  0  0  0  0  0  0  0  0  0
    7.6769  -17.8779   24.2842 C   0  0  2  0  0  0  0  0  0  0  0  0
    7.6825  -17.7872   25.7157 C   0  0  0  0  0  0  0  0  0  0  0  0
    7.5696  -19.1359   26.3870 S   0  0  0  0  0  0  0  0  0  0  0  0
    8.9418  -20.2277   26.0305 C   0  0  0  0  0  0  0  0  0  0  0  0
    8.8637  -17.0223   26.2238 O   0  0  0  0  0  0  0  0  0  0  0  0
    9.9564  -16.9869   25.5865 O   0  0  0  0  0  0  0  0  0  0  0  0
    5.7072  -11.8108   25.2326 C   0  0  0  0  0  0  0  0  0  0  0  0
    6.6284  -12.4063   26.0691 C   0  0  0  0  0  0  0  0  0  0  0  0
    7.7012  -13.0800   25.5369 C   0  0  0  0  0  0  0  0  0  0  0  0
    8.6323  -13.6812   26.3353 C   0  0  0  0  0  0  0  0  0  0  0  0
    8.4757  -13.5997   27.7125 C   0  0  0  0  0  0  0  0  0  0  0  0
    9.4694  -14.2698   28.5765 C   0  0  2  0  0  0  0  0  0  0  0  0
    9.9244  -15.5656   27.9901 N   0  0  0  0  0  0  0  0  0  0  0  0
    8.7813  -16.3174   27.4376 C   0  0  0  0  0  0  0  0  0  0  0  0
   10.5200  -16.4032   29.0420 O   0  0  0  0  0  0  0  0  0  0  0  0
    9.9361  -17.4659   29.3722 C   0  0  0  0  0  0  0  0  0  0  0  0
    7.4068  -12.9290   28.2569 C   0  0  0  0  0  0  0  0  0  0  0  0
    6.4836  -12.3324   27.4347 O   0  0  0  0  0  0  0  0  0  0  0  0
  2  1  1  0
  3  2  2  0
  4  2  1  0
  5  6  1  0
  5  4  1  0
  7  6  1  0
  7  8  1  0
  8 10  1  0
  8  9  1  6
 10 11  2  0
 12 10  1  0
 12 13  1  0
 13 14  1  6
 14 15  1  0
 16 17  2  0
 16 13  1  0
 18 19  1  0
 19 29  2  0
 20 19  1  0
 20 21  2  0
 21 22  1  0
 22 28  2  0
 22 23  1  0
 24 23  1  6
 24 26  1  0
 24 25  1  0
 25 16  1  0
 26 30  1  0
 27 26  2  0
 29 28  1  0
M  END
$$$$
