RCY.pdb
     RDKit          3D

 30 30  0  0  1  0  0  0  0  0999 V2000
    3.4009  -20.4886   18.2573 N   0  0  0  0  0  0  0  0  0  0  0  0
    4.3826  -20.5649   17.2479 C   0  0  0  0  0  0  0  0  0  0  0  0
    4.3255  -21.5211   16.3713 N   0  0  0  0  0  0  0  0  0  0  0  0
    5.4380  -19.6184   17.1640 N   0  0  0  0  0  0  0  0  0  0  0  0
    5.5878  -18.6747   18.2603 C   0  0  0  0  0  0  0  0  0  0  0  0
    6.9941  -18.7401   18.8306 C   0  0  0  0  0  0  0  0  0  0  0  0
    7.0477  -17.8817   20.0626 C   0  0  0  0  0  0  0  0  0  0  0  0
    7.3855  -16.4707   19.7097 C   0  0  2  0  0  0  0  0  0  0  0  0
    8.0899  -16.4439   18.4554 N   0  0  0  0  0  0  0  0  0  0  0  0
    8.2310  -15.8740   20.7726 C   0  0  0  0  0  0  0  0  0  0  0  0
    9.4957  -16.0596   20.7838 O   0  0  0  0  0  0  0  0  0  0  0  0
    5.0180  -21.6057   15.6047 N   0  0  0  0  0  0  0  0  0  0  0  0
    7.6994  -15.0776   21.8204 C   0  0  2  0  0  0  0  0  0  0  0  0
    8.4807  -14.5131   22.8826 C   0  0  0  0  0  0  0  0  0  0  0  0
    7.6993  -13.5318   23.7246 S   0  0  0  0  0  0  0  0  0  0  0  0
    6.8224  -14.2974   25.0836 C   0  0  0  0  0  0  0  0  0  0  0  0
    9.1217  -15.5678   23.7281 O   0  0  0  0  0  0  0  0  0  0  0  0
    8.5313  -16.6548   23.9952 O   0  0  0  0  0  0  0  0  0  0  0  0
   11.0660  -14.2542   31.2987 C   0  0  0  0  0  0  0  0  0  0  0  0
   10.7691  -14.8105   30.0719 C   0  0  0  0  0  0  0  0  0  0  0  0
   11.2364  -16.0639   29.7574 C   0  0  0  0  0  0  0  0  0  0  0  0
   10.9615  -16.6452   28.5523 C   0  0  0  0  0  0  0  0  0  0  0  0
   10.1917  -15.9399   27.6369 C   0  0  0  0  0  0  0  0  0  0  0  0
    9.9139  -16.5580   26.3241 C   0  0  2  0  0  0  0  0  0  0  0  0
   10.9670  -16.2184   25.3214 N   0  0  0  0  0  0  0  0  0  0  0  0
   10.4119  -15.3688   24.2502 C   0  0  0  0  0  0  0  0  0  0  0  0
   11.4572  -17.4487   24.6818 O   0  0  0  0  0  0  0  0  0  0  0  0
   12.4276  -18.0552   25.2010 C   0  0  0  0  0  0  0  0  0  0  0  0
    9.7187  -14.6854   27.9395 C   0  0  0  0  0  0  0  0  0  0  0  0
   10.0076  -14.1214   29.1571 O   0  0  0  0  0  0  0  0  0  0  0  0
  2  1  1  0
  3  2  2  0
  4  2  1  0
  5  6  1  0
  5  4  1  0
  7  6  1  0
  7  8  1  0
  8 10  1  0
  8  9  1  6
 10 11  2  0
 12 10  1  0
 12 13  1  0
 13 14  1  6
 14 15  1  0
 16 17  2  0
 16 13  1  0
 18 19  1  0
 19 29  2  0
 20 19  1  0
 20 21  2  0
 21 22  1  0
 22 28  2  0
 22 23  1  0
 24 23  1  1
 24 26  1  0
 24 25  1  0
 25 16  1  0
 26 30  1  0
 27 26  2  0
 29 28  1  0
M  END
$$$$
