RCY.pdb
     RDKit          3D

 30 30  0  0  1  0  0  0  0  0999 V2000
    7.2239  -17.0381   14.9411 N   0  0  0  0  0  0  0  0  0  0  0  0
    8.3933  -17.0696   15.7286 C   0  0  0  0  0  0  0  0  0  0  0  0
    9.3995  -17.7979   15.3504 N   0  0  0  0  0  0  0  0  0  0  0  0
    8.5002  -16.3219   16.9311 N   0  0  0  0  0  0  0  0  0  0  0  0
    7.4780  -16.5240   17.9456 C   0  0  0  0  0  0  0  0  0  0  0  0
    7.1294  -15.2083   18.6197 C   0  0  0  0  0  0  0  0  0  0  0  0
    7.9922  -15.0565   19.8404 C   0  0  0  0  0  0  0  0  0  0  0  0
    7.6799  -13.7824   20.5536 C   0  0  2  0  0  0  0  0  0  0  0  0
    8.1605  -12.6681   19.7805 N   0  0  0  0  0  0  0  0  0  0  0  0
    8.3253  -13.7815   21.8894 C   0  0  0  0  0  0  0  0  0  0  0  0
    9.5766  -13.5504   22.0113 O   0  0  0  0  0  0  0  0  0  0  0  0
   10.3105  -17.7753   15.8442 N   0  0  0  0  0  0  0  0  0  0  0  0
    7.6087  -14.0321   23.0887 C   0  0  2  0  0  0  0  0  0  0  0  0
    8.2078  -14.0932   24.3905 C   0  0  0  0  0  0  0  0  0  0  0  0
    7.4827  -13.2434   25.4077 S   0  0  0  0  0  0  0  0  0  0  0  0
    5.8013  -13.7746   25.7129 C   0  0  0  0  0  0  0  0  0  0  0  0
    8.3649  -15.5018   24.8693 O   0  0  0  0  0  0  0  0  0  0  0  0
    7.4254  -16.3443   24.7750 O   0  0  0  0  0  0  0  0  0  0  0  0
   10.1806  -18.4088   19.6863 C   0  0  0  0  0  0  0  0  0  0  0  0
   10.3607  -18.2988   21.0496 C   0  0  0  0  0  0  0  0  0  0  0  0
   11.0728  -17.2417   21.5629 C   0  0  0  0  0  0  0  0  0  0  0  0
   11.2703  -17.1014   22.9072 C   0  0  0  0  0  0  0  0  0  0  0  0
   10.7327  -18.0571   23.7590 C   0  0  0  0  0  0  0  0  0  0  0  0
   10.9660  -17.9191   25.2113 C   0  0  2  0  0  0  0  0  0  0  0  0
    9.7913  -17.3088   25.9024 N   0  0  0  0  0  0  0  0  0  0  0  0
    9.5779  -15.9233   25.4420 C   0  0  0  0  0  0  0  0  0  0  0  0
   10.0460  -17.2451   27.3494 O   0  0  0  0  0  0  0  0  0  0  0  0
   10.2420  -18.3160   27.9770 C   0  0  0  0  0  0  0  0  0  0  0  0
   10.0187  -19.1192   23.2577 C   0  0  0  0  0  0  0  0  0  0  0  0
    9.8330  -19.2393   21.9030 O   0  0  0  0  0  0  0  0  0  0  0  0
  2  1  1  0
  3  2  2  0
  4  2  1  0
  5  6  1  0
  5  4  1  0
  7  6  1  0
  7  8  1  0
  8 10  1  0
  8  9  1  6
 10 11  2  0
 12 10  1  0
 12 13  1  0
 13 14  1  6
 14 15  1  0
 16 17  2  0
 16 13  1  0
 18 19  1  0
 19 29  2  0
 20 19  1  0
 20 21  2  0
 21 22  1  0
 22 28  2  0
 22 23  1  0
 24 23  1  6
 24 26  1  0
 24 25  1  0
 25 16  1  0
 26 30  1  0
 27 26  2  0
 29 28  1  0
M  END
$$$$
