RCY.pdb
     RDKit          3D

 30 30  0  0  1  0  0  0  0  0999 V2000
    7.1563  -19.3997   20.5455 N   0  0  0  0  0  0  0  0  0  0  0  0
    6.2487  -19.1693   21.5999 C   0  0  0  0  0  0  0  0  0  0  0  0
    5.7525  -20.1787   22.2486 N   0  0  0  0  0  0  0  0  0  0  0  0
    5.8609  -17.8553   21.9734 N   0  0  0  0  0  0  0  0  0  0  0  0
    6.1470  -16.7759   21.0417 C   0  0  0  0  0  0  0  0  0  0  0  0
    7.6314  -16.4536   21.0399 C   0  0  0  0  0  0  0  0  0  0  0  0
    7.8630  -15.2863   20.1227 C   0  0  0  0  0  0  0  0  0  0  0  0
    7.3104  -14.0314   20.7137 C   0  0  2  0  0  0  0  0  0  0  0  0
    7.6372  -12.9158   19.8659 N   0  0  0  0  0  0  0  0  0  0  0  0
    7.8812  -13.8176   22.0662 C   0  0  0  0  0  0  0  0  0  0  0  0
    9.1158  -13.5221   22.2161 O   0  0  0  0  0  0  0  0  0  0  0  0
    5.2208  -20.0577   23.1300 N   0  0  0  0  0  0  0  0  0  0  0  0
    7.1083  -13.9258   23.2519 C   0  0  2  0  0  0  0  0  0  0  0  0
    7.6142  -13.6811   24.5716 C   0  0  0  0  0  0  0  0  0  0  0  0
    6.7952  -12.6645   25.3319 S   0  0  0  0  0  0  0  0  0  0  0  0
    7.1606  -12.6192   27.0831 C   0  0  0  0  0  0  0  0  0  0  0  0
    7.7752  -14.9466   25.3533 O   0  0  0  0  0  0  0  0  0  0  0  0
    6.8006  -15.7259   25.5637 O   0  0  0  0  0  0  0  0  0  0  0  0
    8.5223  -19.7861   21.3388 C   0  0  0  0  0  0  0  0  0  0  0  0
    8.9403  -19.2062   22.5186 C   0  0  0  0  0  0  0  0  0  0  0  0
    9.6506  -18.0304   22.4895 C   0  0  0  0  0  0  0  0  0  0  0  0
   10.0799  -17.4286   23.6381 C   0  0  0  0  0  0  0  0  0  0  0  0
    9.7831  -18.0321   24.8529 C   0  0  0  0  0  0  0  0  0  0  0  0
   10.2674  -17.3944   26.0945 C   0  0  2  0  0  0  0  0  0  0  0  0
    9.2290  -16.5084   26.7000 N   0  0  0  0  0  0  0  0  0  0  0  0
    9.0312  -15.2997   25.8772 C   0  0  0  0  0  0  0  0  0  0  0  0
    9.6762  -16.0557   28.0259 O   0  0  0  0  0  0  0  0  0  0  0  0
    9.8124  -14.8232   28.2302 C   0  0  0  0  0  0  0  0  0  0  0  0
    9.0735  -19.2084   24.8952 C   0  0  0  0  0  0  0  0  0  0  0  0
    8.6523  -19.7948   23.7278 O   0  0  0  0  0  0  0  0  0  0  0  0
  2  1  1  0
  3  2  2  0
  4  2  1  0
  5  6  1  0
  5  4  1  0
  7  6  1  0
  7  8  1  0
  8 10  1  0
  8  9  1  6
 10 11  2  0
 12 10  1  0
 12 13  1  0
 13 14  1  6
 14 15  1  0
 16 17  2  0
 16 13  1  0
 18 19  1  0
 19 29  2  0
 20 19  1  0
 20 21  2  0
 21 22  1  0
 22 28  2  0
 22 23  1  0
 24 23  1  6
 24 26  1  0
 24 25  1  0
 25 16  1  0
 26 30  1  0
 27 26  2  0
 29 28  1  0
M  END
$$$$
