RCY.pdb
     RDKit          3D

 30 30  0  0  1  0  0  0  0  0999 V2000
    9.3292  -13.2424   18.5153 N   0  0  0  0  0  0  0  0  0  0  0  0
    8.0518  -13.5451   18.0003 C   0  0  0  0  0  0  0  0  0  0  0  0
    7.0918  -12.6794   18.1216 N   0  0  0  0  0  0  0  0  0  0  0  0
    7.7860  -14.7786   17.3488 N   0  0  0  0  0  0  0  0  0  0  0  0
    8.8922  -15.7084   17.1852 C   0  0  0  0  0  0  0  0  0  0  0  0
    8.9600  -16.6675   18.3611 C   0  0  0  0  0  0  0  0  0  0  0  0
   10.2859  -16.4883   19.0446 C   0  0  0  0  0  0  0  0  0  0  0  0
   10.4188  -17.4296   20.1960 C   0  0  2  0  0  0  0  0  0  0  0  0
    9.8717  -18.7107   19.8357 N   0  0  0  0  0  0  0  0  0  0  0  0
    9.6971  -16.8896   21.3743 C   0  0  0  0  0  0  0  0  0  0  0  0
    9.9697  -15.7278   21.8325 O   0  0  0  0  0  0  0  0  0  0  0  0
    6.1229  -12.8870   17.8175 N   0  0  0  0  0  0  0  0  0  0  0  0
    8.6814  -17.6141   22.0512 C   0  0  1  0  0  0  0  0  0  0  0  0
    8.0350  -17.1695   23.2519 C   0  0  0  0  0  0  0  0  0  0  0  0
    6.8281  -18.0050   23.6094 S   0  0  0  0  0  0  0  0  0  0  0  0
    6.0265  -17.4898   25.1240 C   0  0  0  0  0  0  0  0  0  0  0  0
    8.9901  -17.0722   24.3992 O   0  0  0  0  0  0  0  0  0  0  0  0
    9.8197  -17.9936   24.6530 O   0  0  0  0  0  0  0  0  0  0  0  0
    5.0870  -11.8205   26.8652 C   0  0  0  0  0  0  0  0  0  0  0  0
    6.3247  -12.4287   26.8341 C   0  0  0  0  0  0  0  0  0  0  0  0
    6.8780  -12.7939   25.6305 C   0  0  0  0  0  0  0  0  0  0  0  0
    8.1013  -13.3978   25.5626 C   0  0  0  0  0  0  0  0  0  0  0  0
    8.7868  -13.6405   26.7455 C   0  0  0  0  0  0  0  0  0  0  0  0
   10.0993  -14.3150   26.6747 C   0  0  1  0  0  0  0  0  0  0  0  0
    9.9579  -15.7599   26.3249 N   0  0  0  0  0  0  0  0  0  0  0  0
    8.9846  -15.9381   25.2303 C   0  0  0  0  0  0  0  0  0  0  0  0
    9.4396  -16.5017   27.4842 O   0  0  0  0  0  0  0  0  0  0  0  0
   10.1039  -16.4984   28.5509 C   0  0  0  0  0  0  0  0  0  0  0  0
    8.2439  -13.2801   27.9556 C   0  0  0  0  0  0  0  0  0  0  0  0
    7.0130  -12.6743   27.9992 O   0  0  0  0  0  0  0  0  0  0  0  0
  2  1  1  0
  3  2  2  0
  4  2  1  0
  5  6  1  0
  5  4  1  0
  7  6  1  0
  7  8  1  0
  8 10  1  0
  8  9  1  6
 10 11  2  0
 12 10  1  0
 12 13  1  0
 13 14  1  1
 14 15  1  0
 16 17  2  0
 16 13  1  0
 18 19  1  0
 19 29  2  0
 20 19  1  0
 20 21  2  0
 21 22  1  0
 22 28  2  0
 22 23  1  0
 24 23  1  6
 24 26  1  0
 24 25  1  0
 25 16  1  0
 26 30  1  0
 27 26  2  0
 29 28  1  0
M  END
$$$$
