RCY.pdb
     RDKit          3D

 30 30  0  0  1  0  0  0  0  0999 V2000
   12.9230  -19.2247   14.5502 N   0  0  0  0  0  0  0  0  0  0  0  0
   12.1162  -20.3714   14.3992 C   0  0  0  0  0  0  0  0  0  0  0  0
   12.4542  -21.2822   13.5377 N   0  0  0  0  0  0  0  0  0  0  0  0
   10.9372  -20.5575   15.1685 N   0  0  0  0  0  0  0  0  0  0  0  0
   10.3469  -19.3851   15.7946 C   0  0  0  0  0  0  0  0  0  0  0  0
   10.7910  -19.2746   17.2430 C   0  0  0  0  0  0  0  0  0  0  0  0
   10.3182  -17.9558   17.7857 C   0  0  0  0  0  0  0  0  0  0  0  0
    9.2003  -18.1531   18.7556 C   0  0  2  0  0  0  0  0  0  0  0  0
    7.9472  -18.1703   18.0486 N   0  0  0  0  0  0  0  0  0  0  0  0
    9.1984  -17.0547   19.7527 C   0  0  0  0  0  0  0  0  0  0  0  0
    9.3846  -15.8428   19.3913 O   0  0  0  0  0  0  0  0  0  0  0  0
   11.8774  -22.1283   13.3778 N   0  0  0  0  0  0  0  0  0  0  0  0
    8.9944  -17.2768   21.1397 C   0  0  2  0  0  0  0  0  0  0  0  0
    9.1608  -16.2742   22.1519 C   0  0  0  0  0  0  0  0  0  0  0  0
    7.8646  -15.9213   22.8431 S   0  0  0  0  0  0  0  0  0  0  0  0
    6.9885  -17.3429   23.4862 C   0  0  0  0  0  0  0  0  0  0  0  0
   10.2217  -16.6456   23.1391 O   0  0  0  0  0  0  0  0  0  0  0  0
   10.4271  -17.8490   23.4725 O   0  0  0  0  0  0  0  0  0  0  0  0
   10.1789  -14.9206   31.4071 C   0  0  0  0  0  0  0  0  0  0  0  0
   10.1120  -14.9886   30.0309 C   0  0  0  0  0  0  0  0  0  0  0  0
    9.9315  -13.8411   29.2967 C   0  0  0  0  0  0  0  0  0  0  0  0
    9.8609  -13.8716   27.9330 C   0  0  0  0  0  0  0  0  0  0  0  0
    9.9759  -15.0974   27.2909 C   0  0  0  0  0  0  0  0  0  0  0  0
    9.8758  -15.1342   25.8174 C   0  0  1  0  0  0  0  0  0  0  0  0
   11.1734  -15.5190   25.1865 N   0  0  0  0  0  0  0  0  0  0  0  0
   11.0234  -15.6498   23.7245 C   0  0  0  0  0  0  0  0  0  0  0  0
   11.6001  -16.8322   25.6927 O   0  0  0  0  0  0  0  0  0  0  0  0
   12.6567  -16.9059   26.3689 C   0  0  0  0  0  0  0  0  0  0  0  0
   10.1564  -16.2521   28.0141 C   0  0  0  0  0  0  0  0  0  0  0  0
   10.2245  -16.1970   29.3839 O   0  0  0  0  0  0  0  0  0  0  0  0
  2  1  1  0
  3  2  2  0
  4  2  1  0
  5  6  1  0
  5  4  1  0
  7  6  1  0
  7  8  1  0
  8 10  1  0
  8  9  1  6
 10 11  2  0
 12 10  1  0
 12 13  1  0
 13 14  1  6
 14 15  1  0
 16 17  2  0
 16 13  1  0
 18 19  1  0
 19 29  2  0
 20 19  1  0
 20 21  2  0
 21 22  1  0
 22 28  2  0
 22 23  1  0
 24 23  1  6
 24 26  1  0
 24 25  1  0
 25 16  1  0
 26 30  1  0
 27 26  2  0
 29 28  1  0
M  END
$$$$
