RCY.pdb
     RDKit          3D

 30 30  0  0  1  0  0  0  0  0999 V2000
    9.2687  -14.9650   14.8509 N   0  0  0  0  0  0  0  0  0  0  0  0
    8.5739  -13.7379   14.8450 C   0  0  0  0  0  0  0  0  0  0  0  0
    8.8716  -12.8388   13.9568 N   0  0  0  0  0  0  0  0  0  0  0  0
    7.5516  -13.4577   15.7899 N   0  0  0  0  0  0  0  0  0  0  0  0
    7.1731  -14.5183   16.7102 C   0  0  0  0  0  0  0  0  0  0  0  0
    8.2184  -14.6747   17.8011 C   0  0  0  0  0  0  0  0  0  0  0  0
    7.7566  -15.7423   18.7521 C   0  0  0  0  0  0  0  0  0  0  0  0
    8.7136  -16.8883   18.7658 C   0  0  2  0  0  0  0  0  0  0  0  0
    8.0763  -18.0539   18.2131 N   0  0  0  0  0  0  0  0  0  0  0  0
    9.1473  -17.1661   20.1570 C   0  0  0  0  0  0  0  0  0  0  0  0
    8.2963  -17.4828   21.0567 O   0  0  0  0  0  0  0  0  0  0  0  0
    8.3614  -11.9387   13.8936 N   0  0  0  0  0  0  0  0  0  0  0  0
   10.5048  -17.0987   20.5662 C   0  0  2  0  0  0  0  0  0  0  0  0
   10.9470  -17.2299   21.9244 C   0  0  0  0  0  0  0  0  0  0  0  0
   12.4371  -17.4538   22.0345 S   0  0  0  0  0  0  0  0  0  0  0  0
   12.9906  -18.9675   21.2571 C   0  0  0  0  0  0  0  0  0  0  0  0
   10.5045  -16.0786   22.7712 O   0  0  0  0  0  0  0  0  0  0  0  0
   10.9719  -14.9142   22.6062 O   0  0  0  0  0  0  0  0  0  0  0  0
    5.8049  -10.6859   27.6183 C   0  0  0  0  0  0  0  0  0  0  0  0
    6.2823  -11.6650   26.7719 C   0  0  0  0  0  0  0  0  0  0  0  0
    5.8046  -12.9495   26.8727 C   0  0  0  0  0  0  0  0  0  0  0  0
    6.2547  -13.9435   26.0511 C   0  0  0  0  0  0  0  0  0  0  0  0
    7.2160  -13.6315   25.0989 C   0  0  0  0  0  0  0  0  0  0  0  0
    7.7206  -14.7112   24.2257 C   0  0  1  0  0  0  0  0  0  0  0  0
    9.0794  -15.1681   24.6439 N   0  0  0  0  0  0  0  0  0  0  0  0
    9.5463  -16.2710   23.7820 C   0  0  0  0  0  0  0  0  0  0  0  0
    9.0252  -15.6911   26.0174 O   0  0  0  0  0  0  0  0  0  0  0  0
    8.7919  -16.9137   26.1904 C   0  0  0  0  0  0  0  0  0  0  0  0
    7.7018  -12.3506   24.9885 C   0  0  0  0  0  0  0  0  0  0  0  0
    7.2345  -11.3679   25.8251 O   0  0  0  0  0  0  0  0  0  0  0  0
  2  1  1  0
  3  2  2  0
  4  2  1  0
  5  6  1  0
  5  4  1  0
  7  6  1  0
  7  8  1  0
  8 10  1  0
  8  9  1  1
 10 11  2  0
 12 10  1  0
 12 13  1  0
 13 14  1  6
 14 15  1  0
 16 17  2  0
 16 13  1  0
 18 19  1  0
 19 29  2  0
 20 19  1  0
 20 21  2  0
 21 22  1  0
 22 28  2  0
 22 23  1  0
 24 23  1  6
 24 26  1  0
 24 25  1  0
 25 16  1  0
 26 30  1  0
 27 26  2  0
 29 28  1  0
M  END
$$$$
