RCY.pdb
     RDKit          3D

 30 30  0  0  1  0  0  0  0  0999 V2000
    7.6581  -14.2051   13.3758 N   0  0  0  0  0  0  0  0  0  0  0  0
    8.9732  -14.1555   13.8822 C   0  0  0  0  0  0  0  0  0  0  0  0
    9.9683  -13.9971   13.0633 N   0  0  0  0  0  0  0  0  0  0  0  0
    9.2398  -14.2749   15.2720 N   0  0  0  0  0  0  0  0  0  0  0  0
    8.2483  -14.9497   16.0945 C   0  0  0  0  0  0  0  0  0  0  0  0
    7.5345  -13.9539   16.9923 C   0  0  0  0  0  0  0  0  0  0  0  0
    8.4335  -13.6302   18.1519 C   0  0  0  0  0  0  0  0  0  0  0  0
    8.4971  -14.7756   19.1076 C   0  0  2  0  0  0  0  0  0  0  0  0
    7.2684  -15.5218   19.0467 N   0  0  0  0  0  0  0  0  0  0  0  0
    8.7091  -14.2703   20.4862 C   0  0  0  0  0  0  0  0  0  0  0  0
    9.7328  -13.5603   20.7727 O   0  0  0  0  0  0  0  0  0  0  0  0
   10.9514  -13.9748   13.3910 N   0  0  0  0  0  0  0  0  0  0  0  0
    7.8078  -14.5384   21.5495 C   0  0  1  0  0  0  0  0  0  0  0  0
    8.0280  -14.1507   22.9129 C   0  0  0  0  0  0  0  0  0  0  0  0
    6.7714  -13.6546   23.5892 S   0  0  0  0  0  0  0  0  0  0  0  0
    7.0069  -13.2347   25.3127 C   0  0  0  0  0  0  0  0  0  0  0  0
    8.6812  -15.2382   23.7059 O   0  0  0  0  0  0  0  0  0  0  0  0
    8.0632  -16.2987   24.0141 O   0  0  0  0  0  0  0  0  0  0  0  0
   10.4734  -15.5491   31.8322 C   0  0  0  0  0  0  0  0  0  0  0  0
   10.1571  -15.3619   30.5026 C   0  0  0  0  0  0  0  0  0  0  0  0
    9.8318  -16.4419   29.7177 C   0  0  0  0  0  0  0  0  0  0  0  0
    9.5133  -16.2932   28.3978 C   0  0  0  0  0  0  0  0  0  0  0  0
    9.5235  -15.0157   27.8537 C   0  0  0  0  0  0  0  0  0  0  0  0
    9.2023  -14.8567   26.4205 C   0  0  1  0  0  0  0  0  0  0  0  0
   10.3919  -15.1191   25.5569 N   0  0  0  0  0  0  0  0  0  0  0  0
   10.0145  -15.1010   24.1306 C   0  0  0  0  0  0  0  0  0  0  0  0
   10.9250  -16.4598   25.8421 O   0  0  0  0  0  0  0  0  0  0  0  0
   10.3291  -17.4607   25.3707 C   0  0  0  0  0  0  0  0  0  0  0  0
    9.8474  -13.9276   28.6284 C   0  0  0  0  0  0  0  0  0  0  0  0
   10.1640  -14.1014   29.9526 O   0  0  0  0  0  0  0  0  0  0  0  0
  2  1  1  0
  3  2  2  0
  4  2  1  0
  5  6  1  0
  5  4  1  0
  7  6  1  0
  7  8  1  0
  8 10  1  0
  8  9  1  1
 10 11  2  0
 12 10  1  0
 12 13  1  0
 13 14  1  1
 14 15  1  0
 16 17  2  0
 16 13  1  0
 18 19  1  0
 19 29  2  0
 20 19  1  0
 20 21  2  0
 21 22  1  0
 22 28  2  0
 22 23  1  0
 24 23  1  6
 24 26  1  0
 24 25  1  0
 25 16  1  0
 26 30  1  0
 27 26  2  0
 29 28  1  0
M  END
$$$$
