DKA.pdb
     RDKit          3D

 23 22  0  0  1  0  0  0  0  0999 V2000
   18.9925  -11.6070  -18.3503 N   0  0  0  0  0  0  0  0  0  0  0  0
   18.8821  -11.0283  -17.0444 C   0  0  1  0  0  0  0  0  0  0  0  0
   19.5758  -11.9060  -16.0153 C   0  0  0  0  0  0  0  0  0  0  0  0
   18.8307  -13.1760  -15.8424 C   0  0  0  0  0  0  0  0  0  0  0  0
   19.1713  -14.0136  -14.9706 O   0  0  0  0  0  0  0  0  0  0  0  0
   19.4599   -9.6746  -17.0767 C   0  0  0  0  0  0  0  0  0  0  0  0
   20.5085   -9.4117  -17.7600 O   0  0  0  0  0  0  0  0  0  0  0  0
   17.7358  -13.4797  -16.6358 O   0  0  0  0  0  0  0  0  0  0  0  0
   18.8510   -8.6292  -16.3388 N   0  0  0  0  0  0  0  0  0  0  0  0
   19.2642   -7.2690  -16.4922 C   0  0  1  0  0  0  0  0  0  0  0  0
   18.0468   -6.3927  -16.1724 C   0  0  0  0  0  0  0  0  0  0  0  0
   17.1398   -6.3722  -17.3865 C   0  0  0  0  0  0  0  0  0  0  0  0
   15.9206   -5.5682  -17.0361 C   0  0  0  0  0  0  0  0  0  0  0  0
   15.0069   -5.5706  -18.2441 C   0  0  0  0  0  0  0  0  0  0  0  0
   13.8453   -4.7569  -17.9983 N   0  0  0  0  0  0  0  0  0  0  0  0
   20.2808   -6.9475  -15.4616 C   0  0  0  0  0  0  0  0  0  0  0  0
   20.1251   -7.2995  -14.2783 O   0  0  0  0  0  0  0  0  0  0  0  0
   23.6884   -5.3870  -15.6953 C   0  0  0  0  0  0  0  0  0  0  0  0
   22.5299   -5.9737  -14.9049 C   0  0  2  0  0  0  0  0  0  0  0  0
   21.4475   -6.2246  -15.8462 N   0  0  0  0  0  0  0  0  0  0  0  0
   22.0772   -5.0041  -13.8835 C   0  0  0  0  0  0  0  0  0  0  0  0
   22.6885   -4.9452  -12.6354 O   0  0  0  0  0  0  0  0  0  0  0  0
   21.1260   -4.2215  -14.1465 O   0  0  0  0  0  0  0  0  0  0  0  0
  2  1  1  6
  2  6  1  0
  3  2  1  0
  3  4  1  0
  4  8  1  0
  5  4  2  0
  6  7  2  0
  9 10  1  0
  9  6  1  0
 10 16  1  0
 10 11  1  1
 12 11  1  0
 12 13  1  0
 13 14  1  0
 14 15  1  0
 16 17  2  0
 16 20  1  0
 19 18  1  6
 19 21  1  0
 20 19  1  0
 21 23  2  0
 21 22  1  0
M  END
$$$$
