DKA.pdb
     RDKit          3D

 23 22  0  0  1  0  0  0  0  0999 V2000
   21.8258  -20.3083  -16.4995 N   0  0  0  0  0  0  0  0  0  0  0  0
   22.3783  -19.4051  -15.5343 C   0  0  1  0  0  0  0  0  0  0  0  0
   21.2707  -18.6330  -14.8360 C   0  0  0  0  0  0  0  0  0  0  0  0
   20.8045  -17.5192  -15.6963 C   0  0  0  0  0  0  0  0  0  0  0  0
   21.1548  -17.4397  -16.8999 O   0  0  0  0  0  0  0  0  0  0  0  0
   23.1871  -20.1752  -14.5750 C   0  0  0  0  0  0  0  0  0  0  0  0
   22.6432  -20.8934  -13.6672 O   0  0  0  0  0  0  0  0  0  0  0  0
   19.9685  -16.5310  -15.2012 O   0  0  0  0  0  0  0  0  0  0  0  0
   24.6016  -20.1291  -14.6470 N   0  0  0  0  0  0  0  0  0  0  0  0
   25.4191  -20.8938  -13.7575 C   0  0  1  0  0  0  0  0  0  0  0  0
   26.8419  -20.8753  -14.3298 C   0  0  0  0  0  0  0  0  0  0  0  0
   26.9074  -21.8586  -15.4813 C   0  0  0  0  0  0  0  0  0  0  0  0
   28.3116  -21.8504  -16.0138 C   0  0  0  0  0  0  0  0  0  0  0  0
   28.3627  -22.8064  -17.1874 C   0  0  0  0  0  0  0  0  0  0  0  0
   29.6900  -22.8516  -17.7425 N   0  0  0  0  0  0  0  0  0  0  0  0
   25.4967  -20.2023  -12.4480 C   0  0  0  0  0  0  0  0  0  0  0  0
   25.8641  -19.0159  -12.3723 O   0  0  0  0  0  0  0  0  0  0  0  0
   24.1951  -20.7937   -9.0695 C   0  0  0  0  0  0  0  0  0  0  0  0
   25.3594  -20.3549   -9.9431 C   0  0  2  0  0  0  0  0  0  0  0  0
   25.1424  -20.9190  -11.2679 N   0  0  0  0  0  0  0  0  0  0  0  0
   26.6275  -20.8775   -9.3889 C   0  0  0  0  0  0  0  0  0  0  0  0
   27.3826  -21.8102  -10.0922 O   0  0  0  0  0  0  0  0  0  0  0  0
   27.0294  -20.4732   -8.2657 O   0  0  0  0  0  0  0  0  0  0  0  0
  2  1  1  6
  2  6  1  0
  3  2  1  0
  3  4  1  0
  4  8  1  0
  5  4  2  0
  6  7  2  0
  9 10  1  0
  9  6  1  0
 10 16  1  0
 10 11  1  6
 12 11  1  0
 12 13  1  0
 13 14  1  0
 14 15  1  0
 16 17  2  0
 16 20  1  0
 19 18  1  1
 19 21  1  0
 20 19  1  0
 21 23  2  0
 21 22  1  0
M  END
$$$$
