DKA.pdb
     RDKit          3D

 23 22  0  0  1  0  0  0  0  0999 V2000
   15.5485  -11.3084  -15.8293 N   0  0  0  0  0  0  0  0  0  0  0  0
   15.8039   -9.9274  -15.5462 C   0  0  1  0  0  0  0  0  0  0  0  0
   15.3002   -9.5691  -14.1574 C   0  0  0  0  0  0  0  0  0  0  0  0
   13.8201   -9.6427  -14.1167 C   0  0  0  0  0  0  0  0  0  0  0  0
   13.1381   -9.5611  -15.1684 O   0  0  0  0  0  0  0  0  0  0  0  0
   17.2487   -9.6771  -15.6776 C   0  0  0  0  0  0  0  0  0  0  0  0
   18.1100  -10.5906  -15.4345 O   0  0  0  0  0  0  0  0  0  0  0  0
   13.1419   -9.8037  -12.9190 O   0  0  0  0  0  0  0  0  0  0  0  0
   17.7101   -8.3997  -16.0818 N   0  0  0  0  0  0  0  0  0  0  0  0
   19.1057   -8.1176  -16.2127 C   0  0  1  0  0  0  0  0  0  0  0  0
   19.2543   -7.1199  -17.3680 C   0  0  0  0  0  0  0  0  0  0  0  0
   20.7317   -6.8790  -17.6051 C   0  0  0  0  0  0  0  0  0  0  0  0
   20.8630   -5.9293  -18.7611 C   0  0  0  0  0  0  0  0  0  0  0  0
   22.3410   -5.7310  -19.0262 C   0  0  0  0  0  0  0  0  0  0  0  0
   22.5413   -4.7146  -20.0256 N   0  0  0  0  0  0  0  0  0  0  0  0
   19.5775   -7.4094  -14.9983 C   0  0  0  0  0  0  0  0  0  0  0  0
   18.9464   -6.4412  -14.5370 O   0  0  0  0  0  0  0  0  0  0  0  0
   22.2065   -8.1959  -12.4709 C   0  0  0  0  0  0  0  0  0  0  0  0
   21.2775   -7.2080  -13.1581 C   0  0  2  0  0  0  0  0  0  0  0  0
   20.7723   -7.8547  -14.3610 N   0  0  0  0  0  0  0  0  0  0  0  0
   22.0291   -5.9906  -13.5341 C   0  0  0  0  0  0  0  0  0  0  0  0
   22.3073   -5.0049  -12.5930 O   0  0  0  0  0  0  0  0  0  0  0  0
   22.4225   -5.8439  -14.7216 O   0  0  0  0  0  0  0  0  0  0  0  0
  2  1  1  1
  2  6  1  0
  3  2  1  0
  3  4  1  0
  4  8  1  0
  5  4  2  0
  6  7  2  0
  9 10  1  0
  9  6  1  0
 10 16  1  0
 10 11  1  6
 12 11  1  0
 12 13  1  0
 13 14  1  0
 14 15  1  0
 16 17  2  0
 16 20  1  0
 19 18  1  6
 19 21  1  0
 20 19  1  0
 21 23  2  0
 21 22  1  0
M  END
$$$$
