DKA.pdb
     RDKit          3D

 23 22  0  0  1  0  0  0  0  0999 V2000
   16.6961  -10.4141  -16.2253 N   0  0  0  0  0  0  0  0  0  0  0  0
   17.0594  -10.5008  -14.8422 C   0  0  1  0  0  0  0  0  0  0  0  0
   17.0345  -11.9479  -14.3774 C   0  0  0  0  0  0  0  0  0  0  0  0
   15.6500  -12.4758  -14.4261 C   0  0  0  0  0  0  0  0  0  0  0  0
   14.7033  -11.8636  -13.8724 O   0  0  0  0  0  0  0  0  0  0  0  0
   18.3914   -9.8996  -14.6646 C   0  0  0  0  0  0  0  0  0  0  0  0
   19.0239   -9.9915  -13.5568 O   0  0  0  0  0  0  0  0  0  0  0  0
   15.3558  -13.6600  -15.0831 O   0  0  0  0  0  0  0  0  0  0  0  0
   18.9991   -9.2002  -15.7368 N   0  0  0  0  0  0  0  0  0  0  0  0
   20.2834   -8.5880  -15.5956 C   0  0  1  0  0  0  0  0  0  0  0  0
   20.8664   -8.4402  -17.0065 C   0  0  0  0  0  0  0  0  0  0  0  0
   21.3832   -9.7927  -17.4548 C   0  0  0  0  0  0  0  0  0  0  0  0
   21.8481   -9.6591  -18.8766 C   0  0  0  0  0  0  0  0  0  0  0  0
   22.4399  -10.9898  -19.2926 C   0  0  0  0  0  0  0  0  0  0  0  0
   22.9352  -10.9205  -20.6423 N   0  0  0  0  0  0  0  0  0  0  0  0
   20.1137   -7.2090  -15.0774 C   0  0  0  0  0  0  0  0  0  0  0  0
   19.1810   -6.4872  -15.4744 O   0  0  0  0  0  0  0  0  0  0  0  0
   21.6481   -5.2920  -12.2826 C   0  0  0  0  0  0  0  0  0  0  0  0
   20.9977   -5.3343  -13.6560 C   0  0  2  0  0  0  0  0  0  0  0  0
   21.0392   -6.7167  -14.1116 N   0  0  0  0  0  0  0  0  0  0  0  0
   21.7583   -4.4841  -14.5979 C   0  0  0  0  0  0  0  0  0  0  0  0
   21.6142   -3.1007  -14.5860 O   0  0  0  0  0  0  0  0  0  0  0  0
   22.5469   -5.0191  -15.4216 O   0  0  0  0  0  0  0  0  0  0  0  0
  2  1  1  6
  2  6  1  0
  3  2  1  0
  3  4  1  0
  4  8  1  0
  5  4  2  0
  6  7  2  0
  9 10  1  0
  9  6  1  0
 10 16  1  0
 10 11  1  6
 12 11  1  0
 12 13  1  0
 13 14  1  0
 14 15  1  0
 16 17  2  0
 16 20  1  0
 19 18  1  1
 19 21  1  0
 20 19  1  0
 21 23  2  0
 21 22  1  0
M  END
$$$$
