DKA.pdb
     RDKit          3D

 23 22  0  0  1  0  0  0  0  0999 V2000
   26.2203  -21.6569  -12.2246 N   0  0  0  0  0  0  0  0  0  0  0  0
   24.8601  -21.3709  -11.8774 C   0  0  1  0  0  0  0  0  0  0  0  0
   24.8003  -20.2686  -10.8324 C   0  0  0  0  0  0  0  0  0  0  0  0
   25.4232  -20.7294   -9.5684 C   0  0  0  0  0  0  0  0  0  0  0  0
   25.7091  -19.9178   -8.6534 O   0  0  0  0  0  0  0  0  0  0  0  0
   24.1289  -20.9966  -13.0992 C   0  0  0  0  0  0  0  0  0  0  0  0
   24.7426  -20.7121  -14.1845 O   0  0  0  0  0  0  0  0  0  0  0  0
   25.7099  -22.0685   -9.3558 O   0  0  0  0  0  0  0  0  0  0  0  0
   22.7128  -20.9463  -13.0871 N   0  0  0  0  0  0  0  0  0  0  0  0
   21.9617  -20.7862  -14.2931 C   0  0  1  0  0  0  0  0  0  0  0  0
   20.5494  -21.3153  -14.0145 C   0  0  0  0  0  0  0  0  0  0  0  0
   20.5508  -22.8164  -14.2238 C   0  0  0  0  0  0  0  0  0  0  0  0
   19.1662  -23.3221  -13.9362 C   0  0  0  0  0  0  0  0  0  0  0  0
   19.1963  -24.8320  -14.0513 C   0  0  0  0  0  0  0  0  0  0  0  0
   17.8836  -25.3799  -13.8311 N   0  0  0  0  0  0  0  0  0  0  0  0
   21.8061  -19.3405  -14.5842 C   0  0  0  0  0  0  0  0  0  0  0  0
   21.2653  -18.5776  -13.7632 O   0  0  0  0  0  0  0  0  0  0  0  0
   23.2276  -17.1553  -17.2582 C   0  0  0  0  0  0  0  0  0  0  0  0
   22.2359  -17.4094  -16.1343 C   0  0  2  0  0  0  0  0  0  0  0  0
   22.2874  -18.8315  -15.8256 N   0  0  0  0  0  0  0  0  0  0  0  0
   20.8709  -17.0528  -16.5793 C   0  0  0  0  0  0  0  0  0  0  0  0
   19.9838  -18.0321  -17.0141 O   0  0  0  0  0  0  0  0  0  0  0  0
   20.5064  -15.8473  -16.5647 O   0  0  0  0  0  0  0  0  0  0  0  0
  2  1  1  6
  2  6  1  0
  3  2  1  0
  3  4  1  0
  4  8  1  0
  5  4  2  0
  6  7  2  0
  9 10  1  0
  9  6  1  0
 10 16  1  0
 10 11  1  1
 12 11  1  0
 12 13  1  0
 13 14  1  0
 14 15  1  0
 16 17  2  0
 16 20  1  0
 19 18  1  6
 19 21  1  0
 20 19  1  0
 21 23  2  0
 21 22  1  0
M  END
$$$$
