DKA.pdb
     RDKit          3D

 23 22  0  0  1  0  0  0  0  0999 V2000
   16.7528  -11.9373  -10.8761 N   0  0  0  0  0  0  0  0  0  0  0  0
   15.8569  -10.8289  -11.0224 C   0  0  1  0  0  0  0  0  0  0  0  0
   14.4949  -11.1676  -10.4387 C   0  0  0  0  0  0  0  0  0  0  0  0
   13.8592  -12.2532  -11.2231 C   0  0  0  0  0  0  0  0  0  0  0  0
   13.5469  -12.0846  -12.4280 O   0  0  0  0  0  0  0  0  0  0  0  0
   16.4489   -9.6525  -10.3644 C   0  0  0  0  0  0  0  0  0  0  0  0
   17.0177   -9.7412   -9.2224 O   0  0  0  0  0  0  0  0  0  0  0  0
   13.5892  -13.4873  -10.6534 O   0  0  0  0  0  0  0  0  0  0  0  0
   16.3946   -8.3866  -10.9989 N   0  0  0  0  0  0  0  0  0  0  0  0
   17.0260   -7.2381  -10.4276 C   0  0  1  0  0  0  0  0  0  0  0  0
   17.8512   -6.5808  -11.5408 C   0  0  0  0  0  0  0  0  0  0  0  0
   19.1170   -7.3904  -11.7397 C   0  0  0  0  0  0  0  0  0  0  0  0
   19.9254   -6.7232  -12.8152 C   0  0  0  0  0  0  0  0  0  0  0  0
   21.1721   -7.5548  -13.0345 C   0  0  0  0  0  0  0  0  0  0  0  0
   21.9966   -6.9660  -14.0570 N   0  0  0  0  0  0  0  0  0  0  0  0
   15.9893   -6.2477  -10.0488 C   0  0  0  0  0  0  0  0  0  0  0  0
   15.1917   -5.8022  -10.8936 O   0  0  0  0  0  0  0  0  0  0  0  0
   14.8935   -4.8654   -6.7432 C   0  0  0  0  0  0  0  0  0  0  0  0
   14.9213   -4.8381   -8.2629 C   0  0  2  0  0  0  0  0  0  0  0  0
   15.9173   -5.8088   -8.6946 N   0  0  0  0  0  0  0  0  0  0  0  0
   15.3124   -3.4913   -8.7336 C   0  0  0  0  0  0  0  0  0  0  0  0
   16.5746   -3.2623   -9.2715 O   0  0  0  0  0  0  0  0  0  0  0  0
   14.4926   -2.5391   -8.6465 O   0  0  0  0  0  0  0  0  0  0  0  0
  2  1  1  1
  2  6  1  0
  3  2  1  0
  3  4  1  0
  4  8  1  0
  5  4  2  0
  6  7  2  0
  9 10  1  0
  9  6  1  0
 10 16  1  0
 10 11  1  6
 12 11  1  0
 12 13  1  0
 13 14  1  0
 14 15  1  0
 16 17  2  0
 16 20  1  0
 19 18  1  1
 19 21  1  0
 20 19  1  0
 21 23  2  0
 21 22  1  0
M  END
$$$$
