DKA.pdb
     RDKit          3D

 23 22  0  0  1  0  0  0  0  0999 V2000
   16.7813  -10.7821  -15.4450 N   0  0  0  0  0  0  0  0  0  0  0  0
   17.3950  -10.3460  -14.2261 C   0  0  1  0  0  0  0  0  0  0  0  0
   18.6758   -9.5823  -14.5212 C   0  0  0  0  0  0  0  0  0  0  0  0
   19.7033  -10.5010  -15.0673 C   0  0  0  0  0  0  0  0  0  0  0  0
   19.4622  -11.7238  -15.2231 O   0  0  0  0  0  0  0  0  0  0  0  0
   16.4320   -9.5177  -13.4818 C   0  0  0  0  0  0  0  0  0  0  0  0
   15.6995   -8.6512  -14.0719 O   0  0  0  0  0  0  0  0  0  0  0  0
   20.9612  -10.0411  -15.4231 O   0  0  0  0  0  0  0  0  0  0  0  0
   16.3028   -9.6732  -12.0793 N   0  0  0  0  0  0  0  0  0  0  0  0
   15.4321   -8.8371  -11.3130 C   0  0  1  0  0  0  0  0  0  0  0  0
   14.7346   -9.7385  -10.2868 C   0  0  0  0  0  0  0  0  0  0  0  0
   13.3802  -10.1343  -10.8399 C   0  0  0  0  0  0  0  0  0  0  0  0
   12.7779  -11.1425   -9.9038 C   0  0  0  0  0  0  0  0  0  0  0  0
   11.3671  -11.4233  -10.3780 C   0  0  0  0  0  0  0  0  0  0  0  0
   10.7871  -12.5018   -9.6215 N   0  0  0  0  0  0  0  0  0  0  0  0
   16.2432   -7.8758  -10.5276 C   0  0  0  0  0  0  0  0  0  0  0  0
   17.1976   -8.2647   -9.8302 O   0  0  0  0  0  0  0  0  0  0  0  0
   16.2253   -4.1235  -10.3619 C   0  0  0  0  0  0  0  0  0  0  0  0
   16.7444   -5.4861   -9.9317 C   0  0  2  0  0  0  0  0  0  0  0  0
   15.9137   -6.4901  -10.5817 N   0  0  0  0  0  0  0  0  0  0  0  0
   16.6268   -5.6274   -8.4639 C   0  0  0  0  0  0  0  0  0  0  0  0
   17.6070   -5.1196   -7.6176 O   0  0  0  0  0  0  0  0  0  0  0  0
   15.6266   -6.2150   -7.9732 O   0  0  0  0  0  0  0  0  0  0  0  0
  2  1  1  6
  2  6  1  0
  3  2  1  0
  3  4  1  0
  4  8  1  0
  5  4  2  0
  6  7  2  0
  9 10  1  0
  9  6  1  0
 10 16  1  0
 10 11  1  1
 12 11  1  0
 12 13  1  0
 13 14  1  0
 14 15  1  0
 16 17  2  0
 16 20  1  0
 19 18  1  6
 19 21  1  0
 20 19  1  0
 21 23  2  0
 21 22  1  0
M  END
$$$$
