DKA.pdb
     RDKit          3D

 23 22  0  0  1  0  0  0  0  0999 V2000
   20.2972  -21.8456  -13.4004 N   0  0  0  0  0  0  0  0  0  0  0  0
   20.4784  -20.8686  -14.4325 C   0  0  1  0  0  0  0  0  0  0  0  0
   19.4782  -19.7354  -14.2710 C   0  0  0  0  0  0  0  0  0  0  0  0
   18.0986  -20.2404  -14.4699 C   0  0  0  0  0  0  0  0  0  0  0  0
   17.8782  -21.2730  -15.1501 O   0  0  0  0  0  0  0  0  0  0  0  0
   21.8649  -20.3764  -14.3794 C   0  0  0  0  0  0  0  0  0  0  0  0
   22.3960  -19.9918  -13.2815 O   0  0  0  0  0  0  0  0  0  0  0  0
   17.0088  -19.5904  -13.9125 O   0  0  0  0  0  0  0  0  0  0  0  0
   22.6406  -20.3220  -15.5641 N   0  0  0  0  0  0  0  0  0  0  0  0
   24.0256  -19.9682  -15.5333 C   0  0  1  0  0  0  0  0  0  0  0  0
   24.7674  -20.9872  -16.4072 C   0  0  0  0  0  0  0  0  0  0  0  0
   24.9884  -22.2457  -15.5920 C   0  0  0  0  0  0  0  0  0  0  0  0
   25.7217  -23.2308  -16.4565 C   0  0  0  0  0  0  0  0  0  0  0  0
   25.8224  -24.5310  -15.6863 C   0  0  0  0  0  0  0  0  0  0  0  0
   26.3888  -25.5637  -16.5138 N   0  0  0  0  0  0  0  0  0  0  0  0
   24.2094  -18.6534  -16.1939 C   0  0  0  0  0  0  0  0  0  0  0  0
   23.5634  -18.3548  -17.2146 O   0  0  0  0  0  0  0  0  0  0  0  0
   26.0804  -15.5587  -15.2436 C   0  0  0  0  0  0  0  0  0  0  0  0
   25.4114  -16.4477  -16.2794 C   0  0  2  0  0  0  0  0  0  0  0  0
   25.1426  -17.7286  -15.6409 N   0  0  0  0  0  0  0  0  0  0  0  0
   26.3214  -16.6532  -17.4275 C   0  0  0  0  0  0  0  0  0  0  0  0
   26.4284  -15.6978  -18.4328 O   0  0  0  0  0  0  0  0  0  0  0  0
   27.0086  -17.7065  -17.4964 O   0  0  0  0  0  0  0  0  0  0  0  0
  2  1  1  1
  2  6  1  0
  3  2  1  0
  3  4  1  0
  4  8  1  0
  5  4  2  0
  6  7  2  0
  9 10  1  0
  9  6  1  0
 10 16  1  0
 10 11  1  6
 12 11  1  0
 12 13  1  0
 13 14  1  0
 14 15  1  0
 16 17  2  0
 16 20  1  0
 19 18  1  1
 19 21  1  0
 20 19  1  0
 21 23  2  0
 21 22  1  0
M  END
$$$$
