PNW.pdb
     RDKit          3D

 30 32  0  0  1  0  0  0  0  0999 V2000
   28.5948  -20.8963  -15.7076 N   0  0  0  0  0  0  0  0  0  0  0  0
   28.5664  -20.5679  -17.1006 C   0  0  0  0  0  0  0  0  0  0  0  0
   29.4024  -19.3513  -17.3116 C   0  0  0  0  0  0  0  0  0  0  0  0
   29.7379  -18.9042  -15.9251 C   0  0  0  0  0  0  0  0  0  0  0  0
   28.8975  -19.6944  -14.9634 C   0  0  1  0  0  0  0  0  0  0  0  0
   27.6772  -18.9879  -14.5370 C   0  0  0  0  0  0  0  0  0  0  0  0
   27.7622  -17.8334  -14.0833 O   0  0  0  0  0  0  0  0  0  0  0  0
   25.3110  -16.5960  -16.0320 N   0  0  0  0  0  0  0  0  0  0  0  0
   24.4998  -17.7084  -16.3377 C   0  0  0  0  0  0  0  0  0  0  0  0
   23.8489  -17.6229  -17.4364 O   0  0  0  0  0  0  0  0  0  0  0  0
   24.3258  -18.9253  -15.5500 C   0  0  0  0  0  0  0  0  0  0  0  0
   25.1553  -18.9672  -14.2858 C   0  0  2  0  0  0  0  0  0  0  0  0
   26.4055  -19.5781  -14.6245 N   0  0  0  0  0  0  0  0  0  0  0  0
   24.4887  -19.4762  -13.1147 C   0  0  0  0  0  0  0  0  0  0  0  0
   23.4821  -18.9103  -12.6451 O   0  0  0  0  0  0  0  0  0  0  0  0
   24.9523  -20.6356  -12.4561 N   0  0  0  0  0  0  0  0  0  0  0  0
   24.3117  -21.1399  -11.2296 C   0  0  1  0  0  0  0  0  0  0  0  0
   24.8626  -20.3071  -10.1177 C   0  0  0  0  0  0  0  0  0  0  0  0
   26.2560  -20.6522   -9.7732 C   0  0  0  0  0  0  0  0  0  0  0  0
   27.1338  -21.3375  -10.6142 C   0  0  0  0  0  0  0  0  0  0  0  0
   28.3222  -21.4401  -10.0083 N   0  0  0  0  0  0  0  0  0  0  0  0
   28.2787  -20.8563   -8.8021 C   0  0  0  0  0  0  0  0  0  0  0  0
   29.1828  -20.6784   -7.7748 C   0  0  0  0  0  0  0  0  0  0  0  0
   28.7977  -20.0242   -6.6277 C   0  0  0  0  0  0  0  0  0  0  0  0
   27.5152  -19.5320   -6.4679 C   0  0  0  0  0  0  0  0  0  0  0  0
   26.6134  -19.7142   -7.5044 C   0  0  0  0  0  0  0  0  0  0  0  0
   26.9908  -20.3658   -8.6549 C   0  0  0  0  0  0  0  0  0  0  0  0
   22.8794  -21.1837  -11.4012 C   0  0  0  0  0  0  0  0  0  0  0  0
   22.1128  -20.9112  -10.4055 O   0  0  0  0  0  0  0  0  0  0  0  0
   22.1968  -21.4933  -12.5598 O   0  0  0  0  0  0  0  0  0  0  0  0
  1  5  1  0
  2  1  1  0
  2  3  1  0
  3  4  1  0
  5  4  1  0
  5  6  1  6
  6  7  2  0
  8  9  1  0
  9 10  2  0
  9 11  1  0
 12 11  1  6
 12 14  1  0
 12 13  1  0
 13  6  1  0
 14 16  1  0
 15 14  2  0
 16 17  1  0
 17 28  1  0
 18 19  1  0
 17 18  1  1
 19 27  1  0
 20 21  1  0
 20 19  2  0
 21 22  1  0
 22 27  2  0
 22 23  1  0
 23 24  2  0
 24 25  1  0
 26 25  2  0
 27 26  1  0
 28 29  2  0
 28 30  1  0
M  END
$$$$
