PNW.pdb
     RDKit          3D

 30 32  0  0  1  0  0  0  0  0999 V2000
   28.3014  -19.4336  -16.9002 N   0  0  0  0  0  0  0  0  0  0  0  0
   27.6602  -18.5379  -17.8145 C   0  0  0  0  0  0  0  0  0  0  0  0
   28.1990  -17.1671  -17.5820 C   0  0  0  0  0  0  0  0  0  0  0  0
   29.0333  -17.3159  -16.3503 C   0  0  0  0  0  0  0  0  0  0  0  0
   28.7587  -18.6698  -15.7611 C   0  0  1  0  0  0  0  0  0  0  0  0
   27.7607  -18.6441  -14.6779 C   0  0  0  0  0  0  0  0  0  0  0  0
   27.8124  -17.7497  -13.8157 O   0  0  0  0  0  0  0  0  0  0  0  0
   24.2796  -17.4553  -14.9074 N   0  0  0  0  0  0  0  0  0  0  0  0
   23.8246  -18.7894  -14.9535 C   0  0  0  0  0  0  0  0  0  0  0  0
   22.7714  -18.9823  -15.6547 O   0  0  0  0  0  0  0  0  0  0  0  0
   24.4153  -19.9533  -14.2993 C   0  0  0  0  0  0  0  0  0  0  0  0
   25.7162  -19.6659  -13.5829 C   0  0  2  0  0  0  0  0  0  0  0  0
   26.7405  -19.6049  -14.5819 N   0  0  0  0  0  0  0  0  0  0  0  0
   25.9917  -20.4847  -12.4303 C   0  0  0  0  0  0  0  0  0  0  0  0
   26.1344  -21.7189  -12.5317 O   0  0  0  0  0  0  0  0  0  0  0  0
   26.1101  -19.9178  -11.1429 N   0  0  0  0  0  0  0  0  0  0  0  0
   26.3236  -20.7485   -9.9457 C   0  0  1  0  0  0  0  0  0  0  0  0
   27.2967  -19.9921   -9.1007 C   0  0  0  0  0  0  0  0  0  0  0  0
   27.0179  -20.1065   -7.6555 C   0  0  0  0  0  0  0  0  0  0  0  0
   25.8335  -20.6083   -7.1143 C   0  0  0  0  0  0  0  0  0  0  0  0
   25.9348  -20.6123   -5.7802 N   0  0  0  0  0  0  0  0  0  0  0  0
   27.1309  -20.1361   -5.4055 C   0  0  0  0  0  0  0  0  0  0  0  0
   27.7523  -19.9126   -4.1938 C   0  0  0  0  0  0  0  0  0  0  0  0
   29.0211  -19.3824   -4.1610 C   0  0  0  0  0  0  0  0  0  0  0  0
   29.7042  -19.0611   -5.3197 C   0  0  0  0  0  0  0  0  0  0  0  0
   29.0735  -19.2891   -6.5326 C   0  0  0  0  0  0  0  0  0  0  0  0
   27.8059  -19.8201   -6.5741 C   0  0  0  0  0  0  0  0  0  0  0  0
   25.0545  -21.1112   -9.3620 C   0  0  0  0  0  0  0  0  0  0  0  0
   24.9911  -22.1057   -8.5495 O   0  0  0  0  0  0  0  0  0  0  0  0
   23.8410  -20.4897   -9.5755 O   0  0  0  0  0  0  0  0  0  0  0  0
  1  5  1  0
  2  1  1  0
  2  3  1  0
  3  4  1  0
  5  4  1  0
  5  6  1  1
  6  7  2  0
  8  9  1  0
  9 10  2  0
  9 11  1  0
 12 11  1  6
 12 14  1  0
 12 13  1  0
 13  6  1  0
 14 16  1  0
 15 14  2  0
 16 17  1  0
 17 28  1  0
 18 19  1  0
 17 18  1  1
 19 27  1  0
 20 21  1  0
 20 19  2  0
 21 22  1  0
 22 27  2  0
 22 23  1  0
 23 24  2  0
 24 25  1  0
 26 25  2  0
 27 26  1  0
 28 29  2  0
 28 30  1  0
M  END
$$$$
