PNW.pdb
     RDKit          3D

 30 32  0  0  1  0  0  0  0  0999 V2000
   15.2897  -20.1447    2.6047 N   0  0  0  0  0  0  0  0  0  0  0  0
   16.5795  -20.1314    1.9838 C   0  0  0  0  0  0  0  0  0  0  0  0
   17.4720  -21.0569    2.7391 C   0  0  0  0  0  0  0  0  0  0  0  0
   16.6612  -21.4361    3.9366 C   0  0  0  0  0  0  0  0  0  0  0  0
   15.4537  -20.5445    3.9844 C   0  0  1  0  0  0  0  0  0  0  0  0
   15.6182  -19.3854    4.8785 C   0  0  0  0  0  0  0  0  0  0  0  0
   16.0241  -18.3050    4.4157 O   0  0  0  0  0  0  0  0  0  0  0  0
   12.5528  -20.3961    8.3873 N   0  0  0  0  0  0  0  0  0  0  0  0
   13.1982  -19.1823    8.0719 C   0  0  0  0  0  0  0  0  0  0  0  0
   12.4844  -18.3362    7.4296 O   0  0  0  0  0  0  0  0  0  0  0  0
   14.5684  -18.7942    8.3936 C   0  0  0  0  0  0  0  0  0  0  0  0
   15.3915  -18.3801    7.1940 C   0  0  2  0  0  0  0  0  0  0  0  0
   15.3304  -19.4567    6.2515 N   0  0  0  0  0  0  0  0  0  0  0  0
   16.7008  -17.8537    7.4831 C   0  0  0  0  0  0  0  0  0  0  0  0
   17.7300  -18.5231    7.2678 O   0  0  0  0  0  0  0  0  0  0  0  0
   16.8651  -16.5590    8.0213 N   0  0  0  0  0  0  0  0  0  0  0  0
   18.1982  -15.9695    8.2315 C   0  0  1  0  0  0  0  0  0  0  0  0
   18.8566  -15.9774    6.8899 C   0  0  0  0  0  0  0  0  0  0  0  0
   18.8138  -14.6637    6.2178 C   0  0  0  0  0  0  0  0  0  0  0  0
   19.1328  -13.4502    6.8287 C   0  0  0  0  0  0  0  0  0  0  0  0
   19.0323  -12.4703    5.9233 N   0  0  0  0  0  0  0  0  0  0  0  0
   18.6604  -12.9725    4.7371 C   0  0  0  0  0  0  0  0  0  0  0  0
   18.4027  -12.4364    3.4919 C   0  0  0  0  0  0  0  0  0  0  0  0
   18.0151  -13.2573    2.4584 C   0  0  0  0  0  0  0  0  0  0  0  0
   17.8728  -14.6222    2.6292 C   0  0  0  0  0  0  0  0  0  0  0  0
   18.1341  -15.1529    3.8825 C   0  0  0  0  0  0  0  0  0  0  0  0
   18.5234  -14.3395    4.9205 C   0  0  0  0  0  0  0  0  0  0  0  0
   18.0784  -14.7083    8.9228 C   0  0  0  0  0  0  0  0  0  0  0  0
   16.9314  -14.1319    8.9965 O   0  0  0  0  0  0  0  0  0  0  0  0
   19.0918  -14.0115    9.5486 O   0  0  0  0  0  0  0  0  0  0  0  0
  1  5  1  0
  2  1  1  0
  2  3  1  0
  3  4  1  0
  5  4  1  0
  5  6  1  1
  6  7  2  0
  8  9  1  0
  9 10  2  0
  9 11  1  0
 12 11  1  1
 12 14  1  0
 12 13  1  0
 13  6  1  0
 14 16  1  0
 15 14  2  0
 16 17  1  0
 17 28  1  0
 18 19  1  0
 17 18  1  6
 19 27  1  0
 20 21  1  0
 20 19  2  0
 21 22  1  0
 22 27  2  0
 22 23  1  0
 23 24  2  0
 24 25  1  0
 26 25  2  0
 27 26  1  0
 28 29  2  0
 28 30  1  0
M  END
$$$$
