PNW.pdb
     RDKit          3D

 30 32  0  0  1  0  0  0  0  0999 V2000
   29.5154  -23.6079  -17.0118 N   0  0  0  0  0  0  0  0  0  0  0  0
   29.1675  -24.0090  -18.3412 C   0  0  0  0  0  0  0  0  0  0  0  0
   29.4081  -22.8561  -19.2559 C   0  0  0  0  0  0  0  0  0  0  0  0
   29.7226  -21.7256  -18.3296 C   0  0  0  0  0  0  0  0  0  0  0  0
   29.4096  -22.1684  -16.9291 C   0  0  1  0  0  0  0  0  0  0  0  0
   28.0794  -21.7392  -16.4641 C   0  0  0  0  0  0  0  0  0  0  0  0
   27.7348  -20.5521  -16.5987 O   0  0  0  0  0  0  0  0  0  0  0  0
   25.3692  -25.5938  -15.5212 N   0  0  0  0  0  0  0  0  0  0  0  0
   25.2834  -24.4510  -16.3433 C   0  0  0  0  0  0  0  0  0  0  0  0
   25.6225  -24.6312  -17.5642 O   0  0  0  0  0  0  0  0  0  0  0  0
   24.8571  -23.1088  -15.9584 C   0  0  0  0  0  0  0  0  0  0  0  0
   25.9237  -22.2993  -15.2547 C   0  0  2  0  0  0  0  0  0  0  0  0
   27.1750  -22.6325  -15.8665 N   0  0  0  0  0  0  0  0  0  0  0  0
   25.8853  -22.3280  -13.8151 C   0  0  0  0  0  0  0  0  0  0  0  0
   26.6988  -23.0072  -13.1589 O   0  0  0  0  0  0  0  0  0  0  0  0
   24.9235  -21.5867  -13.0951 N   0  0  0  0  0  0  0  0  0  0  0  0
   25.0147  -21.4076  -11.6361 C   0  0  1  0  0  0  0  0  0  0  0  0
   26.3965  -20.8992  -11.3799 C   0  0  0  0  0  0  0  0  0  0  0  0
   26.5851  -20.4094  -10.0001 C   0  0  0  0  0  0  0  0  0  0  0  0
   25.6246  -19.7080   -9.2699 C   0  0  0  0  0  0  0  0  0  0  0  0
   26.1070  -19.4595   -8.0470 N   0  0  0  0  0  0  0  0  0  0  0  0
   27.3445  -19.9613   -7.9268 C   0  0  0  0  0  0  0  0  0  0  0  0
   28.2895  -19.9880   -6.9215 C   0  0  0  0  0  0  0  0  0  0  0  0
   29.5052  -20.5940   -7.1387 C   0  0  0  0  0  0  0  0  0  0  0  0
   29.8158  -21.1857   -8.3493 C   0  0  0  0  0  0  0  0  0  0  0  0
   28.8612  -21.1552   -9.3537 C   0  0  0  0  0  0  0  0  0  0  0  0
   27.6431  -20.5527   -9.1442 C   0  0  0  0  0  0  0  0  0  0  0  0
   23.9017  -20.6198  -11.1635 C   0  0  0  0  0  0  0  0  0  0  0  0
   23.2710  -20.9846  -10.1041 O   0  0  0  0  0  0  0  0  0  0  0  0
   23.4085  -19.4640  -11.7337 O   0  0  0  0  0  0  0  0  0  0  0  0
  1  5  1  0
  2  1  1  0
  2  3  1  0
  3  4  1  0
  5  4  1  0
  5  6  1  6
  6  7  2  0
  8  9  1  0
  9 10  2  0
  9 11  1  0
 12 11  1  6
 12 14  1  0
 12 13  1  0
 13  6  1  0
 14 16  1  0
 15 14  2  0
 16 17  1  0
 17 28  1  0
 18 19  1  0
 17 18  1  6
 19 27  1  0
 20 21  1  0
 20 19  2  0
 21 22  1  0
 22 27  2  0
 22 23  1  0
 23 24  2  0
 24 25  1  0
 26 25  2  0
 27 26  1  0
 28 29  2  0
 28 30  1  0
M  END
$$$$
