PNW.pdb
     RDKit          3D

 30 32  0  0  1  0  0  0  0  0999 V2000
   27.7196  -19.3419  -16.4475 N   0  0  0  0  0  0  0  0  0  0  0  0
   27.1145  -18.3387  -17.2702 C   0  0  0  0  0  0  0  0  0  0  0  0
   27.7745  -17.0337  -16.9786 C   0  0  0  0  0  0  0  0  0  0  0  0
   28.6476  -17.3307  -15.8019 C   0  0  0  0  0  0  0  0  0  0  0  0
   28.2887  -18.6949  -15.2866 C   0  0  1  0  0  0  0  0  0  0  0  0
   27.3454  -18.6627  -14.1555 C   0  0  0  0  0  0  0  0  0  0  0  0
   27.5305  -17.8607  -13.2236 O   0  0  0  0  0  0  0  0  0  0  0  0
   24.1506  -17.2799  -14.5341 N   0  0  0  0  0  0  0  0  0  0  0  0
   23.4548  -18.4986  -14.3933 C   0  0  0  0  0  0  0  0  0  0  0  0
   22.2993  -18.5331  -14.9425 O   0  0  0  0  0  0  0  0  0  0  0  0
   23.9028  -19.7033  -13.7009 C   0  0  0  0  0  0  0  0  0  0  0  0
   25.2575  -19.5697  -13.0413 C   0  0  2  0  0  0  0  0  0  0  0  0
   26.2312  -19.5156  -14.0901 N   0  0  0  0  0  0  0  0  0  0  0  0
   25.5243  -20.4885  -11.9646 C   0  0  0  0  0  0  0  0  0  0  0  0
   25.7434  -21.6960  -12.1829 O   0  0  0  0  0  0  0  0  0  0  0  0
   25.5471  -20.0535  -10.6217 N   0  0  0  0  0  0  0  0  0  0  0  0
   25.7913  -20.9857   -9.5081 C   0  0  1  0  0  0  0  0  0  0  0  0
   27.0528  -20.5146   -8.8598 C   0  0  0  0  0  0  0  0  0  0  0  0
   26.9878  -20.5377   -7.3851 C   0  0  0  0  0  0  0  0  0  0  0  0
   26.0645  -21.2765   -6.6440 C   0  0  0  0  0  0  0  0  0  0  0  0
   26.3175  -21.1038   -5.3416 N   0  0  0  0  0  0  0  0  0  0  0  0
   27.3656  -20.2837   -5.1786 C   0  0  0  0  0  0  0  0  0  0  0  0
   28.0354  -19.7668   -4.0883 C   0  0  0  0  0  0  0  0  0  0  0  0
   29.0978  -18.9137   -4.2772 C   0  0  0  0  0  0  0  0  0  0  0  0
   29.5227  -18.5518   -5.5424 C   0  0  0  0  0  0  0  0  0  0  0  0
   28.8452  -19.0756   -6.6321 C   0  0  0  0  0  0  0  0  0  0  0  0
   27.7832  -19.9302   -6.4520 C   0  0  0  0  0  0  0  0  0  0  0  0
   24.6081  -21.1004   -8.6899 C   0  0  0  0  0  0  0  0  0  0  0  0
   23.6168  -20.3073   -8.8936 O   0  0  0  0  0  0  0  0  0  0  0  0
   24.3967  -22.0030   -7.6677 O   0  0  0  0  0  0  0  0  0  0  0  0
  1  5  1  0
  2  1  1  0
  2  3  1  0
  3  4  1  0
  5  4  1  0
  5  6  1  1
  6  7  2  0
  8  9  1  0
  9 10  2  0
  9 11  1  0
 12 11  1  6
 12 14  1  0
 12 13  1  0
 13  6  1  0
 14 16  1  0
 15 14  2  0
 16 17  1  0
 17 28  1  0
 18 19  1  0
 17 18  1  1
 19 27  1  0
 20 21  1  0
 20 19  2  0
 21 22  1  0
 22 27  2  0
 22 23  1  0
 23 24  2  0
 24 25  1  0
 26 25  2  0
 27 26  1  0
 28 29  2  0
 28 30  1  0
M  END
$$$$
