PNW.pdb
     RDKit          3D

 30 32  0  0  1  0  0  0  0  0999 V2000
   22.1070  -24.2515  -16.5642 N   0  0  0  0  0  0  0  0  0  0  0  0
   21.4802  -25.5094  -16.8364 C   0  0  0  0  0  0  0  0  0  0  0  0
   20.0980  -25.2462  -17.3304 C   0  0  0  0  0  0  0  0  0  0  0  0
   19.9217  -23.7752  -17.1298 C   0  0  0  0  0  0  0  0  0  0  0  0
   21.0729  -23.2750  -16.3052 C   0  0  1  0  0  0  0  0  0  0  0  0
   20.7610  -23.1699  -14.8694 C   0  0  0  0  0  0  0  0  0  0  0  0
   20.2009  -24.1175  -14.2911 O   0  0  0  0  0  0  0  0  0  0  0  0
   19.8971  -20.6487  -10.2482 N   0  0  0  0  0  0  0  0  0  0  0  0
   20.8268  -20.0090  -11.0941 C   0  0  0  0  0  0  0  0  0  0  0  0
   21.5043  -19.0702  -10.5484 O   0  0  0  0  0  0  0  0  0  0  0  0
   21.0947  -20.2973  -12.5000 C   0  0  0  0  0  0  0  0  0  0  0  0
   20.3035  -21.4614  -13.0541 C   0  0  2  0  0  0  0  0  0  0  0  0
   21.0764  -22.0242  -14.1203 N   0  0  0  0  0  0  0  0  0  0  0  0
   18.9157  -21.1988  -13.3366 C   0  0  0  0  0  0  0  0  0  0  0  0
   18.0526  -21.2412  -12.4382 O   0  0  0  0  0  0  0  0  0  0  0  0
   18.4831  -20.8836  -14.6429 N   0  0  0  0  0  0  0  0  0  0  0  0
   17.0972  -20.4718  -14.9231 C   0  0  1  0  0  0  0  0  0  0  0  0
   17.1753  -19.0263  -15.2941 C   0  0  0  0  0  0  0  0  0  0  0  0
   18.0659  -18.7722  -16.4438 C   0  0  0  0  0  0  0  0  0  0  0  0
   17.9298  -19.3680  -17.6984 C   0  0  0  0  0  0  0  0  0  0  0  0
   18.8722  -18.8806  -18.5134 N   0  0  0  0  0  0  0  0  0  0  0  0
   19.6314  -17.9882  -17.8616 C   0  0  0  0  0  0  0  0  0  0  0  0
   20.7191  -17.2078  -18.1969 C   0  0  0  0  0  0  0  0  0  0  0  0
   21.2874  -16.3821  -17.2548 C   0  0  0  0  0  0  0  0  0  0  0  0
   20.7972  -16.3076  -15.9639 C   0  0  0  0  0  0  0  0  0  0  0  0
   19.7043  -17.0940  -15.6353 C   0  0  0  0  0  0  0  0  0  0  0  0
   19.1295  -17.9209  -16.5714 C   0  0  0  0  0  0  0  0  0  0  0  0
   16.4904  -21.3833  -15.8634 C   0  0  0  0  0  0  0  0  0  0  0  0
   17.2384  -22.1221  -16.6035 O   0  0  0  0  0  0  0  0  0  0  0  0
   15.1398  -21.5721  -16.0743 O   0  0  0  0  0  0  0  0  0  0  0  0
  1  5  1  0
  2  1  1  0
  2  3  1  0
  3  4  1  0
  5  4  1  0
  5  6  1  1
  6  7  2  0
  8  9  1  0
  9 10  2  0
  9 11  1  0
 12 11  1  6
 12 14  1  0
 12 13  1  0
 13  6  1  0
 14 16  1  0
 15 14  2  0
 16 17  1  0
 17 28  1  0
 18 19  1  0
 17 18  1  6
 19 27  1  0
 20 21  1  0
 20 19  2  0
 21 22  1  0
 22 27  2  0
 22 23  1  0
 23 24  2  0
 24 25  1  0
 26 25  2  0
 27 26  1  0
 28 29  2  0
 28 30  1  0
M  END
$$$$
