PNW.pdb
     RDKit          3D

 30 32  0  0  1  0  0  0  0  0999 V2000
   27.9328  -21.2029  -18.7864 N   0  0  0  0  0  0  0  0  0  0  0  0
   28.6926  -20.1215  -19.3364 C   0  0  0  0  0  0  0  0  0  0  0  0
   30.1217  -20.3129  -18.9563 C   0  0  0  0  0  0  0  0  0  0  0  0
   30.0849  -21.4573  -17.9950 C   0  0  0  0  0  0  0  0  0  0  0  0
   28.6496  -21.7279  -17.6458 C   0  0  1  0  0  0  0  0  0  0  0  0
   28.2246  -21.0917  -16.3870 C   0  0  0  0  0  0  0  0  0  0  0  0
   28.8695  -21.3003  -15.3446 O   0  0  0  0  0  0  0  0  0  0  0  0
   28.4640  -17.3787  -15.4791 N   0  0  0  0  0  0  0  0  0  0  0  0
   27.0820  -17.2475  -15.7282 C   0  0  0  0  0  0  0  0  0  0  0  0
   26.7099  -16.0954  -16.1431 O   0  0  0  0  0  0  0  0  0  0  0  0
   26.0488  -18.2662  -15.5665 C   0  0  0  0  0  0  0  0  0  0  0  0
   26.5760  -19.6202  -15.1459 C   0  0  2  0  0  0  0  0  0  0  0  0
   27.1033  -20.2482  -16.3200 N   0  0  0  0  0  0  0  0  0  0  0  0
   25.6885  -20.4151  -14.3364 C   0  0  0  0  0  0  0  0  0  0  0  0
   24.6572  -20.9253  -14.8158 O   0  0  0  0  0  0  0  0  0  0  0  0
   25.9556  -20.6451  -12.9694 N   0  0  0  0  0  0  0  0  0  0  0  0
   25.1177  -21.5415  -12.1551 C   0  0  1  0  0  0  0  0  0  0  0  0
   26.0342  -22.1259  -11.1295 C   0  0  0  0  0  0  0  0  0  0  0  0
   26.3031  -21.2078  -10.0051 C   0  0  0  0  0  0  0  0  0  0  0  0
   25.3612  -20.3442   -9.4445 C   0  0  0  0  0  0  0  0  0  0  0  0
   25.9255  -19.6940   -8.4204 N   0  0  0  0  0  0  0  0  0  0  0  0
   27.2001  -20.0825   -8.2716 C   0  0  0  0  0  0  0  0  0  0  0  0
   28.2252  -19.7456   -7.4112 C   0  0  0  0  0  0  0  0  0  0  0  0
   29.4570  -20.3429   -7.5447 C   0  0  0  0  0  0  0  0  0  0  0  0
   29.7055  -21.2835   -8.5275 C   0  0  0  0  0  0  0  0  0  0  0  0
   28.6708  -21.6168   -9.3872 C   0  0  0  0  0  0  0  0  0  0  0  0
   27.4360  -21.0254   -9.2596 C   0  0  0  0  0  0  0  0  0  0  0  0
   23.9429  -20.8400  -11.6963 C   0  0  0  0  0  0  0  0  0  0  0  0
   23.8906  -19.5590  -11.7940 O   0  0  0  0  0  0  0  0  0  0  0  0
   22.8111  -21.4018  -11.1417 O   0  0  0  0  0  0  0  0  0  0  0  0
  1  5  1  0
  2  1  1  0
  2  3  1  0
  3  4  1  0
  5  4  1  0
  5  6  1  1
  6  7  2  0
  8  9  1  0
  9 10  2  0
  9 11  1  0
 12 11  1  6
 12 14  1  0
 12 13  1  0
 13  6  1  0
 14 16  1  0
 15 14  2  0
 16 17  1  0
 17 28  1  0
 18 19  1  0
 17 18  1  1
 19 27  1  0
 20 21  1  0
 20 19  2  0
 21 22  1  0
 22 27  2  0
 22 23  1  0
 23 24  2  0
 24 25  1  0
 26 25  2  0
 27 26  1  0
 28 29  2  0
 28 30  1  0
M  END
$$$$
