PNW.pdb
     RDKit          3D

 30 32  0  0  1  0  0  0  0  0999 V2000
   27.3946  -20.2657  -16.5495 N   0  0  0  0  0  0  0  0  0  0  0  0
   28.6673  -19.7132  -16.9016 C   0  0  0  0  0  0  0  0  0  0  0  0
   29.6631  -20.8223  -16.9448 C   0  0  0  0  0  0  0  0  0  0  0  0
   28.9131  -21.9963  -16.4024 C   0  0  0  0  0  0  0  0  0  0  0  0
   27.6182  -21.4981  -15.8275 C   0  0  1  0  0  0  0  0  0  0  0  0
   27.6701  -21.2823  -14.3712 C   0  0  0  0  0  0  0  0  0  0  0  0
   28.0181  -22.2132  -13.6240 O   0  0  0  0  0  0  0  0  0  0  0  0
   25.8847  -17.1467  -14.1380 N   0  0  0  0  0  0  0  0  0  0  0  0
   24.9363  -18.1825  -14.2680 C   0  0  0  0  0  0  0  0  0  0  0  0
   23.8842  -17.8784  -14.9304 O   0  0  0  0  0  0  0  0  0  0  0  0
   25.0240  -19.5399  -13.7377 C   0  0  0  0  0  0  0  0  0  0  0  0
   26.2506  -19.7944  -12.8899 C   0  0  2  0  0  0  0  0  0  0  0  0
   27.3363  -20.0486  -13.7885 N   0  0  0  0  0  0  0  0  0  0  0  0
   26.0817  -20.7289  -11.8068 C   0  0  0  0  0  0  0  0  0  0  0  0
   25.6191  -21.8698  -12.0020 O   0  0  0  0  0  0  0  0  0  0  0  0
   26.4346  -20.3854  -10.4838 N   0  0  0  0  0  0  0  0  0  0  0  0
   26.3347  -21.3529   -9.3779 C   0  0  1  0  0  0  0  0  0  0  0  0
   27.6682  -21.3308   -8.7037 C   0  0  0  0  0  0  0  0  0  0  0  0
   27.8021  -20.2345   -7.7241 C   0  0  0  0  0  0  0  0  0  0  0  0
   27.2242  -18.9720   -7.8637 C   0  0  0  0  0  0  0  0  0  0  0  0
   27.5074  -18.2438   -6.7777 N   0  0  0  0  0  0  0  0  0  0  0  0
   28.2479  -18.9606   -5.9201 C   0  0  0  0  0  0  0  0  0  0  0  0
   28.8152  -18.7167   -4.6859 C   0  0  0  0  0  0  0  0  0  0  0  0
   29.5511  -19.6980   -4.0632 C   0  0  0  0  0  0  0  0  0  0  0  0
   29.7441  -20.9389   -4.6422 C   0  0  0  0  0  0  0  0  0  0  0  0
   29.1706  -21.1762   -5.8815 C   0  0  0  0  0  0  0  0  0  0  0  0
   28.4324  -20.2012   -6.5100 C   0  0  0  0  0  0  0  0  0  0  0  0
   25.1648  -21.0739   -8.5803 C   0  0  0  0  0  0  0  0  0  0  0  0
   24.9268  -21.7824   -7.5340 O   0  0  0  0  0  0  0  0  0  0  0  0
   24.2252  -20.0898   -8.8106 O   0  0  0  0  0  0  0  0  0  0  0  0
  1  5  1  0
  2  1  1  0
  2  3  1  0
  3  4  1  0
  5  4  1  0
  5  6  1  1
  6  7  2  0
  8  9  1  0
  9 10  2  0
  9 11  1  0
 12 11  1  6
 12 14  1  0
 12 13  1  0
 13  6  1  0
 14 16  1  0
 15 14  2  0
 16 17  1  0
 17 28  1  0
 18 19  1  0
 17 18  1  1
 19 27  1  0
 20 21  1  0
 20 19  2  0
 21 22  1  0
 22 27  2  0
 22 23  1  0
 23 24  2  0
 24 25  1  0
 26 25  2  0
 27 26  1  0
 28 29  2  0
 28 30  1  0
M  END
$$$$
