PNW.pdb
     RDKit          3D

 30 32  0  0  1  0  0  0  0  0999 V2000
   28.6540  -22.4043  -15.7715 N   0  0  0  0  0  0  0  0  0  0  0  0
   29.0660  -23.1013  -16.9520 C   0  0  0  0  0  0  0  0  0  0  0  0
   28.8440  -22.2073  -18.1246 C   0  0  0  0  0  0  0  0  0  0  0  0
   28.0991  -21.0449  -17.5510 C   0  0  0  0  0  0  0  0  0  0  0  0
   27.6863  -21.3996  -16.1513 C   0  0  1  0  0  0  0  0  0  0  0  0
   26.3047  -21.9022  -16.0593 C   0  0  0  0  0  0  0  0  0  0  0  0
   25.3841  -21.2737  -16.6102 O   0  0  0  0  0  0  0  0  0  0  0  0
   22.3755  -25.4049  -15.4769 N   0  0  0  0  0  0  0  0  0  0  0  0
   23.5958  -25.8288  -14.9111 C   0  0  0  0  0  0  0  0  0  0  0  0
   23.6107  -27.0372  -14.4897 O   0  0  0  0  0  0  0  0  0  0  0  0
   24.8219  -25.0514  -14.7571 C   0  0  0  0  0  0  0  0  0  0  0  0
   24.6716  -23.5855  -15.0986 C   0  0  2  0  0  0  0  0  0  0  0  0
   25.9850  -23.0796  -15.3630 N   0  0  0  0  0  0  0  0  0  0  0  0
   23.8551  -22.8122  -14.1985 C   0  0  0  0  0  0  0  0  0  0  0  0
   22.6180  -22.9599  -14.1574 O   0  0  0  0  0  0  0  0  0  0  0  0
   24.4277  -21.8582  -13.3296 N   0  0  0  0  0  0  0  0  0  0  0  0
   23.6147  -21.1063  -12.3587 C   0  0  1  0  0  0  0  0  0  0  0  0
   24.5870  -20.5375  -11.3766 C   0  0  0  0  0  0  0  0  0  0  0  0
   25.8741  -20.1576  -11.9918 C   0  0  0  0  0  0  0  0  0  0  0  0
   26.0075  -19.3004  -13.0849 C   0  0  0  0  0  0  0  0  0  0  0  0
   27.3085  -19.1386  -13.3518 N   0  0  0  0  0  0  0  0  0  0  0  0
   28.0497  -19.8482  -12.4888 C   0  0  0  0  0  0  0  0  0  0  0  0
   29.4024  -20.0538  -12.3090 C   0  0  0  0  0  0  0  0  0  0  0  0
   29.8427  -20.8807  -11.3018 C   0  0  0  0  0  0  0  0  0  0  0  0
   28.9610  -21.5223  -10.4512 C   0  0  0  0  0  0  0  0  0  0  0  0
   27.6042  -21.3102  -10.6379 C   0  0  0  0  0  0  0  0  0  0  0  0
   27.1559  -20.4840  -11.6414 C   0  0  0  0  0  0  0  0  0  0  0  0
   22.7348  -20.1950  -13.0501 C   0  0  0  0  0  0  0  0  0  0  0  0
   22.8554  -20.0381  -14.3206 O   0  0  0  0  0  0  0  0  0  0  0  0
   21.7277  -19.4363  -12.4895 O   0  0  0  0  0  0  0  0  0  0  0  0
  1  5  1  0
  2  1  1  0
  2  3  1  0
  3  4  1  0
  5  4  1  0
  5  6  1  6
  6  7  2  0
  8  9  1  0
  9 10  2  0
  9 11  1  0
 12 11  1  1
 12 14  1  0
 12 13  1  0
 13  6  1  0
 14 16  1  0
 15 14  2  0
 16 17  1  0
 17 28  1  0
 18 19  1  0
 17 18  1  1
 19 27  1  0
 20 21  1  0
 20 19  2  0
 21 22  1  0
 22 27  2  0
 22 23  1  0
 23 24  2  0
 24 25  1  0
 26 25  2  0
 27 26  1  0
 28 29  2  0
 28 30  1  0
M  END
$$$$
