PNW.pdb
     RDKit          3D

 30 32  0  0  1  0  0  0  0  0999 V2000
   28.4671  -19.7950  -16.1320 N   0  0  0  0  0  0  0  0  0  0  0  0
   28.0093  -19.4809  -17.4515 C   0  0  0  0  0  0  0  0  0  0  0  0
   27.9803  -17.9970  -17.5958 C   0  0  0  0  0  0  0  0  0  0  0  0
   28.2592  -17.4988  -16.2141 C   0  0  0  0  0  0  0  0  0  0  0  0
   28.1859  -18.6667  -15.2729 C   0  0  1  0  0  0  0  0  0  0  0  0
   26.8805  -18.7959  -14.6026 C   0  0  0  0  0  0  0  0  0  0  0  0
   26.3878  -17.8130  -14.0220 O   0  0  0  0  0  0  0  0  0  0  0  0
   23.7705  -18.7016  -16.1890 N   0  0  0  0  0  0  0  0  0  0  0  0
   23.5141  -20.0772  -16.0125 C   0  0  0  0  0  0  0  0  0  0  0  0
   22.7458  -20.6054  -16.8893 O   0  0  0  0  0  0  0  0  0  0  0  0
   24.0219  -20.9478  -14.9563 C   0  0  0  0  0  0  0  0  0  0  0  0
   24.9079  -20.2472  -13.9501 C   0  0  2  0  0  0  0  0  0  0  0  0
   26.1634  -20.0037  -14.5947 N   0  0  0  0  0  0  0  0  0  0  0  0
   24.9639  -20.8445  -12.6406 C   0  0  0  0  0  0  0  0  0  0  0  0
   25.3296  -22.0256  -12.4825 O   0  0  0  0  0  0  0  0  0  0  0  0
   24.6062  -20.1123  -11.4878 N   0  0  0  0  0  0  0  0  0  0  0  0
   24.6720  -20.7045  -10.1410 C   0  0  1  0  0  0  0  0  0  0  0  0
   25.4645  -19.7415   -9.3175 C   0  0  0  0  0  0  0  0  0  0  0  0
   26.7905  -20.2647   -8.9335 C   0  0  0  0  0  0  0  0  0  0  0  0
   27.5866  -21.0767   -9.7424 C   0  0  0  0  0  0  0  0  0  0  0  0
   28.7363  -21.3274   -9.1058 N   0  0  0  0  0  0  0  0  0  0  0  0
   28.7447  -20.7216   -7.9097 C   0  0  0  0  0  0  0  0  0  0  0  0
   29.6411  -20.6486   -6.8630 C   0  0  0  0  0  0  0  0  0  0  0  0
   29.3219  -19.9282   -5.7355 C   0  0  0  0  0  0  0  0  0  0  0  0
   28.1143  -19.2652   -5.6148 C   0  0  0  0  0  0  0  0  0  0  0  0
   27.2198  -19.3430   -6.6706 C   0  0  0  0  0  0  0  0  0  0  0  0
   27.5317  -20.0598   -7.8017 C   0  0  0  0  0  0  0  0  0  0  0  0
   23.3470  -21.0555   -9.6893 C   0  0  0  0  0  0  0  0  0  0  0  0
   22.3264  -20.7196  -10.3955 O   0  0  0  0  0  0  0  0  0  0  0  0
   23.0238  -21.7444   -8.5381 O   0  0  0  0  0  0  0  0  0  0  0  0
  1  5  1  0
  2  1  1  0
  2  3  1  0
  3  4  1  0
  5  4  1  0
  5  6  1  6
  6  7  2  0
  8  9  1  0
  9 10  2  0
  9 11  1  0
 12 11  1  6
 12 14  1  0
 12 13  1  0
 13  6  1  0
 14 16  1  0
 15 14  2  0
 16 17  1  0
 17 28  1  0
 18 19  1  0
 17 18  1  1
 19 27  1  0
 20 21  1  0
 20 19  2  0
 21 22  1  0
 22 27  2  0
 22 23  1  0
 23 24  2  0
 24 25  1  0
 26 25  2  0
 27 26  1  0
 28 29  2  0
 28 30  1  0
M  END
$$$$
