PNW.pdb
     RDKit          3D

 30 32  0  0  1  0  0  0  0  0999 V2000
   15.5546  -21.9054    0.5457 N   0  0  0  0  0  0  0  0  0  0  0  0
   15.8515  -23.1748   -0.0459 C   0  0  0  0  0  0  0  0  0  0  0  0
   14.6655  -24.0615    0.1295 C   0  0  0  0  0  0  0  0  0  0  0  0
   13.7638  -23.2776    1.0280 C   0  0  0  0  0  0  0  0  0  0  0  0
   14.5351  -22.1004    1.5520 C   0  0  1  0  0  0  0  0  0  0  0  0
   15.1146  -22.3289    2.8869 C   0  0  0  0  0  0  0  0  0  0  0  0
   14.3702  -22.6267    3.8373 O   0  0  0  0  0  0  0  0  0  0  0  0
   18.5243  -24.4799    6.4658 N   0  0  0  0  0  0  0  0  0  0  0  0
   19.0142  -23.7795    5.3439 C   0  0  0  0  0  0  0  0  0  0  0  0
   20.2474  -23.4429    5.4072 O   0  0  0  0  0  0  0  0  0  0  0  0
   18.2791  -23.4040    4.1398 C   0  0  0  0  0  0  0  0  0  0  0  0
   17.1594  -22.4161    4.3818 C   0  0  2  0  0  0  0  0  0  0  0  0
   16.4941  -22.2208    3.1287 N   0  0  0  0  0  0  0  0  0  0  0  0
   17.5190  -21.2264    5.1098 C   0  0  0  0  0  0  0  0  0  0  0  0
   18.0187  -21.2909    6.2499 O   0  0  0  0  0  0  0  0  0  0  0  0
   17.3180  -19.9430    4.5571 N   0  0  0  0  0  0  0  0  0  0  0  0
   17.7281  -18.7195    5.2669 C   0  0  1  0  0  0  0  0  0  0  0  0
   19.0125  -18.2975    4.6300 C   0  0  0  0  0  0  0  0  0  0  0  0
   18.8637  -17.1160    3.7574 C   0  0  0  0  0  0  0  0  0  0  0  0
   17.8251  -16.1885    3.8496 C   0  0  0  0  0  0  0  0  0  0  0  0
   18.0230  -15.2255    2.9422 N   0  0  0  0  0  0  0  0  0  0  0  0
   19.1445  -15.4670    2.2481 C   0  0  0  0  0  0  0  0  0  0  0  0
   19.8056  -14.8314    1.2169 C   0  0  0  0  0  0  0  0  0  0  0  0
   20.9644  -15.3714    0.7091 C   0  0  0  0  0  0  0  0  0  0  0  0
   21.4960  -16.5476    1.2053 C   0  0  0  0  0  0  0  0  0  0  0  0
   20.8264  -17.1795    2.2413 C   0  0  0  0  0  0  0  0  0  0  0  0
   19.6683  -16.6456    2.7555 C   0  0  0  0  0  0  0  0  0  0  0  0
   16.6387  -17.7732    5.2924 C   0  0  0  0  0  0  0  0  0  0  0  0
   15.6472  -17.9256    4.4882 O   0  0  0  0  0  0  0  0  0  0  0  0
   16.5218  -16.6726    6.1165 O   0  0  0  0  0  0  0  0  0  0  0  0
  1  5  1  0
  2  1  1  0
  2  3  1  0
  3  4  1  0
  5  4  1  0
  5  6  1  1
  6  7  2  0
  8  9  1  0
  9 10  2  0
  9 11  1  0
 12 11  1  6
 12 14  1  0
 12 13  1  0
 13  6  1  0
 14 16  1  0
 15 14  2  0
 16 17  1  0
 17 28  1  0
 18 19  1  0
 17 18  1  6
 19 27  1  0
 20 21  1  0
 20 19  2  0
 21 22  1  0
 22 27  2  0
 22 23  1  0
 23 24  2  0
 24 25  1  0
 26 25  2  0
 27 26  1  0
 28 29  2  0
 28 30  1  0
M  END
$$$$
