PNW.pdb
     RDKit          3D

 30 32  0  0  1  0  0  0  0  0999 V2000
   29.0213  -18.9149  -17.6751 N   0  0  0  0  0  0  0  0  0  0  0  0
   28.6891  -17.8664  -18.5914 C   0  0  0  0  0  0  0  0  0  0  0  0
   29.2354  -16.5864  -18.0558 C   0  0  0  0  0  0  0  0  0  0  0  0
   29.7200  -16.9497  -16.6889 C   0  0  0  0  0  0  0  0  0  0  0  0
   29.2219  -18.3297  -16.3684 C   0  0  1  0  0  0  0  0  0  0  0  0
   27.9859  -18.3333  -15.5670 C   0  0  0  0  0  0  0  0  0  0  0  0
   27.9265  -17.6563  -14.5258 O   0  0  0  0  0  0  0  0  0  0  0  0
   25.1968  -16.5472  -16.3690 N   0  0  0  0  0  0  0  0  0  0  0  0
   24.4048  -17.6632  -16.7102 C   0  0  0  0  0  0  0  0  0  0  0  0
   23.5014  -17.4422  -17.5894 O   0  0  0  0  0  0  0  0  0  0  0  0
   24.5029  -19.0191  -16.1779 C   0  0  0  0  0  0  0  0  0  0  0  0
   25.6397  -19.2187  -15.2001 C   0  0  2  0  0  0  0  0  0  0  0  0
   26.8582  -19.0832  -15.9401 N   0  0  0  0  0  0  0  0  0  0  0  0
   25.5343  -20.3713  -14.3426 C   0  0  0  0  0  0  0  0  0  0  0  0
   26.2050  -21.4002  -14.5553 O   0  0  0  0  0  0  0  0  0  0  0  0
   24.6666  -20.3765  -13.2290 N   0  0  0  0  0  0  0  0  0  0  0  0
   24.5509  -21.5456  -12.3409 C   0  0  1  0  0  0  0  0  0  0  0  0
   25.9124  -21.7418  -11.7566 C   0  0  0  0  0  0  0  0  0  0  0  0
   26.1256  -20.9696  -10.5166 C   0  0  0  0  0  0  0  0  0  0  0  0
   25.1898  -20.1013   -9.9530 C   0  0  0  0  0  0  0  0  0  0  0  0
   25.6892  -19.6063   -8.8147 N   0  0  0  0  0  0  0  0  0  0  0  0
   26.9147  -20.1029   -8.5925 C   0  0  0  0  0  0  0  0  0  0  0  0
   27.8676  -19.9360   -7.6084 C   0  0  0  0  0  0  0  0  0  0  0  0
   29.0656  -20.6069   -7.6928 C   0  0  0  0  0  0  0  0  0  0  0  0
   29.3503  -21.4552   -8.7471 C   0  0  0  0  0  0  0  0  0  0  0  0
   28.3878  -21.6178   -9.7311 C   0  0  0  0  0  0  0  0  0  0  0  0
   27.1873  -20.9520   -9.6535 C   0  0  0  0  0  0  0  0  0  0  0  0
   23.4410  -21.3713  -11.4351 C   0  0  0  0  0  0  0  0  0  0  0  0
   23.0221  -22.3722  -10.7452 O   0  0  0  0  0  0  0  0  0  0  0  0
   22.7412  -20.2048  -11.2033 O   0  0  0  0  0  0  0  0  0  0  0  0
  1  5  1  0
  2  1  1  0
  2  3  1  0
  3  4  1  0
  5  4  1  0
  5  6  1  6
  6  7  2  0
  8  9  1  0
  9 10  2  0
  9 11  1  0
 12 11  1  6
 12 14  1  0
 12 13  1  0
 13  6  1  0
 14 16  1  0
 15 14  2  0
 16 17  1  0
 17 28  1  0
 18 19  1  0
 17 18  1  1
 19 27  1  0
 20 21  1  0
 20 19  2  0
 21 22  1  0
 22 27  2  0
 22 23  1  0
 23 24  2  0
 24 25  1  0
 26 25  2  0
 27 26  1  0
 28 29  2  0
 28 30  1  0
M  END
$$$$
