PNW.pdb
     RDKit          3D

 30 32  0  0  1  0  0  0  0  0999 V2000
   27.5240  -18.1620  -17.1405 N   0  0  0  0  0  0  0  0  0  0  0  0
   26.8182  -17.3209  -18.0591 C   0  0  0  0  0  0  0  0  0  0  0  0
   26.2853  -16.1494  -17.3060 C   0  0  0  0  0  0  0  0  0  0  0  0
   26.5656  -16.4866  -15.8768 C   0  0  0  0  0  0  0  0  0  0  0  0
   27.0047  -17.9213  -15.8129 C   0  0  1  0  0  0  0  0  0  0  0  0
   25.9148  -18.8512  -15.4703 C   0  0  0  0  0  0  0  0  0  0  0  0
   25.2114  -19.3336  -16.3750 O   0  0  0  0  0  0  0  0  0  0  0  0
   25.4493  -23.3861  -12.3535 N   0  0  0  0  0  0  0  0  0  0  0  0
   25.8291  -22.0933  -12.7700 C   0  0  0  0  0  0  0  0  0  0  0  0
   26.8895  -22.0404  -13.4848 O   0  0  0  0  0  0  0  0  0  0  0  0
   25.1549  -20.8315  -12.4788 C   0  0  0  0  0  0  0  0  0  0  0  0
   24.6178  -20.1209  -13.7014 C   0  0  2  0  0  0  0  0  0  0  0  0
   25.6372  -19.2170  -14.1428 N   0  0  0  0  0  0  0  0  0  0  0  0
   23.2888  -19.5791  -13.5788 C   0  0  0  0  0  0  0  0  0  0  0  0
   23.0960  -18.4309  -13.1336 O   0  0  0  0  0  0  0  0  0  0  0  0
   22.1557  -20.3304  -13.9591 N   0  0  0  0  0  0  0  0  0  0  0  0
   20.8072  -19.7391  -13.9899 C   0  0  1  0  0  0  0  0  0  0  0  0
   20.9221  -18.5224  -14.8501 C   0  0  0  0  0  0  0  0  0  0  0  0
   21.2437  -18.8374  -16.2561 C   0  0  0  0  0  0  0  0  0  0  0  0
   20.8152  -19.9819  -16.9298 C   0  0  0  0  0  0  0  0  0  0  0  0
   21.2466  -19.9263  -18.1950 N   0  0  0  0  0  0  0  0  0  0  0  0
   21.9436  -18.7989  -18.3972 C   0  0  0  0  0  0  0  0  0  0  0  0
   22.6067  -18.2456  -19.4736 C   0  0  0  0  0  0  0  0  0  0  0  0
   23.2537  -17.0397  -19.3345 C   0  0  0  0  0  0  0  0  0  0  0  0
   23.2617  -16.3539  -18.1337 C   0  0  0  0  0  0  0  0  0  0  0  0
   22.5931  -16.9160  -17.0576 C   0  0  0  0  0  0  0  0  0  0  0  0
   21.9426  -18.1204  -17.1887 C   0  0  0  0  0  0  0  0  0  0  0  0
   19.8354  -20.7413  -14.3559 C   0  0  0  0  0  0  0  0  0  0  0  0
   18.5817  -20.4654  -14.2835 O   0  0  0  0  0  0  0  0  0  0  0  0
   20.0981  -22.0213  -14.7995 O   0  0  0  0  0  0  0  0  0  0  0  0
  1  5  1  0
  2  1  1  0
  2  3  1  0
  3  4  1  0
  5  4  1  0
  5  6  1  6
  6  7  2  0
  8  9  1  0
  9 10  2  0
  9 11  1  0
 12 11  1  1
 12 14  1  0
 12 13  1  0
 13  6  1  0
 14 16  1  0
 15 14  2  0
 16 17  1  0
 17 28  1  0
 18 19  1  0
 17 18  1  6
 19 27  1  0
 20 21  1  0
 20 19  2  0
 21 22  1  0
 22 27  2  0
 22 23  1  0
 23 24  2  0
 24 25  1  0
 26 25  2  0
 27 26  1  0
 28 29  2  0
 28 30  1  0
M  END
$$$$
