PNW.pdb
     RDKit          3D

 30 32  0  0  1  0  0  0  0  0999 V2000
   27.9654  -21.0114  -16.6205 N   0  0  0  0  0  0  0  0  0  0  0  0
   27.3187  -20.3974  -17.7403 C   0  0  0  0  0  0  0  0  0  0  0  0
   27.9202  -19.0485  -17.9462 C   0  0  0  0  0  0  0  0  0  0  0  0
   28.8030  -18.8659  -16.7535 C   0  0  0  0  0  0  0  0  0  0  0  0
   28.5031  -19.9672  -15.7775 C   0  0  1  0  0  0  0  0  0  0  0  0
   27.5570  -19.5698  -14.7207 C   0  0  0  0  0  0  0  0  0  0  0  0
   27.7706  -18.5378  -14.0609 O   0  0  0  0  0  0  0  0  0  0  0  0
   21.7907  -20.5405  -12.9975 N   0  0  0  0  0  0  0  0  0  0  0  0
   22.9311  -19.7656  -13.2945 C   0  0  0  0  0  0  0  0  0  0  0  0
   22.9559  -18.6042  -12.7573 O   0  0  0  0  0  0  0  0  0  0  0  0
   24.0658  -20.1391  -14.1337 C   0  0  0  0  0  0  0  0  0  0  0  0
   25.4090  -20.0113  -13.4499 C   0  0  2  0  0  0  0  0  0  0  0  0
   26.4085  -20.3234  -14.4270 N   0  0  0  0  0  0  0  0  0  0  0  0
   25.5293  -20.6713  -12.1753 C   0  0  0  0  0  0  0  0  0  0  0  0
   25.2566  -21.8805  -12.0438 O   0  0  0  0  0  0  0  0  0  0  0  0
   25.9611  -19.9712  -11.0280 N   0  0  0  0  0  0  0  0  0  0  0  0
   25.9088  -20.5744   -9.6854 C   0  0  1  0  0  0  0  0  0  0  0  0
   26.8406  -19.7632   -8.8445 C   0  0  0  0  0  0  0  0  0  0  0  0
   26.9051  -20.2250   -7.4438 C   0  0  0  0  0  0  0  0  0  0  0  0
   26.0428  -21.1658   -6.8791 C   0  0  0  0  0  0  0  0  0  0  0  0
   26.4109  -21.3843   -5.6116 N   0  0  0  0  0  0  0  0  0  0  0  0
   27.4779  -20.6331   -5.3034 C   0  0  0  0  0  0  0  0  0  0  0  0
   28.2461  -20.4532   -4.1712 C   0  0  0  0  0  0  0  0  0  0  0  0
   29.2967  -19.5655   -4.1890 C   0  0  0  0  0  0  0  0  0  0  0  0
   29.6127  -18.8367   -5.3210 C   0  0  0  0  0  0  0  0  0  0  0  0
   28.8367  -19.0234   -6.4541 C   0  0  0  0  0  0  0  0  0  0  0  0
   27.7857  -19.9099   -6.4450 C   0  0  0  0  0  0  0  0  0  0  0  0
   24.5379  -20.7009   -9.2526 C   0  0  0  0  0  0  0  0  0  0  0  0
   23.6826  -19.7997   -9.5834 O   0  0  0  0  0  0  0  0  0  0  0  0
   24.0039  -21.7219   -8.4932 O   0  0  0  0  0  0  0  0  0  0  0  0
  1  5  1  0
  2  1  1  0
  2  3  1  0
  3  4  1  0
  5  4  1  0
  5  6  1  1
  6  7  2  0
  8  9  1  0
  9 10  2  0
  9 11  1  0
 12 11  1  6
 12 14  1  0
 12 13  1  0
 13  6  1  0
 14 16  1  0
 15 14  2  0
 16 17  1  0
 17 28  1  0
 18 19  1  0
 17 18  1  1
 19 27  1  0
 20 21  1  0
 20 19  2  0
 21 22  1  0
 22 27  2  0
 22 23  1  0
 23 24  2  0
 24 25  1  0
 26 25  2  0
 27 26  1  0
 28 29  2  0
 28 30  1  0
M  END
$$$$
