PNW.pdb
     RDKit          3D

 30 32  0  0  1  0  0  0  0  0999 V2000
   29.0058  -19.5668  -14.8360 N   0  0  0  0  0  0  0  0  0  0  0  0
   29.4037  -19.5837  -16.2110 C   0  0  0  0  0  0  0  0  0  0  0  0
   28.8876  -18.3457  -16.8627 C   0  0  0  0  0  0  0  0  0  0  0  0
   28.0093  -17.7331  -15.8195 C   0  0  0  0  0  0  0  0  0  0  0  0
   27.8312  -18.7328  -14.7131 C   0  0  1  0  0  0  0  0  0  0  0  0
   26.5868  -19.5131  -14.8255 C   0  0  0  0  0  0  0  0  0  0  0  0
   25.5000  -18.9222  -14.9511 O   0  0  0  0  0  0  0  0  0  0  0  0
   26.2001  -21.7621  -17.6318 N   0  0  0  0  0  0  0  0  0  0  0  0
   26.2558  -22.9231  -16.8330 C   0  0  0  0  0  0  0  0  0  0  0  0
   26.7371  -23.9592  -17.4101 O   0  0  0  0  0  0  0  0  0  0  0  0
   25.8313  -23.0676  -15.4436 C   0  0  0  0  0  0  0  0  0  0  0  0
   25.4305  -21.7680  -14.7813 C   0  0  2  0  0  0  0  0  0  0  0  0
   26.5826  -20.9175  -14.7951 N   0  0  0  0  0  0  0  0  0  0  0  0
   24.7393  -21.8920  -13.5237 C   0  0  0  0  0  0  0  0  0  0  0  0
   23.5255  -22.1718  -13.4766 O   0  0  0  0  0  0  0  0  0  0  0  0
   25.4129  -21.7009  -12.2978 N   0  0  0  0  0  0  0  0  0  0  0  0
   24.7063  -21.7576  -11.0070 C   0  0  1  0  0  0  0  0  0  0  0  0
   25.7742  -21.8959   -9.9707 C   0  0  0  0  0  0  0  0  0  0  0  0
   26.3337  -20.5990   -9.5412 C   0  0  0  0  0  0  0  0  0  0  0  0
   26.1175  -19.3864  -10.1972 C   0  0  0  0  0  0  0  0  0  0  0  0
   26.7305  -18.4110   -9.5168 N   0  0  0  0  0  0  0  0  0  0  0  0
   27.3462  -18.9157   -8.4380 C   0  0  0  0  0  0  0  0  0  0  0  0
   28.1136  -18.3869   -7.4202 C   0  0  0  0  0  0  0  0  0  0  0  0
   28.6209  -19.2123   -6.4437 C   0  0  0  0  0  0  0  0  0  0  0  0
   28.3839  -20.5747   -6.4490 C   0  0  0  0  0  0  0  0  0  0  0  0
   27.6118  -21.0979   -7.4742 C   0  0  0  0  0  0  0  0  0  0  0  0
   27.0997  -20.2795   -8.4533 C   0  0  0  0  0  0  0  0  0  0  0  0
   23.7898  -20.6483  -10.8951 C   0  0  0  0  0  0  0  0  0  0  0  0
   22.8751  -20.6700   -9.9917 O   0  0  0  0  0  0  0  0  0  0  0  0
   23.7752  -19.5091  -11.6737 O   0  0  0  0  0  0  0  0  0  0  0  0
  1  5  1  0
  2  1  1  0
  2  3  1  0
  3  4  1  0
  5  4  1  0
  5  6  1  6
  6  7  2  0
  8  9  1  0
  9 10  2  0
  9 11  1  0
 12 11  1  1
 12 14  1  0
 12 13  1  0
 13  6  1  0
 14 16  1  0
 15 14  2  0
 16 17  1  0
 17 28  1  0
 18 19  1  0
 17 18  1  1
 19 27  1  0
 20 21  1  0
 20 19  2  0
 21 22  1  0
 22 27  2  0
 22 23  1  0
 23 24  2  0
 24 25  1  0
 26 25  2  0
 27 26  1  0
 28 29  2  0
 28 30  1  0
M  END
$$$$
