TKW.pdb
     RDKit          3D

 31 32  0  0  1  0  0  0  0  0999 V2000
    8.7117  -12.7978   18.4796 C   0  0  0  0  0  0  0  0  0  0  0  0
    8.6182  -13.7489   19.6281 C   0  0  1  0  0  0  0  0  0  0  0  0
    8.9262  -13.1055   20.8267 O   0  0  0  0  0  0  0  0  0  0  0  0
    7.3512  -14.5320   19.7039 C   0  0  2  0  0  0  0  0  0  0  0  0
    6.2054  -13.6909   19.6182 N   0  0  0  0  0  0  0  0  0  0  0  0
    7.3069  -15.4887   20.8436 C   0  0  0  0  0  0  0  0  0  0  0  0
    6.6619  -15.2227   21.8892 O   0  0  0  0  0  0  0  0  0  0  0  0
    7.9863  -16.7420   20.8086 N   0  0  0  0  0  0  0  0  0  0  0  0
    8.0129  -17.6760   21.8966 C   0  0  1  0  0  0  0  0  0  0  0  0
    8.4320  -19.0362   21.4888 C   0  0  0  0  0  0  0  0  0  0  0  0
    8.3570  -19.9738   22.6617 C   0  0  0  0  0  0  0  0  0  0  0  0
    8.7985  -21.3613   22.3375 C   0  0  0  0  0  0  0  0  0  0  0  0
    8.6591  -22.2994   23.5269 C   0  0  0  0  0  0  0  0  0  0  0  0
    9.0215  -23.6188   23.0313 N   0  0  0  0  0  0  0  0  0  0  0  0
    8.8718  -17.0903   22.9692 C   0  0  0  0  0  0  0  0  0  0  0  0
    9.8941  -16.4217   22.6828 O   0  0  0  0  0  0  0  0  0  0  0  0
    8.5754  -17.2597   24.3513 N   0  0  0  0  0  0  0  0  0  0  0  0
    9.3913  -16.7391   25.4342 C   0  0  1  0  0  0  0  0  0  0  0  0
    8.5973  -16.2725   26.5819 C   0  0  0  0  0  0  0  0  0  0  0  0
    7.5607  -15.2963   26.2236 C   0  0  0  0  0  0  0  0  0  0  0  0
    6.2711  -15.5510   25.7358 C   0  0  0  0  0  0  0  0  0  0  0  0
    5.6385  -14.3956   25.4865 N   0  0  0  0  0  0  0  0  0  0  0  0
    6.4398  -13.3782   25.7838 C   0  0  0  0  0  0  0  0  0  0  0  0
    6.2478  -11.9944   25.7204 C   0  0  0  0  0  0  0  0  0  0  0  0
    7.2809  -11.1936   26.1286 C   0  0  0  0  0  0  0  0  0  0  0  0
    8.4784  -11.6785   26.5901 C   0  0  0  0  0  0  0  0  0  0  0  0
    8.6609  -13.0358   26.6489 C   0  0  0  0  0  0  0  0  0  0  0  0
    7.6432  -13.9009   26.2453 C   0  0  0  0  0  0  0  0  0  0  0  0
   10.5625  -17.5301   25.7695 C   0  0  0  0  0  0  0  0  0  0  0  0
   10.7486  -18.7492   25.0854 O   0  0  0  0  0  0  0  0  0  0  0  0
   11.4517  -17.2660   26.6051 O   0  0  0  0  0  0  0  0  0  0  0  0
  2  1  1  6
  3  2  1  0
  4  2  1  0
  4  5  1  1
  6  7  2  0
  6  4  1  0
  8  6  1  0
  9  8  1  0
  9 10  1  6
 11 10  1  0
 12 11  1  0
 13 12  1  0
 14 13  1  0
 15  9  1  0
 15 17  1  0
 16 15  2  0
 18 17  1  0
 18 29  1  0
 19 20  1  0
 18 19  1  1
 20 28  1  0
 21 20  2  0
 21 22  1  0
 22 23  1  0
 23 24  1  0
 24 25  2  0
 26 25  1  0
 27 26  2  0
 28 23  2  0
 28 27  1  0
 29 31  2  0
 29 30  1  0
M  END
$$$$
