TKW.pdb
     RDKit          3D

 31 32  0  0  1  0  0  0  0  0999 V2000
    7.9225  -12.4481   19.0376 C   0  0  0  0  0  0  0  0  0  0  0  0
    8.3117  -13.5206   20.0023 C   0  0  1  0  0  0  0  0  0  0  0  0
    8.0706  -13.1138   21.3145 O   0  0  0  0  0  0  0  0  0  0  0  0
    7.7569  -14.8732   19.7075 C   0  0  2  0  0  0  0  0  0  0  0  0
    6.3558  -14.8256   19.4580 N   0  0  0  0  0  0  0  0  0  0  0  0
    8.1528  -15.9109   20.6987 C   0  0  0  0  0  0  0  0  0  0  0  0
    7.3376  -16.3320   21.5579 O   0  0  0  0  0  0  0  0  0  0  0  0
    9.4626  -16.4743   20.7247 N   0  0  0  0  0  0  0  0  0  0  0  0
    9.8965  -17.4645   21.6672 C   0  0  1  0  0  0  0  0  0  0  0  0
   10.9948  -18.3157   21.1563 C   0  0  0  0  0  0  0  0  0  0  0  0
   10.5755  -18.9900   19.8796 C   0  0  0  0  0  0  0  0  0  0  0  0
   11.6303  -19.8742   19.3048 C   0  0  0  0  0  0  0  0  0  0  0  0
   11.2181  -20.4601   17.9628 C   0  0  0  0  0  0  0  0  0  0  0  0
   12.3145  -21.3278   17.5594 N   0  0  0  0  0  0  0  0  0  0  0  0
   10.2405  -16.7552   22.9360 C   0  0  0  0  0  0  0  0  0  0  0  0
   10.8702  -15.6701   22.9172 O   0  0  0  0  0  0  0  0  0  0  0  0
    9.8747  -17.2694   24.2121 N   0  0  0  0  0  0  0  0  0  0  0  0
   10.2004  -16.6326   25.4762 C   0  0  1  0  0  0  0  0  0  0  0  0
    9.9944  -15.1756   25.4582 C   0  0  0  0  0  0  0  0  0  0  0  0
    8.5991  -14.7748   25.6780 C   0  0  0  0  0  0  0  0  0  0  0  0
    7.4464  -15.5609   25.5396 C   0  0  0  0  0  0  0  0  0  0  0  0
    6.3552  -14.8226   25.7877 N   0  0  0  0  0  0  0  0  0  0  0  0
    6.7191  -13.5801   26.0867 C   0  0  0  0  0  0  0  0  0  0  0  0
    5.9713  -12.4510   26.4357 C   0  0  0  0  0  0  0  0  0  0  0  0
    6.6581  -11.2995   26.7142 C   0  0  0  0  0  0  0  0  0  0  0  0
    8.0258  -11.2031   26.6674 C   0  0  0  0  0  0  0  0  0  0  0  0
    8.7531  -12.3130   26.3236 C   0  0  0  0  0  0  0  0  0  0  0  0
    8.1071  -13.5141   26.0285 C   0  0  0  0  0  0  0  0  0  0  0  0
    9.7132  -17.3143   26.6627 C   0  0  0  0  0  0  0  0  0  0  0  0
   10.2006  -16.8829   27.9138 O   0  0  0  0  0  0  0  0  0  0  0  0
    8.8966  -18.2567   26.7237 O   0  0  0  0  0  0  0  0  0  0  0  0
  2  1  1  6
  3  2  1  0
  4  2  1  0
  4  5  1  1
  6  7  2  0
  6  4  1  0
  8  6  1  0
  9  8  1  0
  9 10  1  6
 11 10  1  0
 12 11  1  0
 13 12  1  0
 14 13  1  0
 15  9  1  0
 15 17  1  0
 16 15  2  0
 18 17  1  0
 18 29  1  0
 19 20  1  0
 18 19  1  6
 20 28  1  0
 21 20  2  0
 21 22  1  0
 22 23  1  0
 23 24  1  0
 24 25  2  0
 26 25  1  0
 27 26  2  0
 28 23  2  0
 28 27  1  0
 29 31  2  0
 29 30  1  0
M  END
$$$$
