TKW.pdb
     RDKit          3D

 31 32  0  0  1  0  0  0  0  0999 V2000
    4.6071  -19.3698   23.5004 C   0  0  0  0  0  0  0  0  0  0  0  0
    5.8674  -18.6865   23.0791 C   0  0  1  0  0  0  0  0  0  0  0  0
    6.9750  -19.2783   23.6863 O   0  0  0  0  0  0  0  0  0  0  0  0
    6.0387  -18.5189   21.6071 C   0  0  2  0  0  0  0  0  0  0  0  0
    5.8866  -19.7537   20.9144 N   0  0  0  0  0  0  0  0  0  0  0  0
    7.2681  -17.7691   21.2298 C   0  0  0  0  0  0  0  0  0  0  0  0
    8.2963  -18.3697   20.8268 O   0  0  0  0  0  0  0  0  0  0  0  0
    7.3422  -16.3470   21.3053 N   0  0  0  0  0  0  0  0  0  0  0  0
    8.5092  -15.5813   20.9755 C   0  0  1  0  0  0  0  0  0  0  0  0
    8.2019  -14.3399   20.2294 C   0  0  0  0  0  0  0  0  0  0  0  0
    8.7086  -14.4460   18.8179 C   0  0  0  0  0  0  0  0  0  0  0  0
    8.0175  -13.5232   17.8715 C   0  0  0  0  0  0  0  0  0  0  0  0
    8.5134  -13.6906   16.4431 C   0  0  0  0  0  0  0  0  0  0  0  0
    7.6797  -12.8155   15.6326 N   0  0  0  0  0  0  0  0  0  0  0  0
    9.2584  -15.3373   22.2445 C   0  0  0  0  0  0  0  0  0  0  0  0
    9.7836  -14.2221   22.4784 O   0  0  0  0  0  0  0  0  0  0  0  0
    9.4107  -16.3456   23.2379 N   0  0  0  0  0  0  0  0  0  0  0  0
   10.1236  -16.1616   24.4898 C   0  0  1  0  0  0  0  0  0  0  0  0
    9.7507  -14.9217   25.1892 C   0  0  0  0  0  0  0  0  0  0  0  0
    8.3206  -14.8333   25.5101 C   0  0  0  0  0  0  0  0  0  0  0  0
    7.3534  -15.8437   25.4136 C   0  0  0  0  0  0  0  0  0  0  0  0
    6.1505  -15.3615   25.7566 N   0  0  0  0  0  0  0  0  0  0  0  0
    6.2631  -14.0775   26.0796 C   0  0  0  0  0  0  0  0  0  0  0  0
    5.3194  -13.1427   26.5170 C   0  0  0  0  0  0  0  0  0  0  0  0
    5.7647  -11.8782   26.7961 C   0  0  0  0  0  0  0  0  0  0  0  0
    7.0746  -11.4910   26.6683 C   0  0  0  0  0  0  0  0  0  0  0  0
    7.9948  -12.4116   26.2382 C   0  0  0  0  0  0  0  0  0  0  0  0
    7.5986  -13.7154   25.9381 C   0  0  0  0  0  0  0  0  0  0  0  0
   10.2255  -17.3422   25.3298 C   0  0  0  0  0  0  0  0  0  0  0  0
   11.0946  -17.2850   26.4390 O   0  0  0  0  0  0  0  0  0  0  0  0
    9.6283  -18.4305   25.1973 O   0  0  0  0  0  0  0  0  0  0  0  0
  2  1  1  6
  3  2  1  0
  4  2  1  0
  4  5  1  6
  6  7  2  0
  6  4  1  0
  8  6  1  0
  9  8  1  0
  9 10  1  1
 11 10  1  0
 12 11  1  0
 13 12  1  0
 14 13  1  0
 15  9  1  0
 15 17  1  0
 16 15  2  0
 18 17  1  0
 18 29  1  0
 19 20  1  0
 18 19  1  1
 20 28  1  0
 21 20  2  0
 21 22  1  0
 22 23  1  0
 23 24  1  0
 24 25  2  0
 26 25  1  0
 27 26  2  0
 28 23  2  0
 28 27  1  0
 29 31  2  0
 29 30  1  0
M  END
$$$$
