TKW.pdb
     RDKit          3D

 31 32  0  0  1  0  0  0  0  0999 V2000
   11.7200  -19.5070   18.0679 C   0  0  0  0  0  0  0  0  0  0  0  0
   11.1152  -18.6902   19.1631 C   0  0  1  0  0  0  0  0  0  0  0  0
   12.1083  -18.0642   19.9165 O   0  0  0  0  0  0  0  0  0  0  0  0
   10.0384  -17.7510   18.7359 C   0  0  2  0  0  0  0  0  0  0  0  0
   10.4571  -16.9261   17.6533 N   0  0  0  0  0  0  0  0  0  0  0  0
    9.4237  -16.9945   19.8610 C   0  0  0  0  0  0  0  0  0  0  0  0
    9.7613  -15.8089   20.1068 O   0  0  0  0  0  0  0  0  0  0  0  0
    8.4314  -17.5694   20.7086 N   0  0  0  0  0  0  0  0  0  0  0  0
    7.8957  -16.9278   21.8742 C   0  0  1  0  0  0  0  0  0  0  0  0
    6.6493  -17.5569   22.3666 C   0  0  0  0  0  0  0  0  0  0  0  0
    6.9272  -18.9587   22.8339 C   0  0  0  0  0  0  0  0  0  0  0  0
    5.7683  -19.8809   22.6561 C   0  0  0  0  0  0  0  0  0  0  0  0
    6.0599  -21.2763   23.1871 C   0  0  0  0  0  0  0  0  0  0  0  0
    5.3885  -21.3547   24.4758 N   0  0  0  0  0  0  0  0  0  0  0  0
    8.9805  -16.8843   22.9002 C   0  0  0  0  0  0  0  0  0  0  0  0
    9.6988  -17.8888   23.1213 O   0  0  0  0  0  0  0  0  0  0  0  0
    9.2487  -15.7151   23.6669 N   0  0  0  0  0  0  0  0  0  0  0  0
    9.9621  -15.7107   24.9321 C   0  0  1  0  0  0  0  0  0  0  0  0
    9.0926  -15.9916   26.0856 C   0  0  0  0  0  0  0  0  0  0  0  0
    7.8489  -15.2113   26.0901 C   0  0  0  0  0  0  0  0  0  0  0  0
    6.5357  -15.6851   25.9605 C   0  0  0  0  0  0  0  0  0  0  0  0
    5.6744  -14.6578   25.9700 N   0  0  0  0  0  0  0  0  0  0  0  0
    6.3449  -13.5182   26.1007 C   0  0  0  0  0  0  0  0  0  0  0  0
    5.9140  -12.1902   26.1822 C   0  0  0  0  0  0  0  0  0  0  0  0
    6.8711  -11.2238   26.3414 C   0  0  0  0  0  0  0  0  0  0  0  0
    8.2137  -11.4936   26.4234 C   0  0  0  0  0  0  0  0  0  0  0  0
    8.6299  -12.7972   26.3418 C   0  0  0  0  0  0  0  0  0  0  0  0
    7.6994  -13.8241   26.1786 C   0  0  0  0  0  0  0  0  0  0  0  0
   11.2379  -16.4050   24.9320 C   0  0  0  0  0  0  0  0  0  0  0  0
   11.6877  -16.9507   23.7118 O   0  0  0  0  0  0  0  0  0  0  0  0
   12.0112  -16.5867   25.8951 O   0  0  0  0  0  0  0  0  0  0  0  0
  2  1  1  6
  3  2  1  0
  4  2  1  0
  4  5  1  6
  6  7  2  0
  6  4  1  0
  8  6  1  0
  9  8  1  0
  9 10  1  1
 11 10  1  0
 12 11  1  0
 13 12  1  0
 14 13  1  0
 15  9  1  0
 15 17  1  0
 16 15  2  0
 18 17  1  0
 18 29  1  0
 19 20  1  0
 18 19  1  1
 20 28  1  0
 21 20  2  0
 21 22  1  0
 22 23  1  0
 23 24  1  0
 24 25  2  0
 26 25  1  0
 27 26  2  0
 28 23  2  0
 28 27  1  0
 29 31  2  0
 29 30  1  0
M  END
$$$$
