TKW.pdb
     RDKit          3D

 31 32  0  0  1  0  0  0  0  0999 V2000
    8.4565  -12.2358   18.8607 C   0  0  0  0  0  0  0  0  0  0  0  0
    8.6267  -13.2671   19.9284 C   0  0  1  0  0  0  0  0  0  0  0  0
    8.9661  -12.6685   21.1416 O   0  0  0  0  0  0  0  0  0  0  0  0
    7.5025  -14.2382   20.0599 C   0  0  2  0  0  0  0  0  0  0  0  0
    6.2475  -13.5777   20.1886 N   0  0  0  0  0  0  0  0  0  0  0  0
    7.7351  -15.2862   21.0911 C   0  0  0  0  0  0  0  0  0  0  0  0
    7.0510  -15.3226   22.1451 O   0  0  0  0  0  0  0  0  0  0  0  0
    8.7350  -16.2915   20.9386 N   0  0  0  0  0  0  0  0  0  0  0  0
    8.9383  -17.3734   21.8579 C   0  0  1  0  0  0  0  0  0  0  0  0
    9.6370  -18.5303   21.2535 C   0  0  0  0  0  0  0  0  0  0  0  0
    9.8140  -19.6190   22.2751 C   0  0  0  0  0  0  0  0  0  0  0  0
    9.3116  -20.9465   21.8164 C   0  0  0  0  0  0  0  0  0  0  0  0
    9.3980  -22.0008   22.9097 C   0  0  0  0  0  0  0  0  0  0  0  0
    8.8557  -23.2182   22.3254 N   0  0  0  0  0  0  0  0  0  0  0  0
    9.6401  -16.8190   23.0543 C   0  0  0  0  0  0  0  0  0  0  0  0
   10.6804  -16.1291   22.9287 O   0  0  0  0  0  0  0  0  0  0  0  0
    9.1681  -17.0434   24.3786 N   0  0  0  0  0  0  0  0  0  0  0  0
    9.9402  -16.7780   25.5797 C   0  0  1  0  0  0  0  0  0  0  0  0
    9.1113  -16.3364   26.7126 C   0  0  0  0  0  0  0  0  0  0  0  0
    7.9425  -15.5423   26.3135 C   0  0  0  0  0  0  0  0  0  0  0  0
    6.7443  -16.0000   25.7473 C   0  0  0  0  0  0  0  0  0  0  0  0
    5.9361  -14.9634   25.4837 N   0  0  0  0  0  0  0  0  0  0  0  0
    6.5327  -13.8327   25.8461 C   0  0  0  0  0  0  0  0  0  0  0  0
    6.1084  -12.5010   25.7979 C   0  0  0  0  0  0  0  0  0  0  0  0
    6.9644  -11.5471   26.2802 C   0  0  0  0  0  0  0  0  0  0  0  0
    8.2011  -11.8328   26.8009 C   0  0  0  0  0  0  0  0  0  0  0  0
    8.6117  -13.1399   26.8445 C   0  0  0  0  0  0  0  0  0  0  0  0
    7.7817  -14.1546   26.3664 C   0  0  0  0  0  0  0  0  0  0  0  0
   10.9553  -17.7662   25.9006 C   0  0  0  0  0  0  0  0  0  0  0  0
   11.8308  -17.4840   26.9696 O   0  0  0  0  0  0  0  0  0  0  0  0
   11.1603  -18.8633   25.3411 O   0  0  0  0  0  0  0  0  0  0  0  0
  2  1  1  6
  3  2  1  0
  4  2  1  0
  4  5  1  1
  6  7  2  0
  6  4  1  0
  8  6  1  0
  9  8  1  0
  9 10  1  6
 11 10  1  0
 12 11  1  0
 13 12  1  0
 14 13  1  0
 15  9  1  0
 15 17  1  0
 16 15  2  0
 18 17  1  0
 18 29  1  0
 19 20  1  0
 18 19  1  1
 20 28  1  0
 21 20  2  0
 21 22  1  0
 22 23  1  0
 23 24  1  0
 24 25  2  0
 26 25  1  0
 27 26  2  0
 28 23  2  0
 28 27  1  0
 29 31  2  0
 29 30  1  0
M  END
$$$$
