TKW.pdb
     RDKit          3D

 31 32  0  0  1  0  0  0  0  0999 V2000
   10.0676  -12.7494   20.0221 C   0  0  0  0  0  0  0  0  0  0  0  0
    8.8476  -12.7639   19.1596 C   0  0  1  0  0  0  0  0  0  0  0  0
    8.9291  -11.7798   18.1746 O   0  0  0  0  0  0  0  0  0  0  0  0
    8.4727  -14.0988   18.6103 C   0  0  2  0  0  0  0  0  0  0  0  0
    7.3628  -14.0110   17.7225 N   0  0  0  0  0  0  0  0  0  0  0  0
    8.3243  -15.1532   19.6507 C   0  0  0  0  0  0  0  0  0  0  0  0
    7.2222  -15.3499   20.2225 O   0  0  0  0  0  0  0  0  0  0  0  0
    9.4123  -15.9850   20.0480 N   0  0  0  0  0  0  0  0  0  0  0  0
    9.3176  -17.0203   21.0360 C   0  0  1  0  0  0  0  0  0  0  0  0
    9.8074  -18.3324   20.5562 C   0  0  0  0  0  0  0  0  0  0  0  0
    8.9558  -18.8169   19.4158 C   0  0  0  0  0  0  0  0  0  0  0  0
    9.4324  -20.1021   18.8275 C   0  0  0  0  0  0  0  0  0  0  0  0
    8.6030  -20.5236   17.6239 C   0  0  0  0  0  0  0  0  0  0  0  0
    9.1711  -21.7871   17.1782 N   0  0  0  0  0  0  0  0  0  0  0  0
   10.0247  -16.5377   22.2601 C   0  0  0  0  0  0  0  0  0  0  0  0
   10.9089  -15.6508   22.1858 O   0  0  0  0  0  0  0  0  0  0  0  0
    9.7327  -17.0540   23.5543 N   0  0  0  0  0  0  0  0  0  0  0  0
    9.9923  -16.3472   24.7962 C   0  0  1  0  0  0  0  0  0  0  0  0
    9.5549  -14.9425   24.7628 C   0  0  0  0  0  0  0  0  0  0  0  0
    8.1944  -14.7364   25.2751 C   0  0  0  0  0  0  0  0  0  0  0  0
    7.1158  -15.6313   25.2359 C   0  0  0  0  0  0  0  0  0  0  0  0
    6.0260  -15.0598   25.7679 N   0  0  0  0  0  0  0  0  0  0  0  0
    6.3206  -13.8258   26.1630 C   0  0  0  0  0  0  0  0  0  0  0  0
    5.5485  -12.8401   26.7861 C   0  0  0  0  0  0  0  0  0  0  0  0
    6.1635  -11.6555   27.0924 C   0  0  0  0  0  0  0  0  0  0  0  0
    7.4825  -11.3943   26.8206 C   0  0  0  0  0  0  0  0  0  0  0  0
    8.2338  -12.3641   26.2089 C   0  0  0  0  0  0  0  0  0  0  0  0
    7.6603  -13.5909   25.8725 C   0  0  0  0  0  0  0  0  0  0  0  0
    9.6587  -17.0730   26.0094 C   0  0  0  0  0  0  0  0  0  0  0  0
    8.9345  -18.2757   25.8760 O   0  0  0  0  0  0  0  0  0  0  0  0
    9.9370  -16.7657   27.1870 O   0  0  0  0  0  0  0  0  0  0  0  0
  2  1  1  6
  3  2  1  0
  4  2  1  0
  4  5  1  1
  6  7  2  0
  6  4  1  0
  8  6  1  0
  9  8  1  0
  9 10  1  6
 11 10  1  0
 12 11  1  0
 13 12  1  0
 14 13  1  0
 15  9  1  0
 15 17  1  0
 16 15  2  0
 18 17  1  0
 18 29  1  0
 19 20  1  0
 18 19  1  6
 20 28  1  0
 21 20  2  0
 21 22  1  0
 22 23  1  0
 23 24  1  0
 24 25  2  0
 26 25  1  0
 27 26  2  0
 28 23  2  0
 28 27  1  0
 29 31  2  0
 29 30  1  0
M  END
$$$$
