TKW.pdb
     RDKit          3D

 31 32  0  0  1  0  0  0  0  0999 V2000
    8.1708  -12.3192   18.7660 C   0  0  0  0  0  0  0  0  0  0  0  0
    8.5006  -13.3961   19.7479 C   0  0  1  0  0  0  0  0  0  0  0  0
    8.3765  -12.9256   21.0551 O   0  0  0  0  0  0  0  0  0  0  0  0
    7.7936  -14.6915   19.5325 C   0  0  2  0  0  0  0  0  0  0  0  0
    6.3932  -14.5048   19.3544 N   0  0  0  0  0  0  0  0  0  0  0  0
    8.1345  -15.7334   20.5396 C   0  0  0  0  0  0  0  0  0  0  0  0
    7.3030  -16.0884   21.4129 O   0  0  0  0  0  0  0  0  0  0  0  0
    9.4077  -16.3752   20.5656 N   0  0  0  0  0  0  0  0  0  0  0  0
    9.7892  -17.3725   21.5231 C   0  0  1  0  0  0  0  0  0  0  0  0
   10.8298  -18.2977   21.0200 C   0  0  0  0  0  0  0  0  0  0  0  0
   10.2284  -19.2715   20.0451 C   0  0  0  0  0  0  0  0  0  0  0  0
   11.2136  -20.2551   19.5094 C   0  0  0  0  0  0  0  0  0  0  0  0
   10.6078  -21.1452   18.4347 C   0  0  0  0  0  0  0  0  0  0  0  0
   11.7035  -21.9653   17.9401 N   0  0  0  0  0  0  0  0  0  0  0  0
   10.1862  -16.6624   22.7759 C   0  0  0  0  0  0  0  0  0  0  0  0
   10.8255  -15.5838   22.7302 O   0  0  0  0  0  0  0  0  0  0  0  0
    9.8620  -17.1685   24.0664 N   0  0  0  0  0  0  0  0  0  0  0  0
   10.1534  -16.4821   25.3128 C   0  0  1  0  0  0  0  0  0  0  0  0
    9.8614  -15.0408   25.2595 C   0  0  0  0  0  0  0  0  0  0  0  0
    8.4380  -14.7212   25.4263 C   0  0  0  0  0  0  0  0  0  0  0  0
    7.3365  -15.5598   25.2050 C   0  0  0  0  0  0  0  0  0  0  0  0
    6.1972  -14.8888   25.4265 N   0  0  0  0  0  0  0  0  0  0  0  0
    6.4802  -13.6414   25.7864 C   0  0  0  0  0  0  0  0  0  0  0  0
    5.6580  -12.5664   26.1390 C   0  0  0  0  0  0  0  0  0  0  0  0
    6.2689  -11.3924   26.4908 C   0  0  0  0  0  0  0  0  0  0  0  0
    7.6302  -11.2238   26.5130 C   0  0  0  0  0  0  0  0  0  0  0  0
    8.4307  -12.2809   26.1654 C   0  0  0  0  0  0  0  0  0  0  0  0
    7.8640  -13.5017   25.7972 C   0  0  0  0  0  0  0  0  0  0  0  0
    9.7111  -17.1615   26.5180 C   0  0  0  0  0  0  0  0  0  0  0  0
    8.9742  -18.3543   26.3658 O   0  0  0  0  0  0  0  0  0  0  0  0
    9.9033  -16.8210   27.7037 O   0  0  0  0  0  0  0  0  0  0  0  0
  2  1  1  6
  3  2  1  0
  4  2  1  0
  4  5  1  1
  6  7  2  0
  6  4  1  0
  8  6  1  0
  9  8  1  0
  9 10  1  6
 11 10  1  0
 12 11  1  0
 13 12  1  0
 14 13  1  0
 15  9  1  0
 15 17  1  0
 16 15  2  0
 18 17  1  0
 18 29  1  0
 19 20  1  0
 18 19  1  6
 20 28  1  0
 21 20  2  0
 21 22  1  0
 22 23  1  0
 23 24  1  0
 24 25  2  0
 26 25  1  0
 27 26  2  0
 28 23  2  0
 28 27  1  0
 29 31  2  0
 29 30  1  0
M  END
$$$$
