TKW.pdb
     RDKit          3D

 31 32  0  0  1  0  0  0  0  0999 V2000
    6.1319  -20.9153   24.3245 C   0  0  0  0  0  0  0  0  0  0  0  0
    6.8853  -19.7178   23.8441 C   0  0  1  0  0  0  0  0  0  0  0  0
    8.1500  -19.6639   24.4301 O   0  0  0  0  0  0  0  0  0  0  0  0
    6.9290  -19.5457   22.3633 C   0  0  2  0  0  0  0  0  0  0  0  0
    7.3445  -20.7385   21.7057 N   0  0  0  0  0  0  0  0  0  0  0  0
    7.6699  -18.3316   21.9241 C   0  0  0  0  0  0  0  0  0  0  0  0
    8.8398  -18.4137   21.4714 O   0  0  0  0  0  0  0  0  0  0  0  0
    7.0976  -17.0273   21.9936 N   0  0  0  0  0  0  0  0  0  0  0  0
    7.7663  -15.8293   21.5757 C   0  0  1  0  0  0  0  0  0  0  0  0
    6.8422  -14.6978   21.3356 C   0  0  0  0  0  0  0  0  0  0  0  0
    7.5906  -13.5353   20.7449 C   0  0  0  0  0  0  0  0  0  0  0  0
    7.7753  -13.6409   19.2685 C   0  0  0  0  0  0  0  0  0  0  0  0
    8.6246  -12.5067   18.7148 C   0  0  0  0  0  0  0  0  0  0  0  0
    8.6685  -12.7153   17.2753 N   0  0  0  0  0  0  0  0  0  0  0  0
    8.8194  -15.5265   22.5907 C   0  0  0  0  0  0  0  0  0  0  0  0
    9.6481  -14.6032   22.4037 O   0  0  0  0  0  0  0  0  0  0  0  0
    8.9322  -16.2614   23.8049 N   0  0  0  0  0  0  0  0  0  0  0  0
    9.8931  -15.9684   24.8538 C   0  0  1  0  0  0  0  0  0  0  0  0
    9.2693  -15.7919   26.1748 C   0  0  0  0  0  0  0  0  0  0  0  0
    7.9722  -15.1056   26.1272 C   0  0  0  0  0  0  0  0  0  0  0  0
    6.6974  -15.6813   26.0314 C   0  0  0  0  0  0  0  0  0  0  0  0
    5.7637  -14.7211   25.9715 N   0  0  0  0  0  0  0  0  0  0  0  0
    6.3492  -13.5295   26.0234 C   0  0  0  0  0  0  0  0  0  0  0  0
    5.8227  -12.2339   26.0143 C   0  0  0  0  0  0  0  0  0  0  0  0
    6.7065  -11.1919   26.1062 C   0  0  0  0  0  0  0  0  0  0  0  0
    8.0648  -11.3572   26.2052 C   0  0  0  0  0  0  0  0  0  0  0  0
    8.5748  -12.6295   26.2125 C   0  0  0  0  0  0  0  0  0  0  0  0
    7.7221  -13.7302   26.1208 C   0  0  0  0  0  0  0  0  0  0  0  0
   11.0993  -16.7776   24.8394 C   0  0  0  0  0  0  0  0  0  0  0  0
   12.0810  -16.5092   25.8157 O   0  0  0  0  0  0  0  0  0  0  0  0
   11.3897  -17.7059   24.0567 O   0  0  0  0  0  0  0  0  0  0  0  0
  2  1  1  6
  3  2  1  0
  4  2  1  0
  4  5  1  6
  6  7  2  0
  6  4  1  0
  8  6  1  0
  9  8  1  0
  9 10  1  1
 11 10  1  0
 12 11  1  0
 13 12  1  0
 14 13  1  0
 15  9  1  0
 15 17  1  0
 16 15  2  0
 18 17  1  0
 18 29  1  0
 19 20  1  0
 18 19  1  1
 20 28  1  0
 21 20  2  0
 21 22  1  0
 22 23  1  0
 23 24  1  0
 24 25  2  0
 26 25  1  0
 27 26  2  0
 28 23  2  0
 28 27  1  0
 29 31  2  0
 29 30  1  0
M  END
$$$$
