TKW.pdb
     RDKit          3D

 31 32  0  0  1  0  0  0  0  0999 V2000
    9.2219  -13.8129   16.6009 C   0  0  0  0  0  0  0  0  0  0  0  0
    9.0679  -14.4036   17.9646 C   0  0  1  0  0  0  0  0  0  0  0  0
   10.1145  -14.0038   18.7955 O   0  0  0  0  0  0  0  0  0  0  0  0
    7.7288  -14.2130   18.5929 C   0  0  2  0  0  0  0  0  0  0  0  0
    7.3627  -12.8379   18.6474 N   0  0  0  0  0  0  0  0  0  0  0  0
    7.5699  -14.9259   19.8900 C   0  0  0  0  0  0  0  0  0  0  0  0
    7.5414  -14.2959   20.9774 O   0  0  0  0  0  0  0  0  0  0  0  0
    7.4436  -16.3444   19.9652 N   0  0  0  0  0  0  0  0  0  0  0  0
    7.2418  -17.0730   21.1839 C   0  0  1  0  0  0  0  0  0  0  0  0
    6.9880  -18.5154   20.9671 C   0  0  0  0  0  0  0  0  0  0  0  0
    6.8202  -19.2151   22.2872 C   0  0  0  0  0  0  0  0  0  0  0  0
    6.6613  -20.6925   22.1563 C   0  0  0  0  0  0  0  0  0  0  0  0
    6.4292  -21.3651   23.5009 C   0  0  0  0  0  0  0  0  0  0  0  0
    6.4536  -22.7955   23.2343 N   0  0  0  0  0  0  0  0  0  0  0  0
    8.4178  -16.8064   22.0654 C   0  0  0  0  0  0  0  0  0  0  0  0
    9.5888  -16.9260   21.6312 O   0  0  0  0  0  0  0  0  0  0  0  0
    8.2688  -16.4081   23.4241 N   0  0  0  0  0  0  0  0  0  0  0  0
    9.3744  -16.0932   24.3117 C   0  0  1  0  0  0  0  0  0  0  0  0
    9.2993  -14.7322   24.8663 C   0  0  0  0  0  0  0  0  0  0  0  0
    7.9737  -14.3820   25.3916 C   0  0  0  0  0  0  0  0  0  0  0  0
    6.8675  -15.2254   25.5664 C   0  0  0  0  0  0  0  0  0  0  0  0
    5.8244  -14.5234   26.0315 N   0  0  0  0  0  0  0  0  0  0  0  0
    6.1765  -13.2506   26.1783 C   0  0  0  0  0  0  0  0  0  0  0  0
    5.4680  -12.1376   26.6421 C   0  0  0  0  0  0  0  0  0  0  0  0
    6.1340  -10.9423   26.6967 C   0  0  0  0  0  0  0  0  0  0  0  0
    7.4449  -10.7878   26.3230 C   0  0  0  0  0  0  0  0  0  0  0  0
    8.1337  -11.8823   25.8683 C   0  0  0  0  0  0  0  0  0  0  0  0
    7.5063  -13.1262   25.7901 C   0  0  0  0  0  0  0  0  0  0  0  0
    9.7275  -17.1329   25.2626 C   0  0  0  0  0  0  0  0  0  0  0  0
   10.9314  -16.9829   25.9816 O   0  0  0  0  0  0  0  0  0  0  0  0
    9.0883  -18.1698   25.5364 O   0  0  0  0  0  0  0  0  0  0  0  0
  2  1  1  6
  3  2  1  0
  4  2  1  0
  4  5  1  1
  6  7  2  0
  6  4  1  0
  8  6  1  0
  9  8  1  0
  9 10  1  6
 11 10  1  0
 12 11  1  0
 13 12  1  0
 14 13  1  0
 15  9  1  0
 15 17  1  0
 16 15  2  0
 18 17  1  0
 18 29  1  0
 19 20  1  0
 18 19  1  1
 20 28  1  0
 21 20  2  0
 21 22  1  0
 22 23  1  0
 23 24  1  0
 24 25  2  0
 26 25  1  0
 27 26  2  0
 28 23  2  0
 28 27  1  0
 29 31  2  0
 29 30  1  0
M  END
$$$$
