TKW.pdb
     RDKit          3D

 31 32  0  0  1  0  0  0  0  0999 V2000
    6.9509  -13.0504   19.4116 C   0  0  0  0  0  0  0  0  0  0  0  0
    7.8620  -13.7384   18.4478 C   0  0  1  0  0  0  0  0  0  0  0  0
    7.8626  -13.0826   17.2168 O   0  0  0  0  0  0  0  0  0  0  0  0
    9.2375  -14.0104   18.9560 C   0  0  2  0  0  0  0  0  0  0  0  0
   10.1394  -14.3185   17.8980 N   0  0  0  0  0  0  0  0  0  0  0  0
    9.2777  -14.9865   20.0793 C   0  0  0  0  0  0  0  0  0  0  0  0
    8.4595  -14.9148   21.0308 O   0  0  0  0  0  0  0  0  0  0  0  0
   10.2360  -16.0412   20.1335 N   0  0  0  0  0  0  0  0  0  0  0  0
   10.4157  -16.9111   21.2595 C   0  0  1  0  0  0  0  0  0  0  0  0
   11.3519  -18.0265   20.9926 C   0  0  0  0  0  0  0  0  0  0  0  0
   11.1576  -18.5413   19.5934 C   0  0  0  0  0  0  0  0  0  0  0  0
   12.1341  -19.6032   19.2140 C   0  0  0  0  0  0  0  0  0  0  0  0
   11.7620  -20.9582   19.7968 C   0  0  0  0  0  0  0  0  0  0  0  0
   12.8613  -21.8483   19.4548 N   0  0  0  0  0  0  0  0  0  0  0  0
   10.8226  -16.0636   22.4202 C   0  0  0  0  0  0  0  0  0  0  0  0
   11.3701  -14.9486   22.2432 O   0  0  0  0  0  0  0  0  0  0  0  0
   10.6110  -16.4744   23.7667 N   0  0  0  0  0  0  0  0  0  0  0  0
    9.6649  -15.8502   24.6749 C   0  0  1  0  0  0  0  0  0  0  0  0
    8.4107  -15.4511   24.0166 C   0  0  0  0  0  0  0  0  0  0  0  0
    7.4450  -14.8173   24.9230 C   0  0  0  0  0  0  0  0  0  0  0  0
    6.2823  -15.3783   25.4697 C   0  0  0  0  0  0  0  0  0  0  0  0
    5.6415  -14.4682   26.2170 N   0  0  0  0  0  0  0  0  0  0  0  0
    6.3176  -13.3244   26.1993 C   0  0  0  0  0  0  0  0  0  0  0  0
    6.0823  -12.0958   26.8246 C   0  0  0  0  0  0  0  0  0  0  0  0
    6.9985  -11.0983   26.6227 C   0  0  0  0  0  0  0  0  0  0  0  0
    8.1203  -11.2457   25.8467 C   0  0  0  0  0  0  0  0  0  0  0  0
    8.3448  -12.4521   25.2357 C   0  0  0  0  0  0  0  0  0  0  0  0
    7.4448  -13.5049   25.4048 C   0  0  0  0  0  0  0  0  0  0  0  0
    9.5098  -16.5051   25.9621 C   0  0  0  0  0  0  0  0  0  0  0  0
    9.2432  -17.8899   25.9657 O   0  0  0  0  0  0  0  0  0  0  0  0
    9.5847  -15.9907   27.0972 O   0  0  0  0  0  0  0  0  0  0  0  0
  2  1  1  1
  3  2  1  0
  4  2  1  0
  4  5  1  6
  6  7  2  0
  6  4  1  0
  8  6  1  0
  9  8  1  0
  9 10  1  6
 11 10  1  0
 12 11  1  0
 13 12  1  0
 14 13  1  0
 15  9  1  0
 15 17  1  0
 16 15  2  0
 18 17  1  0
 18 29  1  0
 19 20  1  0
 18 19  1  6
 20 28  1  0
 21 20  2  0
 21 22  1  0
 22 23  1  0
 23 24  1  0
 24 25  2  0
 26 25  1  0
 27 26  2  0
 28 23  2  0
 28 27  1  0
 29 31  2  0
 29 30  1  0
M  END
$$$$
