TKW.pdb
     RDKit          3D

 31 32  0  0  1  0  0  0  0  0999 V2000
    9.4136  -12.8186   17.6863 C   0  0  0  0  0  0  0  0  0  0  0  0
    9.1833  -13.5671   18.9588 C   0  0  1  0  0  0  0  0  0  0  0  0
    9.7046  -12.8641   20.0449 O   0  0  0  0  0  0  0  0  0  0  0  0
    7.7805  -14.0197   19.1855 C   0  0  2  0  0  0  0  0  0  0  0  0
    6.8550  -12.9427   19.0789 N   0  0  0  0  0  0  0  0  0  0  0  0
    7.6076  -14.8368   20.4178 C   0  0  0  0  0  0  0  0  0  0  0  0
    7.1047  -14.3429   21.4586 O   0  0  0  0  0  0  0  0  0  0  0  0
    7.9994  -16.2065   20.4806 N   0  0  0  0  0  0  0  0  0  0  0  0
    7.8971  -17.0220   21.6560 C   0  0  1  0  0  0  0  0  0  0  0  0
    7.8940  -18.4730   21.3620 C   0  0  0  0  0  0  0  0  0  0  0  0
    6.9875  -18.7629   20.1981 C   0  0  0  0  0  0  0  0  0  0  0  0
    7.0306  -20.1871   19.7567 C   0  0  0  0  0  0  0  0  0  0  0  0
    6.0653  -20.4620   18.6135 C   0  0  0  0  0  0  0  0  0  0  0  0
    6.1957  -21.8817   18.3218 N   0  0  0  0  0  0  0  0  0  0  0  0
    8.9925  -16.6099   22.5841 C   0  0  0  0  0  0  0  0  0  0  0  0
   10.1298  -16.3116   22.1463 O   0  0  0  0  0  0  0  0  0  0  0  0
    8.8014  -16.5361   23.9930 N   0  0  0  0  0  0  0  0  0  0  0  0
    9.8738  -16.3658   24.9576 C   0  0  1  0  0  0  0  0  0  0  0  0
    9.5056  -15.4894   26.0809 C   0  0  0  0  0  0  0  0  0  0  0  0
    8.1755  -14.8828   25.9438 C   0  0  0  0  0  0  0  0  0  0  0  0
    6.9527  -15.5321   25.7224 C   0  0  0  0  0  0  0  0  0  0  0  0
    5.9675  -14.6296   25.6124 N   0  0  0  0  0  0  0  0  0  0  0  0
    6.4688  -13.4068   25.7500 C   0  0  0  0  0  0  0  0  0  0  0  0
    5.8627  -12.1465   25.7354 C   0  0  0  0  0  0  0  0  0  0  0  0
    6.6670  -11.0561   25.9337 C   0  0  0  0  0  0  0  0  0  0  0  0
    8.0202  -11.1410   26.1429 C   0  0  0  0  0  0  0  0  0  0  0  0
    8.6086  -12.3791   26.1551 C   0  0  0  0  0  0  0  0  0  0  0  0
    7.8389  -13.5261   25.9578 C   0  0  0  0  0  0  0  0  0  0  0  0
   10.5834  -17.5794   25.3231 C   0  0  0  0  0  0  0  0  0  0  0  0
   11.7456  -17.4476   26.1110 O   0  0  0  0  0  0  0  0  0  0  0  0
   10.2922  -18.7563   25.0253 O   0  0  0  0  0  0  0  0  0  0  0  0
  2  1  1  6
  3  2  1  0
  4  2  1  0
  4  5  1  1
  6  7  2  0
  6  4  1  0
  8  6  1  0
  9  8  1  0
  9 10  1  6
 11 10  1  0
 12 11  1  0
 13 12  1  0
 14 13  1  0
 15  9  1  0
 15 17  1  0
 16 15  2  0
 18 17  1  0
 18 29  1  0
 19 20  1  0
 18 19  1  1
 20 28  1  0
 21 20  2  0
 21 22  1  0
 22 23  1  0
 23 24  1  0
 24 25  2  0
 26 25  1  0
 27 26  2  0
 28 23  2  0
 28 27  1  0
 29 31  2  0
 29 30  1  0
M  END
$$$$
