TKW.pdb
     RDKit          3D

 31 32  0  0  1  0  0  0  0  0999 V2000
    9.1929  -12.7528   20.7443 C   0  0  0  0  0  0  0  0  0  0  0  0
    7.8538  -13.0679   20.1611 C   0  0  1  0  0  0  0  0  0  0  0  0
    7.5396  -12.1738   19.1378 O   0  0  0  0  0  0  0  0  0  0  0  0
    7.6517  -14.4913   19.7644 C   0  0  2  0  0  0  0  0  0  0  0  0
    6.4132  -14.6794   19.0874 N   0  0  0  0  0  0  0  0  0  0  0  0
    7.8806  -15.4590   20.8722 C   0  0  0  0  0  0  0  0  0  0  0  0
    6.9774  -15.7129   21.7089 O   0  0  0  0  0  0  0  0  0  0  0  0
    9.1222  -16.1401   21.0398 N   0  0  0  0  0  0  0  0  0  0  0  0
    9.3490  -17.1792   22.0020 C   0  0  1  0  0  0  0  0  0  0  0  0
   10.2379  -18.2531   21.5036 C   0  0  0  0  0  0  0  0  0  0  0  0
   10.3494  -19.3488   22.5270 C   0  0  0  0  0  0  0  0  0  0  0  0
   11.2563  -20.4570   22.1092 C   0  0  0  0  0  0  0  0  0  0  0  0
   11.2489  -21.6088   23.1029 C   0  0  0  0  0  0  0  0  0  0  0  0
   12.2183  -22.5696   22.5980 N   0  0  0  0  0  0  0  0  0  0  0  0
    9.8489  -16.5315   23.2517 C   0  0  0  0  0  0  0  0  0  0  0  0
   10.8237  -15.7420   23.2227 O   0  0  0  0  0  0  0  0  0  0  0  0
    9.2507  -16.7751   24.5204 N   0  0  0  0  0  0  0  0  0  0  0  0
    9.8715  -16.4555   25.7939 C   0  0  1  0  0  0  0  0  0  0  0  0
    8.9103  -15.9770   26.8003 C   0  0  0  0  0  0  0  0  0  0  0  0
    7.8365  -15.1460   26.2415 C   0  0  0  0  0  0  0  0  0  0  0  0
    6.6957  -15.5689   25.5449 C   0  0  0  0  0  0  0  0  0  0  0  0
    5.9743  -14.5071   25.1585 N   0  0  0  0  0  0  0  0  0  0  0  0
    6.5744  -13.3925   25.5624 C   0  0  0  0  0  0  0  0  0  0  0  0
    6.2214  -12.0458   25.4291 C   0  0  0  0  0  0  0  0  0  0  0  0
    7.0562  -11.1154   25.9882 C   0  0  0  0  0  0  0  0  0  0  0  0
    8.2062  -11.4378   26.6631 C   0  0  0  0  0  0  0  0  0  0  0  0
    8.5474  -12.7595   26.7895 C   0  0  0  0  0  0  0  0  0  0  0  0
    7.7351  -13.7517   26.2394 C   0  0  0  0  0  0  0  0  0  0  0  0
   10.8447  -17.4210   26.2740 C   0  0  0  0  0  0  0  0  0  0  0  0
   11.5658  -17.1000   27.4427 O   0  0  0  0  0  0  0  0  0  0  0  0
   11.1346  -18.5287   25.7763 O   0  0  0  0  0  0  0  0  0  0  0  0
  2  1  1  6
  3  2  1  0
  4  2  1  0
  4  5  1  1
  6  7  2  0
  6  4  1  0
  8  6  1  0
  9  8  1  0
  9 10  1  6
 11 10  1  0
 12 11  1  0
 13 12  1  0
 14 13  1  0
 15  9  1  0
 15 17  1  0
 16 15  2  0
 18 17  1  0
 18 29  1  0
 19 20  1  0
 18 19  1  1
 20 28  1  0
 21 20  2  0
 21 22  1  0
 22 23  1  0
 23 24  1  0
 24 25  2  0
 26 25  1  0
 27 26  2  0
 28 23  2  0
 28 27  1  0
 29 31  2  0
 29 30  1  0
M  END
$$$$
