SSG.pdb
     RDKit          3D

 17 16  0  0  1  0  0  0  0  0999 V2000
   10.1207  -16.9799   17.3504 O   0  0  0  0  0  0  0  0  0  0  0  0
   10.3370  -15.6350   17.1376 C   0  0  0  0  0  0  0  0  0  0  0  0
   11.4177  -15.3736   16.1168 C   0  0  2  0  0  0  0  0  0  0  0  0
   11.0707  -15.9632   14.8425 N   0  0  0  0  0  0  0  0  0  0  0  0
   12.7487  -15.8591   16.5914 C   0  0  0  0  0  0  0  0  0  0  0  0
   13.1683  -17.0115   16.3138 O   0  0  0  0  0  0  0  0  0  0  0  0
   15.4497  -13.2261   17.4161 O   0  0  0  0  0  0  0  0  0  0  0  0
   15.8961  -14.3836   18.0089 C   0  0  0  0  0  0  0  0  0  0  0  0
   14.8641  -15.5062   17.9111 C   0  0  2  0  0  0  0  0  0  0  0  0
   13.6157  -15.0407   17.3856 N   0  0  0  0  0  0  0  0  0  0  0  0
   14.7188  -16.1872   19.2215 C   0  0  0  0  0  0  0  0  0  0  0  0
   13.9753  -15.6912   20.1039 O   0  0  0  0  0  0  0  0  0  0  0  0
   15.3877  -17.3970   19.5448 N   0  0  0  0  0  0  0  0  0  0  0  0
   16.8080  -17.4006   19.9259 C   0  0  0  0  0  0  0  0  0  0  0  0
   16.9552  -17.2806   21.3904 C   0  0  0  0  0  0  0  0  0  0  0  0
   16.7269  -16.0873   22.0594 O   0  0  0  0  0  0  0  0  0  0  0  0
   17.2965  -18.2761   22.0713 O   0  0  0  0  0  0  0  0  0  0  0  0
  2  3  1  0
  2  1  1  0
  3  4  1  6
  5  6  2  0
  5  3  1  0
  7  8  1  0
  9  8  1  1
  9 11  1  0
  9 10  1  0
 10  5  1  0
 11 13  1  0
 12 11  2  0
 13 14  1  0
 14 15  1  0
 15 17  2  0
 15 16  1  0
M  END
$$$$
