SSG.pdb
     RDKit          3D

 17 16  0  0  1  0  0  0  0  0999 V2000
   -2.7881  -28.2212   29.4940 O   0  0  0  0  0  0  0  0  0  0  0  0
   -3.5038  -27.1349   29.9505 C   0  0  0  0  0  0  0  0  0  0  0  0
   -2.8309  -25.8209   29.6362 C   0  0  2  0  0  0  0  0  0  0  0  0
   -1.7018  -25.6019   30.5131 N   0  0  0  0  0  0  0  0  0  0  0  0
   -3.7952  -24.6816   29.7034 C   0  0  0  0  0  0  0  0  0  0  0  0
   -4.2071  -24.2294   30.8020 O   0  0  0  0  0  0  0  0  0  0  0  0
   -3.9002  -21.3333   27.3505 O   0  0  0  0  0  0  0  0  0  0  0  0
   -5.0768  -22.0445   27.3337 C   0  0  0  0  0  0  0  0  0  0  0  0
   -5.2148  -22.9429   28.5619 C   0  0  2  0  0  0  0  0  0  0  0  0
   -4.3009  -24.0450   28.5238 N   0  0  0  0  0  0  0  0  0  0  0  0
   -6.6257  -23.3708   28.7305 C   0  0  0  0  0  0  0  0  0  0  0  0
   -7.1084  -24.2448   27.9686 O   0  0  0  0  0  0  0  0  0  0  0  0
   -7.4839  -22.8369   29.7275 N   0  0  0  0  0  0  0  0  0  0  0  0
   -8.8356  -23.3778   29.9343 C   0  0  0  0  0  0  0  0  0  0  0  0
   -9.5248  -22.6567   31.0233 C   0  0  0  0  0  0  0  0  0  0  0  0
  -10.8289  -22.9506   31.3929 O   0  0  0  0  0  0  0  0  0  0  0  0
   -8.9317  -21.7459   31.6478 O   0  0  0  0  0  0  0  0  0  0  0  0
  2  3  1  0
  2  1  1  0
  3  4  1  1
  5  6  2  0
  5  3  1  0
  7  8  1  0
  9  8  1  6
  9 11  1  0
  9 10  1  0
 10  5  1  0
 11 13  1  0
 12 11  2  0
 13 14  1  0
 14 15  1  0
 15 17  2  0
 15 16  1  0
M  END
$$$$
