SSG.pdb
     RDKit          3D

 17 16  0  0  1  0  0  0  0  0999 V2000
    7.5259  -19.5111   19.4383 O   0  0  0  0  0  0  0  0  0  0  0  0
    6.5783  -18.5447   19.1758 C   0  0  0  0  0  0  0  0  0  0  0  0
    7.1591  -17.3303   18.4932 C   0  0  2  0  0  0  0  0  0  0  0  0
    7.8465  -17.7067   17.2776 N   0  0  0  0  0  0  0  0  0  0  0  0
    8.0600  -16.5661   19.4080 C   0  0  0  0  0  0  0  0  0  0  0  0
    9.3090  -16.5740   19.2627 O   0  0  0  0  0  0  0  0  0  0  0  0
    6.5781  -14.5232   22.8997 O   0  0  0  0  0  0  0  0  0  0  0  0
    7.6504  -14.0225   22.1998 C   0  0  0  0  0  0  0  0  0  0  0  0
    8.3962  -15.1198   21.4419 C   0  0  2  0  0  0  0  0  0  0  0  0
    7.5512  -15.7857   20.4963 N   0  0  0  0  0  0  0  0  0  0  0  0
    9.0423  -16.0557   22.3952 C   0  0  0  0  0  0  0  0  0  0  0  0
    8.3851  -17.0140   22.8719 O   0  0  0  0  0  0  0  0  0  0  0  0
   10.3938  -15.9285   22.8108 N   0  0  0  0  0  0  0  0  0  0  0  0
   10.9706  -16.8430   23.8077 C   0  0  0  0  0  0  0  0  0  0  0  0
   12.3918  -16.5221   24.0489 C   0  0  0  0  0  0  0  0  0  0  0  0
   13.1358  -17.1606   25.0300 O   0  0  0  0  0  0  0  0  0  0  0  0
   12.9650  -15.6482   23.3569 O   0  0  0  0  0  0  0  0  0  0  0  0
  2  3  1  0
  2  1  1  0
  3  4  1  6
  5  6  2  0
  5  3  1  0
  7  8  1  0
  9  8  1  1
  9 11  1  0
  9 10  1  0
 10  5  1  0
 11 13  1  0
 12 11  2  0
 13 14  1  0
 14 15  1  0
 15 17  2  0
 15 16  1  0
M  END
$$$$
