SSG.pdb
     RDKit          3D

 17 16  0  0  1  0  0  0  0  0999 V2000
    8.4858  -15.8452   17.2823 O   0  0  0  0  0  0  0  0  0  0  0  0
    7.2996  -15.1667   17.4651 C   0  0  0  0  0  0  0  0  0  0  0  0
    7.5032  -13.7764   18.0163 C   0  0  2  0  0  0  0  0  0  0  0  0
    8.1451  -12.9272   17.0372 N   0  0  0  0  0  0  0  0  0  0  0  0
    8.2735  -13.8018   19.2962 C   0  0  0  0  0  0  0  0  0  0  0  0
    9.5024  -13.5382   19.3324 O   0  0  0  0  0  0  0  0  0  0  0  0
    6.5421  -15.1381   23.0207 O   0  0  0  0  0  0  0  0  0  0  0  0
    7.4612  -14.1159   22.9931 C   0  0  0  0  0  0  0  0  0  0  0  0
    8.3827  -14.2134   21.7782 C   0  0  2  0  0  0  0  0  0  0  0  0
    7.6556  -14.1268   20.5472 N   0  0  0  0  0  0  0  0  0  0  0  0
    9.2225  -15.4336   21.8659 C   0  0  0  0  0  0  0  0  0  0  0  0
    8.9264  -16.4458   21.1838 O   0  0  0  0  0  0  0  0  0  0  0  0
   10.3702  -15.5268   22.6965 N   0  0  0  0  0  0  0  0  0  0  0  0
   11.1481  -16.7720   22.7792 C   0  0  0  0  0  0  0  0  0  0  0  0
   12.2876  -16.6144   23.7053 C   0  0  0  0  0  0  0  0  0  0  0  0
   13.6039  -16.6940   23.2754 O   0  0  0  0  0  0  0  0  0  0  0  0
   12.0826  -16.4011   24.9233 O   0  0  0  0  0  0  0  0  0  0  0  0
  2  3  1  0
  2  1  1  0
  3  4  1  6
  5  6  2  0
  5  3  1  0
  7  8  1  0
  9  8  1  1
  9 11  1  0
  9 10  1  0
 10  5  1  0
 11 13  1  0
 12 11  2  0
 13 14  1  0
 14 15  1  0
 15 17  2  0
 15 16  1  0
M  END
$$$$
