SSG.pdb
     RDKit          3D

 17 16  0  0  1  0  0  0  0  0999 V2000
    6.2178  -19.7263   20.7707 O   0  0  0  0  0  0  0  0  0  0  0  0
    5.4507  -18.8148   20.0768 C   0  0  0  0  0  0  0  0  0  0  0  0
    6.1992  -18.1756   18.9325 C   0  0  2  0  0  0  0  0  0  0  0  0
    6.5736  -19.1675   17.9488 N   0  0  0  0  0  0  0  0  0  0  0  0
    7.3925  -17.4165   19.4145 C   0  0  0  0  0  0  0  0  0  0  0  0
    8.5538  -17.8915   19.3336 O   0  0  0  0  0  0  0  0  0  0  0  0
    7.0395  -13.4982   21.1274 O   0  0  0  0  0  0  0  0  0  0  0  0
    8.1396  -13.8461   20.3796 C   0  0  0  0  0  0  0  0  0  0  0  0
    8.4091  -15.3491   20.4314 C   0  0  2  0  0  0  0  0  0  0  0  0
    7.2782  -16.1107   19.9928 N   0  0  0  0  0  0  0  0  0  0  0  0
    8.8778  -15.7416   21.7835 C   0  0  0  0  0  0  0  0  0  0  0  0
    8.0416  -16.0377   22.6727 O   0  0  0  0  0  0  0  0  0  0  0  0
   10.2505  -15.8037   22.1405 N   0  0  0  0  0  0  0  0  0  0  0  0
   10.6642  -16.1594   23.5062 C   0  0  0  0  0  0  0  0  0  0  0  0
   12.1278  -16.0330   23.6572 C   0  0  0  0  0  0  0  0  0  0  0  0
   12.7564  -16.1624   24.8867 O   0  0  0  0  0  0  0  0  0  0  0  0
   12.8452  -15.8015   22.6557 O   0  0  0  0  0  0  0  0  0  0  0  0
  2  3  1  0
  2  1  1  0
  3  4  1  6
  5  6  2  0
  5  3  1  0
  7  8  1  0
  9  8  1  1
  9 11  1  0
  9 10  1  0
 10  5  1  0
 11 13  1  0
 12 11  2  0
 13 14  1  0
 14 15  1  0
 15 17  2  0
 15 16  1  0
M  END
$$$$
