SSG.pdb
     RDKit          3D

 17 16  0  0  1  0  0  0  0  0999 V2000
    8.9661  -19.6415   19.1721 O   0  0  0  0  0  0  0  0  0  0  0  0
    7.8185  -18.9415   18.8662 C   0  0  0  0  0  0  0  0  0  0  0  0
    8.0993  -17.5209   18.4403 C   0  0  2  0  0  0  0  0  0  0  0  0
    8.8718  -17.4968   17.2179 N   0  0  0  0  0  0  0  0  0  0  0  0
    8.7791  -16.7484   19.5235 C   0  0  0  0  0  0  0  0  0  0  0  0
   10.0132  -16.5099   19.4894 O   0  0  0  0  0  0  0  0  0  0  0  0
    6.7436  -14.0863   21.9710 O   0  0  0  0  0  0  0  0  0  0  0  0
    7.6617  -14.8580   22.6433 C   0  0  0  0  0  0  0  0  0  0  0  0
    8.6879  -15.4756   21.6945 C   0  0  2  0  0  0  0  0  0  0  0  0
    8.0641  -16.2393   20.6558 N   0  0  0  0  0  0  0  0  0  0  0  0
    9.6913  -16.2565   22.4595 C   0  0  0  0  0  0  0  0  0  0  0  0
    9.4563  -17.4540   22.7567 O   0  0  0  0  0  0  0  0  0  0  0  0
   10.9330  -15.7163   22.8860 N   0  0  0  0  0  0  0  0  0  0  0  0
   11.9248  -16.5502   23.5813 C   0  0  0  0  0  0  0  0  0  0  0  0
   13.2871  -16.2579   23.0917 C   0  0  0  0  0  0  0  0  0  0  0  0
   14.2963  -15.8199   23.9363 O   0  0  0  0  0  0  0  0  0  0  0  0
   13.5631  -16.4030   21.8776 O   0  0  0  0  0  0  0  0  0  0  0  0
  2  3  1  0
  2  1  1  0
  3  4  1  6
  5  6  2  0
  5  3  1  0
  7  8  1  0
  9  8  1  1
  9 11  1  0
  9 10  1  0
 10  5  1  0
 11 13  1  0
 12 11  2  0
 13 14  1  0
 14 15  1  0
 15 17  2  0
 15 16  1  0
M  END
$$$$
