SSG.pdb
     RDKit          3D

 17 16  0  0  1  0  0  0  0  0999 V2000
    7.0741  -12.2892   17.9729 O   0  0  0  0  0  0  0  0  0  0  0  0
    7.8301  -13.1061   18.7864 C   0  0  0  0  0  0  0  0  0  0  0  0
    7.4588  -14.5631   18.6547 C   0  0  2  0  0  0  0  0  0  0  0  0
    6.1127  -14.7928   19.1313 N   0  0  0  0  0  0  0  0  0  0  0  0
    8.4383  -15.4441   19.3596 C   0  0  0  0  0  0  0  0  0  0  0  0
    8.1651  -15.9865   20.4605 O   0  0  0  0  0  0  0  0  0  0  0  0
   12.8586  -17.5734   19.2860 O   0  0  0  0  0  0  0  0  0  0  0  0
   11.9490  -16.7653   18.6455 C   0  0  0  0  0  0  0  0  0  0  0  0
   10.7261  -16.4847   19.5174 C   0  0  2  0  0  0  0  0  0  0  0  0
    9.7374  -15.7174   18.8209 N   0  0  0  0  0  0  0  0  0  0  0  0
   11.1399  -15.8619   20.7992 C   0  0  0  0  0  0  0  0  0  0  0  0
   11.0830  -14.6145   20.9345 O   0  0  0  0  0  0  0  0  0  0  0  0
   11.6083  -16.6119   21.9099 N   0  0  0  0  0  0  0  0  0  0  0  0
   11.9020  -15.9613   23.1956 C   0  0  0  0  0  0  0  0  0  0  0  0
   12.3796  -16.9499   24.1832 C   0  0  0  0  0  0  0  0  0  0  0  0
   12.4767  -18.3013   23.8864 O   0  0  0  0  0  0  0  0  0  0  0  0
   12.7136  -16.5787   25.3329 O   0  0  0  0  0  0  0  0  0  0  0  0
  2  3  1  0
  2  1  1  0
  3  4  1  1
  5  6  2  0
  5  3  1  0
  7  8  1  0
  9  8  1  6
  9 11  1  0
  9 10  1  0
 10  5  1  0
 11 13  1  0
 12 11  2  0
 13 14  1  0
 14 15  1  0
 15 17  2  0
 15 16  1  0
M  END
$$$$
