SSG.pdb
     RDKit          3D

 17 16  0  0  1  0  0  0  0  0999 V2000
    5.5095  -16.6837   21.1967 O   0  0  0  0  0  0  0  0  0  0  0  0
    6.8393  -16.4691   20.9025 C   0  0  0  0  0  0  0  0  0  0  0  0
    7.2701  -15.0457   21.1606 C   0  0  2  0  0  0  0  0  0  0  0  0
    8.1909  -14.5970   20.1395 N   0  0  0  0  0  0  0  0  0  0  0  0
    7.8597  -14.8905   22.5247 C   0  0  0  0  0  0  0  0  0  0  0  0
    9.0639  -15.1665   22.7586 O   0  0  0  0  0  0  0  0  0  0  0  0
    5.5640  -13.6838   26.0727 O   0  0  0  0  0  0  0  0  0  0  0  0
    6.8778  -13.3548   25.8362 C   0  0  0  0  0  0  0  0  0  0  0  0
    7.5815  -14.4069   24.9803 C   0  0  2  0  0  0  0  0  0  0  0  0
    7.0875  -14.4203   23.6360 N   0  0  0  0  0  0  0  0  0  0  0  0
    7.5060  -15.7368   25.6344 C   0  0  0  0  0  0  0  0  0  0  0  0
    6.4782  -16.4446   25.4933 O   0  0  0  0  0  0  0  0  0  0  0  0
    8.5538  -16.2697   26.4305 N   0  0  0  0  0  0  0  0  0  0  0  0
    8.4445  -17.6068   27.0328 C   0  0  0  0  0  0  0  0  0  0  0  0
    9.6251  -17.8996   27.8703 C   0  0  0  0  0  0  0  0  0  0  0  0
    9.7583  -19.0919   28.5663 O   0  0  0  0  0  0  0  0  0  0  0  0
   10.5489  -17.0584   27.9701 O   0  0  0  0  0  0  0  0  0  0  0  0
  2  3  1  0
  2  1  1  0
  3  4  1  6
  5  6  2  0
  5  3  1  0
  7  8  1  0
  9  8  1  1
  9 11  1  0
  9 10  1  0
 10  5  1  0
 11 13  1  0
 12 11  2  0
 13 14  1  0
 14 15  1  0
 15 17  2  0
 15 16  1  0
M  END
$$$$
