SSG.pdb
     RDKit          3D

 17 16  0  0  1  0  0  0  0  0999 V2000
    6.5245  -19.4380   20.0943 O   0  0  0  0  0  0  0  0  0  0  0  0
    5.5803  -18.4333   20.0950 C   0  0  0  0  0  0  0  0  0  0  0  0
    5.9964  -17.2430   19.2654 C   0  0  2  0  0  0  0  0  0  0  0  0
    6.2168  -17.6305   17.8895 N   0  0  0  0  0  0  0  0  0  0  0  0
    7.2028  -16.5718   19.8367 C   0  0  0  0  0  0  0  0  0  0  0  0
    8.3307  -16.6633   19.2887 O   0  0  0  0  0  0  0  0  0  0  0  0
    7.0431  -14.4003   23.5268 O   0  0  0  0  0  0  0  0  0  0  0  0
    7.8648  -13.9695   22.5121 C   0  0  0  0  0  0  0  0  0  0  0  0
    8.2757  -15.1155   21.5888 C   0  0  2  0  0  0  0  0  0  0  0  0
    7.1398  -15.7903   21.0358 N   0  0  0  0  0  0  0  0  0  0  0  0
    9.2051  -16.0345   22.2915 C   0  0  0  0  0  0  0  0  0  0  0  0
    8.7466  -16.9671   22.9968 O   0  0  0  0  0  0  0  0  0  0  0  0
   10.6178  -15.9187   22.2116 N   0  0  0  0  0  0  0  0  0  0  0  0
   11.4979  -16.9028   22.8595 C   0  0  0  0  0  0  0  0  0  0  0  0
   12.1523  -16.3156   24.0460 C   0  0  0  0  0  0  0  0  0  0  0  0
   11.8377  -16.7166   25.3359 O   0  0  0  0  0  0  0  0  0  0  0  0
   13.0230  -15.4247   23.9071 O   0  0  0  0  0  0  0  0  0  0  0  0
  2  3  1  0
  2  1  1  0
  3  4  1  6
  5  6  2  0
  5  3  1  0
  7  8  1  0
  9  8  1  1
  9 11  1  0
  9 10  1  0
 10  5  1  0
 11 13  1  0
 12 11  2  0
 13 14  1  0
 14 15  1  0
 15 17  2  0
 15 16  1  0
M  END
$$$$
