SSG.pdb
     RDKit          3D

 17 16  0  0  1  0  0  0  0  0999 V2000
   -4.2462  -25.0700   22.0555 O   0  0  0  0  0  0  0  0  0  0  0  0
   -4.7329  -23.8271   21.7103 C   0  0  0  0  0  0  0  0  0  0  0  0
   -3.8340  -22.7032   22.1654 C   0  0  2  0  0  0  0  0  0  0  0  0
   -2.5339  -22.8028   21.5395 N   0  0  0  0  0  0  0  0  0  0  0  0
   -3.7146  -22.6657   23.6542 C   0  0  0  0  0  0  0  0  0  0  0  0
   -2.7021  -23.1182   24.2468 O   0  0  0  0  0  0  0  0  0  0  0  0
   -6.7249  -20.8861   26.2369 O   0  0  0  0  0  0  0  0  0  0  0  0
   -5.3730  -20.8368   26.4825 C   0  0  0  0  0  0  0  0  0  0  0  0
   -4.6474  -22.0544   25.9120 C   0  0  2  0  0  0  0  0  0  0  0  0
   -4.7437  -22.1140   24.4843 N   0  0  0  0  0  0  0  0  0  0  0  0
   -5.1247  -23.2942   26.5732 C   0  0  0  0  0  0  0  0  0  0  0  0
   -6.0318  -23.9781   26.0375 O   0  0  0  0  0  0  0  0  0  0  0  0
   -4.6032  -23.7650   27.8069 N   0  0  0  0  0  0  0  0  0  0  0  0
   -5.0757  -25.0255   28.3990 C   0  0  0  0  0  0  0  0  0  0  0  0
   -6.2865  -24.7975   29.2132 C   0  0  0  0  0  0  0  0  0  0  0  0
   -7.4673  -25.4895   28.9886 O   0  0  0  0  0  0  0  0  0  0  0  0
   -6.2698  -23.9564   30.1423 O   0  0  0  0  0  0  0  0  0  0  0  0
  2  3  1  0
  2  1  1  0
  3  4  1  6
  5  6  2  0
  5  3  1  0
  7  8  1  0
  9  8  1  1
  9 11  1  0
  9 10  1  0
 10  5  1  0
 11 13  1  0
 12 11  2  0
 13 14  1  0
 14 15  1  0
 15 17  2  0
 15 16  1  0
M  END
$$$$
