SSG.pdb
     RDKit          3D

 17 16  0  0  1  0  0  0  0  0999 V2000
    7.4126  -19.7142   18.4548 O   0  0  0  0  0  0  0  0  0  0  0  0
    7.0161  -19.2173   19.6781 C   0  0  0  0  0  0  0  0  0  0  0  0
    5.9572  -20.0680   20.3364 C   0  0  2  0  0  0  0  0  0  0  0  0
    4.7331  -20.0472   19.5664 N   0  0  0  0  0  0  0  0  0  0  0  0
    5.7137  -19.6444   21.7484 C   0  0  0  0  0  0  0  0  0  0  0  0
    4.9995  -18.6471   22.0245 O   0  0  0  0  0  0  0  0  0  0  0  0
    5.6195  -22.1007   25.1648 O   0  0  0  0  0  0  0  0  0  0  0  0
    5.1062  -20.8420   24.9583 C   0  0  0  0  0  0  0  0  0  0  0  0
    6.0941  -19.9399   24.2201 C   0  0  2  0  0  0  0  0  0  0  0  0
    6.2789  -20.3494   22.8601 N   0  0  0  0  0  0  0  0  0  0  0  0
    7.3700  -19.8500   24.9725 C   0  0  0  0  0  0  0  0  0  0  0  0
    8.3531  -20.5478   24.6203 O   0  0  0  0  0  0  0  0  0  0  0  0
    7.5495  -19.0001   26.0954 N   0  0  0  0  0  0  0  0  0  0  0  0
    8.8201  -18.9787   26.8356 C   0  0  0  0  0  0  0  0  0  0  0  0
    8.7250  -19.8012   28.0584 C   0  0  0  0  0  0  0  0  0  0  0  0
    7.7271  -20.7484   28.2345 O   0  0  0  0  0  0  0  0  0  0  0  0
    9.5620  -19.6561   28.9801 O   0  0  0  0  0  0  0  0  0  0  0  0
  2  3  1  0
  2  1  1  0
  3  4  1  6
  5  6  2  0
  5  3  1  0
  7  8  1  0
  9  8  1  1
  9 11  1  0
  9 10  1  0
 10  5  1  0
 11 13  1  0
 12 11  2  0
 13 14  1  0
 14 15  1  0
 15 17  2  0
 15 16  1  0
M  END
$$$$
