SSG.pdb
     RDKit          3D

 17 16  0  0  1  0  0  0  0  0999 V2000
   -2.3548  -27.0620   27.5935 O   0  0  0  0  0  0  0  0  0  0  0  0
   -3.3038  -26.6517   28.5055 C   0  0  0  0  0  0  0  0  0  0  0  0
   -2.8866  -25.4146   29.2630 C   0  0  2  0  0  0  0  0  0  0  0  0
   -1.8653  -25.7315   30.2368 N   0  0  0  0  0  0  0  0  0  0  0  0
   -4.0572  -24.7457   29.9070 C   0  0  0  0  0  0  0  0  0  0  0  0
   -4.4629  -25.0807   31.0490 O   0  0  0  0  0  0  0  0  0  0  0  0
   -7.2191  -21.0716   30.0038 O   0  0  0  0  0  0  0  0  0  0  0  0
   -6.1830  -21.6798   29.3352 C   0  0  0  0  0  0  0  0  0  0  0  0
   -5.9792  -23.1224   29.7956 C   0  0  2  0  0  0  0  0  0  0  0  0
   -4.7780  -23.6899   29.2603 N   0  0  0  0  0  0  0  0  0  0  0  0
   -7.1838  -23.9342   29.4928 C   0  0  0  0  0  0  0  0  0  0  0  0
   -7.2931  -24.4967   28.3752 O   0  0  0  0  0  0  0  0  0  0  0  0
   -8.2473  -24.1173   30.4154 N   0  0  0  0  0  0  0  0  0  0  0  0
   -9.4164  -24.9408   30.0724 C   0  0  0  0  0  0  0  0  0  0  0  0
  -10.3569  -25.0101   31.2088 C   0  0  0  0  0  0  0  0  0  0  0  0
  -11.6040  -25.6070   31.0988 O   0  0  0  0  0  0  0  0  0  0  0  0
  -10.0394  -24.5204   32.3181 O   0  0  0  0  0  0  0  0  0  0  0  0
  2  3  1  0
  2  1  1  0
  3  4  1  1
  5  6  2  0
  5  3  1  0
  7  8  1  0
  9  8  1  6
  9 11  1  0
  9 10  1  0
 10  5  1  0
 11 13  1  0
 12 11  2  0
 13 14  1  0
 14 15  1  0
 15 17  2  0
 15 16  1  0
M  END
$$$$
