SSG.pdb
     RDKit          3D

 17 16  0  0  1  0  0  0  0  0999 V2000
    5.6996  -18.1779   22.2306 O   0  0  0  0  0  0  0  0  0  0  0  0
    5.2811  -17.1512   21.4112 C   0  0  0  0  0  0  0  0  0  0  0  0
    6.4310  -16.4061   20.7781 C   0  0  2  0  0  0  0  0  0  0  0  0
    7.0857  -17.2264   19.7829 N   0  0  0  0  0  0  0  0  0  0  0  0
    7.4036  -15.9245   21.8050 C   0  0  0  0  0  0  0  0  0  0  0  0
    8.5542  -16.4209   21.9084 O   0  0  0  0  0  0  0  0  0  0  0  0
    6.3746  -13.0874   24.9497 O   0  0  0  0  0  0  0  0  0  0  0  0
    7.5854  -13.0625   24.2988 C   0  0  0  0  0  0  0  0  0  0  0  0
    7.9683  -14.4397   23.7589 C   0  0  2  0  0  0  0  0  0  0  0  0
    7.0788  -14.8747   22.7241 N   0  0  0  0  0  0  0  0  0  0  0  0
    8.0786  -15.4159   24.8710 C   0  0  0  0  0  0  0  0  0  0  0  0
    7.0766  -16.0938   25.2085 O   0  0  0  0  0  0  0  0  0  0  0  0
    9.2805  -15.6345   25.5944 N   0  0  0  0  0  0  0  0  0  0  0  0
    9.3204  -16.5573   26.7388 C   0  0  0  0  0  0  0  0  0  0  0  0
   10.3091  -17.6300   26.5093 C   0  0  0  0  0  0  0  0  0  0  0  0
   11.0168  -17.7391   25.3214 O   0  0  0  0  0  0  0  0  0  0  0  0
   10.5323  -18.4805   27.4026 O   0  0  0  0  0  0  0  0  0  0  0  0
  2  3  1  0
  2  1  1  0
  3  4  1  6
  5  6  2  0
  5  3  1  0
  7  8  1  0
  9  8  1  1
  9 11  1  0
  9 10  1  0
 10  5  1  0
 11 13  1  0
 12 11  2  0
 13 14  1  0
 14 15  1  0
 15 17  2  0
 15 16  1  0
M  END
$$$$
