SSG.pdb
     RDKit          3D

 17 16  0  0  1  0  0  0  0  0999 V2000
    9.4748  -17.6655   16.0534 O   0  0  0  0  0  0  0  0  0  0  0  0
    8.4916  -16.8483   15.5375 C   0  0  0  0  0  0  0  0  0  0  0  0
    8.9663  -15.4320   15.3207 C   0  0  2  0  0  0  0  0  0  0  0  0
    9.8925  -15.3673   14.2117 N   0  0  0  0  0  0  0  0  0  0  0  0
    9.5703  -14.8606   16.5621 C   0  0  0  0  0  0  0  0  0  0  0  0
   10.8159  -14.7993   16.7223 O   0  0  0  0  0  0  0  0  0  0  0  0
    7.1411  -13.3565   19.7500 O   0  0  0  0  0  0  0  0  0  0  0  0
    8.3681  -12.7950   19.4864 C   0  0  0  0  0  0  0  0  0  0  0  0
    9.3201  -13.7932   18.8292 C   0  0  2  0  0  0  0  0  0  0  0  0
    8.7655  -14.3533   17.6333 N   0  0  0  0  0  0  0  0  0  0  0  0
    9.7383  -14.8268   19.8084 C   0  0  0  0  0  0  0  0  0  0  0  0
    9.2320  -15.9751   19.7589 O   0  0  0  0  0  0  0  0  0  0  0  0
   10.7014  -14.5881   20.8237 N   0  0  0  0  0  0  0  0  0  0  0  0
   11.0948  -15.6503   21.7616 C   0  0  0  0  0  0  0  0  0  0  0  0
   12.5489  -15.6093   22.0158 C   0  0  0  0  0  0  0  0  0  0  0  0
   13.1250  -16.2420   23.1074 O   0  0  0  0  0  0  0  0  0  0  0  0
   13.3064  -14.9886   21.2334 O   0  0  0  0  0  0  0  0  0  0  0  0
  2  3  1  0
  2  1  1  0
  3  4  1  6
  5  6  2  0
  5  3  1  0
  7  8  1  0
  9  8  1  1
  9 11  1  0
  9 10  1  0
 10  5  1  0
 11 13  1  0
 12 11  2  0
 13 14  1  0
 14 15  1  0
 15 17  2  0
 15 16  1  0
M  END
$$$$
