FTE.pdb
     RDKit          3D

 28 28  0  0  1  0  0  0  0  0999 V2000
   14.1697  -13.6656   17.7940 N   0  0  0  0  0  0  0  0  0  0  0  0
   12.9754  -14.4879   17.7823 C   0  0  1  0  0  0  0  0  0  0  0  0
   13.4240  -15.9422   17.7276 C   0  0  0  0  0  0  0  0  0  0  0  0
   13.9485  -16.2347   16.3820 C   0  0  0  0  0  0  0  0  0  0  0  0
   15.3043  -16.2926   16.2089 C   0  0  0  0  0  0  0  0  0  0  0  0
   15.8409  -16.5610   14.9784 C   0  0  0  0  0  0  0  0  0  0  0  0
   14.9996  -16.7745   13.9057 C   0  0  0  0  0  0  0  0  0  0  0  0
   13.6430  -16.7190   14.0679 C   0  0  0  0  0  0  0  0  0  0  0  0
   13.1023  -16.4463   15.3180 C   0  0  0  0  0  0  0  0  0  0  0  0
   12.2178  -14.2983   19.0440 C   0  0  0  0  0  0  0  0  0  0  0  0
   12.8485  -14.0808   20.1065 O   0  0  0  0  0  0  0  0  0  0  0  0
    8.7716  -12.4002   19.2744 C   0  0  0  0  0  0  0  0  0  0  0  0
    8.6605  -13.6826   20.0473 C   0  0  1  0  0  0  0  0  0  0  0  0
    7.9984  -14.6041   19.2173 O   0  0  0  0  0  0  0  0  0  0  0  0
   10.0763  -14.1898   20.2945 C   0  0  2  0  0  0  0  0  0  0  0  0
   10.8023  -14.3602   19.0588 N   0  0  0  0  0  0  0  0  0  0  0  0
    9.9904  -15.4596   21.0506 C   0  0  0  0  0  0  0  0  0  0  0  0
   10.2742  -16.5758   20.5653 O   0  0  0  0  0  0  0  0  0  0  0  0
    9.5646  -15.4107   22.3952 N   0  0  0  0  0  0  0  0  0  0  0  0
    9.6020  -16.5706   23.2818 C   0  0  1  0  0  0  0  0  0  0  0  0
   11.0507  -16.9917   23.3096 C   0  0  0  0  0  0  0  0  0  0  0  0
   11.3124  -18.1438   24.2170 C   0  0  0  0  0  0  0  0  0  0  0  0
   12.7788  -18.4418   24.1931 C   0  0  0  0  0  0  0  0  0  0  0  0
   13.3813  -18.7388   25.2367 O   0  0  0  0  0  0  0  0  0  0  0  0
    9.0010  -16.3079   24.5761 C   0  0  0  0  0  0  0  0  0  0  0  0
    8.7740  -15.1407   24.9528 O   0  0  0  0  0  0  0  0  0  0  0  0
   13.4819  -18.3851   22.9759 O   0  0  0  0  0  0  0  0  0  0  0  0
    8.6657  -17.3502   25.4228 O   0  0  0  0  0  0  0  0  0  0  0  0
  2  1  1  1
  2  3  1  0
  3  4  1  0
  4  9  2  0
  5  6  2  0
  5  4  1  0
  6  7  1  0
  7  8  2  0
  9  8  1  0
 10  2  1  0
 10 16  1  0
 11 10  2  0
 13 15  1  0
 13 12  1  6
 14 13  1  0
 15 16  1  6
 17 15  1  0
 18 17  2  0
 19 17  1  0
 20 19  1  0
 20 25  1  0
 21 22  1  0
 20 21  1  1
 23 22  1  0
 24 23  2  0
 25 28  1  0
 26 25  2  0
 27 23  1  0
M  END
$$$$
