FTE.pdb
     RDKit          3D

 28 28  0  0  1  0  0  0  0  0999 V2000
    5.3743  -17.6509   21.3602 N   0  0  0  0  0  0  0  0  0  0  0  0
    6.5940  -17.7525   22.1379 C   0  0  1  0  0  0  0  0  0  0  0  0
    6.7540  -16.4478   22.9069 C   0  0  0  0  0  0  0  0  0  0  0  0
    7.1423  -15.3797   21.9690 C   0  0  0  0  0  0  0  0  0  0  0  0
    6.1728  -14.5305   21.5103 C   0  0  0  0  0  0  0  0  0  0  0  0
    6.4827  -13.5222   20.6376 C   0  0  0  0  0  0  0  0  0  0  0  0
    7.7889  -13.3665   20.2206 C   0  0  0  0  0  0  0  0  0  0  0  0
    8.7655  -14.2099   20.6731 C   0  0  0  0  0  0  0  0  0  0  0  0
    8.4470  -15.2317   21.5584 C   0  0  0  0  0  0  0  0  0  0  0  0
    6.4712  -18.8478   23.1313 C   0  0  0  0  0  0  0  0  0  0  0  0
    5.5460  -18.8020   23.9774 O   0  0  0  0  0  0  0  0  0  0  0  0
    5.9861  -22.3729   22.6854 C   0  0  0  0  0  0  0  0  0  0  0  0
    7.2079  -22.3450   23.5576 C   0  0  1  0  0  0  0  0  0  0  0  0
    8.3158  -22.5461   22.7158 O   0  0  0  0  0  0  0  0  0  0  0  0
    7.3077  -20.9476   24.1574 C   0  0  2  0  0  0  0  0  0  0  0  0
    7.3810  -19.9341   23.1324 N   0  0  0  0  0  0  0  0  0  0  0  0
    8.4919  -20.9055   25.0449 C   0  0  0  0  0  0  0  0  0  0  0  0
    9.6123  -20.4838   24.6860 O   0  0  0  0  0  0  0  0  0  0  0  0
    8.3512  -21.3666   26.3712 N   0  0  0  0  0  0  0  0  0  0  0  0
    9.4688  -21.4389   27.3086 C   0  0  1  0  0  0  0  0  0  0  0  0
   10.0258  -20.0374   27.3578 C   0  0  0  0  0  0  0  0  0  0  0  0
   11.1434  -19.8810   28.3302 C   0  0  0  0  0  0  0  0  0  0  0  0
   11.6014  -18.4566   28.3002 C   0  0  0  0  0  0  0  0  0  0  0  0
   11.0391  -17.6263   27.5689 O   0  0  0  0  0  0  0  0  0  0  0  0
    9.0922  -22.0087   28.5888 C   0  0  0  0  0  0  0  0  0  0  0  0
    9.9535  -22.2714   29.4521 O   0  0  0  0  0  0  0  0  0  0  0  0
   12.6801  -18.0540   29.1086 O   0  0  0  0  0  0  0  0  0  0  0  0
    7.7654  -22.2737   28.8802 O   0  0  0  0  0  0  0  0  0  0  0  0
  2  1  1  1
  2  3  1  0
  3  4  1  0
  4  9  2  0
  5  6  2  0
  5  4  1  0
  6  7  1  0
  7  8  2  0
  9  8  1  0
 10  2  1  0
 10 16  1  0
 11 10  2  0
 13 15  1  0
 13 12  1  6
 14 13  1  0
 15 16  1  6
 17 15  1  0
 18 17  2  0
 19 17  1  0
 20 19  1  0
 20 25  1  0
 21 22  1  0
 20 21  1  1
 23 22  1  0
 24 23  2  0
 25 28  1  0
 26 25  2  0
 27 23  1  0
M  END
$$$$
