FTE.pdb
     RDKit          3D

 28 28  0  0  1  0  0  0  0  0999 V2000
    6.4101  -16.5391   25.8204 N   0  0  0  0  0  0  0  0  0  0  0  0
    6.9171  -15.5224   24.9193 C   0  0  1  0  0  0  0  0  0  0  0  0
    7.9115  -14.6749   25.7017 C   0  0  0  0  0  0  0  0  0  0  0  0
    7.1885  -13.5819   26.3755 C   0  0  0  0  0  0  0  0  0  0  0  0
    6.0674  -13.0755   25.7772 C   0  0  0  0  0  0  0  0  0  0  0  0
    5.3607  -12.0598   26.3631 C   0  0  0  0  0  0  0  0  0  0  0  0
    5.7895  -11.5462   27.5700 C   0  0  0  0  0  0  0  0  0  0  0  0
    6.9089  -12.0453   28.1764 C   0  0  0  0  0  0  0  0  0  0  0  0
    7.6232  -13.0758   27.5788 C   0  0  0  0  0  0  0  0  0  0  0  0
    7.6528  -16.1598   23.7995 C   0  0  0  0  0  0  0  0  0  0  0  0
    8.0788  -17.3316   23.9390 O   0  0  0  0  0  0  0  0  0  0  0  0
    6.5830  -15.4749   20.1948 C   0  0  0  0  0  0  0  0  0  0  0  0
    8.0807  -15.5657   20.1424 C   0  0  1  0  0  0  0  0  0  0  0  0
    8.5651  -14.2535   20.0008 O   0  0  0  0  0  0  0  0  0  0  0  0
    8.5516  -16.1091   21.4861 C   0  0  2  0  0  0  0  0  0  0  0  0
    7.8762  -15.4630   22.5860 N   0  0  0  0  0  0  0  0  0  0  0  0
   10.0186  -15.9300   21.5724 C   0  0  0  0  0  0  0  0  0  0  0  0
   10.5708  -15.0727   22.2950 O   0  0  0  0  0  0  0  0  0  0  0  0
   10.8427  -16.7729   20.7966 N   0  0  0  0  0  0  0  0  0  0  0  0
   12.2205  -17.0904   21.1623 C   0  0  1  0  0  0  0  0  0  0  0  0
   12.1409  -17.5820   22.5867 C   0  0  0  0  0  0  0  0  0  0  0  0
   13.4473  -18.0606   23.1190 C   0  0  0  0  0  0  0  0  0  0  0  0
   13.5343  -17.6879   24.5658 C   0  0  0  0  0  0  0  0  0  0  0  0
   14.3189  -16.8045   24.9456 O   0  0  0  0  0  0  0  0  0  0  0  0
   12.8571  -17.9941   20.2223 C   0  0  0  0  0  0  0  0  0  0  0  0
   12.1934  -18.8550   19.6104 O   0  0  0  0  0  0  0  0  0  0  0  0
   12.7188  -18.3450   25.5051 O   0  0  0  0  0  0  0  0  0  0  0  0
   14.2185  -17.9199   19.9839 O   0  0  0  0  0  0  0  0  0  0  0  0
  2  1  1  1
  2  3  1  0
  3  4  1  0
  4  9  2  0
  5  6  2  0
  5  4  1  0
  6  7  1  0
  7  8  2  0
  9  8  1  0
 10  2  1  0
 10 16  1  0
 11 10  2  0
 13 15  1  0
 13 12  1  1
 14 13  1  0
 15 16  1  1
 17 15  1  0
 18 17  2  0
 19 17  1  0
 20 19  1  0
 20 25  1  0
 21 22  1  0
 20 21  1  1
 23 22  1  0
 24 23  2  0
 25 28  1  0
 26 25  2  0
 27 23  1  0
M  END
$$$$
