FTE.pdb
     RDKit          3D

 28 28  0  0  1  0  0  0  0  0999 V2000
    6.4281  -16.8183   25.8082 N   0  0  0  0  0  0  0  0  0  0  0  0
    6.7176  -15.8625   24.7569 C   0  0  1  0  0  0  0  0  0  0  0  0
    7.8331  -14.9558   25.2599 C   0  0  0  0  0  0  0  0  0  0  0  0
    7.2404  -13.7334   25.8308 C   0  0  0  0  0  0  0  0  0  0  0  0
    6.5945  -13.8222   27.0335 C   0  0  0  0  0  0  0  0  0  0  0  0
    6.0274  -12.7153   27.6056 C   0  0  0  0  0  0  0  0  0  0  0  0
    6.1118  -11.5004   26.9568 C   0  0  0  0  0  0  0  0  0  0  0  0
    6.7551  -11.4007   25.7543 C   0  0  0  0  0  0  0  0  0  0  0  0
    7.3293  -12.5261   25.1771 C   0  0  0  0  0  0  0  0  0  0  0  0
    7.2216  -16.5701   23.5540 C   0  0  0  0  0  0  0  0  0  0  0  0
    6.5622  -17.5325   23.0924 O   0  0  0  0  0  0  0  0  0  0  0  0
    6.1839  -15.5534   21.4616 C   0  0  0  0  0  0  0  0  0  0  0  0
    7.5184  -15.2452   20.8466 C   0  0  1  0  0  0  0  0  0  0  0  0
    7.8360  -13.9223   21.2006 O   0  0  0  0  0  0  0  0  0  0  0  0
    8.5418  -16.1735   21.4896 C   0  0  2  0  0  0  0  0  0  0  0  0
    8.4292  -16.1721   22.9286 N   0  0  0  0  0  0  0  0  0  0  0  0
    9.8920  -15.7519   21.0527 C   0  0  0  0  0  0  0  0  0  0  0  0
   10.2052  -14.5651   20.8176 O   0  0  0  0  0  0  0  0  0  0  0  0
   10.8834  -16.7433   20.8915 N   0  0  0  0  0  0  0  0  0  0  0  0
   12.1502  -16.7235   21.6178 C   0  0  1  0  0  0  0  0  0  0  0  0
   11.7619  -16.6643   23.0747 C   0  0  0  0  0  0  0  0  0  0  0  0
   12.9318  -16.5939   23.9942 C   0  0  0  0  0  0  0  0  0  0  0  0
   12.4256  -16.5476   25.4018 C   0  0  0  0  0  0  0  0  0  0  0  0
   13.2062  -16.3646   26.3492 O   0  0  0  0  0  0  0  0  0  0  0  0
   13.0274  -17.8185   21.2471 C   0  0  0  0  0  0  0  0  0  0  0  0
   12.5682  -18.8720   20.7621 O   0  0  0  0  0  0  0  0  0  0  0  0
   11.0516  -16.7131   25.6542 O   0  0  0  0  0  0  0  0  0  0  0  0
   14.3962  -17.7169   21.4245 O   0  0  0  0  0  0  0  0  0  0  0  0
  2  1  1  1
  2  3  1  0
  3  4  1  0
  4  9  2  0
  5  6  2  0
  5  4  1  0
  6  7  1  0
  7  8  2  0
  9  8  1  0
 10  2  1  0
 10 16  1  0
 11 10  2  0
 13 15  1  0
 13 12  1  1
 14 13  1  0
 15 16  1  1
 17 15  1  0
 18 17  2  0
 19 17  1  0
 20 19  1  0
 20 25  1  0
 21 22  1  0
 20 21  1  1
 23 22  1  0
 24 23  2  0
 25 28  1  0
 26 25  2  0
 27 23  1  0
M  END
$$$$
