FTE.pdb
     RDKit          3D

 28 28  0  0  1  0  0  0  0  0999 V2000
    6.3798  -16.8590   25.8866 N   0  0  0  0  0  0  0  0  0  0  0  0
    6.9886  -15.8472   25.0450 C   0  0  1  0  0  0  0  0  0  0  0  0
    7.9880  -15.0822   25.9024 C   0  0  0  0  0  0  0  0  0  0  0  0
    7.3633  -13.8332   26.3726 C   0  0  0  0  0  0  0  0  0  0  0  0
    6.7836  -13.0063   25.4498 C   0  0  0  0  0  0  0  0  0  0  0  0
    6.1903  -11.8346   25.8362 C   0  0  0  0  0  0  0  0  0  0  0  0
    6.1804  -11.4903   27.1724 C   0  0  0  0  0  0  0  0  0  0  0  0
    6.7570  -12.3097   28.1030 C   0  0  0  0  0  0  0  0  0  0  0  0
    7.3580  -13.4976   27.7069 C   0  0  0  0  0  0  0  0  0  0  0  0
    7.7435  -16.4927   23.9426 C   0  0  0  0  0  0  0  0  0  0  0  0
    8.0914  -17.6921   24.0631 O   0  0  0  0  0  0  0  0  0  0  0  0
    7.3488  -15.6688   20.0966 C   0  0  0  0  0  0  0  0  0  0  0  0
    8.8129  -15.6712   20.4295 C   0  0  1  0  0  0  0  0  0  0  0  0
    9.2073  -14.3271   20.5486 O   0  0  0  0  0  0  0  0  0  0  0  0
    8.9698  -16.3402   21.7898 C   0  0  2  0  0  0  0  0  0  0  0  0
    8.0715  -15.7731   22.7669 N   0  0  0  0  0  0  0  0  0  0  0  0
   10.3822  -16.2083   22.2132 C   0  0  0  0  0  0  0  0  0  0  0  0
   10.7480  -15.5518   23.2118 O   0  0  0  0  0  0  0  0  0  0  0  0
   11.3739  -16.8591   21.4486 N   0  0  0  0  0  0  0  0  0  0  0  0
   12.6163  -17.3645   22.0264 C   0  0  1  0  0  0  0  0  0  0  0  0
   12.1880  -18.1540   23.2388 C   0  0  0  0  0  0  0  0  0  0  0  0
   12.6767  -17.5756   24.5217 C   0  0  0  0  0  0  0  0  0  0  0  0
   12.7518  -18.6721   25.5374 C   0  0  0  0  0  0  0  0  0  0  0  0
   11.8119  -18.8728   26.3227 O   0  0  0  0  0  0  0  0  0  0  0  0
   13.4305  -18.0848   21.0652 C   0  0  0  0  0  0  0  0  0  0  0  0
   12.9847  -19.0863   20.4700 O   0  0  0  0  0  0  0  0  0  0  0  0
   13.8989  -19.4839   25.6032 O   0  0  0  0  0  0  0  0  0  0  0  0
   14.7229  -17.6748   20.7876 O   0  0  0  0  0  0  0  0  0  0  0  0
  2  1  1  1
  2  3  1  0
  3  4  1  0
  4  9  2  0
  5  6  2  0
  5  4  1  0
  6  7  1  0
  7  8  2  0
  9  8  1  0
 10  2  1  0
 10 16  1  0
 11 10  2  0
 13 15  1  0
 13 12  1  1
 14 13  1  0
 15 16  1  1
 17 15  1  0
 18 17  2  0
 19 17  1  0
 20 19  1  0
 20 25  1  0
 21 22  1  0
 20 21  1  1
 23 22  1  0
 24 23  2  0
 25 28  1  0
 26 25  2  0
 27 23  1  0
M  END
$$$$
