FTE.pdb
     RDKit          3D

 28 28  0  0  1  0  0  0  0  0999 V2000
    5.5605  -17.5747   25.6536 N   0  0  0  0  0  0  0  0  0  0  0  0
    6.2430  -16.3620   25.2457 C   0  0  1  0  0  0  0  0  0  0  0  0
    6.8425  -15.7337   26.4966 C   0  0  0  0  0  0  0  0  0  0  0  0
    6.7271  -14.2676   26.4027 C   0  0  0  0  0  0  0  0  0  0  0  0
    7.8291  -13.5495   26.0268 C   0  0  0  0  0  0  0  0  0  0  0  0
    7.7730  -12.1855   25.9247 C   0  0  0  0  0  0  0  0  0  0  0  0
    6.5892  -11.5345   26.2055 C   0  0  0  0  0  0  0  0  0  0  0  0
    5.4818  -12.2428   26.5820 C   0  0  0  0  0  0  0  0  0  0  0  0
    5.5427  -13.6267   26.6844 C   0  0  0  0  0  0  0  0  0  0  0  0
    7.3617  -16.6944   24.3293 C   0  0  0  0  0  0  0  0  0  0  0  0
    7.9547  -17.7916   24.4648 O   0  0  0  0  0  0  0  0  0  0  0  0
    7.1152  -15.6386   20.6307 C   0  0  0  0  0  0  0  0  0  0  0  0
    8.5567  -15.4666   21.0136 C   0  0  1  0  0  0  0  0  0  0  0  0
    8.7665  -14.0902   21.2084 O   0  0  0  0  0  0  0  0  0  0  0  0
    8.7621  -16.1771   22.3461 C   0  0  2  0  0  0  0  0  0  0  0  0
    7.7617  -15.7921   23.3126 N   0  0  0  0  0  0  0  0  0  0  0  0
   10.1274  -15.8722   22.8306 C   0  0  0  0  0  0  0  0  0  0  0  0
   10.4805  -14.7474   23.2456 O   0  0  0  0  0  0  0  0  0  0  0  0
   11.0865  -16.9074   22.8249 N   0  0  0  0  0  0  0  0  0  0  0  0
   12.4834  -16.6965   23.1952 C   0  0  1  0  0  0  0  0  0  0  0  0
   12.8694  -17.9301   23.9736 C   0  0  0  0  0  0  0  0  0  0  0  0
   12.0697  -18.1172   25.2165 C   0  0  0  0  0  0  0  0  0  0  0  0
   12.5195  -19.3791   25.8835 C   0  0  0  0  0  0  0  0  0  0  0  0
   12.3667  -19.5384   27.1049 O   0  0  0  0  0  0  0  0  0  0  0  0
   13.3259  -16.3858   22.0553 C   0  0  0  0  0  0  0  0  0  0  0  0
   12.9090  -16.5374   20.8895 O   0  0  0  0  0  0  0  0  0  0  0  0
   13.1215  -20.3952   25.1192 O   0  0  0  0  0  0  0  0  0  0  0  0
   14.6138  -15.9131   22.2381 O   0  0  0  0  0  0  0  0  0  0  0  0
  2  1  1  1
  2  3  1  0
  3  4  1  0
  4  9  2  0
  5  6  2  0
  5  4  1  0
  6  7  1  0
  7  8  2  0
  9  8  1  0
 10  2  1  0
 10 16  1  0
 11 10  2  0
 13 15  1  0
 13 12  1  1
 14 13  1  0
 15 16  1  1
 17 15  1  0
 18 17  2  0
 19 17  1  0
 20 19  1  0
 20 25  1  0
 21 22  1  0
 20 21  1  6
 23 22  1  0
 24 23  2  0
 25 28  1  0
 26 25  2  0
 27 23  1  0
M  END
$$$$
