FTE.pdb
     RDKit          3D

 28 28  0  0  1  0  0  0  0  0999 V2000
    7.6417  -17.2714   20.1485 N   0  0  0  0  0  0  0  0  0  0  0  0
    8.8623  -16.7859   20.7626 C   0  0  1  0  0  0  0  0  0  0  0  0
    8.4733  -15.6886   21.7443 C   0  0  0  0  0  0  0  0  0  0  0  0
    8.1643  -14.4582   20.9946 C   0  0  0  0  0  0  0  0  0  0  0  0
    9.2028  -13.7175   20.5003 C   0  0  0  0  0  0  0  0  0  0  0  0
    8.9680  -12.5666   19.7971 C   0  0  0  0  0  0  0  0  0  0  0  0
    7.6675  -12.1552   19.5883 C   0  0  0  0  0  0  0  0  0  0  0  0
    6.6222  -12.8882   20.0781 C   0  0  0  0  0  0  0  0  0  0  0  0
    6.8646  -14.0553   20.7911 C   0  0  0  0  0  0  0  0  0  0  0  0
    9.5068  -17.8747   21.5378 C   0  0  0  0  0  0  0  0  0  0  0  0
    8.7931  -18.6177   22.2538 O   0  0  0  0  0  0  0  0  0  0  0  0
   11.2268  -20.7777   20.4248 C   0  0  0  0  0  0  0  0  0  0  0  0
   12.2555  -20.1235   21.3012 C   0  0  1  0  0  0  0  0  0  0  0  0
   13.0992  -19.3807   20.4568 O   0  0  0  0  0  0  0  0  0  0  0  0
   11.5214  -19.1544   22.2201 C   0  0  2  0  0  0  0  0  0  0  0  0
   10.9075  -18.0802   21.4769 N   0  0  0  0  0  0  0  0  0  0  0  0
   12.4854  -18.6390   23.2185 C   0  0  0  0  0  0  0  0  0  0  0  0
   13.0127  -17.5077   23.1531 O   0  0  0  0  0  0  0  0  0  0  0  0
   12.8304  -19.4689   24.3065 N   0  0  0  0  0  0  0  0  0  0  0  0
   13.7453  -19.0498   25.3649 C   0  0  1  0  0  0  0  0  0  0  0  0
   13.2313  -19.7250   26.6126 C   0  0  0  0  0  0  0  0  0  0  0  0
   11.9353  -19.1690   27.0924 C   0  0  0  0  0  0  0  0  0  0  0  0
   11.5340  -19.9053   28.3320 C   0  0  0  0  0  0  0  0  0  0  0  0
   10.4960  -19.6012   28.9406 O   0  0  0  0  0  0  0  0  0  0  0  0
   15.1358  -19.3082   25.0402 C   0  0  0  0  0  0  0  0  0  0  0  0
   15.4473  -20.1698   24.1938 O   0  0  0  0  0  0  0  0  0  0  0  0
   12.3409  -20.9527   28.8126 O   0  0  0  0  0  0  0  0  0  0  0  0
   16.1491  -18.6019   25.6647 O   0  0  0  0  0  0  0  0  0  0  0  0
  2  1  1  1
  2  3  1  0
  3  4  1  0
  4  9  2  0
  5  6  2  0
  5  4  1  0
  6  7  1  0
  7  8  2  0
  9  8  1  0
 10  2  1  0
 10 16  1  0
 11 10  2  0
 13 15  1  0
 13 12  1  6
 14 13  1  0
 15 16  1  6
 17 15  1  0
 18 17  2  0
 19 17  1  0
 20 19  1  0
 20 25  1  0
 21 22  1  0
 20 21  1  1
 23 22  1  0
 24 23  2  0
 25 28  1  0
 26 25  2  0
 27 23  1  0
M  END
$$$$
