FTE.pdb
     RDKit          3D

 28 28  0  0  1  0  0  0  0  0999 V2000
    5.4776  -17.2894   24.6825 N   0  0  0  0  0  0  0  0  0  0  0  0
    6.5981  -16.3808   24.5349 C   0  0  1  0  0  0  0  0  0  0  0  0
    7.1146  -16.0636   25.9320 C   0  0  0  0  0  0  0  0  0  0  0  0
    6.9360  -14.6252   26.1972 C   0  0  0  0  0  0  0  0  0  0  0  0
    7.9953  -13.7862   25.9839 C   0  0  0  0  0  0  0  0  0  0  0  0
    7.8798  -12.4419   26.2154 C   0  0  0  0  0  0  0  0  0  0  0  0
    6.6793  -11.9344   26.6686 C   0  0  0  0  0  0  0  0  0  0  0  0
    5.6143  -12.7643   26.8849 C   0  0  0  0  0  0  0  0  0  0  0  0
    5.7354  -14.1277   26.6489 C   0  0  0  0  0  0  0  0  0  0  0  0
    7.6954  -17.0468   23.7905 C   0  0  0  0  0  0  0  0  0  0  0  0
    7.4472  -18.0962   23.1492 O   0  0  0  0  0  0  0  0  0  0  0  0
    8.0237  -16.9556   21.2118 C   0  0  0  0  0  0  0  0  0  0  0  0
    9.3917  -16.3599   21.3786 C   0  0  1  0  0  0  0  0  0  0  0  0
    9.2275  -14.9642   21.4197 O   0  0  0  0  0  0  0  0  0  0  0  0
    9.9277  -16.8204   22.7288 C   0  0  2  0  0  0  0  0  0  0  0  0
    9.0079  -16.5130   23.7978 N   0  0  0  0  0  0  0  0  0  0  0  0
   11.2452  -16.1820   22.9489 C   0  0  0  0  0  0  0  0  0  0  0  0
   11.4562  -14.9592   22.8005 O   0  0  0  0  0  0  0  0  0  0  0  0
   12.3256  -16.9972   23.3488 N   0  0  0  0  0  0  0  0  0  0  0  0
   13.5177  -16.4679   24.0058 C   0  0  1  0  0  0  0  0  0  0  0  0
   13.9125  -17.5266   25.0059 C   0  0  0  0  0  0  0  0  0  0  0  0
   12.8201  -17.8762   25.9565 C   0  0  0  0  0  0  0  0  0  0  0  0
   13.3131  -18.9559   26.8680 C   0  0  0  0  0  0  0  0  0  0  0  0
   13.1318  -20.1515   26.5889 O   0  0  0  0  0  0  0  0  0  0  0  0
   14.5513  -16.0782   23.0649 C   0  0  0  0  0  0  0  0  0  0  0  0
   14.5025  -16.4404   21.8723 O   0  0  0  0  0  0  0  0  0  0  0  0
   13.9889  -18.6128   28.0533 O   0  0  0  0  0  0  0  0  0  0  0  0
   15.6167  -15.2941   23.4721 O   0  0  0  0  0  0  0  0  0  0  0  0
  2  1  1  1
  2  3  1  0
  3  4  1  0
  4  9  2  0
  5  6  2  0
  5  4  1  0
  6  7  1  0
  7  8  2  0
  9  8  1  0
 10  2  1  0
 10 16  1  0
 11 10  2  0
 13 15  1  0
 13 12  1  1
 14 13  1  0
 15 16  1  1
 17 15  1  0
 18 17  2  0
 19 17  1  0
 20 19  1  0
 20 25  1  0
 21 22  1  0
 20 21  1  1
 23 22  1  0
 24 23  2  0
 25 28  1  0
 26 25  2  0
 27 23  1  0
M  END
$$$$
