FTE.pdb
     RDKit          3D

 28 28  0  0  1  0  0  0  0  0999 V2000
    6.2351  -15.1792   21.1824 N   0  0  0  0  0  0  0  0  0  0  0  0
    7.0217  -14.7593   22.3260 C   0  0  1  0  0  0  0  0  0  0  0  0
    6.0757  -14.6504   23.5145 C   0  0  0  0  0  0  0  0  0  0  0  0
    6.8225  -14.1466   24.6806 C   0  0  0  0  0  0  0  0  0  0  0  0
    6.6127  -14.7397   25.8953 C   0  0  0  0  0  0  0  0  0  0  0  0
    7.2820  -14.3082   27.0088 C   0  0  0  0  0  0  0  0  0  0  0  0
    8.1765  -13.2633   26.8975 C   0  0  0  0  0  0  0  0  0  0  0  0
    8.3936  -12.6635   25.6881 C   0  0  0  0  0  0  0  0  0  0  0  0
    7.7125  -13.1042   24.5606 C   0  0  0  0  0  0  0  0  0  0  0  0
    8.0346  -15.7936   22.6510 C   0  0  0  0  0  0  0  0  0  0  0  0
    7.9036  -16.9461   22.1730 O   0  0  0  0  0  0  0  0  0  0  0  0
    9.7561  -16.9607   21.2594 C   0  0  0  0  0  0  0  0  0  0  0  0
   10.8766  -16.6667   22.2144 C   0  0  1  0  0  0  0  0  0  0  0  0
   11.4907  -15.4819   21.7718 O   0  0  0  0  0  0  0  0  0  0  0  0
   10.2541  -16.4037   23.5804 C   0  0  2  0  0  0  0  0  0  0  0  0
    9.1376  -15.4936   23.4884 N   0  0  0  0  0  0  0  0  0  0  0  0
   11.3072  -15.8785   24.4785 C   0  0  0  0  0  0  0  0  0  0  0  0
   11.1733  -14.8505   25.1767 O   0  0  0  0  0  0  0  0  0  0  0  0
   12.5322  -16.5751   24.5530 N   0  0  0  0  0  0  0  0  0  0  0  0
   13.1195  -17.0140   25.8161 C   0  0  1  0  0  0  0  0  0  0  0  0
   12.0304  -17.8066   26.4962 C   0  0  0  0  0  0  0  0  0  0  0  0
   11.2243  -16.9992   27.4540 C   0  0  0  0  0  0  0  0  0  0  0  0
   10.7415  -17.9023   28.5454 C   0  0  0  0  0  0  0  0  0  0  0  0
    9.7005  -18.5633   28.4057 O   0  0  0  0  0  0  0  0  0  0  0  0
   14.3813  -17.7081   25.6377 C   0  0  0  0  0  0  0  0  0  0  0  0
   14.5224  -18.5613   24.7388 O   0  0  0  0  0  0  0  0  0  0  0  0
   11.4747  -18.0033   29.7419 O   0  0  0  0  0  0  0  0  0  0  0  0
   15.4583  -17.4373   26.4637 O   0  0  0  0  0  0  0  0  0  0  0  0
  2  1  1  6
  2  3  1  0
  3  4  1  0
  4  9  2  0
  5  6  2  0
  5  4  1  0
  6  7  1  0
  7  8  2  0
  9  8  1  0
 10  2  1  0
 10 16  1  0
 11 10  2  0
 13 15  1  0
 13 12  1  6
 14 13  1  0
 15 16  1  6
 17 15  1  0
 18 17  2  0
 19 17  1  0
 20 19  1  0
 20 25  1  0
 21 22  1  0
 20 21  1  6
 23 22  1  0
 24 23  2  0
 25 28  1  0
 26 25  2  0
 27 23  1  0
M  END
$$$$
