FTE.pdb
     RDKit          3D

 28 28  0  0  1  0  0  0  0  0999 V2000
    5.6983  -18.0315   25.3492 N   0  0  0  0  0  0  0  0  0  0  0  0
    6.2213  -16.7000   25.1118 C   0  0  1  0  0  0  0  0  0  0  0  0
    6.5660  -16.0975   26.4672 C   0  0  0  0  0  0  0  0  0  0  0  0
    6.7867  -14.6491   26.3090 C   0  0  0  0  0  0  0  0  0  0  0  0
    5.7567  -13.7969   26.5993 C   0  0  0  0  0  0  0  0  0  0  0  0
    5.9117  -12.4430   26.4684 C   0  0  0  0  0  0  0  0  0  0  0  0
    7.1224  -11.9395   26.0386 C   0  0  0  0  0  0  0  0  0  0  0  0
    8.1584  -12.7825   25.7459 C   0  0  0  0  0  0  0  0  0  0  0  0
    7.9972  -14.1556   25.8799 C   0  0  0  0  0  0  0  0  0  0  0  0
    7.4761  -16.7820   24.3241 C   0  0  0  0  0  0  0  0  0  0  0  0
    8.3091  -17.6797   24.5968 O   0  0  0  0  0  0  0  0  0  0  0  0
    9.8457  -15.6018   20.2012 C   0  0  0  0  0  0  0  0  0  0  0  0
    8.6549  -15.3114   21.0682 C   0  0  1  0  0  0  0  0  0  0  0  0
    7.5283  -15.8213   20.3994 O   0  0  0  0  0  0  0  0  0  0  0  0
    8.8358  -16.0892   22.3663 C   0  0  2  0  0  0  0  0  0  0  0  0
    7.7388  -15.8642   23.2770 N   0  0  0  0  0  0  0  0  0  0  0  0
   10.1287  -15.6940   22.9693 C   0  0  0  0  0  0  0  0  0  0  0  0
   10.4341  -14.5132   23.2423 O   0  0  0  0  0  0  0  0  0  0  0  0
   11.0718  -16.7048   23.2533 N   0  0  0  0  0  0  0  0  0  0  0  0
   12.3622  -16.4321   23.8803 C   0  0  1  0  0  0  0  0  0  0  0  0
   12.6386  -17.6398   24.7415 C   0  0  0  0  0  0  0  0  0  0  0  0
   11.5988  -17.8718   25.7828 C   0  0  0  0  0  0  0  0  0  0  0  0
   12.1822  -18.7462   26.8480 C   0  0  0  0  0  0  0  0  0  0  0  0
   13.3864  -19.0463   26.8313 O   0  0  0  0  0  0  0  0  0  0  0  0
   13.3955  -16.0995   22.9174 C   0  0  0  0  0  0  0  0  0  0  0  0
   13.3440  -16.5289   21.7474 O   0  0  0  0  0  0  0  0  0  0  0  0
   11.3581  -19.2331   27.8790 O   0  0  0  0  0  0  0  0  0  0  0  0
   14.4635  -15.2962   23.2777 O   0  0  0  0  0  0  0  0  0  0  0  0
  2  1  1  1
  2  3  1  0
  3  4  1  0
  4  9  2  0
  5  6  2  0
  5  4  1  0
  6  7  1  0
  7  8  2  0
  9  8  1  0
 10  2  1  0
 10 16  1  0
 11 10  2  0
 13 15  1  0
 13 12  1  6
 14 13  1  0
 15 16  1  1
 17 15  1  0
 18 17  2  0
 19 17  1  0
 20 19  1  0
 20 25  1  0
 21 22  1  0
 20 21  1  6
 23 22  1  0
 24 23  2  0
 25 28  1  0
 26 25  2  0
 27 23  1  0
M  END
$$$$
