FTE.pdb
     RDKit          3D

 28 28  0  0  1  0  0  0  0  0999 V2000
    6.4549  -16.2053   25.9904 N   0  0  0  0  0  0  0  0  0  0  0  0
    6.0784  -15.9063   24.6223 C   0  0  1  0  0  0  0  0  0  0  0  0
    6.2642  -14.4090   24.4153 C   0  0  0  0  0  0  0  0  0  0  0  0
    6.6709  -13.7928   25.6906 C   0  0  0  0  0  0  0  0  0  0  0  0
    7.9994  -13.7854   26.0170 C   0  0  0  0  0  0  0  0  0  0  0  0
    8.4277  -13.2250   27.1903 C   0  0  0  0  0  0  0  0  0  0  0  0
    7.5043  -12.6634   28.0482 C   0  0  0  0  0  0  0  0  0  0  0  0
    6.1741  -12.6655   27.7315 C   0  0  0  0  0  0  0  0  0  0  0  0
    5.7434  -13.2351   26.5401 C   0  0  0  0  0  0  0  0  0  0  0  0
    6.9883  -16.6064   23.6823 C   0  0  0  0  0  0  0  0  0  0  0  0
    6.6789  -17.7516   23.2740 O   0  0  0  0  0  0  0  0  0  0  0  0
    7.4498  -14.0508   21.1821 C   0  0  0  0  0  0  0  0  0  0  0  0
    7.5345  -15.5282   20.9288 C   0  0  1  0  0  0  0  0  0  0  0  0
    7.9781  -15.6912   19.6047 O   0  0  0  0  0  0  0  0  0  0  0  0
    8.5980  -16.0907   21.8643 C   0  0  2  0  0  0  0  0  0  0  0  0
    8.1917  -15.9983   23.2462 N   0  0  0  0  0  0  0  0  0  0  0  0
    9.8633  -15.3611   21.6230 C   0  0  0  0  0  0  0  0  0  0  0  0
   10.0194  -14.1452   21.8664 O   0  0  0  0  0  0  0  0  0  0  0  0
   10.9565  -16.0755   21.0881 N   0  0  0  0  0  0  0  0  0  0  0  0
   12.0843  -16.5245   21.9001 C   0  0  1  0  0  0  0  0  0  0  0  0
   11.4594  -17.2600   23.0600 C   0  0  0  0  0  0  0  0  0  0  0  0
   12.4599  -17.8853   23.9694 C   0  0  0  0  0  0  0  0  0  0  0  0
   12.1775  -17.4322   25.3675 C   0  0  0  0  0  0  0  0  0  0  0  0
   11.0847  -17.6759   25.9030 O   0  0  0  0  0  0  0  0  0  0  0  0
   13.0629  -17.2755   21.1360 C   0  0  0  0  0  0  0  0  0  0  0  0
   14.2706  -16.9641   21.1589 O   0  0  0  0  0  0  0  0  0  0  0  0
   13.1599  -16.7229   26.0823 O   0  0  0  0  0  0  0  0  0  0  0  0
   12.6759  -18.3566   20.3633 O   0  0  0  0  0  0  0  0  0  0  0  0
  2  1  1  1
  2  3  1  0
  3  4  1  0
  4  9  2  0
  5  6  2  0
  5  4  1  0
  6  7  1  0
  7  8  2  0
  9  8  1  0
 10  2  1  0
 10 16  1  0
 11 10  2  0
 13 15  1  0
 13 12  1  1
 14 13  1  0
 15 16  1  1
 17 15  1  0
 18 17  2  0
 19 17  1  0
 20 19  1  0
 20 25  1  0
 21 22  1  0
 20 21  1  1
 23 22  1  0
 24 23  2  0
 25 28  1  0
 26 25  2  0
 27 23  1  0
M  END
$$$$
