FTE.pdb
     RDKit          3D

 28 28  0  0  1  0  0  0  0  0999 V2000
    6.4356  -16.1270   25.9807 N   0  0  0  0  0  0  0  0  0  0  0  0
    7.0074  -15.3102   24.9278 C   0  0  1  0  0  0  0  0  0  0  0  0
    7.9546  -14.3159   25.5860 C   0  0  0  0  0  0  0  0  0  0  0  0
    7.1712  -13.1964   26.1379 C   0  0  0  0  0  0  0  0  0  0  0  0
    7.2609  -12.9357   27.4779 C   0  0  0  0  0  0  0  0  0  0  0  0
    6.5530  -11.9069   28.0387 C   0  0  0  0  0  0  0  0  0  0  0  0
    5.7423  -11.1286   27.2380 C   0  0  0  0  0  0  0  0  0  0  0  0
    5.6454  -11.3806   25.8976 C   0  0  0  0  0  0  0  0  0  0  0  0
    6.3653  -12.4255   25.3323 C   0  0  0  0  0  0  0  0  0  0  0  0
    7.8103  -16.1561   24.0104 C   0  0  0  0  0  0  0  0  0  0  0  0
    8.2394  -17.2616   24.4198 O   0  0  0  0  0  0  0  0  0  0  0  0
    7.2822  -15.9576   20.0788 C   0  0  0  0  0  0  0  0  0  0  0  0
    8.7485  -16.1216   20.3564 C   0  0  1  0  0  0  0  0  0  0  0  0
    9.3367  -14.8531   20.2098 O   0  0  0  0  0  0  0  0  0  0  0  0
    8.8915  -16.5521   21.8113 C   0  0  2  0  0  0  0  0  0  0  0  0
    8.0935  -15.7299   22.6890 N   0  0  0  0  0  0  0  0  0  0  0  0
   10.3257  -16.4965   22.1744 C   0  0  0  0  0  0  0  0  0  0  0  0
   10.9143  -15.4479   22.5149 O   0  0  0  0  0  0  0  0  0  0  0  0
   11.0731  -17.6929   22.1349 N   0  0  0  0  0  0  0  0  0  0  0  0
   12.5118  -17.7378   22.3820 C   0  0  1  0  0  0  0  0  0  0  0  0
   12.7091  -18.9053   23.3174 C   0  0  0  0  0  0  0  0  0  0  0  0
   12.0352  -18.7263   24.6338 C   0  0  0  0  0  0  0  0  0  0  0  0
   12.2885  -19.9448   25.4650 C   0  0  0  0  0  0  0  0  0  0  0  0
   11.5450  -20.9349   25.3795 O   0  0  0  0  0  0  0  0  0  0  0  0
   13.2909  -17.7767   21.1584 C   0  0  0  0  0  0  0  0  0  0  0  0
   12.7512  -18.0278   20.0622 O   0  0  0  0  0  0  0  0  0  0  0  0
   13.3800  -19.9689   26.3522 O   0  0  0  0  0  0  0  0  0  0  0  0
   14.6535  -17.5354   21.1818 O   0  0  0  0  0  0  0  0  0  0  0  0
  2  1  1  1
  2  3  1  0
  3  4  1  0
  4  9  2  0
  5  6  2  0
  5  4  1  0
  6  7  1  0
  7  8  2  0
  9  8  1  0
 10  2  1  0
 10 16  1  0
 11 10  2  0
 13 15  1  0
 13 12  1  1
 14 13  1  0
 15 16  1  1
 17 15  1  0
 18 17  2  0
 19 17  1  0
 20 19  1  0
 20 25  1  0
 21 22  1  0
 20 21  1  1
 23 22  1  0
 24 23  2  0
 25 28  1  0
 26 25  2  0
 27 23  1  0
M  END
$$$$
