YCF.pdb
     RDKit          3D

 30 31  0  0  1  0  0  0  0  0999 V2000
    6.8672  -22.7332   29.2541 O   0  0  0  0  0  0  0  0  0  0  0  0
    7.0150  -21.8738   28.1529 C   0  0  0  0  0  0  0  0  0  0  0  0
    7.9321  -20.8433   28.1792 C   0  0  0  0  0  0  0  0  0  0  0  0
    8.0607  -19.9989   27.0671 C   0  0  0  0  0  0  0  0  0  0  0  0
    7.2816  -20.1870   25.9488 C   0  0  0  0  0  0  0  0  0  0  0  0
    7.4587  -19.2680   24.8057 C   0  0  0  0  0  0  0  0  0  0  0  0
    8.0082  -20.0753   23.6610 C   0  0  2  0  0  0  0  0  0  0  0  0
    9.1328  -20.8246   24.1404 N   0  0  0  0  0  0  0  0  0  0  0  0
    8.3117  -19.2602   22.4678 C   0  0  0  0  0  0  0  0  0  0  0  0
    9.4811  -19.2470   22.0186 O   0  0  0  0  0  0  0  0  0  0  0  0
    6.3745  -21.2173   25.9400 C   0  0  0  0  0  0  0  0  0  0  0  0
    6.2309  -22.0705   27.0391 C   0  0  0  0  0  0  0  0  0  0  0  0
    7.3325  -18.4706   21.7820 N   0  0  0  0  0  0  0  0  0  0  0  0
    7.5477  -17.2058   21.1758 C   0  0  1  0  0  0  0  0  0  0  0  0
    6.3338  -16.4545   20.7373 C   0  0  0  0  0  0  0  0  0  0  0  0
    4.7691  -17.2239   21.1115 S   0  0  0  0  0  0  0  0  0  0  0  0
    8.5334  -16.3270   21.8739 C   0  0  0  0  0  0  0  0  0  0  0  0
    9.1178  -15.5108   21.0991 O   0  0  0  0  0  0  0  0  0  0  0  0
    8.8356  -16.3432   23.2279 N   0  0  0  0  0  0  0  0  0  0  0  0
    8.6124  -15.2508   24.1619 C   0  0  1  0  0  0  0  0  0  0  0  0
    7.2818  -14.6271   24.0032 C   0  0  0  0  0  0  0  0  0  0  0  0
    7.0897  -13.4877   24.9076 C   0  0  0  0  0  0  0  0  0  0  0  0
    6.3752  -13.6458   26.0883 C   0  0  0  0  0  0  0  0  0  0  0  0
    6.2326  -12.5742   26.9336 C   0  0  0  0  0  0  0  0  0  0  0  0
    6.7649  -11.3237   26.6797 C   0  0  0  0  0  0  0  0  0  0  0  0
    7.4705  -11.1961   25.4979 C   0  0  0  0  0  0  0  0  0  0  0  0
    7.6359  -12.2457   24.6243 C   0  0  0  0  0  0  0  0  0  0  0  0
    9.0515  -15.5482   25.5419 C   0  0  0  0  0  0  0  0  0  0  0  0
    8.5820  -16.6968   26.2109 O   0  0  0  0  0  0  0  0  0  0  0  0
    9.8391  -14.8560   26.2319 O   0  0  0  0  0  0  0  0  0  0  0  0
  1  2  1  0
  2 12  2  0
  3  4  2  0
  3  2  1  0
  4  5  1  0
  5  6  1  0
  5 11  2  0
  6  7  1  0
  7  9  1  0
  7  8  1  1
  9 13  1  0
 10  9  2  0
 12 11  1  0
 13 14  1  0
 14 17  1  0
 14 15  1  1
 15 16  1  0
 17 19  1  0
 18 17  2  0
 19 20  1  0
 20 28  1  0
 20 21  1  1
 22 21  1  0
 23 22  2  0
 24 23  1  0
 25 26  1  0
 25 24  2  0
 26 27  2  0
 27 22  1  0
 28 30  2  0
 28 29  1  0
M  END
$$$$
