YCF.pdb
     RDKit          3D

 30 31  0  0  1  0  0  0  0  0999 V2000
    8.2317  -12.1242   16.7657 O   0  0  0  0  0  0  0  0  0  0  0  0
    8.0462  -12.7913   17.9878 C   0  0  0  0  0  0  0  0  0  0  0  0
    6.9250  -13.5649   18.2071 C   0  0  0  0  0  0  0  0  0  0  0  0
    6.7629  -14.2210   19.4358 C   0  0  0  0  0  0  0  0  0  0  0  0
    7.7106  -14.1017   20.4260 C   0  0  0  0  0  0  0  0  0  0  0  0
    7.4892  -14.8145   21.7009 C   0  0  0  0  0  0  0  0  0  0  0  0
    8.2107  -16.1317   21.6105 C   0  0  2  0  0  0  0  0  0  0  0  0
    7.4608  -16.9949   20.7454 N   0  0  0  0  0  0  0  0  0  0  0  0
    8.4981  -16.7289   22.9300 C   0  0  0  0  0  0  0  0  0  0  0  0
    7.6130  -17.4096   23.4980 O   0  0  0  0  0  0  0  0  0  0  0  0
    8.8198  -13.3280   20.1904 C   0  0  0  0  0  0  0  0  0  0  0  0
    9.0002  -12.6655   18.9718 C   0  0  0  0  0  0  0  0  0  0  0  0
    9.7492  -16.5737   23.6105 N   0  0  0  0  0  0  0  0  0  0  0  0
   10.1541  -17.2514   24.7896 C   0  0  1  0  0  0  0  0  0  0  0  0
   11.1889  -18.3166   24.6318 C   0  0  0  0  0  0  0  0  0  0  0  0
   12.5767  -17.9009   23.5921 S   0  0  0  0  0  0  0  0  0  0  0  0
   10.4250  -16.3715   25.9658 C   0  0  0  0  0  0  0  0  0  0  0  0
   11.2828  -15.4673   25.7316 O   0  0  0  0  0  0  0  0  0  0  0  0
    9.8399  -16.4711   27.2199 N   0  0  0  0  0  0  0  0  0  0  0  0
   10.2025  -15.6895   28.3917 C   0  0  1  0  0  0  0  0  0  0  0  0
    9.0645  -14.9227   28.9408 C   0  0  0  0  0  0  0  0  0  0  0  0
    8.3455  -14.1741   27.9036 C   0  0  0  0  0  0  0  0  0  0  0  0
    7.2840  -14.7617   27.2273 C   0  0  0  0  0  0  0  0  0  0  0  0
    6.6068  -14.0334   26.2816 C   0  0  0  0  0  0  0  0  0  0  0  0
    6.9201  -12.7273   25.9533 C   0  0  0  0  0  0  0  0  0  0  0  0
    7.9804  -12.1690   26.6423 C   0  0  0  0  0  0  0  0  0  0  0  0
    8.6843  -12.8655   27.5971 C   0  0  0  0  0  0  0  0  0  0  0  0
   11.0438  -16.4241   29.3603 C   0  0  0  0  0  0  0  0  0  0  0  0
   11.6599  -15.7464   30.4320 O   0  0  0  0  0  0  0  0  0  0  0  0
   11.2920  -17.6543   29.3393 O   0  0  0  0  0  0  0  0  0  0  0  0
  1  2  1  0
  2 12  2  0
  3  4  2  0
  3  2  1  0
  4  5  1  0
  5  6  1  0
  5 11  2  0
  6  7  1  0
  7  9  1  0
  7  8  1  6
  9 13  1  0
 10  9  2  0
 12 11  1  0
 13 14  1  0
 14 17  1  0
 14 15  1  6
 15 16  1  0
 17 19  1  0
 18 17  2  0
 19 20  1  0
 20 28  1  0
 20 21  1  1
 22 21  1  0
 23 22  2  0
 24 23  1  0
 25 26  1  0
 25 24  2  0
 26 27  2  0
 27 22  1  0
 28 30  2  0
 28 29  1  0
M  END
$$$$
