YCF.pdb
     RDKit          3D

 30 31  0  0  1  0  0  0  0  0999 V2000
    8.9024  -12.6932   16.9866 O   0  0  0  0  0  0  0  0  0  0  0  0
    8.2273  -13.3323   18.0396 C   0  0  0  0  0  0  0  0  0  0  0  0
    7.2866  -14.3092   17.7858 C   0  0  0  0  0  0  0  0  0  0  0  0
    6.6262  -14.9324   18.8543 C   0  0  0  0  0  0  0  0  0  0  0  0
    6.9063  -14.5801   20.1545 C   0  0  0  0  0  0  0  0  0  0  0  0
    6.1810  -15.2689   21.2416 C   0  0  0  0  0  0  0  0  0  0  0  0
    6.8774  -16.5801   21.4860 C   0  0  2  0  0  0  0  0  0  0  0  0
    6.3913  -17.5308   20.5291 N   0  0  0  0  0  0  0  0  0  0  0  0
    6.7674  -17.0451   22.8831 C   0  0  0  0  0  0  0  0  0  0  0  0
    5.8047  -17.7775   23.2090 O   0  0  0  0  0  0  0  0  0  0  0  0
    7.8451  -13.6062   20.3884 C   0  0  0  0  0  0  0  0  0  0  0  0
    8.5148  -12.9725   19.3365 C   0  0  0  0  0  0  0  0  0  0  0  0
    7.7115  -16.7031   23.9050 N   0  0  0  0  0  0  0  0  0  0  0  0
    7.7105  -17.1767   25.2425 C   0  0  1  0  0  0  0  0  0  0  0  0
    7.4298  -18.6299   25.4416 C   0  0  0  0  0  0  0  0  0  0  0  0
    7.5396  -19.2174   27.1217 S   0  0  0  0  0  0  0  0  0  0  0  0
    8.8489  -16.7016   26.0848 C   0  0  0  0  0  0  0  0  0  0  0  0
    9.9856  -17.0221   25.6228 O   0  0  0  0  0  0  0  0  0  0  0  0
    8.7533  -15.9798   27.2659 N   0  0  0  0  0  0  0  0  0  0  0  0
    9.8650  -15.3844   27.9907 C   0  0  1  0  0  0  0  0  0  0  0  0
    9.5817  -14.0040   28.4366 C   0  0  0  0  0  0  0  0  0  0  0  0
    8.5635  -13.3491   27.6074 C   0  0  0  0  0  0  0  0  0  0  0  0
    8.8755  -12.9276   26.3212 C   0  0  0  0  0  0  0  0  0  0  0  0
    7.9001  -12.3438   25.5524 C   0  0  0  0  0  0  0  0  0  0  0  0
    6.6020  -12.1450   25.9852 C   0  0  0  0  0  0  0  0  0  0  0  0
    6.3208  -12.5743   27.2687 C   0  0  0  0  0  0  0  0  0  0  0  0
    7.2703  -13.1638   28.0706 C   0  0  0  0  0  0  0  0  0  0  0  0
   10.4863  -16.2922   28.9783 C   0  0  0  0  0  0  0  0  0  0  0  0
   11.6367  -15.8962   29.6904 O   0  0  0  0  0  0  0  0  0  0  0  0
   10.0884  -17.4452   29.2746 O   0  0  0  0  0  0  0  0  0  0  0  0
  1  2  1  0
  2 12  2  0
  3  4  2  0
  3  2  1  0
  4  5  1  0
  5  6  1  0
  5 11  2  0
  6  7  1  0
  7  9  1  0
  7  8  1  6
  9 13  1  0
 10  9  2  0
 12 11  1  0
 13 14  1  0
 14 17  1  0
 14 15  1  6
 15 16  1  0
 17 19  1  0
 18 17  2  0
 19 20  1  0
 20 28  1  0
 20 21  1  1
 22 21  1  0
 23 22  2  0
 24 23  1  0
 25 26  1  0
 25 24  2  0
 26 27  2  0
 27 22  1  0
 28 30  2  0
 28 29  1  0
M  END
$$$$
