YCF.pdb
     RDKit          3D

 30 31  0  0  1  0  0  0  0  0999 V2000
    8.5548  -11.7863   17.5795 O   0  0  0  0  0  0  0  0  0  0  0  0
    8.1132  -12.5572   18.6675 C   0  0  0  0  0  0  0  0  0  0  0  0
    9.0121  -13.0773   19.5758 C   0  0  0  0  0  0  0  0  0  0  0  0
    8.5462  -13.8439   20.6536 C   0  0  0  0  0  0  0  0  0  0  0  0
    7.2011  -14.0832   20.8155 C   0  0  0  0  0  0  0  0  0  0  0  0
    6.7654  -14.8973   21.9688 C   0  0  0  0  0  0  0  0  0  0  0  0
    7.3465  -16.2739   21.7922 C   0  0  2  0  0  0  0  0  0  0  0  0
    6.4793  -17.0186   20.9265 N   0  0  0  0  0  0  0  0  0  0  0  0
    7.6250  -16.9558   23.0719 C   0  0  0  0  0  0  0  0  0  0  0  0
    6.6660  -17.3411   23.7799 O   0  0  0  0  0  0  0  0  0  0  0  0
    6.3210  -13.5579   19.9023 C   0  0  0  0  0  0  0  0  0  0  0  0
    6.7655  -12.7908   18.8204 C   0  0  0  0  0  0  0  0  0  0  0  0
    8.9483  -17.2073   23.5601 N   0  0  0  0  0  0  0  0  0  0  0  0
    9.2906  -17.6872   24.8508 C   0  0  1  0  0  0  0  0  0  0  0  0
   10.0748  -18.9567   24.9105 C   0  0  0  0  0  0  0  0  0  0  0  0
   10.6635  -19.4286   26.5263 S   0  0  0  0  0  0  0  0  0  0  0  0
    9.8166  -16.6543   25.7929 C   0  0  0  0  0  0  0  0  0  0  0  0
   10.9010  -16.1238   25.4046 O   0  0  0  0  0  0  0  0  0  0  0  0
    9.2365  -16.2615   26.9905 N   0  0  0  0  0  0  0  0  0  0  0  0
    9.8769  -15.4623   28.0235 C   0  0  1  0  0  0  0  0  0  0  0  0
    9.0918  -14.2639   28.3866 C   0  0  0  0  0  0  0  0  0  0  0  0
    8.6759  -13.4931   27.2093 C   0  0  0  0  0  0  0  0  0  0  0  0
    9.5318  -12.5508   26.6534 C   0  0  0  0  0  0  0  0  0  0  0  0
    9.1342  -11.8620   25.5349 C   0  0  0  0  0  0  0  0  0  0  0  0
    7.9128  -12.0502   24.9148 C   0  0  0  0  0  0  0  0  0  0  0  0
    7.0824  -12.9938   25.4900 C   0  0  0  0  0  0  0  0  0  0  0  0
    7.4439  -13.7049   26.6106 C   0  0  0  0  0  0  0  0  0  0  0  0
   10.4309  -16.2618   29.1368 C   0  0  0  0  0  0  0  0  0  0  0  0
   10.2398  -17.6578   29.1803 O   0  0  0  0  0  0  0  0  0  0  0  0
   11.0896  -15.8179   30.1087 O   0  0  0  0  0  0  0  0  0  0  0  0
  1  2  1  0
  2 12  2  0
  3  4  2  0
  3  2  1  0
  4  5  1  0
  5  6  1  0
  5 11  2  0
  6  7  1  0
  7  9  1  0
  7  8  1  6
  9 13  1  0
 10  9  2  0
 12 11  1  0
 13 14  1  0
 14 17  1  0
 14 15  1  6
 15 16  1  0
 17 19  1  0
 18 17  2  0
 19 20  1  0
 20 28  1  0
 20 21  1  1
 22 21  1  0
 23 22  2  0
 24 23  1  0
 25 26  1  0
 25 24  2  0
 26 27  2  0
 27 22  1  0
 28 30  2  0
 28 29  1  0
M  END
$$$$
