YCF.pdb
     RDKit          3D

 30 31  0  0  1  0  0  0  0  0999 V2000
   -1.5322  -20.6067   21.3665 O   0  0  0  0  0  0  0  0  0  0  0  0
   -0.2233  -20.1316   21.5513 C   0  0  0  0  0  0  0  0  0  0  0  0
    0.6606  -20.0672   20.4938 C   0  0  0  0  0  0  0  0  0  0  0  0
    1.9620  -19.5892   20.7039 C   0  0  0  0  0  0  0  0  0  0  0  0
    2.3676  -19.1832   21.9544 C   0  0  0  0  0  0  0  0  0  0  0  0
    3.7498  -18.6881   22.1191 C   0  0  0  0  0  0  0  0  0  0  0  0
    4.4305  -18.8030   20.7822 C   0  0  2  0  0  0  0  0  0  0  0  0
    4.2422  -20.1390   20.2968 N   0  0  0  0  0  0  0  0  0  0  0  0
    5.8460  -18.3838   20.8127 C   0  0  0  0  0  0  0  0  0  0  0  0
    6.6006  -18.7119   19.8681 O   0  0  0  0  0  0  0  0  0  0  0  0
    1.4750  -19.2542   22.9949 C   0  0  0  0  0  0  0  0  0  0  0  0
    0.1726  -19.7280   22.8061 C   0  0  0  0  0  0  0  0  0  0  0  0
    6.4173  -17.6116   21.8757 N   0  0  0  0  0  0  0  0  0  0  0  0
    7.2979  -16.5081   21.7333 C   0  0  1  0  0  0  0  0  0  0  0  0
    6.9126  -15.4638   20.7377 C   0  0  0  0  0  0  0  0  0  0  0  0
    8.1012  -14.1588   20.4842 S   0  0  0  0  0  0  0  0  0  0  0  0
    7.7831  -15.9140   23.0150 C   0  0  0  0  0  0  0  0  0  0  0  0
    6.9227  -15.1785   23.5868 O   0  0  0  0  0  0  0  0  0  0  0  0
    9.0339  -16.0990   23.5861 N   0  0  0  0  0  0  0  0  0  0  0  0
    9.5236  -15.4464   24.7902 C   0  0  1  0  0  0  0  0  0  0  0  0
    8.5168  -15.4144   25.8718 C   0  0  0  0  0  0  0  0  0  0  0  0
    9.0638  -14.8843   27.1260 C   0  0  0  0  0  0  0  0  0  0  0  0
    9.6023  -15.7465   28.0726 C   0  0  0  0  0  0  0  0  0  0  0  0
   10.1349  -15.2270   29.2257 C   0  0  0  0  0  0  0  0  0  0  0  0
   10.1701  -13.8743   29.5102 C   0  0  0  0  0  0  0  0  0  0  0  0
    9.6272  -13.0409   28.5503 C   0  0  0  0  0  0  0  0  0  0  0  0
    9.0839  -13.5223   27.3819 C   0  0  0  0  0  0  0  0  0  0  0  0
   10.8970  -15.8439   25.1662 C   0  0  0  0  0  0  0  0  0  0  0  0
   11.2110  -17.1975   25.4039 O   0  0  0  0  0  0  0  0  0  0  0  0
   11.8763  -15.0719   25.3103 O   0  0  0  0  0  0  0  0  0  0  0  0
  1  2  1  0
  2 12  2  0
  3  4  2  0
  3  2  1  0
  4  5  1  0
  5  6  1  0
  5 11  2  0
  6  7  1  0
  7  9  1  0
  7  8  1  1
  9 13  1  0
 10  9  2  0
 12 11  1  0
 13 14  1  0
 14 17  1  0
 14 15  1  1
 15 16  1  0
 17 19  1  0
 18 17  2  0
 19 20  1  0
 20 28  1  0
 20 21  1  1
 22 21  1  0
 23 22  2  0
 24 23  1  0
 25 26  1  0
 25 24  2  0
 26 27  2  0
 27 22  1  0
 28 30  2  0
 28 29  1  0
M  END
$$$$
