YCF.pdb
     RDKit          3D

 30 31  0  0  1  0  0  0  0  0999 V2000
    9.8391  -13.4840   16.9530 O   0  0  0  0  0  0  0  0  0  0  0  0
    9.0400  -13.8741   18.0402 C   0  0  0  0  0  0  0  0  0  0  0  0
    9.4257  -14.9116   18.8640 C   0  0  0  0  0  0  0  0  0  0  0  0
    8.6104  -15.2822   19.9430 C   0  0  0  0  0  0  0  0  0  0  0  0
    7.4287  -14.6219   20.1896 C   0  0  0  0  0  0  0  0  0  0  0  0
    6.6086  -15.0538   21.3400 C   0  0  0  0  0  0  0  0  0  0  0  0
    6.6264  -16.5581   21.3650 C   0  0  2  0  0  0  0  0  0  0  0  0
    5.6772  -17.0335   20.4012 N   0  0  0  0  0  0  0  0  0  0  0  0
    6.4229  -17.1195   22.7154 C   0  0  0  0  0  0  0  0  0  0  0  0
    5.3260  -16.9387   23.2930 O   0  0  0  0  0  0  0  0  0  0  0  0
    7.0606  -13.5922   19.3598 C   0  0  0  0  0  0  0  0  0  0  0  0
    7.8598  -13.2072   18.2782 C   0  0  0  0  0  0  0  0  0  0  0  0
    7.4214  -17.8708   23.4161 N   0  0  0  0  0  0  0  0  0  0  0  0
    7.5368  -18.0068   24.8238 C   0  0  1  0  0  0  0  0  0  0  0  0
    7.3393  -19.3762   25.3860 C   0  0  0  0  0  0  0  0  0  0  0  0
    7.9715  -19.6364   27.0329 S   0  0  0  0  0  0  0  0  0  0  0  0
    8.7082  -17.3098   25.4347 C   0  0  0  0  0  0  0  0  0  0  0  0
    9.7972  -17.5222   24.8207 O   0  0  0  0  0  0  0  0  0  0  0  0
    8.6874  -16.4977   26.5595 N   0  0  0  0  0  0  0  0  0  0  0  0
    9.8177  -15.7522   27.0907 C   0  0  1  0  0  0  0  0  0  0  0  0
    9.6418  -14.2892   26.9745 C   0  0  0  0  0  0  0  0  0  0  0  0
    8.3549  -13.8385   27.5167 C   0  0  0  0  0  0  0  0  0  0  0  0
    8.2948  -13.2458   28.7715 C   0  0  0  0  0  0  0  0  0  0  0  0
    7.0853  -12.8051   29.2469 C   0  0  0  0  0  0  0  0  0  0  0  0
    5.9005  -12.9158   28.5428 C   0  0  0  0  0  0  0  0  0  0  0  0
    5.9909  -13.5095   27.2978 C   0  0  0  0  0  0  0  0  0  0  0  0
    7.1840  -13.9642   26.7858 C   0  0  0  0  0  0  0  0  0  0  0  0
   10.3142  -16.2656   28.3851 C   0  0  0  0  0  0  0  0  0  0  0  0
   11.4818  -15.7314   28.9670 O   0  0  0  0  0  0  0  0  0  0  0  0
    9.7889  -17.1782   29.0683 O   0  0  0  0  0  0  0  0  0  0  0  0
  1  2  1  0
  2 12  2  0
  3  4  2  0
  3  2  1  0
  4  5  1  0
  5  6  1  0
  5 11  2  0
  6  7  1  0
  7  9  1  0
  7  8  1  6
  9 13  1  0
 10  9  2  0
 12 11  1  0
 13 14  1  0
 14 17  1  0
 14 15  1  6
 15 16  1  0
 17 19  1  0
 18 17  2  0
 19 20  1  0
 20 28  1  0
 20 21  1  1
 22 21  1  0
 23 22  2  0
 24 23  1  0
 25 26  1  0
 25 24  2  0
 26 27  2  0
 27 22  1  0
 28 30  2  0
 28 29  1  0
M  END
$$$$
