YCF.pdb
     RDKit          3D

 30 31  0  0  1  0  0  0  0  0999 V2000
    9.8906  -11.5618   19.8470 O   0  0  0  0  0  0  0  0  0  0  0  0
    9.0318  -12.6691   19.9442 C   0  0  0  0  0  0  0  0  0  0  0  0
    9.4692  -13.8561   20.4951 C   0  0  0  0  0  0  0  0  0  0  0  0
    8.5925  -14.9471   20.5809 C   0  0  0  0  0  0  0  0  0  0  0  0
    7.2996  -14.8470   20.1212 C   0  0  0  0  0  0  0  0  0  0  0  0
    6.4189  -16.0275   20.2363 C   0  0  0  0  0  0  0  0  0  0  0  0
    7.1725  -17.2061   19.6823 C   0  0  2  0  0  0  0  0  0  0  0  0
    6.2618  -17.9948   18.9048 N   0  0  0  0  0  0  0  0  0  0  0  0
    7.8828  -17.9813   20.7190 C   0  0  0  0  0  0  0  0  0  0  0  0
    7.2441  -18.8127   21.4047 O   0  0  0  0  0  0  0  0  0  0  0  0
    6.8815  -13.6585   19.5761 C   0  0  0  0  0  0  0  0  0  0  0  0
    7.7404  -12.5585   19.4814 C   0  0  0  0  0  0  0  0  0  0  0  0
    9.2819  -17.8369   20.9918 N   0  0  0  0  0  0  0  0  0  0  0  0
   10.0000  -18.4545   22.0484 C   0  0  1  0  0  0  0  0  0  0  0  0
   11.1171  -19.3662   21.6599 C   0  0  0  0  0  0  0  0  0  0  0  0
   12.2181  -19.8479   22.9774 S   0  0  0  0  0  0  0  0  0  0  0  0
   10.3771  -17.5480   23.1740 C   0  0  0  0  0  0  0  0  0  0  0  0
   11.0247  -16.5236   22.8006 O   0  0  0  0  0  0  0  0  0  0  0  0
   10.0869  -17.7395   24.5172 N   0  0  0  0  0  0  0  0  0  0  0  0
   10.4624  -16.8482   25.6036 C   0  0  1  0  0  0  0  0  0  0  0  0
    9.2926  -16.2640   26.2928 C   0  0  0  0  0  0  0  0  0  0  0  0
    9.6817  -15.3748   27.3932 C   0  0  0  0  0  0  0  0  0  0  0  0
    9.6869  -13.9979   27.2101 C   0  0  0  0  0  0  0  0  0  0  0  0
   10.0258  -13.1835   28.2613 C   0  0  0  0  0  0  0  0  0  0  0  0
   10.3690  -13.6556   29.5147 C   0  0  0  0  0  0  0  0  0  0  0  0
   10.3551  -15.0294   29.6674 C   0  0  0  0  0  0  0  0  0  0  0  0
   10.0212  -15.8794   28.6387 C   0  0  0  0  0  0  0  0  0  0  0  0
   11.5478  -17.3751   26.4578 C   0  0  0  0  0  0  0  0  0  0  0  0
   12.7489  -16.6541   26.6155 O   0  0  0  0  0  0  0  0  0  0  0  0
   11.5269  -18.4554   27.0966 O   0  0  0  0  0  0  0  0  0  0  0  0
  1  2  1  0
  2 12  2  0
  3  4  2  0
  3  2  1  0
  4  5  1  0
  5  6  1  0
  5 11  2  0
  6  7  1  0
  7  9  1  0
  7  8  1  1
  9 13  1  0
 10  9  2  0
 12 11  1  0
 13 14  1  0
 14 17  1  0
 14 15  1  6
 15 16  1  0
 17 19  1  0
 18 17  2  0
 19 20  1  0
 20 28  1  0
 20 21  1  1
 22 21  1  0
 23 22  2  0
 24 23  1  0
 25 26  1  0
 25 24  2  0
 26 27  2  0
 27 22  1  0
 28 30  2  0
 28 29  1  0
M  END
$$$$
