YCF.pdb
     RDKit          3D

 30 31  0  0  1  0  0  0  0  0999 V2000
    7.8046  -11.8276   22.1848 O   0  0  0  0  0  0  0  0  0  0  0  0
    7.8610  -12.6239   21.0291 C   0  0  0  0  0  0  0  0  0  0  0  0
    6.9661  -13.6566   20.8384 C   0  0  0  0  0  0  0  0  0  0  0  0
    7.0432  -14.4373   19.6761 C   0  0  0  0  0  0  0  0  0  0  0  0
    8.0023  -14.1844   18.7226 C   0  0  0  0  0  0  0  0  0  0  0  0
    8.0380  -15.0380   17.5173 C   0  0  0  0  0  0  0  0  0  0  0  0
    8.8981  -16.2305   17.8365 C   0  0  2  0  0  0  0  0  0  0  0  0
    8.8845  -17.1090   16.7034 N   0  0  0  0  0  0  0  0  0  0  0  0
    8.5229  -16.8964   19.0999 C   0  0  0  0  0  0  0  0  0  0  0  0
    7.6478  -17.7927   19.0813 O   0  0  0  0  0  0  0  0  0  0  0  0
    8.8844  -13.1530   18.9288 C   0  0  0  0  0  0  0  0  0  0  0  0
    8.8243  -12.3627   20.0814 C   0  0  0  0  0  0  0  0  0  0  0  0
    9.1095  -16.5733   20.3664 N   0  0  0  0  0  0  0  0  0  0  0  0
    8.9304  -17.2844   21.5812 C   0  0  1  0  0  0  0  0  0  0  0  0
    8.9488  -18.7753   21.4972 C   0  0  0  0  0  0  0  0  0  0  0  0
   10.4578  -19.4983   20.8807 S   0  0  0  0  0  0  0  0  0  0  0  0
    9.7261  -16.7747   22.7380 C   0  0  0  0  0  0  0  0  0  0  0  0
   10.7113  -16.0543   22.3934 O   0  0  0  0  0  0  0  0  0  0  0  0
    9.4774  -17.0220   24.0804 N   0  0  0  0  0  0  0  0  0  0  0  0
    9.0839  -16.0301   25.0688 C   0  0  1  0  0  0  0  0  0  0  0  0
    8.1081  -15.0537   24.5404 C   0  0  0  0  0  0  0  0  0  0  0  0
    7.8385  -13.9671   25.4889 C   0  0  0  0  0  0  0  0  0  0  0  0
    8.8885  -13.2389   26.0336 C   0  0  0  0  0  0  0  0  0  0  0  0
    8.6122  -12.2079   26.8961 C   0  0  0  0  0  0  0  0  0  0  0  0
    7.3309  -11.8412   27.2642 C   0  0  0  0  0  0  0  0  0  0  0  0
    6.3066  -12.5833   26.7067 C   0  0  0  0  0  0  0  0  0  0  0  0
    6.5419  -13.6240   25.8384 C   0  0  0  0  0  0  0  0  0  0  0  0
    8.8048  -16.5988   26.4045 C   0  0  0  0  0  0  0  0  0  0  0  0
    7.6117  -17.3101   26.6449 O   0  0  0  0  0  0  0  0  0  0  0  0
    9.5482  -16.5166   27.4125 O   0  0  0  0  0  0  0  0  0  0  0  0
  1  2  1  0
  2 12  2  0
  3  4  2  0
  3  2  1  0
  4  5  1  0
  5  6  1  0
  5 11  2  0
  6  7  1  0
  7  9  1  0
  7  8  1  6
  9 13  1  0
 10  9  2  0
 12 11  1  0
 13 14  1  0
 14 17  1  0
 14 15  1  6
 15 16  1  0
 17 19  1  0
 18 17  2  0
 19 20  1  0
 20 28  1  0
 20 21  1  6
 22 21  1  0
 23 22  2  0
 24 23  1  0
 25 26  1  0
 25 24  2  0
 26 27  2  0
 27 22  1  0
 28 30  2  0
 28 29  1  0
M  END
$$$$
