AFA.pdb
     RDKit          3D

 22 22  0  0  1  0  0  0  0  0999 V2000
   10.1785  -17.4297   20.2070 C   0  0  0  0  0  0  0  0  0  0  0  0
   10.4373  -17.7589   21.6821 C   0  0  2  0  0  0  0  0  0  0  0  0
    9.6161  -18.8679   22.0312 N   0  0  0  0  0  0  0  0  0  0  0  0
   10.1245  -16.5267   22.4408 C   0  0  0  0  0  0  0  0  0  0  0  0
   10.8353  -15.5082   22.2440 O   0  0  0  0  0  0  0  0  0  0  0  0
    9.0723  -16.4265   23.3753 N   0  0  0  0  0  0  0  0  0  0  0  0
    8.7190  -15.2459   24.0993 C   0  0  1  0  0  0  0  0  0  0  0  0
    7.3222  -15.3216   24.6863 C   0  0  0  0  0  0  0  0  0  0  0  0
    6.9534  -14.0141   25.3134 C   0  0  0  0  0  0  0  0  0  0  0  0
    7.2476  -12.8234   24.6762 C   0  0  0  0  0  0  0  0  0  0  0  0
    6.9288  -11.6016   25.2126 C   0  0  0  0  0  0  0  0  0  0  0  0
    6.2895  -11.5173   26.4334 C   0  0  0  0  0  0  0  0  0  0  0  0
    5.9861  -12.7152   27.0891 C   0  0  0  0  0  0  0  0  0  0  0  0
    6.3146  -13.9349   26.5339 C   0  0  0  0  0  0  0  0  0  0  0  0
    9.6545  -15.0772   25.2408 C   0  0  0  0  0  0  0  0  0  0  0  0
   10.5714  -14.1937   25.1836 O   0  0  0  0  0  0  0  0  0  0  0  0
    9.7476  -14.4057   28.2923 C   0  0  0  0  0  0  0  0  0  0  0  0
   10.3267  -15.6516   27.6104 C   0  0  2  0  0  0  0  0  0  0  0  0
    9.5497  -15.8890   26.4114 N   0  0  0  0  0  0  0  0  0  0  0  0
   10.2043  -16.8277   28.5086 C   0  0  0  0  0  0  0  0  0  0  0  0
   10.9127  -16.9107   29.6992 O   0  0  0  0  0  0  0  0  0  0  0  0
    9.4575  -17.7751   28.2132 O   0  0  0  0  0  0  0  0  0  0  0  0
  2  1  1  6
  2  3  1  0
  4  6  1  0
  4  2  1  0
  5  4  2  0
  7  6  1  0
  7 15  1  0
  7  8  1  1
  9  8  1  0
  9 14  2  0
 10  9  1  0
 11 10  2  0
 11 12  1  0
 12 13  2  0
 13 14  1  0
 15 19  1  0
 16 15  2  0
 18 17  1  1
 18 20  1  0
 19 18  1  0
 20 21  1  0
 22 20  2  0
M  END
$$$$
