AFA.pdb
     RDKit          3D

 22 22  0  0  1  0  0  0  0  0999 V2000
   10.4872  -18.8244   21.1633 C   0  0  0  0  0  0  0  0  0  0  0  0
    9.3774  -17.8106   20.8602 C   0  0  2  0  0  0  0  0  0  0  0  0
    9.6054  -17.2934   19.5538 N   0  0  0  0  0  0  0  0  0  0  0  0
    9.4526  -16.7857   21.9258 C   0  0  0  0  0  0  0  0  0  0  0  0
   10.5335  -16.1615   22.0782 O   0  0  0  0  0  0  0  0  0  0  0  0
    8.3795  -16.4662   22.7842 N   0  0  0  0  0  0  0  0  0  0  0  0
    8.4074  -15.4676   23.8064 C   0  0  1  0  0  0  0  0  0  0  0  0
    7.0264  -14.9287   24.1288 C   0  0  0  0  0  0  0  0  0  0  0  0
    7.1091  -13.9213   25.2319 C   0  0  0  0  0  0  0  0  0  0  0  0
    7.3996  -12.5990   24.9533 C   0  0  0  0  0  0  0  0  0  0  0  0
    7.4856  -11.6410   25.9315 C   0  0  0  0  0  0  0  0  0  0  0  0
    7.2807  -11.9714   27.2563 C   0  0  0  0  0  0  0  0  0  0  0  0
    6.9859  -13.3066   27.5520 C   0  0  0  0  0  0  0  0  0  0  0  0
    6.9035  -14.2564   26.5546 C   0  0  0  0  0  0  0  0  0  0  0  0
    8.9357  -16.0677   25.0583 C   0  0  0  0  0  0  0  0  0  0  0  0
    8.3786  -17.1040   25.5487 O   0  0  0  0  0  0  0  0  0  0  0  0
   12.2556  -15.9568   26.6078 C   0  0  0  0  0  0  0  0  0  0  0  0
   10.7517  -16.1761   26.8152 C   0  0  2  0  0  0  0  0  0  0  0  0
   10.0633  -15.5059   25.7315 N   0  0  0  0  0  0  0  0  0  0  0  0
   10.3226  -15.5790   28.1053 C   0  0  0  0  0  0  0  0  0  0  0  0
   10.7313  -16.1059   29.3225 O   0  0  0  0  0  0  0  0  0  0  0  0
    9.5801  -14.5836   28.1265 O   0  0  0  0  0  0  0  0  0  0  0  0
  2  1  1  1
  2  3  1  0
  4  6  1  0
  4  2  1  0
  5  4  2  0
  7  6  1  0
  7 15  1  0
  7  8  1  1
  9  8  1  0
  9 14  2  0
 10  9  1  0
 11 10  2  0
 11 12  1  0
 12 13  2  0
 13 14  1  0
 15 19  1  0
 16 15  2  0
 18 17  1  6
 18 20  1  0
 19 18  1  0
 20 21  1  0
 22 20  2  0
M  END
$$$$
