AFA.pdb
     RDKit          3D

 22 22  0  0  1  0  0  0  0  0999 V2000
    9.7530  -18.7938   20.9740 C   0  0  0  0  0  0  0  0  0  0  0  0
    9.4724  -17.4007   20.3981 C   0  0  2  0  0  0  0  0  0  0  0  0
   10.4467  -17.1407   19.3934 N   0  0  0  0  0  0  0  0  0  0  0  0
    9.5334  -16.4618   21.5411 C   0  0  0  0  0  0  0  0  0  0  0  0
   10.6627  -16.0726   21.9341 O   0  0  0  0  0  0  0  0  0  0  0  0
    8.3954  -15.9755   22.2186 N   0  0  0  0  0  0  0  0  0  0  0  0
    8.4174  -15.1253   23.3673 C   0  0  1  0  0  0  0  0  0  0  0  0
    7.1060  -14.3901   23.5701 C   0  0  0  0  0  0  0  0  0  0  0  0
    7.1373  -13.6215   24.8535 C   0  0  0  0  0  0  0  0  0  0  0  0
    7.9457  -12.5081   24.9841 C   0  0  0  0  0  0  0  0  0  0  0  0
    8.0069  -11.7729   26.1408 C   0  0  0  0  0  0  0  0  0  0  0  0
    7.2469  -12.1272   27.2377 C   0  0  0  0  0  0  0  0  0  0  0  0
    6.4242  -13.2524   27.1187 C   0  0  0  0  0  0  0  0  0  0  0  0
    6.3759  -13.9796   25.9471 C   0  0  0  0  0  0  0  0  0  0  0  0
    8.6362  -15.9532   24.5811 C   0  0  0  0  0  0  0  0  0  0  0  0
    7.8069  -16.8746   24.8777 O   0  0  0  0  0  0  0  0  0  0  0  0
   11.5598  -17.1015   26.2656 C   0  0  0  0  0  0  0  0  0  0  0  0
   10.1199  -16.6343   26.5126 C   0  0  2  0  0  0  0  0  0  0  0  0
    9.7639  -15.7392   25.4311 N   0  0  0  0  0  0  0  0  0  0  0  0
   10.0367  -15.8976   27.7993 C   0  0  0  0  0  0  0  0  0  0  0  0
   10.1291  -16.5522   29.0197 O   0  0  0  0  0  0  0  0  0  0  0  0
    9.8808  -14.6656   27.8147 O   0  0  0  0  0  0  0  0  0  0  0  0
  2  1  1  1
  2  3  1  0
  4  6  1  0
  4  2  1  0
  5  4  2  0
  7  6  1  0
  7 15  1  0
  7  8  1  1
  9  8  1  0
  9 14  2  0
 10  9  1  0
 11 10  2  0
 11 12  1  0
 12 13  2  0
 13 14  1  0
 15 19  1  0
 16 15  2  0
 18 17  1  6
 18 20  1  0
 19 18  1  0
 20 21  1  0
 22 20  2  0
M  END
$$$$
