AFA.pdb
     RDKit          3D

 22 22  0  0  1  0  0  0  0  0999 V2000
    9.6444  -19.7996   22.3589 C   0  0  0  0  0  0  0  0  0  0  0  0
    8.5904  -18.8140   21.8403 C   0  0  2  0  0  0  0  0  0  0  0  0
    8.8019  -18.6459   20.4428 N   0  0  0  0  0  0  0  0  0  0  0  0
    8.7696  -17.5694   22.6217 C   0  0  0  0  0  0  0  0  0  0  0  0
    9.7433  -16.8244   22.3422 O   0  0  0  0  0  0  0  0  0  0  0  0
    7.9096  -17.1676   23.6655 N   0  0  0  0  0  0  0  0  0  0  0  0
    8.0716  -15.9937   24.4646 C   0  0  1  0  0  0  0  0  0  0  0  0
    6.7474  -15.4365   24.9519 C   0  0  0  0  0  0  0  0  0  0  0  0
    6.9691  -14.1672   25.7125 C   0  0  0  0  0  0  0  0  0  0  0  0
    7.0189  -12.9540   25.0523 C   0  0  0  0  0  0  0  0  0  0  0  0
    7.2198  -11.7655   25.7075 C   0  0  0  0  0  0  0  0  0  0  0  0
    7.3826  -11.7397   27.0784 C   0  0  0  0  0  0  0  0  0  0  0  0
    7.3343  -12.9610   27.7589 C   0  0  0  0  0  0  0  0  0  0  0  0
    7.1313  -14.1465   27.0827 C   0  0  0  0  0  0  0  0  0  0  0  0
    8.8638  -16.3341   25.6741 C   0  0  0  0  0  0  0  0  0  0  0  0
    8.4992  -17.3022   26.4188 O   0  0  0  0  0  0  0  0  0  0  0  0
   12.2904  -15.2893   26.7977 C   0  0  0  0  0  0  0  0  0  0  0  0
   10.9715  -16.0342   27.0394 C   0  0  2  0  0  0  0  0  0  0  0  0
   10.0349  -15.5957   26.0254 N   0  0  0  0  0  0  0  0  0  0  0  0
   10.4310  -15.6919   28.3795 C   0  0  0  0  0  0  0  0  0  0  0  0
   11.0193  -16.1657   29.5439 O   0  0  0  0  0  0  0  0  0  0  0  0
    9.4294  -14.9662   28.4919 O   0  0  0  0  0  0  0  0  0  0  0  0
  2  1  1  1
  2  3  1  0
  4  6  1  0
  4  2  1  0
  5  4  2  0
  7  6  1  0
  7 15  1  0
  7  8  1  1
  9  8  1  0
  9 14  2  0
 10  9  1  0
 11 10  2  0
 11 12  1  0
 12 13  2  0
 13 14  1  0
 15 19  1  0
 16 15  2  0
 18 17  1  6
 18 20  1  0
 19 18  1  0
 20 21  1  0
 22 20  2  0
M  END
$$$$
