AFA.pdb
     RDKit          3D

 22 22  0  0  1  0  0  0  0  0999 V2000
    9.6508  -17.3414   19.5087 C   0  0  0  0  0  0  0  0  0  0  0  0
    9.5590  -18.0386   20.8713 C   0  0  2  0  0  0  0  0  0  0  0  0
    8.3419  -18.7761   20.9017 N   0  0  0  0  0  0  0  0  0  0  0  0
    9.6285  -16.9658   21.8891 C   0  0  0  0  0  0  0  0  0  0  0  0
   10.7066  -16.3307   22.0141 O   0  0  0  0  0  0  0  0  0  0  0  0
    8.5529  -16.6120   22.7308 N   0  0  0  0  0  0  0  0  0  0  0  0
    8.5690  -15.5553   23.6931 C   0  0  1  0  0  0  0  0  0  0  0  0
    7.4090  -14.5935   23.5179 C   0  0  0  0  0  0  0  0  0  0  0  0
    7.4741  -13.9449   22.1711 C   0  0  0  0  0  0  0  0  0  0  0  0
    8.2176  -12.7952   21.9820 C   0  0  0  0  0  0  0  0  0  0  0  0
    8.3066  -12.1662   20.7660 C   0  0  0  0  0  0  0  0  0  0  0  0
    7.6424  -12.6705   19.6656 C   0  0  0  0  0  0  0  0  0  0  0  0
    6.8862  -13.8340   19.8434 C   0  0  0  0  0  0  0  0  0  0  0  0
    6.8085  -14.4528   21.0742 C   0  0  0  0  0  0  0  0  0  0  0  0
    8.4421  -16.1354   25.0547 C   0  0  0  0  0  0  0  0  0  0  0  0
    8.3018  -15.3657   26.0610 O   0  0  0  0  0  0  0  0  0  0  0  0
    7.3089  -19.3366   26.3695 C   0  0  0  0  0  0  0  0  0  0  0  0
    8.2727  -18.1590   26.5622 C   0  0  2  0  0  0  0  0  0  0  0  0
    8.4738  -17.5479   25.2647 N   0  0  0  0  0  0  0  0  0  0  0  0
    9.5776  -18.6470   27.0760 C   0  0  0  0  0  0  0  0  0  0  0  0
    9.7127  -19.1412   28.3660 O   0  0  0  0  0  0  0  0  0  0  0  0
   10.5898  -18.6247   26.3568 O   0  0  0  0  0  0  0  0  0  0  0  0
  2  1  1  6
  2  3  1  0
  4  6  1  0
  4  2  1  0
  5  4  2  0
  7  6  1  0
  7 15  1  0
  7  8  1  6
  9  8  1  0
  9 14  2  0
 10  9  1  0
 11 10  2  0
 11 12  1  0
 12 13  2  0
 13 14  1  0
 15 19  1  0
 16 15  2  0
 18 17  1  6
 18 20  1  0
 19 18  1  0
 20 21  1  0
 22 20  2  0
M  END
$$$$
