AFA.pdb
     RDKit          3D

 22 22  0  0  1  0  0  0  0  0999 V2000
    9.9672  -19.3618   21.9916 C   0  0  0  0  0  0  0  0  0  0  0  0
    9.5004  -18.1076   21.2431 C   0  0  2  0  0  0  0  0  0  0  0  0
   10.3709  -17.9137   20.1337 N   0  0  0  0  0  0  0  0  0  0  0  0
    9.5376  -17.0021   22.2271 C   0  0  0  0  0  0  0  0  0  0  0  0
   10.6161  -16.3731   22.3774 O   0  0  0  0  0  0  0  0  0  0  0  0
    8.4308  -16.6105   23.0094 N   0  0  0  0  0  0  0  0  0  0  0  0
    8.4183  -15.5254   23.9396 C   0  0  1  0  0  0  0  0  0  0  0  0
    7.0324  -14.9372   24.1261 C   0  0  0  0  0  0  0  0  0  0  0  0
    7.0651  -13.8537   25.1574 C   0  0  0  0  0  0  0  0  0  0  0  0
    7.6023  -12.6161   24.8570 C   0  0  0  0  0  0  0  0  0  0  0  0
    7.6537  -11.5933   25.7698 C   0  0  0  0  0  0  0  0  0  0  0  0
    7.1600  -11.7683   27.0473 C   0  0  0  0  0  0  0  0  0  0  0  0
    6.6134  -13.0165   27.3644 C   0  0  0  0  0  0  0  0  0  0  0  0
    6.5705  -14.0334   26.4329 C   0  0  0  0  0  0  0  0  0  0  0  0
    8.8558  -16.0203   25.2701 C   0  0  0  0  0  0  0  0  0  0  0  0
    8.2671  -17.0191   25.7998 O   0  0  0  0  0  0  0  0  0  0  0  0
   12.0619  -15.9081   26.9622 C   0  0  0  0  0  0  0  0  0  0  0  0
   10.5417  -15.9759   27.1548 C   0  0  2  0  0  0  0  0  0  0  0  0
    9.9301  -15.3978   25.9761 N   0  0  0  0  0  0  0  0  0  0  0  0
   10.1430  -15.1841   28.3461 C   0  0  0  0  0  0  0  0  0  0  0  0
   10.4608  -15.5957   29.6329 O   0  0  0  0  0  0  0  0  0  0  0  0
    9.5091  -14.1238   28.2185 O   0  0  0  0  0  0  0  0  0  0  0  0
  2  1  1  1
  2  3  1  0
  4  6  1  0
  4  2  1  0
  5  4  2  0
  7  6  1  0
  7 15  1  0
  7  8  1  1
  9  8  1  0
  9 14  2  0
 10  9  1  0
 11 10  2  0
 11 12  1  0
 12 13  2  0
 13 14  1  0
 15 19  1  0
 16 15  2  0
 18 17  1  6
 18 20  1  0
 19 18  1  0
 20 21  1  0
 22 20  2  0
M  END
$$$$
