AFA.pdb
     RDKit          3D

 22 22  0  0  1  0  0  0  0  0999 V2000
    7.6349  -12.9262   20.4868 C   0  0  0  0  0  0  0  0  0  0  0  0
    7.7403  -14.4367   20.7292 C   0  0  2  0  0  0  0  0  0  0  0  0
    6.4211  -14.9713   20.7251 N   0  0  0  0  0  0  0  0  0  0  0  0
    8.4426  -14.5989   22.0224 C   0  0  0  0  0  0  0  0  0  0  0  0
    9.6561  -14.2758   22.0870 O   0  0  0  0  0  0  0  0  0  0  0  0
    7.8290  -15.0965   23.1913 N   0  0  0  0  0  0  0  0  0  0  0  0
    8.4437  -15.1727   24.4794 C   0  0  1  0  0  0  0  0  0  0  0  0
    7.4377  -15.0635   25.6096 C   0  0  0  0  0  0  0  0  0  0  0  0
    7.2103  -13.6273   25.9624 C   0  0  0  0  0  0  0  0  0  0  0  0
    5.9452  -13.0768   25.8785 C   0  0  0  0  0  0  0  0  0  0  0  0
    5.6893  -11.7658   26.1915 C   0  0  0  0  0  0  0  0  0  0  0  0
    6.7081  -10.9333   26.6102 C   0  0  0  0  0  0  0  0  0  0  0  0
    7.9935  -11.4781   26.6995 C   0  0  0  0  0  0  0  0  0  0  0  0
    8.2317  -12.7992   26.3803 C   0  0  0  0  0  0  0  0  0  0  0  0
    9.1082  -16.4933   24.6239 C   0  0  0  0  0  0  0  0  0  0  0  0
    8.4399  -17.5627   24.4384 O   0  0  0  0  0  0  0  0  0  0  0  0
   12.6720  -17.5098   24.5443 C   0  0  0  0  0  0  0  0  0  0  0  0
   11.2257  -17.8413   24.9330 C   0  0  2  0  0  0  0  0  0  0  0  0
   10.4906  -16.5939   24.9689 N   0  0  0  0  0  0  0  0  0  0  0  0
   11.1899  -18.4643   26.2804 C   0  0  0  0  0  0  0  0  0  0  0  0
   11.6836  -19.7420   26.5045 O   0  0  0  0  0  0  0  0  0  0  0  0
   10.7127  -17.8511   27.2492 O   0  0  0  0  0  0  0  0  0  0  0  0
  2  1  1  1
  2  3  1  0
  4  6  1  0
  4  2  1  0
  5  4  2  0
  7  6  1  0
  7 15  1  0
  7  8  1  1
  9  8  1  0
  9 14  2  0
 10  9  1  0
 11 10  2  0
 11 12  1  0
 12 13  2  0
 13 14  1  0
 15 19  1  0
 16 15  2  0
 18 17  1  1
 18 20  1  0
 19 18  1  0
 20 21  1  0
 22 20  2  0
M  END
$$$$
