AFA.pdb
     RDKit          3D

 22 22  0  0  1  0  0  0  0  0999 V2000
    8.8117  -18.4832   20.3190 C   0  0  0  0  0  0  0  0  0  0  0  0
    8.8554  -17.0050   19.9138 C   0  0  2  0  0  0  0  0  0  0  0  0
    9.9228  -16.8391   18.9868 N   0  0  0  0  0  0  0  0  0  0  0  0
    9.0338  -16.2386   21.1678 C   0  0  0  0  0  0  0  0  0  0  0  0
   10.1865  -16.1687   21.6656 O   0  0  0  0  0  0  0  0  0  0  0  0
    7.9835  -15.5791   21.8405 N   0  0  0  0  0  0  0  0  0  0  0  0
    8.1112  -14.8602   23.0692 C   0  0  1  0  0  0  0  0  0  0  0  0
    6.8732  -14.0470   23.3967 C   0  0  0  0  0  0  0  0  0  0  0  0
    7.0388  -13.3620   24.7167 C   0  0  0  0  0  0  0  0  0  0  0  0
    7.9021  -12.2905   24.8469 C   0  0  0  0  0  0  0  0  0  0  0  0
    8.0861  -11.6321   26.0363 C   0  0  0  0  0  0  0  0  0  0  0  0
    7.4007  -12.0253   27.1685 C   0  0  0  0  0  0  0  0  0  0  0  0
    6.5235  -13.1087   27.0504 C   0  0  0  0  0  0  0  0  0  0  0  0
    6.3515  -13.7587   25.8455 C   0  0  0  0  0  0  0  0  0  0  0  0
    8.2948  -15.8272   24.1817 C   0  0  0  0  0  0  0  0  0  0  0  0
    7.3853  -16.6840   24.4333 O   0  0  0  0  0  0  0  0  0  0  0  0
   11.2147  -17.3783   25.5560 C   0  0  0  0  0  0  0  0  0  0  0  0
    9.8090  -16.8792   25.9129 C   0  0  2  0  0  0  0  0  0  0  0  0
    9.4771  -15.8195   24.9833 N   0  0  0  0  0  0  0  0  0  0  0  0
    9.7970  -16.3342   27.2942 C   0  0  0  0  0  0  0  0  0  0  0  0
    9.8920  -17.1623   28.4039 O   0  0  0  0  0  0  0  0  0  0  0  0
    9.7006  -15.1119   27.4918 O   0  0  0  0  0  0  0  0  0  0  0  0
  2  1  1  1
  2  3  1  0
  4  6  1  0
  4  2  1  0
  5  4  2  0
  7  6  1  0
  7 15  1  0
  7  8  1  1
  9  8  1  0
  9 14  2  0
 10  9  1  0
 11 10  2  0
 11 12  1  0
 12 13  2  0
 13 14  1  0
 15 19  1  0
 16 15  2  0
 18 17  1  6
 18 20  1  0
 19 18  1  0
 20 21  1  0
 22 20  2  0
M  END
$$$$
