AFA.pdb
     RDKit          3D

 22 22  0  0  1  0  0  0  0  0999 V2000
    9.2097  -18.3272   20.3798 C   0  0  0  0  0  0  0  0  0  0  0  0
    9.3754  -16.8459   20.0198 C   0  0  2  0  0  0  0  0  0  0  0  0
   10.5551  -16.7183   19.2337 N   0  0  0  0  0  0  0  0  0  0  0  0
    9.4362  -16.1132   21.3048 C   0  0  0  0  0  0  0  0  0  0  0  0
   10.5547  -15.9817   21.8642 O   0  0  0  0  0  0  0  0  0  0  0  0
    8.3097  -15.5515   21.9418 N   0  0  0  0  0  0  0  0  0  0  0  0
    8.3287  -14.8469   23.1852 C   0  0  1  0  0  0  0  0  0  0  0  0
    7.0866  -14.0005   23.3913 C   0  0  0  0  0  0  0  0  0  0  0  0
    7.1274  -13.3409   24.7337 C   0  0  0  0  0  0  0  0  0  0  0  0
    6.2840  -13.7589   25.7458 C   0  0  0  0  0  0  0  0  0  0  0  0
    6.2860  -13.1844   26.9917 C   0  0  0  0  0  0  0  0  0  0  0  0
    7.1487  -12.1468   27.2838 C   0  0  0  0  0  0  0  0  0  0  0  0
    8.0078  -11.7141   26.2680 C   0  0  0  0  0  0  0  0  0  0  0  0
    7.9915  -12.3042   25.0209 C   0  0  0  0  0  0  0  0  0  0  0  0
    8.3678  -15.8281   24.2998 C   0  0  0  0  0  0  0  0  0  0  0  0
    7.4570  -16.7146   24.3960 O   0  0  0  0  0  0  0  0  0  0  0  0
   10.9292  -17.5923   25.7900 C   0  0  0  0  0  0  0  0  0  0  0  0
    9.6410  -16.8773   26.2166 C   0  0  2  0  0  0  0  0  0  0  0  0
    9.4112  -15.8013   25.2748 N   0  0  0  0  0  0  0  0  0  0  0  0
    9.8024  -16.3048   27.5772 C   0  0  0  0  0  0  0  0  0  0  0  0
    9.8355  -17.1110   28.7066 O   0  0  0  0  0  0  0  0  0  0  0  0
    9.9128  -15.0784   27.7392 O   0  0  0  0  0  0  0  0  0  0  0  0
  2  1  1  1
  2  3  1  0
  4  6  1  0
  4  2  1  0
  5  4  2  0
  7  6  1  0
  7 15  1  0
  7  8  1  1
  9  8  1  0
  9 14  2  0
 10  9  1  0
 11 10  2  0
 11 12  1  0
 12 13  2  0
 13 14  1  0
 15 19  1  0
 16 15  2  0
 18 17  1  6
 18 20  1  0
 19 18  1  0
 20 21  1  0
 22 20  2  0
M  END
$$$$
