AFA.pdb
     RDKit          3D

 22 22  0  0  1  0  0  0  0  0999 V2000
    7.0724  -15.2536   19.8321 C   0  0  0  0  0  0  0  0  0  0  0  0
    7.3122  -13.9304   20.5689 C   0  0  2  0  0  0  0  0  0  0  0  0
    8.0395  -13.0722   19.6968 N   0  0  0  0  0  0  0  0  0  0  0  0
    8.0442  -14.2753   21.8087 C   0  0  0  0  0  0  0  0  0  0  0  0
    9.2990  -14.1938   21.8030 O   0  0  0  0  0  0  0  0  0  0  0  0
    7.4154  -14.6918   23.0010 N   0  0  0  0  0  0  0  0  0  0  0  0
    8.0713  -14.8936   24.2548 C   0  0  1  0  0  0  0  0  0  0  0  0
    7.0998  -14.9231   25.4195 C   0  0  0  0  0  0  0  0  0  0  0  0
    6.8447  -13.5346   25.9153 C   0  0  0  0  0  0  0  0  0  0  0  0
    7.8991  -12.6961   26.2244 C   0  0  0  0  0  0  0  0  0  0  0  0
    7.7135  -11.4160   26.6818 C   0  0  0  0  0  0  0  0  0  0  0  0
    6.4402  -10.9104   26.8529 C   0  0  0  0  0  0  0  0  0  0  0  0
    5.3640  -11.7490   26.5436 C   0  0  0  0  0  0  0  0  0  0  0  0
    5.5702  -13.0337   26.0847 C   0  0  0  0  0  0  0  0  0  0  0  0
    8.7590  -16.2101   24.2375 C   0  0  0  0  0  0  0  0  0  0  0  0
    8.0867  -17.2738   24.0346 O   0  0  0  0  0  0  0  0  0  0  0  0
   12.2332  -17.3524   23.7860 C   0  0  0  0  0  0  0  0  0  0  0  0
   10.8749  -17.5773   24.4620 C   0  0  2  0  0  0  0  0  0  0  0  0
   10.1685  -16.3131   24.4449 N   0  0  0  0  0  0  0  0  0  0  0  0
   11.0711  -18.0043   25.8707 C   0  0  0  0  0  0  0  0  0  0  0  0
   10.5881  -17.2525   26.9327 O   0  0  0  0  0  0  0  0  0  0  0  0
   11.6781  -19.0549   26.1353 O   0  0  0  0  0  0  0  0  0  0  0  0
  2  1  1  6
  2  3  1  0
  4  6  1  0
  4  2  1  0
  5  4  2  0
  7  6  1  0
  7 15  1  0
  7  8  1  1
  9  8  1  0
  9 14  2  0
 10  9  1  0
 11 10  2  0
 11 12  1  0
 12 13  2  0
 13 14  1  0
 15 19  1  0
 16 15  2  0
 18 17  1  1
 18 20  1  0
 19 18  1  0
 20 21  1  0
 22 20  2  0
M  END
$$$$
