AFA.pdb
     RDKit          3D

 22 22  0  0  1  0  0  0  0  0999 V2000
    8.2940  -18.2169   20.0460 C   0  0  0  0  0  0  0  0  0  0  0  0
    8.7250  -16.7636   19.8152 C   0  0  2  0  0  0  0  0  0  0  0  0
    9.9273  -16.7819   19.0534 N   0  0  0  0  0  0  0  0  0  0  0  0
    8.8826  -16.1617   21.1585 C   0  0  0  0  0  0  0  0  0  0  0  0
    9.9611  -16.3541   21.7758 O   0  0  0  0  0  0  0  0  0  0  0  0
    7.8909  -15.3818   21.7901 N   0  0  0  0  0  0  0  0  0  0  0  0
    8.0266  -14.7430   23.0615 C   0  0  1  0  0  0  0  0  0  0  0  0
    6.8766  -13.8006   23.3629 C   0  0  0  0  0  0  0  0  0  0  0  0
    7.0141  -13.2425   24.7443 C   0  0  0  0  0  0  0  0  0  0  0  0
    6.1123  -13.5886   25.7330 C   0  0  0  0  0  0  0  0  0  0  0  0
    6.1986  -13.1021   27.0128 C   0  0  0  0  0  0  0  0  0  0  0  0
    7.2107  -12.2315   27.3651 C   0  0  0  0  0  0  0  0  0  0  0  0
    8.1302  -11.8730   26.3736 C   0  0  0  0  0  0  0  0  0  0  0  0
    8.0273  -12.3726   25.0916 C   0  0  0  0  0  0  0  0  0  0  0  0
    8.0236  -15.7769   24.1281 C   0  0  0  0  0  0  0  0  0  0  0  0
    7.0118  -16.5393   24.2689 O   0  0  0  0  0  0  0  0  0  0  0  0
   10.1325  -18.1000   25.3456 C   0  0  0  0  0  0  0  0  0  0  0  0
    9.2381  -17.0193   25.9660 C   0  0  2  0  0  0  0  0  0  0  0  0
    9.1375  -15.9383   25.0074 N   0  0  0  0  0  0  0  0  0  0  0  0
    9.8531  -16.5040   27.2155 C   0  0  0  0  0  0  0  0  0  0  0  0
    9.9059  -17.2717   28.3706 O   0  0  0  0  0  0  0  0  0  0  0  0
   10.3400  -15.3623   27.2576 O   0  0  0  0  0  0  0  0  0  0  0  0
  2  1  1  1
  2  3  1  0
  4  6  1  0
  4  2  1  0
  5  4  2  0
  7  6  1  0
  7 15  1  0
  7  8  1  1
  9  8  1  0
  9 14  2  0
 10  9  1  0
 11 10  2  0
 11 12  1  0
 12 13  2  0
 13 14  1  0
 15 19  1  0
 16 15  2  0
 18 17  1  6
 18 20  1  0
 19 18  1  0
 20 21  1  0
 22 20  2  0
M  END
$$$$
