AFA.pdb
     RDKit          3D

 22 22  0  0  1  0  0  0  0  0999 V2000
    9.0748  -18.6862   20.2172 C   0  0  0  0  0  0  0  0  0  0  0  0
    9.1528  -17.2014   19.8425 C   0  0  2  0  0  0  0  0  0  0  0  0
   10.2785  -17.0264   18.9891 N   0  0  0  0  0  0  0  0  0  0  0  0
    9.2546  -16.4586   21.1191 C   0  0  0  0  0  0  0  0  0  0  0  0
   10.3946  -16.2905   21.6224 O   0  0  0  0  0  0  0  0  0  0  0  0
    8.1443  -15.9258   21.8075 N   0  0  0  0  0  0  0  0  0  0  0  0
    8.2082  -15.1617   23.0138 C   0  0  1  0  0  0  0  0  0  0  0  0
    6.9089  -14.4371   23.3109 C   0  0  0  0  0  0  0  0  0  0  0  0
    7.0203  -13.6830   24.5983 C   0  0  0  0  0  0  0  0  0  0  0  0
    6.3770  -14.1369   25.7344 C   0  0  0  0  0  0  0  0  0  0  0  0
    6.4505  -13.4790   26.9360 C   0  0  0  0  0  0  0  0  0  0  0  0
    7.1853  -12.3161   27.0548 C   0  0  0  0  0  0  0  0  0  0  0  0
    7.8414  -11.8458   25.9122 C   0  0  0  0  0  0  0  0  0  0  0  0
    7.7559  -12.5211   24.7121 C   0  0  0  0  0  0  0  0  0  0  0  0
    8.4589  -16.0769   24.1566 C   0  0  0  0  0  0  0  0  0  0  0  0
    7.6066  -16.9800   24.4441 O   0  0  0  0  0  0  0  0  0  0  0  0
   11.5043  -17.3476   25.5876 C   0  0  0  0  0  0  0  0  0  0  0  0
   10.0503  -16.9760   25.9046 C   0  0  2  0  0  0  0  0  0  0  0  0
    9.6430  -15.9678   24.9478 N   0  0  0  0  0  0  0  0  0  0  0  0
    9.9556  -16.4110   27.2746 C   0  0  0  0  0  0  0  0  0  0  0  0
    9.5758  -15.0941   27.4937 O   0  0  0  0  0  0  0  0  0  0  0  0
   10.2165  -17.1100   28.2673 O   0  0  0  0  0  0  0  0  0  0  0  0
  2  1  1  1
  2  3  1  0
  4  6  1  0
  4  2  1  0
  5  4  2  0
  7  6  1  0
  7 15  1  0
  7  8  1  1
  9  8  1  0
  9 14  2  0
 10  9  1  0
 11 10  2  0
 11 12  1  0
 12 13  2  0
 13 14  1  0
 15 19  1  0
 16 15  2  0
 18 17  1  6
 18 20  1  0
 19 18  1  0
 20 21  1  0
 22 20  2  0
M  END
$$$$
