AFA.pdb
     RDKit          3D

 22 22  0  0  1  0  0  0  0  0999 V2000
    6.8054  -20.6098   22.8836 C   0  0  0  0  0  0  0  0  0  0  0  0
    5.8919  -19.4239   22.5511 C   0  0  2  0  0  0  0  0  0  0  0  0
    5.6438  -19.4452   21.1496 N   0  0  0  0  0  0  0  0  0  0  0  0
    6.6071  -18.2112   23.0089 C   0  0  0  0  0  0  0  0  0  0  0  0
    7.4566  -17.6934   22.2397 O   0  0  0  0  0  0  0  0  0  0  0  0
    6.3917  -17.5993   24.2617 N   0  0  0  0  0  0  0  0  0  0  0  0
    7.0131  -16.3929   24.7105 C   0  0  1  0  0  0  0  0  0  0  0  0
    6.2514  -15.7356   25.8458 C   0  0  0  0  0  0  0  0  0  0  0  0
    6.8123  -14.3773   26.1266 C   0  0  0  0  0  0  0  0  0  0  0  0
    6.3994  -13.2826   25.3908 C   0  0  0  0  0  0  0  0  0  0  0  0
    6.8857  -12.0190   25.6125 C   0  0  0  0  0  0  0  0  0  0  0  0
    7.8243  -11.7923   26.5993 C   0  0  0  0  0  0  0  0  0  0  0  0
    8.2509  -12.8920   27.3516 C   0  0  0  0  0  0  0  0  0  0  0  0
    7.7504  -14.1557   27.1140 C   0  0  0  0  0  0  0  0  0  0  0  0
    8.3684  -16.7082   25.2303 C   0  0  0  0  0  0  0  0  0  0  0  0
    8.5117  -17.6068   26.1229 O   0  0  0  0  0  0  0  0  0  0  0  0
   11.7701  -15.7951   23.9209 C   0  0  0  0  0  0  0  0  0  0  0  0
   10.8728  -16.5199   24.9320 C   0  0  2  0  0  0  0  0  0  0  0  0
    9.5251  -16.0220   24.7493 N   0  0  0  0  0  0  0  0  0  0  0  0
   11.3177  -16.2185   26.3163 C   0  0  0  0  0  0  0  0  0  0  0  0
   12.5010  -16.7325   26.8283 O   0  0  0  0  0  0  0  0  0  0  0  0
   10.6350  -15.4920   27.0568 O   0  0  0  0  0  0  0  0  0  0  0  0
  2  1  1  6
  2  3  1  0
  4  6  1  0
  4  2  1  0
  5  4  2  0
  7  6  1  0
  7 15  1  0
  7  8  1  1
  9  8  1  0
  9 14  2  0
 10  9  1  0
 11 10  2  0
 11 12  1  0
 12 13  2  0
 13 14  1  0
 15 19  1  0
 16 15  2  0
 18 17  1  6
 18 20  1  0
 19 18  1  0
 20 21  1  0
 22 20  2  0
M  END
$$$$
