YQV.pdb
     RDKit          3D

 29 29  0  0  1  0  0  0  0  0999 V2000
    7.7651  -12.9705   16.1726 O   0  0  0  0  0  0  0  0  0  0  0  0
    7.6437  -13.4639   17.4592 C   0  0  0  0  0  0  0  0  0  0  0  0
    7.7975  -12.6117   18.5580 C   0  0  0  0  0  0  0  0  0  0  0  0
    7.6670  -13.1526   19.8186 C   0  0  0  0  0  0  0  0  0  0  0  0
    7.3943  -14.4861   20.0025 C   0  0  0  0  0  0  0  0  0  0  0  0
    7.2636  -15.0203   21.3540 C   0  0  0  0  0  0  0  0  0  0  0  0
    8.5232  -14.9321   22.1676 C   0  0  2  0  0  0  0  0  0  0  0  0
    9.6316  -15.3413   21.3138 N   0  0  0  0  0  0  0  0  0  0  0  0
    8.4233  -15.9116   23.2762 C   0  0  0  0  0  0  0  0  0  0  0  0
    7.3877  -15.9010   23.9846 O   0  0  0  0  0  0  0  0  0  0  0  0
    7.2484  -15.2995   18.9003 C   0  0  0  0  0  0  0  0  0  0  0  0
    7.3708  -14.8011   17.6107 C   0  0  0  0  0  0  0  0  0  0  0  0
   11.8508  -21.3965   26.2520 N   0  0  0  0  0  0  0  0  0  0  0  0
   10.7224  -21.1355   25.4044 C   0  0  0  0  0  0  0  0  0  0  0  0
   10.5419  -21.9456   24.4514 O   0  0  0  0  0  0  0  0  0  0  0  0
    9.8276  -19.9721   25.6502 C   0  0  0  0  0  0  0  0  0  0  0  0
   10.0591  -18.9853   24.5365 C   0  0  0  0  0  0  0  0  0  0  0  0
    9.3045  -17.6962   24.7253 C   0  0  2  0  0  0  0  0  0  0  0  0
    9.4377  -16.8553   23.5725 N   0  0  0  0  0  0  0  0  0  0  0  0
    9.6978  -16.9960   25.9816 C   0  0  0  0  0  0  0  0  0  0  0  0
    9.4482  -17.5487   27.0662 O   0  0  0  0  0  0  0  0  0  0  0  0
    8.9334  -13.2215   26.3376 C   0  0  0  0  0  0  0  0  0  0  0  0
    9.3467  -14.1011   27.4871 C   0  0  2  0  0  0  0  0  0  0  0  0
    9.7172  -13.1915   28.6396 C   0  0  0  0  0  0  0  0  0  0  0  0
   10.5252  -14.9712   27.1714 C   0  0  2  0  0  0  0  0  0  0  0  0
   10.3404  -15.7320   25.9523 N   0  0  0  0  0  0  0  0  0  0  0  0
   10.7168  -15.9214   28.2972 C   0  0  0  0  0  0  0  0  0  0  0  0
   11.2364  -15.5261   29.5220 O   0  0  0  0  0  0  0  0  0  0  0  0
   10.4105  -17.1396   28.1809 O   0  0  0  0  0  0  0  0  0  0  0  0
  2  1  1  0
  2  3  2  0
  4  3  1  0
  5  4  2  0
  6  5  1  0
  7  6  1  0
  7  8  1  6
  9  7  1  0
  9 10  2  0
 11 12  2  0
 11  5  1  0
 12  2  1  0
 14 16  1  0
 14 13  1  0
 15 14  2  0
 18 17  1  6
 17 16  1  0
 18 19  1  0
 19  9  1  0
 20 18  1  0
 21 20  2  0
 23 22  1  6
 23 25  1  0
 24 23  1  0
 25 26  1  6
 26 20  1  0
 27 25  1  0
 27 28  1  0
 29 27  2  0
M  END
$$$$
