YQV.pdb
     RDKit          3D

 29 29  0  0  1  0  0  0  0  0999 V2000
    8.4625  -13.4488   15.9964 O   0  0  0  0  0  0  0  0  0  0  0  0
    8.1928  -13.8115   17.3038 C   0  0  0  0  0  0  0  0  0  0  0  0
    7.5219  -12.9277   18.1560 C   0  0  0  0  0  0  0  0  0  0  0  0
    7.2776  -13.3368   19.4488 C   0  0  0  0  0  0  0  0  0  0  0  0
    7.6760  -14.5721   19.8979 C   0  0  0  0  0  0  0  0  0  0  0  0
    7.3982  -14.9678   21.2746 C   0  0  0  0  0  0  0  0  0  0  0  0
    6.9265  -16.3869   21.4165 C   0  0  2  0  0  0  0  0  0  0  0  0
    5.5072  -16.4171   21.0856 N   0  0  0  0  0  0  0  0  0  0  0  0
    7.0654  -16.7768   22.8403 C   0  0  0  0  0  0  0  0  0  0  0  0
    6.1670  -16.4233   23.6417 O   0  0  0  0  0  0  0  0  0  0  0  0
    8.3347  -15.4198   19.0346 C   0  0  0  0  0  0  0  0  0  0  0  0
    8.6036  -15.0527   17.7233 C   0  0  0  0  0  0  0  0  0  0  0  0
   10.0902  -21.4111   25.5576 N   0  0  0  0  0  0  0  0  0  0  0  0
    9.7117  -20.6274   26.6989 C   0  0  0  0  0  0  0  0  0  0  0  0
    9.9413  -21.1423   27.8298 O   0  0  0  0  0  0  0  0  0  0  0  0
    9.0857  -19.2868   26.5387 C   0  0  0  0  0  0  0  0  0  0  0  0
    8.9304  -19.0380   25.0616 C   0  0  0  0  0  0  0  0  0  0  0  0
    8.3131  -17.7004   24.7512 C   0  0  2  0  0  0  0  0  0  0  0  0
    8.1602  -17.5267   23.3369 N   0  0  0  0  0  0  0  0  0  0  0  0
    9.0665  -16.5769   25.3784 C   0  0  0  0  0  0  0  0  0  0  0  0
   10.1843  -16.2889   24.9185 O   0  0  0  0  0  0  0  0  0  0  0  0
    7.7547  -12.9652   26.1653 C   0  0  0  0  0  0  0  0  0  0  0  0
    8.3982  -13.5775   27.3806 C   0  0  2  0  0  0  0  0  0  0  0  0
    9.2515  -12.5060   28.0262 C   0  0  0  0  0  0  0  0  0  0  0  0
    9.2729  -14.7507   27.0584 C   0  0  2  0  0  0  0  0  0  0  0  0
    8.5317  -15.8487   26.4716 N   0  0  0  0  0  0  0  0  0  0  0  0
    9.8998  -15.2239   28.3193 C   0  0  0  0  0  0  0  0  0  0  0  0
    9.6323  -16.4749   28.8575 O   0  0  0  0  0  0  0  0  0  0  0  0
   10.7098  -14.4967   28.9571 O   0  0  0  0  0  0  0  0  0  0  0  0
  2  1  1  0
  2  3  2  0
  4  3  1  0
  5  4  2  0
  6  5  1  0
  7  6  1  0
  7  8  1  1
  9  7  1  0
  9 10  2  0
 11 12  2  0
 11  5  1  0
 12  2  1  0
 14 16  1  0
 14 13  1  0
 15 14  2  0
 18 17  1  6
 17 16  1  0
 18 19  1  0
 19  9  1  0
 20 18  1  0
 21 20  2  0
 23 22  1  6
 23 25  1  0
 24 23  1  0
 25 26  1  1
 26 20  1  0
 27 25  1  0
 27 28  1  0
 29 27  2  0
M  END
$$$$
