YQV.pdb
     RDKit          3D

 29 29  0  0  1  0  0  0  0  0999 V2000
    8.4212  -13.1594   15.3263 O   0  0  0  0  0  0  0  0  0  0  0  0
    8.0431  -13.5543   16.5970 C   0  0  0  0  0  0  0  0  0  0  0  0
    7.6490  -14.8752   16.8362 C   0  0  0  0  0  0  0  0  0  0  0  0
    7.2817  -15.2178   18.1193 C   0  0  0  0  0  0  0  0  0  0  0  0
    7.2982  -14.2988   19.1399 C   0  0  0  0  0  0  0  0  0  0  0  0
    6.9019  -14.7014   20.4852 C   0  0  0  0  0  0  0  0  0  0  0  0
    8.0583  -14.9839   21.4013 C   0  0  2  0  0  0  0  0  0  0  0  0
    8.8176  -16.0887   20.8287 N   0  0  0  0  0  0  0  0  0  0  0  0
    7.5126  -15.4392   22.7026 C   0  0  0  0  0  0  0  0  0  0  0  0
    6.2877  -15.7018   22.7721 O   0  0  0  0  0  0  0  0  0  0  0  0
    7.6913  -13.0058   18.8725 C   0  0  0  0  0  0  0  0  0  0  0  0
    8.0701  -12.6129   17.5963 C   0  0  0  0  0  0  0  0  0  0  0  0
    8.0171  -20.2836   25.3768 N   0  0  0  0  0  0  0  0  0  0  0  0
    6.7168  -19.8684   24.9332 C   0  0  0  0  0  0  0  0  0  0  0  0
    5.7584  -20.6427   25.2142 O   0  0  0  0  0  0  0  0  0  0  0  0
    6.5285  -18.5952   24.1863 C   0  0  0  0  0  0  0  0  0  0  0  0
    7.8877  -17.9691   24.0175 C   0  0  0  0  0  0  0  0  0  0  0  0
    8.0365  -16.6725   24.7680 C   0  0  2  0  0  0  0  0  0  0  0  0
    8.3057  -15.5912   23.8669 N   0  0  0  0  0  0  0  0  0  0  0  0
    9.0542  -16.7676   25.8536 C   0  0  0  0  0  0  0  0  0  0  0  0
   10.1542  -17.2797   25.5857 O   0  0  0  0  0  0  0  0  0  0  0  0
    8.8332  -13.2860   27.4925 C   0  0  0  0  0  0  0  0  0  0  0  0
    9.2655  -14.3038   28.5138 C   0  0  2  0  0  0  0  0  0  0  0  0
   10.3642  -13.6717   29.3422 C   0  0  0  0  0  0  0  0  0  0  0  0
    9.7971  -15.5648   27.9033 C   0  0  2  0  0  0  0  0  0  0  0  0
    8.7854  -16.2896   27.1616 N   0  0  0  0  0  0  0  0  0  0  0  0
   10.2968  -16.4367   28.9973 C   0  0  0  0  0  0  0  0  0  0  0  0
   11.5751  -16.3098   29.5227 O   0  0  0  0  0  0  0  0  0  0  0  0
    9.5683  -17.3375   29.4968 O   0  0  0  0  0  0  0  0  0  0  0  0
  2  1  1  0
  2  3  2  0
  4  3  1  0
  5  4  2  0
  6  5  1  0
  7  6  1  0
  7  8  1  6
  9  7  1  0
  9 10  2  0
 11 12  2  0
 11  5  1  0
 12  2  1  0
 14 16  1  0
 14 13  1  0
 15 14  2  0
 18 17  1  6
 17 16  1  0
 18 19  1  0
 19  9  1  0
 20 18  1  0
 21 20  2  0
 23 22  1  6
 23 25  1  0
 24 23  1  0
 25 26  1  1
 26 20  1  0
 27 25  1  0
 27 28  1  0
 29 27  2  0
M  END
$$$$
