YQV.pdb
     RDKit          3D

 29 29  0  0  1  0  0  0  0  0999 V2000
    8.4719  -12.8718   16.7518 O   0  0  0  0  0  0  0  0  0  0  0  0
    8.1244  -13.3134   18.0159 C   0  0  0  0  0  0  0  0  0  0  0  0
    6.9619  -12.8390   18.6330 C   0  0  0  0  0  0  0  0  0  0  0  0
    6.6605  -13.3100   19.8923 C   0  0  0  0  0  0  0  0  0  0  0  0
    7.4694  -14.2174   20.5316 C   0  0  0  0  0  0  0  0  0  0  0  0
    7.1151  -14.6918   21.8651 C   0  0  0  0  0  0  0  0  0  0  0  0
    7.0395  -16.1877   21.9788 C   0  0  2  0  0  0  0  0  0  0  0  0
    5.7885  -16.6160   21.3653 N   0  0  0  0  0  0  0  0  0  0  0  0
    6.9776  -16.5363   23.4186 C   0  0  0  0  0  0  0  0  0  0  0  0
    5.8596  -16.8217   23.9114 O   0  0  0  0  0  0  0  0  0  0  0  0
    8.6073  -14.6656   19.8975 C   0  0  0  0  0  0  0  0  0  0  0  0
    8.9530  -14.2205   18.6291 C   0  0  0  0  0  0  0  0  0  0  0  0
    8.4531  -21.2291   26.1391 N   0  0  0  0  0  0  0  0  0  0  0  0
    7.0952  -20.7716   26.2219 C   0  0  0  0  0  0  0  0  0  0  0  0
    6.2840  -21.5380   26.8149 O   0  0  0  0  0  0  0  0  0  0  0  0
    6.6856  -19.4662   25.6366 C   0  0  0  0  0  0  0  0  0  0  0  0
    7.9079  -18.8552   25.0039 C   0  0  0  0  0  0  0  0  0  0  0  0
    8.1264  -17.4215   25.4081 C   0  0  2  0  0  0  0  0  0  0  0  0
    8.1165  -16.5625   24.2610 N   0  0  0  0  0  0  0  0  0  0  0  0
    9.3605  -17.2526   26.2276 C   0  0  0  0  0  0  0  0  0  0  0  0
   10.4617  -17.3528   25.6606 O   0  0  0  0  0  0  0  0  0  0  0  0
    8.9175  -14.0092   27.2375 C   0  0  0  0  0  0  0  0  0  0  0  0
    9.3974  -14.6961   28.4880 C   0  0  2  0  0  0  0  0  0  0  0  0
   10.3338  -13.7396   29.1960 C   0  0  0  0  0  0  0  0  0  0  0  0
   10.1376  -15.9703   28.2155 C   0  0  2  0  0  0  0  0  0  0  0  0
    9.2923  -16.9843   27.6186 N   0  0  0  0  0  0  0  0  0  0  0  0
   10.6601  -16.4898   29.5054 C   0  0  0  0  0  0  0  0  0  0  0  0
   11.9736  -16.2920   29.9080 O   0  0  0  0  0  0  0  0  0  0  0  0
    9.9199  -17.1389   30.2942 O   0  0  0  0  0  0  0  0  0  0  0  0
  2  1  1  0
  2  3  2  0
  4  3  1  0
  5  4  2  0
  6  5  1  0
  7  6  1  0
  7  8  1  6
  9  7  1  0
  9 10  2  0
 11 12  2  0
 11  5  1  0
 12  2  1  0
 14 16  1  0
 14 13  1  0
 15 14  2  0
 18 17  1  6
 17 16  1  0
 18 19  1  0
 19  9  1  0
 20 18  1  0
 21 20  2  0
 23 22  1  6
 23 25  1  0
 24 23  1  0
 25 26  1  1
 26 20  1  0
 27 25  1  0
 27 28  1  0
 29 27  2  0
M  END
$$$$
