YQV.pdb
     RDKit          3D

 29 29  0  0  1  0  0  0  0  0999 V2000
   15.7891  -15.4548   10.5020 O   0  0  0  0  0  0  0  0  0  0  0  0
   14.8218  -15.4951   11.4902 C   0  0  0  0  0  0  0  0  0  0  0  0
   15.1156  -16.0477   12.7414 C   0  0  0  0  0  0  0  0  0  0  0  0
   14.1175  -16.0638   13.6911 C   0  0  0  0  0  0  0  0  0  0  0  0
   12.8687  -15.5558   13.4284 C   0  0  0  0  0  0  0  0  0  0  0  0
   11.8388  -15.5918   14.4613 C   0  0  0  0  0  0  0  0  0  0  0  0
   10.9765  -16.8210   14.4184 C   0  0  2  0  0  0  0  0  0  0  0  0
   10.0433  -16.6689   13.3088 N   0  0  0  0  0  0  0  0  0  0  0  0
   10.1835  -16.8697   15.6703 C   0  0  0  0  0  0  0  0  0  0  0  0
    9.0194  -16.4019   15.6527 O   0  0  0  0  0  0  0  0  0  0  0  0
   12.6105  -15.0184   12.1865 C   0  0  0  0  0  0  0  0  0  0  0  0
   13.5833  -14.9795   11.1973 C   0  0  0  0  0  0  0  0  0  0  0  0
   10.6137  -21.0540   20.1120 N   0  0  0  0  0  0  0  0  0  0  0  0
    9.5809  -20.2178   20.6542 C   0  0  0  0  0  0  0  0  0  0  0  0
    9.0123  -20.6414   21.7003 O   0  0  0  0  0  0  0  0  0  0  0  0
    9.2149  -18.9288   20.0069 C   0  0  0  0  0  0  0  0  0  0  0  0
   10.0149  -18.8225   18.7354 C   0  0  0  0  0  0  0  0  0  0  0  0
    9.8065  -17.5168   18.0155 C   0  0  2  0  0  0  0  0  0  0  0  0
   10.6760  -17.4172   16.8807 N   0  0  0  0  0  0  0  0  0  0  0  0
    9.9375  -16.3463   18.9299 C   0  0  0  0  0  0  0  0  0  0  0  0
   11.0793  -15.9726   19.2475 O   0  0  0  0  0  0  0  0  0  0  0  0
    7.3131  -13.0078   19.3616 C   0  0  0  0  0  0  0  0  0  0  0  0
    7.6783  -13.8156   20.5782 C   0  0  2  0  0  0  0  0  0  0  0  0
    7.8754  -12.8429   21.7219 C   0  0  0  0  0  0  0  0  0  0  0  0
    8.9390  -14.6070   20.4056 C   0  0  2  0  0  0  0  0  0  0  0  0
    8.7964  -15.6690   19.4304 N   0  0  0  0  0  0  0  0  0  0  0  0
    9.2914  -15.2122   21.7156 C   0  0  0  0  0  0  0  0  0  0  0  0
   10.0689  -14.5490   22.6547 O   0  0  0  0  0  0  0  0  0  0  0  0
    8.8920  -16.3674   22.0282 O   0  0  0  0  0  0  0  0  0  0  0  0
  2  1  1  0
  2  3  2  0
  4  3  1  0
  5  4  2  0
  6  5  1  0
  7  6  1  0
  7  8  1  6
  9  7  1  0
  9 10  2  0
 11 12  2  0
 11  5  1  0
 12  2  1  0
 14 16  1  0
 14 13  1  0
 15 14  2  0
 18 17  1  1
 17 16  1  0
 18 19  1  0
 19  9  1  0
 20 18  1  0
 21 20  2  0
 23 22  1  6
 23 25  1  0
 24 23  1  0
 25 26  1  6
 26 20  1  0
 27 25  1  0
 27 28  1  0
 29 27  2  0
M  END
$$$$
