YQV.pdb
     RDKit          3D

 29 29  0  0  1  0  0  0  0  0999 V2000
    4.7560  -10.0729   26.6089 O   0  0  0  0  0  0  0  0  0  0  0  0
    5.4625  -11.2286   26.3283 C   0  0  0  0  0  0  0  0  0  0  0  0
    5.0790  -12.4456   26.9020 C   0  0  0  0  0  0  0  0  0  0  0  0
    5.8157  -13.5675   26.5904 C   0  0  0  0  0  0  0  0  0  0  0  0
    6.8953  -13.5047   25.7438 C   0  0  0  0  0  0  0  0  0  0  0  0
    7.6497  -14.7159   25.4390 C   0  0  0  0  0  0  0  0  0  0  0  0
    7.3524  -15.2933   24.0845 C   0  0  2  0  0  0  0  0  0  0  0  0
    6.0205  -15.8834   24.1372 N   0  0  0  0  0  0  0  0  0  0  0  0
    8.3199  -16.3874   23.8293 C   0  0  0  0  0  0  0  0  0  0  0  0
    7.8959  -17.5682   23.8422 O   0  0  0  0  0  0  0  0  0  0  0  0
    7.2480  -12.2915   25.1948 C   0  0  0  0  0  0  0  0  0  0  0  0
    6.5369  -11.1337   25.4785 C   0  0  0  0  0  0  0  0  0  0  0  0
   13.6509  -17.9296   21.1681 N   0  0  0  0  0  0  0  0  0  0  0  0
   12.9691  -16.6813   20.9761 C   0  0  0  0  0  0  0  0  0  0  0  0
   13.5040  -15.8729   20.1654 O   0  0  0  0  0  0  0  0  0  0  0  0
   11.7052  -16.3752   21.6997 C   0  0  0  0  0  0  0  0  0  0  0  0
   11.3727  -17.5741   22.5482 C   0  0  0  0  0  0  0  0  0  0  0  0
   10.6383  -17.2156   23.8126 C   0  0  2  0  0  0  0  0  0  0  0  0
    9.6953  -16.1637   23.5724 N   0  0  0  0  0  0  0  0  0  0  0  0
   11.5716  -16.8911   24.9293 C   0  0  0  0  0  0  0  0  0  0  0  0
   12.3764  -15.9577   24.7712 O   0  0  0  0  0  0  0  0  0  0  0  0
   10.3634  -14.8782   26.7776 C   0  0  0  0  0  0  0  0  0  0  0  0
   10.4546  -16.0701   27.6923 C   0  0  2  0  0  0  0  0  0  0  0  0
   10.5602  -15.5439   29.1083 C   0  0  0  0  0  0  0  0  0  0  0  0
   11.6464  -16.9361   27.4178 C   0  0  2  0  0  0  0  0  0  0  0  0
   11.5507  -17.6215   26.1449 N   0  0  0  0  0  0  0  0  0  0  0  0
   11.7410  -17.9531   28.4965 C   0  0  0  0  0  0  0  0  0  0  0  0
   12.7035  -17.8895   29.4944 O   0  0  0  0  0  0  0  0  0  0  0  0
   10.9393  -18.9259   28.5469 O   0  0  0  0  0  0  0  0  0  0  0  0
  2  1  1  0
  2  3  2  0
  4  3  1  0
  5  4  2  0
  6  5  1  0
  7  6  1  0
  7  8  1  1
  9  7  1  0
  9 10  2  0
 11 12  2  0
 11  5  1  0
 12  2  1  0
 14 16  1  0
 14 13  1  0
 15 14  2  0
 18 17  1  6
 17 16  1  0
 18 19  1  0
 19  9  1  0
 20 18  1  0
 21 20  2  0
 23 22  1  6
 23 25  1  0
 24 23  1  0
 25 26  1  6
 26 20  1  0
 27 25  1  0
 27 28  1  0
 29 27  2  0
M  END
$$$$
