YQV.pdb
     RDKit          3D

 29 29  0  0  1  0  0  0  0  0999 V2000
    9.7993  -12.3846   19.6825 O   0  0  0  0  0  0  0  0  0  0  0  0
    8.7997  -13.3183   19.8892 C   0  0  0  0  0  0  0  0  0  0  0  0
    7.8686  -13.1376   20.9176 C   0  0  0  0  0  0  0  0  0  0  0  0
    6.8927  -14.0964   21.0818 C   0  0  0  0  0  0  0  0  0  0  0  0
    6.8266  -15.1998   20.2666 C   0  0  0  0  0  0  0  0  0  0  0  0
    5.7776  -16.1926   20.4731 C   0  0  0  0  0  0  0  0  0  0  0  0
    6.2764  -17.5006   21.0177 C   0  0  2  0  0  0  0  0  0  0  0  0
    5.1652  -18.4439   20.9919 N   0  0  0  0  0  0  0  0  0  0  0  0
    6.6575  -17.2925   22.4354 C   0  0  0  0  0  0  0  0  0  0  0  0
    5.7409  -17.1523   23.2808 O   0  0  0  0  0  0  0  0  0  0  0  0
    7.7581  -15.3493   19.2626 C   0  0  0  0  0  0  0  0  0  0  0  0
    8.7598  -14.4105   19.0580 C   0  0  0  0  0  0  0  0  0  0  0  0
    8.9358  -20.4660   25.8889 N   0  0  0  0  0  0  0  0  0  0  0  0
    9.4391  -19.4003   26.7080 C   0  0  0  0  0  0  0  0  0  0  0  0
    9.6260  -19.6749   27.9272 O   0  0  0  0  0  0  0  0  0  0  0  0
    9.7188  -18.0555   26.1353 C   0  0  0  0  0  0  0  0  0  0  0  0
    9.3779  -18.1126   24.6696 C   0  0  0  0  0  0  0  0  0  0  0  0
    8.2797  -17.1583   24.2825 C   0  0  2  0  0  0  0  0  0  0  0  0
    8.0022  -17.2445   22.8791 N   0  0  0  0  0  0  0  0  0  0  0  0
    8.5738  -15.7616   24.7137 C   0  0  0  0  0  0  0  0  0  0  0  0
    9.4258  -15.1170   24.0794 O   0  0  0  0  0  0  0  0  0  0  0  0
    5.9132  -12.9313   25.7747 C   0  0  0  0  0  0  0  0  0  0  0  0
    7.0197  -13.1020   26.7809 C   0  0  2  0  0  0  0  0  0  0  0  0
    7.4504  -11.7170   27.2158 C   0  0  0  0  0  0  0  0  0  0  0  0
    8.2143  -13.8193   26.2297 C   0  0  2  0  0  0  0  0  0  0  0  0
    7.9050  -15.1734   25.8174 N   0  0  0  0  0  0  0  0  0  0  0  0
    9.2542  -13.8736   27.2893 C   0  0  0  0  0  0  0  0  0  0  0  0
   10.1841  -12.8592   27.4695 O   0  0  0  0  0  0  0  0  0  0  0  0
    9.3323  -14.8570   28.0757 O   0  0  0  0  0  0  0  0  0  0  0  0
  2  1  1  0
  2  3  2  0
  4  3  1  0
  5  4  2  0
  6  5  1  0
  7  6  1  0
  7  8  1  1
  9  7  1  0
  9 10  2  0
 11 12  2  0
 11  5  1  0
 12  2  1  0
 14 16  1  0
 14 13  1  0
 15 14  2  0
 18 17  1  6
 17 16  1  0
 18 19  1  0
 19  9  1  0
 20 18  1  0
 21 20  2  0
 23 22  1  6
 23 25  1  0
 24 23  1  0
 25 26  1  1
 26 20  1  0
 27 25  1  0
 27 28  1  0
 29 27  2  0
M  END
$$$$
