YQV.pdb
     RDKit          3D

 29 29  0  0  1  0  0  0  0  0999 V2000
    8.5717  -13.1118   16.6737 O   0  0  0  0  0  0  0  0  0  0  0  0
    8.2112  -13.5109   17.9483 C   0  0  0  0  0  0  0  0  0  0  0  0
    8.8159  -14.6282   18.5341 C   0  0  0  0  0  0  0  0  0  0  0  0
    8.4215  -14.9842   19.8054 C   0  0  0  0  0  0  0  0  0  0  0  0
    7.4651  -14.2712   20.4861 C   0  0  0  0  0  0  0  0  0  0  0  0
    7.0751  -14.6808   21.8311 C   0  0  0  0  0  0  0  0  0  0  0  0
    6.8387  -16.1574   21.9731 C   0  0  2  0  0  0  0  0  0  0  0  0
    5.5412  -16.4573   21.3803 N   0  0  0  0  0  0  0  0  0  0  0  0
    6.7566  -16.4723   23.4197 C   0  0  0  0  0  0  0  0  0  0  0  0
    5.7178  -16.1405   24.0402 O   0  0  0  0  0  0  0  0  0  0  0  0
    6.8882  -13.1757   19.8821 C   0  0  0  0  0  0  0  0  0  0  0  0
    7.2523  -12.7780   18.6031 C   0  0  0  0  0  0  0  0  0  0  0  0
    6.6806  -21.8116   25.2558 N   0  0  0  0  0  0  0  0  0  0  0  0
    7.5163  -20.9638   26.0576 C   0  0  0  0  0  0  0  0  0  0  0  0
    7.7329  -21.3522   27.2405 O   0  0  0  0  0  0  0  0  0  0  0  0
    8.0858  -19.7031   25.5090 C   0  0  0  0  0  0  0  0  0  0  0  0
    7.2114  -18.5725   25.9832 C   0  0  0  0  0  0  0  0  0  0  0  0
    7.7171  -17.2191   25.5600 C   0  0  2  0  0  0  0  0  0  0  0  0
    7.7915  -17.1277   24.1318 N   0  0  0  0  0  0  0  0  0  0  0  0
    9.0120  -16.8754   26.2145 C   0  0  0  0  0  0  0  0  0  0  0  0
   10.0589  -17.0244   25.5620 O   0  0  0  0  0  0  0  0  0  0  0  0
    9.1283  -14.5866   29.8376 C   0  0  0  0  0  0  0  0  0  0  0  0
   10.2415  -14.6683   28.8277 C   0  0  2  0  0  0  0  0  0  0  0  0
    9.9796  -13.6050   27.7819 C   0  0  0  0  0  0  0  0  0  0  0  0
   10.3214  -15.9985   28.1424 C   0  0  2  0  0  0  0  0  0  0  0  0
    9.0602  -16.3904   27.5464 N   0  0  0  0  0  0  0  0  0  0  0  0
   10.7050  -17.0193   29.1512 C   0  0  0  0  0  0  0  0  0  0  0  0
   11.9500  -17.0259   29.7643 O   0  0  0  0  0  0  0  0  0  0  0  0
    9.9028  -17.9310   29.4932 O   0  0  0  0  0  0  0  0  0  0  0  0
  2  1  1  0
  2  3  2  0
  4  3  1  0
  5  4  2  0
  6  5  1  0
  7  6  1  0
  7  8  1  6
  9  7  1  0
  9 10  2  0
 11 12  2  0
 11  5  1  0
 12  2  1  0
 14 16  1  0
 14 13  1  0
 15 14  2  0
 18 17  1  6
 17 16  1  0
 18 19  1  0
 19  9  1  0
 20 18  1  0
 21 20  2  0
 23 22  1  1
 23 25  1  0
 24 23  1  0
 25 26  1  1
 26 20  1  0
 27 25  1  0
 27 28  1  0
 29 27  2  0
M  END
$$$$
