YQV.pdb
     RDKit          3D

 29 29  0  0  1  0  0  0  0  0999 V2000
    7.2413  -12.3178   16.4024 O   0  0  0  0  0  0  0  0  0  0  0  0
    7.3348  -13.0759   17.5559 C   0  0  0  0  0  0  0  0  0  0  0  0
    6.9338  -14.4162   17.5524 C   0  0  0  0  0  0  0  0  0  0  0  0
    7.0471  -15.1276   18.7270 C   0  0  0  0  0  0  0  0  0  0  0  0
    7.5371  -14.5488   19.8720 C   0  0  0  0  0  0  0  0  0  0  0  0
    7.6413  -15.3364   21.0958 C   0  0  0  0  0  0  0  0  0  0  0  0
    8.8547  -16.2202   21.1493 C   0  0  2  0  0  0  0  0  0  0  0  0
    8.6658  -17.2912   20.1786 N   0  0  0  0  0  0  0  0  0  0  0  0
    8.9138  -16.8381   22.4959 C   0  0  0  0  0  0  0  0  0  0  0  0
    8.1632  -17.8153   22.7327 O   0  0  0  0  0  0  0  0  0  0  0  0
    7.9237  -13.2268   19.8433 C   0  0  0  0  0  0  0  0  0  0  0  0
    7.8286  -12.4691   18.6843 C   0  0  0  0  0  0  0  0  0  0  0  0
   11.1627  -21.1017   24.3588 N   0  0  0  0  0  0  0  0  0  0  0  0
   11.8247  -20.1518   23.5105 C   0  0  0  0  0  0  0  0  0  0  0  0
   12.7791  -20.5978   22.8127 O   0  0  0  0  0  0  0  0  0  0  0  0
   11.3967  -18.7271   23.4694 C   0  0  0  0  0  0  0  0  0  0  0  0
   10.2340  -18.5807   24.4151 C   0  0  0  0  0  0  0  0  0  0  0  0
    9.9061  -17.1450   24.7280 C   0  0  2  0  0  0  0  0  0  0  0  0
    9.7743  -16.3793   23.5238 N   0  0  0  0  0  0  0  0  0  0  0  0
   10.8861  -16.5405   25.6753 C   0  0  0  0  0  0  0  0  0  0  0  0
   11.8474  -15.9095   25.2044 O   0  0  0  0  0  0  0  0  0  0  0  0
    9.5892  -13.8691   26.3528 C   0  0  0  0  0  0  0  0  0  0  0  0
    9.4562  -14.6590   27.6273 C   0  0  2  0  0  0  0  0  0  0  0  0
    9.2741  -13.6658   28.7557 C   0  0  0  0  0  0  0  0  0  0  0  0
   10.6573  -15.5033   27.9274 C   0  0  2  0  0  0  0  0  0  0  0  0
   10.7356  -16.6752   27.0791 N   0  0  0  0  0  0  0  0  0  0  0  0
   10.5713  -15.9485   29.3420 C   0  0  0  0  0  0  0  0  0  0  0  0
   11.1022  -15.2061   30.3876 O   0  0  0  0  0  0  0  0  0  0  0  0
   10.0049  -17.0328   29.6506 O   0  0  0  0  0  0  0  0  0  0  0  0
  2  1  1  0
  2  3  2  0
  4  3  1  0
  5  4  2  0
  6  5  1  0
  7  6  1  0
  7  8  1  6
  9  7  1  0
  9 10  2  0
 11 12  2  0
 11  5  1  0
 12  2  1  0
 14 16  1  0
 14 13  1  0
 15 14  2  0
 18 17  1  6
 17 16  1  0
 18 19  1  0
 19  9  1  0
 20 18  1  0
 21 20  2  0
 23 22  1  6
 23 25  1  0
 24 23  1  0
 25 26  1  6
 26 20  1  0
 27 25  1  0
 27 28  1  0
 29 27  2  0
M  END
$$$$
