YQV.pdb
     RDKit          3D

 29 29  0  0  1  0  0  0  0  0999 V2000
    5.5340   -9.7494   25.9596 O   0  0  0  0  0  0  0  0  0  0  0  0
    5.9622  -11.0647   25.9386 C   0  0  0  0  0  0  0  0  0  0  0  0
    5.1703  -12.0724   26.4995 C   0  0  0  0  0  0  0  0  0  0  0  0
    5.6421  -13.3662   26.4527 C   0  0  0  0  0  0  0  0  0  0  0  0
    6.8511  -13.6687   25.8756 C   0  0  0  0  0  0  0  0  0  0  0  0
    7.3153  -15.0517   25.8463 C   0  0  0  0  0  0  0  0  0  0  0  0
    7.0219  -15.7648   24.5573 C   0  0  2  0  0  0  0  0  0  0  0  0
    5.8236  -16.5699   24.7591 N   0  0  0  0  0  0  0  0  0  0  0  0
    8.1455  -16.6915   24.2791 C   0  0  0  0  0  0  0  0  0  0  0  0
    8.1405  -17.8138   24.8402 O   0  0  0  0  0  0  0  0  0  0  0  0
    7.6078  -12.6540   25.3318 C   0  0  0  0  0  0  0  0  0  0  0  0
    7.1752  -11.3354   25.3547 C   0  0  0  0  0  0  0  0  0  0  0  0
   12.4546  -17.3427   19.9792 N   0  0  0  0  0  0  0  0  0  0  0  0
   13.1637  -17.8216   21.1316 C   0  0  0  0  0  0  0  0  0  0  0  0
   14.1898  -18.5228   20.9031 O   0  0  0  0  0  0  0  0  0  0  0  0
   12.7008  -17.4999   22.5088 C   0  0  0  0  0  0  0  0  0  0  0  0
   11.3636  -16.8184   22.3848 C   0  0  0  0  0  0  0  0  0  0  0  0
   10.4877  -17.0150   23.5934 C   0  0  2  0  0  0  0  0  0  0  0  0
    9.2201  -16.3712   23.4131 N   0  0  0  0  0  0  0  0  0  0  0  0
   11.1639  -16.5852   24.8508 C   0  0  0  0  0  0  0  0  0  0  0  0
   12.0006  -15.6688   24.7854 O   0  0  0  0  0  0  0  0  0  0  0  0
   10.2775  -14.3578   27.0901 C   0  0  0  0  0  0  0  0  0  0  0  0
   10.3767  -15.6205   27.9035 C   0  0  2  0  0  0  0  0  0  0  0  0
   10.8521  -15.2288   29.2868 C   0  0  0  0  0  0  0  0  0  0  0  0
   11.3414  -16.6159   27.3343 C   0  0  2  0  0  0  0  0  0  0  0  0
   10.8684  -17.1985   26.0950 N   0  0  0  0  0  0  0  0  0  0  0  0
   11.5271  -17.7045   28.3279 C   0  0  0  0  0  0  0  0  0  0  0  0
   12.3386  -17.5600   29.4445 O   0  0  0  0  0  0  0  0  0  0  0  0
   10.9464  -18.8163   28.1925 O   0  0  0  0  0  0  0  0  0  0  0  0
  2  1  1  0
  2  3  2  0
  4  3  1  0
  5  4  2  0
  6  5  1  0
  7  6  1  0
  7  8  1  1
  9  7  1  0
  9 10  2  0
 11 12  2  0
 11  5  1  0
 12  2  1  0
 14 16  1  0
 14 13  1  0
 15 14  2  0
 18 17  1  6
 17 16  1  0
 18 19  1  0
 19  9  1  0
 20 18  1  0
 21 20  2  0
 23 22  1  6
 23 25  1  0
 24 23  1  0
 25 26  1  6
 26 20  1  0
 27 25  1  0
 27 28  1  0
 29 27  2  0
M  END
$$$$
