YQV.pdb
     RDKit          3D

 29 29  0  0  1  0  0  0  0  0999 V2000
    7.9725  -13.0045   15.6933 O   0  0  0  0  0  0  0  0  0  0  0  0
    7.6161  -13.5466   16.9152 C   0  0  0  0  0  0  0  0  0  0  0  0
    7.9276  -12.8743   18.1019 C   0  0  0  0  0  0  0  0  0  0  0  0
    7.5507  -13.4565   19.2925 C   0  0  0  0  0  0  0  0  0  0  0  0
    6.8891  -14.6596   19.3251 C   0  0  0  0  0  0  0  0  0  0  0  0
    6.5071  -15.2431   20.6067 C   0  0  0  0  0  0  0  0  0  0  0  0
    7.3682  -16.3987   21.0301 C   0  0  2  0  0  0  0  0  0  0  0  0
    6.9998  -17.5483   20.2130 N   0  0  0  0  0  0  0  0  0  0  0  0
    7.0401  -16.7240   22.4390 C   0  0  0  0  0  0  0  0  0  0  0  0
    6.0347  -17.4403   22.6630 O   0  0  0  0  0  0  0  0  0  0  0  0
    6.5966  -15.2971   18.1394 C   0  0  0  0  0  0  0  0  0  0  0  0
    6.9556  -14.7504   16.9151 C   0  0  0  0  0  0  0  0  0  0  0  0
    6.7366  -20.9332   24.6275 N   0  0  0  0  0  0  0  0  0  0  0  0
    6.7415  -20.2334   25.8806 C   0  0  0  0  0  0  0  0  0  0  0  0
    5.9831  -20.6950   26.7798 O   0  0  0  0  0  0  0  0  0  0  0  0
    7.5980  -19.0345   26.0894 C   0  0  0  0  0  0  0  0  0  0  0  0
    7.7566  -18.3585   24.7531 C   0  0  0  0  0  0  0  0  0  0  0  0
    7.6133  -16.8617   24.8294 C   0  0  2  0  0  0  0  0  0  0  0  0
    7.8052  -16.2660   23.5402 N   0  0  0  0  0  0  0  0  0  0  0  0
    8.5066  -16.2657   25.8638 C   0  0  0  0  0  0  0  0  0  0  0  0
    9.7181  -16.5386   25.8229 O   0  0  0  0  0  0  0  0  0  0  0  0
    7.0848  -12.5710   26.6381 C   0  0  0  0  0  0  0  0  0  0  0  0
    7.9198  -13.1262   27.7607 C   0  0  2  0  0  0  0  0  0  0  0  0
    8.8208  -12.0102   28.2462 C   0  0  0  0  0  0  0  0  0  0  0  0
    8.7782  -14.2815   27.3433 C   0  0  2  0  0  0  0  0  0  0  0  0
    7.9985  -15.4084   26.8729 N   0  0  0  0  0  0  0  0  0  0  0  0
    9.5764  -14.7164   28.5183 C   0  0  0  0  0  0  0  0  0  0  0  0
   10.6362  -13.9695   29.0133 O   0  0  0  0  0  0  0  0  0  0  0  0
    9.3176  -15.7955   29.1185 O   0  0  0  0  0  0  0  0  0  0  0  0
  2  1  1  0
  2  3  2  0
  4  3  1  0
  5  4  2  0
  6  5  1  0
  7  6  1  0
  7  8  1  6
  9  7  1  0
  9 10  2  0
 11 12  2  0
 11  5  1  0
 12  2  1  0
 14 16  1  0
 14 13  1  0
 15 14  2  0
 18 17  1  6
 17 16  1  0
 18 19  1  0
 19  9  1  0
 20 18  1  0
 21 20  2  0
 23 22  1  6
 23 25  1  0
 24 23  1  0
 25 26  1  1
 26 20  1  0
 27 25  1  0
 27 28  1  0
 29 27  2  0
M  END
$$$$
