YQV.pdb
     RDKit          3D

 29 29  0  0  1  0  0  0  0  0999 V2000
    8.3055  -14.2968   14.3200 O   0  0  0  0  0  0  0  0  0  0  0  0
    8.0026  -14.3801   15.6672 C   0  0  0  0  0  0  0  0  0  0  0  0
    8.2390  -13.2897   16.5112 C   0  0  0  0  0  0  0  0  0  0  0  0
    7.9199  -13.4237   17.8449 C   0  0  0  0  0  0  0  0  0  0  0  0
    7.3855  -14.5875   18.3414 C   0  0  0  0  0  0  0  0  0  0  0  0
    7.0612  -14.6895   19.7603 C   0  0  0  0  0  0  0  0  0  0  0  0
    8.2572  -14.8994   20.6445 C   0  0  2  0  0  0  0  0  0  0  0  0
    9.0036  -16.0354   20.1177 N   0  0  0  0  0  0  0  0  0  0  0  0
    7.7705  -15.2678   21.9957 C   0  0  0  0  0  0  0  0  0  0  0  0
    6.9378  -14.5119   22.5519 O   0  0  0  0  0  0  0  0  0  0  0  0
    7.1645  -15.6435   17.4848 C   0  0  0  0  0  0  0  0  0  0  0  0
    7.4696  -15.5565   16.1336 C   0  0  0  0  0  0  0  0  0  0  0  0
    9.0143  -20.4222   25.3538 N   0  0  0  0  0  0  0  0  0  0  0  0
    8.3278  -19.6093   26.3171 C   0  0  0  0  0  0  0  0  0  0  0  0
    8.1593  -20.1216   27.4599 O   0  0  0  0  0  0  0  0  0  0  0  0
    7.8494  -18.2435   25.9705 C   0  0  0  0  0  0  0  0  0  0  0  0
    8.2065  -17.9957   24.5286 C   0  0  0  0  0  0  0  0  0  0  0  0
    7.7977  -16.6293   24.0468 C   0  0  2  0  0  0  0  0  0  0  0  0
    8.1994  -16.4285   22.6859 N   0  0  0  0  0  0  0  0  0  0  0  0
    8.2925  -15.5474   24.9456 C   0  0  0  0  0  0  0  0  0  0  0  0
    9.5101  -15.2993   24.9528 O   0  0  0  0  0  0  0  0  0  0  0  0
    6.0323  -12.1474   25.6641 C   0  0  0  0  0  0  0  0  0  0  0  0
    6.7480  -12.7176   26.8593 C   0  0  2  0  0  0  0  0  0  0  0  0
    7.3230  -11.5529   27.6376 C   0  0  0  0  0  0  0  0  0  0  0  0
    7.8684  -13.6422   26.4917 C   0  0  2  0  0  0  0  0  0  0  0  0
    7.4065  -14.8136   25.7751 N   0  0  0  0  0  0  0  0  0  0  0  0
    8.5352  -14.0857   27.7429 C   0  0  0  0  0  0  0  0  0  0  0  0
    9.4411  -13.2857   28.4251 O   0  0  0  0  0  0  0  0  0  0  0  0
    8.3000  -15.2215   28.2392 O   0  0  0  0  0  0  0  0  0  0  0  0
  2  1  1  0
  2  3  2  0
  4  3  1  0
  5  4  2  0
  6  5  1  0
  7  6  1  0
  7  8  1  6
  9  7  1  0
  9 10  2  0
 11 12  2  0
 11  5  1  0
 12  2  1  0
 14 16  1  0
 14 13  1  0
 15 14  2  0
 18 17  1  1
 17 16  1  0
 18 19  1  0
 19  9  1  0
 20 18  1  0
 21 20  2  0
 23 22  1  6
 23 25  1  0
 24 23  1  0
 25 26  1  1
 26 20  1  0
 27 25  1  0
 27 28  1  0
 29 27  2  0
M  END
$$$$
