YQV.pdb
     RDKit          3D

 29 29  0  0  1  0  0  0  0  0999 V2000
    9.4197  -11.4785   20.4318 O   0  0  0  0  0  0  0  0  0  0  0  0
    8.6178  -12.5980   20.3001 C   0  0  0  0  0  0  0  0  0  0  0  0
    8.6784  -13.3752   19.1384 C   0  0  0  0  0  0  0  0  0  0  0  0
    7.8592  -14.4800   19.0566 C   0  0  0  0  0  0  0  0  0  0  0  0
    7.0053  -14.8173   20.0781 C   0  0  0  0  0  0  0  0  0  0  0  0
    6.1536  -15.9955   19.9527 C   0  0  0  0  0  0  0  0  0  0  0  0
    6.8224  -17.2763   20.3634 C   0  0  2  0  0  0  0  0  0  0  0  0
    5.8509  -18.3522   20.2098 N   0  0  0  0  0  0  0  0  0  0  0  0
    7.1602  -17.1767   21.8037 C   0  0  0  0  0  0  0  0  0  0  0  0
    6.2372  -17.3260   22.6403 O   0  0  0  0  0  0  0  0  0  0  0  0
    6.9686  -14.0318   21.2092 C   0  0  0  0  0  0  0  0  0  0  0  0
    7.7746  -12.9093   21.3382 C   0  0  0  0  0  0  0  0  0  0  0  0
   11.5298  -20.2013   24.9850 N   0  0  0  0  0  0  0  0  0  0  0  0
   11.4361  -18.8838   25.5466 C   0  0  0  0  0  0  0  0  0  0  0  0
   12.4660  -18.4569   26.1415 O   0  0  0  0  0  0  0  0  0  0  0  0
   10.1884  -18.0819   25.4246 C   0  0  0  0  0  0  0  0  0  0  0  0
    9.9236  -17.8853   23.9553 C   0  0  0  0  0  0  0  0  0  0  0  0
    8.7393  -16.9963   23.6838 C   0  0  2  0  0  0  0  0  0  0  0  0
    8.4707  -16.9218   22.2781 N   0  0  0  0  0  0  0  0  0  0  0  0
    8.8991  -15.6474   24.2989 C   0  0  0  0  0  0  0  0  0  0  0  0
    9.6444  -14.8283   23.7354 O   0  0  0  0  0  0  0  0  0  0  0  0
    6.0550  -13.2266   25.2669 C   0  0  0  0  0  0  0  0  0  0  0  0
    6.9972  -13.3923   26.4291 C   0  0  2  0  0  0  0  0  0  0  0  0
    7.2167  -12.0197   27.0298 C   0  0  0  0  0  0  0  0  0  0  0  0
    8.3284  -13.9563   26.0351 C   0  0  2  0  0  0  0  0  0  0  0  0
    8.2234  -15.2968   25.4956 N   0  0  0  0  0  0  0  0  0  0  0  0
    9.1916  -13.9992   27.2434 C   0  0  0  0  0  0  0  0  0  0  0  0
    9.7961  -12.8638   27.7645 O   0  0  0  0  0  0  0  0  0  0  0  0
    9.4106  -15.0837   27.8494 O   0  0  0  0  0  0  0  0  0  0  0  0
  2  1  1  0
  2  3  2  0
  4  3  1  0
  5  4  2  0
  6  5  1  0
  7  6  1  0
  7  8  1  1
  9  7  1  0
  9 10  2  0
 11 12  2  0
 11  5  1  0
 12  2  1  0
 14 16  1  0
 14 13  1  0
 15 14  2  0
 18 17  1  6
 17 16  1  0
 18 19  1  0
 19  9  1  0
 20 18  1  0
 21 20  2  0
 23 22  1  6
 23 25  1  0
 24 23  1  0
 25 26  1  1
 26 20  1  0
 27 25  1  0
 27 28  1  0
 29 27  2  0
M  END
$$$$
