GHV.pdb
     RDKit          3D

 22 22  0  0  1  0  0  0  0  0999 V2000
   17.6694  -16.7463  -19.3214 N   0  0  0  0  0  0  0  0  0  0  0  0
   17.8091  -17.3196  -18.0009 C   0  0  0  0  0  0  0  0  0  0  0  0
   18.4422  -16.3494  -17.0728 C   0  0  0  0  0  0  0  0  0  0  0  0
   17.9724  -16.1497  -15.9143 O   0  0  0  0  0  0  0  0  0  0  0  0
   19.5864  -15.6467  -17.5061 N   0  0  0  0  0  0  0  0  0  0  0  0
   20.2737  -14.7569  -16.5797 C   0  0  1  0  0  0  0  0  0  0  0  0
   21.7565  -15.0282  -16.5647 C   0  0  0  0  0  0  0  0  0  0  0  0
   22.0528  -16.3780  -16.0352 C   0  0  0  0  0  0  0  0  0  0  0  0
   21.1336  -17.2620  -15.5064 C   0  0  0  0  0  0  0  0  0  0  0  0
   21.7929  -18.3751  -15.1376 N   0  0  0  0  0  0  0  0  0  0  0  0
   23.1043  -18.2272  -15.4154 C   0  0  0  0  0  0  0  0  0  0  0  0
   23.2368  -17.0037  -15.9610 N   0  0  0  0  0  0  0  0  0  0  0  0
   19.9182  -13.3651  -16.9081 C   0  0  0  0  0  0  0  0  0  0  0  0
   19.7958  -13.0624  -18.1212 O   0  0  0  0  0  0  0  0  0  0  0  0
   17.8416   -9.0952  -15.8553 C   0  0  0  0  0  0  0  0  0  0  0  0
   18.0537  -10.5722  -15.6878 C   0  0  1  0  0  0  0  0  0  0  0  0
   16.8993  -11.3453  -16.2855 C   0  0  0  0  0  0  0  0  0  0  0  0
   19.3230  -11.0597  -16.3461 C   0  0  2  0  0  0  0  0  0  0  0  0
   19.7110  -12.3646  -15.9178 N   0  0  0  0  0  0  0  0  0  0  0  0
   20.4000  -10.1026  -15.9855 C   0  0  0  0  0  0  0  0  0  0  0  0
   20.3980   -8.9287  -16.4455 O   0  0  0  0  0  0  0  0  0  0  0  0
   21.4233  -10.4918  -15.1354 O   0  0  0  0  0  0  0  0  0  0  0  0
  2  1  1  0
  3  5  1  0
  3  2  1  0
  4  3  2  0
  6  5  1  0
  6 13  1  0
  6  7  1  6
  8  7  1  0
  9  8  2  0
 10  9  1  0
 10 11  1  0
 11 12  2  0
 12  8  1  0
 13 19  1  0
 13 14  2  0
 16 15  1  6
 16 17  1  0
 18 16  1  0
 18 19  1  1
 20 18  1  0
 20 22  1  0
 21 20  2  0
M  END
$$$$
