GHV.pdb
     RDKit          3D

 22 22  0  0  1  0  0  0  0  0999 V2000
   22.2273  -11.9660  -19.6497 N   0  0  0  0  0  0  0  0  0  0  0  0
   22.6895  -11.5125  -18.3564 C   0  0  0  0  0  0  0  0  0  0  0  0
   21.7488  -10.5175  -17.7833 C   0  0  0  0  0  0  0  0  0  0  0  0
   20.8672   -9.9609  -18.5015 O   0  0  0  0  0  0  0  0  0  0  0  0
   21.8536  -10.1987  -16.4128 N   0  0  0  0  0  0  0  0  0  0  0  0
   20.9163   -9.2514  -15.8242 C   0  0  1  0  0  0  0  0  0  0  0  0
   20.0102   -9.9306  -14.8292 C   0  0  0  0  0  0  0  0  0  0  0  0
   19.0358  -10.8170  -15.5039 C   0  0  0  0  0  0  0  0  0  0  0  0
   19.1940  -12.1687  -15.7363 C   0  0  0  0  0  0  0  0  0  0  0  0
   18.0938  -12.6122  -16.3707 N   0  0  0  0  0  0  0  0  0  0  0  0
   17.2394  -11.5842  -16.5495 C   0  0  0  0  0  0  0  0  0  0  0  0
   17.8356  -10.5029  -16.0134 N   0  0  0  0  0  0  0  0  0  0  0  0
   21.6751   -8.1154  -15.2720 C   0  0  0  0  0  0  0  0  0  0  0  0
   22.7374   -8.3674  -14.6504 O   0  0  0  0  0  0  0  0  0  0  0  0
   23.1114   -3.4694  -15.3169 C   0  0  0  0  0  0  0  0  0  0  0  0
   22.3161   -4.6043  -15.8949 C   0  0  1  0  0  0  0  0  0  0  0  0
   23.0094   -5.1717  -17.1134 C   0  0  0  0  0  0  0  0  0  0  0  0
   22.1119   -5.7351  -14.9141 C   0  0  2  0  0  0  0  0  0  0  0  0
   21.2570   -6.7627  -15.4139 N   0  0  0  0  0  0  0  0  0  0  0  0
   21.4919   -5.1531  -13.6962 C   0  0  0  0  0  0  0  0  0  0  0  0
   20.2445   -5.2077  -13.5205 O   0  0  0  0  0  0  0  0  0  0  0  0
   22.2819   -4.5412  -12.7357 O   0  0  0  0  0  0  0  0  0  0  0  0
  2  1  1  0
  3  5  1  0
  3  2  1  0
  4  3  2  0
  6  5  1  0
  6 13  1  0
  6  7  1  1
  8  7  1  0
  9  8  2  0
 10  9  1  0
 10 11  1  0
 11 12  2  0
 12  8  1  0
 13 19  1  0
 13 14  2  0
 16 15  1  1
 16 17  1  0
 18 16  1  0
 18 19  1  6
 20 18  1  0
 20 22  1  0
 21 20  2  0
M  END
$$$$
