GHV.pdb
     RDKit          3D

 22 22  0  0  1  0  0  0  0  0999 V2000
   15.9549  -29.9447   -6.9292 N   0  0  0  0  0  0  0  0  0  0  0  0
   16.3401  -28.6409   -7.4228 C   0  0  0  0  0  0  0  0  0  0  0  0
   16.8136  -27.7787   -6.3112 C   0  0  0  0  0  0  0  0  0  0  0  0
   18.0476  -27.5582   -6.1338 O   0  0  0  0  0  0  0  0  0  0  0  0
   15.8579  -27.2033   -5.4472 N   0  0  0  0  0  0  0  0  0  0  0  0
   16.2993  -26.3097   -4.3846 C   0  0  1  0  0  0  0  0  0  0  0  0
   15.2224  -25.3175   -4.0267 C   0  0  0  0  0  0  0  0  0  0  0  0
   15.0476  -24.3034   -5.0904 C   0  0  0  0  0  0  0  0  0  0  0  0
   15.8059  -24.1933   -6.2389 C   0  0  0  0  0  0  0  0  0  0  0  0
   15.3365  -23.1507   -6.9476 N   0  0  0  0  0  0  0  0  0  0  0  0
   14.3023  -22.5931   -6.2855 C   0  0  0  0  0  0  0  0  0  0  0  0
   14.1463  -23.3126   -5.1586 N   0  0  0  0  0  0  0  0  0  0  0  0
   16.7735  -27.1213   -3.2498 C   0  0  0  0  0  0  0  0  0  0  0  0
   16.0526  -28.0786   -2.8727 O   0  0  0  0  0  0  0  0  0  0  0  0
   20.6050  -28.3014   -2.8475 C   0  0  0  0  0  0  0  0  0  0  0  0
   19.9701  -27.9019   -1.5468 C   0  0  1  0  0  0  0  0  0  0  0  0
   20.4727  -26.5455   -1.1054 C   0  0  0  0  0  0  0  0  0  0  0  0
   18.4634  -27.8294   -1.6288 C   0  0  2  0  0  0  0  0  0  0  0  0
   17.9994  -26.8661   -2.5740 N   0  0  0  0  0  0  0  0  0  0  0  0
   17.9683  -27.4481   -0.2813 C   0  0  0  0  0  0  0  0  0  0  0  0
   17.9580  -28.2856    0.6611 O   0  0  0  0  0  0  0  0  0  0  0  0
   17.5103  -26.1614   -0.0448 O   0  0  0  0  0  0  0  0  0  0  0  0
  2  1  1  0
  3  5  1  0
  3  2  1  0
  4  3  2  0
  6  5  1  0
  6 13  1  0
  6  7  1  1
  8  7  1  0
  9  8  2  0
 10  9  1  0
 10 11  1  0
 11 12  2  0
 12  8  1  0
 13 19  1  0
 13 14  2  0
 16 15  1  6
 16 17  1  0
 18 16  1  0
 18 19  1  6
 20 18  1  0
 20 22  1  0
 21 20  2  0
M  END
$$$$
