GHV.pdb
     RDKit          3D

 22 22  0  0  1  0  0  0  0  0999 V2000
   19.7252  -11.5590  -19.9011 N   0  0  0  0  0  0  0  0  0  0  0  0
   20.3142  -10.2541  -19.6952 C   0  0  0  0  0  0  0  0  0  0  0  0
   19.9641   -9.7273  -18.3524 C   0  0  0  0  0  0  0  0  0  0  0  0
   18.9444   -8.9965  -18.1814 O   0  0  0  0  0  0  0  0  0  0  0  0
   20.7931  -10.0568  -17.2592 N   0  0  0  0  0  0  0  0  0  0  0  0
   20.4601   -9.5573  -15.9319 C   0  0  1  0  0  0  0  0  0  0  0  0
   20.3296  -10.6876  -14.9429 C   0  0  0  0  0  0  0  0  0  0  0  0
   19.1185  -11.4969  -15.2051 C   0  0  0  0  0  0  0  0  0  0  0  0
   18.1912  -11.2700  -16.2025 C   0  0  0  0  0  0  0  0  0  0  0  0
   17.2427  -12.2195  -16.1109 N   0  0  0  0  0  0  0  0  0  0  0  0
   17.5374  -13.0444  -15.0856 C   0  0  0  0  0  0  0  0  0  0  0  0
   18.6834  -12.5835  -14.5505 N   0  0  0  0  0  0  0  0  0  0  0  0
   21.4476   -8.5324  -15.5500 C   0  0  0  0  0  0  0  0  0  0  0  0
   22.6632   -8.7956  -15.7270 O   0  0  0  0  0  0  0  0  0  0  0  0
   22.4145   -5.6210  -17.1319 C   0  0  0  0  0  0  0  0  0  0  0  0
   22.1231   -5.1773  -15.7274 C   0  0  1  0  0  0  0  0  0  0  0  0
   20.7737   -4.4981  -15.6547 C   0  0  0  0  0  0  0  0  0  0  0  0
   22.1151   -6.3220  -14.7416 C   0  0  2  0  0  0  0  0  0  0  0  0
   21.0824   -7.2736  -14.9963 N   0  0  0  0  0  0  0  0  0  0  0  0
   21.8999   -5.7383  -13.3929 C   0  0  0  0  0  0  0  0  0  0  0  0
   20.8064   -5.9036  -12.7873 O   0  0  0  0  0  0  0  0  0  0  0  0
   22.9037   -5.0024  -12.7831 O   0  0  0  0  0  0  0  0  0  0  0  0
  2  1  1  0
  3  5  1  0
  3  2  1  0
  4  3  2  0
  6  5  1  0
  6 13  1  0
  6  7  1  1
  8  7  1  0
  9  8  2  0
 10  9  1  0
 10 11  1  0
 11 12  2  0
 12  8  1  0
 13 19  1  0
 13 14  2  0
 16 15  1  6
 16 17  1  0
 18 16  1  0
 18 19  1  6
 20 18  1  0
 20 22  1  0
 21 20  2  0
M  END
$$$$
