GHV.pdb
     RDKit          3D

 22 22  0  0  1  0  0  0  0  0999 V2000
   21.3810  -12.7851  -18.3050 N   0  0  0  0  0  0  0  0  0  0  0  0
   21.7173  -12.1190  -17.0659 C   0  0  0  0  0  0  0  0  0  0  0  0
   21.1180  -10.7618  -17.0213 C   0  0  0  0  0  0  0  0  0  0  0  0
   21.4271   -9.8813  -17.8768 O   0  0  0  0  0  0  0  0  0  0  0  0
   20.1897  -10.4655  -16.0009 N   0  0  0  0  0  0  0  0  0  0  0  0
   19.5526   -9.1558  -15.9705 C   0  0  1  0  0  0  0  0  0  0  0  0
   18.2287   -9.2119  -15.2517 C   0  0  0  0  0  0  0  0  0  0  0  0
   17.5174   -7.9164  -15.3288 C   0  0  0  0  0  0  0  0  0  0  0  0
   17.9818   -6.7710  -15.9441 C   0  0  0  0  0  0  0  0  0  0  0  0
   17.0485   -5.8135  -15.7971 N   0  0  0  0  0  0  0  0  0  0  0  0
   16.0036   -6.3138  -15.1069 C   0  0  0  0  0  0  0  0  0  0  0  0
   16.3132   -7.5950  -14.8335 N   0  0  0  0  0  0  0  0  0  0  0  0
   20.5031   -8.1797  -15.4092 C   0  0  0  0  0  0  0  0  0  0  0  0
   21.1410   -8.5095  -14.3783 O   0  0  0  0  0  0  0  0  0  0  0  0
   23.4995   -4.3363  -15.8189 C   0  0  0  0  0  0  0  0  0  0  0  0
   22.5589   -5.3337  -16.4314 C   0  0  1  0  0  0  0  0  0  0  0  0
   23.3260   -6.3726  -17.2187 C   0  0  0  0  0  0  0  0  0  0  0  0
   21.7248   -6.0602  -15.4026 C   0  0  2  0  0  0  0  0  0  0  0  0
   20.7233   -6.8958  -15.9818 N   0  0  0  0  0  0  0  0  0  0  0  0
   21.0569   -5.0272  -14.5701 C   0  0  0  0  0  0  0  0  0  0  0  0
   19.9280   -4.5697  -14.8956 O   0  0  0  0  0  0  0  0  0  0  0  0
   21.6708   -4.5531  -13.4214 O   0  0  0  0  0  0  0  0  0  0  0  0
  2  1  1  0
  3  5  1  0
  3  2  1  0
  4  3  2  0
  6  5  1  0
  6 13  1  0
  6  7  1  1
  8  7  1  0
  9  8  2  0
 10  9  1  0
 10 11  1  0
 11 12  2  0
 12  8  1  0
 13 19  1  0
 13 14  2  0
 16 15  1  1
 16 17  1  0
 18 16  1  0
 18 19  1  6
 20 18  1  0
 20 22  1  0
 21 20  2  0
M  END
$$$$
