GHV.pdb
     RDKit          3D

 22 22  0  0  1  0  0  0  0  0999 V2000
   27.4202  -22.3090  -17.3913 N   0  0  0  0  0  0  0  0  0  0  0  0
   26.1920  -21.5933  -17.6582 C   0  0  0  0  0  0  0  0  0  0  0  0
   25.7510  -20.8430  -16.4558 C   0  0  0  0  0  0  0  0  0  0  0  0
   26.5785  -20.1993  -15.7460 O   0  0  0  0  0  0  0  0  0  0  0  0
   24.3824  -20.8584  -16.1131 N   0  0  0  0  0  0  0  0  0  0  0  0
   23.9144  -20.0473  -14.9972 C   0  0  1  0  0  0  0  0  0  0  0  0
   22.5617  -19.4496  -15.2895 C   0  0  0  0  0  0  0  0  0  0  0  0
   22.6613  -18.3392  -16.2629 C   0  0  0  0  0  0  0  0  0  0  0  0
   23.8303  -17.7745  -16.7329 C   0  0  0  0  0  0  0  0  0  0  0  0
   23.5010  -16.7984  -17.5979 N   0  0  0  0  0  0  0  0  0  0  0  0
   22.1578  -16.7240  -17.6935 C   0  0  0  0  0  0  0  0  0  0  0  0
   21.6700  -17.6718  -16.8716 N   0  0  0  0  0  0  0  0  0  0  0  0
   23.9625  -20.8594  -13.7686 C   0  0  0  0  0  0  0  0  0  0  0  0
   23.3701  -21.9673  -13.7751 O   0  0  0  0  0  0  0  0  0  0  0  0
   27.0089  -21.1427  -11.0271 C   0  0  0  0  0  0  0  0  0  0  0  0
   25.6402  -21.0106  -10.4237 C   0  0  1  0  0  0  0  0  0  0  0  0
   25.4446  -19.6248   -9.8504 C   0  0  0  0  0  0  0  0  0  0  0  0
   24.5340  -21.2550  -11.4230 C   0  0  2  0  0  0  0  0  0  0  0  0
   24.6446  -20.4429  -12.5913 N   0  0  0  0  0  0  0  0  0  0  0  0
   23.2515  -20.9372  -10.7444 C   0  0  0  0  0  0  0  0  0  0  0  0
   22.6304  -19.8723  -11.0088 O   0  0  0  0  0  0  0  0  0  0  0  0
   22.7217  -21.8123   -9.8091 O   0  0  0  0  0  0  0  0  0  0  0  0
  2  1  1  0
  3  5  1  0
  3  2  1  0
  4  3  2  0
  6  5  1  0
  6 13  1  0
  6  7  1  6
  8  7  1  0
  9  8  2  0
 10  9  1  0
 10 11  1  0
 11 12  2  0
 12  8  1  0
 13 19  1  0
 13 14  2  0
 16 15  1  6
 16 17  1  0
 18 16  1  0
 18 19  1  6
 20 18  1  0
 20 22  1  0
 21 20  2  0
M  END
$$$$
