GHV.pdb
     RDKit          3D

 22 22  0  0  1  0  0  0  0  0999 V2000
   22.6950  -12.5866  -18.1033 N   0  0  0  0  0  0  0  0  0  0  0  0
   21.6389  -11.5982  -18.1017 C   0  0  0  0  0  0  0  0  0  0  0  0
   21.8919  -10.5630  -17.0685 C   0  0  0  0  0  0  0  0  0  0  0  0
   21.4255  -10.6795  -15.8973 O   0  0  0  0  0  0  0  0  0  0  0  0
   22.6675   -9.4365  -17.4153 N   0  0  0  0  0  0  0  0  0  0  0  0
   22.7554   -8.3151  -16.4896 C   0  0  1  0  0  0  0  0  0  0  0  0
   24.1698   -7.8033  -16.3886 C   0  0  0  0  0  0  0  0  0  0  0  0
   25.0926   -8.8579  -15.9126 C   0  0  0  0  0  0  0  0  0  0  0  0
   24.7349  -10.1324  -15.5200 C   0  0  0  0  0  0  0  0  0  0  0  0
   25.8544  -10.7843  -15.1576 N   0  0  0  0  0  0  0  0  0  0  0  0
   26.9144   -9.9642  -15.3074 C   0  0  0  0  0  0  0  0  0  0  0  0
   26.4245   -8.7980  -15.7680 N   0  0  0  0  0  0  0  0  0  0  0  0
   21.7711   -7.2936  -16.8884 C   0  0  0  0  0  0  0  0  0  0  0  0
   21.6812   -7.0120  -18.1094 O   0  0  0  0  0  0  0  0  0  0  0  0
   17.6138   -4.8715  -16.4285 C   0  0  0  0  0  0  0  0  0  0  0  0
   18.5726   -5.9531  -16.0217 C   0  0  1  0  0  0  0  0  0  0  0  0
   18.1621   -7.2793  -16.6218 C   0  0  0  0  0  0  0  0  0  0  0  0
   19.9916   -5.6713  -16.4565 C   0  0  2  0  0  0  0  0  0  0  0  0
   20.9302   -6.6231  -15.9567 N   0  0  0  0  0  0  0  0  0  0  0  0
   20.3528   -4.3291  -15.9328 C   0  0  0  0  0  0  0  0  0  0  0  0
   21.0528   -4.2122  -14.8907 O   0  0  0  0  0  0  0  0  0  0  0  0
   19.9221   -3.1859  -16.5876 O   0  0  0  0  0  0  0  0  0  0  0  0
  2  1  1  0
  3  5  1  0
  3  2  1  0
  4  3  2  0
  6  5  1  0
  6 13  1  0
  6  7  1  6
  8  7  1  0
  9  8  2  0
 10  9  1  0
 10 11  1  0
 11 12  2  0
 12  8  1  0
 13 19  1  0
 13 14  2  0
 16 15  1  6
 16 17  1  0
 18 16  1  0
 18 19  1  1
 20 18  1  0
 20 22  1  0
 21 20  2  0
M  END
$$$$
