GHV.pdb
     RDKit          3D

 22 22  0  0  1  0  0  0  0  0999 V2000
   19.3704  -12.0439  -16.2948 N   0  0  0  0  0  0  0  0  0  0  0  0
   20.3115  -10.9822  -16.5761 C   0  0  0  0  0  0  0  0  0  0  0  0
   19.7886   -9.6782  -16.0970 C   0  0  0  0  0  0  0  0  0  0  0  0
   18.7469   -9.1654  -16.6016 O   0  0  0  0  0  0  0  0  0  0  0  0
   20.4773   -9.0128  -15.0607 N   0  0  0  0  0  0  0  0  0  0  0  0
   19.9749   -7.7358  -14.5718 C   0  0  1  0  0  0  0  0  0  0  0  0
   19.9997   -7.6828  -13.0654 C   0  0  0  0  0  0  0  0  0  0  0  0
   18.8949   -8.4742  -12.4793 C   0  0  0  0  0  0  0  0  0  0  0  0
   17.9783   -9.2317  -13.1809 C   0  0  0  0  0  0  0  0  0  0  0  0
   17.1393   -9.7950  -12.2930 N   0  0  0  0  0  0  0  0  0  0  0  0
   17.4934   -9.4195  -11.0471 C   0  0  0  0  0  0  0  0  0  0  0  0
   18.5643   -8.6161  -11.1873 N   0  0  0  0  0  0  0  0  0  0  0  0
   20.7255   -6.6497  -15.2262 C   0  0  0  0  0  0  0  0  0  0  0  0
   21.9800   -6.6871  -15.1682 O   0  0  0  0  0  0  0  0  0  0  0  0
   21.3480   -3.5794  -18.8692 C   0  0  0  0  0  0  0  0  0  0  0  0
   20.5371   -4.5928  -18.1140 C   0  0  1  0  0  0  0  0  0  0  0  0
   20.7207   -5.9705  -18.7105 C   0  0  0  0  0  0  0  0  0  0  0  0
   20.9119   -4.6710  -16.6526 C   0  0  2  0  0  0  0  0  0  0  0  0
   20.0931   -5.5752  -15.9118 N   0  0  0  0  0  0  0  0  0  0  0  0
   20.7483   -3.3086  -16.0840 C   0  0  0  0  0  0  0  0  0  0  0  0
   19.6621   -2.9624  -15.5456 O   0  0  0  0  0  0  0  0  0  0  0  0
   21.7930   -2.3994  -16.1397 O   0  0  0  0  0  0  0  0  0  0  0  0
  2  1  1  0
  3  5  1  0
  3  2  1  0
  4  3  2  0
  6  5  1  0
  6 13  1  0
  6  7  1  1
  8  7  1  0
  9  8  2  0
 10  9  1  0
 10 11  1  0
 11 12  2  0
 12  8  1  0
 13 19  1  0
 13 14  2  0
 16 15  1  6
 16 17  1  0
 18 16  1  0
 18 19  1  1
 20 18  1  0
 20 22  1  0
 21 20  2  0
M  END
$$$$
