LCL.pdb
     RDKit          3D

 23 22  0  0  1  0  0  0  0  0999 V2000
    9.3554  -13.1901   18.7900 C   0  0  0  0  0  0  0  0  0  0  0  0
    8.0546  -13.8939   18.3804 C   0  0  2  0  0  0  0  0  0  0  0  0
    7.1468  -12.8706   17.7484 C   0  0  0  0  0  0  0  0  0  0  0  0
    7.4486  -14.4266   19.6324 C   0  0  0  0  0  0  0  0  0  0  0  0
    8.2901  -15.4035   20.3926 C   0  0  2  0  0  0  0  0  0  0  0  0
    8.2671  -16.7051   19.7520 N   0  0  0  0  0  0  0  0  0  0  0  0
    7.6631  -15.5536   21.7394 C   0  0  0  0  0  0  0  0  0  0  0  0
    7.1447  -14.5657   22.3387 O   0  0  0  0  0  0  0  0  0  0  0  0
    7.6221  -16.8043   22.4021 N   0  0  0  0  0  0  0  0  0  0  0  0
    7.0123  -16.9036   23.7115 C   0  0  1  0  0  0  0  0  0  0  0  0
    6.7262  -18.3669   24.0568 C   0  0  0  0  0  0  0  0  0  0  0  0
    8.0397  -19.0709   25.0540 S   0  0  0  0  0  0  0  0  0  0  0  0
    7.9184  -16.3433   24.7642 C   0  0  0  0  0  0  0  0  0  0  0  0
    9.1807  -16.4546   24.6824 O   0  0  0  0  0  0  0  0  0  0  0  0
    7.7873  -12.1550   25.6135 C   0  0  0  0  0  0  0  0  0  0  0  0
    6.7710  -12.9029   26.4989 C   0  0  2  0  0  0  0  0  0  0  0  0
    5.9864  -11.8043   27.1865 C   0  0  0  0  0  0  0  0  0  0  0  0
    7.5782  -13.7434   27.4234 C   0  0  0  0  0  0  0  0  0  0  0  0
    8.2794  -14.9098   26.8256 C   0  0  2  0  0  0  0  0  0  0  0  0
    7.4258  -15.6620   25.9039 N   0  0  0  0  0  0  0  0  0  0  0  0
    8.8267  -15.8764   27.8015 C   0  0  0  0  0  0  0  0  0  0  0  0
    9.9301  -15.6100   28.6177 O   0  0  0  0  0  0  0  0  0  0  0  0
    8.2949  -17.0075   27.9307 O   0  0  0  0  0  0  0  0  0  0  0  0
  2  3  1  1
  2  1  1  0
  4  2  1  0
  5  7  1  0
  5  4  1  0
  5  6  1  6
  7  8  2  0
  9  7  1  0
  9 10  1  0
 10 11  1  1
 12 11  1  0
 13 20  1  0
 13 10  1  0
 14 13  2  0
 16 15  1  6
 16 17  1  0
 18 16  1  0
 19 20  1  0
 19 18  1  1
 21 22  1  0
 21 19  1  0
 23 21  2  0
M  END
$$$$
