LCL.pdb
     RDKit          3D

 23 22  0  0  1  0  0  0  0  0999 V2000
    9.7894  -13.0369   18.5089 C   0  0  0  0  0  0  0  0  0  0  0  0
    8.2840  -13.2985   18.3660 C   0  0  2  0  0  0  0  0  0  0  0  0
    7.5622  -11.9862   18.5316 C   0  0  0  0  0  0  0  0  0  0  0  0
    7.9118  -14.2401   19.4584 C   0  0  0  0  0  0  0  0  0  0  0  0
    8.5738  -15.5816   19.4084 C   0  0  2  0  0  0  0  0  0  0  0  0
    7.9312  -16.4324   18.4244 N   0  0  0  0  0  0  0  0  0  0  0  0
    8.3718  -16.2104   20.7476 C   0  0  0  0  0  0  0  0  0  0  0  0
    7.2111  -16.4254   21.2062 O   0  0  0  0  0  0  0  0  0  0  0  0
    9.4674  -16.5917   21.5596 N   0  0  0  0  0  0  0  0  0  0  0  0
    9.2295  -17.0991   22.8946 C   0  0  1  0  0  0  0  0  0  0  0  0
   10.2615  -18.1724   23.2488 C   0  0  0  0  0  0  0  0  0  0  0  0
   10.1348  -18.6565   24.9706 S   0  0  0  0  0  0  0  0  0  0  0  0
    9.3312  -16.0004   23.9074 C   0  0  0  0  0  0  0  0  0  0  0  0
   10.2950  -15.1737   23.8964 O   0  0  0  0  0  0  0  0  0  0  0  0
    5.6841  -12.5907   27.3675 C   0  0  0  0  0  0  0  0  0  0  0  0
    7.1496  -13.0564   27.2606 C   0  0  2  0  0  0  0  0  0  0  0  0
    7.9223  -11.8002   26.9138 C   0  0  0  0  0  0  0  0  0  0  0  0
    7.1695  -14.0956   26.1965 C   0  0  0  0  0  0  0  0  0  0  0  0
    8.4661  -14.7819   25.9571 C   0  0  2  0  0  0  0  0  0  0  0  0
    8.3670  -15.8196   24.9288 N   0  0  0  0  0  0  0  0  0  0  0  0
    9.0711  -15.4076   27.1523 C   0  0  0  0  0  0  0  0  0  0  0  0
    9.9795  -14.7545   27.9906 O   0  0  0  0  0  0  0  0  0  0  0  0
    8.7742  -16.5890   27.4607 O   0  0  0  0  0  0  0  0  0  0  0  0
  2  3  1  1
  2  1  1  0
  4  2  1  0
  5  7  1  0
  5  4  1  0
  5  6  1  6
  7  8  2  0
  9  7  1  0
  9 10  1  0
 10 11  1  1
 12 11  1  0
 13 20  1  0
 13 10  1  0
 14 13  2  0
 16 15  1  6
 16 17  1  0
 18 16  1  0
 19 20  1  0
 19 18  1  1
 21 22  1  0
 21 19  1  0
 23 21  2  0
M  END
$$$$
