LCL.pdb
     RDKit          3D

 23 22  0  0  1  0  0  0  0  0999 V2000
    9.8963  -13.7320   19.1688 C   0  0  0  0  0  0  0  0  0  0  0  0
    8.4620  -13.6523   18.6289 C   0  0  2  0  0  0  0  0  0  0  0  0
    8.0648  -12.2001   18.5660 C   0  0  0  0  0  0  0  0  0  0  0  0
    7.6026  -14.3867   19.5987 C   0  0  0  0  0  0  0  0  0  0  0  0
    8.0122  -15.7974   19.8854 C   0  0  2  0  0  0  0  0  0  0  0  0
    7.4269  -16.7064   18.9178 N   0  0  0  0  0  0  0  0  0  0  0  0
    7.4510  -16.1438   21.2250 C   0  0  0  0  0  0  0  0  0  0  0  0
    6.2025  -16.1415   21.4370 O   0  0  0  0  0  0  0  0  0  0  0  0
    8.2895  -16.4884   22.3128 N   0  0  0  0  0  0  0  0  0  0  0  0
    7.7096  -16.7368   23.6160 C   0  0  1  0  0  0  0  0  0  0  0  0
    7.7513  -18.2317   23.9419 C   0  0  0  0  0  0  0  0  0  0  0  0
    7.2330  -18.5464   25.6293 S   0  0  0  0  0  0  0  0  0  0  0  0
    8.4642  -16.0046   24.6825 C   0  0  0  0  0  0  0  0  0  0  0  0
    9.7327  -16.0300   24.7356 O   0  0  0  0  0  0  0  0  0  0  0  0
    7.6750  -11.7357   26.1106 C   0  0  0  0  0  0  0  0  0  0  0  0
    6.7550  -12.7869   26.7622 C   0  0  2  0  0  0  0  0  0  0  0  0
    5.7833  -11.9763   27.5952 C   0  0  0  0  0  0  0  0  0  0  0  0
    7.6478  -13.6711   27.5583 C   0  0  0  0  0  0  0  0  0  0  0  0
    8.5205  -14.6012   26.7948 C   0  0  2  0  0  0  0  0  0  0  0  0
    7.8138  -15.2469   25.6867 N   0  0  0  0  0  0  0  0  0  0  0  0
    9.1443  -15.6737   27.5991 C   0  0  0  0  0  0  0  0  0  0  0  0
   10.2443  -15.4706   28.4378 O   0  0  0  0  0  0  0  0  0  0  0  0
    8.6855  -16.8425   27.5506 O   0  0  0  0  0  0  0  0  0  0  0  0
  2  3  1  1
  2  1  1  0
  4  2  1  0
  5  7  1  0
  5  4  1  0
  5  6  1  6
  7  8  2  0
  9  7  1  0
  9 10  1  0
 10 11  1  1
 12 11  1  0
 13 20  1  0
 13 10  1  0
 14 13  2  0
 16 15  1  1
 16 17  1  0
 18 16  1  0
 19 20  1  0
 19 18  1  1
 21 22  1  0
 21 19  1  0
 23 21  2  0
M  END
$$$$
