LCL.pdb
     RDKit          3D

 23 22  0  0  1  0  0  0  0  0999 V2000
    7.8730  -12.2544   19.0122 C   0  0  0  0  0  0  0  0  0  0  0  0
    8.6678  -13.4805   19.4814 C   0  0  2  0  0  0  0  0  0  0  0  0
   10.1266  -13.1054   19.5239 C   0  0  0  0  0  0  0  0  0  0  0  0
    8.4333  -14.5496   18.4712 C   0  0  0  0  0  0  0  0  0  0  0  0
    8.9098  -15.9158   18.8541 C   0  0  2  0  0  0  0  0  0  0  0  0
    8.5383  -16.8886   17.8437 N   0  0  0  0  0  0  0  0  0  0  0  0
    8.1977  -16.2817   20.1144 C   0  0  0  0  0  0  0  0  0  0  0  0
    6.9379  -16.4078   20.1466 O   0  0  0  0  0  0  0  0  0  0  0  0
    8.8993  -16.5022   21.3245 N   0  0  0  0  0  0  0  0  0  0  0  0
    8.1715  -16.8769   22.5186 C   0  0  1  0  0  0  0  0  0  0  0  0
    8.5592  -18.2910   22.9576 C   0  0  0  0  0  0  0  0  0  0  0  0
    7.7852  -18.7259   24.5154 S   0  0  0  0  0  0  0  0  0  0  0  0
    8.4769  -15.9377   23.6446 C   0  0  0  0  0  0  0  0  0  0  0  0
    9.6716  -15.6471   23.9621 O   0  0  0  0  0  0  0  0  0  0  0  0
    5.2722  -12.2602   27.4849 C   0  0  0  0  0  0  0  0  0  0  0  0
    6.6839  -12.7850   27.1566 C   0  0  2  0  0  0  0  0  0  0  0  0
    7.4829  -11.5416   26.8237 C   0  0  0  0  0  0  0  0  0  0  0  0
    6.5139  -13.7224   26.0142 C   0  0  0  0  0  0  0  0  0  0  0  0
    7.7322  -14.4346   25.5474 C   0  0  2  0  0  0  0  0  0  0  0  0
    7.4604  -15.3229   24.4156 N   0  0  0  0  0  0  0  0  0  0  0  0
    8.4184  -15.2403   26.5800 C   0  0  0  0  0  0  0  0  0  0  0  0
    9.6021  -14.8440   27.2095 O   0  0  0  0  0  0  0  0  0  0  0  0
    7.9384  -16.3458   26.9354 O   0  0  0  0  0  0  0  0  0  0  0  0
  2  3  1  6
  2  1  1  0
  4  2  1  0
  5  7  1  0
  5  4  1  0
  5  6  1  6
  7  8  2  0
  9  7  1  0
  9 10  1  0
 10 11  1  1
 12 11  1  0
 13 20  1  0
 13 10  1  0
 14 13  2  0
 16 15  1  6
 16 17  1  0
 18 16  1  0
 19 20  1  0
 19 18  1  1
 21 22  1  0
 21 19  1  0
 23 21  2  0
M  END
$$$$
