LCL.pdb
     RDKit          3D

 23 22  0  0  1  0  0  0  0  0999 V2000
    9.7231  -12.9351   19.2568 C   0  0  0  0  0  0  0  0  0  0  0  0
    8.3617  -13.3457   18.6796 C   0  0  2  0  0  0  0  0  0  0  0  0
    7.4757  -12.1271   18.6559 C   0  0  0  0  0  0  0  0  0  0  0  0
    7.8055  -14.3774   19.5986 C   0  0  0  0  0  0  0  0  0  0  0  0
    8.6059  -15.6367   19.7163 C   0  0  2  0  0  0  0  0  0  0  0  0
    8.2406  -16.5742   18.6709 N   0  0  0  0  0  0  0  0  0  0  0  0
    8.2409  -16.2569   21.0246 C   0  0  0  0  0  0  0  0  0  0  0  0
    7.1487  -16.8795   21.1768 O   0  0  0  0  0  0  0  0  0  0  0  0
    9.0989  -16.1749   22.1482 N   0  0  0  0  0  0  0  0  0  0  0  0
    8.6583  -16.6906   23.4273 C   0  0  1  0  0  0  0  0  0  0  0  0
    9.2239  -18.0937   23.6597 C   0  0  0  0  0  0  0  0  0  0  0  0
   10.9938  -18.1391   23.3763 S   0  0  0  0  0  0  0  0  0  0  0  0
    9.1224  -15.8084   24.5451 C   0  0  0  0  0  0  0  0  0  0  0  0
   10.3181  -15.3853   24.6051 O   0  0  0  0  0  0  0  0  0  0  0  0
    8.0831  -11.7165   25.6035 C   0  0  0  0  0  0  0  0  0  0  0  0
    6.9778  -12.7107   26.0108 C   0  0  2  0  0  0  0  0  0  0  0  0
    5.8373  -11.8350   26.4883 C   0  0  0  0  0  0  0  0  0  0  0  0
    7.5720  -13.5673   27.0718 C   0  0  0  0  0  0  0  0  0  0  0  0
    8.6709  -14.4784   26.6573 C   0  0  2  0  0  0  0  0  0  0  0  0
    8.2628  -15.3971   25.5927 N   0  0  0  0  0  0  0  0  0  0  0  0
    9.2458  -15.2982   27.7453 C   0  0  0  0  0  0  0  0  0  0  0  0
   10.0997  -14.7891   28.7282 O   0  0  0  0  0  0  0  0  0  0  0  0
    8.9723  -16.5223   27.8207 O   0  0  0  0  0  0  0  0  0  0  0  0
  2  3  1  1
  2  1  1  0
  4  2  1  0
  5  7  1  0
  5  4  1  0
  5  6  1  6
  7  8  2  0
  9  7  1  0
  9 10  1  0
 10 11  1  1
 12 11  1  0
 13 20  1  0
 13 10  1  0
 14 13  2  0
 16 15  1  1
 16 17  1  0
 18 16  1  0
 19 20  1  0
 19 18  1  1
 21 22  1  0
 21 19  1  0
 23 21  2  0
M  END
$$$$
