LCL.pdb
     RDKit          3D

 23 22  0  0  1  0  0  0  0  0999 V2000
    9.8705  -13.9623   18.7752 C   0  0  0  0  0  0  0  0  0  0  0  0
    8.3780  -13.8931   18.4247 C   0  0  2  0  0  0  0  0  0  0  0  0
    7.9703  -12.4428   18.3945 C   0  0  0  0  0  0  0  0  0  0  0  0
    7.6544  -14.6161   19.5073 C   0  0  0  0  0  0  0  0  0  0  0  0
    7.9877  -16.0684   19.6490 C   0  0  2  0  0  0  0  0  0  0  0  0
    7.3202  -16.8484   18.6238 N   0  0  0  0  0  0  0  0  0  0  0  0
    7.4477  -16.5061   20.9705 C   0  0  0  0  0  0  0  0  0  0  0  0
    6.2285  -16.3421   21.2711 O   0  0  0  0  0  0  0  0  0  0  0  0
    8.2746  -17.1215   21.9415 N   0  0  0  0  0  0  0  0  0  0  0  0
    7.7752  -17.3248   23.2851 C   0  0  1  0  0  0  0  0  0  0  0  0
    8.2639  -18.6656   23.8383 C   0  0  0  0  0  0  0  0  0  0  0  0
    7.8937  -18.8246   25.5855 S   0  0  0  0  0  0  0  0  0  0  0  0
    8.2527  -16.2396   24.2002 C   0  0  0  0  0  0  0  0  0  0  0  0
    9.4836  -15.9409   24.2911 O   0  0  0  0  0  0  0  0  0  0  0  0
    5.7105  -11.8430   27.7595 C   0  0  0  0  0  0  0  0  0  0  0  0
    7.0355  -12.5605   27.4346 C   0  0  2  0  0  0  0  0  0  0  0  0
    7.9424  -11.4645   26.9133 C   0  0  0  0  0  0  0  0  0  0  0  0
    6.6980  -13.6010   26.4265 C   0  0  0  0  0  0  0  0  0  0  0  0
    7.8140  -14.4633   25.9571 C   0  0  2  0  0  0  0  0  0  0  0  0
    7.3678  -15.4884   25.0115 N   0  0  0  0  0  0  0  0  0  0  0  0
    8.5626  -15.1539   27.0290 C   0  0  0  0  0  0  0  0  0  0  0  0
    8.2162  -16.4142   27.5252 O   0  0  0  0  0  0  0  0  0  0  0  0
    9.5703  -14.6074   27.5435 O   0  0  0  0  0  0  0  0  0  0  0  0
  2  3  1  1
  2  1  1  0
  4  2  1  0
  5  7  1  0
  5  4  1  0
  5  6  1  6
  7  8  2  0
  9  7  1  0
  9 10  1  0
 10 11  1  1
 12 11  1  0
 13 20  1  0
 13 10  1  0
 14 13  2  0
 16 15  1  6
 16 17  1  0
 18 16  1  0
 19 20  1  0
 19 18  1  1
 21 22  1  0
 21 19  1  0
 23 21  2  0
M  END
$$$$
