LCL.pdb
     RDKit          3D

 23 22  0  0  1  0  0  0  0  0999 V2000
   29.8693  -24.0092  -10.5633 C   0  0  0  0  0  0  0  0  0  0  0  0
   29.0166  -23.3171  -11.6352 C   0  0  2  0  0  0  0  0  0  0  0  0
   27.8905  -22.5934  -10.9434 C   0  0  0  0  0  0  0  0  0  0  0  0
   28.4824  -24.3952  -12.5132 C   0  0  0  0  0  0  0  0  0  0  0  0
   29.2967  -25.6501  -12.5637 C   0  0  2  0  0  0  0  0  0  0  0  0
   29.3116  -26.3023  -11.2676 N   0  0  0  0  0  0  0  0  0  0  0  0
   30.6979  -25.2406  -12.8775 C   0  0  0  0  0  0  0  0  0  0  0  0
   31.1304  -25.2304  -14.0677 O   0  0  0  0  0  0  0  0  0  0  0  0
   31.6004  -24.8477  -11.8595 N   0  0  0  0  0  0  0  0  0  0  0  0
   32.9714  -24.5295  -12.1990 C   0  0  1  0  0  0  0  0  0  0  0  0
   33.9224  -25.5755  -11.6125 C   0  0  0  0  0  0  0  0  0  0  0  0
   35.4624  -25.6437  -12.5284 S   0  0  0  0  0  0  0  0  0  0  0  0
   33.1602  -24.5068  -13.6846 C   0  0  0  0  0  0  0  0  0  0  0  0
   32.4689  -25.2438  -14.4536 O   0  0  0  0  0  0  0  0  0  0  0  0
   36.1338  -21.5766  -15.8906 C   0  0  0  0  0  0  0  0  0  0  0  0
   35.3629  -22.0431  -17.1413 C   0  0  2  0  0  0  0  0  0  0  0  0
   34.8958  -20.7606  -17.7990 C   0  0  0  0  0  0  0  0  0  0  0  0
   34.2598  -22.9063  -16.6406 C   0  0  0  0  0  0  0  0  0  0  0  0
   33.7561  -22.6199  -15.2718 C   0  0  2  0  0  0  0  0  0  0  0  0
   34.1126  -23.6693  -14.3148 N   0  0  0  0  0  0  0  0  0  0  0  0
   32.2947  -22.4177  -15.1740 C   0  0  0  0  0  0  0  0  0  0  0  0
   31.3649  -23.4605  -15.2252 O   0  0  0  0  0  0  0  0  0  0  0  0
   31.8290  -21.2588  -15.0360 O   0  0  0  0  0  0  0  0  0  0  0  0
  2  3  1  1
  2  1  1  0
  4  2  1  0
  5  7  1  0
  5  4  1  0
  5  6  1  1
  7  8  2  0
  9  7  1  0
  9 10  1  0
 10 11  1  1
 12 11  1  0
 13 20  1  0
 13 10  1  0
 14 13  2  0
 16 15  1  1
 16 17  1  0
 18 16  1  0
 19 20  1  0
 19 18  1  6
 21 22  1  0
 21 19  1  0
 23 21  2  0
M  END
$$$$
