LCL.pdb
     RDKit          3D

 23 22  0  0  1  0  0  0  0  0999 V2000
    9.5745  -13.7252   19.5997 C   0  0  0  0  0  0  0  0  0  0  0  0
    8.2130  -13.6526   18.8952 C   0  0  2  0  0  0  0  0  0  0  0  0
    7.7939  -12.2065   18.8328 C   0  0  0  0  0  0  0  0  0  0  0  0
    7.2611  -14.4361   19.7309 C   0  0  0  0  0  0  0  0  0  0  0  0
    7.6729  -15.8432   20.0322 C   0  0  2  0  0  0  0  0  0  0  0  0
    7.0135  -16.7723   19.1339 N   0  0  0  0  0  0  0  0  0  0  0  0
    7.1992  -16.1424   21.4162 C   0  0  0  0  0  0  0  0  0  0  0  0
    5.9858  -15.9895   21.7448 O   0  0  0  0  0  0  0  0  0  0  0  0
    8.0852  -16.6084   22.4178 N   0  0  0  0  0  0  0  0  0  0  0  0
    7.5998  -16.8157   23.7660 C   0  0  1  0  0  0  0  0  0  0  0  0
    7.7235  -18.2904   24.1563 C   0  0  0  0  0  0  0  0  0  0  0  0
    7.2220  -18.5598   25.8566 S   0  0  0  0  0  0  0  0  0  0  0  0
    8.3898  -16.0047   24.7465 C   0  0  0  0  0  0  0  0  0  0  0  0
    9.6596  -16.0139   24.7460 O   0  0  0  0  0  0  0  0  0  0  0  0
    7.4175  -11.7260   25.6014 C   0  0  0  0  0  0  0  0  0  0  0  0
    6.6602  -12.7172   26.5070 C   0  0  2  0  0  0  0  0  0  0  0  0
    5.6758  -11.8560   27.2717 C   0  0  0  0  0  0  0  0  0  0  0  0
    7.6949  -13.3611   27.3598 C   0  0  0  0  0  0  0  0  0  0  0  0
    8.5209  -14.4203   26.7231 C   0  0  2  0  0  0  0  0  0  0  0  0
    7.7731  -15.1864   25.7241 N   0  0  0  0  0  0  0  0  0  0  0  0
    9.1197  -15.3935   27.6614 C   0  0  0  0  0  0  0  0  0  0  0  0
    8.8940  -16.7715   27.5943 O   0  0  0  0  0  0  0  0  0  0  0  0
    9.8781  -14.9945   28.5805 O   0  0  0  0  0  0  0  0  0  0  0  0
  2  3  1  1
  2  1  1  0
  4  2  1  0
  5  7  1  0
  5  4  1  0
  5  6  1  6
  7  8  2  0
  9  7  1  0
  9 10  1  0
 10 11  1  1
 12 11  1  0
 13 20  1  0
 13 10  1  0
 14 13  2  0
 16 15  1  6
 16 17  1  0
 18 16  1  0
 19 20  1  0
 19 18  1  1
 21 22  1  0
 21 19  1  0
 23 21  2  0
M  END
$$$$
