LCL.pdb
     RDKit          3D

 23 22  0  0  1  0  0  0  0  0999 V2000
    9.7936  -13.3024   18.5070 C   0  0  0  0  0  0  0  0  0  0  0  0
    8.3196  -13.5877   18.1893 C   0  0  2  0  0  0  0  0  0  0  0  0
    7.5793  -12.2752   18.1808 C   0  0  0  0  0  0  0  0  0  0  0  0
    7.8128  -14.4654   19.2808 C   0  0  0  0  0  0  0  0  0  0  0  0
    8.4476  -15.8180   19.3693 C   0  0  2  0  0  0  0  0  0  0  0  0
    7.8821  -16.7140   18.3781 N   0  0  0  0  0  0  0  0  0  0  0  0
    8.1074  -16.3648   20.7164 C   0  0  0  0  0  0  0  0  0  0  0  0
    6.9189  -16.6815   21.0180 O   0  0  0  0  0  0  0  0  0  0  0  0
    9.0973  -16.5516   21.7116 N   0  0  0  0  0  0  0  0  0  0  0  0
    8.7004  -16.8160   23.0786 C   0  0  1  0  0  0  0  0  0  0  0  0
    9.5341  -17.9580   23.6645 C   0  0  0  0  0  0  0  0  0  0  0  0
   11.2890  -17.6055   23.5591 S   0  0  0  0  0  0  0  0  0  0  0  0
    8.9010  -15.6036   23.9349 C   0  0  0  0  0  0  0  0  0  0  0  0
    9.8807  -14.8165   23.7530 O   0  0  0  0  0  0  0  0  0  0  0  0
    7.1023  -12.3612   28.0933 C   0  0  0  0  0  0  0  0  0  0  0  0
    6.9799  -11.9708   26.6071 C   0  0  2  0  0  0  0  0  0  0  0  0
    5.7099  -11.1479   26.5346 C   0  0  0  0  0  0  0  0  0  0  0  0
    6.9180  -13.2520   25.8539 C   0  0  0  0  0  0  0  0  0  0  0  0
    8.1639  -14.0615   25.8091 C   0  0  2  0  0  0  0  0  0  0  0  0
    8.0179  -15.2658   24.9892 N   0  0  0  0  0  0  0  0  0  0  0  0
    8.6774  -14.4902   27.1277 C   0  0  0  0  0  0  0  0  0  0  0  0
    8.2059  -15.6141   27.8126 O   0  0  0  0  0  0  0  0  0  0  0  0
    9.5874  -13.8321   27.6913 O   0  0  0  0  0  0  0  0  0  0  0  0
  2  3  1  1
  2  1  1  0
  4  2  1  0
  5  7  1  0
  5  4  1  0
  5  6  1  6
  7  8  2  0
  9  7  1  0
  9 10  1  0
 10 11  1  1
 12 11  1  0
 13 20  1  0
 13 10  1  0
 14 13  2  0
 16 15  1  1
 16 17  1  0
 18 16  1  0
 19 20  1  0
 19 18  1  1
 21 22  1  0
 21 19  1  0
 23 21  2  0
M  END
$$$$
