LCL.pdb
     RDKit          3D

 23 22  0  0  1  0  0  0  0  0999 V2000
    9.3208  -13.4906   19.7628 C   0  0  0  0  0  0  0  0  0  0  0  0
    8.0492  -13.5021   18.9038 C   0  0  2  0  0  0  0  0  0  0  0  0
    7.4391  -12.1251   18.9510 C   0  0  0  0  0  0  0  0  0  0  0  0
    7.1312  -14.5008   19.5188 C   0  0  0  0  0  0  0  0  0  0  0  0
    7.7307  -15.8437   19.7974 C   0  0  2  0  0  0  0  0  0  0  0  0
    7.2722  -16.8196   18.8264 N   0  0  0  0  0  0  0  0  0  0  0  0
    7.2261  -16.2699   21.1365 C   0  0  0  0  0  0  0  0  0  0  0  0
    5.9863  -16.3870   21.3668 O   0  0  0  0  0  0  0  0  0  0  0  0
    8.1108  -16.5602   22.2033 N   0  0  0  0  0  0  0  0  0  0  0  0
    7.5793  -16.8482   23.5189 C   0  0  1  0  0  0  0  0  0  0  0  0
    7.6519  -18.3498   23.8062 C   0  0  0  0  0  0  0  0  0  0  0  0
    7.1003  -18.7231   25.4710 S   0  0  0  0  0  0  0  0  0  0  0  0
    8.3603  -16.1315   24.5770 C   0  0  0  0  0  0  0  0  0  0  0  0
    9.6296  -16.1604   24.6003 O   0  0  0  0  0  0  0  0  0  0  0  0
    8.1318  -11.7709   25.7271 C   0  0  0  0  0  0  0  0  0  0  0  0
    7.0147  -12.6487   26.3250 C   0  0  2  0  0  0  0  0  0  0  0  0
    6.0768  -11.6651   26.9945 C   0  0  0  0  0  0  0  0  0  0  0  0
    7.6904  -13.5815   27.2663 C   0  0  0  0  0  0  0  0  0  0  0  0
    8.4746  -14.6897   26.6609 C   0  0  2  0  0  0  0  0  0  0  0  0
    7.7352  -15.3853   25.6056 N   0  0  0  0  0  0  0  0  0  0  0  0
    8.9433  -15.7168   27.6156 C   0  0  0  0  0  0  0  0  0  0  0  0
    8.6113  -17.0714   27.5184 O   0  0  0  0  0  0  0  0  0  0  0  0
    9.6822  -15.3892   28.5776 O   0  0  0  0  0  0  0  0  0  0  0  0
  2  3  1  1
  2  1  1  0
  4  2  1  0
  5  7  1  0
  5  4  1  0
  5  6  1  6
  7  8  2  0
  9  7  1  0
  9 10  1  0
 10 11  1  1
 12 11  1  0
 13 20  1  0
 13 10  1  0
 14 13  2  0
 16 15  1  1
 16 17  1  0
 18 16  1  0
 19 20  1  0
 19 18  1  1
 21 22  1  0
 21 19  1  0
 23 21  2  0
M  END
$$$$
