LCL.pdb
     RDKit          3D

 23 22  0  0  1  0  0  0  0  0999 V2000
    7.3153  -12.7837   19.7231 C   0  0  0  0  0  0  0  0  0  0  0  0
    8.4657  -13.6897   20.1825 C   0  0  2  0  0  0  0  0  0  0  0  0
    9.7473  -12.9025   20.0917 C   0  0  0  0  0  0  0  0  0  0  0  0
    8.4957  -14.8457   19.2438 C   0  0  0  0  0  0  0  0  0  0  0  0
    9.4540  -15.9398   19.5969 C   0  0  2  0  0  0  0  0  0  0  0  0
    9.3664  -17.0253   18.6381 N   0  0  0  0  0  0  0  0  0  0  0  0
    9.0250  -16.4752   20.9231 C   0  0  0  0  0  0  0  0  0  0  0  0
    7.9499  -17.1320   21.0520 O   0  0  0  0  0  0  0  0  0  0  0  0
    9.8003  -16.2710   22.0903 N   0  0  0  0  0  0  0  0  0  0  0  0
    9.5692  -17.0937   23.2590 C   0  0  1  0  0  0  0  0  0  0  0  0
    9.9581  -18.5463   22.9738 C   0  0  0  0  0  0  0  0  0  0  0  0
    9.5876  -19.6074   24.3708 S   0  0  0  0  0  0  0  0  0  0  0  0
   10.3840  -16.6108   24.4192 C   0  0  0  0  0  0  0  0  0  0  0  0
   11.6388  -16.4406   24.3249 O   0  0  0  0  0  0  0  0  0  0  0  0
    8.2774  -13.7328   28.8399 C   0  0  0  0  0  0  0  0  0  0  0  0
    9.5889  -13.9668   28.0645 C   0  0  2  0  0  0  0  0  0  0  0  0
    9.3691  -13.2806   26.7317 C   0  0  0  0  0  0  0  0  0  0  0  0
    9.7474  -15.4428   27.9695 C   0  0  0  0  0  0  0  0  0  0  0  0
   10.5946  -15.9537   26.8602 C   0  0  2  0  0  0  0  0  0  0  0  0
    9.8086  -16.3179   25.6797 N   0  0  0  0  0  0  0  0  0  0  0  0
   11.4345  -17.1213   27.2030 C   0  0  0  0  0  0  0  0  0  0  0  0
   12.7367  -17.0172   27.7008 O   0  0  0  0  0  0  0  0  0  0  0  0
   10.9843  -18.2846   27.0516 O   0  0  0  0  0  0  0  0  0  0  0  0
  2  3  1  6
  2  1  1  0
  4  2  1  0
  5  7  1  0
  5  4  1  0
  5  6  1  6
  7  8  2  0
  9  7  1  0
  9 10  1  0
 10 11  1  6
 12 11  1  0
 13 20  1  0
 13 10  1  0
 14 13  2  0
 16 15  1  1
 16 17  1  0
 18 16  1  0
 19 20  1  0
 19 18  1  1
 21 22  1  0
 21 19  1  0
 23 21  2  0
M  END
$$$$
