LCL.pdb
     RDKit          3D

 23 22  0  0  1  0  0  0  0  0999 V2000
    7.1955  -12.3523   20.9694 C   0  0  0  0  0  0  0  0  0  0  0  0
    8.1801  -13.5246   20.8629 C   0  0  2  0  0  0  0  0  0  0  0  0
    9.2740  -13.1323   19.9036 C   0  0  0  0  0  0  0  0  0  0  0  0
    7.4072  -14.6802   20.3284 C   0  0  0  0  0  0  0  0  0  0  0  0
    8.1479  -15.9793   20.2660 C   0  0  2  0  0  0  0  0  0  0  0  0
    7.3534  -16.9888   19.5915 N   0  0  0  0  0  0  0  0  0  0  0  0
    8.3450  -16.4296   21.6759 C   0  0  0  0  0  0  0  0  0  0  0  0
    7.3712  -16.8205   22.3850 O   0  0  0  0  0  0  0  0  0  0  0  0
    9.6264  -16.4381   22.2785 N   0  0  0  0  0  0  0  0  0  0  0  0
    9.8008  -17.0331   23.5868 C   0  0  1  0  0  0  0  0  0  0  0  0
   10.9228  -18.0735   23.5541 C   0  0  0  0  0  0  0  0  0  0  0  0
   10.5148  -19.4392   22.4661 S   0  0  0  0  0  0  0  0  0  0  0  0
   10.1587  -15.9913   24.6016 C   0  0  0  0  0  0  0  0  0  0  0  0
   10.3773  -14.7858   24.2678 O   0  0  0  0  0  0  0  0  0  0  0  0
    8.8960  -12.6321   27.1922 C   0  0  0  0  0  0  0  0  0  0  0  0
    8.1151  -13.6663   26.3574 C   0  0  2  0  0  0  0  0  0  0  0  0
    6.6648  -13.2525   26.5012 C   0  0  0  0  0  0  0  0  0  0  0  0
    8.4310  -14.9920   26.9534 C   0  0  0  0  0  0  0  0  0  0  0  0
    9.8686  -15.3596   27.0411 C   0  0  2  0  0  0  0  0  0  0  0  0
   10.2736  -16.2860   25.9820 N   0  0  0  0  0  0  0  0  0  0  0  0
   10.2822  -15.9593   28.3278 C   0  0  0  0  0  0  0  0  0  0  0  0
   10.2719  -17.3347   28.5783 O   0  0  0  0  0  0  0  0  0  0  0  0
   10.6702  -15.2218   29.2683 O   0  0  0  0  0  0  0  0  0  0  0  0
  2  3  1  6
  2  1  1  0
  4  2  1  0
  5  7  1  0
  5  4  1  0
  5  6  1  6
  7  8  2  0
  9  7  1  0
  9 10  1  0
 10 11  1  6
 12 11  1  0
 13 20  1  0
 13 10  1  0
 14 13  2  0
 16 15  1  1
 16 17  1  0
 18 16  1  0
 19 20  1  0
 19 18  1  1
 21 22  1  0
 21 19  1  0
 23 21  2  0
M  END
$$$$
