LCL.pdb
     RDKit          3D

 23 22  0  0  1  0  0  0  0  0999 V2000
    3.9388  -23.2491   23.6984 C   0  0  0  0  0  0  0  0  0  0  0  0
    5.3075  -22.6462   24.0423 C   0  0  2  0  0  0  0  0  0  0  0  0
    6.1287  -23.7079   24.7272 C   0  0  0  0  0  0  0  0  0  0  0  0
    5.0489  -21.5085   24.9682 C   0  0  0  0  0  0  0  0  0  0  0  0
    4.8473  -20.1770   24.3149 C   0  0  2  0  0  0  0  0  0  0  0  0
    4.3432  -20.3414   22.9643 N   0  0  0  0  0  0  0  0  0  0  0  0
    6.1932  -19.5378   24.2182 C   0  0  0  0  0  0  0  0  0  0  0  0
    6.9534  -19.4468   25.2270 O   0  0  0  0  0  0  0  0  0  0  0  0
    6.6752  -19.0071   22.9970 N   0  0  0  0  0  0  0  0  0  0  0  0
    7.9301  -18.2855   22.9733 C   0  0  1  0  0  0  0  0  0  0  0  0
    8.4213  -18.1175   21.5334 C   0  0  0  0  0  0  0  0  0  0  0  0
    9.9229  -17.1399   21.4661 S   0  0  0  0  0  0  0  0  0  0  0  0
    7.7721  -16.9232   23.5752 C   0  0  0  0  0  0  0  0  0  0  0  0
    6.7918  -16.1738   23.2752 O   0  0  0  0  0  0  0  0  0  0  0  0
    6.0557  -13.1367   26.9218 C   0  0  0  0  0  0  0  0  0  0  0  0
    7.3838  -13.2122   26.1431 C   0  0  2  0  0  0  0  0  0  0  0  0
    7.2955  -12.0868   25.1326 C   0  0  0  0  0  0  0  0  0  0  0  0
    7.4239  -14.5706   25.5382 C   0  0  0  0  0  0  0  0  0  0  0  0
    8.7106  -14.9906   24.9237 C   0  0  2  0  0  0  0  0  0  0  0  0
    8.6983  -16.3941   24.5068 N   0  0  0  0  0  0  0  0  0  0  0  0
    9.9021  -14.7991   25.7780 C   0  0  0  0  0  0  0  0  0  0  0  0
   10.6400  -13.6124   25.8208 O   0  0  0  0  0  0  0  0  0  0  0  0
   10.3001  -15.7328   26.5188 O   0  0  0  0  0  0  0  0  0  0  0  0
  2  3  1  1
  2  1  1  0
  4  2  1  0
  5  7  1  0
  5  4  1  0
  5  6  1  6
  7  8  2  0
  9  7  1  0
  9 10  1  0
 10 11  1  6
 12 11  1  0
 13 20  1  0
 13 10  1  0
 14 13  2  0
 16 15  1  1
 16 17  1  0
 18 16  1  0
 19 20  1  0
 19 18  1  1
 21 22  1  0
 21 19  1  0
 23 21  2  0
M  END
$$$$
