LCL.pdb
     RDKit          3D

 23 22  0  0  1  0  0  0  0  0999 V2000
    9.7940  -13.5198   19.0620 C   0  0  0  0  0  0  0  0  0  0  0  0
    8.3142  -13.6089   18.6652 C   0  0  2  0  0  0  0  0  0  0  0  0
    7.7630  -12.2083   18.5934 C   0  0  0  0  0  0  0  0  0  0  0  0
    7.6330  -14.3831   19.7399 C   0  0  0  0  0  0  0  0  0  0  0  0
    8.1695  -15.7589   19.9841 C   0  0  2  0  0  0  0  0  0  0  0  0
    7.5114  -16.7244   19.1240 N   0  0  0  0  0  0  0  0  0  0  0  0
    7.8297  -16.1082   21.3954 C   0  0  0  0  0  0  0  0  0  0  0  0
    6.6288  -16.2699   21.7633 O   0  0  0  0  0  0  0  0  0  0  0  0
    8.8339  -16.2728   22.3802 N   0  0  0  0  0  0  0  0  0  0  0  0
    8.4625  -16.6416   23.7300 C   0  0  1  0  0  0  0  0  0  0  0  0
    9.0267  -18.0205   24.0803 C   0  0  0  0  0  0  0  0  0  0  0  0
   10.7505  -18.1598   23.6065 S   0  0  0  0  0  0  0  0  0  0  0  0
    8.9984  -15.6522   24.7185 C   0  0  0  0  0  0  0  0  0  0  0  0
   10.1392  -15.1150   24.5690 O   0  0  0  0  0  0  0  0  0  0  0  0
    7.5106  -11.7261   25.9235 C   0  0  0  0  0  0  0  0  0  0  0  0
    6.7343  -12.8666   26.6109 C   0  0  2  0  0  0  0  0  0  0  0  0
    5.5963  -12.1713   27.3299 C   0  0  0  0  0  0  0  0  0  0  0  0
    7.7082  -13.5334   27.5162 C   0  0  0  0  0  0  0  0  0  0  0  0
    8.7877  -14.3247   26.8697 C   0  0  2  0  0  0  0  0  0  0  0  0
    8.2712  -15.2604   25.8688 N   0  0  0  0  0  0  0  0  0  0  0  0
    9.6337  -15.1029   27.7997 C   0  0  0  0  0  0  0  0  0  0  0  0
    9.7390  -16.4966   27.7667 O   0  0  0  0  0  0  0  0  0  0  0  0
   10.3085  -14.5112   28.6792 O   0  0  0  0  0  0  0  0  0  0  0  0
  2  3  1  1
  2  1  1  0
  4  2  1  0
  5  7  1  0
  5  4  1  0
  5  6  1  6
  7  8  2  0
  9  7  1  0
  9 10  1  0
 10 11  1  1
 12 11  1  0
 13 20  1  0
 13 10  1  0
 14 13  2  0
 16 15  1  1
 16 17  1  0
 18 16  1  0
 19 20  1  0
 19 18  1  1
 21 22  1  0
 21 19  1  0
 23 21  2  0
M  END
$$$$
