EKK.pdb
     RDKit          3D

 28 27  0  0  1  0  0  0  0  0999 V2000
    8.9820  -17.7594   20.7977 N   0  0  0  0  0  0  0  0  0  0  0  0
   10.2707  -17.7412   21.5442 C   0  0  1  0  0  0  0  0  0  0  0  0
   11.3313  -17.2532   20.5794 C   0  0  0  0  0  0  0  0  0  0  0  0
   11.1911  -17.9582   19.2715 C   0  0  0  0  0  0  0  0  0  0  0  0
   12.5768  -18.2104   18.7418 C   0  0  0  0  0  0  0  0  0  0  0  0
   13.2787  -19.1475   19.2055 O   0  0  0  0  0  0  0  0  0  0  0  0
   10.1112  -16.7265   22.6045 C   0  0  0  0  0  0  0  0  0  0  0  0
   11.1195  -16.3937   23.2929 O   0  0  0  0  0  0  0  0  0  0  0  0
   13.0371  -17.3833   17.7419 O   0  0  0  0  0  0  0  0  0  0  0  0
    8.9008  -16.0618   22.9377 N   0  0  0  0  0  0  0  0  0  0  0  0
    8.8343  -15.1914   24.0972 C   0  0  1  0  0  0  0  0  0  0  0  0
    7.4907  -14.4477   24.0936 C   0  0  0  0  0  0  0  0  0  0  0  0
    7.5057  -13.5207   25.2840 C   0  0  0  0  0  0  0  0  0  0  0  0
    6.2822  -12.6747   25.3977 C   0  0  0  0  0  0  0  0  0  0  0  0
    6.3935  -11.7888   26.6194 C   0  0  0  0  0  0  0  0  0  0  0  0
    5.1434  -11.0357   26.7043 N   0  0  0  0  0  0  0  0  0  0  0  0
    8.9872  -15.9484   25.3751 C   0  0  0  0  0  0  0  0  0  0  0  0
    8.1229  -16.8015   25.7355 O   0  0  0  0  0  0  0  0  0  0  0  0
   10.0855  -15.7453   26.2184 N   0  0  0  0  0  0  0  0  0  0  0  0
   10.2731  -16.5875   27.4802 C   0  0  1  0  0  0  0  0  0  0  0  0
   11.2239  -17.5961   26.9997 C   0  0  0  0  0  0  0  0  0  0  0  0
   11.8880  -18.5950   27.7854 C   0  0  0  0  0  0  0  0  0  0  0  0
   12.8153  -19.5715   27.2737 C   0  0  0  0  0  0  0  0  0  0  0  0
   13.4963  -20.5456   28.1096 C   0  0  0  0  0  0  0  0  0  0  0  0
   14.4302  -21.3066   27.2002 N   0  0  0  0  0  0  0  0  0  0  0  0
   10.5298  -15.6008   28.4866 C   0  0  0  0  0  0  0  0  0  0  0  0
   10.6842  -14.2289   28.2741 O   0  0  0  0  0  0  0  0  0  0  0  0
   10.6545  -15.9327   29.7186 O   0  0  0  0  0  0  0  0  0  0  0  0
  2  7  1  0
  2  1  1  6
  3  2  1  0
  3  4  1  0
  4  5  1  0
  5  6  2  0
  7  8  2  0
  9  5  1  0
 10 11  1  0
 10  7  1  0
 11 12  1  1
 13 12  1  0
 14 15  1  0
 14 13  1  0
 16 15  1  0
 17 11  1  0
 17 19  1  0
 18 17  2  0
 20 19  1  0
 20 21  1  6
 22 21  1  0
 23 24  1  0
 23 22  1  0
 24 25  1  0
 26 20  1  0
 27 26  1  0
 28 26  2  0
M  END
$$$$
