EKK.pdb
     RDKit          3D

 28 27  0  0  1  0  0  0  0  0999 V2000
   10.4467  -19.4851   19.7863 N   0  0  0  0  0  0  0  0  0  0  0  0
   10.2826  -18.0132   19.6285 C   0  0  1  0  0  0  0  0  0  0  0  0
    9.7906  -17.7742   18.2162 C   0  0  0  0  0  0  0  0  0  0  0  0
   10.3712  -18.7960   17.2963 C   0  0  0  0  0  0  0  0  0  0  0  0
   11.0339  -18.0610   16.1628 C   0  0  0  0  0  0  0  0  0  0  0  0
   11.7619  -18.6761   15.3397 O   0  0  0  0  0  0  0  0  0  0  0  0
    9.2083  -17.6223   20.5625 C   0  0  0  0  0  0  0  0  0  0  0  0
    8.7513  -16.4433   20.5141 O   0  0  0  0  0  0  0  0  0  0  0  0
   10.8123  -16.7056   16.0663 O   0  0  0  0  0  0  0  0  0  0  0  0
    8.6141  -18.4656   21.5391 N   0  0  0  0  0  0  0  0  0  0  0  0
    7.5388  -17.9732   22.3803 C   0  0  1  0  0  0  0  0  0  0  0  0
    6.6627  -19.1544   22.8226 C   0  0  0  0  0  0  0  0  0  0  0  0
    5.8941  -19.6035   21.6043 C   0  0  0  0  0  0  0  0  0  0  0  0
    5.0825  -20.8347   21.8306 C   0  0  0  0  0  0  0  0  0  0  0  0
    4.3452  -21.1932   20.5587 C   0  0  0  0  0  0  0  0  0  0  0  0
    3.5355  -22.3716   20.8636 N   0  0  0  0  0  0  0  0  0  0  0  0
    8.0534  -17.2507   23.5813 C   0  0  0  0  0  0  0  0  0  0  0  0
    9.2160  -17.4769   24.0304 O   0  0  0  0  0  0  0  0  0  0  0  0
    7.2747  -16.3012   24.2528 N   0  0  0  0  0  0  0  0  0  0  0  0
    7.8261  -15.5470   25.4627 C   0  0  1  0  0  0  0  0  0  0  0  0
    6.8395  -14.4686   25.5886 C   0  0  0  0  0  0  0  0  0  0  0  0
    6.9992  -13.2363   26.3040 C   0  0  0  0  0  0  0  0  0  0  0  0
    6.0082  -12.1945   26.3931 C   0  0  0  0  0  0  0  0  0  0  0  0
    6.1922  -10.9767   27.1641 C   0  0  0  0  0  0  0  0  0  0  0  0
    4.8949  -10.2114   27.0652 N   0  0  0  0  0  0  0  0  0  0  0  0
    8.0548  -16.5938   26.4135 C   0  0  0  0  0  0  0  0  0  0  0  0
    9.0697  -16.6275   27.3727 O   0  0  0  0  0  0  0  0  0  0  0  0
    7.3075  -17.6351   26.4400 O   0  0  0  0  0  0  0  0  0  0  0  0
  2  7  1  0
  2  1  1  6
  3  2  1  0
  3  4  1  0
  4  5  1  0
  5  6  2  0
  7  8  2  0
  9  5  1  0
 10 11  1  0
 10  7  1  0
 11 12  1  1
 13 12  1  0
 14 15  1  0
 14 13  1  0
 16 15  1  0
 17 11  1  0
 17 19  1  0
 18 17  2  0
 20 19  1  0
 20 21  1  1
 22 21  1  0
 23 24  1  0
 23 22  1  0
 24 25  1  0
 26 20  1  0
 27 26  1  0
 28 26  2  0
M  END
$$$$
