EKK.pdb
     RDKit          3D

 28 27  0  0  1  0  0  0  0  0999 V2000
    8.2794  -17.6005   20.9312 N   0  0  0  0  0  0  0  0  0  0  0  0
    9.6740  -17.4947   21.4430 C   0  0  1  0  0  0  0  0  0  0  0  0
   10.5289  -17.0048   20.2928 C   0  0  0  0  0  0  0  0  0  0  0  0
   10.9215  -18.1546   19.4261 C   0  0  0  0  0  0  0  0  0  0  0  0
   11.8270  -17.6216   18.3489 C   0  0  0  0  0  0  0  0  0  0  0  0
   12.7341  -16.7935   18.6268 O   0  0  0  0  0  0  0  0  0  0  0  0
    9.6477  -16.4422   22.4778 C   0  0  0  0  0  0  0  0  0  0  0  0
   10.7374  -16.0681   23.0013 O   0  0  0  0  0  0  0  0  0  0  0  0
   11.6232  -18.0729   17.0642 O   0  0  0  0  0  0  0  0  0  0  0  0
    8.4844  -15.7830   22.9575 N   0  0  0  0  0  0  0  0  0  0  0  0
    8.5656  -14.8770   24.0886 C   0  0  1  0  0  0  0  0  0  0  0  0
    7.2795  -14.0408   24.1587 C   0  0  0  0  0  0  0  0  0  0  0  0
    7.4271  -13.1179   25.3431 C   0  0  0  0  0  0  0  0  0  0  0  0
    6.2422  -12.2395   25.5672 C   0  0  0  0  0  0  0  0  0  0  0  0
    6.4850  -11.3646   26.7777 C   0  0  0  0  0  0  0  0  0  0  0  0
    5.2863  -10.5452   26.9478 N   0  0  0  0  0  0  0  0  0  0  0  0
    8.7631  -15.6058   25.3767 C   0  0  0  0  0  0  0  0  0  0  0  0
    7.9942  -16.5542   25.7142 O   0  0  0  0  0  0  0  0  0  0  0  0
    9.7997  -15.2704   26.2551 N   0  0  0  0  0  0  0  0  0  0  0  0
   10.0931  -16.1265   27.4871 C   0  0  1  0  0  0  0  0  0  0  0  0
   11.2195  -16.9314   27.0017 C   0  0  0  0  0  0  0  0  0  0  0  0
   11.8887  -17.9863   27.7055 C   0  0  0  0  0  0  0  0  0  0  0  0
   12.9941  -18.7546   27.1925 C   0  0  0  0  0  0  0  0  0  0  0  0
   13.5605  -19.9023   27.8804 C   0  0  0  0  0  0  0  0  0  0  0  0
   14.4837  -20.5756   26.8941 N   0  0  0  0  0  0  0  0  0  0  0  0
   10.1428  -15.1593   28.5426 C   0  0  0  0  0  0  0  0  0  0  0  0
   10.0303  -15.4254   29.9092 O   0  0  0  0  0  0  0  0  0  0  0  0
   10.2898  -13.9115   28.2871 O   0  0  0  0  0  0  0  0  0  0  0  0
  2  7  1  0
  2  1  1  6
  3  2  1  0
  3  4  1  0
  4  5  1  0
  5  6  2  0
  7  8  2  0
  9  5  1  0
 10 11  1  0
 10  7  1  0
 11 12  1  1
 13 12  1  0
 14 15  1  0
 14 13  1  0
 16 15  1  0
 17 11  1  0
 17 19  1  0
 18 17  2  0
 20 19  1  0
 20 21  1  6
 22 21  1  0
 23 24  1  0
 23 22  1  0
 24 25  1  0
 26 20  1  0
 27 26  1  0
 28 26  2  0
M  END
$$$$
