EKK.pdb
     RDKit          3D

 28 27  0  0  1  0  0  0  0  0999 V2000
   11.7908  -16.6672   18.6577 N   0  0  0  0  0  0  0  0  0  0  0  0
   10.4390  -17.1339   19.0737 C   0  0  1  0  0  0  0  0  0  0  0  0
   10.5637  -18.6073   19.4016 C   0  0  0  0  0  0  0  0  0  0  0  0
   11.1294  -19.3418   18.2320 C   0  0  0  0  0  0  0  0  0  0  0  0
   11.1658  -20.8031   18.5891 C   0  0  0  0  0  0  0  0  0  0  0  0
   10.1201  -21.5026   18.5312 O   0  0  0  0  0  0  0  0  0  0  0  0
   10.1258  -16.4096   20.3213 C   0  0  0  0  0  0  0  0  0  0  0  0
   10.9991  -16.3548   21.2355 O   0  0  0  0  0  0  0  0  0  0  0  0
   12.3754  -21.3345   18.9763 O   0  0  0  0  0  0  0  0  0  0  0  0
    8.9041  -15.7431   20.6062 N   0  0  0  0  0  0  0  0  0  0  0  0
    8.6932  -15.1128   21.8965 C   0  0  1  0  0  0  0  0  0  0  0  0
    7.6158  -14.0274   21.7579 C   0  0  0  0  0  0  0  0  0  0  0  0
    7.2195  -13.9940   20.3024 C   0  0  0  0  0  0  0  0  0  0  0  0
    8.0876  -13.1140   19.4671 C   0  0  0  0  0  0  0  0  0  0  0  0
    7.5187  -13.0266   18.0676 C   0  0  0  0  0  0  0  0  0  0  0  0
    8.3941  -12.1284   17.3165 N   0  0  0  0  0  0  0  0  0  0  0  0
    8.2837  -16.0982   22.9408 C   0  0  0  0  0  0  0  0  0  0  0  0
    7.5581  -17.0946   22.6489 O   0  0  0  0  0  0  0  0  0  0  0  0
    8.6841  -15.9589   24.2746 N   0  0  0  0  0  0  0  0  0  0  0  0
    8.3411  -17.0270   25.3131 C   0  0  1  0  0  0  0  0  0  0  0  0
    9.5254  -16.9624   26.1766 C   0  0  0  0  0  0  0  0  0  0  0  0
    9.8098  -17.7939   27.3096 C   0  0  0  0  0  0  0  0  0  0  0  0
   11.0131  -17.7362   28.0995 C   0  0  0  0  0  0  0  0  0  0  0  0
   11.3120  -18.6672   29.1744 C   0  0  0  0  0  0  0  0  0  0  0  0
   12.6854  -18.3018   29.6830 N   0  0  0  0  0  0  0  0  0  0  0  0
    7.0030  -16.6842   25.6927 C   0  0  0  0  0  0  0  0  0  0  0  0
    6.3289  -15.5068   25.3604 O   0  0  0  0  0  0  0  0  0  0  0  0
    6.2993  -17.4760   26.4150 O   0  0  0  0  0  0  0  0  0  0  0  0
  2  7  1  0
  2  1  1  1
  3  2  1  0
  3  4  1  0
  4  5  1  0
  5  6  2  0
  7  8  2  0
  9  5  1  0
 10 11  1  0
 10  7  1  0
 11 12  1  6
 13 12  1  0
 14 15  1  0
 14 13  1  0
 16 15  1  0
 17 11  1  0
 17 19  1  0
 18 17  2  0
 20 19  1  0
 20 21  1  1
 22 21  1  0
 23 24  1  0
 23 22  1  0
 24 25  1  0
 26 20  1  0
 27 26  1  0
 28 26  2  0
M  END
$$$$
