EKK.pdb
     RDKit          3D

 28 27  0  0  1  0  0  0  0  0999 V2000
   10.4202  -18.0504   19.0152 N   0  0  0  0  0  0  0  0  0  0  0  0
   11.3576  -17.7884   20.1425 C   0  0  1  0  0  0  0  0  0  0  0  0
   12.6077  -17.1789   19.5428 C   0  0  0  0  0  0  0  0  0  0  0  0
   12.7896  -17.6665   18.1440 C   0  0  0  0  0  0  0  0  0  0  0  0
   14.0646  -17.0656   17.6168 C   0  0  0  0  0  0  0  0  0  0  0  0
   14.3301  -17.1052   16.3865 O   0  0  0  0  0  0  0  0  0  0  0  0
   10.7049  -16.7656   20.9835 C   0  0  0  0  0  0  0  0  0  0  0  0
   11.3449  -16.2708   21.9566 O   0  0  0  0  0  0  0  0  0  0  0  0
   14.9158  -16.4786   18.5259 O   0  0  0  0  0  0  0  0  0  0  0  0
    9.3891  -16.2620   20.8016 N   0  0  0  0  0  0  0  0  0  0  0  0
    8.8189  -15.3309   21.7577 C   0  0  1  0  0  0  0  0  0  0  0  0
    7.5678  -14.6830   21.1467 C   0  0  0  0  0  0  0  0  0  0  0  0
    8.0496  -13.7382   20.0736 C   0  0  0  0  0  0  0  0  0  0  0  0
    7.5728  -14.0949   18.7057 C   0  0  0  0  0  0  0  0  0  0  0  0
    8.1650  -13.1332   17.6986 C   0  0  0  0  0  0  0  0  0  0  0  0
    7.6445  -13.5259   16.3902 N   0  0  0  0  0  0  0  0  0  0  0  0
    8.4625  -15.9981   23.0450 C   0  0  0  0  0  0  0  0  0  0  0  0
    8.0531  -17.1966   23.0673 O   0  0  0  0  0  0  0  0  0  0  0  0
    8.5670  -15.3280   24.2693 N   0  0  0  0  0  0  0  0  0  0  0  0
    8.1396  -16.0026   25.5728 C   0  0  1  0  0  0  0  0  0  0  0  0
    8.8413  -15.1710   26.5567 C   0  0  0  0  0  0  0  0  0  0  0  0
    9.1821  -15.5330   27.9016 C   0  0  0  0  0  0  0  0  0  0  0  0
    9.9526  -14.7218   28.8091 C   0  0  0  0  0  0  0  0  0  0  0  0
   10.3376  -15.1544   30.1417 C   0  0  0  0  0  0  0  0  0  0  0  0
   11.0805  -13.9979   30.7655 N   0  0  0  0  0  0  0  0  0  0  0  0
    6.7190  -16.1124   25.4238 C   0  0  0  0  0  0  0  0  0  0  0  0
    5.9213  -15.3599   24.5587 O   0  0  0  0  0  0  0  0  0  0  0  0
    6.0453  -16.9484   26.1245 O   0  0  0  0  0  0  0  0  0  0  0  0
  2  7  1  0
  2  1  1  6
  3  2  1  0
  3  4  1  0
  4  5  1  0
  5  6  2  0
  7  8  2  0
  9  5  1  0
 10 11  1  0
 10  7  1  0
 11 12  1  6
 13 12  1  0
 14 15  1  0
 14 13  1  0
 16 15  1  0
 17 11  1  0
 17 19  1  0
 18 17  2  0
 20 19  1  0
 20 21  1  1
 22 21  1  0
 23 24  1  0
 23 22  1  0
 24 25  1  0
 26 20  1  0
 27 26  1  0
 28 26  2  0
M  END
$$$$
