EKK.pdb
     RDKit          3D

 28 27  0  0  1  0  0  0  0  0999 V2000
   11.9086  -19.9986   19.3777 N   0  0  0  0  0  0  0  0  0  0  0  0
   12.2095  -18.5687   19.6659 C   0  0  1  0  0  0  0  0  0  0  0  0
   12.3312  -17.8665   18.3295 C   0  0  0  0  0  0  0  0  0  0  0  0
   12.1837  -18.8551   17.2211 C   0  0  0  0  0  0  0  0  0  0  0  0
   12.3190  -18.1047   15.9238 C   0  0  0  0  0  0  0  0  0  0  0  0
   13.2392  -18.3893   15.1126 O   0  0  0  0  0  0  0  0  0  0  0  0
   11.0202  -18.0356   20.3593 C   0  0  0  0  0  0  0  0  0  0  0  0
   10.9518  -16.7942   20.5952 O   0  0  0  0  0  0  0  0  0  0  0  0
   11.4053  -17.1076   15.6661 O   0  0  0  0  0  0  0  0  0  0  0  0
    9.9070  -18.8008   20.7990 N   0  0  0  0  0  0  0  0  0  0  0  0
    8.8311  -18.1734   21.5442 C   0  0  1  0  0  0  0  0  0  0  0  0
    7.6812  -19.1774   21.7121 C   0  0  0  0  0  0  0  0  0  0  0  0
    7.1178  -19.4248   20.3344 C   0  0  0  0  0  0  0  0  0  0  0  0
    5.9375  -20.3372   20.3269 C   0  0  0  0  0  0  0  0  0  0  0  0
    5.4338  -20.4982   18.9092 C   0  0  0  0  0  0  0  0  0  0  0  0
    4.1997  -21.2777   18.9905 N   0  0  0  0  0  0  0  0  0  0  0  0
    9.2826  -17.6963   22.8850 C   0  0  0  0  0  0  0  0  0  0  0  0
   10.2967  -18.2029   23.4503 O   0  0  0  0  0  0  0  0  0  0  0  0
    8.6061  -16.6766   23.5642 N   0  0  0  0  0  0  0  0  0  0  0  0
    9.0346  -16.2495   24.9680 C   0  0  1  0  0  0  0  0  0  0  0  0
    8.3421  -14.9617   25.0879 C   0  0  0  0  0  0  0  0  0  0  0  0
    8.2857  -14.1204   26.2476 C   0  0  0  0  0  0  0  0  0  0  0  0
    7.5859  -12.8638   26.3275 C   0  0  0  0  0  0  0  0  0  0  0  0
    7.4368  -12.1059   27.5582 C   0  0  0  0  0  0  0  0  0  0  0  0
    6.6611  -10.8617   27.1995 N   0  0  0  0  0  0  0  0  0  0  0  0
    8.7748  -17.4209   25.7506 C   0  0  0  0  0  0  0  0  0  0  0  0
    7.9829  -18.5066   25.3697 O   0  0  0  0  0  0  0  0  0  0  0  0
    9.2705  -17.5519   26.9257 O   0  0  0  0  0  0  0  0  0  0  0  0
  2  7  1  0
  2  1  1  6
  3  2  1  0
  3  4  1  0
  4  5  1  0
  5  6  2  0
  7  8  2  0
  9  5  1  0
 10 11  1  0
 10  7  1  0
 11 12  1  1
 13 12  1  0
 14 15  1  0
 14 13  1  0
 16 15  1  0
 17 11  1  0
 17 19  1  0
 18 17  2  0
 20 19  1  0
 20 21  1  1
 22 21  1  0
 23 24  1  0
 23 22  1  0
 24 25  1  0
 26 20  1  0
 27 26  1  0
 28 26  2  0
M  END
$$$$
