EKK.pdb
     RDKit          3D

 28 27  0  0  1  0  0  0  0  0999 V2000
   11.3821  -18.0389   16.8479 N   0  0  0  0  0  0  0  0  0  0  0  0
   10.3177  -18.4086   17.8220 C   0  0  1  0  0  0  0  0  0  0  0  0
   10.5910  -19.8349   18.2520 C   0  0  0  0  0  0  0  0  0  0  0  0
   11.9355  -20.2632   17.7659 C   0  0  0  0  0  0  0  0  0  0  0  0
   12.1633  -21.6713   18.2451 C   0  0  0  0  0  0  0  0  0  0  0  0
   13.3011  -22.2030   18.1524 O   0  0  0  0  0  0  0  0  0  0  0  0
   10.5148  -17.5296   18.9915 C   0  0  0  0  0  0  0  0  0  0  0  0
   11.6476  -17.5015   19.5548 O   0  0  0  0  0  0  0  0  0  0  0  0
   11.0883  -22.3434   18.7821 O   0  0  0  0  0  0  0  0  0  0  0  0
    9.5294  -16.6815   19.5640 N   0  0  0  0  0  0  0  0  0  0  0  0
    9.8672  -15.8013   20.6674 C   0  0  1  0  0  0  0  0  0  0  0  0
    8.7351  -14.7828   20.8654 C   0  0  0  0  0  0  0  0  0  0  0  0
    8.4723  -14.1599   19.5165 C   0  0  0  0  0  0  0  0  0  0  0  0
    7.3033  -13.2329   19.5043 C   0  0  0  0  0  0  0  0  0  0  0  0
    7.1373  -12.6493   18.1181 C   0  0  0  0  0  0  0  0  0  0  0  0
    5.9631  -11.7798   18.1692 N   0  0  0  0  0  0  0  0  0  0  0  0
   10.0937  -16.5552   21.9361 C   0  0  0  0  0  0  0  0  0  0  0  0
    9.2247  -17.3638   22.3785 O   0  0  0  0  0  0  0  0  0  0  0  0
   11.2684  -16.3980   22.6804 N   0  0  0  0  0  0  0  0  0  0  0  0
   11.5580  -17.2891   23.8882 C   0  0  1  0  0  0  0  0  0  0  0  0
   12.1520  -18.4589   23.2317 C   0  0  0  0  0  0  0  0  0  0  0  0
   12.5155  -19.7000   23.8508 C   0  0  0  0  0  0  0  0  0  0  0  0
   13.0452  -20.8478   23.1599 C   0  0  0  0  0  0  0  0  0  0  0  0
   13.3716  -22.1006   23.8195 C   0  0  0  0  0  0  0  0  0  0  0  0
   13.9398  -23.0062   22.7538 N   0  0  0  0  0  0  0  0  0  0  0  0
   12.2281  -16.3983   24.7880 C   0  0  0  0  0  0  0  0  0  0  0  0
   12.8214  -15.1796   24.4504 O   0  0  0  0  0  0  0  0  0  0  0  0
   12.3454  -16.6834   26.0325 O   0  0  0  0  0  0  0  0  0  0  0  0
  2  7  1  0
  2  1  1  6
  3  2  1  0
  3  4  1  0
  4  5  1  0
  5  6  2  0
  7  8  2  0
  9  5  1  0
 10 11  1  0
 10  7  1  0
 11 12  1  1
 13 12  1  0
 14 15  1  0
 14 13  1  0
 16 15  1  0
 17 11  1  0
 17 19  1  0
 18 17  2  0
 20 19  1  0
 20 21  1  6
 22 21  1  0
 23 24  1  0
 23 22  1  0
 24 25  1  0
 26 20  1  0
 27 26  1  0
 28 26  2  0
M  END
$$$$
