EKK.pdb
     RDKit          3D

 28 27  0  0  1  0  0  0  0  0999 V2000
    8.0612  -13.9846   18.2071 N   0  0  0  0  0  0  0  0  0  0  0  0
    7.4628  -14.9864   19.1326 C   0  0  1  0  0  0  0  0  0  0  0  0
    7.9966  -16.3419   18.7187 C   0  0  0  0  0  0  0  0  0  0  0  0
    7.9609  -16.4695   17.2322 C   0  0  0  0  0  0  0  0  0  0  0  0
    8.4156  -17.8615   16.8858 C   0  0  0  0  0  0  0  0  0  0  0  0
    9.4243  -18.0419   16.1538 O   0  0  0  0  0  0  0  0  0  0  0  0
    7.9968  -14.6709   20.4723 C   0  0  0  0  0  0  0  0  0  0  0  0
    9.2504  -14.6182   20.6371 O   0  0  0  0  0  0  0  0  0  0  0  0
    7.6907  -18.9144   17.3971 O   0  0  0  0  0  0  0  0  0  0  0  0
    7.2191  -14.4083   21.6317 N   0  0  0  0  0  0  0  0  0  0  0  0
    7.8629  -14.1502   22.9067 C   0  0  1  0  0  0  0  0  0  0  0  0
    6.8521  -13.4947   23.8589 C   0  0  0  0  0  0  0  0  0  0  0  0
    7.5866  -13.2204   25.1480 C   0  0  0  0  0  0  0  0  0  0  0  0
    6.7171  -12.6608   26.2234 C   0  0  0  0  0  0  0  0  0  0  0  0
    7.5603  -12.3421   27.4388 C   0  0  0  0  0  0  0  0  0  0  0  0
    6.6354  -11.9222   28.4902 N   0  0  0  0  0  0  0  0  0  0  0  0
    8.4010  -15.3982   23.5250 C   0  0  0  0  0  0  0  0  0  0  0  0
    7.6936  -16.4463   23.6005 O   0  0  0  0  0  0  0  0  0  0  0  0
    9.7003  -15.4568   24.0417 N   0  0  0  0  0  0  0  0  0  0  0  0
   10.2503  -16.7520   24.6390 C   0  0  1  0  0  0  0  0  0  0  0  0
   11.4063  -16.9886   23.7674 C   0  0  0  0  0  0  0  0  0  0  0  0
   12.3532  -18.0607   23.8671 C   0  0  0  0  0  0  0  0  0  0  0  0
   13.4625  -18.2735   22.9729 C   0  0  0  0  0  0  0  0  0  0  0  0
   14.3768  -19.3975   23.0828 C   0  0  0  0  0  0  0  0  0  0  0  0
   15.3214  -19.2927   21.9102 N   0  0  0  0  0  0  0  0  0  0  0  0
   10.2986  -16.4610   26.0409 C   0  0  0  0  0  0  0  0  0  0  0  0
   10.4609  -17.3916   27.0698 O   0  0  0  0  0  0  0  0  0  0  0  0
   10.1764  -15.2588   26.4692 O   0  0  0  0  0  0  0  0  0  0  0  0
  2  7  1  0
  2  1  1  6
  3  2  1  0
  3  4  1  0
  4  5  1  0
  5  6  2  0
  7  8  2  0
  9  5  1  0
 10 11  1  0
 10  7  1  0
 11 12  1  1
 13 12  1  0
 14 15  1  0
 14 13  1  0
 16 15  1  0
 17 11  1  0
 17 19  1  0
 18 17  2  0
 20 19  1  0
 20 21  1  6
 22 21  1  0
 23 24  1  0
 23 22  1  0
 24 25  1  0
 26 20  1  0
 27 26  1  0
 28 26  2  0
M  END
$$$$
