EKK.pdb
     RDKit          3D

 28 27  0  0  1  0  0  0  0  0999 V2000
    9.3224  -19.4148   17.8264 N   0  0  0  0  0  0  0  0  0  0  0  0
    8.3036  -19.1749   18.8860 C   0  0  1  0  0  0  0  0  0  0  0  0
    8.0970  -20.4922   19.6042 C   0  0  0  0  0  0  0  0  0  0  0  0
    9.4057  -21.1896   19.7725 C   0  0  0  0  0  0  0  0  0  0  0  0
    9.1381  -22.4910   20.4790 C   0  0  0  0  0  0  0  0  0  0  0  0
   10.0809  -23.2850   20.7371 O   0  0  0  0  0  0  0  0  0  0  0  0
    8.9199  -18.2257   19.8339 C   0  0  0  0  0  0  0  0  0  0  0  0
   10.0860  -18.4593   20.2663 O   0  0  0  0  0  0  0  0  0  0  0  0
    7.8357  -22.7716   20.8261 O   0  0  0  0  0  0  0  0  0  0  0  0
    8.3170  -17.0357   20.3221 N   0  0  0  0  0  0  0  0  0  0  0  0
    9.0177  -16.1925   21.2733 C   0  0  1  0  0  0  0  0  0  0  0  0
    8.3401  -14.8153   21.3218 C   0  0  0  0  0  0  0  0  0  0  0  0
    8.3902  -14.2585   19.9204 C   0  0  0  0  0  0  0  0  0  0  0  0
    7.7228  -12.9315   19.7808 C   0  0  0  0  0  0  0  0  0  0  0  0
    7.7881  -12.4839   18.3368 C   0  0  0  0  0  0  0  0  0  0  0  0
    7.0240  -11.2406   18.2502 N   0  0  0  0  0  0  0  0  0  0  0  0
    9.0405  -16.7908   22.6411 C   0  0  0  0  0  0  0  0  0  0  0  0
    7.9930  -17.2835   23.1554 O   0  0  0  0  0  0  0  0  0  0  0  0
   10.2141  -16.8295   23.4027 N   0  0  0  0  0  0  0  0  0  0  0  0
   10.2350  -17.4923   24.7801 C   0  0  1  0  0  0  0  0  0  0  0  0
   10.9737  -18.7242   24.4822 C   0  0  0  0  0  0  0  0  0  0  0  0
   11.2117  -19.8212   25.3744 C   0  0  0  0  0  0  0  0  0  0  0  0
   11.9952  -20.9891   25.0624 C   0  0  0  0  0  0  0  0  0  0  0  0
   12.1980  -22.0896   25.9893 C   0  0  0  0  0  0  0  0  0  0  0  0
   13.1207  -23.0633   25.2972 N   0  0  0  0  0  0  0  0  0  0  0  0
   10.6763  -16.4325   25.6369 C   0  0  0  0  0  0  0  0  0  0  0  0
   11.1673  -15.1913   25.2253 O   0  0  0  0  0  0  0  0  0  0  0  0
   10.6607  -16.5658   26.9120 O   0  0  0  0  0  0  0  0  0  0  0  0
  2  7  1  0
  2  1  1  6
  3  2  1  0
  3  4  1  0
  4  5  1  0
  5  6  2  0
  7  8  2  0
  9  5  1  0
 10 11  1  0
 10  7  1  0
 11 12  1  1
 13 12  1  0
 14 15  1  0
 14 13  1  0
 16 15  1  0
 17 11  1  0
 17 19  1  0
 18 17  2  0
 20 19  1  0
 20 21  1  6
 22 21  1  0
 23 24  1  0
 23 22  1  0
 24 25  1  0
 26 20  1  0
 27 26  1  0
 28 26  2  0
M  END
$$$$
