EKK.pdb
     RDKit          3D

 28 27  0  0  1  0  0  0  0  0999 V2000
   11.7566  -17.8603   17.4075 N   0  0  0  0  0  0  0  0  0  0  0  0
   10.7603  -18.4673   18.3333 C   0  0  1  0  0  0  0  0  0  0  0  0
   11.3233  -19.8033   18.7711 C   0  0  0  0  0  0  0  0  0  0  0  0
   12.6720  -20.0091   18.1660 C   0  0  0  0  0  0  0  0  0  0  0  0
   13.2351  -21.2827   18.7363 C   0  0  0  0  0  0  0  0  0  0  0  0
   12.6520  -22.3824   18.5453 O   0  0  0  0  0  0  0  0  0  0  0  0
   10.7092  -17.5806   19.5124 C   0  0  0  0  0  0  0  0  0  0  0  0
   11.7813  -17.0567   19.9339 O   0  0  0  0  0  0  0  0  0  0  0  0
   14.3993  -21.1941   19.4658 O   0  0  0  0  0  0  0  0  0  0  0  0
    9.5387  -17.2424   20.2428 N   0  0  0  0  0  0  0  0  0  0  0  0
    9.6134  -16.3366   21.3744 C   0  0  1  0  0  0  0  0  0  0  0  0
    8.3019  -15.5440   21.4738 C   0  0  0  0  0  0  0  0  0  0  0  0
    8.1188  -14.8420   20.1509 C   0  0  0  0  0  0  0  0  0  0  0  0
    7.7029  -13.4155   20.2843 C   0  0  0  0  0  0  0  0  0  0  0  0
    7.3678  -12.8582   18.9180 C   0  0  0  0  0  0  0  0  0  0  0  0
    6.9042  -11.4878   19.1282 N   0  0  0  0  0  0  0  0  0  0  0  0
    9.8622  -17.0610   22.6561 C   0  0  0  0  0  0  0  0  0  0  0  0
    9.2054  -18.1019   22.9554 O   0  0  0  0  0  0  0  0  0  0  0  0
   10.8257  -16.6197   23.5703 N   0  0  0  0  0  0  0  0  0  0  0  0
   11.1209  -17.4120   24.8438 C   0  0  1  0  0  0  0  0  0  0  0  0
   12.5856  -17.4791   24.7935 C   0  0  0  0  0  0  0  0  0  0  0  0
   13.4264  -18.4275   25.4640 C   0  0  0  0  0  0  0  0  0  0  0  0
   14.8663  -18.4349   25.4217 C   0  0  0  0  0  0  0  0  0  0  0  0
   15.6846  -19.3972   26.1398 C   0  0  0  0  0  0  0  0  0  0  0  0
   17.1098  -19.1472   25.7099 N   0  0  0  0  0  0  0  0  0  0  0  0
   10.3432  -16.7268   25.8328 C   0  0  0  0  0  0  0  0  0  0  0  0
   10.0700  -17.1809   27.1251 O   0  0  0  0  0  0  0  0  0  0  0  0
    9.8048  -15.5916   25.5778 O   0  0  0  0  0  0  0  0  0  0  0  0
  2  7  1  0
  2  1  1  6
  3  2  1  0
  3  4  1  0
  4  5  1  0
  5  6  2  0
  7  8  2  0
  9  5  1  0
 10 11  1  0
 10  7  1  0
 11 12  1  1
 13 12  1  0
 14 15  1  0
 14 13  1  0
 16 15  1  0
 17 11  1  0
 17 19  1  0
 18 17  2  0
 20 19  1  0
 20 21  1  1
 22 21  1  0
 23 24  1  0
 23 22  1  0
 24 25  1  0
 26 20  1  0
 27 26  1  0
 28 26  2  0
M  END
$$$$
