EKK.pdb
     RDKit          3D

 28 27  0  0  1  0  0  0  0  0999 V2000
    4.7750  -17.7779   22.8906 N   0  0  0  0  0  0  0  0  0  0  0  0
    5.8590  -18.7857   22.7242 C   0  0  1  0  0  0  0  0  0  0  0  0
    5.4687  -19.6623   21.5525 C   0  0  0  0  0  0  0  0  0  0  0  0
    4.5849  -18.9014   20.6211 C   0  0  0  0  0  0  0  0  0  0  0  0
    4.2490  -19.8111   19.4704 C   0  0  0  0  0  0  0  0  0  0  0  0
    5.0458  -19.9419   18.5040 O   0  0  0  0  0  0  0  0  0  0  0  0
    7.0663  -18.0244   22.3473 C   0  0  0  0  0  0  0  0  0  0  0  0
    8.1248  -18.6549   22.0583 O   0  0  0  0  0  0  0  0  0  0  0  0
    3.0494  -20.4848   19.5200 O   0  0  0  0  0  0  0  0  0  0  0  0
    7.1610  -16.6091   22.2701 N   0  0  0  0  0  0  0  0  0  0  0  0
    8.4357  -15.9706   21.9981 C   0  0  1  0  0  0  0  0  0  0  0  0
    8.1857  -14.5630   21.4375 C   0  0  0  0  0  0  0  0  0  0  0  0
    7.8291  -14.7338   19.9814 C   0  0  0  0  0  0  0  0  0  0  0  0
    7.6796  -13.4434   19.2477 C   0  0  0  0  0  0  0  0  0  0  0  0
    7.3404  -13.7231   17.7998 C   0  0  0  0  0  0  0  0  0  0  0  0
    7.2257  -12.4238   17.1394 N   0  0  0  0  0  0  0  0  0  0  0  0
    9.2894  -15.8816   23.2198 C   0  0  0  0  0  0  0  0  0  0  0  0
    8.7786  -15.6636   24.3582 O   0  0  0  0  0  0  0  0  0  0  0  0
   10.6790  -16.0349   23.1536 N   0  0  0  0  0  0  0  0  0  0  0  0
   11.5032  -16.2790   24.4176 C   0  0  1  0  0  0  0  0  0  0  0  0
   11.0408  -17.6194   24.7940 C   0  0  0  0  0  0  0  0  0  0  0  0
   11.1597  -18.2401   26.0810 C   0  0  0  0  0  0  0  0  0  0  0  0
   10.6895  -19.5611   26.4114 C   0  0  0  0  0  0  0  0  0  0  0  0
   10.8525  -20.1656   27.7226 C   0  0  0  0  0  0  0  0  0  0  0  0
   10.1135  -21.4810   27.6787 N   0  0  0  0  0  0  0  0  0  0  0  0
   12.8302  -15.9316   24.0047 C   0  0  0  0  0  0  0  0  0  0  0  0
   13.8730  -15.5257   24.8407 O   0  0  0  0  0  0  0  0  0  0  0  0
   13.1642  -15.9597   22.7672 O   0  0  0  0  0  0  0  0  0  0  0  0
  2  7  1  0
  2  1  1  6
  3  2  1  0
  3  4  1  0
  4  5  1  0
  5  6  2  0
  7  8  2  0
  9  5  1  0
 10 11  1  0
 10  7  1  0
 11 12  1  1
 13 12  1  0
 14 15  1  0
 14 13  1  0
 16 15  1  0
 17 11  1  0
 17 19  1  0
 18 17  2  0
 20 19  1  0
 20 21  1  6
 22 21  1  0
 23 24  1  0
 23 22  1  0
 24 25  1  0
 26 20  1  0
 27 26  1  0
 28 26  2  0
M  END
$$$$
