EKK.pdb
     RDKit          3D

 28 27  0  0  1  0  0  0  0  0999 V2000
   12.1827  -17.3710   18.6881 N   0  0  0  0  0  0  0  0  0  0  0  0
   11.5661  -18.2602   19.7115 C   0  0  1  0  0  0  0  0  0  0  0  0
   12.6484  -18.5882   20.7190 C   0  0  0  0  0  0  0  0  0  0  0  0
   13.8371  -17.7154   20.4896 C   0  0  0  0  0  0  0  0  0  0  0  0
   14.8959  -18.1227   21.4783 C   0  0  0  0  0  0  0  0  0  0  0  0
   15.7792  -18.9622   21.1607 O   0  0  0  0  0  0  0  0  0  0  0  0
   10.5376  -17.4466   20.3893 C   0  0  0  0  0  0  0  0  0  0  0  0
   10.7884  -16.2345   20.6526 O   0  0  0  0  0  0  0  0  0  0  0  0
   14.8571  -17.5454   22.7275 O   0  0  0  0  0  0  0  0  0  0  0  0
    9.2514  -17.9016   20.7849 N   0  0  0  0  0  0  0  0  0  0  0  0
    8.2562  -16.9634   21.2708 C   0  0  1  0  0  0  0  0  0  0  0  0
    6.8698  -17.6207   21.2079 C   0  0  0  0  0  0  0  0  0  0  0  0
    7.0234  -19.0107   21.7742 C   0  0  0  0  0  0  0  0  0  0  0  0
    5.7612  -19.8059   21.7562 C   0  0  0  0  0  0  0  0  0  0  0  0
    6.0005  -21.1465   22.4159 C   0  0  0  0  0  0  0  0  0  0  0  0
    4.7444  -21.8884   22.3214 N   0  0  0  0  0  0  0  0  0  0  0  0
    8.5400  -16.5196   22.6679 C   0  0  0  0  0  0  0  0  0  0  0  0
    9.3464  -17.1607   23.4050 O   0  0  0  0  0  0  0  0  0  0  0  0
    7.9290  -15.3845   23.2129 N   0  0  0  0  0  0  0  0  0  0  0  0
    8.2653  -14.9147   24.6281 C   0  0  1  0  0  0  0  0  0  0  0  0
    7.2482  -13.8755   24.8227 C   0  0  0  0  0  0  0  0  0  0  0  0
    7.0814  -13.0410   25.9767 C   0  0  0  0  0  0  0  0  0  0  0  0
    6.0493  -12.0495   26.1411 C   0  0  0  0  0  0  0  0  0  0  0  0
    5.9140  -11.2222   27.3279 C   0  0  0  0  0  0  0  0  0  0  0  0
    4.7055  -10.3470   27.1000 N   0  0  0  0  0  0  0  0  0  0  0  0
    8.3629  -16.1440   25.3571 C   0  0  0  0  0  0  0  0  0  0  0  0
    7.7300  -17.3461   25.0325 O   0  0  0  0  0  0  0  0  0  0  0  0
    9.0683  -16.2231   26.4248 O   0  0  0  0  0  0  0  0  0  0  0  0
  2  7  1  0
  2  1  1  6
  3  2  1  0
  3  4  1  0
  4  5  1  0
  5  6  2  0
  7  8  2  0
  9  5  1  0
 10 11  1  0
 10  7  1  0
 11 12  1  1
 13 12  1  0
 14 15  1  0
 14 13  1  0
 16 15  1  0
 17 11  1  0
 17 19  1  0
 18 17  2  0
 20 19  1  0
 20 21  1  1
 22 21  1  0
 23 24  1  0
 23 22  1  0
 24 25  1  0
 26 20  1  0
 27 26  1  0
 28 26  2  0
M  END
$$$$
