DCD.pdb
     RDKit          3D

 23 22  0  0  1  0  0  0  0  0999 V2000
   19.0018  -10.4921  -15.7156 N   0  0  0  0  0  0  0  0  0  0  0  0
   18.8388   -9.2757  -14.9408 C   0  0  1  0  0  0  0  0  0  0  0  0
   18.5548   -8.1609  -15.9258 C   0  0  0  0  0  0  0  0  0  0  0  0
   19.7473   -7.9539  -16.8184 C   0  0  0  0  0  0  0  0  0  0  0  0
   20.8295   -7.5487  -16.3226 O   0  0  0  0  0  0  0  0  0  0  0  0
   17.7293   -9.4188  -13.9562 C   0  0  0  0  0  0  0  0  0  0  0  0
   16.8379  -10.2891  -14.1891 O   0  0  0  0  0  0  0  0  0  0  0  0
   19.7026   -8.1931  -18.1761 O   0  0  0  0  0  0  0  0  0  0  0  0
   17.6691   -8.6135  -12.8008 N   0  0  0  0  0  0  0  0  0  0  0  0
   16.7001   -8.8423  -11.7781 C   0  0  1  0  0  0  0  0  0  0  0  0
   16.6963  -10.2684  -11.2710 C   0  0  0  0  0  0  0  0  0  0  0  0
   15.5357  -10.5351   -9.9392 S   0  0  0  0  0  0  0  0  0  0  0  0
   16.8290   -7.8683  -10.6482 C   0  0  0  0  0  0  0  0  0  0  0  0
   17.9502   -7.3562  -10.3995 O   0  0  0  0  0  0  0  0  0  0  0  0
   15.7197   -7.5024   -9.8441 N   0  0  0  0  0  0  0  0  0  0  0  0
   15.6610   -6.2664   -9.0753 C   0  0  1  0  0  0  0  0  0  0  0  0
   16.0459   -5.0842   -9.9325 C   0  0  0  0  0  0  0  0  0  0  0  0
   15.9702   -3.7872   -9.2302 C   0  0  0  0  0  0  0  0  0  0  0  0
   14.9558   -3.0547   -9.3382 O   0  0  0  0  0  0  0  0  0  0  0  0
   14.3189   -6.1049   -8.4651 C   0  0  0  0  0  0  0  0  0  0  0  0
   13.3102   -6.6165   -8.9554 O   0  0  0  0  0  0  0  0  0  0  0  0
   17.0080   -3.3300   -8.4298 O   0  0  0  0  0  0  0  0  0  0  0  0
   14.1486   -5.3525   -7.2905 O   0  0  0  0  0  0  0  0  0  0  0  0
  2  1  1  6
  3  4  1  0
  3  2  1  0
  4  8  1  0
  5  4  2  0
  6  7  2  0
  6  2  1  0
  9  6  1  0
 10  9  1  0
 10 13  1  0
 10 11  1  1
 12 11  1  0
 13 15  1  0
 14 13  2  0
 15 16  1  0
 16 20  1  0
 16 17  1  6
 17 18  1  0
 18 22  1  0
 19 18  2  0
 20 21  2  0
 20 23  1  0
M  END
$$$$
