DCD.pdb
     RDKit          3D

 23 22  0  0  1  0  0  0  0  0999 V2000
   19.0131  -12.6947  -15.9042 N   0  0  0  0  0  0  0  0  0  0  0  0
   19.2134  -11.3875  -16.5023 C   0  0  1  0  0  0  0  0  0  0  0  0
   17.8397  -10.8274  -16.8067 C   0  0  0  0  0  0  0  0  0  0  0  0
   17.1672  -11.6696  -17.8556 C   0  0  0  0  0  0  0  0  0  0  0  0
   15.9822  -12.0511  -17.6778 O   0  0  0  0  0  0  0  0  0  0  0  0
   19.9667  -10.4920  -15.5795 C   0  0  0  0  0  0  0  0  0  0  0  0
   19.5251  -10.3479  -14.4004 O   0  0  0  0  0  0  0  0  0  0  0  0
   17.8044  -12.0458  -19.0195 O   0  0  0  0  0  0  0  0  0  0  0  0
   21.1345   -9.8241  -16.0008 N   0  0  0  0  0  0  0  0  0  0  0  0
   21.8779   -8.9857  -15.1167 C   0  0  1  0  0  0  0  0  0  0  0  0
   23.3599   -9.2931  -15.1115 C   0  0  0  0  0  0  0  0  0  0  0  0
   23.7522  -10.8371  -14.3027 S   0  0  0  0  0  0  0  0  0  0  0  0
   21.6296   -7.5316  -15.3732 C   0  0  0  0  0  0  0  0  0  0  0  0
   21.7858   -7.0740  -16.5339 O   0  0  0  0  0  0  0  0  0  0  0  0
   21.2210   -6.6479  -14.3421 N   0  0  0  0  0  0  0  0  0  0  0  0
   21.0606   -5.2128  -14.5342 C   0  0  1  0  0  0  0  0  0  0  0  0
   19.6314   -4.7954  -14.2820 C   0  0  0  0  0  0  0  0  0  0  0  0
   19.3779   -3.3597  -14.5175 C   0  0  0  0  0  0  0  0  0  0  0  0
   20.2264   -2.6436  -15.1043 O   0  0  0  0  0  0  0  0  0  0  0  0
   22.0214   -4.4705  -13.6825 C   0  0  0  0  0  0  0  0  0  0  0  0
   22.1473   -3.2461  -13.7505 O   0  0  0  0  0  0  0  0  0  0  0  0
   18.2018   -2.7497  -14.1033 O   0  0  0  0  0  0  0  0  0  0  0  0
   22.8328   -5.1468  -12.7556 O   0  0  0  0  0  0  0  0  0  0  0  0
  2  1  1  1
  3  4  1  0
  3  2  1  0
  4  8  1  0
  5  4  2  0
  6  7  2  0
  6  2  1  0
  9  6  1  0
 10  9  1  0
 10 13  1  0
 10 11  1  6
 12 11  1  0
 13 15  1  0
 14 13  2  0
 15 16  1  0
 16 20  1  0
 16 17  1  1
 17 18  1  0
 18 22  1  0
 19 18  2  0
 20 21  2  0
 20 23  1  0
M  END
$$$$
