DCD.pdb
     RDKit          3D

 23 22  0  0  1  0  0  0  0  0999 V2000
   18.5156  -12.3025  -16.4855 N   0  0  0  0  0  0  0  0  0  0  0  0
   17.9688  -10.9602  -16.4088 C   0  0  1  0  0  0  0  0  0  0  0  0
   16.4738  -11.1041  -16.2145 C   0  0  0  0  0  0  0  0  0  0  0  0
   15.8466  -11.6443  -17.4701 C   0  0  0  0  0  0  0  0  0  0  0  0
   16.1279  -11.1204  -18.5781 O   0  0  0  0  0  0  0  0  0  0  0  0
   18.5863  -10.1996  -15.2859 C   0  0  0  0  0  0  0  0  0  0  0  0
   18.4787  -10.6761  -14.1165 O   0  0  0  0  0  0  0  0  0  0  0  0
   14.9640  -12.7041  -17.4566 O   0  0  0  0  0  0  0  0  0  0  0  0
   19.2694   -8.9875  -15.5127 N   0  0  0  0  0  0  0  0  0  0  0  0
   19.9559   -8.3070  -14.4626 C   0  0  1  0  0  0  0  0  0  0  0  0
   20.9983   -9.1659  -13.7793 C   0  0  0  0  0  0  0  0  0  0  0  0
   22.2465   -9.7781  -14.9014 S   0  0  0  0  0  0  0  0  0  0  0  0
   20.5429   -7.0075  -14.9192 C   0  0  0  0  0  0  0  0  0  0  0  0
   21.1579   -6.9590  -16.0149 O   0  0  0  0  0  0  0  0  0  0  0  0
   20.4266   -5.8215  -14.1505 N   0  0  0  0  0  0  0  0  0  0  0  0
   20.9147   -4.5246  -14.6002 C   0  0  1  0  0  0  0  0  0  0  0  0
   20.0131   -3.4152  -14.1135 C   0  0  0  0  0  0  0  0  0  0  0  0
   18.6836   -3.4005  -14.7563 C   0  0  0  0  0  0  0  0  0  0  0  0
   18.5073   -3.9254  -15.8835 O   0  0  0  0  0  0  0  0  0  0  0  0
   22.3228   -4.3312  -14.1765 C   0  0  0  0  0  0  0  0  0  0  0  0
   22.8482   -5.0316  -13.3087 O   0  0  0  0  0  0  0  0  0  0  0  0
   17.5853   -2.8109  -14.1457 O   0  0  0  0  0  0  0  0  0  0  0  0
   23.1177   -3.3288  -14.7579 O   0  0  0  0  0  0  0  0  0  0  0  0
  2  1  1  1
  3  4  1  0
  3  2  1  0
  4  8  1  0
  5  4  2  0
  6  7  2  0
  6  2  1  0
  9  6  1  0
 10  9  1  0
 10 13  1  0
 10 11  1  6
 12 11  1  0
 13 15  1  0
 14 13  2  0
 15 16  1  0
 16 20  1  0
 16 17  1  1
 17 18  1  0
 18 22  1  0
 19 18  2  0
 20 21  2  0
 20 23  1  0
M  END
$$$$
