DCD.pdb
     RDKit          3D

 23 22  0  0  1  0  0  0  0  0999 V2000
   27.7875  -20.9121  -16.0730 N   0  0  0  0  0  0  0  0  0  0  0  0
   27.0021  -20.0633  -15.1959 C   0  0  1  0  0  0  0  0  0  0  0  0
   25.8739  -19.4927  -16.0296 C   0  0  0  0  0  0  0  0  0  0  0  0
   26.4251  -18.5188  -17.0342 C   0  0  0  0  0  0  0  0  0  0  0  0
   26.3288  -18.7739  -18.2618 O   0  0  0  0  0  0  0  0  0  0  0  0
   26.4756  -20.8402  -14.0383 C   0  0  0  0  0  0  0  0  0  0  0  0
   26.0967  -22.0315  -14.2462 O   0  0  0  0  0  0  0  0  0  0  0  0
   27.0399  -17.3421  -16.6602 O   0  0  0  0  0  0  0  0  0  0  0  0
   26.3995  -20.2716  -12.7505 N   0  0  0  0  0  0  0  0  0  0  0  0
   25.8837  -21.0027  -11.6385 C   0  0  1  0  0  0  0  0  0  0  0  0
   26.0828  -20.2930  -10.3165 C   0  0  0  0  0  0  0  0  0  0  0  0
   25.4261  -21.2036   -8.9267 S   0  0  0  0  0  0  0  0  0  0  0  0
   24.4505  -21.3906  -11.8318 C   0  0  0  0  0  0  0  0  0  0  0  0
   23.9250  -22.2220  -11.0484 O   0  0  0  0  0  0  0  0  0  0  0  0
   23.6615  -20.8468  -12.8772 N   0  0  0  0  0  0  0  0  0  0  0  0
   22.2460  -21.1446  -13.0500 C   0  0  1  0  0  0  0  0  0  0  0  0
   21.3971  -20.2063  -12.2257 C   0  0  0  0  0  0  0  0  0  0  0  0
   19.9597  -20.5453  -12.2255 C   0  0  0  0  0  0  0  0  0  0  0  0
   19.5341  -21.5468  -12.8524 O   0  0  0  0  0  0  0  0  0  0  0  0
   21.8863  -21.1108  -14.4884 C   0  0  0  0  0  0  0  0  0  0  0  0
   20.7531  -21.3871  -14.8873 O   0  0  0  0  0  0  0  0  0  0  0  0
   19.0298  -19.7772  -11.5384 O   0  0  0  0  0  0  0  0  0  0  0  0
   22.8383  -20.7575  -15.4599 O   0  0  0  0  0  0  0  0  0  0  0  0
  2  1  1  6
  3  4  1  0
  3  2  1  0
  4  8  1  0
  5  4  2  0
  6  7  2  0
  6  2  1  0
  9  6  1  0
 10  9  1  0
 10 13  1  0
 10 11  1  1
 12 11  1  0
 13 15  1  0
 14 13  2  0
 15 16  1  0
 16 20  1  0
 16 17  1  1
 17 18  1  0
 18 22  1  0
 19 18  2  0
 20 21  2  0
 20 23  1  0
M  END
$$$$
