DCD.pdb
     RDKit          3D

 23 22  0  0  1  0  0  0  0  0999 V2000
   18.2524  -12.1408  -15.7081 N   0  0  0  0  0  0  0  0  0  0  0  0
   18.0655  -10.7976  -16.2252 C   0  0  1  0  0  0  0  0  0  0  0  0
   16.5719  -10.5684  -16.3258 C   0  0  0  0  0  0  0  0  0  0  0  0
   15.9940  -11.4417  -17.4051 C   0  0  0  0  0  0  0  0  0  0  0  0
   14.8907  -12.0141  -17.2145 O   0  0  0  0  0  0  0  0  0  0  0  0
   18.7050   -9.7915  -15.3311 C   0  0  0  0  0  0  0  0  0  0  0  0
   18.5847   -9.9486  -14.0793 O   0  0  0  0  0  0  0  0  0  0  0  0
   16.6322  -11.6436  -18.6111 O   0  0  0  0  0  0  0  0  0  0  0  0
   19.4220   -8.6976  -15.8568 N   0  0  0  0  0  0  0  0  0  0  0  0
   20.1656   -7.8158  -15.0160 C   0  0  1  0  0  0  0  0  0  0  0  0
   21.1067   -8.5411  -14.0784 C   0  0  0  0  0  0  0  0  0  0  0  0
   22.0974   -7.4342  -13.0857 S   0  0  0  0  0  0  0  0  0  0  0  0
   20.8885   -6.7635  -15.7982 C   0  0  0  0  0  0  0  0  0  0  0  0
   21.5379   -7.0931  -16.8232 O   0  0  0  0  0  0  0  0  0  0  0  0
   20.8640   -5.3976  -15.4176 N   0  0  0  0  0  0  0  0  0  0  0  0
   21.2691   -4.3127  -16.3013 C   0  0  1  0  0  0  0  0  0  0  0  0
   20.5594   -4.4117  -17.6305 C   0  0  0  0  0  0  0  0  0  0  0  0
   20.8514   -3.2923  -18.5486 C   0  0  0  0  0  0  0  0  0  0  0  0
   22.0216   -2.8561  -18.6806 O   0  0  0  0  0  0  0  0  0  0  0  0
   21.0466   -3.0032  -15.6416 C   0  0  0  0  0  0  0  0  0  0  0  0
   20.3234   -2.8831  -14.6505 O   0  0  0  0  0  0  0  0  0  0  0  0
   19.8527   -2.6828  -19.2956 O   0  0  0  0  0  0  0  0  0  0  0  0
   21.6612   -1.8377  -16.1304 O   0  0  0  0  0  0  0  0  0  0  0  0
  2  1  1  1
  3  4  1  0
  3  2  1  0
  4  8  1  0
  5  4  2  0
  6  7  2  0
  6  2  1  0
  9  6  1  0
 10  9  1  0
 10 13  1  0
 10 11  1  6
 12 11  1  0
 13 15  1  0
 14 13  2  0
 15 16  1  0
 16 20  1  0
 16 17  1  6
 17 18  1  0
 18 22  1  0
 19 18  2  0
 20 21  2  0
 20 23  1  0
M  END
$$$$
