DCD.pdb
     RDKit          3D

 23 22  0  0  1  0  0  0  0  0999 V2000
   20.5938  -11.8301  -17.8235 N   0  0  0  0  0  0  0  0  0  0  0  0
   19.8099  -11.3468  -16.7017 C   0  0  1  0  0  0  0  0  0  0  0  0
   19.4738  -12.5515  -15.8477 C   0  0  0  0  0  0  0  0  0  0  0  0
   18.5464  -13.4660  -16.5994 C   0  0  0  0  0  0  0  0  0  0  0  0
   18.5244  -14.6919  -16.3202 O   0  0  0  0  0  0  0  0  0  0  0  0
   20.5710  -10.3303  -15.9218 C   0  0  0  0  0  0  0  0  0  0  0  0
   19.9713   -9.7367  -14.9762 O   0  0  0  0  0  0  0  0  0  0  0  0
   17.7081  -13.0101  -17.5953 O   0  0  0  0  0  0  0  0  0  0  0  0
   21.9161  -10.0349  -16.2231 N   0  0  0  0  0  0  0  0  0  0  0  0
   22.6857   -9.1433  -15.4169 C   0  0  1  0  0  0  0  0  0  0  0  0
   24.1785   -9.3341  -15.5783 C   0  0  0  0  0  0  0  0  0  0  0  0
   24.7216  -10.9867  -15.1712 S   0  0  0  0  0  0  0  0  0  0  0  0
   22.2989   -7.7123  -15.6281 C   0  0  0  0  0  0  0  0  0  0  0  0
   21.9295   -7.3347  -16.7692 O   0  0  0  0  0  0  0  0  0  0  0  0
   22.3358   -6.7629  -14.5754 N   0  0  0  0  0  0  0  0  0  0  0  0
   21.8439   -5.3983  -14.7102 C   0  0  1  0  0  0  0  0  0  0  0  0
   20.3959   -5.3912  -15.1389 C   0  0  0  0  0  0  0  0  0  0  0  0
   19.8184   -4.0383  -15.2702 C   0  0  0  0  0  0  0  0  0  0  0  0
   20.4716   -3.1083  -15.8045 O   0  0  0  0  0  0  0  0  0  0  0  0
   22.0604   -4.6479  -13.4494 C   0  0  0  0  0  0  0  0  0  0  0  0
   22.1538   -5.2132  -12.3580 O   0  0  0  0  0  0  0  0  0  0  0  0
   18.5417   -3.7432  -14.8124 O   0  0  0  0  0  0  0  0  0  0  0  0
   22.1681   -3.2467  -13.4557 O   0  0  0  0  0  0  0  0  0  0  0  0
  2  1  1  6
  3  4  1  0
  3  2  1  0
  4  8  1  0
  5  4  2  0
  6  7  2  0
  6  2  1  0
  9  6  1  0
 10  9  1  0
 10 13  1  0
 10 11  1  6
 12 11  1  0
 13 15  1  0
 14 13  2  0
 15 16  1  0
 16 20  1  0
 16 17  1  1
 17 18  1  0
 18 22  1  0
 19 18  2  0
 20 21  2  0
 20 23  1  0
M  END
$$$$
