DCD.pdb
     RDKit          3D

 23 22  0  0  1  0  0  0  0  0999 V2000
   16.4702  -12.4907  -17.0547 N   0  0  0  0  0  0  0  0  0  0  0  0
   16.8414  -11.7612  -15.8561 C   0  0  1  0  0  0  0  0  0  0  0  0
   18.0829  -12.4279  -15.3015 C   0  0  0  0  0  0  0  0  0  0  0  0
   17.7115  -13.7265  -14.6401 C   0  0  0  0  0  0  0  0  0  0  0  0
   16.5008  -14.0563  -14.5588 O   0  0  0  0  0  0  0  0  0  0  0  0
   17.0947  -10.3258  -16.1661 C   0  0  0  0  0  0  0  0  0  0  0  0
   17.6329  -10.0450  -17.2786 O   0  0  0  0  0  0  0  0  0  0  0  0
   18.6560  -14.5819  -14.1122 O   0  0  0  0  0  0  0  0  0  0  0  0
   16.7484   -9.3088  -15.2534 N   0  0  0  0  0  0  0  0  0  0  0  0
   16.9411   -7.9286  -15.5616 C   0  0  1  0  0  0  0  0  0  0  0  0
   15.6601   -7.1239  -15.5125 C   0  0  0  0  0  0  0  0  0  0  0  0
   14.2679   -7.9786  -16.2358 S   0  0  0  0  0  0  0  0  0  0  0  0
   18.0042   -7.3023  -14.7134 C   0  0  0  0  0  0  0  0  0  0  0  0
   18.4063   -7.9028  -13.6843 O   0  0  0  0  0  0  0  0  0  0  0  0
   18.5761   -6.0452  -15.0355 N   0  0  0  0  0  0  0  0  0  0  0  0
   19.7376   -5.4946  -14.3499 C   0  0  1  0  0  0  0  0  0  0  0  0
   20.9379   -6.3945  -14.5233 C   0  0  0  0  0  0  0  0  0  0  0  0
   22.1884   -5.8355  -13.9712 C   0  0  0  0  0  0  0  0  0  0  0  0
   22.9459   -5.1282  -14.6805 O   0  0  0  0  0  0  0  0  0  0  0  0
   20.0004   -4.1113  -14.8157 C   0  0  0  0  0  0  0  0  0  0  0  0
   19.6787   -3.7267  -15.9419 O   0  0  0  0  0  0  0  0  0  0  0  0
   22.5731   -6.0675  -12.6579 O   0  0  0  0  0  0  0  0  0  0  0  0
   20.6341   -3.1782  -13.9775 O   0  0  0  0  0  0  0  0  0  0  0  0
  2  1  1  6
  3  4  1  0
  3  2  1  0
  4  8  1  0
  5  4  2  0
  6  7  2  0
  6  2  1  0
  9  6  1  0
 10  9  1  0
 10 13  1  0
 10 11  1  1
 12 11  1  0
 13 15  1  0
 14 13  2  0
 15 16  1  0
 16 20  1  0
 16 17  1  6
 17 18  1  0
 18 22  1  0
 19 18  2  0
 20 21  2  0
 20 23  1  0
M  END
$$$$
