DCD.pdb
     RDKit          3D

 23 22  0  0  1  0  0  0  0  0999 V2000
   19.8057  -13.5396  -16.1630 N   0  0  0  0  0  0  0  0  0  0  0  0
   19.6146  -12.2123  -16.7183 C   0  0  1  0  0  0  0  0  0  0  0  0
   18.1262  -11.9337  -16.6910 C   0  0  0  0  0  0  0  0  0  0  0  0
   17.4123  -12.8891  -17.6070 C   0  0  0  0  0  0  0  0  0  0  0  0
   17.8680  -13.0993  -18.7600 O   0  0  0  0  0  0  0  0  0  0  0  0
   20.3666  -11.1949  -15.9309 C   0  0  0  0  0  0  0  0  0  0  0  0
   20.1011  -11.0847  -14.6966 O   0  0  0  0  0  0  0  0  0  0  0  0
   16.2634  -13.5528  -17.2302 O   0  0  0  0  0  0  0  0  0  0  0  0
   21.3435  -10.3783  -16.5359 N   0  0  0  0  0  0  0  0  0  0  0  0
   22.1541   -9.4876  -15.7699 C   0  0  1  0  0  0  0  0  0  0  0  0
   23.6365   -9.7513  -15.9240 C   0  0  0  0  0  0  0  0  0  0  0  0
   24.2004  -11.1564  -14.9754 S   0  0  0  0  0  0  0  0  0  0  0  0
   21.8305   -8.0514  -16.0430 C   0  0  0  0  0  0  0  0  0  0  0  0
   21.7016   -7.6630  -17.2320 O   0  0  0  0  0  0  0  0  0  0  0  0
   21.6635   -7.1088  -14.9967 N   0  0  0  0  0  0  0  0  0  0  0  0
   21.3377   -5.7075  -15.2257 C   0  0  1  0  0  0  0  0  0  0  0  0
   19.9026   -5.4236  -14.8514 C   0  0  0  0  0  0  0  0  0  0  0  0
   19.4912   -4.0237  -15.0804 C   0  0  0  0  0  0  0  0  0  0  0  0
   19.0140   -3.6653  -16.1854 O   0  0  0  0  0  0  0  0  0  0  0  0
   22.2912   -4.8337  -14.4999 C   0  0  0  0  0  0  0  0  0  0  0  0
   22.8602   -5.1985  -13.4690 O   0  0  0  0  0  0  0  0  0  0  0  0
   19.6144   -3.0569  -14.0921 O   0  0  0  0  0  0  0  0  0  0  0  0
   22.5831   -3.5416  -14.9691 O   0  0  0  0  0  0  0  0  0  0  0  0
  2  1  1  1
  3  4  1  0
  3  2  1  0
  4  8  1  0
  5  4  2  0
  6  7  2  0
  6  2  1  0
  9  6  1  0
 10  9  1  0
 10 13  1  0
 10 11  1  6
 12 11  1  0
 13 15  1  0
 14 13  2  0
 15 16  1  0
 16 20  1  0
 16 17  1  1
 17 18  1  0
 18 22  1  0
 19 18  2  0
 20 21  2  0
 20 23  1  0
M  END
$$$$
