DCD.pdb
     RDKit          3D

 23 22  0  0  1  0  0  0  0  0999 V2000
   19.8184  -11.9546  -17.5098 N   0  0  0  0  0  0  0  0  0  0  0  0
   19.3805  -11.5858  -16.1761 C   0  0  1  0  0  0  0  0  0  0  0  0
   19.1932  -12.8740  -15.4022 C   0  0  0  0  0  0  0  0  0  0  0  0
   18.1313  -13.7127  -16.0584 C   0  0  0  0  0  0  0  0  0  0  0  0
   16.9194  -13.4278  -15.8813 O   0  0  0  0  0  0  0  0  0  0  0  0
   20.3816  -10.7019  -15.5148 C   0  0  0  0  0  0  0  0  0  0  0  0
   20.1596  -10.3442  -14.3194 O   0  0  0  0  0  0  0  0  0  0  0  0
   18.4354  -14.7954  -16.8569 O   0  0  0  0  0  0  0  0  0  0  0  0
   21.5407  -10.2745  -16.1939 N   0  0  0  0  0  0  0  0  0  0  0  0
   22.4144   -9.2918  -15.6388 C   0  0  1  0  0  0  0  0  0  0  0  0
   23.8653   -9.5072  -16.0121 C   0  0  0  0  0  0  0  0  0  0  0  0
   24.9140   -8.1296  -15.5715 S   0  0  0  0  0  0  0  0  0  0  0  0
   21.9756   -7.8972  -15.9620 C   0  0  0  0  0  0  0  0  0  0  0  0
   21.8335   -7.5579  -17.1645 O   0  0  0  0  0  0  0  0  0  0  0  0
   21.7134   -6.9403  -14.9488 N   0  0  0  0  0  0  0  0  0  0  0  0
   21.4293   -5.5385  -15.2254 C   0  0  1  0  0  0  0  0  0  0  0  0
   19.9426   -5.2764  -15.1892 C   0  0  0  0  0  0  0  0  0  0  0  0
   19.5765   -3.8724  -15.4646 C   0  0  0  0  0  0  0  0  0  0  0  0
   19.5371   -3.0238  -14.5397 O   0  0  0  0  0  0  0  0  0  0  0  0
   22.1765   -4.6682  -14.2853 C   0  0  0  0  0  0  0  0  0  0  0  0
   22.4645   -5.0323  -13.1433 O   0  0  0  0  0  0  0  0  0  0  0  0
   19.2640   -3.4385  -16.7455 O   0  0  0  0  0  0  0  0  0  0  0  0
   22.5877   -3.3805  -14.6693 O   0  0  0  0  0  0  0  0  0  0  0  0
  2  1  1  6
  3  4  1  0
  3  2  1  0
  4  8  1  0
  5  4  2  0
  6  7  2  0
  6  2  1  0
  9  6  1  0
 10  9  1  0
 10 13  1  0
 10 11  1  6
 12 11  1  0
 13 15  1  0
 14 13  2  0
 15 16  1  0
 16 20  1  0
 16 17  1  1
 17 18  1  0
 18 22  1  0
 19 18  2  0
 20 21  2  0
 20 23  1  0
M  END
$$$$
