DCD.pdb
     RDKit          3D

 23 22  0  0  1  0  0  0  0  0999 V2000
   15.5295   -9.8111   -9.3130 N   0  0  0  0  0  0  0  0  0  0  0  0
   14.8132   -8.9712  -10.2554 C   0  0  1  0  0  0  0  0  0  0  0  0
   13.4472   -8.7051   -9.6582 C   0  0  0  0  0  0  0  0  0  0  0  0
   12.6457   -9.9773   -9.6328 C   0  0  0  0  0  0  0  0  0  0  0  0
   12.1605  -10.3823   -8.5456 O   0  0  0  0  0  0  0  0  0  0  0  0
   15.5507   -7.6994  -10.4990 C   0  0  0  0  0  0  0  0  0  0  0  0
   15.0573   -6.8766  -11.3270 O   0  0  0  0  0  0  0  0  0  0  0  0
   12.4177  -10.7281  -10.7671 O   0  0  0  0  0  0  0  0  0  0  0  0
   16.7597   -7.4163   -9.8316 N   0  0  0  0  0  0  0  0  0  0  0  0
   17.5027   -6.2276  -10.1001 C   0  0  1  0  0  0  0  0  0  0  0  0
   17.7078   -5.3649   -8.8735 C   0  0  0  0  0  0  0  0  0  0  0  0
   18.7600   -3.9534   -9.1777 S   0  0  0  0  0  0  0  0  0  0  0  0
   18.8050   -6.5157  -10.7806 C   0  0  0  0  0  0  0  0  0  0  0  0
   19.3584   -7.6314  -10.6075 O   0  0  0  0  0  0  0  0  0  0  0  0
   19.4384   -5.5642  -11.6200 N   0  0  0  0  0  0  0  0  0  0  0  0
   20.6161   -5.8636  -12.4235 C   0  0  1  0  0  0  0  0  0  0  0  0
   20.4080   -7.1236  -13.2294 C   0  0  0  0  0  0  0  0  0  0  0  0
   21.5613   -7.4881  -14.0769 C   0  0  0  0  0  0  0  0  0  0  0  0
   22.6309   -6.8319  -14.0259 O   0  0  0  0  0  0  0  0  0  0  0  0
   20.9639   -4.7016  -13.2770 C   0  0  0  0  0  0  0  0  0  0  0  0
   20.1129   -3.9054  -13.6788 O   0  0  0  0  0  0  0  0  0  0  0  0
   21.5096   -8.5610  -14.9559 O   0  0  0  0  0  0  0  0  0  0  0  0
   22.2945   -4.4648  -13.6623 O   0  0  0  0  0  0  0  0  0  0  0  0
  2  1  1  1
  3  4  1  0
  3  2  1  0
  4  8  1  0
  5  4  2  0
  6  7  2  0
  6  2  1  0
  9  6  1  0
 10  9  1  0
 10 13  1  0
 10 11  1  1
 12 11  1  0
 13 15  1  0
 14 13  2  0
 15 16  1  0
 16 20  1  0
 16 17  1  6
 17 18  1  0
 18 22  1  0
 19 18  2  0
 20 21  2  0
 20 23  1  0
M  END
$$$$
