DCD.pdb
     RDKit          3D

 23 22  0  0  1  0  0  0  0  0999 V2000
   19.9660  -12.4039  -16.5923 N   0  0  0  0  0  0  0  0  0  0  0  0
   19.2443  -11.1630  -16.8064 C   0  0  1  0  0  0  0  0  0  0  0  0
   17.7948  -11.5319  -17.0439 C   0  0  0  0  0  0  0  0  0  0  0  0
   17.6508  -12.1926  -18.3872 C   0  0  0  0  0  0  0  0  0  0  0  0
   17.2701  -13.3893  -18.4515 O   0  0  0  0  0  0  0  0  0  0  0  0
   19.3832  -10.2591  -15.6298 C   0  0  0  0  0  0  0  0  0  0  0  0
   18.8810  -10.6363  -14.5291 O   0  0  0  0  0  0  0  0  0  0  0  0
   17.9226  -11.5318  -19.5670 O   0  0  0  0  0  0  0  0  0  0  0  0
   20.0515   -9.0222  -15.7334 N   0  0  0  0  0  0  0  0  0  0  0  0
   20.3137   -8.2143  -14.5863 C   0  0  1  0  0  0  0  0  0  0  0  0
   21.2069   -8.8948  -13.5714 C   0  0  0  0  0  0  0  0  0  0  0  0
   22.8522   -9.2152  -14.1894 S   0  0  0  0  0  0  0  0  0  0  0  0
   20.8468   -6.8644  -14.9547 C   0  0  0  0  0  0  0  0  0  0  0  0
   21.6897   -6.7657  -15.8825 O   0  0  0  0  0  0  0  0  0  0  0  0
   20.4287   -5.6857  -14.2862 N   0  0  0  0  0  0  0  0  0  0  0  0
   20.8478   -4.3483  -14.6835 C   0  0  1  0  0  0  0  0  0  0  0  0
   19.7559   -3.3417  -14.4095 C   0  0  0  0  0  0  0  0  0  0  0  0
   18.5216   -3.5726  -15.1870 C   0  0  0  0  0  0  0  0  0  0  0  0
   18.5754   -3.9112  -16.3951 O   0  0  0  0  0  0  0  0  0  0  0  0
   22.1227   -3.9904  -14.0156 C   0  0  0  0  0  0  0  0  0  0  0  0
   22.7065   -2.9288  -14.2435 O   0  0  0  0  0  0  0  0  0  0  0  0
   17.2639   -3.4258  -14.6183 O   0  0  0  0  0  0  0  0  0  0  0  0
   22.7174   -4.8612  -13.0867 O   0  0  0  0  0  0  0  0  0  0  0  0
  2  1  1  1
  3  4  1  0
  3  2  1  0
  4  8  1  0
  5  4  2  0
  6  7  2  0
  6  2  1  0
  9  6  1  0
 10  9  1  0
 10 13  1  0
 10 11  1  1
 12 11  1  0
 13 15  1  0
 14 13  2  0
 15 16  1  0
 16 20  1  0
 16 17  1  1
 17 18  1  0
 18 22  1  0
 19 18  2  0
 20 21  2  0
 20 23  1  0
M  END
$$$$
