DCD.pdb
     RDKit          3D

 23 22  0  0  1  0  0  0  0  0999 V2000
   16.4682  -11.2619  -14.3431 N   0  0  0  0  0  0  0  0  0  0  0  0
   17.6377  -11.2584  -15.2026 C   0  0  1  0  0  0  0  0  0  0  0  0
   17.3127  -12.1377  -16.3920 C   0  0  0  0  0  0  0  0  0  0  0  0
   16.8464  -13.4860  -15.9164 C   0  0  0  0  0  0  0  0  0  0  0  0
   17.5145  -14.1014  -15.0468 O   0  0  0  0  0  0  0  0  0  0  0  0
   17.9741   -9.8723  -15.6345 C   0  0  0  0  0  0  0  0  0  0  0  0
   18.9468   -9.7190  -16.4322 O   0  0  0  0  0  0  0  0  0  0  0  0
   15.7014  -14.0834  -16.4007 O   0  0  0  0  0  0  0  0  0  0  0  0
   17.2363   -8.7636  -15.1725 N   0  0  0  0  0  0  0  0  0  0  0  0
   17.5236   -7.4367  -15.6129 C   0  0  1  0  0  0  0  0  0  0  0  0
   16.3122   -6.5295  -15.5971 C   0  0  0  0  0  0  0  0  0  0  0  0
   16.7084   -4.8253  -15.9585 S   0  0  0  0  0  0  0  0  0  0  0  0
   18.6650   -6.8255  -14.8610 C   0  0  0  0  0  0  0  0  0  0  0  0
   18.6414   -6.8157  -13.6038 O   0  0  0  0  0  0  0  0  0  0  0  0
   19.7795   -6.2533  -15.5256 N   0  0  0  0  0  0  0  0  0  0  0  0
   20.9623   -5.7644  -14.8298 C   0  0  1  0  0  0  0  0  0  0  0  0
   22.2170   -6.3576  -15.4253 C   0  0  0  0  0  0  0  0  0  0  0  0
   22.3403   -7.8160  -15.2277 C   0  0  0  0  0  0  0  0  0  0  0  0
   21.9393   -8.3585  -14.1685 O   0  0  0  0  0  0  0  0  0  0  0  0
   20.9845   -4.2815  -14.8351 C   0  0  0  0  0  0  0  0  0  0  0  0
   21.7887   -3.6357  -14.1599 O   0  0  0  0  0  0  0  0  0  0  0  0
   22.8996   -8.6380  -16.1963 O   0  0  0  0  0  0  0  0  0  0  0  0
   20.0769   -3.5512  -15.6211 O   0  0  0  0  0  0  0  0  0  0  0  0
  2  1  1  1
  3  4  1  0
  3  2  1  0
  4  8  1  0
  5  4  2  0
  6  7  2  0
  6  2  1  0
  9  6  1  0
 10  9  1  0
 10 13  1  0
 10 11  1  1
 12 11  1  0
 13 15  1  0
 14 13  2  0
 15 16  1  0
 16 20  1  0
 16 17  1  6
 17 18  1  0
 18 22  1  0
 19 18  2  0
 20 21  2  0
 20 23  1  0
M  END
$$$$
