RMI.pdb
     RDKit          3D

 28 27  0  0  1  0  0  0  0  0999 V2000
    8.5226  -15.2444   15.9507 N   0  0  0  0  0  0  0  0  0  0  0  0
    8.2033  -13.8507   16.1425 C   0  0  0  0  0  0  0  0  0  0  0  0
    8.1663  -13.0665   15.1283 N   0  0  0  0  0  0  0  0  0  0  0  0
    7.9297  -13.3280   17.4235 N   0  0  0  0  0  0  0  0  0  0  0  0
    7.8119  -14.1497   18.6270 C   0  0  0  0  0  0  0  0  0  0  0  0
    8.8229  -15.2536   18.5580 C   0  0  0  0  0  0  0  0  0  0  0  0
    9.7224  -15.1985   19.7616 C   0  0  0  0  0  0  0  0  0  0  0  0
    9.3912  -16.2279   20.7994 C   0  0  2  0  0  0  0  0  0  0  0  0
    8.0914  -16.8009   20.5120 N   0  0  0  0  0  0  0  0  0  0  0  0
    9.3336  -15.6260   22.1699 C   0  0  0  0  0  0  0  0  0  0  0  0
   10.3051  -14.9592   22.6155 O   0  0  0  0  0  0  0  0  0  0  0  0
    7.8675  -12.0856   15.2247 C   0  0  0  0  0  0  0  0  0  0  0  0
    6.5337  -11.4622   25.2373 S   0  0  0  0  0  0  0  0  0  0  0  0
    5.7399  -12.8241   26.1483 C   0  0  0  0  0  0  0  0  0  0  0  0
    6.7996  -14.2890   26.1824 C   0  0  0  0  0  0  0  0  0  0  0  0
    6.7960  -14.9532   24.8481 C   0  0  2  0  0  0  0  0  0  0  0  0
    8.1973  -15.1908   24.3350 N   0  0  0  0  0  0  0  0  0  0  0  0
    8.2205  -15.7649   23.0198 C   0  0  0  0  0  0  0  0  0  0  0  0
    8.9930  -15.9647   25.3161 O   0  0  0  0  0  0  0  0  0  0  0  0
    9.0845  -17.2091   25.1549 C   0  0  0  0  0  0  0  0  0  0  0  0
   10.8258  -13.6150   30.0599 C   0  0  0  0  0  0  0  0  0  0  0  0
   10.1002  -14.6539   29.2359 C   0  0  2  0  0  0  0  0  0  0  0  0
   11.0959  -15.3989   28.4140 C   0  0  0  0  0  0  0  0  0  0  0  0
   12.0011  -14.3702   27.7422 C   0  0  1  0  0  0  0  0  0  0  0  0
   10.4609  -16.2035   27.3020 N   0  0  0  0  0  0  0  0  0  0  0  0
    9.6582  -15.3829   26.4277 C   0  0  0  0  0  0  0  0  0  0  0  0
    9.5712  -17.1893   27.9601 O   0  0  0  0  0  0  0  0  0  0  0  0
   10.0438  -18.2284   28.7494 O   0  0  0  0  0  0  0  0  0  0  0  0
  1  2  1  0
  2  3  2  0
  4  2  1  0
  5  6  1  0
  5  4  1  0
  7  6  1  0
  8  7  1  0
  8  9  1  6
 10  8  1  0
 10 11  2  0
 12 13  1  0
 13 14  1  0
 16 15  1  6
 15 14  1  0
 16 17  1  0
 17 10  1  0
 18 16  1  0
 19 18  2  0
 21 20  1  0
 22 21  1  0
 22 23  1  1
 24 22  1  0
 24 25  1  6
 25 18  1  0
 26 24  1  0
 27 26  1  0
 28 26  2  0
M  END
$$$$
