RMI.pdb
     RDKit          3D

 28 27  0  0  1  0  0  0  0  0999 V2000
    7.8504  -13.0761   17.9342 N   0  0  0  0  0  0  0  0  0  0  0  0
    8.3640  -13.7818   16.7857 C   0  0  0  0  0  0  0  0  0  0  0  0
    8.4479  -13.1760   15.6584 N   0  0  0  0  0  0  0  0  0  0  0  0
    8.7779  -15.1273   16.8734 N   0  0  0  0  0  0  0  0  0  0  0  0
    7.9375  -16.2022   17.3987 C   0  0  0  0  0  0  0  0  0  0  0  0
    7.7226  -15.9738   18.8639 C   0  0  0  0  0  0  0  0  0  0  0  0
    9.0476  -15.9226   19.5728 C   0  0  0  0  0  0  0  0  0  0  0  0
    9.0953  -16.7721   20.8066 C   0  0  2  0  0  0  0  0  0  0  0  0
    7.8120  -17.4184   20.9965 N   0  0  0  0  0  0  0  0  0  0  0  0
    9.3797  -15.9512   22.0269 C   0  0  0  0  0  0  0  0  0  0  0  0
   10.4425  -15.2799   22.1111 O   0  0  0  0  0  0  0  0  0  0  0  0
    8.7920  -13.6614   14.8177 C   0  0  0  0  0  0  0  0  0  0  0  0
    6.5920  -11.5542   26.1535 S   0  0  0  0  0  0  0  0  0  0  0  0
    5.6314  -12.9579   25.5038 C   0  0  0  0  0  0  0  0  0  0  0  0
    6.6221  -13.9523   24.3638 C   0  0  0  0  0  0  0  0  0  0  0  0
    7.5971  -14.7832   25.1257 C   0  0  2  0  0  0  0  0  0  0  0  0
    8.8159  -15.1196   24.2982 N   0  0  0  0  0  0  0  0  0  0  0  0
    8.5005  -15.8817   23.1236 C   0  0  0  0  0  0  0  0  0  0  0  0
    9.8608  -15.7548   25.1343 O   0  0  0  0  0  0  0  0  0  0  0  0
   11.0655  -15.5398   24.8420 C   0  0  0  0  0  0  0  0  0  0  0  0
   11.0914  -14.1724   30.2167 C   0  0  0  0  0  0  0  0  0  0  0  0
   11.2722  -15.4479   29.4262 C   0  0  2  0  0  0  0  0  0  0  0  0
   10.4456  -15.3694   28.1882 C   0  0  0  0  0  0  0  0  0  0  0  0
    8.9927  -15.1813   28.6154 C   0  0  2  0  0  0  0  0  0  0  0  0
   10.4908  -16.6377   27.3658 N   0  0  0  0  0  0  0  0  0  0  0  0
    9.5811  -16.5923   26.2467 C   0  0  0  0  0  0  0  0  0  0  0  0
   10.0622  -17.7322   28.2685 O   0  0  0  0  0  0  0  0  0  0  0  0
    8.8679  -18.4212   28.1105 O   0  0  0  0  0  0  0  0  0  0  0  0
  1  2  1  0
  2  3  2  0
  4  2  1  0
  5  6  1  0
  5  4  1  0
  7  6  1  0
  8  7  1  0
  8  9  1  1
 10  8  1  0
 10 11  2  0
 12 13  1  0
 13 14  1  0
 16 15  1  6
 15 14  1  0
 16 17  1  0
 17 10  1  0
 18 16  1  0
 19 18  2  0
 21 20  1  0
 22 21  1  0
 22 23  1  6
 24 22  1  0
 24 25  1  1
 25 18  1  0
 26 24  1  0
 27 26  1  0
 28 26  2  0
M  END
$$$$
