RMI.pdb
     RDKit          3D

 28 27  0  0  1  0  0  0  0  0999 V2000
    8.4828  -21.8956   20.7499 N   0  0  0  0  0  0  0  0  0  0  0  0
    8.4112  -21.7101   19.3211 C   0  0  0  0  0  0  0  0  0  0  0  0
    7.6281  -22.4517   18.6270 N   0  0  0  0  0  0  0  0  0  0  0  0
    9.1847  -20.7290   18.6668 N   0  0  0  0  0  0  0  0  0  0  0  0
    9.9836  -19.7249   19.3677 C   0  0  0  0  0  0  0  0  0  0  0  0
    9.0592  -18.7389   20.0146 C   0  0  0  0  0  0  0  0  0  0  0  0
    9.8561  -17.7024   20.7572 C   0  0  0  0  0  0  0  0  0  0  0  0
    9.2557  -16.3307   20.6915 C   0  0  2  0  0  0  0  0  0  0  0  0
    9.8992  -15.5731   19.6368 N   0  0  0  0  0  0  0  0  0  0  0  0
    9.4508  -15.5847   21.9757 C   0  0  0  0  0  0  0  0  0  0  0  0
   10.5576  -15.0425   22.2370 O   0  0  0  0  0  0  0  0  0  0  0  0
    7.5716  -22.3541   17.6033 C   0  0  0  0  0  0  0  0  0  0  0  0
    5.0264  -12.3172   25.1438 S   0  0  0  0  0  0  0  0  0  0  0  0
    6.2241  -12.4419   26.5095 C   0  0  0  0  0  0  0  0  0  0  0  0
    7.6487  -13.4499   26.0357 C   0  0  0  0  0  0  0  0  0  0  0  0
    7.4358  -14.0296   24.6791 C   0  0  1  0  0  0  0  0  0  0  0  0
    8.6617  -14.7593   24.1812 N   0  0  0  0  0  0  0  0  0  0  0  0
    8.4370  -15.4478   22.9421 C   0  0  0  0  0  0  0  0  0  0  0  0
    9.2160  -15.6384   25.2369 O   0  0  0  0  0  0  0  0  0  0  0  0
    9.1515  -16.8832   25.0657 C   0  0  0  0  0  0  0  0  0  0  0  0
   10.8717  -13.3402   29.8871 C   0  0  0  0  0  0  0  0  0  0  0  0
   11.2986  -14.1280   28.6699 C   0  0  2  0  0  0  0  0  0  0  0  0
   10.6531  -15.4710   28.7140 C   0  0  0  0  0  0  0  0  0  0  0  0
   11.5910  -16.4086   29.4690 C   0  0  2  0  0  0  0  0  0  0  0  0
   10.4533  -16.0760   27.3425 N   0  0  0  0  0  0  0  0  0  0  0  0
    9.8158  -15.1570   26.4308 C   0  0  0  0  0  0  0  0  0  0  0  0
    9.5566  -17.2410   27.5303 O   0  0  0  0  0  0  0  0  0  0  0  0
   10.0230  -18.5371   27.6993 O   0  0  0  0  0  0  0  0  0  0  0  0
  1  2  1  0
  2  3  2  0
  4  2  1  0
  5  6  1  0
  5  4  1  0
  7  6  1  0
  8  7  1  0
  8  9  1  6
 10  8  1  0
 10 11  2  0
 12 13  1  0
 13 14  1  0
 16 15  1  6
 15 14  1  0
 16 17  1  0
 17 10  1  0
 18 16  1  0
 19 18  2  0
 21 20  1  0
 22 21  1  0
 22 23  1  6
 24 22  1  0
 24 25  1  6
 25 18  1  0
 26 24  1  0
 27 26  1  0
 28 26  2  0
M  END
$$$$
