RMI.pdb
     RDKit          3D

 28 27  0  0  1  0  0  0  0  0999 V2000
    8.6271  -12.7678   15.1819 N   0  0  0  0  0  0  0  0  0  0  0  0
    8.1842  -14.1267   14.9863 C   0  0  0  0  0  0  0  0  0  0  0  0
    8.4637  -14.7298   13.8894 N   0  0  0  0  0  0  0  0  0  0  0  0
    7.4485  -14.8106   15.9763 N   0  0  0  0  0  0  0  0  0  0  0  0
    7.4690  -14.4538   17.3940 C   0  0  0  0  0  0  0  0  0  0  0  0
    8.8936  -14.3861   17.8536 C   0  0  0  0  0  0  0  0  0  0  0  0
    8.9497  -13.8922   19.2727 C   0  0  0  0  0  0  0  0  0  0  0  0
    9.2699  -14.9687   20.2650 C   0  0  2  0  0  0  0  0  0  0  0  0
    8.3556  -16.0786   20.0836 N   0  0  0  0  0  0  0  0  0  0  0  0
    9.1216  -14.4786   21.6727 C   0  0  0  0  0  0  0  0  0  0  0  0
    9.3921  -13.2831   21.9641 O   0  0  0  0  0  0  0  0  0  0  0  0
    8.2254  -15.7223   13.7521 C   0  0  0  0  0  0  0  0  0  0  0  0
    5.5366  -11.4064   25.1927 S   0  0  0  0  0  0  0  0  0  0  0  0
    5.5081  -13.0093   26.0559 C   0  0  0  0  0  0  0  0  0  0  0  0
    7.0661  -13.8986   25.8287 C   0  0  0  0  0  0  0  0  0  0  0  0
    7.1532  -14.4296   24.4388 C   0  0  2  0  0  0  0  0  0  0  0  0
    8.5681  -14.8117   24.0708 N   0  0  0  0  0  0  0  0  0  0  0  0
    8.6828  -15.3015   22.7267 C   0  0  0  0  0  0  0  0  0  0  0  0
    9.1404  -15.7399   25.0736 O   0  0  0  0  0  0  0  0  0  0  0  0
    9.3740  -16.9243   24.7192 C   0  0  0  0  0  0  0  0  0  0  0  0
   10.0735  -13.7622   30.0488 C   0  0  0  0  0  0  0  0  0  0  0  0
   10.7122  -14.3830   28.8276 C   0  0  2  0  0  0  0  0  0  0  0  0
   10.2325  -15.7880   28.6941 C   0  0  0  0  0  0  0  0  0  0  0  0
   11.2296  -16.6865   29.4202 C   0  0  2  0  0  0  0  0  0  0  0  0
   10.1906  -16.2645   27.2594 N   0  0  0  0  0  0  0  0  0  0  0  0
    9.4403  -15.3699   26.4115 C   0  0  0  0  0  0  0  0  0  0  0  0
    9.4994  -17.5754   27.2783 O   0  0  0  0  0  0  0  0  0  0  0  0
    8.1293  -17.7073   27.4557 O   0  0  0  0  0  0  0  0  0  0  0  0
  1  2  1  0
  2  3  2  0
  4  2  1  0
  5  6  1  0
  5  4  1  0
  7  6  1  0
  8  7  1  0
  8  9  1  6
 10  8  1  0
 10 11  2  0
 12 13  1  0
 13 14  1  0
 16 15  1  6
 15 14  1  0
 16 17  1  0
 17 10  1  0
 18 16  1  0
 19 18  2  0
 21 20  1  0
 22 21  1  0
 22 23  1  6
 24 22  1  0
 24 25  1  6
 25 18  1  0
 26 24  1  0
 27 26  1  0
 28 26  2  0
M  END
$$$$
