RMI.pdb
     RDKit          3D

 28 27  0  0  1  0  0  0  0  0999 V2000
   12.8671  -17.7346   15.7846 N   0  0  0  0  0  0  0  0  0  0  0  0
   11.8537  -18.7522   15.9214 C   0  0  0  0  0  0  0  0  0  0  0  0
   12.0937  -19.9415   15.5055 N   0  0  0  0  0  0  0  0  0  0  0  0
   10.6008  -18.4694   16.5038 N   0  0  0  0  0  0  0  0  0  0  0  0
   10.3735  -18.4004   17.9464 C   0  0  0  0  0  0  0  0  0  0  0  0
   11.2442  -17.3246   18.5208 C   0  0  0  0  0  0  0  0  0  0  0  0
   10.4859  -16.5591   19.5695 C   0  0  0  0  0  0  0  0  0  0  0  0
   10.2109  -17.3585   20.8070 C   0  0  2  0  0  0  0  0  0  0  0  0
    8.9588  -18.0718   20.6515 N   0  0  0  0  0  0  0  0  0  0  0  0
   10.0897  -16.4781   22.0129 C   0  0  0  0  0  0  0  0  0  0  0  0
   11.0488  -15.7402   22.3633 O   0  0  0  0  0  0  0  0  0  0  0  0
   11.3987  -20.6937   15.6147 C   0  0  0  0  0  0  0  0  0  0  0  0
    5.6320  -11.9726   25.7632 S   0  0  0  0  0  0  0  0  0  0  0  0
    5.7044  -13.7895   25.8570 C   0  0  0  0  0  0  0  0  0  0  0  0
    7.3877  -14.3889   25.5792 C   0  0  0  0  0  0  0  0  0  0  0  0
    7.4404  -15.2046   24.3329 C   0  0  1  0  0  0  0  0  0  0  0  0
    8.8547  -15.6051   23.9829 N   0  0  0  0  0  0  0  0  0  0  0  0
    8.9284  -16.4232   22.8060 C   0  0  0  0  0  0  0  0  0  0  0  0
    9.5342  -16.2125   25.1508 O   0  0  0  0  0  0  0  0  0  0  0  0
    9.8939  -17.4152   25.0676 C   0  0  0  0  0  0  0  0  0  0  0  0
   10.9666  -13.0891   29.6376 C   0  0  0  0  0  0  0  0  0  0  0  0
   11.1436  -13.9271   28.3923 C   0  0  2  0  0  0  0  0  0  0  0  0
   10.6276  -15.3003   28.6577 C   0  0  0  0  0  0  0  0  0  0  0  0
   11.6127  -15.9891   29.5978 C   0  0  2  0  0  0  0  0  0  0  0  0
   10.5533  -16.1548   27.4122 N   0  0  0  0  0  0  0  0  0  0  0  0
    9.8028  -15.5154   26.3586 C   0  0  0  0  0  0  0  0  0  0  0  0
    9.8418  -17.3949   27.8025 O   0  0  0  0  0  0  0  0  0  0  0  0
   10.4956  -18.5831   28.0969 O   0  0  0  0  0  0  0  0  0  0  0  0
  1  2  1  0
  2  3  2  0
  4  2  1  0
  5  6  1  0
  5  4  1  0
  7  6  1  0
  8  7  1  0
  8  9  1  6
 10  8  1  0
 10 11  2  0
 12 13  1  0
 13 14  1  0
 16 15  1  6
 15 14  1  0
 16 17  1  0
 17 10  1  0
 18 16  1  0
 19 18  2  0
 21 20  1  0
 22 21  1  0
 22 23  1  1
 24 22  1  0
 24 25  1  6
 25 18  1  0
 26 24  1  0
 27 26  1  0
 28 26  2  0
M  END
$$$$
