RMI.pdb
     RDKit          3D

 28 27  0  0  1  0  0  0  0  0999 V2000
   10.5908  -21.8436   20.6808 N   0  0  0  0  0  0  0  0  0  0  0  0
   10.5454  -21.5939   19.2607 C   0  0  0  0  0  0  0  0  0  0  0  0
   11.5014  -22.0130   18.5155 N   0  0  0  0  0  0  0  0  0  0  0  0
    9.4708  -20.8972   18.6701 N   0  0  0  0  0  0  0  0  0  0  0  0
    8.9700  -19.6131   19.1581 C   0  0  0  0  0  0  0  0  0  0  0  0
   10.1049  -18.8582   19.7806 C   0  0  0  0  0  0  0  0  0  0  0  0
    9.6241  -18.1322   21.0064 C   0  0  0  0  0  0  0  0  0  0  0  0
    9.4677  -16.6559   20.8004 C   0  0  2  0  0  0  0  0  0  0  0  0
   10.4998  -16.1832   19.8993 N   0  0  0  0  0  0  0  0  0  0  0  0
    9.6056  -15.9048   22.0890 C   0  0  0  0  0  0  0  0  0  0  0  0
   10.7434  -15.6997   22.5895 O   0  0  0  0  0  0  0  0  0  0  0  0
   11.4616  -21.9112   17.4914 C   0  0  0  0  0  0  0  0  0  0  0  0
    4.6614  -12.8862   25.6433 S   0  0  0  0  0  0  0  0  0  0  0  0
    6.2429  -12.0657   26.0189 C   0  0  0  0  0  0  0  0  0  0  0  0
    7.6389  -13.1752   25.7189 C   0  0  0  0  0  0  0  0  0  0  0  0
    7.4284  -13.9299   24.4510 C   0  0  2  0  0  0  0  0  0  0  0  0
    8.6601  -14.7073   24.0487 N   0  0  0  0  0  0  0  0  0  0  0  0
    8.5024  -15.3962   22.7995 C   0  0  0  0  0  0  0  0  0  0  0  0
    9.1023  -15.5981   25.1466 O   0  0  0  0  0  0  0  0  0  0  0  0
    9.0737  -16.8404   24.9496 C   0  0  0  0  0  0  0  0  0  0  0  0
   10.7426  -13.2690   29.8222 C   0  0  0  0  0  0  0  0  0  0  0  0
   11.1134  -14.0728   28.5971 C   0  0  2  0  0  0  0  0  0  0  0  0
   10.4495  -15.4052   28.6754 C   0  0  0  0  0  0  0  0  0  0  0  0
   11.3851  -16.3425   29.4337 C   0  0  2  0  0  0  0  0  0  0  0  0
   10.2206  -16.0322   27.3184 N   0  0  0  0  0  0  0  0  0  0  0  0
    9.5564  -15.1306   26.4084 C   0  0  0  0  0  0  0  0  0  0  0  0
    9.3351  -17.1988   27.5453 O   0  0  0  0  0  0  0  0  0  0  0  0
    9.8129  -18.4633   27.8598 O   0  0  0  0  0  0  0  0  0  0  0  0
  1  2  1  0
  2  3  2  0
  4  2  1  0
  5  6  1  0
  5  4  1  0
  7  6  1  0
  8  7  1  0
  8  9  1  6
 10  8  1  0
 10 11  2  0
 12 13  1  0
 13 14  1  0
 16 15  1  6
 15 14  1  0
 16 17  1  0
 17 10  1  0
 18 16  1  0
 19 18  2  0
 21 20  1  0
 22 21  1  0
 22 23  1  6
 24 22  1  0
 24 25  1  6
 25 18  1  0
 26 24  1  0
 27 26  1  0
 28 26  2  0
M  END
$$$$
