RMI.pdb
     RDKit          3D

 28 27  0  0  1  0  0  0  0  0999 V2000
    7.2124  -13.4686   19.6698 N   0  0  0  0  0  0  0  0  0  0  0  0
    7.3507  -13.8431   18.2835 C   0  0  0  0  0  0  0  0  0  0  0  0
    7.7412  -12.9694   17.4298 N   0  0  0  0  0  0  0  0  0  0  0  0
    7.0656  -15.1523   17.8431 N   0  0  0  0  0  0  0  0  0  0  0  0
    7.8137  -16.3333   18.2708 C   0  0  0  0  0  0  0  0  0  0  0  0
    7.4059  -16.6819   19.6698 C   0  0  0  0  0  0  0  0  0  0  0  0
    8.6265  -16.8393   20.5337 C   0  0  0  0  0  0  0  0  0  0  0  0
    9.3069  -15.5405   20.8443 C   0  0  2  0  0  0  0  0  0  0  0  0
   10.6165  -15.5222   20.2237 N   0  0  0  0  0  0  0  0  0  0  0  0
    9.4965  -15.3598   22.3191 C   0  0  0  0  0  0  0  0  0  0  0  0
   10.5315  -15.7983   22.8880 O   0  0  0  0  0  0  0  0  0  0  0  0
    7.8595  -13.2122   16.4359 C   0  0  0  0  0  0  0  0  0  0  0  0
    6.7156  -11.0109   26.7269 S   0  0  0  0  0  0  0  0  0  0  0  0
    6.5812  -12.6756   27.4520 C   0  0  0  0  0  0  0  0  0  0  0  0
    7.7839  -13.8062   26.7134 C   0  0  0  0  0  0  0  0  0  0  0  0
    7.6314  -13.8167   25.2308 C   0  0  1  0  0  0  0  0  0  0  0  0
    8.7216  -14.6195   24.5596 N   0  0  0  0  0  0  0  0  0  0  0  0
    8.5554  -14.7067   23.1367 C   0  0  0  0  0  0  0  0  0  0  0  0
    8.8727  -15.9445   25.2048 O   0  0  0  0  0  0  0  0  0  0  0  0
    7.9661  -16.7980   25.0247 C   0  0  0  0  0  0  0  0  0  0  0  0
   12.6509  -19.4070   24.5079 C   0  0  0  0  0  0  0  0  0  0  0  0
   11.3502  -18.6916   24.7928 C   0  0  2  0  0  0  0  0  0  0  0  0
   11.2852  -18.3703   26.2470 C   0  0  0  0  0  0  0  0  0  0  0  0
   11.2400  -19.6916   27.0094 C   0  0  2  0  0  0  0  0  0  0  0  0
   10.0345  -17.6109   26.6292 N   0  0  0  0  0  0  0  0  0  0  0  0
    9.9818  -16.3065   26.0146 C   0  0  0  0  0  0  0  0  0  0  0  0
   10.0928  -17.4298   28.0990 O   0  0  0  0  0  0  0  0  0  0  0  0
    9.9224  -18.4728   28.9986 O   0  0  0  0  0  0  0  0  0  0  0  0
  1  2  1  0
  2  3  2  0
  4  2  1  0
  5  6  1  0
  5  4  1  0
  7  6  1  0
  8  7  1  0
  8  9  1  6
 10  8  1  0
 10 11  2  0
 12 13  1  0
 13 14  1  0
 16 15  1  6
 15 14  1  0
 16 17  1  0
 17 10  1  0
 18 16  1  0
 19 18  2  0
 21 20  1  0
 22 21  1  0
 22 23  1  1
 24 22  1  0
 24 25  1  6
 25 18  1  0
 26 24  1  0
 27 26  1  0
 28 26  2  0
M  END
$$$$
