RMI.pdb
     RDKit          3D

 28 27  0  0  1  0  0  0  0  0999 V2000
    9.2621  -22.4717   19.4250 N   0  0  0  0  0  0  0  0  0  0  0  0
   10.5550  -21.9271   19.0889 C   0  0  0  0  0  0  0  0  0  0  0  0
   11.3105  -22.5572   18.2660 N   0  0  0  0  0  0  0  0  0  0  0  0
   11.0097  -20.7137   19.6457 N   0  0  0  0  0  0  0  0  0  0  0  0
   10.3123  -19.9993   20.7138 C   0  0  0  0  0  0  0  0  0  0  0  0
    9.5156  -18.8843   20.1077 C   0  0  0  0  0  0  0  0  0  0  0  0
    8.7622  -18.1514   21.1830 C   0  0  0  0  0  0  0  0  0  0  0  0
    8.7471  -16.6651   20.9913 C   0  0  2  0  0  0  0  0  0  0  0  0
    9.6893  -16.3040   19.9509 N   0  0  0  0  0  0  0  0  0  0  0  0
    9.1491  -15.9466   22.2427 C   0  0  0  0  0  0  0  0  0  0  0  0
   10.3383  -15.5636   22.4047 O   0  0  0  0  0  0  0  0  0  0  0  0
   12.2537  -22.2120   18.0384 C   0  0  0  0  0  0  0  0  0  0  0  0
    6.2000  -11.6032   26.7073 S   0  0  0  0  0  0  0  0  0  0  0  0
    5.6798  -12.1823   25.0613 C   0  0  0  0  0  0  0  0  0  0  0  0
    7.0176  -13.0722   24.2318 C   0  0  0  0  0  0  0  0  0  0  0  0
    7.5075  -14.1815   25.0984 C   0  0  2  0  0  0  0  0  0  0  0  0
    8.6483  -14.9353   24.4550 N   0  0  0  0  0  0  0  0  0  0  0  0
    8.2471  -15.6634   23.2851 C   0  0  0  0  0  0  0  0  0  0  0  0
    9.3470  -15.7820   25.4497 O   0  0  0  0  0  0  0  0  0  0  0  0
    9.3719  -17.0250   25.2566 C   0  0  0  0  0  0  0  0  0  0  0  0
   11.1855  -13.6118   30.2504 C   0  0  0  0  0  0  0  0  0  0  0  0
   10.4244  -14.6477   29.4552 C   0  0  2  0  0  0  0  0  0  0  0  0
   11.3884  -15.4165   28.6175 C   0  0  0  0  0  0  0  0  0  0  0  0
   12.3462  -14.4142   27.9796 C   0  0  1  0  0  0  0  0  0  0  0  0
   10.7226  -16.1581   27.4800 N   0  0  0  0  0  0  0  0  0  0  0  0
    9.9902  -15.2715   26.6084 C   0  0  0  0  0  0  0  0  0  0  0  0
    9.7594  -17.0957   28.1044 O   0  0  0  0  0  0  0  0  0  0  0  0
   10.1497  -18.1756   28.8838 O   0  0  0  0  0  0  0  0  0  0  0  0
  1  2  1  0
  2  3  2  0
  4  2  1  0
  5  6  1  0
  5  4  1  0
  7  6  1  0
  8  7  1  0
  8  9  1  6
 10  8  1  0
 10 11  2  0
 12 13  1  0
 13 14  1  0
 16 15  1  6
 15 14  1  0
 16 17  1  0
 17 10  1  0
 18 16  1  0
 19 18  2  0
 21 20  1  0
 22 21  1  0
 22 23  1  1
 24 22  1  0
 24 25  1  6
 25 18  1  0
 26 24  1  0
 27 26  1  0
 28 26  2  0
M  END
$$$$
