RMI.pdb
     RDKit          3D

 28 27  0  0  1  0  0  0  0  0999 V2000
   10.1109  -23.9356   18.0776 N   0  0  0  0  0  0  0  0  0  0  0  0
    9.8842  -22.5541   17.7297 C   0  0  0  0  0  0  0  0  0  0  0  0
    8.7953  -22.2227   17.1387 N   0  0  0  0  0  0  0  0  0  0  0  0
   10.8351  -21.5553   18.0253 N   0  0  0  0  0  0  0  0  0  0  0  0
   11.0724  -21.0334   19.3702 C   0  0  0  0  0  0  0  0  0  0  0  0
    9.8469  -20.3020   19.8267 C   0  0  0  0  0  0  0  0  0  0  0  0
   10.0650  -19.7526   21.2093 C   0  0  0  0  0  0  0  0  0  0  0  0
    9.8546  -18.2716   21.3010 C   0  0  2  0  0  0  0  0  0  0  0  0
   11.1264  -17.5938   21.1476 N   0  0  0  0  0  0  0  0  0  0  0  0
    9.2843  -17.8800   22.6296 C   0  0  0  0  0  0  0  0  0  0  0  0
    8.1004  -18.1873   22.9316 O   0  0  0  0  0  0  0  0  0  0  0  0
    8.6098  -21.2448   16.8740 C   0  0  0  0  0  0  0  0  0  0  0  0
   11.9878  -17.6045   28.9528 S   0  0  0  0  0  0  0  0  0  0  0  0
   10.4097  -18.4343   28.5837 C   0  0  0  0  0  0  0  0  0  0  0  0
    9.4915  -17.5465   27.3035 C   0  0  0  0  0  0  0  0  0  0  0  0
   10.1731  -17.6996   25.9869 C   0  0  2  0  0  0  0  0  0  0  0  0
    9.4874  -16.9007   24.9030 N   0  0  0  0  0  0  0  0  0  0  0  0
   10.0166  -17.1645   23.5952 C   0  0  0  0  0  0  0  0  0  0  0  0
    9.4755  -15.4582   25.2399 O   0  0  0  0  0  0  0  0  0  0  0  0
   10.4845  -14.7705   24.9368 C   0  0  0  0  0  0  0  0  0  0  0  0
    4.8752  -12.3945   26.7361 C   0  0  0  0  0  0  0  0  0  0  0  0
    6.0909  -13.2786   26.8940 C   0  0  2  0  0  0  0  0  0  0  0  0
    7.2334  -12.6630   26.1607 C   0  0  0  0  0  0  0  0  0  0  0  0
    6.8930  -12.6867   24.6733 C   0  0  1  0  0  0  0  0  0  0  0  0
    8.5230  -13.4370   26.3186 N   0  0  0  0  0  0  0  0  0  0  0  0
    8.3909  -14.8070   25.8853 C   0  0  0  0  0  0  0  0  0  0  0  0
    8.8319  -13.4361   27.7681 O   0  0  0  0  0  0  0  0  0  0  0  0
    8.8633  -14.5910   28.5370 O   0  0  0  0  0  0  0  0  0  0  0  0
  1  2  1  0
  2  3  2  0
  4  2  1  0
  5  6  1  0
  5  4  1  0
  7  6  1  0
  8  7  1  0
  8  9  1  1
 10  8  1  0
 10 11  2  0
 12 13  1  0
 13 14  1  0
 16 15  1  6
 15 14  1  0
 16 17  1  0
 17 10  1  0
 18 16  1  0
 19 18  2  0
 21 20  1  0
 22 21  1  0
 22 23  1  1
 24 22  1  0
 24 25  1  6
 25 18  1  0
 26 24  1  0
 27 26  1  0
 28 26  2  0
M  END
$$$$
