RMI.pdb
     RDKit          3D

 28 27  0  0  1  0  0  0  0  0999 V2000
    9.4752  -14.2071   18.8594 N   0  0  0  0  0  0  0  0  0  0  0  0
    8.4394  -13.9995   17.8770 C   0  0  0  0  0  0  0  0  0  0  0  0
    8.0314  -12.8085   17.6323 N   0  0  0  0  0  0  0  0  0  0  0  0
    7.8625  -15.0793   17.1767 N   0  0  0  0  0  0  0  0  0  0  0  0
    7.0795  -16.1356   17.8159 C   0  0  0  0  0  0  0  0  0  0  0  0
    7.8203  -16.6204   19.0249 C   0  0  0  0  0  0  0  0  0  0  0  0
    6.9301  -16.5439   20.2343 C   0  0  0  0  0  0  0  0  0  0  0  0
    6.6458  -17.8808   20.8491 C   0  0  2  0  0  0  0  0  0  0  0  0
    5.4258  -18.4215   20.2835 N   0  0  0  0  0  0  0  0  0  0  0  0
    6.4553  -17.7735   22.3310 C   0  0  0  0  0  0  0  0  0  0  0  0
    5.3255  -17.4890   22.8103 O   0  0  0  0  0  0  0  0  0  0  0  0
    7.3124  -12.6288   16.9171 C   0  0  0  0  0  0  0  0  0  0  0  0
    8.3855  -19.2284   29.7930 S   0  0  0  0  0  0  0  0  0  0  0  0
    8.5124  -19.6583   28.0283 C   0  0  0  0  0  0  0  0  0  0  0  0
    7.8446  -18.3388   26.9875 C   0  0  0  0  0  0  0  0  0  0  0  0
    7.9323  -18.7273   25.5512 C   0  0  1  0  0  0  0  0  0  0  0  0
    7.3487  -17.6675   24.6459 N   0  0  0  0  0  0  0  0  0  0  0  0
    7.4987  -17.9787   23.2529 C   0  0  0  0  0  0  0  0  0  0  0  0
    7.8739  -16.3276   24.9972 O   0  0  0  0  0  0  0  0  0  0  0  0
    8.9766  -15.9756   24.5044 C   0  0  0  0  0  0  0  0  0  0  0  0
    6.2965  -10.8595   27.3891 C   0  0  0  0  0  0  0  0  0  0  0  0
    7.3968  -11.8131   26.9835 C   0  0  2  0  0  0  0  0  0  0  0  0
    6.7887  -13.1251   26.6213 C   0  0  0  0  0  0  0  0  0  0  0  0
    6.1207  -13.6849   27.8740 C   0  0  2  0  0  0  0  0  0  0  0  0
    7.8113  -14.1503   26.1851 N   0  0  0  0  0  0  0  0  0  0  0  0
    7.2044  -15.4179   25.8581 C   0  0  0  0  0  0  0  0  0  0  0  0
    8.7146  -14.3527   27.3425 O   0  0  0  0  0  0  0  0  0  0  0  0
    9.7031  -13.4465   27.7001 O   0  0  0  0  0  0  0  0  0  0  0  0
  1  2  1  0
  2  3  2  0
  4  2  1  0
  5  6  1  0
  5  4  1  0
  7  6  1  0
  8  7  1  0
  8  9  1  6
 10  8  1  0
 10 11  2  0
 12 13  1  0
 13 14  1  0
 16 15  1  1
 15 14  1  0
 16 17  1  0
 17 10  1  0
 18 16  1  0
 19 18  2  0
 21 20  1  0
 22 21  1  0
 22 23  1  6
 24 22  1  0
 24 25  1  1
 25 18  1  0
 26 24  1  0
 27 26  1  0
 28 26  2  0
M  END
$$$$
