RMI.pdb
     RDKit          3D

 28 27  0  0  1  0  0  0  0  0999 V2000
   11.5129  -19.6613   18.3750 N   0  0  0  0  0  0  0  0  0  0  0  0
   10.3627  -20.3000   17.7832 C   0  0  0  0  0  0  0  0  0  0  0  0
   10.4343  -20.7398   16.5806 N   0  0  0  0  0  0  0  0  0  0  0  0
    9.1568  -20.4529   18.4984 N   0  0  0  0  0  0  0  0  0  0  0  0
    8.9814  -20.0427   19.8908 C   0  0  0  0  0  0  0  0  0  0  0  0
    8.3608  -18.6791   19.9172 C   0  0  0  0  0  0  0  0  0  0  0  0
    9.2939  -17.7059   20.5828 C   0  0  0  0  0  0  0  0  0  0  0  0
    8.7043  -16.3387   20.7540 C   0  0  2  0  0  0  0  0  0  0  0  0
    9.1379  -15.4871   19.6643 N   0  0  0  0  0  0  0  0  0  0  0  0
    9.1511  -15.7054   22.0358 C   0  0  0  0  0  0  0  0  0  0  0  0
   10.3570  -15.3801   22.2006 O   0  0  0  0  0  0  0  0  0  0  0  0
    9.6761  -21.3071   16.1755 C   0  0  0  0  0  0  0  0  0  0  0  0
    5.3911  -12.0486   25.6137 S   0  0  0  0  0  0  0  0  0  0  0  0
    6.8651  -12.0019   26.6815 C   0  0  0  0  0  0  0  0  0  0  0  0
    8.1253  -13.1622   26.1021 C   0  0  0  0  0  0  0  0  0  0  0  0
    7.6362  -13.8866   24.8948 C   0  0  2  0  0  0  0  0  0  0  0  0
    8.7108  -14.7600   24.2899 N   0  0  0  0  0  0  0  0  0  0  0  0
    8.2745  -15.4422   23.1049 C   0  0  0  0  0  0  0  0  0  0  0  0
    9.2789  -15.6757   25.3063 O   0  0  0  0  0  0  0  0  0  0  0  0
    8.4817  -16.3542   26.0042 C   0  0  0  0  0  0  0  0  0  0  0  0
   10.5084  -14.1700   30.0062 C   0  0  0  0  0  0  0  0  0  0  0  0
   11.5381  -14.4076   28.9257 C   0  0  2  0  0  0  0  0  0  0  0  0
   10.8403  -14.5387   27.6149 C   0  0  0  0  0  0  0  0  0  0  0  0
    9.3410  -14.5918   27.8943 C   0  0  2  0  0  0  0  0  0  0  0  0
   11.1870  -15.8175   26.8860 N   0  0  0  0  0  0  0  0  0  0  0  0
   10.6713  -15.8316   25.5383 C   0  0  0  0  0  0  0  0  0  0  0  0
   10.5387  -16.9145   27.6428 O   0  0  0  0  0  0  0  0  0  0  0  0
    9.3611  -17.5247   27.2339 O   0  0  0  0  0  0  0  0  0  0  0  0
  1  2  1  0
  2  3  2  0
  4  2  1  0
  5  6  1  0
  5  4  1  0
  7  6  1  0
  8  7  1  0
  8  9  1  6
 10  8  1  0
 10 11  2  0
 12 13  1  0
 13 14  1  0
 16 15  1  6
 15 14  1  0
 16 17  1  0
 17 10  1  0
 18 16  1  0
 19 18  2  0
 21 20  1  0
 22 21  1  0
 22 23  1  6
 24 22  1  0
 24 25  1  1
 25 18  1  0
 26 24  1  0
 27 26  1  0
 28 26  2  0
M  END
$$$$
