RMI.pdb
     RDKit          3D

 28 27  0  0  1  0  0  0  0  0999 V2000
    7.9139  -15.0037   15.9320 N   0  0  0  0  0  0  0  0  0  0  0  0
    8.4541  -13.8444   16.5993 C   0  0  0  0  0  0  0  0  0  0  0  0
    7.9410  -12.6907   16.3743 N   0  0  0  0  0  0  0  0  0  0  0  0
    9.5371  -13.9499   17.4966 N   0  0  0  0  0  0  0  0  0  0  0  0
    9.3866  -13.9753   18.9506 C   0  0  0  0  0  0  0  0  0  0  0  0
    7.9666  -14.3197   19.2825 C   0  0  0  0  0  0  0  0  0  0  0  0
    7.8190  -15.8105   19.4108 C   0  0  0  0  0  0  0  0  0  0  0  0
    8.7527  -16.4165   20.4144 C   0  0  2  0  0  0  0  0  0  0  0  0
    8.3126  -17.7604   20.7318 N   0  0  0  0  0  0  0  0  0  0  0  0
    8.7746  -15.6289   21.6883 C   0  0  0  0  0  0  0  0  0  0  0  0
    9.4392  -14.5615   21.7674 O   0  0  0  0  0  0  0  0  0  0  0  0
    8.2872  -11.8506   16.8593 C   0  0  0  0  0  0  0  0  0  0  0  0
    6.0984  -11.3812   25.6744 S   0  0  0  0  0  0  0  0  0  0  0  0
    5.6510  -13.0594   26.2210 C   0  0  0  0  0  0  0  0  0  0  0  0
    7.0237  -14.2109   25.9768 C   0  0  0  0  0  0  0  0  0  0  0  0
    6.8653  -14.9266   24.6790 C   0  0  1  0  0  0  0  0  0  0  0  0
    8.1996  -15.3123   24.0836 N   0  0  0  0  0  0  0  0  0  0  0  0
    8.0731  -16.0228   22.8430 C   0  0  0  0  0  0  0  0  0  0  0  0
    9.0315  -16.0303   25.0770 O   0  0  0  0  0  0  0  0  0  0  0  0
    9.2393  -17.2584   24.8990 C   0  0  0  0  0  0  0  0  0  0  0  0
   10.6559  -13.4116   29.7070 C   0  0  0  0  0  0  0  0  0  0  0  0
   10.9631  -14.0941   28.3938 C   0  0  2  0  0  0  0  0  0  0  0  0
   10.5432  -15.5216   28.4825 C   0  0  0  0  0  0  0  0  0  0  0  0
   11.6344  -16.2771   29.2357 C   0  0  2  0  0  0  0  0  0  0  0  0
   10.4166  -16.1856   27.1297 N   0  0  0  0  0  0  0  0  0  0  0  0
    9.6078  -15.4124   26.2185 C   0  0  0  0  0  0  0  0  0  0  0  0
    9.7389  -17.4822   27.3664 O   0  0  0  0  0  0  0  0  0  0  0  0
   10.4261  -18.6725   27.5592 O   0  0  0  0  0  0  0  0  0  0  0  0
  1  2  1  0
  2  3  2  0
  4  2  1  0
  5  6  1  0
  5  4  1  0
  7  6  1  0
  8  7  1  0
  8  9  1  1
 10  8  1  0
 10 11  2  0
 12 13  1  0
 13 14  1  0
 16 15  1  6
 15 14  1  0
 16 17  1  0
 17 10  1  0
 18 16  1  0
 19 18  2  0
 21 20  1  0
 22 21  1  0
 22 23  1  6
 24 22  1  0
 24 25  1  6
 25 18  1  0
 26 24  1  0
 27 26  1  0
 28 26  2  0
M  END
$$$$
