RMI.pdb
     RDKit          3D

 28 27  0  0  1  0  0  0  0  0999 V2000
    6.9881  -15.1645   15.4467 N   0  0  0  0  0  0  0  0  0  0  0  0
    8.1570  -14.3238   15.3574 C   0  0  0  0  0  0  0  0  0  0  0  0
    8.9033  -14.3892   14.3164 N   0  0  0  0  0  0  0  0  0  0  0  0
    8.4999  -13.4282   16.3915 N   0  0  0  0  0  0  0  0  0  0  0  0
    7.6776  -13.2080   17.5802 C   0  0  0  0  0  0  0  0  0  0  0  0
    7.7690  -14.4172   18.4604 C   0  0  0  0  0  0  0  0  0  0  0  0
    8.6308  -14.1156   19.6551 C   0  0  0  0  0  0  0  0  0  0  0  0
    8.8810  -15.3102   20.5249 C   0  0  2  0  0  0  0  0  0  0  0  0
    7.7335  -16.1939   20.4714 N   0  0  0  0  0  0  0  0  0  0  0  0
    9.0876  -14.9139   21.9546 C   0  0  0  0  0  0  0  0  0  0  0  0
   10.0499  -14.1676   22.2773 O   0  0  0  0  0  0  0  0  0  0  0  0
    9.7486  -13.8072   14.2302 C   0  0  0  0  0  0  0  0  0  0  0  0
    5.9985  -11.1963   26.3375 S   0  0  0  0  0  0  0  0  0  0  0  0
    5.8604  -12.9328   26.8675 C   0  0  0  0  0  0  0  0  0  0  0  0
    7.3036  -13.8891   26.3455 C   0  0  0  0  0  0  0  0  0  0  0  0
    7.1058  -14.3961   24.9579 C   0  0  2  0  0  0  0  0  0  0  0  0
    8.4027  -14.8666   24.3414 N   0  0  0  0  0  0  0  0  0  0  0  0
    8.2421  -15.3397   22.9959 C   0  0  0  0  0  0  0  0  0  0  0  0
    9.0780  -15.8486   25.2212 O   0  0  0  0  0  0  0  0  0  0  0  0
    8.8381  -17.0702   25.0394 C   0  0  0  0  0  0  0  0  0  0  0  0
   11.3452  -14.5336   30.2172 C   0  0  0  0  0  0  0  0  0  0  0  0
   10.4936  -15.1641   29.1393 C   0  0  2  0  0  0  0  0  0  0  0  0
   11.3742  -15.9438   28.2235 C   0  0  0  0  0  0  0  0  0  0  0  0
   12.4193  -14.9843   27.6613 C   0  0  1  0  0  0  0  0  0  0  0  0
   10.6332  -16.5156   27.0357 N   0  0  0  0  0  0  0  0  0  0  0  0
    9.9805  -15.4906   26.2576 C   0  0  0  0  0  0  0  0  0  0  0  0
    9.5913  -17.4122   27.5899 O   0  0  0  0  0  0  0  0  0  0  0  0
    9.8832  -18.6072   28.2324 O   0  0  0  0  0  0  0  0  0  0  0  0
  1  2  1  0
  2  3  2  0
  4  2  1  0
  5  6  1  0
  5  4  1  0
  7  6  1  0
  8  7  1  0
  8  9  1  1
 10  8  1  0
 10 11  2  0
 12 13  1  0
 13 14  1  0
 16 15  1  6
 15 14  1  0
 16 17  1  0
 17 10  1  0
 18 16  1  0
 19 18  2  0
 21 20  1  0
 22 21  1  0
 22 23  1  1
 24 22  1  0
 24 25  1  6
 25 18  1  0
 26 24  1  0
 27 26  1  0
 28 26  2  0
M  END
$$$$
