FWL.pdb
     RDKit          3D

 34 36  0  0  1  0  0  0  0  0999 V2000
   16.6964  -19.9630    2.5432 N   0  0  0  0  0  0  0  0  0  0  0  0
   16.7548  -19.8336    3.9711 C   0  0  1  0  0  0  0  0  0  0  0  0
   17.2595  -21.1408    4.5431 C   0  0  0  0  0  0  0  0  0  0  0  0
   16.3256  -22.2513    4.2727 C   0  0  0  0  0  0  0  0  0  0  0  0
   15.1040  -22.3131    4.8819 C   0  0  0  0  0  0  0  0  0  0  0  0
   14.2399  -23.3539    4.6228 C   0  0  0  0  0  0  0  0  0  0  0  0
   14.5843  -24.3571    3.7449 C   0  0  0  0  0  0  0  0  0  0  0  0
   15.8176  -24.2877    3.1347 C   0  0  0  0  0  0  0  0  0  0  0  0
   16.6863  -23.2459    3.3920 C   0  0  0  0  0  0  0  0  0  0  0  0
   17.7504  -18.7987    4.3896 C   0  0  0  0  0  0  0  0  0  0  0  0
   18.7374  -18.4953    3.6905 O   0  0  0  0  0  0  0  0  0  0  0  0
   17.5510  -18.1512    5.6228 N   0  0  0  0  0  0  0  0  0  0  0  0
   18.3249  -16.9517    6.0022 C   0  0  1  0  0  0  0  0  0  0  0  0
   17.2767  -15.8899    6.2531 C   0  0  0  0  0  0  0  0  0  0  0  0
   17.5424  -14.5972    5.6305 C   0  0  0  0  0  0  0  0  0  0  0  0
   16.8105  -14.0192    4.5905 C   0  0  0  0  0  0  0  0  0  0  0  0
   17.3624  -12.8390    4.2772 N   0  0  0  0  0  0  0  0  0  0  0  0
   18.4322  -12.6075    5.0662 C   0  0  0  0  0  0  0  0  0  0  0  0
   19.2935  -11.5344    5.0995 C   0  0  0  0  0  0  0  0  0  0  0  0
   20.3176  -11.5650    6.0262 C   0  0  0  0  0  0  0  0  0  0  0  0
   20.4375  -12.6518    6.8704 C   0  0  0  0  0  0  0  0  0  0  0  0
   19.5822  -13.7269    6.8440 C   0  0  0  0  0  0  0  0  0  0  0  0
   18.5513  -13.6958    5.9108 C   0  0  0  0  0  0  0  0  0  0  0  0
   19.0322  -17.2697    7.2816 C   0  0  0  0  0  0  0  0  0  0  0  0
   18.4612  -18.0404    8.0946 O   0  0  0  0  0  0  0  0  0  0  0  0
   24.5441  -16.7637   10.0694 C   0  0  0  0  0  0  0  0  0  0  0  0
   23.1232  -17.2401   10.0763 C   0  0  2  0  0  0  0  0  0  0  0  0
   23.1833  -18.7743   10.3005 C   0  0  0  0  0  0  0  0  0  0  0  0
   22.3225  -17.0575    8.8604 C   0  0  0  0  0  0  0  0  0  0  0  0
   20.8540  -17.0601    8.9383 C   0  0  2  0  0  0  0  0  0  0  0  0
   20.2940  -16.7496    7.6067 N   0  0  0  0  0  0  0  0  0  0  0  0
   20.1454  -16.2714    9.9243 C   0  0  0  0  0  0  0  0  0  0  0  0
   20.0771  -14.9027    9.9474 O   0  0  0  0  0  0  0  0  0  0  0  0
   19.5327  -16.8582   10.8614 O   0  0  0  0  0  0  0  0  0  0  0  0
  2  1  1  6
  3  2  1  0
  4  3  1  0
  4  5  2  0
  6  5  1  0
  7  6  2  0
  8  9  2  0
  8  7  1  0
  9  4  1  0
 10 11  2  0
 10  2  1  0
 12 10  1  0
 13 12  1  0
 13 14  1  1
 15 23  1  0
 15 14  1  0
 16 15  2  0
 17 16  1  0
 17 18  1  0
 18 23  2  0
 19 18  1  0
 19 20  2  0
 20 21  1  0
 21 22  2  0
 23 22  1  0
 24 25  2  0
 24 13  1  0
 27 26  1  6
 27 28  1  0
 27 29  1  0
 30 29  1  6
 30 31  1  0
 31 24  1  0
 32 30  1  0
 33 32  1  0
 34 32  2  0
M  END
$$$$
