FWL.pdb
     RDKit          3D

 34 36  0  0  1  0  0  0  0  0999 V2000
   26.9057  -16.2581  -18.1354 N   0  0  0  0  0  0  0  0  0  0  0  0
   26.9807  -17.4602  -17.3553 C   0  0  1  0  0  0  0  0  0  0  0  0
   28.2454  -17.4062  -16.5256 C   0  0  0  0  0  0  0  0  0  0  0  0
   29.4537  -17.5304  -17.3641 C   0  0  0  0  0  0  0  0  0  0  0  0
   30.2859  -16.4661  -17.5684 C   0  0  0  0  0  0  0  0  0  0  0  0
   31.4109  -16.5925  -18.3530 C   0  0  0  0  0  0  0  0  0  0  0  0
   31.7251  -17.7925  -18.9505 C   0  0  0  0  0  0  0  0  0  0  0  0
   30.8811  -18.8608  -18.7397 C   0  0  0  0  0  0  0  0  0  0  0  0
   29.7526  -18.7377  -17.9539 C   0  0  0  0  0  0  0  0  0  0  0  0
   25.8566  -17.5494  -16.3725 C   0  0  0  0  0  0  0  0  0  0  0  0
   25.6483  -16.6735  -15.5096 O   0  0  0  0  0  0  0  0  0  0  0  0
   25.0100  -18.6714  -16.4376 N   0  0  0  0  0  0  0  0  0  0  0  0
   23.8569  -18.8258  -15.5276 C   0  0  1  0  0  0  0  0  0  0  0  0
   22.7168  -19.2429  -16.4305 C   0  0  0  0  0  0  0  0  0  0  0  0
   21.4547  -19.5141  -15.7500 C   0  0  0  0  0  0  0  0  0  0  0  0
   20.6712  -18.5807  -15.0672 C   0  0  0  0  0  0  0  0  0  0  0  0
   19.5971  -19.2035  -14.5635 N   0  0  0  0  0  0  0  0  0  0  0  0
   19.6333  -20.5140  -14.8830 C   0  0  0  0  0  0  0  0  0  0  0  0
   18.7489  -21.5247  -14.5814 C   0  0  0  0  0  0  0  0  0  0  0  0
   19.0435  -22.7918  -15.0464 C   0  0  0  0  0  0  0  0  0  0  0  0
   20.1940  -22.9944  -15.7836 C   0  0  0  0  0  0  0  0  0  0  0  0
   21.0820  -21.9914  -16.0891 C   0  0  0  0  0  0  0  0  0  0  0  0
   20.7851  -20.7158  -15.6208 C   0  0  0  0  0  0  0  0  0  0  0  0
   24.1844  -19.9415  -14.5862 C   0  0  0  0  0  0  0  0  0  0  0  0
   24.6287  -21.0122  -15.0734 O   0  0  0  0  0  0  0  0  0  0  0  0
   24.8589  -19.4259   -9.8081 C   0  0  0  0  0  0  0  0  0  0  0  0
   25.4228  -20.7467  -10.2364 C   0  0  2  0  0  0  0  0  0  0  0  0
   26.9271  -20.7174   -9.8571 C   0  0  0  0  0  0  0  0  0  0  0  0
   25.3897  -21.0875  -11.6631 C   0  0  0  0  0  0  0  0  0  0  0  0
   24.1131  -21.0784  -12.3931 C   0  0  2  0  0  0  0  0  0  0  0  0
   24.0191  -19.8421  -13.1965 N   0  0  0  0  0  0  0  0  0  0  0  0
   22.8497  -21.2761  -11.7140 C   0  0  0  0  0  0  0  0  0  0  0  0
   21.8918  -20.3148  -11.5219 O   0  0  0  0  0  0  0  0  0  0  0  0
   22.5746  -22.4147  -11.2388 O   0  0  0  0  0  0  0  0  0  0  0  0
  2  1  1  1
  3  2  1  0
  4  3  1  0
  4  5  2  0
  6  5  1  0
  7  6  2  0
  8  9  2  0
  8  7  1  0
  9  4  1  0
 10 11  2  0
 10  2  1  0
 12 10  1  0
 13 12  1  0
 13 14  1  6
 15 23  1  0
 15 14  1  0
 16 15  2  0
 17 16  1  0
 17 18  1  0
 18 23  2  0
 19 18  1  0
 19 20  2  0
 20 21  1  0
 21 22  2  0
 23 22  1  0
 24 25  2  0
 24 13  1  0
 27 26  1  6
 27 28  1  0
 27 29  1  0
 30 29  1  1
 30 31  1  0
 31 24  1  0
 32 30  1  0
 33 32  1  0
 34 32  2  0
M  END
$$$$
