FWL.pdb
     RDKit          3D

 34 36  0  0  1  0  0  0  0  0999 V2000
   27.6789  -21.5371  -15.1125 N   0  0  0  0  0  0  0  0  0  0  0  0
   27.6229  -20.5352  -14.0867 C   0  0  1  0  0  0  0  0  0  0  0  0
   26.8242  -19.3631  -14.6151 C   0  0  0  0  0  0  0  0  0  0  0  0
   27.5616  -18.6278  -15.6611 C   0  0  0  0  0  0  0  0  0  0  0  0
   28.5974  -17.7948  -15.3440 C   0  0  0  0  0  0  0  0  0  0  0  0
   29.2789  -17.1129  -16.3277 C   0  0  0  0  0  0  0  0  0  0  0  0
   28.9346  -17.2529  -17.6535 C   0  0  0  0  0  0  0  0  0  0  0  0
   27.8893  -18.0946  -17.9650 C   0  0  0  0  0  0  0  0  0  0  0  0
   27.2039  -18.7796  -16.9816 C   0  0  0  0  0  0  0  0  0  0  0  0
   26.8790  -21.0208  -12.8833 C   0  0  0  0  0  0  0  0  0  0  0  0
   26.0068  -21.9098  -12.9469 O   0  0  0  0  0  0  0  0  0  0  0  0
   27.1874  -20.4421  -11.6384 N   0  0  0  0  0  0  0  0  0  0  0  0
   26.3766  -20.7159  -10.4346 C   0  0  1  0  0  0  0  0  0  0  0  0
   27.1028  -19.9969   -9.3188 C   0  0  0  0  0  0  0  0  0  0  0  0
   26.6904  -20.3698   -7.9697 C   0  0  0  0  0  0  0  0  0  0  0  0
   25.5507  -21.1032   -7.6311 C   0  0  0  0  0  0  0  0  0  0  0  0
   25.5005  -21.2338   -6.2985 N   0  0  0  0  0  0  0  0  0  0  0  0
   26.5605  -20.6172   -5.7356 C   0  0  0  0  0  0  0  0  0  0  0  0
   26.9150  -20.4958   -4.4111 C   0  0  0  0  0  0  0  0  0  0  0  0
   28.0717  -19.7988   -4.1202 C   0  0  0  0  0  0  0  0  0  0  0  0
   28.8168  -19.2589   -5.1505 C   0  0  0  0  0  0  0  0  0  0  0  0
   28.4703  -19.3754   -6.4750 C   0  0  0  0  0  0  0  0  0  0  0  0
   27.3056  -20.0772   -6.7676 C   0  0  0  0  0  0  0  0  0  0  0  0
   25.0385  -20.0828  -10.6508 C   0  0  0  0  0  0  0  0  0  0  0  0
   24.9919  -19.0157  -11.3144 O   0  0  0  0  0  0  0  0  0  0  0  0
   22.2149  -20.8236  -14.7124 C   0  0  0  0  0  0  0  0  0  0  0  0
   21.8691  -21.2569  -13.3200 C   0  0  2  0  0  0  0  0  0  0  0  0
   20.7569  -20.2916  -12.8312 C   0  0  0  0  0  0  0  0  0  0  0  0
   22.9146  -21.1952  -12.2925 C   0  0  0  0  0  0  0  0  0  0  0  0
   22.6378  -20.5560  -10.9975 C   0  0  2  0  0  0  0  0  0  0  0  0
   23.8460  -20.6265  -10.1501 N   0  0  0  0  0  0  0  0  0  0  0  0
   21.4957  -20.9361  -10.1928 C   0  0  0  0  0  0  0  0  0  0  0  0
   21.4559  -21.9897   -9.3171 O   0  0  0  0  0  0  0  0  0  0  0  0
   20.4257  -20.2690  -10.2834 O   0  0  0  0  0  0  0  0  0  0  0  0
  2  1  1  6
  3  2  1  0
  4  3  1  0
  4  5  2  0
  6  5  1  0
  7  6  2  0
  8  9  2  0
  8  7  1  0
  9  4  1  0
 10 11  2  0
 10  2  1  0
 12 10  1  0
 13 12  1  0
 13 14  1  1
 15 23  1  0
 15 14  1  0
 16 15  2  0
 17 16  1  0
 17 18  1  0
 18 23  2  0
 19 18  1  0
 19 20  2  0
 20 21  1  0
 21 22  2  0
 23 22  1  0
 24 25  2  0
 24 13  1  0
 27 26  1  6
 27 28  1  0
 27 29  1  0
 30 29  1  6
 30 31  1  0
 31 24  1  0
 32 30  1  0
 33 32  1  0
 34 32  2  0
M  END
$$$$
