FWL.pdb
     RDKit          3D

 34 36  0  0  1  0  0  0  0  0999 V2000
   28.1679  -21.0431  -15.3359 N   0  0  0  0  0  0  0  0  0  0  0  0
   27.8619  -20.0604  -14.3359 C   0  0  1  0  0  0  0  0  0  0  0  0
   26.9310  -19.0368  -14.9496 C   0  0  0  0  0  0  0  0  0  0  0  0
   27.6564  -18.0955  -15.8250 C   0  0  0  0  0  0  0  0  0  0  0  0
   27.8204  -18.3511  -17.1573 C   0  0  0  0  0  0  0  0  0  0  0  0
   28.4992  -17.4662  -17.9656 C   0  0  0  0  0  0  0  0  0  0  0  0
   29.0290  -16.3034  -17.4528 C   0  0  0  0  0  0  0  0  0  0  0  0
   28.8594  -16.0529  -16.1087 C   0  0  0  0  0  0  0  0  0  0  0  0
   28.1796  -16.9376  -15.2955 C   0  0  0  0  0  0  0  0  0  0  0  0
   27.1069  -20.6572  -13.1908 C   0  0  0  0  0  0  0  0  0  0  0  0
   26.2149  -21.5142  -13.3487 O   0  0  0  0  0  0  0  0  0  0  0  0
   27.4280  -20.2244  -11.8910 N   0  0  0  0  0  0  0  0  0  0  0  0
   26.7830  -20.8097  -10.6981 C   0  0  1  0  0  0  0  0  0  0  0  0
   27.6089  -20.3034   -9.5359 C   0  0  0  0  0  0  0  0  0  0  0  0
   27.0458  -20.5644   -8.2152 C   0  0  0  0  0  0  0  0  0  0  0  0
   25.8146  -21.1691   -7.9508 C   0  0  0  0  0  0  0  0  0  0  0  0
   25.6357  -21.2241   -6.6240 N   0  0  0  0  0  0  0  0  0  0  0  0
   26.6978  -20.6805   -5.9938 C   0  0  0  0  0  0  0  0  0  0  0  0
   26.9456  -20.5232   -4.6490 C   0  0  0  0  0  0  0  0  0  0  0  0
   28.1352  -19.9232   -4.2840 C   0  0  0  0  0  0  0  0  0  0  0  0
   29.0167  -19.5105   -5.2643 C   0  0  0  0  0  0  0  0  0  0  0  0
   28.7773  -19.6636   -6.6086 C   0  0  0  0  0  0  0  0  0  0  0  0
   27.5795  -20.2678   -6.9757 C   0  0  0  0  0  0  0  0  0  0  0  0
   25.4026  -20.2384  -10.6182 C   0  0  0  0  0  0  0  0  0  0  0  0
   25.2732  -18.9926  -10.7293 O   0  0  0  0  0  0  0  0  0  0  0  0
   20.8581  -20.8302  -13.4080 C   0  0  0  0  0  0  0  0  0  0  0  0
   22.0550  -19.9337  -13.3089 C   0  0  2  0  0  0  0  0  0  0  0  0
   22.6314  -19.8228  -14.7453 C   0  0  0  0  0  0  0  0  0  0  0  0
   23.1803  -20.3658  -12.4723 C   0  0  0  0  0  0  0  0  0  0  0  0
   22.9885  -20.5716  -11.0289 C   0  0  2  0  0  0  0  0  0  0  0  0
   24.2587  -21.0282  -10.4280 N   0  0  0  0  0  0  0  0  0  0  0  0
   21.9191  -21.4025  -10.5168 C   0  0  0  0  0  0  0  0  0  0  0  0
   21.9536  -22.7688  -10.4149 O   0  0  0  0  0  0  0  0  0  0  0  0
   20.8457  -20.8592  -10.1284 O   0  0  0  0  0  0  0  0  0  0  0  0
  2  1  1  6
  3  2  1  0
  4  3  1  0
  4  5  2  0
  6  5  1  0
  7  6  2  0
  8  9  2  0
  8  7  1  0
  9  4  1  0
 10 11  2  0
 10  2  1  0
 12 10  1  0
 13 12  1  0
 13 14  1  1
 15 23  1  0
 15 14  1  0
 16 15  2  0
 17 16  1  0
 17 18  1  0
 18 23  2  0
 19 18  1  0
 19 20  2  0
 20 21  1  0
 21 22  2  0
 23 22  1  0
 24 25  2  0
 24 13  1  0
 27 26  1  6
 27 28  1  0
 27 29  1  0
 30 29  1  6
 30 31  1  0
 31 24  1  0
 32 30  1  0
 33 32  1  0
 34 32  2  0
M  END
$$$$
