FWL.pdb
     RDKit          3D

 34 36  0  0  1  0  0  0  0  0999 V2000
   29.1788  -22.4496  -18.3890 N   0  0  0  0  0  0  0  0  0  0  0  0
   29.0039  -22.6641  -16.9810 C   0  0  1  0  0  0  0  0  0  0  0  0
   30.3680  -22.6342  -16.3261 C   0  0  0  0  0  0  0  0  0  0  0  0
   31.1673  -23.8248  -16.6760 C   0  0  0  0  0  0  0  0  0  0  0  0
   30.9698  -25.0204  -16.0446 C   0  0  0  0  0  0  0  0  0  0  0  0
   31.7212  -26.1255  -16.3784 C   0  0  0  0  0  0  0  0  0  0  0  0
   32.6890  -26.0537  -17.3551 C   0  0  0  0  0  0  0  0  0  0  0  0
   32.8820  -24.8448  -17.9871 C   0  0  0  0  0  0  0  0  0  0  0  0
   32.1307  -23.7351  -17.6551 C   0  0  0  0  0  0  0  0  0  0  0  0
   28.2276  -21.5534  -16.3475 C   0  0  0  0  0  0  0  0  0  0  0  0
   28.3031  -20.3725  -16.7407 O   0  0  0  0  0  0  0  0  0  0  0  0
   27.3836  -21.8703  -15.2671 N   0  0  0  0  0  0  0  0  0  0  0  0
   26.5026  -20.8583  -14.6496 C   0  0  1  0  0  0  0  0  0  0  0  0
   25.1974  -20.9830  -15.4045 C   0  0  0  0  0  0  0  0  0  0  0  0
   24.1026  -20.1677  -14.8886 C   0  0  0  0  0  0  0  0  0  0  0  0
   24.0340  -18.7727  -14.9124 C   0  0  0  0  0  0  0  0  0  0  0  0
   22.8876  -18.3861  -14.3363 N   0  0  0  0  0  0  0  0  0  0  0  0
   22.1898  -19.4671  -13.9297 C   0  0  0  0  0  0  0  0  0  0  0  0
   20.9706  -19.5482  -13.2961 C   0  0  0  0  0  0  0  0  0  0  0  0
   20.4897  -20.8076  -12.9940 C   0  0  0  0  0  0  0  0  0  0  0  0
   21.2365  -21.9192  -13.3328 C   0  0  0  0  0  0  0  0  0  0  0  0
   22.4542  -21.8472  -13.9652 C   0  0  0  0  0  0  0  0  0  0  0  0
   22.9381  -20.5791  -14.2692 C   0  0  0  0  0  0  0  0  0  0  0  0
   26.2975  -21.2632  -13.2240 C   0  0  0  0  0  0  0  0  0  0  0  0
   26.0503  -22.4727  -12.9849 O   0  0  0  0  0  0  0  0  0  0  0  0
   25.7994  -20.0734   -7.6907 C   0  0  0  0  0  0  0  0  0  0  0  0
   26.9694  -20.6527   -8.4265 C   0  0  2  0  0  0  0  0  0  0  0  0
   28.2363  -20.0346   -7.7779 C   0  0  0  0  0  0  0  0  0  0  0  0
   27.0948  -20.3759   -9.8619 C   0  0  0  0  0  0  0  0  0  0  0  0
   26.0671  -20.8568  -10.7973 C   0  0  2  0  0  0  0  0  0  0  0  0
   26.3706  -20.3581  -12.1545 N   0  0  0  0  0  0  0  0  0  0  0  0
   24.6561  -20.6537  -10.5437 C   0  0  0  0  0  0  0  0  0  0  0  0
   23.9629  -19.4972  -10.7896 O   0  0  0  0  0  0  0  0  0  0  0  0
   23.9750  -21.5962  -10.0480 O   0  0  0  0  0  0  0  0  0  0  0  0
  2  1  1  6
  3  2  1  0
  4  3  1  0
  4  5  2  0
  6  5  1  0
  7  6  2  0
  8  9  2  0
  8  7  1  0
  9  4  1  0
 10 11  2  0
 10  2  1  0
 12 10  1  0
 13 12  1  0
 13 14  1  6
 15 23  1  0
 15 14  1  0
 16 15  2  0
 17 16  1  0
 17 18  1  0
 18 23  2  0
 19 18  1  0
 19 20  2  0
 20 21  1  0
 21 22  2  0
 23 22  1  0
 24 25  2  0
 24 13  1  0
 27 26  1  1
 27 28  1  0
 27 29  1  0
 30 29  1  1
 30 31  1  0
 31 24  1  0
 32 30  1  0
 33 32  1  0
 34 32  2  0
M  END
$$$$
