FWL.pdb
     RDKit          3D

 34 36  0  0  1  0  0  0  0  0999 V2000
   26.1154  -21.3244  -17.5656 N   0  0  0  0  0  0  0  0  0  0  0  0
   25.9686  -20.3172  -16.5541 C   0  0  1  0  0  0  0  0  0  0  0  0
   24.5835  -19.7202  -16.6802 C   0  0  0  0  0  0  0  0  0  0  0  0
   24.4533  -18.8964  -17.8980 C   0  0  0  0  0  0  0  0  0  0  0  0
   25.1482  -17.7284  -18.0400 C   0  0  0  0  0  0  0  0  0  0  0  0
   25.0194  -16.9668  -19.1804 C   0  0  0  0  0  0  0  0  0  0  0  0
   24.1886  -17.3621  -20.2047 C   0  0  0  0  0  0  0  0  0  0  0  0
   23.4915  -18.5408  -20.0539 C   0  0  0  0  0  0  0  0  0  0  0  0
   23.6181  -19.3068  -18.9123 C   0  0  0  0  0  0  0  0  0  0  0  0
   26.0315  -20.9043  -15.1798 C   0  0  0  0  0  0  0  0  0  0  0  0
   25.4789  -21.9824  -14.8844 O   0  0  0  0  0  0  0  0  0  0  0  0
   26.7465  -20.2003  -14.1932 N   0  0  0  0  0  0  0  0  0  0  0  0
   26.8683  -20.7106  -12.8125 C   0  0  1  0  0  0  0  0  0  0  0  0
   28.0959  -20.0188  -12.2614 C   0  0  0  0  0  0  0  0  0  0  0  0
   28.5207  -20.4696  -10.9402 C   0  0  0  0  0  0  0  0  0  0  0  0
   29.3384  -21.5695  -10.6700 C   0  0  0  0  0  0  0  0  0  0  0  0
   29.4959  -21.6759   -9.3436 N   0  0  0  0  0  0  0  0  0  0  0  0
   28.8162  -20.6916   -8.7192 C   0  0  0  0  0  0  0  0  0  0  0  0
   28.6936  -20.4123   -7.3770 C   0  0  0  0  0  0  0  0  0  0  0  0
   27.9222  -19.3239   -7.0183 C   0  0  0  0  0  0  0  0  0  0  0  0
   27.3131  -18.5692   -8.0020 C   0  0  0  0  0  0  0  0  0  0  0  0
   27.4302  -18.8408   -9.3438 C   0  0  0  0  0  0  0  0  0  0  0  0
   28.2069  -19.9368   -9.7046 C   0  0  0  0  0  0  0  0  0  0  0  0
   25.6566  -20.2520  -12.0644 C   0  0  0  0  0  0  0  0  0  0  0  0
   25.0907  -19.1971  -12.4494 O   0  0  0  0  0  0  0  0  0  0  0  0
   20.8169  -19.7283  -11.1590 C   0  0  0  0  0  0  0  0  0  0  0  0
   21.4291  -20.9522  -11.7702 C   0  0  2  0  0  0  0  0  0  0  0  0
   20.9872  -22.1454  -10.8822 C   0  0  0  0  0  0  0  0  0  0  0  0
   22.8923  -21.0393  -11.8358 C   0  0  0  0  0  0  0  0  0  0  0  0
   23.7012  -20.7580  -10.6404 C   0  0  2  0  0  0  0  0  0  0  0  0
   25.1308  -20.9446  -10.9634 N   0  0  0  0  0  0  0  0  0  0  0  0
   23.4333  -21.4061   -9.3736 C   0  0  0  0  0  0  0  0  0  0  0  0
   22.6353  -20.9056   -8.3780 O   0  0  0  0  0  0  0  0  0  0  0  0
   23.9677  -22.5247   -9.1260 O   0  0  0  0  0  0  0  0  0  0  0  0
  2  1  1  6
  3  2  1  0
  4  3  1  0
  4  5  2  0
  6  5  1  0
  7  6  2  0
  8  9  2  0
  8  7  1  0
  9  4  1  0
 10 11  2  0
 10  2  1  0
 12 10  1  0
 13 12  1  0
 13 14  1  1
 15 23  1  0
 15 14  1  0
 16 15  2  0
 17 16  1  0
 17 18  1  0
 18 23  2  0
 19 18  1  0
 19 20  2  0
 20 21  1  0
 21 22  2  0
 23 22  1  0
 24 25  2  0
 24 13  1  0
 27 26  1  1
 27 28  1  0
 27 29  1  0
 30 29  1  6
 30 31  1  0
 31 24  1  0
 32 30  1  0
 33 32  1  0
 34 32  2  0
M  END
$$$$
