FWL.pdb
     RDKit          3D

 34 36  0  0  1  0  0  0  0  0999 V2000
   23.3151  -37.8446   -6.8981 N   0  0  0  0  0  0  0  0  0  0  0  0
   23.7110  -37.6181   -5.5376 C   0  0  1  0  0  0  0  0  0  0  0  0
   24.0582  -38.9548   -4.9184 C   0  0  0  0  0  0  0  0  0  0  0  0
   22.8495  -39.6982   -4.5120 C   0  0  0  0  0  0  0  0  0  0  0  0
   22.1815  -40.4998   -5.3944 C   0  0  0  0  0  0  0  0  0  0  0  0
   21.0542  -41.1890   -5.0051 C   0  0  0  0  0  0  0  0  0  0  0  0
   20.5725  -41.0881   -3.7192 C   0  0  0  0  0  0  0  0  0  0  0  0
   21.2516  -40.2779   -2.8356 C   0  0  0  0  0  0  0  0  0  0  0  0
   22.3817  -39.5856   -3.2223 C   0  0  0  0  0  0  0  0  0  0  0  0
   24.9602  -36.7993   -5.4571 C   0  0  0  0  0  0  0  0  0  0  0  0
   25.8249  -36.8041   -6.3555 O   0  0  0  0  0  0  0  0  0  0  0  0
   25.1519  -35.9976   -4.3167 N   0  0  0  0  0  0  0  0  0  0  0  0
   26.3249  -35.1101   -4.1819 C   0  0  1  0  0  0  0  0  0  0  0  0
   25.7348  -33.7425   -3.9161 C   0  0  0  0  0  0  0  0  0  0  0  0
   25.1253  -33.0950   -5.0731 C   0  0  0  0  0  0  0  0  0  0  0  0
   23.7706  -32.7903   -5.2264 C   0  0  0  0  0  0  0  0  0  0  0  0
   23.5895  -32.2143   -6.4226 N   0  0  0  0  0  0  0  0  0  0  0  0
   24.7685  -32.1230   -7.0724 C   0  0  0  0  0  0  0  0  0  0  0  0
   25.0581  -31.6073   -8.3153 C   0  0  0  0  0  0  0  0  0  0  0  0
   26.3745  -31.6456   -8.7325 C   0  0  0  0  0  0  0  0  0  0  0  0
   27.3347  -32.1902   -7.9021 C   0  0  0  0  0  0  0  0  0  0  0  0
   27.0544  -32.7070   -6.6602 C   0  0  0  0  0  0  0  0  0  0  0  0
   25.7289  -32.6683   -6.2405 C   0  0  0  0  0  0  0  0  0  0  0  0
   27.0887  -35.5683   -2.9799 C   0  0  0  0  0  0  0  0  0  0  0  0
   26.4345  -35.9303   -1.9688 O   0  0  0  0  0  0  0  0  0  0  0  0
   29.6255  -39.3386   -1.9487 C   0  0  0  0  0  0  0  0  0  0  0  0
   30.2733  -38.2480   -2.7468 C   0  0  2  0  0  0  0  0  0  0  0  0
   31.7437  -38.6909   -2.9692 C   0  0  0  0  0  0  0  0  0  0  0  0
   30.3578  -36.9085   -2.1539 C   0  0  0  0  0  0  0  0  0  0  0  0
   29.1326  -36.2054   -1.7453 C   0  0  2  0  0  0  0  0  0  0  0  0
   28.4903  -35.6116   -2.9360 N   0  0  0  0  0  0  0  0  0  0  0  0
   29.1437  -35.2118   -0.6921 C   0  0  0  0  0  0  0  0  0  0  0  0
   29.6306  -35.4022    0.5749 O   0  0  0  0  0  0  0  0  0  0  0  0
   28.6667  -34.0636   -0.9201 O   0  0  0  0  0  0  0  0  0  0  0  0
  2  1  1  6
  3  2  1  0
  4  3  1  0
  4  5  2  0
  6  5  1  0
  7  6  2  0
  8  9  2  0
  8  7  1  0
  9  4  1  0
 10 11  2  0
 10  2  1  0
 12 10  1  0
 13 12  1  0
 13 14  1  1
 15 23  1  0
 15 14  1  0
 16 15  2  0
 17 16  1  0
 17 18  1  0
 18 23  2  0
 19 18  1  0
 19 20  2  0
 20 21  1  0
 21 22  2  0
 23 22  1  0
 24 25  2  0
 24 13  1  0
 27 26  1  1
 27 28  1  0
 27 29  1  0
 30 29  1  6
 30 31  1  0
 31 24  1  0
 32 30  1  0
 33 32  1  0
 34 32  2  0
M  END
$$$$
