FWL.pdb
     RDKit          3D

 34 36  0  0  1  0  0  0  0  0999 V2000
   26.5093  -20.1698  -16.3104 N   0  0  0  0  0  0  0  0  0  0  0  0
   25.5708  -19.6241  -15.3721 C   0  0  1  0  0  0  0  0  0  0  0  0
   24.3147  -19.2457  -16.1270 C   0  0  0  0  0  0  0  0  0  0  0  0
   24.5583  -18.1370  -17.0704 C   0  0  0  0  0  0  0  0  0  0  0  0
   24.7250  -16.8549  -16.6278 C   0  0  0  0  0  0  0  0  0  0  0  0
   24.9516  -15.8272  -17.5165 C   0  0  0  0  0  0  0  0  0  0  0  0
   25.0158  -16.0651  -18.8712 C   0  0  0  0  0  0  0  0  0  0  0  0
   24.8468  -17.3603  -19.3094 C   0  0  0  0  0  0  0  0  0  0  0  0
   24.6195  -18.3928  -18.4215 C   0  0  0  0  0  0  0  0  0  0  0  0
   25.1443  -20.6436  -14.3641 C   0  0  0  0  0  0  0  0  0  0  0  0
   24.8923  -21.8258  -14.6705 O   0  0  0  0  0  0  0  0  0  0  0  0
   25.0279  -20.2369  -13.0221 N   0  0  0  0  0  0  0  0  0  0  0  0
   24.5791  -21.1676  -11.9667 C   0  0  1  0  0  0  0  0  0  0  0  0
   25.0353  -20.5230  -10.6761 C   0  0  0  0  0  0  0  0  0  0  0  0
   26.4051  -20.8320  -10.2794 C   0  0  0  0  0  0  0  0  0  0  0  0
   27.3200  -21.5958  -11.0081 C   0  0  0  0  0  0  0  0  0  0  0  0
   28.4664  -21.6715  -10.3186 N   0  0  0  0  0  0  0  0  0  0  0  0
   28.3524  -20.9891   -9.1601 C   0  0  0  0  0  0  0  0  0  0  0  0
   29.2680  -20.7971   -8.1505 C   0  0  0  0  0  0  0  0  0  0  0  0
   28.8721  -20.0420   -7.0635 C   0  0  0  0  0  0  0  0  0  0  0  0
   27.5949  -19.5169   -7.0301 C   0  0  0  0  0  0  0  0  0  0  0  0
   26.6748  -19.7036   -8.0334 C   0  0  0  0  0  0  0  0  0  0  0  0
   27.0737  -20.4639   -9.1277 C   0  0  0  0  0  0  0  0  0  0  0  0
   23.0839  -21.1965  -12.0110 C   0  0  0  0  0  0  0  0  0  0  0  0
   22.4794  -20.1130  -12.2152 O   0  0  0  0  0  0  0  0  0  0  0  0
   18.6268  -21.7281  -14.1942 C   0  0  0  0  0  0  0  0  0  0  0  0
   19.5174  -22.9284  -14.3049 C   0  0  2  0  0  0  0  0  0  0  0  0
   18.7431  -24.1023  -13.6491 C   0  0  0  0  0  0  0  0  0  0  0  0
   20.8176  -22.8947  -13.6258 C   0  0  0  0  0  0  0  0  0  0  0  0
   20.9206  -22.3655  -12.2577 C   0  0  2  0  0  0  0  0  0  0  0  0
   22.3370  -22.3714  -11.8373 N   0  0  0  0  0  0  0  0  0  0  0  0
   20.1231  -22.9022  -11.1749 C   0  0  0  0  0  0  0  0  0  0  0  0
   20.4127  -24.0356  -10.4607 O   0  0  0  0  0  0  0  0  0  0  0  0
   19.0602  -22.3076  -10.8360 O   0  0  0  0  0  0  0  0  0  0  0  0
  2  1  1  6
  3  2  1  0
  4  3  1  0
  4  5  2  0
  6  5  1  0
  7  6  2  0
  8  9  2  0
  8  7  1  0
  9  4  1  0
 10 11  2  0
 10  2  1  0
 12 10  1  0
 13 12  1  0
 13 14  1  1
 15 23  1  0
 15 14  1  0
 16 15  2  0
 17 16  1  0
 17 18  1  0
 18 23  2  0
 19 18  1  0
 19 20  2  0
 20 21  1  0
 21 22  2  0
 23 22  1  0
 24 25  2  0
 24 13  1  0
 27 26  1  1
 27 28  1  0
 27 29  1  0
 30 29  1  6
 30 31  1  0
 31 24  1  0
 32 30  1  0
 33 32  1  0
 34 32  2  0
M  END
$$$$
