FWL.pdb
     RDKit          3D

 34 36  0  0  1  0  0  0  0  0999 V2000
   21.5615  -23.9091  -17.2469 N   0  0  0  0  0  0  0  0  0  0  0  0
   21.8587  -22.8007  -16.3853 C   0  0  1  0  0  0  0  0  0  0  0  0
   20.6976  -22.6201  -15.4313 C   0  0  0  0  0  0  0  0  0  0  0  0
   19.5372  -21.9958  -16.0964 C   0  0  0  0  0  0  0  0  0  0  0  0
   19.5183  -20.6592  -16.3797 C   0  0  0  0  0  0  0  0  0  0  0  0
   18.4303  -20.0863  -17.0004 C   0  0  0  0  0  0  0  0  0  0  0  0
   17.3357  -20.8446  -17.3507 C   0  0  0  0  0  0  0  0  0  0  0  0
   17.3624  -22.1914  -17.0618 C   0  0  0  0  0  0  0  0  0  0  0  0
   18.4512  -22.7689  -16.4397 C   0  0  0  0  0  0  0  0  0  0  0  0
   23.0497  -23.0774  -15.5237 C   0  0  0  0  0  0  0  0  0  0  0  0
   23.3223  -24.2187  -15.1018 O   0  0  0  0  0  0  0  0  0  0  0  0
   23.8853  -21.9969  -15.1855 N   0  0  0  0  0  0  0  0  0  0  0  0
   25.0665  -22.1736  -14.3165 C   0  0  1  0  0  0  0  0  0  0  0  0
   26.1367  -21.3159  -14.9556 C   0  0  0  0  0  0  0  0  0  0  0  0
   27.4628  -21.4321  -14.3580 C   0  0  0  0  0  0  0  0  0  0  0  0
   28.4050  -22.4261  -14.6334 C   0  0  0  0  0  0  0  0  0  0  0  0
   29.4940  -22.2096  -13.8833 N   0  0  0  0  0  0  0  0  0  0  0  0
   29.3155  -21.1118  -13.1193 C   0  0  0  0  0  0  0  0  0  0  0  0
   30.1591  -20.5203  -12.2065 C   0  0  0  0  0  0  0  0  0  0  0  0
   29.7073  -19.3862  -11.5599 C   0  0  0  0  0  0  0  0  0  0  0  0
   28.4483  -18.8961  -11.8478 C   0  0  0  0  0  0  0  0  0  0  0  0
   27.6000  -19.4802  -12.7573 C   0  0  0  0  0  0  0  0  0  0  0  0
   28.0551  -20.6221  -13.4081 C   0  0  0  0  0  0  0  0  0  0  0  0
   24.7135  -21.6162  -12.9738 C   0  0  0  0  0  0  0  0  0  0  0  0
   23.7868  -20.7684  -12.9129 O   0  0  0  0  0  0  0  0  0  0  0  0
   27.2767  -20.8585   -7.3799 C   0  0  0  0  0  0  0  0  0  0  0  0
   26.0857  -20.7606   -8.2844 C   0  0  2  0  0  0  0  0  0  0  0  0
   24.9198  -21.4643   -7.5407 C   0  0  0  0  0  0  0  0  0  0  0  0
   26.1549  -21.4098   -9.5984 C   0  0  0  0  0  0  0  0  0  0  0  0
   25.0420  -21.2685  -10.5492 C   0  0  2  0  0  0  0  0  0  0  0  0
   25.3664  -21.9983  -11.7922 N   0  0  0  0  0  0  0  0  0  0  0  0
   24.5127  -19.9700  -10.9097 C   0  0  0  0  0  0  0  0  0  0  0  0
   23.3416  -19.4317  -10.4434 O   0  0  0  0  0  0  0  0  0  0  0  0
   25.1521  -19.2463  -11.7255 O   0  0  0  0  0  0  0  0  0  0  0  0
  2  1  1  6
  3  2  1  0
  4  3  1  0
  4  5  2  0
  6  5  1  0
  7  6  2  0
  8  9  2  0
  8  7  1  0
  9  4  1  0
 10 11  2  0
 10  2  1  0
 12 10  1  0
 13 12  1  0
 13 14  1  6
 15 23  1  0
 15 14  1  0
 16 15  2  0
 17 16  1  0
 17 18  1  0
 18 23  2  0
 19 18  1  0
 19 20  2  0
 20 21  1  0
 21 22  2  0
 23 22  1  0
 24 25  2  0
 24 13  1  0
 27 26  1  1
 27 28  1  0
 27 29  1  0
 30 29  1  1
 30 31  1  0
 31 24  1  0
 32 30  1  0
 33 32  1  0
 34 32  2  0
M  END
$$$$
