FWL.pdb
     RDKit          3D

 34 36  0  0  1  0  0  0  0  0999 V2000
   28.1249  -20.7654   -8.9952 N   0  0  0  0  0  0  0  0  0  0  0  0
   26.6991  -20.8982   -8.9029 C   0  0  1  0  0  0  0  0  0  0  0  0
   26.2122  -19.9961   -7.7894 C   0  0  0  0  0  0  0  0  0  0  0  0
   27.0195  -20.1574   -6.5643 C   0  0  0  0  0  0  0  0  0  0  0  0
   28.1642  -19.4365   -6.3711 C   0  0  0  0  0  0  0  0  0  0  0  0
   28.9106  -19.5947   -5.2243 C   0  0  0  0  0  0  0  0  0  0  0  0
   28.5231  -20.4816   -4.2450 C   0  0  0  0  0  0  0  0  0  0  0  0
   27.3679  -21.2046   -4.4473 C   0  0  0  0  0  0  0  0  0  0  0  0
   26.6173  -21.0486   -5.5955 C   0  0  0  0  0  0  0  0  0  0  0  0
   26.0196  -20.4112  -10.1433 C   0  0  0  0  0  0  0  0  0  0  0  0
   26.1900  -19.2613  -10.5945 O   0  0  0  0  0  0  0  0  0  0  0  0
   25.1579  -21.2974  -10.8156 N   0  0  0  0  0  0  0  0  0  0  0  0
   24.5489  -20.9493  -12.1154 C   0  0  1  0  0  0  0  0  0  0  0  0
   25.3990  -21.6732  -13.1364 C   0  0  0  0  0  0  0  0  0  0  0  0
   26.6664  -21.0258  -13.4585 C   0  0  0  0  0  0  0  0  0  0  0  0
   27.9388  -21.5738  -13.2795 C   0  0  0  0  0  0  0  0  0  0  0  0
   28.8546  -20.6794  -13.6754 N   0  0  0  0  0  0  0  0  0  0  0  0
   28.2439  -19.5577  -14.1109 C   0  0  0  0  0  0  0  0  0  0  0  0
   28.7810  -18.3906  -14.6048 C   0  0  0  0  0  0  0  0  0  0  0  0
   27.9036  -17.3921  -14.9810 C   0  0  0  0  0  0  0  0  0  0  0  0
   26.5439  -17.5978  -14.8502 C   0  0  0  0  0  0  0  0  0  0  0  0
   25.9994  -18.7595  -14.3583 C   0  0  0  0  0  0  0  0  0  0  0  0
   26.8831  -19.7646  -13.9796 C   0  0  0  0  0  0  0  0  0  0  0  0
   23.1656  -21.5190  -12.1209 C   0  0  0  0  0  0  0  0  0  0  0  0
   22.9685  -22.5814  -12.7640 O   0  0  0  0  0  0  0  0  0  0  0  0
   20.0013  -23.4486   -9.1840 C   0  0  0  0  0  0  0  0  0  0  0  0
   20.2314  -21.9682   -9.2257 C   0  0  2  0  0  0  0  0  0  0  0  0
   19.2950  -21.3554   -8.1508 C   0  0  0  0  0  0  0  0  0  0  0  0
   19.9187  -21.2503  -10.4665 C   0  0  0  0  0  0  0  0  0  0  0  0
   20.7364  -21.4677  -11.6692 C   0  0  2  0  0  0  0  0  0  0  0  0
   22.0911  -20.9231  -11.4434 N   0  0  0  0  0  0  0  0  0  0  0  0
   20.2880  -21.0419  -12.9784 C   0  0  0  0  0  0  0  0  0  0  0  0
   19.3866  -21.7097  -13.7658 O   0  0  0  0  0  0  0  0  0  0  0  0
   20.7492  -19.9738  -13.4729 O   0  0  0  0  0  0  0  0  0  0  0  0
  2  1  1  6
  3  2  1  0
  4  3  1  0
  4  5  2  0
  6  5  1  0
  7  6  2  0
  8  9  2  0
  8  7  1  0
  9  4  1  0
 10 11  2  0
 10  2  1  0
 12 10  1  0
 13 12  1  0
 13 14  1  6
 15 23  1  0
 15 14  1  0
 16 15  2  0
 17 16  1  0
 17 18  1  0
 18 23  2  0
 19 18  1  0
 19 20  2  0
 20 21  1  0
 21 22  2  0
 23 22  1  0
 24 25  2  0
 24 13  1  0
 27 26  1  6
 27 28  1  0
 27 29  1  0
 30 29  1  1
 30 31  1  0
 31 24  1  0
 32 30  1  0
 33 32  1  0
 34 32  2  0
M  END
$$$$
