FWL.pdb
     RDKit          3D

 34 36  0  0  1  0  0  0  0  0999 V2000
   20.8187  -14.8410  -19.3915 N   0  0  0  0  0  0  0  0  0  0  0  0
   19.7605  -13.9246  -19.0758 C   0  0  1  0  0  0  0  0  0  0  0  0
   19.2018  -14.2980  -17.7196 C   0  0  0  0  0  0  0  0  0  0  0  0
   18.4786  -15.5840  -17.7629 C   0  0  0  0  0  0  0  0  0  0  0  0
   19.0673  -16.7417  -17.3380 C   0  0  0  0  0  0  0  0  0  0  0  0
   18.3838  -17.9367  -17.3828 C   0  0  0  0  0  0  0  0  0  0  0  0
   17.0922  -17.9952  -17.8561 C   0  0  0  0  0  0  0  0  0  0  0  0
   16.5057  -16.8238  -18.2826 C   0  0  0  0  0  0  0  0  0  0  0  0
   17.1878  -15.6243  -18.2391 C   0  0  0  0  0  0  0  0  0  0  0  0
   20.2692  -12.5253  -18.9314 C   0  0  0  0  0  0  0  0  0  0  0  0
   21.4473  -12.2689  -18.6133 O   0  0  0  0  0  0  0  0  0  0  0  0
   19.3707  -11.4685  -19.1675 N   0  0  0  0  0  0  0  0  0  0  0  0
   19.7760  -10.0571  -19.0091 C   0  0  1  0  0  0  0  0  0  0  0  0
   18.6927   -9.2718  -19.7155 C   0  0  0  0  0  0  0  0  0  0  0  0
   18.9016   -7.8282  -19.7585 C   0  0  0  0  0  0  0  0  0  0  0  0
   20.0490   -7.1765  -20.2167 C   0  0  0  0  0  0  0  0  0  0  0  0
   19.8757   -5.8540  -20.0884 N   0  0  0  0  0  0  0  0  0  0  0  0
   18.6593   -5.5983  -19.5634 C   0  0  0  0  0  0  0  0  0  0  0  0
   18.0594   -4.3972  -19.2599 C   0  0  0  0  0  0  0  0  0  0  0  0
   16.7869   -4.4357  -18.7235 C   0  0  0  0  0  0  0  0  0  0  0  0
   16.1741   -5.6561  -18.5151 C   0  0  0  0  0  0  0  0  0  0  0  0
   16.7656   -6.8595  -18.8152 C   0  0  0  0  0  0  0  0  0  0  0  0
   18.0468   -6.8203  -19.3552 C   0  0  0  0  0  0  0  0  0  0  0  0
   19.7433   -9.7505  -17.5452 C   0  0  0  0  0  0  0  0  0  0  0  0
   19.0416  -10.4858  -16.8048 O   0  0  0  0  0  0  0  0  0  0  0  0
   21.3216   -9.7183  -12.7694 C   0  0  0  0  0  0  0  0  0  0  0  0
   21.9628  -10.3958  -13.9424 C   0  0  2  0  0  0  0  0  0  0  0  0
   23.4509   -9.9564  -13.9343 C   0  0  0  0  0  0  0  0  0  0  0  0
   21.4709  -10.0729  -15.2865 C   0  0  0  0  0  0  0  0  0  0  0  0
   20.8151   -8.7814  -15.5403 C   0  0  2  0  0  0  0  0  0  0  0  0
   20.4575   -8.6883  -16.9708 N   0  0  0  0  0  0  0  0  0  0  0  0
   21.4248   -7.5300  -15.1420 C   0  0  0  0  0  0  0  0  0  0  0  0
   21.2576   -6.9154  -13.9284 O   0  0  0  0  0  0  0  0  0  0  0  0
   22.1745   -6.9204  -15.9570 O   0  0  0  0  0  0  0  0  0  0  0  0
  2  1  1  1
  3  2  1  0
  4  3  1  0
  4  5  2  0
  6  5  1  0
  7  6  2  0
  8  9  2  0
  8  7  1  0
  9  4  1  0
 10 11  2  0
 10  2  1  0
 12 10  1  0
 13 12  1  0
 13 14  1  6
 15 23  1  0
 15 14  1  0
 16 15  2  0
 17 16  1  0
 17 18  1  0
 18 23  2  0
 19 18  1  0
 19 20  2  0
 20 21  1  0
 21 22  2  0
 23 22  1  0
 24 25  2  0
 24 13  1  0
 27 26  1  1
 27 28  1  0
 27 29  1  0
 30 29  1  6
 30 31  1  0
 31 24  1  0
 32 30  1  0
 33 32  1  0
 34 32  2  0
M  END
$$$$
