FWL.pdb
     RDKit          3D

 34 36  0  0  1  0  0  0  0  0999 V2000
   28.7642  -20.7657  -15.1475 N   0  0  0  0  0  0  0  0  0  0  0  0
   27.7735  -19.9818  -14.4670 C   0  0  1  0  0  0  0  0  0  0  0  0
   26.8683  -19.3586  -15.5078 C   0  0  0  0  0  0  0  0  0  0  0  0
   27.5558  -18.2902  -16.2592 C   0  0  0  0  0  0  0  0  0  0  0  0
   27.9560  -18.4792  -17.5520 C   0  0  0  0  0  0  0  0  0  0  0  0
   28.5971  -17.4758  -18.2443 C   0  0  0  0  0  0  0  0  0  0  0  0
   28.8507  -16.2588  -17.6525 C   0  0  0  0  0  0  0  0  0  0  0  0
   28.4441  -16.0760  -16.3489 C   0  0  0  0  0  0  0  0  0  0  0  0
   27.8012  -17.0796  -15.6519 C   0  0  0  0  0  0  0  0  0  0  0  0
   26.8850  -20.8345  -13.6180 C   0  0  0  0  0  0  0  0  0  0  0  0
   26.5966  -22.0101  -13.9178 O   0  0  0  0  0  0  0  0  0  0  0  0
   26.3627  -20.2736  -12.4379 N   0  0  0  0  0  0  0  0  0  0  0  0
   25.5008  -21.0523  -11.5255 C   0  0  1  0  0  0  0  0  0  0  0  0
   25.7662  -20.4602  -10.1586 C   0  0  0  0  0  0  0  0  0  0  0  0
   27.0279  -20.8602   -9.5443 C   0  0  0  0  0  0  0  0  0  0  0  0
   27.9862  -21.7055  -10.1089 C   0  0  0  0  0  0  0  0  0  0  0  0
   28.9991  -21.8498   -9.2437 N   0  0  0  0  0  0  0  0  0  0  0  0
   28.7546  -21.1350   -8.1257 C   0  0  0  0  0  0  0  0  0  0  0  0
   29.5099  -20.9883   -6.9844 C   0  0  0  0  0  0  0  0  0  0  0  0
   29.0048  -20.1819   -5.9828 C   0  0  0  0  0  0  0  0  0  0  0  0
   27.7823  -19.5636   -6.1601 C   0  0  0  0  0  0  0  0  0  0  0  0
   27.0221  -19.7046   -7.2959 C   0  0  0  0  0  0  0  0  0  0  0  0
   27.5309  -20.5165   -8.3041 C   0  0  0  0  0  0  0  0  0  0  0  0
   24.0833  -20.7834  -11.9212 C   0  0  0  0  0  0  0  0  0  0  0  0
   23.7440  -19.5894  -12.1222 O   0  0  0  0  0  0  0  0  0  0  0  0
   20.6484  -23.0876  -15.9004 C   0  0  0  0  0  0  0  0  0  0  0  0
   21.0286  -22.0223  -14.9173 C   0  0  2  0  0  0  0  0  0  0  0  0
   22.3435  -21.3932  -15.4492 C   0  0  0  0  0  0  0  0  0  0  0  0
   21.3217  -22.4227  -13.5365 C   0  0  0  0  0  0  0  0  0  0  0  0
   21.7838  -21.4230  -12.5621 C   0  0  2  0  0  0  0  0  0  0  0  0
   23.1278  -21.7989  -12.0771 N   0  0  0  0  0  0  0  0  0  0  0  0
   20.9771  -21.0479  -11.4197 C   0  0  0  0  0  0  0  0  0  0  0  0
   19.9461  -20.1450  -11.4369 O   0  0  0  0  0  0  0  0  0  0  0  0
   21.2184  -21.5702  -10.2940 O   0  0  0  0  0  0  0  0  0  0  0  0
  2  1  1  6
  3  2  1  0
  4  3  1  0
  4  5  2  0
  6  5  1  0
  7  6  2  0
  8  9  2  0
  8  7  1  0
  9  4  1  0
 10 11  2  0
 10  2  1  0
 12 10  1  0
 13 12  1  0
 13 14  1  1
 15 23  1  0
 15 14  1  0
 16 15  2  0
 17 16  1  0
 17 18  1  0
 18 23  2  0
 19 18  1  0
 19 20  2  0
 20 21  1  0
 21 22  2  0
 23 22  1  0
 24 25  2  0
 24 13  1  0
 27 26  1  6
 27 28  1  0
 27 29  1  0
 30 29  1  1
 30 31  1  0
 31 24  1  0
 32 30  1  0
 33 32  1  0
 34 32  2  0
M  END
$$$$
