FWL.pdb
     RDKit          3D

 34 36  0  0  1  0  0  0  0  0999 V2000
   22.5399   -4.2728  -20.3896 N   0  0  0  0  0  0  0  0  0  0  0  0
   21.8620   -5.5299  -20.2507 C   0  0  1  0  0  0  0  0  0  0  0  0
   22.8914   -6.6348  -20.3523 C   0  0  0  0  0  0  0  0  0  0  0  0
   23.1185   -7.0417  -21.7529 C   0  0  0  0  0  0  0  0  0  0  0  0
   22.1651   -7.7234  -22.4553 C   0  0  0  0  0  0  0  0  0  0  0  0
   22.3870   -8.0988  -23.7619 C   0  0  0  0  0  0  0  0  0  0  0  0
   23.5733   -7.7972  -24.3925 C   0  0  0  0  0  0  0  0  0  0  0  0
   24.5294   -7.1096  -23.6775 C   0  0  0  0  0  0  0  0  0  0  0  0
   24.3104   -6.7318  -22.3678 C   0  0  0  0  0  0  0  0  0  0  0  0
   21.2456   -5.6759  -18.8957 C   0  0  0  0  0  0  0  0  0  0  0  0
   21.8089   -5.2805  -17.8559 O   0  0  0  0  0  0  0  0  0  0  0  0
   19.9801   -6.2849  -18.8081 N   0  0  0  0  0  0  0  0  0  0  0  0
   19.2825   -6.4393  -17.5154 C   0  0  1  0  0  0  0  0  0  0  0  0
   17.8552   -6.7694  -17.8939 C   0  0  0  0  0  0  0  0  0  0  0  0
   16.9730   -7.0797  -16.7738 C   0  0  0  0  0  0  0  0  0  0  0  0
   16.9166   -6.3956  -15.5572 C   0  0  0  0  0  0  0  0  0  0  0  0
   15.9979   -6.9788  -14.7752 N   0  0  0  0  0  0  0  0  0  0  0  0
   15.4401   -8.0236  -15.4216 C   0  0  0  0  0  0  0  0  0  0  0  0
   14.4635   -8.9019  -15.0097 C   0  0  0  0  0  0  0  0  0  0  0  0
   14.0795   -9.8915  -15.8938 C   0  0  0  0  0  0  0  0  0  0  0  0
   14.6789   -9.9623  -17.1364 C   0  0  0  0  0  0  0  0  0  0  0  0
   15.6542   -9.0899  -17.5555 C   0  0  0  0  0  0  0  0  0  0  0  0
   16.0406   -8.0936  -16.6651 C   0  0  0  0  0  0  0  0  0  0  0  0
   19.8996   -7.6105  -16.8184 C   0  0  0  0  0  0  0  0  0  0  0  0
   20.1238   -8.6470  -17.4940 O   0  0  0  0  0  0  0  0  0  0  0  0
   22.9092  -11.1057  -14.5613 C   0  0  0  0  0  0  0  0  0  0  0  0
   22.9523   -9.7499  -13.9240 C   0  0  2  0  0  0  0  0  0  0  0  0
   22.3353   -9.9176  -12.5102 C   0  0  0  0  0  0  0  0  0  0  0  0
   22.1934   -8.6620  -14.5513 C   0  0  0  0  0  0  0  0  0  0  0  0
   20.7665   -8.8412  -14.8585 C   0  0  2  0  0  0  0  0  0  0  0  0
   20.2361   -7.5986  -15.4564 N   0  0  0  0  0  0  0  0  0  0  0  0
   19.8270   -9.3006  -13.8572 C   0  0  0  0  0  0  0  0  0  0  0  0
   19.3169  -10.5697  -13.7690 O   0  0  0  0  0  0  0  0  0  0  0  0
   19.4142   -8.4908  -12.9787 O   0  0  0  0  0  0  0  0  0  0  0  0
  2  1  1  1
  3  2  1  0
  4  3  1  0
  4  5  2  0
  6  5  1  0
  7  6  2  0
  8  9  2  0
  8  7  1  0
  9  4  1  0
 10 11  2  0
 10  2  1  0
 12 10  1  0
 13 12  1  0
 13 14  1  6
 15 23  1  0
 15 14  1  0
 16 15  2  0
 17 16  1  0
 17 18  1  0
 18 23  2  0
 19 18  1  0
 19 20  2  0
 20 21  1  0
 21 22  2  0
 23 22  1  0
 24 25  2  0
 24 13  1  0
 27 26  1  6
 27 28  1  0
 27 29  1  0
 30 29  1  1
 30 31  1  0
 31 24  1  0
 32 30  1  0
 33 32  1  0
 34 32  2  0
M  END
$$$$
