NLA.pdb
     RDKit          3D

 22 21  0  0  1  0  0  0  0  0999 V2000
   16.8006  -14.1078  -16.0836 N   0  0  0  0  0  0  0  0  0  0  0  0
   16.8454  -12.7016  -16.2288 C   0  0  0  0  0  0  0  0  0  0  0  0
   15.9866  -12.1478  -16.9888 O   0  0  0  0  0  0  0  0  0  0  0  0
   17.8231  -11.8448  -15.5547 C   0  0  0  0  0  0  0  0  0  0  0  0
   18.0413  -10.5187  -16.2478 C   0  0  2  0  0  0  0  0  0  0  0  0
   18.6323  -10.7403  -17.5392 N   0  0  0  0  0  0  0  0  0  0  0  0
   18.8930   -9.5960  -15.4740 C   0  0  0  0  0  0  0  0  0  0  0  0
   18.5121   -9.2172  -14.3470 O   0  0  0  0  0  0  0  0  0  0  0  0
   22.5651  -10.0449  -13.1888 C   0  0  0  0  0  0  0  0  0  0  0  0
   22.6669  -10.1998  -14.6898 C   0  0  2  0  0  0  0  0  0  0  0  0
   24.1071  -10.6266  -14.9949 C   0  0  0  0  0  0  0  0  0  0  0  0
   22.4502   -8.8786  -15.3951 C   0  0  0  0  0  0  0  0  0  0  0  0
   21.0631   -8.3370  -15.2348 C   0  0  2  0  0  0  0  0  0  0  0  0
   20.1300   -9.1401  -15.9955 N   0  0  0  0  0  0  0  0  0  0  0  0
   21.0576   -6.9299  -15.7046 C   0  0  0  0  0  0  0  0  0  0  0  0
   21.7802   -6.0252  -15.1964 O   0  0  0  0  0  0  0  0  0  0  0  0
   19.4413   -5.1933  -18.5890 C   0  0  0  0  0  0  0  0  0  0  0  0
   20.0980   -5.1756  -17.2183 C   0  0  2  0  0  0  0  0  0  0  0  0
   20.2113   -6.5472  -16.7752 N   0  0  0  0  0  0  0  0  0  0  0  0
   19.1765   -4.4596  -16.2780 C   0  0  0  0  0  0  0  0  0  0  0  0
   19.1228   -3.0784  -16.1896 O   0  0  0  0  0  0  0  0  0  0  0  0
   18.4232   -5.1438  -15.5423 O   0  0  0  0  0  0  0  0  0  0  0  0
  1  2  1  0
  2  4  1  0
  3  2  2  0
  4  5  1  0
  5  6  1  6
  7  5  1  0
  7  8  2  0
 10  9  1  1
 10 12  1  0
 11 10  1  0
 13 12  1  6
 13 14  1  0
 14  7  1  0
 15 13  1  0
 16 15  2  0
 18 19  1  0
 18 17  1  6
 19 15  1  0
 20 18  1  0
 21 20  1  0
 22 20  2  0
M  END
$$$$
