NLA.pdb
     RDKit          3D

 22 21  0  0  1  0  0  0  0  0999 V2000
   18.5280  -16.7876  -17.4246 N   0  0  0  0  0  0  0  0  0  0  0  0
   18.1296  -15.4491  -17.6484 C   0  0  0  0  0  0  0  0  0  0  0  0
   17.4536  -15.1900  -18.6962 O   0  0  0  0  0  0  0  0  0  0  0  0
   18.4496  -14.3428  -16.7439 C   0  0  0  0  0  0  0  0  0  0  0  0
   18.8749  -13.0816  -17.4615 C   0  0  2  0  0  0  0  0  0  0  0  0
   19.7912  -13.4128  -18.5182 N   0  0  0  0  0  0  0  0  0  0  0  0
   19.5013  -12.0911  -16.5660 C   0  0  0  0  0  0  0  0  0  0  0  0
   18.8820  -11.7118  -15.5505 O   0  0  0  0  0  0  0  0  0  0  0  0
   25.2102  -10.0749  -15.3295 C   0  0  0  0  0  0  0  0  0  0  0  0
   23.7206   -9.8527  -15.1922 C   0  0  2  0  0  0  0  0  0  0  0  0
   23.3613  -10.1451  -13.7312 C   0  0  0  0  0  0  0  0  0  0  0  0
   22.9376  -10.8369  -16.0339 C   0  0  0  0  0  0  0  0  0  0  0  0
   21.4580  -10.6074  -15.9988 C   0  0  2  0  0  0  0  0  0  0  0  0
   20.7901  -11.5711  -16.8469 N   0  0  0  0  0  0  0  0  0  0  0  0
   21.1927   -9.2223  -16.4589 C   0  0  0  0  0  0  0  0  0  0  0  0
   21.6625   -8.7447  -17.5314 O   0  0  0  0  0  0  0  0  0  0  0  0
   18.6465   -6.7242  -15.8666 C   0  0  0  0  0  0  0  0  0  0  0  0
   20.1329   -6.9872  -16.0457 C   0  0  2  0  0  0  0  0  0  0  0  0
   20.3754   -8.3650  -15.6805 N   0  0  0  0  0  0  0  0  0  0  0  0
   20.8725   -6.1142  -15.0778 C   0  0  0  0  0  0  0  0  0  0  0  0
   21.5490   -6.6198  -13.9800 O   0  0  0  0  0  0  0  0  0  0  0  0
   20.8773   -4.8740  -15.2743 O   0  0  0  0  0  0  0  0  0  0  0  0
  1  2  1  0
  2  4  1  0
  3  2  2  0
  4  5  1  0
  5  6  1  6
  7  5  1  0
  7  8  2  0
 10  9  1  1
 10 12  1  0
 11 10  1  0
 13 12  1  6
 13 14  1  0
 14  7  1  0
 15 13  1  0
 16 15  2  0
 18 19  1  0
 18 17  1  1
 19 15  1  0
 20 18  1  0
 21 20  1  0
 22 20  2  0
M  END
$$$$
