NLA.pdb
     RDKit          3D

 22 21  0  0  1  0  0  0  0  0999 V2000
   17.5956  -13.4322  -18.8539 N   0  0  0  0  0  0  0  0  0  0  0  0
   16.9835  -12.1666  -19.0092 C   0  0  0  0  0  0  0  0  0  0  0  0
   16.2700  -11.9666  -20.0449 O   0  0  0  0  0  0  0  0  0  0  0  0
   17.1228  -11.0720  -18.0466 C   0  0  0  0  0  0  0  0  0  0  0  0
   18.0006  -11.4169  -16.8647 C   0  0  2  0  0  0  0  0  0  0  0  0
   17.2835  -12.2797  -15.9661 N   0  0  0  0  0  0  0  0  0  0  0  0
   18.4704  -10.2286  -16.1281 C   0  0  0  0  0  0  0  0  0  0  0  0
   17.7296   -9.7169  -15.2633 O   0  0  0  0  0  0  0  0  0  0  0  0
   21.6903   -9.6140  -13.1787 C   0  0  0  0  0  0  0  0  0  0  0  0
   22.1635   -9.8471  -14.5961 C   0  0  2  0  0  0  0  0  0  0  0  0
   23.6956   -9.8625  -14.5552 C   0  0  0  0  0  0  0  0  0  0  0  0
   21.7679   -8.7024  -15.5034 C   0  0  0  0  0  0  0  0  0  0  0  0
   20.2862   -8.5460  -15.6553 C   0  0  2  0  0  0  0  0  0  0  0  0
   19.7456   -9.6680  -16.3922 N   0  0  0  0  0  0  0  0  0  0  0  0
   20.0251   -7.2699  -16.3654 C   0  0  0  0  0  0  0  0  0  0  0  0
   20.3966   -7.0476  -17.5534 O   0  0  0  0  0  0  0  0  0  0  0  0
   17.5636   -4.6250  -15.9130 C   0  0  0  0  0  0  0  0  0  0  0  0
   18.9620   -4.9985  -16.3773 C   0  0  2  0  0  0  0  0  0  0  0  0
   19.3265   -6.2268  -15.7074 N   0  0  0  0  0  0  0  0  0  0  0  0
   19.8998   -3.9239  -15.9171 C   0  0  0  0  0  0  0  0  0  0  0  0
   19.9272   -2.6609  -16.4850 O   0  0  0  0  0  0  0  0  0  0  0  0
   20.6911   -4.1832  -14.9772 O   0  0  0  0  0  0  0  0  0  0  0  0
  1  2  1  0
  2  4  1  0
  3  2  2  0
  4  5  1  0
  5  6  1  1
  7  5  1  0
  7  8  2  0
 10  9  1  1
 10 12  1  0
 11 10  1  0
 13 12  1  6
 13 14  1  0
 14  7  1  0
 15 13  1  0
 16 15  2  0
 18 19  1  0
 18 17  1  1
 19 15  1  0
 20 18  1  0
 21 20  1  0
 22 20  2  0
M  END
$$$$
