NLA.pdb
     RDKit          3D

 22 21  0  0  1  0  0  0  0  0999 V2000
   17.1143  -12.1232  -19.6442 N   0  0  0  0  0  0  0  0  0  0  0  0
   17.7686  -12.8069  -18.5930 C   0  0  0  0  0  0  0  0  0  0  0  0
   17.3906  -13.9918  -18.3192 O   0  0  0  0  0  0  0  0  0  0  0  0
   18.8569  -12.2305  -17.8007 C   0  0  0  0  0  0  0  0  0  0  0  0
   19.2287  -10.8259  -18.2195 C   0  0  2  0  0  0  0  0  0  0  0  0
   20.2758  -10.8765  -19.2030 N   0  0  0  0  0  0  0  0  0  0  0  0
   19.6615   -9.9821  -17.0900 C   0  0  0  0  0  0  0  0  0  0  0  0
   18.8695   -9.7742  -16.1476 O   0  0  0  0  0  0  0  0  0  0  0  0
   22.4926  -10.5091  -13.7634 C   0  0  0  0  0  0  0  0  0  0  0  0
   23.0594  -10.3616  -15.1578 C   0  0  2  0  0  0  0  0  0  0  0  0
   24.5705  -10.5945  -15.0491 C   0  0  0  0  0  0  0  0  0  0  0  0
   22.8769   -8.9528  -15.6796 C   0  0  0  0  0  0  0  0  0  0  0  0
   21.4495   -8.6041  -15.9693 C   0  0  2  0  0  0  0  0  0  0  0  0
   20.9586   -9.4102  -17.0663 N   0  0  0  0  0  0  0  0  0  0  0  0
   21.3834   -7.1598  -16.3014 C   0  0  0  0  0  0  0  0  0  0  0  0
   21.9106   -6.6604  -17.3366 O   0  0  0  0  0  0  0  0  0  0  0  0
   19.2919   -4.3760  -15.0508 C   0  0  0  0  0  0  0  0  0  0  0  0
   20.5613   -4.8596  -15.7330 C   0  0  2  0  0  0  0  0  0  0  0  0
   20.7025   -6.2675  -15.4359 N   0  0  0  0  0  0  0  0  0  0  0  0
   21.7186   -4.1369  -15.1131 C   0  0  0  0  0  0  0  0  0  0  0  0
   22.2123   -2.9445  -15.6159 O   0  0  0  0  0  0  0  0  0  0  0  0
   22.2594   -4.6360  -14.0956 O   0  0  0  0  0  0  0  0  0  0  0  0
  1  2  1  0
  2  4  1  0
  3  2  2  0
  4  5  1  0
  5  6  1  6
  7  5  1  0
  7  8  2  0
 10  9  1  1
 10 12  1  0
 11 10  1  0
 13 12  1  6
 13 14  1  0
 14  7  1  0
 15 13  1  0
 16 15  2  0
 18 19  1  0
 18 17  1  1
 19 15  1  0
 20 18  1  0
 21 20  1  0
 22 20  2  0
M  END
$$$$
