NLA.pdb
     RDKit          3D

 22 21  0  0  1  0  0  0  0  0999 V2000
   27.6330  -19.7250  -15.6038 N   0  0  0  0  0  0  0  0  0  0  0  0
   28.5441  -20.5215  -14.8717 C   0  0  0  0  0  0  0  0  0  0  0  0
   29.6645  -20.8012  -15.4087 O   0  0  0  0  0  0  0  0  0  0  0  0
   28.2734  -21.0433  -13.5306 C   0  0  0  0  0  0  0  0  0  0  0  0
   26.9123  -20.6569  -12.9971 C   0  0  2  0  0  0  0  0  0  0  0  0
   26.8371  -19.2284  -12.8554 N   0  0  0  0  0  0  0  0  0  0  0  0
   26.5975  -21.2921  -11.7038 C   0  0  0  0  0  0  0  0  0  0  0  0
   26.5505  -22.5377  -11.6333 O   0  0  0  0  0  0  0  0  0  0  0  0
   28.4672  -20.9487   -7.9110 C   0  0  0  0  0  0  0  0  0  0  0  0
   27.5186  -19.8141   -8.2276 C   0  0  2  0  0  0  0  0  0  0  0  0
   27.6934  -18.7681   -7.1210 C   0  0  0  0  0  0  0  0  0  0  0  0
   26.0766  -20.2694   -8.1665 C   0  0  0  0  0  0  0  0  0  0  0  0
   25.6282  -20.9975   -9.3961 C   0  0  2  0  0  0  0  0  0  0  0  0
   26.3500  -20.5061  -10.5500 N   0  0  0  0  0  0  0  0  0  0  0  0
   24.1684  -20.7856   -9.5538 C   0  0  0  0  0  0  0  0  0  0  0  0
   23.3423  -20.9081   -8.6044 O   0  0  0  0  0  0  0  0  0  0  0  0
   22.0680  -19.1770  -12.1158 C   0  0  0  0  0  0  0  0  0  0  0  0
   22.2240  -20.2406  -11.0412 C   0  0  2  0  0  0  0  0  0  0  0  0
   23.6406  -20.4268  -10.8194 N   0  0  0  0  0  0  0  0  0  0  0  0
   21.6671  -21.5228  -11.5812 C   0  0  0  0  0  0  0  0  0  0  0  0
   20.3113  -21.8059  -11.5876 O   0  0  0  0  0  0  0  0  0  0  0  0
   22.4660  -22.3725  -12.0469 O   0  0  0  0  0  0  0  0  0  0  0  0
  1  2  1  0
  2  4  1  0
  3  2  2  0
  4  5  1  0
  5  6  1  1
  7  5  1  0
  7  8  2  0
 10  9  1  1
 10 12  1  0
 11 10  1  0
 13 12  1  1
 13 14  1  0
 14  7  1  0
 15 13  1  0
 16 15  2  0
 18 19  1  0
 18 17  1  6
 19 15  1  0
 20 18  1  0
 21 20  1  0
 22 20  2  0
M  END
$$$$
