NLA.pdb
     RDKit          3D

 22 21  0  0  1  0  0  0  0  0999 V2000
   18.1546  -16.7279  -18.3911 N   0  0  0  0  0  0  0  0  0  0  0  0
   19.0735  -17.0308  -17.3595 C   0  0  0  0  0  0  0  0  0  0  0  0
   19.1581  -18.2387  -16.9649 O   0  0  0  0  0  0  0  0  0  0  0  0
   19.9345  -16.0347  -16.7186 C   0  0  0  0  0  0  0  0  0  0  0  0
   19.7656  -14.6412  -17.2807 C   0  0  2  0  0  0  0  0  0  0  0  0
   20.2400  -14.6070  -18.6372 N   0  0  0  0  0  0  0  0  0  0  0  0
   20.4685  -13.6115  -16.4927 C   0  0  0  0  0  0  0  0  0  0  0  0
   20.1679  -13.4546  -15.2911 O   0  0  0  0  0  0  0  0  0  0  0  0
   24.4459  -13.0051  -14.6183 C   0  0  0  0  0  0  0  0  0  0  0  0
   24.3357  -13.0802  -16.1248 C   0  0  2  0  0  0  0  0  0  0  0  0
   25.7664  -13.0753  -16.6749 C   0  0  0  0  0  0  0  0  0  0  0  0
   23.6530  -11.8528  -16.6883 C   0  0  0  0  0  0  0  0  0  0  0  0
   22.1934  -11.7787  -16.3611 C   0  0  2  0  0  0  0  0  0  0  0  0
   21.4741  -12.8056  -17.0838 N   0  0  0  0  0  0  0  0  0  0  0  0
   21.7035  -10.4281  -16.7307 C   0  0  0  0  0  0  0  0  0  0  0  0
   21.8525   -9.9262  -17.8816 O   0  0  0  0  0  0  0  0  0  0  0  0
   19.0063   -8.3631  -15.8214 C   0  0  0  0  0  0  0  0  0  0  0  0
   20.5038   -8.3243  -16.0793 C   0  0  2  0  0  0  0  0  0  0  0  0
   21.0303   -9.6344  -15.7684 N   0  0  0  0  0  0  0  0  0  0  0  0
   21.1084   -7.3427  -15.1218 C   0  0  0  0  0  0  0  0  0  0  0  0
   20.9716   -5.9723  -15.2689 O   0  0  0  0  0  0  0  0  0  0  0  0
   21.7645   -7.7853  -14.1468 O   0  0  0  0  0  0  0  0  0  0  0  0
  1  2  1  0
  2  4  1  0
  3  2  2  0
  4  5  1  0
  5  6  1  6
  7  5  1  0
  7  8  2  0
 10  9  1  1
 10 12  1  0
 11 10  1  0
 13 12  1  6
 13 14  1  0
 14  7  1  0
 15 13  1  0
 16 15  2  0
 18 19  1  0
 18 17  1  1
 19 15  1  0
 20 18  1  0
 21 20  1  0
 22 20  2  0
M  END
$$$$
