NLA.pdb
     RDKit          3D

 22 21  0  0  1  0  0  0  0  0999 V2000
   18.4176  -36.3072   -5.1830 N   0  0  0  0  0  0  0  0  0  0  0  0
   19.0447  -37.4890   -4.7242 C   0  0  0  0  0  0  0  0  0  0  0  0
   18.3180  -38.5144   -4.5181 O   0  0  0  0  0  0  0  0  0  0  0  0
   20.4828  -37.6019   -4.4724 C   0  0  0  0  0  0  0  0  0  0  0  0
   21.2394  -36.3149   -4.7121 C   0  0  2  0  0  0  0  0  0  0  0  0
   21.4313  -36.1234   -6.1237 N   0  0  0  0  0  0  0  0  0  0  0  0
   22.5482  -36.2794   -4.0333 C   0  0  0  0  0  0  0  0  0  0  0  0
   23.2050  -37.3354   -3.9231 O   0  0  0  0  0  0  0  0  0  0  0  0
   26.4447  -31.7976   -3.2596 C   0  0  0  0  0  0  0  0  0  0  0  0
   25.9908  -33.2198   -3.5014 C   0  0  2  0  0  0  0  0  0  0  0  0
   25.5958  -33.3142   -4.9793 C   0  0  0  0  0  0  0  0  0  0  0  0
   24.7478  -33.5441   -2.7014 C   0  0  0  0  0  0  0  0  0  0  0  0
   24.3254  -34.9769   -2.8098 C   0  0  2  0  0  0  0  0  0  0  0  0
   23.0619  -35.0662   -3.5095 N   0  0  0  0  0  0  0  0  0  0  0  0
   24.2127  -35.5320   -1.4387 C   0  0  0  0  0  0  0  0  0  0  0  0
   23.3581  -35.1334   -0.5962 O   0  0  0  0  0  0  0  0  0  0  0  0
   25.0244  -38.6022    0.2239 C   0  0  0  0  0  0  0  0  0  0  0  0
   25.0816  -37.0868    0.3269 C   0  0  2  0  0  0  0  0  0  0  0  0
   25.0920  -36.5618   -1.0203 N   0  0  0  0  0  0  0  0  0  0  0  0
   26.3812  -36.7204    0.9770 C   0  0  0  0  0  0  0  0  0  0  0  0
   26.6753  -37.0372    2.2929 O   0  0  0  0  0  0  0  0  0  0  0  0
   27.2364  -36.1015    0.2969 O   0  0  0  0  0  0  0  0  0  0  0  0
  1  2  1  0
  2  4  1  0
  3  2  2  0
  4  5  1  0
  5  6  1  6
  7  5  1  0
  7  8  2  0
 10  9  1  1
 10 12  1  0
 11 10  1  0
 13 12  1  1
 13 14  1  0
 14  7  1  0
 15 13  1  0
 16 15  2  0
 18 19  1  0
 18 17  1  6
 19 15  1  0
 20 18  1  0
 21 20  1  0
 22 20  2  0
M  END
$$$$
