NLA.pdb
     RDKit          3D

 22 21  0  0  1  0  0  0  0  0999 V2000
   20.4202  -20.3256  -18.0871 N   0  0  0  0  0  0  0  0  0  0  0  0
   20.5488  -19.8480  -16.7621 C   0  0  0  0  0  0  0  0  0  0  0  0
   20.0962  -20.5702  -15.8158 O   0  0  0  0  0  0  0  0  0  0  0  0
   21.1733  -18.5698  -16.4150 C   0  0  0  0  0  0  0  0  0  0  0  0
   21.6162  -17.7690  -17.6188 C   0  0  2  0  0  0  0  0  0  0  0  0
   22.6012  -18.5115  -18.3568 N   0  0  0  0  0  0  0  0  0  0  0  0
   22.1676  -16.4482  -17.2626 C   0  0  0  0  0  0  0  0  0  0  0  0
   21.4975  -15.6850  -16.5366 O   0  0  0  0  0  0  0  0  0  0  0  0
   25.8213  -15.3060  -14.8617 C   0  0  0  0  0  0  0  0  0  0  0  0
   25.9595  -15.8880  -16.2508 C   0  0  2  0  0  0  0  0  0  0  0  0
   27.4542  -16.1379  -16.4803 C   0  0  0  0  0  0  0  0  0  0  0  0
   25.5205  -14.8983  -17.3081 C   0  0  0  0  0  0  0  0  0  0  0  0
   24.0331  -14.7605  -17.4156 C   0  0  2  0  0  0  0  0  0  0  0  0
   23.4416  -16.0422  -17.7341 N   0  0  0  0  0  0  0  0  0  0  0  0
   23.7352  -13.7619  -18.4715 C   0  0  0  0  0  0  0  0  0  0  0  0
   23.9978  -13.9452  -19.6947 O   0  0  0  0  0  0  0  0  0  0  0  0
   21.9945  -10.4458  -18.4289 C   0  0  0  0  0  0  0  0  0  0  0  0
   22.8619  -11.4970  -19.1019 C   0  0  2  0  0  0  0  0  0  0  0  0
   23.1258  -12.5300  -18.1252 N   0  0  0  0  0  0  0  0  0  0  0  0
   24.1672  -10.8535  -19.4598 C   0  0  0  0  0  0  0  0  0  0  0  0
   24.3449  -10.1157  -20.6184 O   0  0  0  0  0  0  0  0  0  0  0  0
   25.1368  -10.9906  -18.6737 O   0  0  0  0  0  0  0  0  0  0  0  0
  1  2  1  0
  2  4  1  0
  3  2  2  0
  4  5  1  0
  5  6  1  1
  7  5  1  0
  7  8  2  0
 10  9  1  1
 10 12  1  0
 11 10  1  0
 13 12  1  6
 13 14  1  0
 14  7  1  0
 15 13  1  0
 16 15  2  0
 18 19  1  0
 18 17  1  1
 19 15  1  0
 20 18  1  0
 21 20  1  0
 22 20  2  0
M  END
$$$$
