NLA.pdb
     RDKit          3D

 22 21  0  0  1  0  0  0  0  0999 V2000
   18.8941  -25.1712  -14.0610 N   0  0  0  0  0  0  0  0  0  0  0  0
   18.6045  -24.0297  -14.8443 C   0  0  0  0  0  0  0  0  0  0  0  0
   17.6909  -24.1218  -15.7268 O   0  0  0  0  0  0  0  0  0  0  0  0
   19.2949  -22.7465  -14.6987 C   0  0  0  0  0  0  0  0  0  0  0  0
   20.3411  -22.7457  -13.6069 C   0  0  2  0  0  0  0  0  0  0  0  0
   19.7077  -22.5507  -12.3314 N   0  0  0  0  0  0  0  0  0  0  0  0
   21.3761  -21.7128  -13.7999 C   0  0  0  0  0  0  0  0  0  0  0  0
   21.0345  -20.5136  -13.8623 O   0  0  0  0  0  0  0  0  0  0  0  0
   24.2461  -19.9750  -11.2581 C   0  0  0  0  0  0  0  0  0  0  0  0
   24.5911  -21.3866  -11.6770 C   0  0  2  0  0  0  0  0  0  0  0  0
   25.8549  -21.7820  -10.9052 C   0  0  0  0  0  0  0  0  0  0  0  0
   24.9452  -21.4533  -13.1469 C   0  0  0  0  0  0  0  0  0  0  0  0
   23.8066  -21.0956  -14.0517 C   0  0  2  0  0  0  0  0  0  0  0  0
   22.7439  -22.0681  -13.9139 N   0  0  0  0  0  0  0  0  0  0  0  0
   24.3153  -21.0597  -15.4448 C   0  0  0  0  0  0  0  0  0  0  0  0
   24.8264  -22.0610  -16.0236 O   0  0  0  0  0  0  0  0  0  0  0  0
   24.0239  -18.5038  -18.1510 C   0  0  0  0  0  0  0  0  0  0  0  0
   24.6004  -19.7940  -17.5911 C   0  0  2  0  0  0  0  0  0  0  0  0
   24.2394  -19.8579  -16.1925 N   0  0  0  0  0  0  0  0  0  0  0  0
   26.0937  -19.7056  -17.6807 C   0  0  0  0  0  0  0  0  0  0  0  0
   26.7845  -19.8896  -18.8670 O   0  0  0  0  0  0  0  0  0  0  0  0
   26.7414  -19.4532  -16.6349 O   0  0  0  0  0  0  0  0  0  0  0  0
  1  2  1  0
  2  4  1  0
  3  2  2  0
  4  5  1  0
  5  6  1  1
  7  5  1  0
  7  8  2  0
 10  9  1  1
 10 12  1  0
 11 10  1  0
 13 12  1  1
 13 14  1  0
 14  7  1  0
 15 13  1  0
 16 15  2  0
 18 19  1  0
 18 17  1  1
 19 15  1  0
 20 18  1  0
 21 20  1  0
 22 20  2  0
M  END
$$$$
