NLA.pdb
     RDKit          3D

 22 21  0  0  1  0  0  0  0  0999 V2000
   17.4863  -11.5344  -20.6618 N   0  0  0  0  0  0  0  0  0  0  0  0
   17.6077  -10.1566  -20.3660 C   0  0  0  0  0  0  0  0  0  0  0  0
   17.2182   -9.3171  -21.2409 O   0  0  0  0  0  0  0  0  0  0  0  0
   18.1558   -9.6392  -19.1106 C   0  0  0  0  0  0  0  0  0  0  0  0
   18.6250  -10.7228  -18.1660 C   0  0  2  0  0  0  0  0  0  0  0  0
   17.4896  -11.4327  -17.6435 N   0  0  0  0  0  0  0  0  0  0  0  0
   19.4322  -10.2031  -17.0464 C   0  0  0  0  0  0  0  0  0  0  0  0
   18.8680   -9.9224  -15.9687 O   0  0  0  0  0  0  0  0  0  0  0  0
   25.2800  -10.3850  -15.1436 C   0  0  0  0  0  0  0  0  0  0  0  0
   23.9374   -9.6943  -15.0558 C   0  0  2  0  0  0  0  0  0  0  0  0
   23.3271  -10.0814  -13.7041 C   0  0  0  0  0  0  0  0  0  0  0  0
   22.9872  -10.2014  -16.1189 C   0  0  0  0  0  0  0  0  0  0  0  0
   21.6689   -9.4907  -16.1290 C   0  0  2  0  0  0  0  0  0  0  0  0
   20.8316  -10.0213  -17.1833 N   0  0  0  0  0  0  0  0  0  0  0  0
   21.9240   -8.0435  -16.3320 C   0  0  0  0  0  0  0  0  0  0  0  0
   22.6280   -7.5885  -17.2786 O   0  0  0  0  0  0  0  0  0  0  0  0
   20.1990   -5.0315  -15.7404 C   0  0  0  0  0  0  0  0  0  0  0  0
   21.5688   -5.6736  -15.5923 C   0  0  2  0  0  0  0  0  0  0  0  0
   21.3650   -7.0967  -15.4376 N   0  0  0  0  0  0  0  0  0  0  0  0
   22.1844   -5.1537  -14.3287 C   0  0  0  0  0  0  0  0  0  0  0  0
   22.8644   -3.9486  -14.2683 O   0  0  0  0  0  0  0  0  0  0  0  0
   22.0762   -5.8417  -13.2838 O   0  0  0  0  0  0  0  0  0  0  0  0
  1  2  1  0
  2  4  1  0
  3  2  2  0
  4  5  1  0
  5  6  1  1
  7  5  1  0
  7  8  2  0
 10  9  1  6
 10 12  1  0
 11 10  1  0
 13 12  1  6
 13 14  1  0
 14  7  1  0
 15 13  1  0
 16 15  2  0
 18 19  1  0
 18 17  1  1
 19 15  1  0
 20 18  1  0
 21 20  1  0
 22 20  2  0
M  END
$$$$
