NLA.pdb
     RDKit          3D

 22 21  0  0  1  0  0  0  0  0999 V2000
   16.1717  -12.9687  -13.8432 N   0  0  0  0  0  0  0  0  0  0  0  0
   16.2771  -11.8502  -14.7025 C   0  0  0  0  0  0  0  0  0  0  0  0
   16.9219  -11.9875  -15.7921 O   0  0  0  0  0  0  0  0  0  0  0  0
   15.6868  -10.5421  -14.4114 C   0  0  0  0  0  0  0  0  0  0  0  0
   15.0810  -10.4485  -13.0291 C   0  0  2  0  0  0  0  0  0  0  0  0
   13.8982  -11.2627  -12.9641 N   0  0  0  0  0  0  0  0  0  0  0  0
   14.7435   -9.0668  -12.6389 C   0  0  0  0  0  0  0  0  0  0  0  0
   13.7046   -8.5434  -13.0921 O   0  0  0  0  0  0  0  0  0  0  0  0
   13.4107   -6.3265   -9.0861 C   0  0  0  0  0  0  0  0  0  0  0  0
   14.6532   -7.1783   -8.9516 C   0  0  2  0  0  0  0  0  0  0  0  0
   15.2256   -6.9102   -7.5553 C   0  0  0  0  0  0  0  0  0  0  0  0
   15.7178   -6.7585   -9.9418 C   0  0  0  0  0  0  0  0  0  0  0  0
   15.3192   -6.9665  -11.3705 C   0  0  2  0  0  0  0  0  0  0  0  0
   15.5822   -8.3350  -11.7607 N   0  0  0  0  0  0  0  0  0  0  0  0
   16.0913   -6.0179  -12.2099 C   0  0  0  0  0  0  0  0  0  0  0  0
   17.3461   -6.0803  -12.3537 O   0  0  0  0  0  0  0  0  0  0  0  0
   15.1164   -3.5071  -14.7596 C   0  0  0  0  0  0  0  0  0  0  0  0
   16.1164   -4.0332  -13.7429 C   0  0  2  0  0  0  0  0  0  0  0  0
   15.4190   -4.9777  -12.8991 N   0  0  0  0  0  0  0  0  0  0  0  0
   16.5505   -2.8810  -12.8885 C   0  0  0  0  0  0  0  0  0  0  0  0
   17.5270   -1.9821  -13.2842 O   0  0  0  0  0  0  0  0  0  0  0  0
   16.0031   -2.7276  -11.7688 O   0  0  0  0  0  0  0  0  0  0  0  0
  1  2  1  0
  2  4  1  0
  3  2  2  0
  4  5  1  0
  5  6  1  6
  7  5  1  0
  7  8  2  0
 10  9  1  6
 10 12  1  0
 11 10  1  0
 13 12  1  1
 13 14  1  0
 14  7  1  0
 15 13  1  0
 16 15  2  0
 18 19  1  0
 18 17  1  6
 19 15  1  0
 20 18  1  0
 21 20  1  0
 22 20  2  0
M  END
$$$$
