NLA.pdb
     RDKit          3D

 22 21  0  0  1  0  0  0  0  0999 V2000
   17.4644  -10.3552  -21.3592 N   0  0  0  0  0  0  0  0  0  0  0  0
   18.4162  -10.2501  -20.3182 C   0  0  0  0  0  0  0  0  0  0  0  0
   19.4943  -10.9204  -20.4192 O   0  0  0  0  0  0  0  0  0  0  0  0
   18.2333   -9.4141  -19.1300 C   0  0  0  0  0  0  0  0  0  0  0  0
   18.8612   -9.9941  -17.8827 C   0  0  2  0  0  0  0  0  0  0  0  0
   18.0922  -11.1230  -17.4352 N   0  0  0  0  0  0  0  0  0  0  0  0
   18.9746   -9.0157  -16.7849 C   0  0  0  0  0  0  0  0  0  0  0  0
   17.9451   -8.6716  -16.1681 O   0  0  0  0  0  0  0  0  0  0  0  0
   20.7193   -9.0371  -12.5991 C   0  0  0  0  0  0  0  0  0  0  0  0
   21.6136   -9.1737  -13.8112 C   0  0  2  0  0  0  0  0  0  0  0  0
   23.0293   -9.4437  -13.2896 C   0  0  0  0  0  0  0  0  0  0  0  0
   21.6818   -7.8798  -14.5931 C   0  0  0  0  0  0  0  0  0  0  0  0
   20.4135   -7.5543  -15.3201 C   0  0  2  0  0  0  0  0  0  0  0  0
   20.2325   -8.4679  -16.4277 N   0  0  0  0  0  0  0  0  0  0  0  0
   20.4995   -6.1524  -15.7975 C   0  0  0  0  0  0  0  0  0  0  0  0
   21.4539   -5.7163  -16.5030 O   0  0  0  0  0  0  0  0  0  0  0  0
   18.0883   -3.3006  -15.7222 C   0  0  0  0  0  0  0  0  0  0  0  0
   19.4837   -3.8636  -15.9372 C   0  0  2  0  0  0  0  0  0  0  0  0
   19.4766   -5.2297  -15.4637 N   0  0  0  0  0  0  0  0  0  0  0  0
   20.4309   -3.0808  -15.0794 C   0  0  0  0  0  0  0  0  0  0  0  0
   21.0807   -3.6313  -13.9872 O   0  0  0  0  0  0  0  0  0  0  0  0
   20.6418   -1.8767  -15.3667 O   0  0  0  0  0  0  0  0  0  0  0  0
  1  2  1  0
  2  4  1  0
  3  2  2  0
  4  5  1  0
  5  6  1  1
  7  5  1  0
  7  8  2  0
 10  9  1  1
 10 12  1  0
 11 10  1  0
 13 12  1  6
 13 14  1  0
 14  7  1  0
 15 13  1  0
 16 15  2  0
 18 19  1  0
 18 17  1  1
 19 15  1  0
 20 18  1  0
 21 20  1  0
 22 20  2  0
M  END
$$$$
