NLA.pdb
     RDKit          3D

 22 21  0  0  1  0  0  0  0  0999 V2000
   20.8425  -14.5922  -19.8752 N   0  0  0  0  0  0  0  0  0  0  0  0
   19.7840  -13.8071  -19.3615 C   0  0  0  0  0  0  0  0  0  0  0  0
   18.6324  -13.9298  -19.8912 O   0  0  0  0  0  0  0  0  0  0  0  0
   19.9360  -12.8607  -18.2546 C   0  0  0  0  0  0  0  0  0  0  0  0
   21.3413  -12.8035  -17.6993 C   0  0  2  0  0  0  0  0  0  0  0  0
   21.6687  -14.0604  -17.0837 N   0  0  0  0  0  0  0  0  0  0  0  0
   21.5315  -11.7171  -16.7201 C   0  0  0  0  0  0  0  0  0  0  0  0
   20.9530  -11.7854  -15.6159 O   0  0  0  0  0  0  0  0  0  0  0  0
   24.5592  -10.3509  -14.0225 C   0  0  0  0  0  0  0  0  0  0  0  0
   24.8649  -10.1258  -15.4865 C   0  0  2  0  0  0  0  0  0  0  0  0
   26.2923   -9.5724  -15.5615 C   0  0  0  0  0  0  0  0  0  0  0  0
   23.9606   -9.0680  -16.0810 C   0  0  0  0  0  0  0  0  0  0  0  0
   22.5201   -9.4746  -16.1322 C   0  0  2  0  0  0  0  0  0  0  0  0
   22.3589  -10.6057  -17.0204 N   0  0  0  0  0  0  0  0  0  0  0  0
   21.7270   -8.3129  -16.6036 C   0  0  0  0  0  0  0  0  0  0  0  0
   21.8767   -7.7864  -17.7434 O   0  0  0  0  0  0  0  0  0  0  0  0
   18.7666   -6.5112  -15.2148 C   0  0  0  0  0  0  0  0  0  0  0  0
   19.9605   -6.5909  -16.1522 C   0  0  2  0  0  0  0  0  0  0  0  0
   20.7438   -7.7405  -15.7582 N   0  0  0  0  0  0  0  0  0  0  0  0
   20.7954   -5.3653  -15.9361 C   0  0  0  0  0  0  0  0  0  0  0  0
   20.3967   -4.1054  -16.3512 O   0  0  0  0  0  0  0  0  0  0  0  0
   21.9008   -5.4900  -15.3536 O   0  0  0  0  0  0  0  0  0  0  0  0
  1  2  1  0
  2  4  1  0
  3  2  2  0
  4  5  1  0
  5  6  1  1
  7  5  1  0
  7  8  2  0
 10  9  1  1
 10 12  1  0
 11 10  1  0
 13 12  1  6
 13 14  1  0
 14  7  1  0
 15 13  1  0
 16 15  2  0
 18 19  1  0
 18 17  1  1
 19 15  1  0
 20 18  1  0
 21 20  1  0
 22 20  2  0
M  END
$$$$
