NLA.pdb
     RDKit          3D

 22 21  0  0  1  0  0  0  0  0999 V2000
   29.5446  -19.2164  -17.9422 N   0  0  0  0  0  0  0  0  0  0  0  0
   28.1474  -19.0185  -18.0386 C   0  0  0  0  0  0  0  0  0  0  0  0
   27.7180  -18.1591  -18.8746 O   0  0  0  0  0  0  0  0  0  0  0  0
   27.1652  -19.7458  -17.2321 C   0  0  0  0  0  0  0  0  0  0  0  0
   27.7894  -20.6845  -16.2243 C   0  0  2  0  0  0  0  0  0  0  0  0
   28.3577  -21.8156  -16.9054 N   0  0  0  0  0  0  0  0  0  0  0  0
   26.8325  -21.1587  -15.2070 C   0  0  0  0  0  0  0  0  0  0  0  0
   26.0693  -22.1068  -15.4849 O   0  0  0  0  0  0  0  0  0  0  0  0
   25.6024  -19.9017   -9.2130 C   0  0  0  0  0  0  0  0  0  0  0  0
   25.2575  -20.6711  -10.4685 C   0  0  2  0  0  0  0  0  0  0  0  0
   25.4212  -22.1584  -10.1362 C   0  0  0  0  0  0  0  0  0  0  0  0
   26.2338  -20.3688  -11.5846 C   0  0  0  0  0  0  0  0  0  0  0  0
   25.8281  -20.9470  -12.9053 C   0  0  2  0  0  0  0  0  0  0  0  0
   26.7733  -20.5515  -13.9272 N   0  0  0  0  0  0  0  0  0  0  0  0
   24.4647  -20.4581  -13.2261 C   0  0  0  0  0  0  0  0  0  0  0  0
   24.1693  -19.2317  -13.3134 O   0  0  0  0  0  0  0  0  0  0  0  0
   21.5244  -22.0339  -14.7603 C   0  0  0  0  0  0  0  0  0  0  0  0
   22.0851  -20.9711  -13.8294 C   0  0  2  0  0  0  0  0  0  0  0  0
   23.4176  -21.3863  -13.4518 N   0  0  0  0  0  0  0  0  0  0  0  0
   21.2381  -20.9517  -12.5932 C   0  0  0  0  0  0  0  0  0  0  0  0
   20.0001  -20.3326  -12.5439 O   0  0  0  0  0  0  0  0  0  0  0  0
   21.6721  -21.5221  -11.5621 O   0  0  0  0  0  0  0  0  0  0  0  0
  1  2  1  0
  2  4  1  0
  3  2  2  0
  4  5  1  0
  5  6  1  6
  7  5  1  0
  7  8  2  0
 10  9  1  1
 10 12  1  0
 11 10  1  0
 13 12  1  1
 13 14  1  0
 14  7  1  0
 15 13  1  0
 16 15  2  0
 18 19  1  0
 18 17  1  6
 19 15  1  0
 20 18  1  0
 21 20  1  0
 22 20  2  0
M  END
$$$$
