NLA.pdb
     RDKit          3D

 22 21  0  0  1  0  0  0  0  0999 V2000
   22.3013  -39.5378   -9.4191 N   0  0  0  0  0  0  0  0  0  0  0  0
   23.2153  -39.9088   -8.4055 C   0  0  0  0  0  0  0  0  0  0  0  0
   23.0467  -41.0294   -7.8245 O   0  0  0  0  0  0  0  0  0  0  0  0
   24.3457  -39.0781   -7.9855 C   0  0  0  0  0  0  0  0  0  0  0  0
   24.4142  -37.7476   -8.7006 C   0  0  2  0  0  0  0  0  0  0  0  0
   24.7884  -37.9556  -10.0728 N   0  0  0  0  0  0  0  0  0  0  0  0
   25.3598  -36.8040   -8.0754 C   0  0  0  0  0  0  0  0  0  0  0  0
   26.5813  -36.9267   -8.3028 O   0  0  0  0  0  0  0  0  0  0  0  0
   26.7025  -32.8869   -8.7217 C   0  0  0  0  0  0  0  0  0  0  0  0
   25.2874  -32.9642   -8.1935 C   0  0  2  0  0  0  0  0  0  0  0  0
   24.7338  -31.5350   -8.1976 C   0  0  0  0  0  0  0  0  0  0  0  0
   25.2622  -33.4321   -6.7545 C   0  0  0  0  0  0  0  0  0  0  0  0
   25.7786  -34.8259   -6.5711 C   0  0  2  0  0  0  0  0  0  0  0  0
   24.8966  -35.7679   -7.2258 N   0  0  0  0  0  0  0  0  0  0  0  0
   25.8627  -35.1013   -5.1158 C   0  0  0  0  0  0  0  0  0  0  0  0
   24.8478  -35.2027   -4.3684 O   0  0  0  0  0  0  0  0  0  0  0  0
   28.7244  -35.9264   -2.8477 C   0  0  0  0  0  0  0  0  0  0  0  0
   27.2728  -35.5461   -3.0901 C   0  0  2  0  0  0  0  0  0  0  0  0
   27.1294  -35.2643   -4.5009 N   0  0  0  0  0  0  0  0  0  0  0  0
   26.9983  -34.2812   -2.3347 C   0  0  0  0  0  0  0  0  0  0  0  0
   26.7972  -34.2564   -0.9646 O   0  0  0  0  0  0  0  0  0  0  0  0
   26.9502  -33.2015   -2.9741 O   0  0  0  0  0  0  0  0  0  0  0  0
  1  2  1  0
  2  4  1  0
  3  2  2  0
  4  5  1  0
  5  6  1  6
  7  5  1  0
  7  8  2  0
 10  9  1  1
 10 12  1  0
 11 10  1  0
 13 12  1  1
 13 14  1  0
 14  7  1  0
 15 13  1  0
 16 15  2  0
 18 19  1  0
 18 17  1  6
 19 15  1  0
 20 18  1  0
 21 20  1  0
 22 20  2  0
M  END
$$$$
