AKR.pdb
     RDKit          3D

 26 25  0  0  1  0  0  0  0  0999 V2000
    6.8034  -21.3657   21.9387 C   0  0  0  0  0  0  0  0  0  0  0  0
    6.4376  -20.4945   20.7553 C   0  0  2  0  0  0  0  0  0  0  0  0
    6.4498  -21.2422   19.5160 N   0  0  0  0  0  0  0  0  0  0  0  0
    7.4417  -19.3966   20.6897 C   0  0  0  0  0  0  0  0  0  0  0  0
    8.5894  -19.6274   20.2803 O   0  0  0  0  0  0  0  0  0  0  0  0
    7.1154  -18.0755   21.0885 N   0  0  0  0  0  0  0  0  0  0  0  0
    8.0227  -16.9871   21.1570 C   0  0  1  0  0  0  0  0  0  0  0  0
    7.4262  -15.6271   21.0189 C   0  0  0  0  0  0  0  0  0  0  0  0
    8.4187  -14.5347   20.7547 C   0  0  0  0  0  0  0  0  0  0  0  0
    7.6751  -13.2531   20.5000 C   0  0  0  0  0  0  0  0  0  0  0  0
    8.5910  -12.1245   20.0952 C   0  0  0  0  0  0  0  0  0  0  0  0
    7.8715  -10.9130   19.7610 N   0  0  0  0  0  0  0  0  0  0  0  0
    8.7860  -17.0721   22.4522 C   0  0  0  0  0  0  0  0  0  0  0  0
    8.3268  -17.7133   23.4283 O   0  0  0  0  0  0  0  0  0  0  0  0
   13.3868  -21.9378   23.5248 N   0  0  0  0  0  0  0  0  0  0  0  0
   14.4026  -21.6549   22.5774 C   0  0  0  0  0  0  0  0  0  0  0  0
   15.5714  -22.1461   22.7484 N   0  0  0  0  0  0  0  0  0  0  0  0
   14.1403  -20.8342   21.4418 N   0  0  0  0  0  0  0  0  0  0  0  0
   12.8672  -20.2247   21.1996 C   0  0  0  0  0  0  0  0  0  0  0  0
   12.7699  -18.9905   22.1213 C   0  0  0  0  0  0  0  0  0  0  0  0
   11.4846  -18.2573   21.8625 C   0  0  0  0  0  0  0  0  0  0  0  0
   11.3204  -17.0911   22.7464 C   0  0  2  0  0  0  0  0  0  0  0  0
   10.0400  -16.4306   22.6004 N   0  0  0  0  0  0  0  0  0  0  0  0
   12.4615  -16.1538   22.8615 C   0  0  0  0  0  0  0  0  0  0  0  0
   12.8370  -15.3147   21.8228 O   0  0  0  0  0  0  0  0  0  0  0  0
   13.1678  -16.0617   23.9129 O   0  0  0  0  0  0  0  0  0  0  0  0
  2  1  1  1
  3  2  1  0
  4  2  1  0
  4  5  2  0
  6  4  1  0
  7  6  1  0
  7  8  1  1
  9  8  1  0
 10  9  1  0
 11 10  1  0
 12 11  1  0
 13  7  1  0
 14 13  2  0
 16 17  2  0
 16 15  1  0
 18 16  1  0
 19 18  1  0
 20 19  1  0
 22 21  1  6
 21 20  1  0
 22 23  1  0
 23 13  1  0
 24 25  1  0
 24 22  1  0
 26 24  2  0
M  END
$$$$
