AKR.pdb
     RDKit          3D

 26 25  0  0  1  0  0  0  0  0999 V2000
   12.9572  -17.1223   18.2678 C   0  0  0  0  0  0  0  0  0  0  0  0
   11.8506  -17.7575   19.0832 C   0  0  2  0  0  0  0  0  0  0  0  0
   10.8223  -18.3269   18.2385 N   0  0  0  0  0  0  0  0  0  0  0  0
   11.2636  -16.6880   19.9376 C   0  0  0  0  0  0  0  0  0  0  0  0
   11.9885  -16.0386   20.7063 O   0  0  0  0  0  0  0  0  0  0  0  0
    9.8783  -16.3885   19.8945 N   0  0  0  0  0  0  0  0  0  0  0  0
    9.2368  -15.3491   20.6161 C   0  0  1  0  0  0  0  0  0  0  0  0
    8.0852  -14.6917   19.9332 C   0  0  0  0  0  0  0  0  0  0  0  0
    8.4632  -13.8187   18.7742 C   0  0  0  0  0  0  0  0  0  0  0  0
    7.5195  -14.0872   17.6350 C   0  0  0  0  0  0  0  0  0  0  0  0
    7.8261  -13.2460   16.4205 C   0  0  0  0  0  0  0  0  0  0  0  0
    6.9966  -13.5838   15.2826 N   0  0  0  0  0  0  0  0  0  0  0  0
    8.7898  -15.8878   21.9493 C   0  0  0  0  0  0  0  0  0  0  0  0
    8.3426  -17.0556   22.0537 O   0  0  0  0  0  0  0  0  0  0  0  0
   10.6522  -16.6660   29.9319 N   0  0  0  0  0  0  0  0  0  0  0  0
   10.2382  -15.3145   29.8233 C   0  0  0  0  0  0  0  0  0  0  0  0
   10.9956  -14.3901   30.2800 N   0  0  0  0  0  0  0  0  0  0  0  0
    8.9952  -14.9734   29.2148 N   0  0  0  0  0  0  0  0  0  0  0  0
    8.9047  -14.3079   27.9500 C   0  0  0  0  0  0  0  0  0  0  0  0
    9.1380  -15.3726   26.8570 C   0  0  0  0  0  0  0  0  0  0  0  0
    9.2029  -14.7162   25.5074 C   0  0  0  0  0  0  0  0  0  0  0  0
    8.5498  -15.5230   24.4631 C   0  0  2  0  0  0  0  0  0  0  0  0
    8.8627  -15.0898   23.1172 N   0  0  0  0  0  0  0  0  0  0  0  0
    7.1227  -15.8688   24.6580 C   0  0  0  0  0  0  0  0  0  0  0  0
    6.1220  -15.3686   23.8381 O   0  0  0  0  0  0  0  0  0  0  0  0
    6.7261  -16.6391   25.5864 O   0  0  0  0  0  0  0  0  0  0  0  0
  2  1  1  6
  3  2  1  0
  4  2  1  0
  4  5  2  0
  6  4  1  0
  7  6  1  0
  7  8  1  6
  9  8  1  0
 10  9  1  0
 11 10  1  0
 12 11  1  0
 13  7  1  0
 14 13  2  0
 16 17  2  0
 16 15  1  0
 18 16  1  0
 19 18  1  0
 20 19  1  0
 22 21  1  1
 21 20  1  0
 22 23  1  0
 23 13  1  0
 24 25  1  0
 24 22  1  0
 26 24  2  0
M  END
$$$$
