AKR.pdb
     RDKit          3D

 26 25  0  0  1  0  0  0  0  0999 V2000
    4.0071  -19.0678   20.4549 C   0  0  0  0  0  0  0  0  0  0  0  0
    4.4712  -18.4404   21.7526 C   0  0  2  0  0  0  0  0  0  0  0  0
    3.5219  -17.4651   22.2452 N   0  0  0  0  0  0  0  0  0  0  0  0
    5.7765  -17.7775   21.4792 C   0  0  0  0  0  0  0  0  0  0  0  0
    6.7551  -18.4531   21.1273 O   0  0  0  0  0  0  0  0  0  0  0  0
    5.9319  -16.3744   21.6125 N   0  0  0  0  0  0  0  0  0  0  0  0
    7.1262  -15.6499   21.3644 C   0  0  1  0  0  0  0  0  0  0  0  0
    6.9905  -14.4370   20.5071 C   0  0  0  0  0  0  0  0  0  0  0  0
    7.2905  -14.6628   19.0554 C   0  0  0  0  0  0  0  0  0  0  0  0
    7.7717  -13.3727   18.4518 C   0  0  0  0  0  0  0  0  0  0  0  0
    7.9942  -13.4790   16.9632 C   0  0  0  0  0  0  0  0  0  0  0  0
    8.4290  -12.2304   16.3724 N   0  0  0  0  0  0  0  0  0  0  0  0
    7.7445  -15.2670   22.6829 C   0  0  0  0  0  0  0  0  0  0  0  0
    7.0388  -14.8144   23.6167 O   0  0  0  0  0  0  0  0  0  0  0  0
    7.4635  -19.5298   28.8747 N   0  0  0  0  0  0  0  0  0  0  0  0
    8.8687  -19.6852   28.7708 C   0  0  0  0  0  0  0  0  0  0  0  0
    9.5257  -20.1211   29.7783 N   0  0  0  0  0  0  0  0  0  0  0  0
    9.5563  -19.3640   27.5643 N   0  0  0  0  0  0  0  0  0  0  0  0
    8.8871  -18.8932   26.3889 C   0  0  0  0  0  0  0  0  0  0  0  0
    9.6800  -17.6749   25.8700 C   0  0  0  0  0  0  0  0  0  0  0  0
    9.0174  -17.1169   24.6427 C   0  0  0  0  0  0  0  0  0  0  0  0
    9.7591  -15.9769   24.0783 C   0  0  2  0  0  0  0  0  0  0  0  0
    9.1368  -15.4078   22.9011 N   0  0  0  0  0  0  0  0  0  0  0  0
   11.2307  -16.1053   23.9678 C   0  0  0  0  0  0  0  0  0  0  0  0
   11.8897  -16.0351   22.7494 O   0  0  0  0  0  0  0  0  0  0  0  0
   11.9789  -16.2904   24.9771 O   0  0  0  0  0  0  0  0  0  0  0  0
  2  1  1  6
  3  2  1  0
  4  2  1  0
  4  5  2  0
  6  4  1  0
  7  6  1  0
  7  8  1  6
  9  8  1  0
 10  9  1  0
 11 10  1  0
 12 11  1  0
 13  7  1  0
 14 13  2  0
 16 17  2  0
 16 15  1  0
 18 16  1  0
 19 18  1  0
 20 19  1  0
 22 21  1  6
 21 20  1  0
 22 23  1  0
 23 13  1  0
 24 25  1  0
 24 22  1  0
 26 24  2  0
M  END
$$$$
