AKR.pdb
     RDKit          3D

 26 25  0  0  1  0  0  0  0  0999 V2000
    3.3584  -18.4697   21.6597 C   0  0  0  0  0  0  0  0  0  0  0  0
    4.2894  -18.2668   20.4829 C   0  0  2  0  0  0  0  0  0  0  0  0
    4.6090  -19.5189   19.8309 N   0  0  0  0  0  0  0  0  0  0  0  0
    5.5348  -17.6422   21.0092 C   0  0  0  0  0  0  0  0  0  0  0  0
    6.4082  -18.3465   21.5374 O   0  0  0  0  0  0  0  0  0  0  0  0
    5.7512  -16.2436   20.9209 N   0  0  0  0  0  0  0  0  0  0  0  0
    6.9617  -15.5750   21.2375 C   0  0  1  0  0  0  0  0  0  0  0  0
    7.2478  -14.3347   20.4602 C   0  0  0  0  0  0  0  0  0  0  0  0
    8.0235  -14.5559   19.1962 C   0  0  0  0  0  0  0  0  0  0  0  0
    7.8236  -13.3735   18.2895 C   0  0  0  0  0  0  0  0  0  0  0  0
    8.5241  -13.5376   16.9632 C   0  0  0  0  0  0  0  0  0  0  0  0
    8.3719  -12.3820   16.1038 N   0  0  0  0  0  0  0  0  0  0  0  0
    6.9711  -15.2590   22.7097 C   0  0  0  0  0  0  0  0  0  0  0  0
    5.9075  -14.9786   23.3139 O   0  0  0  0  0  0  0  0  0  0  0  0
    8.4268  -21.7146   27.2666 N   0  0  0  0  0  0  0  0  0  0  0  0
    7.5465  -20.9290   28.0524 C   0  0  0  0  0  0  0  0  0  0  0  0
    6.9859  -21.4531   29.0760 N   0  0  0  0  0  0  0  0  0  0  0  0
    7.2789  -19.5693   27.7189 N   0  0  0  0  0  0  0  0  0  0  0  0
    7.1394  -19.1121   26.3690 C   0  0  0  0  0  0  0  0  0  0  0  0
    7.8931  -17.7694   26.2622 C   0  0  0  0  0  0  0  0  0  0  0  0
    7.6829  -17.1702   24.9009 C   0  0  0  0  0  0  0  0  0  0  0  0
    8.3771  -15.8809   24.7460 C   0  0  2  0  0  0  0  0  0  0  0  0
    8.1798  -15.2700   23.4480 N   0  0  0  0  0  0  0  0  0  0  0  0
    9.7713  -15.7910   25.2379 C   0  0  0  0  0  0  0  0  0  0  0  0
   10.0744  -15.4030   26.5346 O   0  0  0  0  0  0  0  0  0  0  0  0
   10.7737  -16.0592   24.5058 O   0  0  0  0  0  0  0  0  0  0  0  0
  2  1  1  1
  3  2  1  0
  4  2  1  0
  4  5  2  0
  6  4  1  0
  7  6  1  0
  7  8  1  6
  9  8  1  0
 10  9  1  0
 11 10  1  0
 12 11  1  0
 13  7  1  0
 14 13  2  0
 16 17  2  0
 16 15  1  0
 18 16  1  0
 19 18  1  0
 20 19  1  0
 22 21  1  6
 21 20  1  0
 22 23  1  0
 23 13  1  0
 24 25  1  0
 24 22  1  0
 26 24  2  0
M  END
$$$$
