AKR.pdb
     RDKit          3D

 26 25  0  0  1  0  0  0  0  0999 V2000
    7.2673  -11.8105   27.2210 C   0  0  0  0  0  0  0  0  0  0  0  0
    6.1039  -12.0884   26.2924 C   0  0  2  0  0  0  0  0  0  0  0  0
    4.9228  -12.4984   27.0217 N   0  0  0  0  0  0  0  0  0  0  0  0
    6.5277  -13.1775   25.3692 C   0  0  0  0  0  0  0  0  0  0  0  0
    6.4952  -14.3589   25.7452 O   0  0  0  0  0  0  0  0  0  0  0  0
    6.9736  -12.8953   24.0531 N   0  0  0  0  0  0  0  0  0  0  0  0
    7.3907  -13.8593   23.0994 C   0  0  1  0  0  0  0  0  0  0  0  0
    7.5727  -13.3645   21.7042 C   0  0  0  0  0  0  0  0  0  0  0  0
    7.9231  -14.4274   20.7064 C   0  0  0  0  0  0  0  0  0  0  0  0
    8.0295  -13.7998   19.3443 C   0  0  0  0  0  0  0  0  0  0  0  0
    8.2281  -14.8211   18.2516 C   0  0  0  0  0  0  0  0  0  0  0  0
    8.3514  -14.2198   16.9400 N   0  0  0  0  0  0  0  0  0  0  0  0
    8.6692  -14.4944   23.5783 C   0  0  0  0  0  0  0  0  0  0  0  0
    9.6316  -13.7887   23.9664 O   0  0  0  0  0  0  0  0  0  0  0  0
    5.8239  -19.5595   24.1356 N   0  0  0  0  0  0  0  0  0  0  0  0
    6.4972  -20.7530   23.7726 C   0  0  0  0  0  0  0  0  0  0  0  0
    5.8817  -21.6301   23.0737 N   0  0  0  0  0  0  0  0  0  0  0  0
    7.8446  -20.9877   24.1739 N   0  0  0  0  0  0  0  0  0  0  0  0
    8.5934  -20.0594   24.9666 C   0  0  0  0  0  0  0  0  0  0  0  0
    8.9472  -18.8641   24.0563 C   0  0  0  0  0  0  0  0  0  0  0  0
    9.6835  -17.8191   24.8452 C   0  0  0  0  0  0  0  0  0  0  0  0
    9.9926  -16.6266   24.0386 C   0  0  2  0  0  0  0  0  0  0  0  0
    8.8168  -15.9028   23.6022 N   0  0  0  0  0  0  0  0  0  0  0  0
   11.0300  -16.7602   22.9898 C   0  0  0  0  0  0  0  0  0  0  0  0
   12.3735  -16.9218   23.2948 O   0  0  0  0  0  0  0  0  0  0  0  0
   10.7570  -16.7318   21.7499 O   0  0  0  0  0  0  0  0  0  0  0  0
  2  1  1  1
  3  2  1  0
  4  2  1  0
  4  5  2  0
  6  4  1  0
  7  6  1  0
  7  8  1  6
  9  8  1  0
 10  9  1  0
 11 10  1  0
 12 11  1  0
 13  7  1  0
 14 13  2  0
 16 17  2  0
 16 15  1  0
 18 16  1  0
 19 18  1  0
 20 19  1  0
 22 21  1  6
 21 20  1  0
 22 23  1  0
 23 13  1  0
 24 25  1  0
 24 22  1  0
 26 24  2  0
M  END
$$$$
