AKR.pdb
     RDKit          3D

 26 25  0  0  1  0  0  0  0  0999 V2000
    8.7331  -12.0606   19.8106 C   0  0  0  0  0  0  0  0  0  0  0  0
    8.3647  -13.2024   18.8867 C   0  0  2  0  0  0  0  0  0  0  0  0
    7.1375  -12.9345   18.1675 N   0  0  0  0  0  0  0  0  0  0  0  0
    8.1965  -14.4167   19.7325 C   0  0  0  0  0  0  0  0  0  0  0  0
    7.1752  -14.5575   20.4217 O   0  0  0  0  0  0  0  0  0  0  0  0
    9.1875  -15.4302   19.7709 N   0  0  0  0  0  0  0  0  0  0  0  0
    9.1304  -16.6095   20.5574 C   0  0  1  0  0  0  0  0  0  0  0  0
    9.7293  -17.8325   19.9489 C   0  0  0  0  0  0  0  0  0  0  0  0
    9.6741  -19.0527   20.8185 C   0  0  0  0  0  0  0  0  0  0  0  0
    8.3232  -19.6956   20.6693 C   0  0  0  0  0  0  0  0  0  0  0  0
    8.1996  -20.9714   21.4654 C   0  0  0  0  0  0  0  0  0  0  0  0
    6.9097  -21.6092   21.3024 N   0  0  0  0  0  0  0  0  0  0  0  0
    9.7831  -16.3384   21.8871 C   0  0  0  0  0  0  0  0  0  0  0  0
   10.9932  -16.0130   21.9549 O   0  0  0  0  0  0  0  0  0  0  0  0
   10.9785  -16.3170   29.8977 N   0  0  0  0  0  0  0  0  0  0  0  0
   10.4963  -15.0237   29.5747 C   0  0  0  0  0  0  0  0  0  0  0  0
   10.0499  -14.2718   30.5085 N   0  0  0  0  0  0  0  0  0  0  0  0
   10.5022  -14.5519   28.2297 N   0  0  0  0  0  0  0  0  0  0  0  0
    9.3276  -14.5195   27.4112 C   0  0  0  0  0  0  0  0  0  0  0  0
    9.1400  -15.9357   26.8267 C   0  0  0  0  0  0  0  0  0  0  0  0
    8.6162  -15.8453   25.4217 C   0  0  0  0  0  0  0  0  0  0  0  0
    9.5898  -16.3342   24.4312 C   0  0  2  0  0  0  0  0  0  0  0  0
    9.0477  -16.4443   23.0929 N   0  0  0  0  0  0  0  0  0  0  0  0
   10.4458  -17.4787   24.8203 C   0  0  0  0  0  0  0  0  0  0  0  0
    9.9598  -18.7761   24.8882 O   0  0  0  0  0  0  0  0  0  0  0  0
   11.6729  -17.3450   25.1186 O   0  0  0  0  0  0  0  0  0  0  0  0
  2  1  1  1
  3  2  1  0
  4  2  1  0
  4  5  2  0
  6  4  1  0
  7  6  1  0
  7  8  1  6
  9  8  1  0
 10  9  1  0
 11 10  1  0
 12 11  1  0
 13  7  1  0
 14 13  2  0
 16 17  2  0
 16 15  1  0
 18 16  1  0
 19 18  1  0
 20 19  1  0
 22 21  1  1
 21 20  1  0
 22 23  1  0
 23 13  1  0
 24 25  1  0
 24 22  1  0
 26 24  2  0
M  END
$$$$
