AKR.pdb
     RDKit          3D

 26 25  0  0  1  0  0  0  0  0999 V2000
    3.9540  -19.6632   21.8234 C   0  0  0  0  0  0  0  0  0  0  0  0
    5.3632  -19.8384   22.3492 C   0  0  2  0  0  0  0  0  0  0  0  0
    5.3712  -20.4049   23.6812 N   0  0  0  0  0  0  0  0  0  0  0  0
    5.9953  -18.4901   22.3728 C   0  0  0  0  0  0  0  0  0  0  0  0
    6.1241  -17.8454   21.3213 O   0  0  0  0  0  0  0  0  0  0  0  0
    6.4601  -17.9159   23.5832 N   0  0  0  0  0  0  0  0  0  0  0  0
    7.0733  -16.6429   23.7097 C   0  0  1  0  0  0  0  0  0  0  0  0
    6.7415  -15.8757   24.9450 C   0  0  0  0  0  0  0  0  0  0  0  0
    7.3286  -14.4970   24.9993 C   0  0  0  0  0  0  0  0  0  0  0  0
    6.8280  -13.8037   26.2359 C   0  0  0  0  0  0  0  0  0  0  0  0
    7.2701  -12.3629   26.3092 C   0  0  0  0  0  0  0  0  0  0  0  0
    6.7072  -11.6625   27.4449 N   0  0  0  0  0  0  0  0  0  0  0  0
    8.5662  -16.8109   23.6081 C   0  0  0  0  0  0  0  0  0  0  0  0
    9.1912  -17.5194   24.4342 O   0  0  0  0  0  0  0  0  0  0  0  0
   14.8580  -13.0328   18.0685 N   0  0  0  0  0  0  0  0  0  0  0  0
   15.2805  -14.2471   18.6657 C   0  0  0  0  0  0  0  0  0  0  0  0
   16.3301  -14.8294   18.2231 N   0  0  0  0  0  0  0  0  0  0  0  0
   14.5549  -14.8252   19.7478 N   0  0  0  0  0  0  0  0  0  0  0  0
   13.1720  -14.5467   19.9944 C   0  0  0  0  0  0  0  0  0  0  0  0
   12.7224  -15.4612   21.1537 C   0  0  0  0  0  0  0  0  0  0  0  0
   11.2504  -15.2910   21.3998 C   0  0  0  0  0  0  0  0  0  0  0  0
   10.7316  -16.2661   22.3736 C   0  0  2  0  0  0  0  0  0  0  0  0
    9.3011  -16.1736   22.5787 N   0  0  0  0  0  0  0  0  0  0  0  0
   11.4991  -16.4569   23.6260 C   0  0  0  0  0  0  0  0  0  0  0  0
   11.4413  -15.5503   24.6742 O   0  0  0  0  0  0  0  0  0  0  0  0
   12.2583  -17.4568   23.8176 O   0  0  0  0  0  0  0  0  0  0  0  0
  2  1  1  1
  3  2  1  0
  4  2  1  0
  4  5  2  0
  6  4  1  0
  7  6  1  0
  7  8  1  1
  9  8  1  0
 10  9  1  0
 11 10  1  0
 12 11  1  0
 13  7  1  0
 14 13  2  0
 16 17  2  0
 16 15  1  0
 18 16  1  0
 19 18  1  0
 20 19  1  0
 22 21  1  1
 21 20  1  0
 22 23  1  0
 23 13  1  0
 24 25  1  0
 24 22  1  0
 26 24  2  0
M  END
$$$$
