AKR.pdb
     RDKit          3D

 26 25  0  0  1  0  0  0  0  0999 V2000
   -9.2081  -31.2850   20.2040 C   0  0  0  0  0  0  0  0  0  0  0  0
   -9.0803  -30.1115   21.1525 C   0  0  2  0  0  0  0  0  0  0  0  0
  -10.2975  -29.3299   21.2043 N   0  0  0  0  0  0  0  0  0  0  0  0
   -7.9600  -29.2645   20.6568 C   0  0  0  0  0  0  0  0  0  0  0  0
   -6.8146  -29.7332   20.5771 O   0  0  0  0  0  0  0  0  0  0  0  0
   -8.1717  -27.9174   20.2680 N   0  0  0  0  0  0  0  0  0  0  0  0
   -7.1829  -27.0455   19.7440 C   0  0  1  0  0  0  0  0  0  0  0  0
   -7.6821  -25.9162   18.9074 C   0  0  0  0  0  0  0  0  0  0  0  0
   -6.6077  -25.0349   18.3441 C   0  0  0  0  0  0  0  0  0  0  0  0
   -7.2454  -23.9797   17.4839 C   0  0  0  0  0  0  0  0  0  0  0  0
   -6.2306  -23.0609   16.8492 C   0  0  0  0  0  0  0  0  0  0  0  0
   -6.8390  -22.0556   16.0028 N   0  0  0  0  0  0  0  0  0  0  0  0
   -6.3616  -26.5023   20.8832 C   0  0  0  0  0  0  0  0  0  0  0  0
   -6.9115  -26.0926   21.9341 O   0  0  0  0  0  0  0  0  0  0  0  0
   -1.1592  -28.9052   25.0627 N   0  0  0  0  0  0  0  0  0  0  0  0
   -1.3411  -28.0705   26.1940 C   0  0  0  0  0  0  0  0  0  0  0  0
   -0.4481  -28.0558   27.1100 N   0  0  0  0  0  0  0  0  0  0  0  0
   -2.5001  -27.2511   26.3239 N   0  0  0  0  0  0  0  0  0  0  0  0
   -3.6244  -27.3480   25.4422 C   0  0  0  0  0  0  0  0  0  0  0  0
   -3.2265  -26.6608   24.1187 C   0  0  0  0  0  0  0  0  0  0  0  0
   -4.3826  -26.6859   23.1601 C   0  0  0  0  0  0  0  0  0  0  0  0
   -4.0477  -26.0674   21.8664 C   0  0  2  0  0  0  0  0  0  0  0  0
   -4.9492  -26.4404   20.7964 N   0  0  0  0  0  0  0  0  0  0  0  0
   -2.6225  -26.0535   21.4633 C   0  0  0  0  0  0  0  0  0  0  0  0
   -1.6309  -25.5157   22.2705 O   0  0  0  0  0  0  0  0  0  0  0  0
   -2.2200  -26.5279   20.3562 O   0  0  0  0  0  0  0  0  0  0  0  0
  2  1  1  6
  3  2  1  0
  4  2  1  0
  4  5  2  0
  6  4  1  0
  7  6  1  0
  7  8  1  1
  9  8  1  0
 10  9  1  0
 11 10  1  0
 12 11  1  0
 13  7  1  0
 14 13  2  0
 16 17  2  0
 16 15  1  0
 18 16  1  0
 19 18  1  0
 20 19  1  0
 22 21  1  1
 21 20  1  0
 22 23  1  0
 23 13  1  0
 24 25  1  0
 24 22  1  0
 26 24  2  0
M  END
$$$$
