AKR.pdb
     RDKit          3D

 26 25  0  0  1  0  0  0  0  0999 V2000
   10.0764  -19.6671   16.4480 C   0  0  0  0  0  0  0  0  0  0  0  0
    9.8436  -19.8500   17.9330 C   0  0  2  0  0  0  0  0  0  0  0  0
    8.4889  -20.2752   18.2142 N   0  0  0  0  0  0  0  0  0  0  0  0
   10.1034  -18.5362   18.5846 C   0  0  0  0  0  0  0  0  0  0  0  0
   11.2152  -17.9976   18.4763 O   0  0  0  0  0  0  0  0  0  0  0  0
    9.0986  -17.8756   19.3361 N   0  0  0  0  0  0  0  0  0  0  0  0
    9.2536  -16.6369   20.0101 C   0  0  1  0  0  0  0  0  0  0  0  0
    8.1432  -15.6556   19.8409 C   0  0  0  0  0  0  0  0  0  0  0  0
    8.4277  -14.2908   20.3930 C   0  0  0  0  0  0  0  0  0  0  0  0
    7.2485  -13.3995   20.1182 C   0  0  0  0  0  0  0  0  0  0  0  0
    7.4962  -11.9698   20.5322 C   0  0  0  0  0  0  0  0  0  0  0  0
    6.4117  -11.0846   20.1615 N   0  0  0  0  0  0  0  0  0  0  0  0
    9.4681  -16.9054   21.4761 C   0  0  0  0  0  0  0  0  0  0  0  0
    8.6918  -17.6587   22.1122 O   0  0  0  0  0  0  0  0  0  0  0  0
   12.8048  -23.3184   20.7206 N   0  0  0  0  0  0  0  0  0  0  0  0
   12.0491  -23.1613   21.9097 C   0  0  0  0  0  0  0  0  0  0  0  0
   11.5679  -24.1971   22.4859 N   0  0  0  0  0  0  0  0  0  0  0  0
   11.8196  -21.8706   22.4693 N   0  0  0  0  0  0  0  0  0  0  0  0
   12.2227  -20.6587   21.8216 C   0  0  0  0  0  0  0  0  0  0  0  0
   11.7522  -19.4882   22.7110 C   0  0  0  0  0  0  0  0  0  0  0  0
   12.1258  -18.1792   22.0758 C   0  0  0  0  0  0  0  0  0  0  0  0
   11.6217  -17.0253   22.8390 C   0  0  2  0  0  0  0  0  0  0  0  0
   10.5506  -16.3144   22.1726 N   0  0  0  0  0  0  0  0  0  0  0  0
   12.6215  -16.1339   23.4715 C   0  0  0  0  0  0  0  0  0  0  0  0
   13.2397  -15.1052   22.7764 O   0  0  0  0  0  0  0  0  0  0  0  0
   12.9770  -16.2567   24.6845 O   0  0  0  0  0  0  0  0  0  0  0  0
  2  1  1  6
  3  2  1  0
  4  2  1  0
  4  5  2  0
  6  4  1  0
  7  6  1  0
  7  8  1  1
  9  8  1  0
 10  9  1  0
 11 10  1  0
 12 11  1  0
 13  7  1  0
 14 13  2  0
 16 17  2  0
 16 15  1  0
 18 16  1  0
 19 18  1  0
 20 19  1  0
 22 21  1  6
 21 20  1  0
 22 23  1  0
 23 13  1  0
 24 25  1  0
 24 22  1  0
 26 24  2  0
M  END
$$$$
