AKR.pdb
     RDKit          3D

 26 25  0  0  1  0  0  0  0  0999 V2000
    7.7860  -19.7092   17.2621 C   0  0  0  0  0  0  0  0  0  0  0  0
    7.8696  -18.2905   16.7393 C   0  0  2  0  0  0  0  0  0  0  0  0
    8.5676  -18.2269   15.4729 N   0  0  0  0  0  0  0  0  0  0  0  0
    8.6024  -17.4883   17.7578 C   0  0  0  0  0  0  0  0  0  0  0  0
    9.8388  -17.5541   17.8290 O   0  0  0  0  0  0  0  0  0  0  0  0
    7.9139  -16.6391   18.6610 N   0  0  0  0  0  0  0  0  0  0  0  0
    8.5159  -15.8639   19.6853 C   0  0  1  0  0  0  0  0  0  0  0  0
    7.6468  -14.8332   20.3233 C   0  0  0  0  0  0  0  0  0  0  0  0
    8.3161  -14.0334   21.4006 C   0  0  0  0  0  0  0  0  0  0  0  0
    7.3114  -13.0900   22.0013 C   0  0  0  0  0  0  0  0  0  0  0  0
    7.8987  -12.2484   23.1075 C   0  0  0  0  0  0  0  0  0  0  0  0
    6.9151  -11.3982   23.7454 N   0  0  0  0  0  0  0  0  0  0  0  0
    9.0552  -16.7909   20.7423 C   0  0  0  0  0  0  0  0  0  0  0  0
    8.3526  -17.7261   21.1966 O   0  0  0  0  0  0  0  0  0  0  0  0
   13.3158  -22.2254   24.9395 N   0  0  0  0  0  0  0  0  0  0  0  0
   13.7123  -22.2956   23.5803 C   0  0  0  0  0  0  0  0  0  0  0  0
   14.7062  -23.0331   23.2564 N   0  0  0  0  0  0  0  0  0  0  0  0
   13.0214  -21.5591   22.5744 N   0  0  0  0  0  0  0  0  0  0  0  0
   11.9505  -20.6552   22.8691 C   0  0  0  0  0  0  0  0  0  0  0  0
   12.5491  -19.2328   22.8969 C   0  0  0  0  0  0  0  0  0  0  0  0
   11.9557  -18.4050   21.7927 C   0  0  0  0  0  0  0  0  0  0  0  0
   10.9784  -17.4246   22.2946 C   0  0  2  0  0  0  0  0  0  0  0  0
   10.3678  -16.6297   21.2495 N   0  0  0  0  0  0  0  0  0  0  0  0
   11.3503  -16.6408   23.4952 C   0  0  0  0  0  0  0  0  0  0  0  0
   12.1547  -15.5132   23.4222 O   0  0  0  0  0  0  0  0  0  0  0  0
   10.9607  -16.9521   24.6631 O   0  0  0  0  0  0  0  0  0  0  0  0
  2  1  1  1
  3  2  1  0
  4  2  1  0
  4  5  2  0
  6  4  1  0
  7  6  1  0
  7  8  1  1
  9  8  1  0
 10  9  1  0
 11 10  1  0
 12 11  1  0
 13  7  1  0
 14 13  2  0
 16 17  2  0
 16 15  1  0
 18 16  1  0
 19 18  1  0
 20 19  1  0
 22 21  1  6
 21 20  1  0
 22 23  1  0
 23 13  1  0
 24 25  1  0
 24 22  1  0
 26 24  2  0
M  END
$$$$
