AKR.pdb
     RDKit          3D

 26 25  0  0  1  0  0  0  0  0999 V2000
    8.8893  -17.1291   15.8256 C   0  0  0  0  0  0  0  0  0  0  0  0
    8.9480  -15.6173   15.7639 C   0  0  2  0  0  0  0  0  0  0  0  0
    9.8196  -15.1581   14.7034 N   0  0  0  0  0  0  0  0  0  0  0  0
    9.4628  -15.1425   17.0783 C   0  0  0  0  0  0  0  0  0  0  0  0
   10.6822  -15.0006   17.2538 O   0  0  0  0  0  0  0  0  0  0  0  0
    8.5828  -14.8442   18.1495 N   0  0  0  0  0  0  0  0  0  0  0  0
    8.9762  -14.4462   19.4531 C   0  0  1  0  0  0  0  0  0  0  0  0
    7.9030  -13.8702   20.3140 C   0  0  0  0  0  0  0  0  0  0  0  0
    8.3626  -13.4268   21.6706 C   0  0  0  0  0  0  0  0  0  0  0  0
    7.1859  -12.8754   22.4267 C   0  0  0  0  0  0  0  0  0  0  0  0
    7.5647  -12.3718   23.7977 C   0  0  0  0  0  0  0  0  0  0  0  0
    6.4584  -11.7407   24.4867 N   0  0  0  0  0  0  0  0  0  0  0  0
    9.6033  -15.6235   20.1517 C   0  0  0  0  0  0  0  0  0  0  0  0
    9.1105  -16.7726   20.0435 O   0  0  0  0  0  0  0  0  0  0  0  0
   16.8994  -14.9990   19.0350 N   0  0  0  0  0  0  0  0  0  0  0  0
   15.5712  -14.7521   18.6053 C   0  0  0  0  0  0  0  0  0  0  0  0
   15.3631  -13.8945   17.6792 N   0  0  0  0  0  0  0  0  0  0  0  0
   14.4697  -15.4436   19.1885 N   0  0  0  0  0  0  0  0  0  0  0  0
   14.5524  -16.8012   19.6370 C   0  0  0  0  0  0  0  0  0  0  0  0
   13.1413  -17.2124   20.1082 C   0  0  0  0  0  0  0  0  0  0  0  0
   12.8569  -16.6152   21.4569 C   0  0  0  0  0  0  0  0  0  0  0  0
   11.4131  -16.4998   21.7222 C   0  0  2  0  0  0  0  0  0  0  0  0
   10.7637  -15.4628   20.9477 N   0  0  0  0  0  0  0  0  0  0  0  0
   10.9709  -16.5496   23.1351 C   0  0  0  0  0  0  0  0  0  0  0  0
   11.2166  -17.6458   23.9486 O   0  0  0  0  0  0  0  0  0  0  0  0
   10.3385  -15.5972   23.6879 O   0  0  0  0  0  0  0  0  0  0  0  0
  2  1  1  1
  3  2  1  0
  4  2  1  0
  4  5  2  0
  6  4  1  0
  7  6  1  0
  7  8  1  1
  9  8  1  0
 10  9  1  0
 11 10  1  0
 12 11  1  0
 13  7  1  0
 14 13  2  0
 16 17  2  0
 16 15  1  0
 18 16  1  0
 19 18  1  0
 20 19  1  0
 22 21  1  1
 21 20  1  0
 22 23  1  0
 23 13  1  0
 24 25  1  0
 24 22  1  0
 26 24  2  0
M  END
$$$$
