VQI.pdb
     RDKit          3D

 25 24  0  0  1  0  0  0  0  0999 V2000
   24.9704  -16.2919  -18.4970 C   0  0  0  0  0  0  0  0  0  0  0  0
   26.2080  -17.0816  -18.1865 C   0  0  2  0  0  0  0  0  0  0  0  0
   26.9769  -17.3606  -19.4583 C   0  0  0  0  0  0  0  0  0  0  0  0
   25.9030  -18.3887  -17.4898 C   0  0  2  0  0  0  0  0  0  0  0  0
   25.5628  -19.3990  -18.4965 N   0  0  0  0  0  0  0  0  0  0  0  0
   24.8083  -18.2456  -16.5018 C   0  0  0  0  0  0  0  0  0  0  0  0
   24.9745  -17.4774  -15.5203 O   0  0  0  0  0  0  0  0  0  0  0  0
   18.9644  -17.4474  -16.9222 N   0  0  0  0  0  0  0  0  0  0  0  0
   18.9918  -18.0235  -15.6078 C   0  0  0  0  0  0  0  0  0  0  0  0
   18.0044  -17.7378  -14.8783 O   0  0  0  0  0  0  0  0  0  0  0  0
   20.1103  -18.8864  -15.1687 C   0  0  0  0  0  0  0  0  0  0  0  0
   21.1951  -18.9986  -16.1801 C   0  0  0  0  0  0  0  0  0  0  0  0
   22.5960  -18.8645  -15.6273 C   0  0  2  0  0  0  0  0  0  0  0  0
   23.5969  -18.9605  -16.6593 N   0  0  0  0  0  0  0  0  0  0  0  0
   22.7735  -20.0074  -14.6948 C   0  0  0  0  0  0  0  0  0  0  0  0
   23.0843  -21.1291  -15.1586 O   0  0  0  0  0  0  0  0  0  0  0  0
   25.7333  -21.5740   -9.8539 C   0  0  0  0  0  0  0  0  0  0  0  0
   24.4823  -21.8354  -10.6307 C   0  0  0  0  0  0  0  0  0  0  0  0
   24.1010  -20.6219  -11.4852 C   0  0  2  0  0  0  0  0  0  0  0  0
   23.7248  -19.4503  -10.6298 C   0  0  0  0  0  0  0  0  0  0  0  0
   22.9092  -20.9700  -12.3625 C   0  0  2  0  0  0  0  0  0  0  0  0
   22.6079  -19.8974  -13.2862 N   0  0  0  0  0  0  0  0  0  0  0  0
   21.7524  -21.1505  -11.4615 C   0  0  0  0  0  0  0  0  0  0  0  0
   21.5656  -22.2968  -10.7076 O   0  0  0  0  0  0  0  0  0  0  0  0
   20.8980  -20.2388  -11.3652 O   0  0  0  0  0  0  0  0  0  0  0  0
  2  1  1  6
  3  2  1  0
  4  2  1  0
  4  5  1  6
  6  4  1  0
  6  7  2  0
  8  9  1  0
  9 10  2  0
  9 11  1  0
 11 12  1  0
 13 12  1  6
 13 14  1  0
 14  6  1  0
 15 13  1  0
 16 15  2  0
 18 17  1  0
 19 18  1  0
 19 21  1  0
 19 20  1  1
 21 22  1  6
 21 23  1  0
 22 15  1  0
 23 24  1  0
 25 23  2  0
M  END
$$$$
