VQI.pdb
     RDKit          3D

 25 24  0  0  1  0  0  0  0  0999 V2000
   14.7854  -10.0282  -15.6002 C   0  0  0  0  0  0  0  0  0  0  0  0
   16.0665  -10.3498  -16.3124 C   0  0  2  0  0  0  0  0  0  0  0  0
   15.9955  -11.7396  -16.9037 C   0  0  0  0  0  0  0  0  0  0  0  0
   17.2740  -10.2527  -15.4072 C   0  0  2  0  0  0  0  0  0  0  0  0
   17.2190  -11.3347  -14.4191 N   0  0  0  0  0  0  0  0  0  0  0  0
   17.3562   -8.9348  -14.7354 C   0  0  0  0  0  0  0  0  0  0  0  0
   17.4885   -7.9023  -15.4409 O   0  0  0  0  0  0  0  0  0  0  0  0
   15.4466   -7.4626   -8.8109 N   0  0  0  0  0  0  0  0  0  0  0  0
   16.0998   -6.2774   -9.2891 C   0  0  0  0  0  0  0  0  0  0  0  0
   16.0649   -5.2933   -8.5023 O   0  0  0  0  0  0  0  0  0  0  0  0
   16.7585   -6.2425  -10.6133 C   0  0  0  0  0  0  0  0  0  0  0  0
   16.6810   -7.5380  -11.3400 C   0  0  0  0  0  0  0  0  0  0  0  0
   17.3050   -7.5326  -12.7172 C   0  0  2  0  0  0  0  0  0  0  0  0
   17.2870   -8.8389  -13.3250 N   0  0  0  0  0  0  0  0  0  0  0  0
   18.7207   -7.1282  -12.5178 C   0  0  0  0  0  0  0  0  0  0  0  0
   19.4599   -7.8355  -11.7944 O   0  0  0  0  0  0  0  0  0  0  0  0
   23.3514   -6.1428  -15.9231 C   0  0  0  0  0  0  0  0  0  0  0  0
   22.7604   -5.7458  -14.6078 C   0  0  0  0  0  0  0  0  0  0  0  0
   21.2788   -6.1298  -14.5315 C   0  0  2  0  0  0  0  0  0  0  0  0
   20.4813   -5.4370  -15.5944 C   0  0  0  0  0  0  0  0  0  0  0  0
   20.7162   -5.7259  -13.1781 C   0  0  2  0  0  0  0  0  0  0  0  0
   19.2908   -5.9674  -13.1103 N   0  0  0  0  0  0  0  0  0  0  0  0
   20.9525   -4.2749  -13.0319 C   0  0  0  0  0  0  0  0  0  0  0  0
   22.1388   -3.7581  -12.5391 O   0  0  0  0  0  0  0  0  0  0  0  0
   20.0529   -3.4676  -13.3628 O   0  0  0  0  0  0  0  0  0  0  0  0
  2  1  1  1
  3  2  1  0
  4  2  1  0
  4  5  1  1
  6  4  1  0
  6  7  2  0
  8  9  1  0
  9 10  2  0
  9 11  1  0
 11 12  1  0
 13 12  1  1
 13 14  1  0
 14  6  1  0
 15 13  1  0
 16 15  2  0
 18 17  1  0
 19 18  1  0
 19 21  1  0
 19 20  1  6
 21 22  1  6
 21 23  1  0
 22 15  1  0
 23 24  1  0
 25 23  2  0
M  END
$$$$
