VQI.pdb
     RDKit          3D

 25 24  0  0  1  0  0  0  0  0999 V2000
   14.9609  -10.5985  -18.0942 C   0  0  0  0  0  0  0  0  0  0  0  0
   15.7823  -11.8387  -17.8969 C   0  0  2  0  0  0  0  0  0  0  0  0
   14.9009  -12.9745  -17.4282 C   0  0  0  0  0  0  0  0  0  0  0  0
   16.9079  -11.6381  -16.9070 C   0  0  2  0  0  0  0  0  0  0  0  0
   16.3442  -11.5291  -15.5578 N   0  0  0  0  0  0  0  0  0  0  0  0
   17.7224  -10.4439  -17.2315 C   0  0  0  0  0  0  0  0  0  0  0  0
   18.4875  -10.4850  -18.2286 O   0  0  0  0  0  0  0  0  0  0  0  0
   16.1821   -4.6427  -17.8732 N   0  0  0  0  0  0  0  0  0  0  0  0
   16.6502   -5.5189  -18.9092 C   0  0  0  0  0  0  0  0  0  0  0  0
   16.3346   -5.1779  -20.0809 O   0  0  0  0  0  0  0  0  0  0  0  0
   17.4441   -6.7271  -18.5952 C   0  0  0  0  0  0  0  0  0  0  0  0
   17.6477   -6.9308  -17.1359 C   0  0  0  0  0  0  0  0  0  0  0  0
   18.4687   -8.1473  -16.7724 C   0  0  2  0  0  0  0  0  0  0  0  0
   17.6415   -9.2774  -16.4339 N   0  0  0  0  0  0  0  0  0  0  0  0
   19.2507   -7.7621  -15.5693 C   0  0  0  0  0  0  0  0  0  0  0  0
   18.6810   -7.7418  -14.4535 O   0  0  0  0  0  0  0  0  0  0  0  0
   23.1018  -10.5123  -13.9895 C   0  0  0  0  0  0  0  0  0  0  0  0
   21.9996   -9.5140  -14.1480 C   0  0  0  0  0  0  0  0  0  0  0  0
   22.5578   -8.0919  -14.2685 C   0  0  2  0  0  0  0  0  0  0  0  0
   23.3310   -7.7050  -13.0445 C   0  0  0  0  0  0  0  0  0  0  0  0
   21.4121   -7.1068  -14.4362 C   0  0  2  0  0  0  0  0  0  0  0  0
   20.6284   -7.4106  -15.6144 N   0  0  0  0  0  0  0  0  0  0  0  0
   22.0181   -5.7705  -14.6089 C   0  0  0  0  0  0  0  0  0  0  0  0
   22.4234   -4.9911  -13.5387 O   0  0  0  0  0  0  0  0  0  0  0  0
   22.1780   -5.3109  -15.7638 O   0  0  0  0  0  0  0  0  0  0  0  0
  2  1  1  1
  3  2  1  0
  4  2  1  0
  4  5  1  1
  6  4  1  0
  6  7  2  0
  8  9  1  0
  9 10  2  0
  9 11  1  0
 11 12  1  0
 13 12  1  1
 13 14  1  0
 14  6  1  0
 15 13  1  0
 16 15  2  0
 18 17  1  0
 19 18  1  0
 19 21  1  0
 19 20  1  1
 21 22  1  6
 21 23  1  0
 22 15  1  0
 23 24  1  0
 25 23  2  0
M  END
$$$$
