VQI.pdb
     RDKit          3D

 25 24  0  0  1  0  0  0  0  0999 V2000
   25.8385  -19.2947  -14.8245 C   0  0  0  0  0  0  0  0  0  0  0  0
   27.3111  -19.2262  -14.5445 C   0  0  2  0  0  0  0  0  0  0  0  0
   28.0911  -19.6617  -15.7645 C   0  0  0  0  0  0  0  0  0  0  0  0
   27.7173  -20.0766  -13.3617 C   0  0  2  0  0  0  0  0  0  0  0  0
   27.4401  -21.4837  -13.6670 N   0  0  0  0  0  0  0  0  0  0  0  0
   27.0220  -19.6641  -12.1202 C   0  0  0  0  0  0  0  0  0  0  0  0
   27.1064  -18.4660  -11.7480 O   0  0  0  0  0  0  0  0  0  0  0  0
   23.0804  -21.8563  -12.4354 N   0  0  0  0  0  0  0  0  0  0  0  0
   22.7150  -20.4946  -12.1669 C   0  0  0  0  0  0  0  0  0  0  0  0
   21.9474  -19.9694  -13.0176 O   0  0  0  0  0  0  0  0  0  0  0  0
   23.2174  -19.7843  -10.9703 C   0  0  0  0  0  0  0  0  0  0  0  0
   24.1492  -20.6045  -10.1510 C   0  0  0  0  0  0  0  0  0  0  0  0
   25.5909  -20.1500  -10.1817 C   0  0  2  0  0  0  0  0  0  0  0  0
   26.2759  -20.6012  -11.3662 N   0  0  0  0  0  0  0  0  0  0  0  0
   26.2372  -20.7763   -8.9995 C   0  0  0  0  0  0  0  0  0  0  0  0
   26.6348  -21.9618   -9.0798 O   0  0  0  0  0  0  0  0  0  0  0  0
   29.3027  -17.8795   -5.5219 C   0  0  0  0  0  0  0  0  0  0  0  0
   28.7752  -19.0086   -6.3488 C   0  0  0  0  0  0  0  0  0  0  0  0
   27.6006  -19.7012   -5.6496 C   0  0  2  0  0  0  0  0  0  0  0  0
   28.0478  -20.4111   -4.4080 C   0  0  0  0  0  0  0  0  0  0  0  0
   26.9832  -20.7277   -6.5858 C   0  0  2  0  0  0  0  0  0  0  0  0
   26.4322  -20.0959   -7.7656 N   0  0  0  0  0  0  0  0  0  0  0  0
   25.8818  -21.3757   -5.8444 C   0  0  0  0  0  0  0  0  0  0  0  0
   24.5483  -21.1466   -6.1384 O   0  0  0  0  0  0  0  0  0  0  0  0
   26.1495  -22.1666   -4.9099 O   0  0  0  0  0  0  0  0  0  0  0  0
  2  1  1  6
  3  2  1  0
  4  2  1  0
  4  5  1  6
  6  4  1  0
  6  7  2  0
  8  9  1  0
  9 10  2  0
  9 11  1  0
 11 12  1  0
 13 12  1  6
 13 14  1  0
 14  6  1  0
 15 13  1  0
 16 15  2  0
 18 17  1  0
 19 18  1  0
 19 21  1  0
 19 20  1  1
 21 22  1  6
 21 23  1  0
 22 15  1  0
 23 24  1  0
 25 23  2  0
M  END
$$$$
