VQI.pdb
     RDKit          3D

 25 24  0  0  1  0  0  0  0  0999 V2000
   21.2729  -20.7685  -18.3592 C   0  0  0  0  0  0  0  0  0  0  0  0
   20.5613  -19.8717  -17.3891 C   0  0  2  0  0  0  0  0  0  0  0  0
   19.7728  -18.8209  -18.1380 C   0  0  0  0  0  0  0  0  0  0  0  0
   21.5077  -19.1932  -16.4242 C   0  0  2  0  0  0  0  0  0  0  0  0
   22.2232  -18.1244  -17.1283 N   0  0  0  0  0  0  0  0  0  0  0  0
   22.4624  -20.1520  -15.8208 C   0  0  0  0  0  0  0  0  0  0  0  0
   22.0111  -21.1168  -15.1523 O   0  0  0  0  0  0  0  0  0  0  0  0
   28.4333  -21.4641  -17.5770 N   0  0  0  0  0  0  0  0  0  0  0  0
   28.2132  -22.2489  -16.3956 C   0  0  0  0  0  0  0  0  0  0  0  0
   29.1438  -23.0472  -16.1031 O   0  0  0  0  0  0  0  0  0  0  0  0
   26.9748  -22.1095  -15.5984 C   0  0  0  0  0  0  0  0  0  0  0  0
   26.0032  -21.1507  -16.1892 C   0  0  0  0  0  0  0  0  0  0  0  0
   24.7502  -20.9307  -15.3720 C   0  0  2  0  0  0  0  0  0  0  0  0
   23.8574  -19.9859  -15.9933 N   0  0  0  0  0  0  0  0  0  0  0  0
   25.2069  -20.3623  -14.0775 C   0  0  0  0  0  0  0  0  0  0  0  0
   25.4768  -19.1406  -14.0103 O   0  0  0  0  0  0  0  0  0  0  0  0
   22.5913  -20.7891   -9.6851 C   0  0  0  0  0  0  0  0  0  0  0  0
   23.5570  -20.3598  -10.7434 C   0  0  0  0  0  0  0  0  0  0  0  0
   24.9502  -20.9443  -10.4873 C   0  0  2  0  0  0  0  0  0  0  0  0
   25.5546  -20.3829   -9.2361 C   0  0  0  0  0  0  0  0  0  0  0  0
   25.8679  -20.6039  -11.6506 C   0  0  2  0  0  0  0  0  0  0  0  0
   25.3565  -21.1383  -12.8947 N   0  0  0  0  0  0  0  0  0  0  0  0
   27.1710  -21.2401  -11.3685 C   0  0  0  0  0  0  0  0  0  0  0  0
   28.2086  -20.5698  -10.7430 O   0  0  0  0  0  0  0  0  0  0  0  0
   27.3597  -22.4331  -11.7027 O   0  0  0  0  0  0  0  0  0  0  0  0
  2  1  1  6
  3  2  1  0
  4  2  1  0
  4  5  1  6
  6  4  1  0
  6  7  2  0
  8  9  1  0
  9 10  2  0
  9 11  1  0
 11 12  1  0
 13 12  1  6
 13 14  1  0
 14  6  1  0
 15 13  1  0
 16 15  2  0
 18 17  1  0
 19 18  1  0
 19 21  1  0
 19 20  1  1
 21 22  1  6
 21 23  1  0
 22 15  1  0
 23 24  1  0
 25 23  2  0
M  END
$$$$
