VQI.pdb
     RDKit          3D

 25 24  0  0  1  0  0  0  0  0999 V2000
   15.2373  -13.7247  -17.9877 C   0  0  0  0  0  0  0  0  0  0  0  0
   16.5483  -14.3413  -18.3787 C   0  0  2  0  0  0  0  0  0  0  0  0
   16.4700  -15.8463  -18.2550 C   0  0  0  0  0  0  0  0  0  0  0  0
   17.7017  -13.8304  -17.5446 C   0  0  2  0  0  0  0  0  0  0  0  0
   17.5584  -14.3303  -16.1736 N   0  0  0  0  0  0  0  0  0  0  0  0
   17.7791  -12.3510  -17.5563 C   0  0  0  0  0  0  0  0  0  0  0  0
   18.0615  -11.7676  -18.6339 O   0  0  0  0  0  0  0  0  0  0  0  0
   13.9510   -8.1282  -15.5745 N   0  0  0  0  0  0  0  0  0  0  0  0
   14.1498   -8.6937  -16.8787 C   0  0  0  0  0  0  0  0  0  0  0  0
   13.2013   -8.5143  -17.6893 O   0  0  0  0  0  0  0  0  0  0  0  0
   15.3882   -9.4279  -17.2188 C   0  0  0  0  0  0  0  0  0  0  0  0
   16.3673   -9.4741  -16.1000 C   0  0  0  0  0  0  0  0  0  0  0  0
   17.6688  -10.1727  -16.4227 C   0  0  2  0  0  0  0  0  0  0  0  0
   17.5395  -11.6070  -16.3763 N   0  0  0  0  0  0  0  0  0  0  0  0
   18.6250   -9.7541  -15.3654 C   0  0  0  0  0  0  0  0  0  0  0  0
   18.5416  -10.2740  -14.2285 O   0  0  0  0  0  0  0  0  0  0  0  0
   23.8836  -10.6573  -13.8853 C   0  0  0  0  0  0  0  0  0  0  0  0
   22.9027   -9.5313  -13.8046 C   0  0  0  0  0  0  0  0  0  0  0  0
   21.8184   -9.6675  -14.8789 C   0  0  2  0  0  0  0  0  0  0  0  0
   22.3910   -9.5045  -16.2542 C   0  0  0  0  0  0  0  0  0  0  0  0
   20.7612   -8.5941  -14.6756 C   0  0  2  0  0  0  0  0  0  0  0  0
   19.6432   -8.7831  -15.5751 N   0  0  0  0  0  0  0  0  0  0  0  0
   21.3999   -7.2992  -14.9885 C   0  0  0  0  0  0  0  0  0  0  0  0
   21.1141   -6.5853  -16.1400 O   0  0  0  0  0  0  0  0  0  0  0  0
   22.2355   -6.8151  -14.1898 O   0  0  0  0  0  0  0  0  0  0  0  0
  2  1  1  1
  3  2  1  0
  4  2  1  0
  4  5  1  1
  6  4  1  0
  6  7  2  0
  8  9  1  0
  9 10  2  0
  9 11  1  0
 11 12  1  0
 13 12  1  1
 13 14  1  0
 14  6  1  0
 15 13  1  0
 16 15  2  0
 18 17  1  0
 19 18  1  0
 19 21  1  0
 19 20  1  6
 21 22  1  6
 21 23  1  0
 22 15  1  0
 23 24  1  0
 25 23  2  0
M  END
$$$$
