VQI.pdb
     RDKit          3D

 25 24  0  0  1  0  0  0  0  0999 V2000
   18.8013  -20.3825  -18.1341 C   0  0  0  0  0  0  0  0  0  0  0  0
   19.9056  -19.7514  -17.3380 C   0  0  2  0  0  0  0  0  0  0  0  0
   21.2075  -19.8332  -18.1028 C   0  0  0  0  0  0  0  0  0  0  0  0
   20.0823  -20.3933  -15.9801 C   0  0  2  0  0  0  0  0  0  0  0  0
   18.8618  -20.1907  -15.1932 N   0  0  0  0  0  0  0  0  0  0  0  0
   21.2618  -19.8545  -15.2637 C   0  0  0  0  0  0  0  0  0  0  0  0
   21.2571  -18.6476  -14.9107 O   0  0  0  0  0  0  0  0  0  0  0  0
   25.7828  -23.1318  -12.1692 N   0  0  0  0  0  0  0  0  0  0  0  0
   26.1767  -21.7567  -12.0506 C   0  0  0  0  0  0  0  0  0  0  0  0
   27.1904  -21.5513  -11.3302 O   0  0  0  0  0  0  0  0  0  0  0  0
   25.4289  -20.6798  -12.7359 C   0  0  0  0  0  0  0  0  0  0  0  0
   24.2043  -21.1655  -13.4265 C   0  0  0  0  0  0  0  0  0  0  0  0
   23.4880  -20.1249  -14.2572 C   0  0  2  0  0  0  0  0  0  0  0  0
   22.3743  -20.6828  -14.9813 N   0  0  0  0  0  0  0  0  0  0  0  0
   24.4879  -19.6345  -15.2406 C   0  0  0  0  0  0  0  0  0  0  0  0
   24.7411  -20.3315  -16.2505 O   0  0  0  0  0  0  0  0  0  0  0  0
   25.6578  -14.3259  -15.0021 C   0  0  0  0  0  0  0  0  0  0  0  0
   25.4354  -15.5560  -15.8232 C   0  0  0  0  0  0  0  0  0  0  0  0
   26.6232  -16.5173  -15.7078 C   0  0  2  0  0  0  0  0  0  0  0  0
   27.7219  -16.1413  -16.6550 C   0  0  0  0  0  0  0  0  0  0  0  0
   26.1710  -17.9294  -16.0433 C   0  0  2  0  0  0  0  0  0  0  0  0
   25.1828  -18.4016  -15.0972 N   0  0  0  0  0  0  0  0  0  0  0  0
   27.3638  -18.7956  -15.9457 C   0  0  0  0  0  0  0  0  0  0  0  0
   28.0633  -19.2304  -17.0587 O   0  0  0  0  0  0  0  0  0  0  0  0
   27.7705  -19.1595  -14.8176 O   0  0  0  0  0  0  0  0  0  0  0  0
  2  1  1  6
  3  2  1  0
  4  2  1  0
  4  5  1  1
  6  4  1  0
  6  7  2  0
  8  9  1  0
  9 10  2  0
  9 11  1  0
 11 12  1  0
 13 12  1  1
 13 14  1  0
 14  6  1  0
 15 13  1  0
 16 15  2  0
 18 17  1  0
 19 18  1  0
 19 21  1  0
 19 20  1  6
 21 22  1  1
 21 23  1  0
 22 15  1  0
 23 24  1  0
 25 23  2  0
M  END
$$$$
