VQI.pdb
     RDKit          3D

 25 24  0  0  1  0  0  0  0  0999 V2000
   24.9273  -20.2185   -7.6258 C   0  0  0  0  0  0  0  0  0  0  0  0
   24.8871  -20.6624   -9.0587 C   0  0  2  0  0  0  0  0  0  0  0  0
   25.9246  -19.9117   -9.8627 C   0  0  0  0  0  0  0  0  0  0  0  0
   23.5269  -20.4652   -9.6895 C   0  0  2  0  0  0  0  0  0  0  0  0
   22.5422  -21.2755   -8.9657 N   0  0  0  0  0  0  0  0  0  0  0  0
   23.5308  -20.8106  -11.1302 C   0  0  0  0  0  0  0  0  0  0  0  0
   23.6496  -22.0173  -11.4636 O   0  0  0  0  0  0  0  0  0  0  0  0
   19.7297  -19.1994  -15.5112 N   0  0  0  0  0  0  0  0  0  0  0  0
   19.7372  -20.2645  -14.5491 C   0  0  0  0  0  0  0  0  0  0  0  0
   18.6320  -20.8496  -14.3907 O   0  0  0  0  0  0  0  0  0  0  0  0
   20.9675  -20.6277  -13.8123 C   0  0  0  0  0  0  0  0  0  0  0  0
   22.1521  -19.8257  -14.2197 C   0  0  0  0  0  0  0  0  0  0  0  0
   23.4360  -20.1796  -13.5039 C   0  0  2  0  0  0  0  0  0  0  0  0
   23.4033  -19.8012  -12.1141 N   0  0  0  0  0  0  0  0  0  0  0  0
   24.5034  -19.3960  -14.1778 C   0  0  0  0  0  0  0  0  0  0  0  0
   24.5544  -18.1569  -13.9986 O   0  0  0  0  0  0  0  0  0  0  0  0
   29.2700  -20.1665  -13.0079 C   0  0  0  0  0  0  0  0  0  0  0  0
   28.0095  -19.5786  -13.5578 C   0  0  0  0  0  0  0  0  0  0  0  0
   27.9238  -19.7803  -15.0744 C   0  0  2  0  0  0  0  0  0  0  0  0
   29.0251  -19.0524  -15.7837 C   0  0  0  0  0  0  0  0  0  0  0  0
   26.5960  -19.2448  -15.5859 C   0  0  2  0  0  0  0  0  0  0  0  0
   25.4834  -19.9820  -15.0261 N   0  0  0  0  0  0  0  0  0  0  0  0
   26.5934  -19.4348  -17.0510 C   0  0  0  0  0  0  0  0  0  0  0  0
   27.1930  -18.5394  -17.9205 O   0  0  0  0  0  0  0  0  0  0  0  0
   26.0302  -20.4414  -17.5410 O   0  0  0  0  0  0  0  0  0  0  0  0
  2  1  1  1
  3  2  1  0
  4  2  1  0
  4  5  1  1
  6  4  1  0
  6  7  2  0
  8  9  1  0
  9 10  2  0
  9 11  1  0
 11 12  1  0
 13 12  1  6
 13 14  1  0
 14  6  1  0
 15 13  1  0
 16 15  2  0
 18 17  1  0
 19 18  1  0
 19 21  1  0
 19 20  1  6
 21 22  1  1
 21 23  1  0
 22 15  1  0
 23 24  1  0
 25 23  2  0
M  END
$$$$
