VQI.pdb
     RDKit          3D

 25 24  0  0  1  0  0  0  0  0999 V2000
   19.3569  -24.2802   -8.3784 C   0  0  0  0  0  0  0  0  0  0  0  0
   18.2903  -25.0551   -9.0950 C   0  0  2  0  0  0  0  0  0  0  0  0
   18.4310  -24.8699  -10.5891 C   0  0  0  0  0  0  0  0  0  0  0  0
   16.8958  -24.6523   -8.6704 C   0  0  2  0  0  0  0  0  0  0  0  0
   16.6960  -23.2314   -8.9720 N   0  0  0  0  0  0  0  0  0  0  0  0
   16.6571  -24.9204   -7.2331 C   0  0  0  0  0  0  0  0  0  0  0  0
   16.6687  -23.9556   -6.4267 O   0  0  0  0  0  0  0  0  0  0  0  0
   12.7952  -25.6233   -3.9850 N   0  0  0  0  0  0  0  0  0  0  0  0
   13.4667  -26.5992   -3.1746 C   0  0  0  0  0  0  0  0  0  0  0  0
   13.0930  -26.6438   -1.9717 O   0  0  0  0  0  0  0  0  0  0  0  0
   14.5169  -27.4761   -3.7375 C   0  0  0  0  0  0  0  0  0  0  0  0
   14.8340  -27.1717   -5.1585 C   0  0  0  0  0  0  0  0  0  0  0  0
   16.1431  -26.4473   -5.3766 C   0  0  2  0  0  0  0  0  0  0  0  0
   16.4201  -26.2385   -6.7750 N   0  0  0  0  0  0  0  0  0  0  0  0
   17.1946  -27.3362   -4.8184 C   0  0  0  0  0  0  0  0  0  0  0  0
   17.7997  -28.1202   -5.5860 O   0  0  0  0  0  0  0  0  0  0  0  0
   19.4225  -26.3730    0.3249 C   0  0  0  0  0  0  0  0  0  0  0  0
   19.2995  -26.6513   -1.1394 C   0  0  0  0  0  0  0  0  0  0  0  0
   18.6959  -28.0378   -1.3876 C   0  0  2  0  0  0  0  0  0  0  0  0
   19.5806  -29.1211   -0.8496 C   0  0  0  0  0  0  0  0  0  0  0  0
   18.5287  -28.2612   -2.8821 C   0  0  2  0  0  0  0  0  0  0  0  0
   17.5572  -27.3467   -3.4429 N   0  0  0  0  0  0  0  0  0  0  0  0
   18.0278  -29.6402   -3.0555 C   0  0  0  0  0  0  0  0  0  0  0  0
   18.8401  -30.6826   -3.4688 O   0  0  0  0  0  0  0  0  0  0  0  0
   16.8223  -29.8919   -2.8232 O   0  0  0  0  0  0  0  0  0  0  0  0
  2  1  1  1
  3  2  1  0
  4  2  1  0
  4  5  1  1
  6  4  1  0
  6  7  2  0
  8  9  1  0
  9 10  2  0
  9 11  1  0
 11 12  1  0
 13 12  1  6
 13 14  1  0
 14  6  1  0
 15 13  1  0
 16 15  2  0
 18 17  1  0
 19 18  1  0
 19 21  1  0
 19 20  1  6
 21 22  1  1
 21 23  1  0
 22 15  1  0
 23 24  1  0
 25 23  2  0
M  END
$$$$
