VQI.pdb
     RDKit          3D

 25 24  0  0  1  0  0  0  0  0999 V2000
   19.1378  -10.4819  -16.5405 C   0  0  0  0  0  0  0  0  0  0  0  0
   18.5005  -11.3665  -15.5094 C   0  0  2  0  0  0  0  0  0  0  0  0
   18.3330  -12.7651  -16.0591 C   0  0  0  0  0  0  0  0  0  0  0  0
   17.1574  -10.8463  -15.0485 C   0  0  2  0  0  0  0  0  0  0  0  0
   16.2139  -10.8993  -16.1696 N   0  0  0  0  0  0  0  0  0  0  0  0
   17.2534   -9.4693  -14.5105 C   0  0  0  0  0  0  0  0  0  0  0  0
   17.0600   -8.5001  -15.2881 O   0  0  0  0  0  0  0  0  0  0  0  0
   16.0294   -7.4513   -8.6886 N   0  0  0  0  0  0  0  0  0  0  0  0
   15.1287   -7.6231   -9.7927 C   0  0  0  0  0  0  0  0  0  0  0  0
   13.9054   -7.6290   -9.4888 O   0  0  0  0  0  0  0  0  0  0  0  0
   15.6281   -7.7789  -11.1765 C   0  0  0  0  0  0  0  0  0  0  0  0
   17.1118   -7.7348  -11.2718 C   0  0  0  0  0  0  0  0  0  0  0  0
   17.6638   -7.8917  -12.6707 C   0  0  2  0  0  0  0  0  0  0  0  0
   17.5573   -9.2477  -13.1460 N   0  0  0  0  0  0  0  0  0  0  0  0
   19.1043   -7.5395  -12.5784 C   0  0  0  0  0  0  0  0  0  0  0  0
   19.9309   -8.4310  -12.2753 O   0  0  0  0  0  0  0  0  0  0  0  0
   23.1949   -6.4561  -16.2078 C   0  0  0  0  0  0  0  0  0  0  0  0
   22.7767   -5.9506  -14.8639 C   0  0  0  0  0  0  0  0  0  0  0  0
   21.3373   -6.3667  -14.5426 C   0  0  2  0  0  0  0  0  0  0  0  0
   20.3611   -5.7138  -15.4735 C   0  0  0  0  0  0  0  0  0  0  0  0
   20.9902   -5.9484  -13.1227 C   0  0  2  0  0  0  0  0  0  0  0  0
   19.6035   -6.2293  -12.8182 N   0  0  0  0  0  0  0  0  0  0  0  0
   21.2005   -4.4883  -13.0429 C   0  0  0  0  0  0  0  0  0  0  0  0
   22.4310   -3.9268  -12.7466 O   0  0  0  0  0  0  0  0  0  0  0  0
   20.2365   -3.7146  -13.2490 O   0  0  0  0  0  0  0  0  0  0  0  0
  2  1  1  6
  3  2  1  0
  4  2  1  0
  4  5  1  6
  6  4  1  0
  6  7  2  0
  8  9  1  0
  9 10  2  0
  9 11  1  0
 11 12  1  0
 13 12  1  1
 13 14  1  0
 14  6  1  0
 15 13  1  0
 16 15  2  0
 18 17  1  0
 19 18  1  0
 19 21  1  0
 19 20  1  6
 21 22  1  6
 21 23  1  0
 22 15  1  0
 23 24  1  0
 25 23  2  0
M  END
$$$$
