FIF.pdb
     RDKit          3D

 31 32  0  0  1  0  0  0  0  0999 V2000
   10.7775  -17.2057   18.2773 N   0  0  0  0  0  0  0  0  0  0  0  0
   10.3536  -17.8815   19.4648 C   0  0  1  0  0  0  0  0  0  0  0  0
   11.1286  -19.1655   19.7061 C   0  0  0  0  0  0  0  0  0  0  0  0
   10.5794  -20.2889   18.9045 C   0  0  0  0  0  0  0  0  0  0  0  0
    9.5349  -20.0445   18.0485 C   0  0  0  0  0  0  0  0  0  0  0  0
    9.0451  -21.1063   17.3169 C   0  0  0  0  0  0  0  0  0  0  0  0
    9.5864  -22.3692   17.4416 C   0  0  0  0  0  0  0  0  0  0  0  0
   10.6328  -22.6127   18.2995 C   0  0  0  0  0  0  0  0  0  0  0  0
   11.1272  -21.5458   19.0366 C   0  0  0  0  0  0  0  0  0  0  0  0
   10.4970  -17.0479   20.6847 C   0  0  0  0  0  0  0  0  0  0  0  0
   11.5492  -16.3525   20.7959 O   0  0  0  0  0  0  0  0  0  0  0  0
    7.3449  -13.3533   24.2679 C   0  0  0  0  0  0  0  0  0  0  0  0
    8.5144  -14.2412   24.1312 C   0  0  0  0  0  0  0  0  0  0  0  0
    8.5378  -15.2883   23.0935 C   0  0  2  0  0  0  0  0  0  0  0  0
    7.2974  -16.1880   23.2803 C   0  0  0  0  0  0  0  0  0  0  0  0
    9.7496  -16.1236   22.8952 C   0  0  2  0  0  0  0  0  0  0  0  0
    9.5296  -16.9956   21.7107 N   0  0  0  0  0  0  0  0  0  0  0  0
   10.2124  -16.9198   24.0146 C   0  0  0  0  0  0  0  0  0  0  0  0
    9.8496  -18.1071   24.1635 O   0  0  0  0  0  0  0  0  0  0  0  0
   11.1150  -16.3851   25.0147 N   0  0  0  0  0  0  0  0  0  0  0  0
   11.6693  -17.1754   26.0822 C   0  0  1  0  0  0  0  0  0  0  0  0
   12.3370  -16.3251   27.1279 C   0  0  0  0  0  0  0  0  0  0  0  0
   11.4031  -15.4789   27.9032 C   0  0  0  0  0  0  0  0  0  0  0  0
   11.1368  -15.7645   29.2327 C   0  0  0  0  0  0  0  0  0  0  0  0
   10.2749  -14.9593   29.9435 C   0  0  0  0  0  0  0  0  0  0  0  0
    9.6462  -13.8611   29.4009 C   0  0  0  0  0  0  0  0  0  0  0  0
    9.9101  -13.5781   28.0840 C   0  0  0  0  0  0  0  0  0  0  0  0
   10.7713  -14.3770   27.3624 C   0  0  0  0  0  0  0  0  0  0  0  0
   10.6028  -18.0275   26.6365 C   0  0  0  0  0  0  0  0  0  0  0  0
   10.8854  -19.0687   27.4908 O   0  0  0  0  0  0  0  0  0  0  0  0
    9.3853  -17.8374   26.3486 O   0  0  0  0  0  0  0  0  0  0  0  0
  2  1  1  6
  3  2  1  0
  3  4  1  0
  4  5  2  0
  5  6  1  0
  7  6  2  0
  8  7  1  0
  9  4  1  0
  9  8  2  0
 10  2  1  0
 10 11  2  0
 13 14  1  0
 13 12  1  0
 14 16  1  0
 14 15  1  1
 16 18  1  0
 16 17  1  6
 17 10  1  0
 18 20  1  0
 19 18  2  0
 20 21  1  0
 21 29  1  0
 22 23  1  0
 21 22  1  1
 23 28  2  0
 24 25  2  0
 24 23  1  0
 25 26  1  0
 26 27  2  0
 28 27  1  0
 29 31  2  0
 29 30  1  0
M  END
$$$$
