FIF.pdb
     RDKit          3D

 31 32  0  0  1  0  0  0  0  0999 V2000
    8.0637  -18.7312   17.6694 N   0  0  0  0  0  0  0  0  0  0  0  0
    7.1271  -18.2793   18.6517 C   0  0  1  0  0  0  0  0  0  0  0  0
    6.4325  -19.4300   19.3594 C   0  0  0  0  0  0  0  0  0  0  0  0
    5.4527  -18.9378   20.3614 C   0  0  0  0  0  0  0  0  0  0  0  0
    5.8114  -18.9180   21.6859 C   0  0  0  0  0  0  0  0  0  0  0  0
    4.8816  -18.4561   22.5941 C   0  0  0  0  0  0  0  0  0  0  0  0
    3.6351  -18.0292   22.1849 C   0  0  0  0  0  0  0  0  0  0  0  0
    3.2769  -18.0496   20.8577 C   0  0  0  0  0  0  0  0  0  0  0  0
    4.2109  -18.5139   19.9421 C   0  0  0  0  0  0  0  0  0  0  0  0
    7.7532  -17.4349   19.6998 C   0  0  0  0  0  0  0  0  0  0  0  0
    8.8751  -17.8057   20.1547 O   0  0  0  0  0  0  0  0  0  0  0  0
    7.3799  -11.9530   19.4876 C   0  0  0  0  0  0  0  0  0  0  0  0
    7.8969  -13.3061   19.7642 C   0  0  0  0  0  0  0  0  0  0  0  0
    7.5189  -14.0093   21.0037 C   0  0  2  0  0  0  0  0  0  0  0  0
    7.9844  -13.1615   22.2070 C   0  0  0  0  0  0  0  0  0  0  0  0
    7.8939  -15.4320   21.2056 C   0  0  2  0  0  0  0  0  0  0  0  0
    7.1649  -16.2559   20.2049 N   0  0  0  0  0  0  0  0  0  0  0  0
    7.7195  -15.9957   22.5297 C   0  0  0  0  0  0  0  0  0  0  0  0
    6.5875  -16.0944   23.0516 O   0  0  0  0  0  0  0  0  0  0  0  0
    8.8413  -16.4720   23.3142 N   0  0  0  0  0  0  0  0  0  0  0  0
    8.7005  -17.0483   24.6255 C   0  0  1  0  0  0  0  0  0  0  0  0
    7.7784  -18.2365   24.6254 C   0  0  0  0  0  0  0  0  0  0  0  0
    8.3606  -19.4514   24.0135 C   0  0  0  0  0  0  0  0  0  0  0  0
    9.0612  -19.3691   22.8208 C   0  0  0  0  0  0  0  0  0  0  0  0
    9.6076  -20.5075   22.2713 C   0  0  0  0  0  0  0  0  0  0  0  0
    9.4979  -21.7527   22.8483 C   0  0  0  0  0  0  0  0  0  0  0  0
    8.8040  -21.8342   24.0298 C   0  0  0  0  0  0  0  0  0  0  0  0
    8.2527  -20.7014   24.5895 C   0  0  0  0  0  0  0  0  0  0  0  0
   10.0424  -17.3685   25.1428 C   0  0  0  0  0  0  0  0  0  0  0  0
   11.1787  -17.0777   24.4230 O   0  0  0  0  0  0  0  0  0  0  0  0
   10.2040  -17.9245   26.2680 O   0  0  0  0  0  0  0  0  0  0  0  0
  2  1  1  6
  3  2  1  0
  3  4  1  0
  4  5  2  0
  5  6  1  0
  7  6  2  0
  8  7  1  0
  9  4  1  0
  9  8  2  0
 10  2  1  0
 10 11  2  0
 13 14  1  0
 13 12  1  0
 14 16  1  0
 14 15  1  1
 16 18  1  0
 16 17  1  6
 17 10  1  0
 18 20  1  0
 19 18  2  0
 20 21  1  0
 21 29  1  0
 22 23  1  0
 21 22  1  6
 23 28  2  0
 24 25  2  0
 24 23  1  0
 25 26  1  0
 26 27  2  0
 28 27  1  0
 29 31  2  0
 29 30  1  0
M  END
$$$$
