FIF.pdb
     RDKit          3D

 31 32  0  0  1  0  0  0  0  0999 V2000
    5.0833  -18.6188   22.8673 N   0  0  0  0  0  0  0  0  0  0  0  0
    5.6078  -17.4256   23.4567 C   0  0  1  0  0  0  0  0  0  0  0  0
    5.7266  -17.5320   24.9673 C   0  0  0  0  0  0  0  0  0  0  0  0
    6.2918  -16.2906   25.5554 C   0  0  0  0  0  0  0  0  0  0  0  0
    5.5688  -15.1273   25.4702 C   0  0  0  0  0  0  0  0  0  0  0  0
    6.1183  -13.9901   26.0248 C   0  0  0  0  0  0  0  0  0  0  0  0
    7.3512  -14.0216   26.6431 C   0  0  0  0  0  0  0  0  0  0  0  0
    8.0746  -15.1876   26.7278 C   0  0  0  0  0  0  0  0  0  0  0  0
    7.5236  -16.3331   26.1705 C   0  0  0  0  0  0  0  0  0  0  0  0
    6.9513  -17.0680   22.9363 C   0  0  0  0  0  0  0  0  0  0  0  0
    7.7336  -18.0179   22.6386 O   0  0  0  0  0  0  0  0  0  0  0  0
    7.4139  -12.9756   19.4020 C   0  0  0  0  0  0  0  0  0  0  0  0
    7.5837  -14.2038   20.2003 C   0  0  0  0  0  0  0  0  0  0  0  0
    8.5855  -14.2579   21.2807 C   0  0  2  0  0  0  0  0  0  0  0  0
    9.9608  -13.8796   20.6901 C   0  0  0  0  0  0  0  0  0  0  0  0
    8.7103  -15.4691   22.1309 C   0  0  2  0  0  0  0  0  0  0  0  0
    7.3901  -15.7383   22.7606 N   0  0  0  0  0  0  0  0  0  0  0  0
    9.7501  -15.4820   23.1407 C   0  0  0  0  0  0  0  0  0  0  0  0
   10.1769  -14.4226   23.6497 O   0  0  0  0  0  0  0  0  0  0  0  0
   10.3468  -16.7163   23.6113 N   0  0  0  0  0  0  0  0  0  0  0  0
   10.8233  -16.9009   24.9568 C   0  0  1  0  0  0  0  0  0  0  0  0
    9.7476  -16.6493   25.9775 C   0  0  0  0  0  0  0  0  0  0  0  0
    9.9516  -15.4218   26.7781 C   0  0  0  0  0  0  0  0  0  0  0  0
   10.5759  -15.4860   28.0136 C   0  0  0  0  0  0  0  0  0  0  0  0
   10.7692  -14.3323   28.7403 C   0  0  0  0  0  0  0  0  0  0  0  0
   10.3706  -13.0887   28.3040 C   0  0  0  0  0  0  0  0  0  0  0  0
    9.7523  -13.0252   27.0802 C   0  0  0  0  0  0  0  0  0  0  0  0
    9.5534  -14.1735   26.3436 C   0  0  0  0  0  0  0  0  0  0  0  0
   11.4080  -18.2488   25.0656 C   0  0  0  0  0  0  0  0  0  0  0  0
   11.3057  -19.1618   24.0409 O   0  0  0  0  0  0  0  0  0  0  0  0
   12.0262  -18.6216   26.1050 O   0  0  0  0  0  0  0  0  0  0  0  0
  2  1  1  6
  3  2  1  0
  3  4  1  0
  4  5  2  0
  5  6  1  0
  7  6  2  0
  8  7  1  0
  9  4  1  0
  9  8  2  0
 10  2  1  0
 10 11  2  0
 13 14  1  0
 13 12  1  0
 14 16  1  0
 14 15  1  6
 16 18  1  0
 16 17  1  1
 17 10  1  0
 18 20  1  0
 19 18  2  0
 20 21  1  0
 21 29  1  0
 22 23  1  0
 21 22  1  1
 23 28  2  0
 24 25  2  0
 24 23  1  0
 25 26  1  0
 26 27  2  0
 28 27  1  0
 29 31  2  0
 29 30  1  0
M  END
$$$$
