FIF.pdb
     RDKit          3D

 31 32  0  0  1  0  0  0  0  0999 V2000
    6.0211  -17.2670   20.8970 N   0  0  0  0  0  0  0  0  0  0  0  0
    7.1609  -16.5223   21.3360 C   0  0  1  0  0  0  0  0  0  0  0  0
    6.8122  -15.0856   21.6850 C   0  0  0  0  0  0  0  0  0  0  0  0
    7.4138  -14.1317   20.7183 C   0  0  0  0  0  0  0  0  0  0  0  0
    6.6070  -13.5450   19.7758 C   0  0  0  0  0  0  0  0  0  0  0  0
    7.1927  -12.6636   18.8911 C   0  0  0  0  0  0  0  0  0  0  0  0
    8.5419  -12.3821   18.9519 C   0  0  0  0  0  0  0  0  0  0  0  0
    9.3491  -12.9705   19.8965 C   0  0  0  0  0  0  0  0  0  0  0  0
    8.7620  -13.8577   20.7877 C   0  0  0  0  0  0  0  0  0  0  0  0
    7.8129  -17.1167   22.5298 C   0  0  0  0  0  0  0  0  0  0  0  0
    7.0714  -17.4157   23.5115 O   0  0  0  0  0  0  0  0  0  0  0  0
   10.6083  -21.5044   22.4698 C   0  0  0  0  0  0  0  0  0  0  0  0
    9.8472  -20.3045   22.8641 C   0  0  0  0  0  0  0  0  0  0  0  0
   10.5305  -19.1654   23.5039 C   0  0  2  0  0  0  0  0  0  0  0  0
   11.3072  -19.6891   24.7310 C   0  0  0  0  0  0  0  0  0  0  0  0
    9.7731  -17.9396   23.8637 C   0  0  2  0  0  0  0  0  0  0  0  0
    9.2000  -17.3603   22.6196 N   0  0  0  0  0  0  0  0  0  0  0  0
   10.4681  -16.9110   24.6121 C   0  0  0  0  0  0  0  0  0  0  0  0
   11.3214  -16.1752   24.0700 O   0  0  0  0  0  0  0  0  0  0  0  0
   10.2122  -16.6821   26.0203 N   0  0  0  0  0  0  0  0  0  0  0  0
   10.8917  -15.6763   26.7936 C   0  0  1  0  0  0  0  0  0  0  0  0
   10.5951  -14.2868   26.3000 C   0  0  0  0  0  0  0  0  0  0  0  0
    9.1780  -13.8858   26.4432 C   0  0  0  0  0  0  0  0  0  0  0  0
    8.7632  -13.1582   27.5472 C   0  0  0  0  0  0  0  0  0  0  0  0
    7.4432  -12.7821   27.6588 C   0  0  0  0  0  0  0  0  0  0  0  0
    6.4870  -13.0922   26.7179 C   0  0  0  0  0  0  0  0  0  0  0  0
    6.8980  -13.8128   25.6244 C   0  0  0  0  0  0  0  0  0  0  0  0
    8.2169  -14.1948   25.5017 C   0  0  0  0  0  0  0  0  0  0  0  0
   10.5442  -15.8629   28.2131 C   0  0  0  0  0  0  0  0  0  0  0  0
   11.1622  -15.1377   29.2061 O   0  0  0  0  0  0  0  0  0  0  0  0
    9.6653  -16.6978   28.5764 O   0  0  0  0  0  0  0  0  0  0  0  0
  2  1  1  1
  3  2  1  0
  3  4  1  0
  4  5  2  0
  5  6  1  0
  7  6  2  0
  8  7  1  0
  9  4  1  0
  9  8  2  0
 10  2  1  0
 10 11  2  0
 13 14  1  0
 13 12  1  0
 14 16  1  0
 14 15  1  1
 16 18  1  0
 16 17  1  6
 17 10  1  0
 18 20  1  0
 19 18  2  0
 20 21  1  0
 21 29  1  0
 22 23  1  0
 21 22  1  6
 23 28  2  0
 24 25  2  0
 24 23  1  0
 25 26  1  0
 26 27  2  0
 28 27  1  0
 29 31  2  0
 29 30  1  0
M  END
$$$$
