FIF.pdb
     RDKit          3D

 31 32  0  0  1  0  0  0  0  0999 V2000
    6.4676  -18.2578   19.7465 N   0  0  0  0  0  0  0  0  0  0  0  0
    6.9685  -17.1008   20.4225 C   0  0  1  0  0  0  0  0  0  0  0  0
    6.2254  -15.8357   20.0293 C   0  0  0  0  0  0  0  0  0  0  0  0
    7.1531  -14.6844   19.8866 C   0  0  0  0  0  0  0  0  0  0  0  0
    8.4728  -14.8500   20.2246 C   0  0  0  0  0  0  0  0  0  0  0  0
    9.3111  -13.7639   20.0820 C   0  0  0  0  0  0  0  0  0  0  0  0
    8.8392  -12.5542   19.6161 C   0  0  0  0  0  0  0  0  0  0  0  0
    7.5168  -12.3895   19.2779 C   0  0  0  0  0  0  0  0  0  0  0  0
    6.6714  -13.4809   19.4205 C   0  0  0  0  0  0  0  0  0  0  0  0
    6.8857  -17.2157   21.9001 C   0  0  0  0  0  0  0  0  0  0  0  0
    6.1960  -16.3501   22.5150 O   0  0  0  0  0  0  0  0  0  0  0  0
    5.6152  -21.5707   23.6154 C   0  0  0  0  0  0  0  0  0  0  0  0
    5.7020  -20.1678   24.0618 C   0  0  0  0  0  0  0  0  0  0  0  0
    6.9838  -19.6145   24.5358 C   0  0  2  0  0  0  0  0  0  0  0  0
    7.0314  -19.7423   26.0736 C   0  0  0  0  0  0  0  0  0  0  0  0
    7.4148  -18.2548   24.1226 C   0  0  2  0  0  0  0  0  0  0  0  0
    7.5306  -18.2296   22.6402 N   0  0  0  0  0  0  0  0  0  0  0  0
    8.6209  -17.7171   24.7206 C   0  0  0  0  0  0  0  0  0  0  0  0
    9.7491  -18.1743   24.4350 O   0  0  0  0  0  0  0  0  0  0  0  0
    8.5832  -16.6275   25.6757 N   0  0  0  0  0  0  0  0  0  0  0  0
    9.7525  -16.1256   26.3483 C   0  0  1  0  0  0  0  0  0  0  0  0
    9.9670  -14.6591   26.0918 C   0  0  0  0  0  0  0  0  0  0  0  0
    8.7636  -13.8265   26.3103 C   0  0  0  0  0  0  0  0  0  0  0  0
    7.7056  -13.8748   25.4167 C   0  0  0  0  0  0  0  0  0  0  0  0
    6.5876  -13.1029   25.6418 C   0  0  0  0  0  0  0  0  0  0  0  0
    6.4533  -12.2656   26.7265 C   0  0  0  0  0  0  0  0  0  0  0  0
    7.5013  -12.2178   27.6116 C   0  0  0  0  0  0  0  0  0  0  0  0
    8.6256  -12.9862   27.3969 C   0  0  0  0  0  0  0  0  0  0  0  0
    9.6397  -16.4425   27.7827 C   0  0  0  0  0  0  0  0  0  0  0  0
    8.5126  -17.0382   28.3010 O   0  0  0  0  0  0  0  0  0  0  0  0
   10.5732  -16.1789   28.5954 O   0  0  0  0  0  0  0  0  0  0  0  0
  2  1  1  6
  3  2  1  0
  3  4  1  0
  4  5  2  0
  5  6  1  0
  7  6  2  0
  8  7  1  0
  9  4  1  0
  9  8  2  0
 10  2  1  0
 10 11  2  0
 13 14  1  0
 13 12  1  0
 14 16  1  0
 14 15  1  1
 16 18  1  0
 16 17  1  6
 17 10  1  0
 18 20  1  0
 19 18  2  0
 20 21  1  0
 21 29  1  0
 22 23  1  0
 21 22  1  1
 23 28  2  0
 24 25  2  0
 24 23  1  0
 25 26  1  0
 26 27  2  0
 28 27  1  0
 29 31  2  0
 29 30  1  0
M  END
$$$$
