FIF.pdb
     RDKit          3D

 31 32  0  0  1  0  0  0  0  0999 V2000
    5.4343  -17.8832   20.7716 N   0  0  0  0  0  0  0  0  0  0  0  0
    6.4679  -16.9076   20.9337 C   0  0  1  0  0  0  0  0  0  0  0  0
    5.9138  -15.5079   21.1364 C   0  0  0  0  0  0  0  0  0  0  0  0
    6.9443  -14.4727   20.8667 C   0  0  0  0  0  0  0  0  0  0  0  0
    7.2957  -13.6084   21.8732 C   0  0  0  0  0  0  0  0  0  0  0  0
    8.2550  -12.6574   21.5943 C   0  0  0  0  0  0  0  0  0  0  0  0
    8.8403  -12.5781   20.3474 C   0  0  0  0  0  0  0  0  0  0  0  0
    8.4874  -13.4445   19.3400 C   0  0  0  0  0  0  0  0  0  0  0  0
    7.5223  -14.4023   19.6183 C   0  0  0  0  0  0  0  0  0  0  0  0
    7.3580  -17.1969   22.0859 C   0  0  0  0  0  0  0  0  0  0  0  0
    6.8098  -17.5275   23.1783 O   0  0  0  0  0  0  0  0  0  0  0  0
   10.8981  -20.8747   21.2986 C   0  0  0  0  0  0  0  0  0  0  0  0
    9.9897  -19.9266   21.9697 C   0  0  0  0  0  0  0  0  0  0  0  0
   10.5163  -18.6860   22.5676 C   0  0  2  0  0  0  0  0  0  0  0  0
   11.5879  -19.0647   23.6124 C   0  0  0  0  0  0  0  0  0  0  0  0
    9.5906  -17.6703   23.1303 C   0  0  2  0  0  0  0  0  0  0  0  0
    8.7657  -17.1217   22.0211 N   0  0  0  0  0  0  0  0  0  0  0  0
   10.1651  -16.5852   23.9008 C   0  0  0  0  0  0  0  0  0  0  0  0
   10.8438  -15.6875   23.3559 O   0  0  0  0  0  0  0  0  0  0  0  0
    9.9845  -16.4839   25.3354 N   0  0  0  0  0  0  0  0  0  0  0  0
   10.7052  -15.5487   26.1585 C   0  0  1  0  0  0  0  0  0  0  0  0
   10.3144  -14.1248   25.8722 C   0  0  0  0  0  0  0  0  0  0  0  0
    8.9126  -13.8029   26.2193 C   0  0  0  0  0  0  0  0  0  0  0  0
    7.8658  -14.4394   25.5718 C   0  0  0  0  0  0  0  0  0  0  0  0
    6.5670  -14.1374   25.9158 C   0  0  0  0  0  0  0  0  0  0  0  0
    6.2367  -13.2195   26.8874 C   0  0  0  0  0  0  0  0  0  0  0  0
    7.2736  -12.5891   27.5289 C   0  0  0  0  0  0  0  0  0  0  0  0
    8.5779  -12.8833   27.1931 C   0  0  0  0  0  0  0  0  0  0  0  0
   10.5096  -15.9202   27.5707 C   0  0  0  0  0  0  0  0  0  0  0  0
   11.1233  -15.2264   28.5884 O   0  0  0  0  0  0  0  0  0  0  0  0
    9.7711  -16.8922   27.9044 O   0  0  0  0  0  0  0  0  0  0  0  0
  2  1  1  1
  3  2  1  0
  3  4  1  0
  4  5  2  0
  5  6  1  0
  7  6  2  0
  8  7  1  0
  9  4  1  0
  9  8  2  0
 10  2  1  0
 10 11  2  0
 13 14  1  0
 13 12  1  0
 14 16  1  0
 14 15  1  1
 16 18  1  0
 16 17  1  6
 17 10  1  0
 18 20  1  0
 19 18  2  0
 20 21  1  0
 21 29  1  0
 22 23  1  0
 21 22  1  1
 23 28  2  0
 24 25  2  0
 24 23  1  0
 25 26  1  0
 26 27  2  0
 28 27  1  0
 29 31  2  0
 29 30  1  0
M  END
$$$$
