FIF.pdb
     RDKit          3D

 31 32  0  0  1  0  0  0  0  0999 V2000
    7.4714  -20.5357   21.8109 N   0  0  0  0  0  0  0  0  0  0  0  0
    6.8475  -19.3647   22.3456 C   0  0  1  0  0  0  0  0  0  0  0  0
    6.5035  -19.5150   23.8176 C   0  0  0  0  0  0  0  0  0  0  0  0
    5.6342  -20.6961   24.0532 C   0  0  0  0  0  0  0  0  0  0  0  0
    6.1458  -21.7703   24.7372 C   0  0  0  0  0  0  0  0  0  0  0  0
    5.3160  -22.8532   24.9412 C   0  0  0  0  0  0  0  0  0  0  0  0
    4.0179  -22.8558   24.4740 C   0  0  0  0  0  0  0  0  0  0  0  0
    3.5067  -21.7791   23.7889 C   0  0  0  0  0  0  0  0  0  0  0  0
    4.3397  -20.6884   23.5825 C   0  0  0  0  0  0  0  0  0  0  0  0
    7.6921  -18.1509   22.2154 C   0  0  0  0  0  0  0  0  0  0  0  0
    8.9476  -18.3133   22.1930 O   0  0  0  0  0  0  0  0  0  0  0  0
    7.6817  -12.5013   19.7772 C   0  0  0  0  0  0  0  0  0  0  0  0
    8.2651  -13.4859   20.7073 C   0  0  0  0  0  0  0  0  0  0  0  0
    7.5011  -14.6844   21.0993 C   0  0  2  0  0  0  0  0  0  0  0  0
    6.1149  -14.2345   21.6083 C   0  0  0  0  0  0  0  0  0  0  0  0
    8.0893  -15.6796   22.0316 C   0  0  2  0  0  0  0  0  0  0  0  0
    7.1684  -16.8442   22.1167 N   0  0  0  0  0  0  0  0  0  0  0  0
    8.4420  -15.2314   23.3643 C   0  0  0  0  0  0  0  0  0  0  0  0
    8.0550  -14.1266   23.8036 O   0  0  0  0  0  0  0  0  0  0  0  0
    9.2571  -16.0355   24.2530 N   0  0  0  0  0  0  0  0  0  0  0  0
    9.6096  -15.6276   25.5875 C   0  0  1  0  0  0  0  0  0  0  0  0
    8.4011  -15.2650   26.4062 C   0  0  0  0  0  0  0  0  0  0  0  0
    8.0001  -13.8452   26.2930 C   0  0  0  0  0  0  0  0  0  0  0  0
    8.9327  -12.8365   26.4746 C   0  0  0  0  0  0  0  0  0  0  0  0
    8.5456  -11.5205   26.3532 C   0  0  0  0  0  0  0  0  0  0  0  0
    7.2575  -11.1362   26.0551 C   0  0  0  0  0  0  0  0  0  0  0  0
    6.3339  -12.1354   25.8751 C   0  0  0  0  0  0  0  0  0  0  0  0
    6.7097  -13.4564   25.9940 C   0  0  0  0  0  0  0  0  0  0  0  0
   10.4171  -16.6940   26.2052 C   0  0  0  0  0  0  0  0  0  0  0  0
   10.7360  -17.8434   25.5189 O   0  0  0  0  0  0  0  0  0  0  0  0
   10.8487  -16.5966   27.3908 O   0  0  0  0  0  0  0  0  0  0  0  0
  2  1  1  1
  3  2  1  0
  3  4  1  0
  4  5  2  0
  5  6  1  0
  7  6  2  0
  8  7  1  0
  9  4  1  0
  9  8  2  0
 10  2  1  0
 10 11  2  0
 13 14  1  0
 13 12  1  0
 14 16  1  0
 14 15  1  1
 16 18  1  0
 16 17  1  1
 17 10  1  0
 18 20  1  0
 19 18  2  0
 20 21  1  0
 21 29  1  0
 22 23  1  0
 21 22  1  1
 23 28  2  0
 24 25  2  0
 24 23  1  0
 25 26  1  0
 26 27  2  0
 28 27  1  0
 29 31  2  0
 29 30  1  0
M  END
$$$$
