FIF.pdb
     RDKit          3D

 31 32  0  0  1  0  0  0  0  0999 V2000
    5.5863  -18.1322   24.2998 N   0  0  0  0  0  0  0  0  0  0  0  0
    6.1360  -16.8133   24.3687 C   0  0  1  0  0  0  0  0  0  0  0  0
    6.3921  -16.3687   25.7984 C   0  0  0  0  0  0  0  0  0  0  0  0
    6.4249  -14.8877   25.9079 C   0  0  0  0  0  0  0  0  0  0  0  0
    5.2434  -14.1920   25.8498 C   0  0  0  0  0  0  0  0  0  0  0  0
    5.3040  -12.8179   25.9540 C   0  0  0  0  0  0  0  0  0  0  0  0
    6.5099  -12.1664   26.1110 C   0  0  0  0  0  0  0  0  0  0  0  0
    7.6929  -12.8645   26.1690 C   0  0  0  0  0  0  0  0  0  0  0  0
    7.6343  -14.2472   26.0644 C   0  0  0  0  0  0  0  0  0  0  0  0
    7.4193  -16.6846   23.6338 C   0  0  0  0  0  0  0  0  0  0  0  0
    8.1192  -17.7304   23.4941 O   0  0  0  0  0  0  0  0  0  0  0  0
    7.0038  -12.9544   19.6477 C   0  0  0  0  0  0  0  0  0  0  0  0
    7.3446  -14.2001   20.3595 C   0  0  0  0  0  0  0  0  0  0  0  0
    8.6112  -14.3091   21.1063 C   0  0  2  0  0  0  0  0  0  0  0  0
    9.7796  -14.1113   20.1169 C   0  0  0  0  0  0  0  0  0  0  0  0
    8.8723  -15.4835   21.9770 C   0  0  2  0  0  0  0  0  0  0  0  0
    7.8883  -15.4689   23.0920 N   0  0  0  0  0  0  0  0  0  0  0  0
   10.2124  -15.6494   22.5042 C   0  0  0  0  0  0  0  0  0  0  0  0
   11.1548  -14.9178   22.1300 O   0  0  0  0  0  0  0  0  0  0  0  0
   10.5292  -16.6663   23.4873 N   0  0  0  0  0  0  0  0  0  0  0  0
   10.9934  -16.3638   24.8157 C   0  0  1  0  0  0  0  0  0  0  0  0
   10.0278  -15.4889   25.5669 C   0  0  0  0  0  0  0  0  0  0  0  0
   10.4055  -15.2465   26.9769 C   0  0  0  0  0  0  0  0  0  0  0  0
   10.2780  -16.2536   27.9202 C   0  0  0  0  0  0  0  0  0  0  0  0
   10.6460  -16.0152   29.2256 C   0  0  0  0  0  0  0  0  0  0  0  0
   11.1449  -14.8083   29.6617 C   0  0  0  0  0  0  0  0  0  0  0  0
   11.2712  -13.8108   28.7273 C   0  0  0  0  0  0  0  0  0  0  0  0
   10.9062  -14.0378   27.4174 C   0  0  0  0  0  0  0  0  0  0  0  0
   11.2754  -17.6307   25.5129 C   0  0  0  0  0  0  0  0  0  0  0  0
   10.7346  -18.8221   25.0863 O   0  0  0  0  0  0  0  0  0  0  0  0
   12.0246  -17.6742   26.5319 O   0  0  0  0  0  0  0  0  0  0  0  0
  2  1  1  1
  3  2  1  0
  3  4  1  0
  4  5  2  0
  5  6  1  0
  7  6  2  0
  8  7  1  0
  9  4  1  0
  9  8  2  0
 10  2  1  0
 10 11  2  0
 13 14  1  0
 13 12  1  0
 14 16  1  0
 14 15  1  6
 16 18  1  0
 16 17  1  1
 17 10  1  0
 18 20  1  0
 19 18  2  0
 20 21  1  0
 21 29  1  0
 22 23  1  0
 21 22  1  1
 23 28  2  0
 24 25  2  0
 24 23  1  0
 25 26  1  0
 26 27  2  0
 28 27  1  0
 29 31  2  0
 29 30  1  0
M  END
$$$$
