FIF.pdb
     RDKit          3D

 31 32  0  0  1  0  0  0  0  0999 V2000
    5.9052  -19.2331   19.7705 N   0  0  0  0  0  0  0  0  0  0  0  0
    5.5546  -18.1031   20.5747 C   0  0  1  0  0  0  0  0  0  0  0  0
    4.8780  -18.5066   21.8735 C   0  0  0  0  0  0  0  0  0  0  0  0
    3.4852  -18.9666   21.6389 C   0  0  0  0  0  0  0  0  0  0  0  0
    2.9842  -18.9402   20.3616 C   0  0  0  0  0  0  0  0  0  0  0  0
    1.6880  -19.3730   20.1735 C   0  0  0  0  0  0  0  0  0  0  0  0
    0.9228  -19.8167   21.2322 C   0  0  0  0  0  0  0  0  0  0  0  0
    1.4260  -19.8427   22.5114 C   0  0  0  0  0  0  0  0  0  0  0  0
    2.7299  -19.4077   22.7031 C   0  0  0  0  0  0  0  0  0  0  0  0
    6.7262  -17.2652   20.9336 C   0  0  0  0  0  0  0  0  0  0  0  0
    7.8453  -17.8459   21.0496 O   0  0  0  0  0  0  0  0  0  0  0  0
    7.1635  -12.1915   18.9661 C   0  0  0  0  0  0  0  0  0  0  0  0
    7.4533  -13.5394   19.4896 C   0  0  0  0  0  0  0  0  0  0  0  0
    7.7446  -13.7360   20.9215 C   0  0  2  0  0  0  0  0  0  0  0  0
    8.9801  -12.8865   21.2891 C   0  0  0  0  0  0  0  0  0  0  0  0
    7.8815  -15.1052   21.4801 C   0  0  2  0  0  0  0  0  0  0  0  0
    6.6515  -15.8724   21.1482 N   0  0  0  0  0  0  0  0  0  0  0  0
    8.1755  -15.2322   22.8938 C   0  0  0  0  0  0  0  0  0  0  0  0
    7.5464  -14.5750   23.7516 O   0  0  0  0  0  0  0  0  0  0  0  0
    9.2083  -16.1226   23.3853 N   0  0  0  0  0  0  0  0  0  0  0  0
    9.7233  -16.0703   24.7283 C   0  0  1  0  0  0  0  0  0  0  0  0
    8.6248  -15.9974   25.7531 C   0  0  0  0  0  0  0  0  0  0  0  0
    7.5335  -16.9731   25.5374 C   0  0  0  0  0  0  0  0  0  0  0  0
    7.8066  -18.3307   25.4857 C   0  0  0  0  0  0  0  0  0  0  0  0
    6.7775  -19.2262   25.2970 C   0  0  0  0  0  0  0  0  0  0  0  0
    5.4620  -18.8462   25.1531 C   0  0  0  0  0  0  0  0  0  0  0  0
    5.1916  -17.5015   25.2045 C   0  0  0  0  0  0  0  0  0  0  0  0
    6.2135  -16.5956   25.3930 C   0  0  0  0  0  0  0  0  0  0  0  0
   10.6171  -17.2236   24.9322 C   0  0  0  0  0  0  0  0  0  0  0  0
   10.7839  -18.1846   23.9613 O   0  0  0  0  0  0  0  0  0  0  0  0
   11.2659  -17.3777   26.0077 O   0  0  0  0  0  0  0  0  0  0  0  0
  2  1  1  1
  3  2  1  0
  3  4  1  0
  4  5  2  0
  5  6  1  0
  7  6  2  0
  8  7  1  0
  9  4  1  0
  9  8  2  0
 10  2  1  0
 10 11  2  0
 13 14  1  0
 13 12  1  0
 14 16  1  0
 14 15  1  6
 16 18  1  0
 16 17  1  1
 17 10  1  0
 18 20  1  0
 19 18  2  0
 20 21  1  0
 21 29  1  0
 22 23  1  0
 21 22  1  1
 23 28  2  0
 24 25  2  0
 24 23  1  0
 25 26  1  0
 26 27  2  0
 28 27  1  0
 29 31  2  0
 29 30  1  0
M  END
$$$$
