FIF.pdb
     RDKit          3D

 31 32  0  0  1  0  0  0  0  0999 V2000
    5.2150  -17.6304   24.7365 N   0  0  0  0  0  0  0  0  0  0  0  0
    6.0914  -16.5136   24.9129 C   0  0  1  0  0  0  0  0  0  0  0  0
    6.5152  -16.3355   26.3607 C   0  0  0  0  0  0  0  0  0  0  0  0
    6.9957  -14.9539   26.6188 C   0  0  0  0  0  0  0  0  0  0  0  0
    6.0978  -14.0083   27.0466 C   0  0  0  0  0  0  0  0  0  0  0  0
    6.5720  -12.7339   27.2782 C   0  0  0  0  0  0  0  0  0  0  0  0
    7.9019  -12.4213   27.0863 C   0  0  0  0  0  0  0  0  0  0  0  0
    8.8005  -13.3694   26.6577 C   0  0  0  0  0  0  0  0  0  0  0  0
    8.3257  -14.6524   26.4241 C   0  0  0  0  0  0  0  0  0  0  0  0
    7.3314  -16.6206   24.1040 C   0  0  0  0  0  0  0  0  0  0  0  0
    7.7992  -17.7799   23.9035 O   0  0  0  0  0  0  0  0  0  0  0  0
    7.1029  -13.1178   20.0537 C   0  0  0  0  0  0  0  0  0  0  0  0
    7.3624  -14.3287   20.8545 C   0  0  0  0  0  0  0  0  0  0  0  0
    8.6915  -14.5574   21.4504 C   0  0  2  0  0  0  0  0  0  0  0  0
    9.7343  -14.6051   20.3131 C   0  0  0  0  0  0  0  0  0  0  0  0
    8.9098  -15.6854   22.3913 C   0  0  2  0  0  0  0  0  0  0  0  0
    8.0030  -15.5067   23.5564 N   0  0  0  0  0  0  0  0  0  0  0  0
   10.2624  -15.9292   22.8521 C   0  0  0  0  0  0  0  0  0  0  0  0
   11.1592  -16.3088   22.0678 O   0  0  0  0  0  0  0  0  0  0  0  0
   10.6448  -15.7468   24.2382 N   0  0  0  0  0  0  0  0  0  0  0  0
   12.0054  -15.8309   24.7003 C   0  0  1  0  0  0  0  0  0  0  0  0
   12.3438  -14.7293   25.6668 C   0  0  0  0  0  0  0  0  0  0  0  0
   11.3365  -14.5318   26.7325 C   0  0  0  0  0  0  0  0  0  0  0  0
   11.1788  -15.4779   27.7326 C   0  0  0  0  0  0  0  0  0  0  0  0
   10.2454  -15.2725   28.7241 C   0  0  0  0  0  0  0  0  0  0  0  0
    9.4396  -14.1577   28.7841 C   0  0  0  0  0  0  0  0  0  0  0  0
    9.5959  -13.2205   27.7935 C   0  0  0  0  0  0  0  0  0  0  0  0
   10.5271  -13.4152   26.7958 C   0  0  0  0  0  0  0  0  0  0  0  0
   12.2255  -17.1732   25.2663 C   0  0  0  0  0  0  0  0  0  0  0  0
   11.2134  -18.1038   25.3247 O   0  0  0  0  0  0  0  0  0  0  0  0
   13.3527  -17.5237   25.7225 O   0  0  0  0  0  0  0  0  0  0  0  0
  2  1  1  1
  3  2  1  0
  3  4  1  0
  4  5  2  0
  5  6  1  0
  7  6  2  0
  8  7  1  0
  9  4  1  0
  9  8  2  0
 10  2  1  0
 10 11  2  0
 13 14  1  0
 13 12  1  0
 14 16  1  0
 14 15  1  6
 16 18  1  0
 16 17  1  1
 17 10  1  0
 18 20  1  0
 19 18  2  0
 20 21  1  0
 21 29  1  0
 22 23  1  0
 21 22  1  1
 23 28  2  0
 24 25  2  0
 24 23  1  0
 25 26  1  0
 26 27  2  0
 28 27  1  0
 29 31  2  0
 29 30  1  0
M  END
$$$$
