FIF.pdb
     RDKit          3D

 31 32  0  0  1  0  0  0  0  0999 V2000
    5.6734  -19.4574   20.5924 N   0  0  0  0  0  0  0  0  0  0  0  0
    5.5058  -18.1488   21.1454 C   0  0  1  0  0  0  0  0  0  0  0  0
    4.8012  -18.1766   22.4909 C   0  0  0  0  0  0  0  0  0  0  0  0
    3.4801  -18.8490   22.3971 C   0  0  0  0  0  0  0  0  0  0  0  0
    3.2378  -19.9478   23.1828 C   0  0  0  0  0  0  0  0  0  0  0  0
    2.0025  -20.5520   23.0747 C   0  0  0  0  0  0  0  0  0  0  0  0
    1.0448  -20.0685   22.2074 C   0  0  0  0  0  0  0  0  0  0  0  0
    1.2887  -18.9676   21.4208 C   0  0  0  0  0  0  0  0  0  0  0  0
    2.5310  -18.3580   21.5278 C   0  0  0  0  0  0  0  0  0  0  0  0
    6.7932  -17.4361   21.3403 C   0  0  0  0  0  0  0  0  0  0  0  0
    7.8582  -18.1072   21.2040 O   0  0  0  0  0  0  0  0  0  0  0  0
    7.1268  -12.3182   19.5604 C   0  0  0  0  0  0  0  0  0  0  0  0
    7.4694  -13.7031   19.9339 C   0  0  0  0  0  0  0  0  0  0  0  0
    8.0499  -13.9961   21.2571 C   0  0  2  0  0  0  0  0  0  0  0  0
    9.3895  -13.2389   21.3807 C   0  0  0  0  0  0  0  0  0  0  0  0
    8.2129  -15.4002   21.7127 C   0  0  2  0  0  0  0  0  0  0  0  0
    6.8838  -16.0659   21.6655 N   0  0  0  0  0  0  0  0  0  0  0  0
    8.8309  -15.6242   23.0046 C   0  0  0  0  0  0  0  0  0  0  0  0
   10.0372  -15.3621   23.2038 O   0  0  0  0  0  0  0  0  0  0  0  0
    8.0878  -16.1607   24.1275 N   0  0  0  0  0  0  0  0  0  0  0  0
    8.6502  -16.3225   25.4424 C   0  0  1  0  0  0  0  0  0  0  0  0
    7.6897  -15.9092   26.5235 C   0  0  0  0  0  0  0  0  0  0  0  0
    7.4138  -14.4560   26.5615 C   0  0  0  0  0  0  0  0  0  0  0  0
    8.3903  -13.5676   26.9828 C   0  0  0  0  0  0  0  0  0  0  0  0
    8.1214  -12.2172   27.0001 C   0  0  0  0  0  0  0  0  0  0  0  0
    6.9125  -11.6824   26.6152 C   0  0  0  0  0  0  0  0  0  0  0  0
    5.9453  -12.5624   26.1978 C   0  0  0  0  0  0  0  0  0  0  0  0
    6.2030  -13.9166   26.1761 C   0  0  0  0  0  0  0  0  0  0  0  0
    9.1069  -17.7157   25.5881 C   0  0  0  0  0  0  0  0  0  0  0  0
    9.7951  -18.1338   26.7041 O   0  0  0  0  0  0  0  0  0  0  0  0
    8.8862  -18.5828   24.6933 O   0  0  0  0  0  0  0  0  0  0  0  0
  2  1  1  1
  3  2  1  0
  3  4  1  0
  4  5  2  0
  5  6  1  0
  7  6  2  0
  8  7  1  0
  9  4  1  0
  9  8  2  0
 10  2  1  0
 10 11  2  0
 13 14  1  0
 13 12  1  0
 14 16  1  0
 14 15  1  6
 16 18  1  0
 16 17  1  1
 17 10  1  0
 18 20  1  0
 19 18  2  0
 20 21  1  0
 21 29  1  0
 22 23  1  0
 21 22  1  1
 23 28  2  0
 24 25  2  0
 24 23  1  0
 25 26  1  0
 26 27  2  0
 28 27  1  0
 29 31  2  0
 29 30  1  0
M  END
$$$$
