FIF.pdb
     RDKit          3D

 31 32  0  0  1  0  0  0  0  0999 V2000
    6.8620  -17.0986   20.9467 N   0  0  0  0  0  0  0  0  0  0  0  0
    7.8638  -16.3728   21.6649 C   0  0  1  0  0  0  0  0  0  0  0  0
    7.3736  -15.0090   22.1202 C   0  0  0  0  0  0  0  0  0  0  0  0
    7.5649  -13.9835   21.0628 C   0  0  0  0  0  0  0  0  0  0  0  0
    6.4760  -13.2739   20.6222 C   0  0  0  0  0  0  0  0  0  0  0  0
    6.6832  -12.3283   19.6395 C   0  0  0  0  0  0  0  0  0  0  0  0
    7.9409  -12.1042   19.1184 C   0  0  0  0  0  0  0  0  0  0  0  0
    9.0309  -12.8157   19.5607 C   0  0  0  0  0  0  0  0  0  0  0  0
    8.8248  -13.7677   20.5494 C   0  0  0  0  0  0  0  0  0  0  0  0
    8.3418  -17.0915   22.8726 C   0  0  0  0  0  0  0  0  0  0  0  0
    7.4832  -17.7290   23.5504 O   0  0  0  0  0  0  0  0  0  0  0  0
   11.4977  -21.0167   22.5754 C   0  0  0  0  0  0  0  0  0  0  0  0
   10.5772  -19.9573   23.0284 C   0  0  0  0  0  0  0  0  0  0  0  0
   11.0138  -18.9702   24.0329 C   0  0  2  0  0  0  0  0  0  0  0  0
   11.5762  -19.7313   25.2525 C   0  0  0  0  0  0  0  0  0  0  0  0
   10.0919  -17.8959   24.4818 C   0  0  2  0  0  0  0  0  0  0  0  0
    9.6887  -17.0971   23.2939 N   0  0  0  0  0  0  0  0  0  0  0  0
   10.5458  -17.0135   25.5384 C   0  0  0  0  0  0  0  0  0  0  0  0
   11.4323  -16.1555   25.3347 O   0  0  0  0  0  0  0  0  0  0  0  0
    9.9995  -17.0786   26.8794 N   0  0  0  0  0  0  0  0  0  0  0  0
   10.4680  -16.2570   27.9643 C   0  0  1  0  0  0  0  0  0  0  0  0
    9.3673  -15.4205   28.5568 C   0  0  0  0  0  0  0  0  0  0  0  0
    8.7586  -14.4640   27.6061 C   0  0  0  0  0  0  0  0  0  0  0  0
    7.6035  -14.7985   26.9175 C   0  0  0  0  0  0  0  0  0  0  0  0
    7.0429  -13.8917   26.0459 C   0  0  0  0  0  0  0  0  0  0  0  0
    7.5725  -12.6427   25.8107 C   0  0  0  0  0  0  0  0  0  0  0  0
    8.7166  -12.3114   26.4929 C   0  0  0  0  0  0  0  0  0  0  0  0
    9.2869  -13.2109   27.3682 C   0  0  0  0  0  0  0  0  0  0  0  0
   11.1233  -17.1239   28.9590 C   0  0  0  0  0  0  0  0  0  0  0  0
   11.9467  -16.6063   29.9327 O   0  0  0  0  0  0  0  0  0  0  0  0
   10.9567  -18.3784   28.9575 O   0  0  0  0  0  0  0  0  0  0  0  0
  2  1  1  1
  3  2  1  0
  3  4  1  0
  4  5  2  0
  5  6  1  0
  7  6  2  0
  8  7  1  0
  9  4  1  0
  9  8  2  0
 10  2  1  0
 10 11  2  0
 13 14  1  0
 13 12  1  0
 14 16  1  0
 14 15  1  1
 16 18  1  0
 16 17  1  6
 17 10  1  0
 18 20  1  0
 19 18  2  0
 20 21  1  0
 21 29  1  0
 22 23  1  0
 21 22  1  1
 23 28  2  0
 24 25  2  0
 24 23  1  0
 25 26  1  0
 26 27  2  0
 28 27  1  0
 29 31  2  0
 29 30  1  0
M  END
$$$$
