CNT.pdb
     RDKit          3D

 22 21  0  0  1  0  0  0  0  0999 V2000
    7.2413  -15.4494   18.4824 N   0  0  0  0  0  0  0  0  0  0  0  0
    8.2365  -14.8014   19.3014 C   0  0  1  0  0  0  0  0  0  0  0  0
    7.7855  -13.4414   19.7914 C   0  0  0  0  0  0  0  0  0  0  0  0
    7.7915  -12.3389   18.3379 S   0  0  0  0  0  0  0  0  0  0  0  0
    8.6752  -15.6952   20.3792 C   0  0  0  0  0  0  0  0  0  0  0  0
    7.8355  -16.4299   20.9533 O   0  0  0  0  0  0  0  0  0  0  0  0
   13.3283  -18.1065   23.5449 N   0  0  0  0  0  0  0  0  0  0  0  0
   12.0873  -18.1048   22.8786 C   0  0  0  0  0  0  0  0  0  0  0  0
   11.1671  -18.8901   23.2913 O   0  0  0  0  0  0  0  0  0  0  0  0
   11.8104  -17.2103   21.7090 C   0  0  0  0  0  0  0  0  0  0  0  0
   10.4276  -16.6963   21.8850 C   0  0  2  0  0  0  0  0  0  0  0  0
   10.0287  -15.7917   20.8364 N   0  0  0  0  0  0  0  0  0  0  0  0
   10.1586  -16.0933   23.2229 C   0  0  0  0  0  0  0  0  0  0  0  0
   10.8508  -15.1223   23.6223 O   0  0  0  0  0  0  0  0  0  0  0  0
    7.6379  -14.0133   24.6821 C   0  0  0  0  0  0  0  0  0  0  0  0
    7.6257  -15.2862   25.5043 C   0  0  1  0  0  0  0  0  0  0  0  0
    6.6427  -16.1674   25.0711 O   0  0  0  0  0  0  0  0  0  0  0  0
    8.9432  -15.9964   25.3915 C   0  0  2  0  0  0  0  0  0  0  0  0
    9.1441  -16.5809   24.0652 N   0  0  0  0  0  0  0  0  0  0  0  0
    9.1340  -17.0220   26.4415 C   0  0  0  0  0  0  0  0  0  0  0  0
    9.1566  -16.6661   27.7628 O   0  0  0  0  0  0  0  0  0  0  0  0
    9.2757  -18.2144   26.1133 O   0  0  0  0  0  0  0  0  0  0  0  0
  2  1  1  1
  2  3  1  0
  2  5  1  0
  3  4  1  0
  5  6  2  0
  5 12  1  0
  7  8  1  0
  8 10  1  0
  9  8  2  0
 11 10  1  1
 11 13  1  0
 12 11  1  0
 13 19  1  0
 13 14  2  0
 16 15  1  6
 17 16  1  0
 18 16  1  0
 18 20  1  0
 18 19  1  6
 20 21  1  0
 22 20  2  0
M  END
$$$$
