CNT.pdb
     RDKit          3D

 22 21  0  0  1  0  0  0  0  0999 V2000
    7.5132  -16.0941   18.5626 N   0  0  0  0  0  0  0  0  0  0  0  0
    8.3557  -15.6374   19.6409 C   0  0  1  0  0  0  0  0  0  0  0  0
    8.8646  -14.2284   19.4197 C   0  0  0  0  0  0  0  0  0  0  0  0
    7.4066  -13.1340   19.4902 S   0  0  0  0  0  0  0  0  0  0  0  0
    7.6815  -15.8196   20.9313 C   0  0  0  0  0  0  0  0  0  0  0  0
    6.4633  -16.1199   20.9553 O   0  0  0  0  0  0  0  0  0  0  0  0
    6.1194  -17.6420   25.2548 N   0  0  0  0  0  0  0  0  0  0  0  0
    7.1606  -18.2870   24.5592 C   0  0  0  0  0  0  0  0  0  0  0  0
    7.6731  -19.3444   25.0624 O   0  0  0  0  0  0  0  0  0  0  0  0
    7.6808  -17.7782   23.2494 C   0  0  0  0  0  0  0  0  0  0  0  0
    7.8372  -16.3081   23.3966 C   0  0  2  0  0  0  0  0  0  0  0  0
    8.3301  -15.6748   22.1995 N   0  0  0  0  0  0  0  0  0  0  0  0
    8.6456  -15.8883   24.5782 C   0  0  0  0  0  0  0  0  0  0  0  0
    9.9015  -15.9049   24.5151 O   0  0  0  0  0  0  0  0  0  0  0  0
    8.8264  -12.7535   28.3018 C   0  0  0  0  0  0  0  0  0  0  0  0
    7.9780  -13.5975   27.3723 C   0  0  1  0  0  0  0  0  0  0  0  0
    7.4434  -12.8407   26.3369 O   0  0  0  0  0  0  0  0  0  0  0  0
    8.8044  -14.6850   26.7498 C   0  0  2  0  0  0  0  0  0  0  0  0
    8.0431  -15.4698   25.7775 N   0  0  0  0  0  0  0  0  0  0  0  0
    9.4316  -15.5744   27.7529 C   0  0  0  0  0  0  0  0  0  0  0  0
    9.1221  -16.9071   27.7884 O   0  0  0  0  0  0  0  0  0  0  0  0
   10.2444  -15.1001   28.5679 O   0  0  0  0  0  0  0  0  0  0  0  0
  2  1  1  6
  2  3  1  0
  2  5  1  0
  3  4  1  0
  5  6  2  0
  5 12  1  0
  7  8  1  0
  8 10  1  0
  9  8  2  0
 11 10  1  6
 11 13  1  0
 12 11  1  0
 13 19  1  0
 13 14  2  0
 16 15  1  1
 17 16  1  0
 18 16  1  0
 18 20  1  0
 18 19  1  6
 20 21  1  0
 22 20  2  0
M  END
$$$$
