CNT.pdb
     RDKit          3D

 22 21  0  0  1  0  0  0  0  0999 V2000
    7.4007  -15.4316   19.4587 N   0  0  0  0  0  0  0  0  0  0  0  0
    8.3127  -14.7260   20.3254 C   0  0  1  0  0  0  0  0  0  0  0  0
    7.8014  -13.3528   20.7075 C   0  0  0  0  0  0  0  0  0  0  0  0
    7.8944  -12.3278   19.2011 S   0  0  0  0  0  0  0  0  0  0  0  0
    8.6712  -15.5582   21.4796 C   0  0  0  0  0  0  0  0  0  0  0  0
    7.7767  -16.2027   22.0787 O   0  0  0  0  0  0  0  0  0  0  0  0
   12.9580  -18.3220   24.7543 N   0  0  0  0  0  0  0  0  0  0  0  0
   11.6803  -18.1660   24.1821 C   0  0  0  0  0  0  0  0  0  0  0  0
   10.6730  -18.6789   24.7788 O   0  0  0  0  0  0  0  0  0  0  0  0
   11.4645  -17.4152   22.9036 C   0  0  0  0  0  0  0  0  0  0  0  0
   10.3165  -16.5013   23.1361 C   0  0  2  0  0  0  0  0  0  0  0  0
   10.0039  -15.6910   21.9860 N   0  0  0  0  0  0  0  0  0  0  0  0
   10.4425  -15.6492   24.3543 C   0  0  0  0  0  0  0  0  0  0  0  0
   11.1987  -14.6446   24.3399 O   0  0  0  0  0  0  0  0  0  0  0  0
    8.8480  -13.2631   28.0720 C   0  0  0  0  0  0  0  0  0  0  0  0
    8.6398  -14.2164   26.9126 C   0  0  1  0  0  0  0  0  0  0  0  0
    8.3969  -13.5356   25.7260 O   0  0  0  0  0  0  0  0  0  0  0  0
    9.8629  -15.0603   26.7009 C   0  0  2  0  0  0  0  0  0  0  0  0
    9.7355  -15.9356   25.5353 N   0  0  0  0  0  0  0  0  0  0  0  0
   10.2314  -15.8472   27.8991 C   0  0  0  0  0  0  0  0  0  0  0  0
   10.6566  -15.2187   29.0381 O   0  0  0  0  0  0  0  0  0  0  0  0
   10.1532  -17.0892   27.8631 O   0  0  0  0  0  0  0  0  0  0  0  0
  2  1  1  1
  2  3  1  0
  2  5  1  0
  3  4  1  0
  5  6  2  0
  5 12  1  0
  7  8  1  0
  8 10  1  0
  9  8  2  0
 11 10  1  6
 11 13  1  0
 12 11  1  0
 13 19  1  0
 13 14  2  0
 16 15  1  1
 17 16  1  0
 18 16  1  0
 18 20  1  0
 18 19  1  6
 20 21  1  0
 22 20  2  0
M  END
$$$$
