CNT.pdb
     RDKit          3D

 22 21  0  0  1  0  0  0  0  0999 V2000
    7.8448  -15.2170   18.3340 N   0  0  0  0  0  0  0  0  0  0  0  0
    8.2022  -14.3999   19.4679 C   0  0  1  0  0  0  0  0  0  0  0  0
    7.5604  -13.0293   19.4178 C   0  0  0  0  0  0  0  0  0  0  0  0
    8.3807  -12.1222   18.0641 S   0  0  0  0  0  0  0  0  0  0  0  0
    7.9458  -15.1201   20.7204 C   0  0  0  0  0  0  0  0  0  0  0  0
    6.8591  -15.7289   20.8721 O   0  0  0  0  0  0  0  0  0  0  0  0
   11.4361  -17.2951   21.8367 N   0  0  0  0  0  0  0  0  0  0  0  0
   10.7102  -16.9618   22.9969 C   0  0  0  0  0  0  0  0  0  0  0  0
   11.3312  -16.4268   23.9778 O   0  0  0  0  0  0  0  0  0  0  0  0
    9.2370  -17.2080   23.1151 C   0  0  0  0  0  0  0  0  0  0  0  0
    8.5765  -15.8795   23.0368 C   0  0  2  0  0  0  0  0  0  0  0  0
    8.8705  -15.1793   21.8120 N   0  0  0  0  0  0  0  0  0  0  0  0
    8.8242  -14.9965   24.2136 C   0  0  0  0  0  0  0  0  0  0  0  0
    9.8492  -14.2686   24.2451 O   0  0  0  0  0  0  0  0  0  0  0  0
    6.7885  -12.0752   25.6607 C   0  0  0  0  0  0  0  0  0  0  0  0
    6.9439  -13.1767   26.6896 C   0  0  1  0  0  0  0  0  0  0  0  0
    5.8530  -14.0372   26.6886 O   0  0  0  0  0  0  0  0  0  0  0  0
    8.1633  -14.0011   26.3957 C   0  0  2  0  0  0  0  0  0  0  0  0
    7.9390  -14.9501   25.3048 N   0  0  0  0  0  0  0  0  0  0  0  0
    8.6833  -14.7025   27.5908 C   0  0  0  0  0  0  0  0  0  0  0  0
    9.0385  -13.9978   28.7090 O   0  0  0  0  0  0  0  0  0  0  0  0
    8.7973  -15.9420   27.5714 O   0  0  0  0  0  0  0  0  0  0  0  0
  2  1  1  6
  2  3  1  0
  2  5  1  0
  3  4  1  0
  5  6  2  0
  5 12  1  0
  7  8  1  0
  8 10  1  0
  9  8  2  0
 11 10  1  1
 11 13  1  0
 12 11  1  0
 13 19  1  0
 13 14  2  0
 16 15  1  6
 17 16  1  0
 18 16  1  0
 18 20  1  0
 18 19  1  6
 20 21  1  0
 22 20  2  0
M  END
$$$$
