CNT.pdb
     RDKit          3D

 22 21  0  0  1  0  0  0  0  0999 V2000
    6.6740  -15.1035   21.1574 N   0  0  0  0  0  0  0  0  0  0  0  0
    7.9864  -14.7418   21.6348 C   0  0  1  0  0  0  0  0  0  0  0  0
    8.0989  -13.2658   21.9536 C   0  0  0  0  0  0  0  0  0  0  0  0
    7.2076  -13.0055   23.5240 S   0  0  0  0  0  0  0  0  0  0  0  0
    8.3857  -15.6121   22.7467 C   0  0  0  0  0  0  0  0  0  0  0  0
    7.5067  -16.0902   23.5040 O   0  0  0  0  0  0  0  0  0  0  0  0
   12.4204  -17.1668   21.6744 N   0  0  0  0  0  0  0  0  0  0  0  0
   12.2125  -17.3138   23.0597 C   0  0  0  0  0  0  0  0  0  0  0  0
   13.0951  -16.8599   23.8652 O   0  0  0  0  0  0  0  0  0  0  0  0
   10.9908  -17.9779   23.6176 C   0  0  0  0  0  0  0  0  0  0  0  0
   10.0924  -16.8910   24.0853 C   0  0  2  0  0  0  0  0  0  0  0  0
    9.7425  -15.9643   23.0386 N   0  0  0  0  0  0  0  0  0  0  0  0
   10.5851  -16.1570   25.2872 C   0  0  0  0  0  0  0  0  0  0  0  0
   11.2409  -15.0933   25.1456 O   0  0  0  0  0  0  0  0  0  0  0  0
    9.5917  -13.7172   27.0522 C   0  0  0  0  0  0  0  0  0  0  0  0
    9.6708  -14.8018   28.1075 C   0  0  1  0  0  0  0  0  0  0  0  0
    8.4681  -15.4866   28.2304 O   0  0  0  0  0  0  0  0  0  0  0  0
   10.7234  -15.8093   27.7467 C   0  0  2  0  0  0  0  0  0  0  0  0
   10.3388  -16.6207   26.5914 N   0  0  0  0  0  0  0  0  0  0  0  0
   11.1004  -16.6777   28.8844 C   0  0  0  0  0  0  0  0  0  0  0  0
   10.8989  -18.0299   28.8215 O   0  0  0  0  0  0  0  0  0  0  0  0
   11.6023  -16.1678   29.9031 O   0  0  0  0  0  0  0  0  0  0  0  0
  2  1  1  1
  2  3  1  0
  2  5  1  0
  3  4  1  0
  5  6  2  0
  5 12  1  0
  7  8  1  0
  8 10  1  0
  9  8  2  0
 11 10  1  6
 11 13  1  0
 12 11  1  0
 13 19  1  0
 13 14  2  0
 16 15  1  6
 17 16  1  0
 18 16  1  0
 18 20  1  0
 18 19  1  6
 20 21  1  0
 22 20  2  0
M  END
$$$$
