CNT.pdb
     RDKit          3D

 22 21  0  0  1  0  0  0  0  0999 V2000
   13.1654  -17.8081   18.0825 N   0  0  0  0  0  0  0  0  0  0  0  0
   12.6916  -18.8145   19.0010 C   0  0  1  0  0  0  0  0  0  0  0  0
   12.6957  -20.2008   18.3918 C   0  0  0  0  0  0  0  0  0  0  0  0
   12.1098  -20.0137   16.6742 S   0  0  0  0  0  0  0  0  0  0  0  0
   13.4198  -18.7325   20.2722 C   0  0  0  0  0  0  0  0  0  0  0  0
   13.1640  -19.5544   21.1853 O   0  0  0  0  0  0  0  0  0  0  0  0
   18.0559  -19.0923   22.0293 N   0  0  0  0  0  0  0  0  0  0  0  0
   17.2800  -18.2491   21.2100 C   0  0  0  0  0  0  0  0  0  0  0  0
   17.2833  -18.4466   19.9472 O   0  0  0  0  0  0  0  0  0  0  0  0
   16.4489  -17.1356   21.7706 C   0  0  0  0  0  0  0  0  0  0  0  0
   15.0547  -17.6429   21.8472 C   0  0  2  0  0  0  0  0  0  0  0  0
   14.4279  -17.7556   20.5544 N   0  0  0  0  0  0  0  0  0  0  0  0
   14.1747  -16.8908   22.7884 C   0  0  0  0  0  0  0  0  0  0  0  0
   14.5782  -15.8136   23.2968 O   0  0  0  0  0  0  0  0  0  0  0  0
    9.9945  -17.1813   22.8701 C   0  0  0  0  0  0  0  0  0  0  0  0
   10.8241  -16.0604   23.4629 C   0  0  1  0  0  0  0  0  0  0  0  0
   10.1298  -15.3767   24.4533 O   0  0  0  0  0  0  0  0  0  0  0  0
   12.0735  -16.6072   24.0898 C   0  0  2  0  0  0  0  0  0  0  0  0
   12.8920  -17.3519   23.1325 N   0  0  0  0  0  0  0  0  0  0  0  0
   11.8004  -17.4332   25.2873 C   0  0  0  0  0  0  0  0  0  0  0  0
   11.4163  -16.8459   26.4623 O   0  0  0  0  0  0  0  0  0  0  0  0
   11.9243  -18.6700   25.2185 O   0  0  0  0  0  0  0  0  0  0  0  0
  2  1  1  6
  2  3  1  0
  2  5  1  0
  3  4  1  0
  5  6  2  0
  5 12  1  0
  7  8  1  0
  8 10  1  0
  9  8  2  0
 11 10  1  6
 11 13  1  0
 12 11  1  0
 13 19  1  0
 13 14  2  0
 16 15  1  1
 17 16  1  0
 18 16  1  0
 18 20  1  0
 18 19  1  6
 20 21  1  0
 22 20  2  0
M  END
$$$$
