CNT.pdb
     RDKit          3D

 22 21  0  0  1  0  0  0  0  0999 V2000
    6.1844  -20.0383   21.7569 N   0  0  0  0  0  0  0  0  0  0  0  0
    6.2325  -18.6284   22.0587 C   0  0  1  0  0  0  0  0  0  0  0  0
    5.2978  -18.2468   23.1873 C   0  0  0  0  0  0  0  0  0  0  0  0
    3.6035  -18.5462   22.5806 S   0  0  0  0  0  0  0  0  0  0  0  0
    7.6181  -18.1971   22.2760 C   0  0  0  0  0  0  0  0  0  0  0  0
    8.4095  -18.9487   22.8952 O   0  0  0  0  0  0  0  0  0  0  0  0
   11.3411  -17.5772   19.7747 N   0  0  0  0  0  0  0  0  0  0  0  0
   10.2501  -16.6971   19.9131 C   0  0  0  0  0  0  0  0  0  0  0  0
    9.3295  -16.7153   19.0266 O   0  0  0  0  0  0  0  0  0  0  0  0
   10.1317  -15.7476   21.0661 C   0  0  0  0  0  0  0  0  0  0  0  0
    9.4711  -16.4957   22.1666 C   0  0  2  0  0  0  0  0  0  0  0  0
    8.1466  -16.9466   21.8212 N   0  0  0  0  0  0  0  0  0  0  0  0
    9.4524  -15.7800   23.4756 C   0  0  0  0  0  0  0  0  0  0  0  0
    9.5512  -14.5267   23.5050 O   0  0  0  0  0  0  0  0  0  0  0  0
    8.0589  -13.7684   24.8859 C   0  0  0  0  0  0  0  0  0  0  0  0
    7.9156  -14.8678   25.9189 C   0  0  1  0  0  0  0  0  0  0  0  0
    6.8367  -15.6973   25.6388 O   0  0  0  0  0  0  0  0  0  0  0  0
    9.1455  -15.7279   25.9438 C   0  0  2  0  0  0  0  0  0  0  0  0
    9.3275  -16.4684   24.6950 N   0  0  0  0  0  0  0  0  0  0  0  0
    9.1765  -16.6513   27.1002 C   0  0  0  0  0  0  0  0  0  0  0  0
    9.1826  -16.1623   28.3784 O   0  0  0  0  0  0  0  0  0  0  0  0
    9.1986  -17.8800   26.9015 O   0  0  0  0  0  0  0  0  0  0  0  0
  2  1  1  1
  2  3  1  0
  2  5  1  0
  3  4  1  0
  5  6  2  0
  5 12  1  0
  7  8  1  0
  8 10  1  0
  9  8  2  0
 11 10  1  6
 11 13  1  0
 12 11  1  0
 13 19  1  0
 13 14  2  0
 16 15  1  6
 17 16  1  0
 18 16  1  0
 18 20  1  0
 18 19  1  6
 20 21  1  0
 22 20  2  0
M  END
$$$$
