CNT.pdb
     RDKit          3D

 22 21  0  0  1  0  0  0  0  0999 V2000
    5.1613  -14.1636   26.1282 N   0  0  0  0  0  0  0  0  0  0  0  0
    6.3397  -13.5595   25.5560 C   0  0  1  0  0  0  0  0  0  0  0  0
    6.8770  -12.4251   26.4030 C   0  0  0  0  0  0  0  0  0  0  0  0
    5.6046  -11.1178   26.3855 S   0  0  0  0  0  0  0  0  0  0  0  0
    7.3432  -14.5845   25.2471 C   0  0  0  0  0  0  0  0  0  0  0  0
    7.5338  -15.5261   26.0544 O   0  0  0  0  0  0  0  0  0  0  0  0
   10.0041  -18.0336   22.0889 N   0  0  0  0  0  0  0  0  0  0  0  0
   10.5457  -16.7420   22.2397 C   0  0  0  0  0  0  0  0  0  0  0  0
   11.8160  -16.6018   22.2167 O   0  0  0  0  0  0  0  0  0  0  0  0
    9.6827  -15.5305   22.4197 C   0  0  0  0  0  0  0  0  0  0  0  0
    9.1368  -15.5988   23.7997 C   0  0  2  0  0  0  0  0  0  0  0  0
    8.1431  -14.5878   24.0596 N   0  0  0  0  0  0  0  0  0  0  0  0
   10.1721  -15.5993   24.8740 C   0  0  0  0  0  0  0  0  0  0  0  0
   11.2601  -14.9945   24.6948 O   0  0  0  0  0  0  0  0  0  0  0  0
   10.6010  -13.8648   27.8318 C   0  0  0  0  0  0  0  0  0  0  0  0
   10.6019  -15.3133   28.2770 C   0  0  1  0  0  0  0  0  0  0  0  0
    9.3446  -15.7183   28.7078 O   0  0  0  0  0  0  0  0  0  0  0  0
   10.9952  -16.2114   27.1405 C   0  0  2  0  0  0  0  0  0  0  0  0
    9.9709  -16.2630   26.0969 N   0  0  0  0  0  0  0  0  0  0  0  0
   11.3481  -17.5783   27.5850 C   0  0  0  0  0  0  0  0  0  0  0  0
   12.4236  -17.7849   28.4058 O   0  0  0  0  0  0  0  0  0  0  0  0
   10.6584  -18.5424   27.2048 O   0  0  0  0  0  0  0  0  0  0  0  0
  2  1  1  1
  2  3  1  0
  2  5  1  0
  3  4  1  0
  5  6  2  0
  5 12  1  0
  7  8  1  0
  8 10  1  0
  9  8  2  0
 11 10  1  6
 11 13  1  0
 12 11  1  0
 13 19  1  0
 13 14  2  0
 16 15  1  6
 17 16  1  0
 18 16  1  0
 18 20  1  0
 18 19  1  6
 20 21  1  0
 22 20  2  0
M  END
$$$$
