CNT.pdb
     RDKit          3D

 22 21  0  0  1  0  0  0  0  0999 V2000
    9.4613  -15.1497   19.8731 N   0  0  0  0  0  0  0  0  0  0  0  0
    8.4186  -14.2908   20.3792 C   0  0  1  0  0  0  0  0  0  0  0  0
    7.3175  -14.0596   19.3657 C   0  0  0  0  0  0  0  0  0  0  0  0
    7.6968  -12.4772   18.5407 S   0  0  0  0  0  0  0  0  0  0  0  0
    7.9294  -14.7846   21.6715 C   0  0  0  0  0  0  0  0  0  0  0  0
    6.9559  -14.2157   22.2222 O   0  0  0  0  0  0  0  0  0  0  0  0
    6.1475  -18.3990   25.4470 N   0  0  0  0  0  0  0  0  0  0  0  0
    7.4992  -18.1194   25.1663 C   0  0  0  0  0  0  0  0  0  0  0  0
    8.3411  -18.1280   26.1282 O   0  0  0  0  0  0  0  0  0  0  0  0
    7.9811  -17.8191   23.7798 C   0  0  0  0  0  0  0  0  0  0  0  0
    8.0086  -16.3393   23.6506 C   0  0  2  0  0  0  0  0  0  0  0  0
    8.4983  -15.8981   22.3690 N   0  0  0  0  0  0  0  0  0  0  0  0
    8.7279  -15.6365   24.7527 C   0  0  0  0  0  0  0  0  0  0  0  0
    9.9806  -15.5328   24.7162 O   0  0  0  0  0  0  0  0  0  0  0  0
    7.9580  -12.0553   25.9812 C   0  0  0  0  0  0  0  0  0  0  0  0
    7.9953  -13.0016   27.1642 C   0  0  1  0  0  0  0  0  0  0  0  0
    6.7187  -13.3923   27.5490 O   0  0  0  0  0  0  0  0  0  0  0  0
    8.7575  -14.2470   26.8161 C   0  0  2  0  0  0  0  0  0  0  0  0
    8.0436  -15.0791   25.8471 N   0  0  0  0  0  0  0  0  0  0  0  0
    9.1282  -15.0444   28.0067 C   0  0  0  0  0  0  0  0  0  0  0  0
    9.8953  -14.4951   28.9981 O   0  0  0  0  0  0  0  0  0  0  0  0
    8.7373  -16.2226   28.0997 O   0  0  0  0  0  0  0  0  0  0  0  0
  2  1  1  6
  2  3  1  0
  2  5  1  0
  3  4  1  0
  5  6  2  0
  5 12  1  0
  7  8  1  0
  8 10  1  0
  9  8  2  0
 11 10  1  1
 11 13  1  0
 12 11  1  0
 13 19  1  0
 13 14  2  0
 16 15  1  6
 17 16  1  0
 18 16  1  0
 18 20  1  0
 18 19  1  6
 20 21  1  0
 22 20  2  0
M  END
$$$$
