CNT.pdb
     RDKit          3D

 22 21  0  0  1  0  0  0  0  0999 V2000
    7.7519  -15.9066   18.5391 N   0  0  0  0  0  0  0  0  0  0  0  0
    8.6277  -15.5562   19.6306 C   0  0  1  0  0  0  0  0  0  0  0  0
    9.2496  -14.1866   19.4559 C   0  0  0  0  0  0  0  0  0  0  0  0
    7.8676  -13.0086   19.2809 S   0  0  0  0  0  0  0  0  0  0  0  0
    7.9395  -15.7262   20.9154 C   0  0  0  0  0  0  0  0  0  0  0  0
    6.6897  -15.6255   20.9653 O   0  0  0  0  0  0  0  0  0  0  0  0
    7.8238  -18.3268   26.3168 N   0  0  0  0  0  0  0  0  0  0  0  0
    7.2936  -17.7618   25.1405 C   0  0  0  0  0  0  0  0  0  0  0  0
    6.0907  -17.3297   25.1544 O   0  0  0  0  0  0  0  0  0  0  0  0
    8.0942  -17.6461   23.8793 C   0  0  0  0  0  0  0  0  0  0  0  0
    7.8953  -16.2628   23.3751 C   0  0  2  0  0  0  0  0  0  0  0  0
    8.6090  -16.0053   22.1499 N   0  0  0  0  0  0  0  0  0  0  0  0
    8.1782  -15.1938   24.3768 C   0  0  0  0  0  0  0  0  0  0  0  0
    9.3282  -14.6898   24.4463 O   0  0  0  0  0  0  0  0  0  0  0  0
    6.5657  -11.7298   27.4983 C   0  0  0  0  0  0  0  0  0  0  0  0
    6.2242  -12.9022   26.6009 C   0  0  1  0  0  0  0  0  0  0  0  0
    5.5507  -12.4931   25.4566 O   0  0  0  0  0  0  0  0  0  0  0  0
    7.4741  -13.6044   26.1564 C   0  0  2  0  0  0  0  0  0  0  0  0
    7.1894  -14.7246   25.2591 N   0  0  0  0  0  0  0  0  0  0  0  0
    8.3147  -14.0519   27.2895 C   0  0  0  0  0  0  0  0  0  0  0  0
    8.6400  -15.3736   27.4323 O   0  0  0  0  0  0  0  0  0  0  0  0
    8.7239  -13.2152   28.1155 O   0  0  0  0  0  0  0  0  0  0  0  0
  2  1  1  6
  2  3  1  0
  2  5  1  0
  3  4  1  0
  5  6  2  0
  5 12  1  0
  7  8  1  0
  8 10  1  0
  9  8  2  0
 11 10  1  1
 11 13  1  0
 12 11  1  0
 13 19  1  0
 13 14  2  0
 16 15  1  1
 17 16  1  0
 18 16  1  0
 18 20  1  0
 18 19  1  1
 20 21  1  0
 22 20  2  0
M  END
$$$$
