CNT.pdb
     RDKit          3D

 22 21  0  0  1  0  0  0  0  0999 V2000
    7.6095  -15.1997   18.8374 N   0  0  0  0  0  0  0  0  0  0  0  0
    8.0814  -14.3863   19.9314 C   0  0  1  0  0  0  0  0  0  0  0  0
    7.5406  -12.9729   19.8759 C   0  0  0  0  0  0  0  0  0  0  0  0
    8.5280  -12.0892   18.6219 S   0  0  0  0  0  0  0  0  0  0  0  0
    7.8345  -15.0567   21.2130 C   0  0  0  0  0  0  0  0  0  0  0  0
    6.6621  -15.3726   21.5297 O   0  0  0  0  0  0  0  0  0  0  0  0
   11.0929  -15.9106   22.5253 N   0  0  0  0  0  0  0  0  0  0  0  0
   10.6568  -17.0846   23.1702 C   0  0  0  0  0  0  0  0  0  0  0  0
   11.4849  -18.0466   23.3211 O   0  0  0  0  0  0  0  0  0  0  0  0
    9.2595  -17.2387   23.6885 C   0  0  0  0  0  0  0  0  0  0  0  0
    8.5729  -15.9427   23.4514 C   0  0  2  0  0  0  0  0  0  0  0  0
    8.8622  -15.3847   22.1545 N   0  0  0  0  0  0  0  0  0  0  0  0
    8.7935  -14.9228   24.5178 C   0  0  0  0  0  0  0  0  0  0  0  0
    9.9263  -14.3937   24.6530 O   0  0  0  0  0  0  0  0  0  0  0  0
    6.6041  -11.7025   25.6262 C   0  0  0  0  0  0  0  0  0  0  0  0
    6.8324  -12.6982   26.7454 C   0  0  1  0  0  0  0  0  0  0  0  0
    5.7451  -13.5484   26.9053 O   0  0  0  0  0  0  0  0  0  0  0  0
    8.0291  -13.5547   26.4499 C   0  0  2  0  0  0  0  0  0  0  0  0
    7.7640  -14.5280   25.3900 N   0  0  0  0  0  0  0  0  0  0  0  0
    8.5597  -14.2340   27.6531 C   0  0  0  0  0  0  0  0  0  0  0  0
    8.9757  -13.5054   28.7344 O   0  0  0  0  0  0  0  0  0  0  0  0
    8.6266  -15.4769   27.6743 O   0  0  0  0  0  0  0  0  0  0  0  0
  2  1  1  6
  2  3  1  0
  2  5  1  0
  3  4  1  0
  5  6  2  0
  5 12  1  0
  7  8  1  0
  8 10  1  0
  9  8  2  0
 11 10  1  1
 11 13  1  0
 12 11  1  0
 13 19  1  0
 13 14  2  0
 16 15  1  6
 17 16  1  0
 18 16  1  0
 18 20  1  0
 18 19  1  6
 20 21  1  0
 22 20  2  0
M  END
$$$$
