CNT.pdb
     RDKit          3D

 22 21  0  0  1  0  0  0  0  0999 V2000
    7.2577  -15.6910   18.6175 N   0  0  0  0  0  0  0  0  0  0  0  0
    8.0962  -14.7578   19.3296 C   0  0  1  0  0  0  0  0  0  0  0  0
    7.3250  -13.5558   19.8332 C   0  0  0  0  0  0  0  0  0  0  0  0
    7.0989  -12.4482   18.4013 S   0  0  0  0  0  0  0  0  0  0  0  0
    8.8548  -15.4474   20.3794 C   0  0  0  0  0  0  0  0  0  0  0  0
    8.3042  -16.3599   21.0419 O   0  0  0  0  0  0  0  0  0  0  0  0
   13.9984  -15.9814   23.6076 N   0  0  0  0  0  0  0  0  0  0  0  0
   13.0052  -16.4935   22.7499 C   0  0  0  0  0  0  0  0  0  0  0  0
   12.6027  -17.6942   22.9237 O   0  0  0  0  0  0  0  0  0  0  0  0
   12.4033  -15.6761   21.6479 C   0  0  0  0  0  0  0  0  0  0  0  0
   10.9309  -15.8484   21.7466 C   0  0  2  0  0  0  0  0  0  0  0  0
   10.2143  -15.1457   20.7124 N   0  0  0  0  0  0  0  0  0  0  0  0
   10.3600  -15.5258   23.0868 C   0  0  0  0  0  0  0  0  0  0  0  0
   10.0163  -14.3458   23.3530 O   0  0  0  0  0  0  0  0  0  0  0  0
    7.2799  -16.8352   24.4049 C   0  0  0  0  0  0  0  0  0  0  0  0
    8.0801  -15.7375   25.0765 C   0  0  1  0  0  0  0  0  0  0  0  0
    7.5390  -15.3882   26.3077 O   0  0  0  0  0  0  0  0  0  0  0  0
    9.4901  -16.1904   25.3208 C   0  0  2  0  0  0  0  0  0  0  0  0
   10.1915  -16.5096   24.0769 N   0  0  0  0  0  0  0  0  0  0  0  0
    9.5722  -17.3269   26.2654 C   0  0  0  0  0  0  0  0  0  0  0  0
   10.2559  -18.4630   25.9262 O   0  0  0  0  0  0  0  0  0  0  0  0
    9.0119  -17.2427   27.3739 O   0  0  0  0  0  0  0  0  0  0  0  0
  2  1  1  1
  2  3  1  0
  2  5  1  0
  3  4  1  0
  5  6  2  0
  5 12  1  0
  7  8  1  0
  8 10  1  0
  9  8  2  0
 11 10  1  1
 11 13  1  0
 12 11  1  0
 13 19  1  0
 13 14  2  0
 16 15  1  1
 17 16  1  0
 18 16  1  0
 18 20  1  0
 18 19  1  6
 20 21  1  0
 22 20  2  0
M  END
$$$$
