CNT.pdb
     RDKit          3D

 22 21  0  0  1  0  0  0  0  0999 V2000
    8.8211  -14.6929   17.0083 N   0  0  0  0  0  0  0  0  0  0  0  0
    9.5873  -13.9269   17.9608 C   0  0  1  0  0  0  0  0  0  0  0  0
    8.7295  -13.3674   19.0762 C   0  0  0  0  0  0  0  0  0  0  0  0
    7.5271  -12.2425   18.2905 S   0  0  0  0  0  0  0  0  0  0  0  0
   10.7351  -14.7051   18.4404 C   0  0  0  0  0  0  0  0  0  0  0  0
   10.6175  -15.9437   18.6035 O   0  0  0  0  0  0  0  0  0  0  0  0
   14.8027  -13.8376   16.4364 N   0  0  0  0  0  0  0  0  0  0  0  0
   14.6534  -14.7903   17.4631 C   0  0  0  0  0  0  0  0  0  0  0  0
   14.7120  -16.0314   17.1630 O   0  0  0  0  0  0  0  0  0  0  0  0
   14.4348  -14.3964   18.8921 C   0  0  0  0  0  0  0  0  0  0  0  0
   13.0998  -14.9216   19.2782 C   0  0  2  0  0  0  0  0  0  0  0  0
   12.0141  -14.1381   18.7449 N   0  0  0  0  0  0  0  0  0  0  0  0
   12.9192  -15.1313   20.7443 C   0  0  0  0  0  0  0  0  0  0  0  0
   13.1898  -14.2022   21.5474 O   0  0  0  0  0  0  0  0  0  0  0  0
   10.9140  -17.3938   24.5708 C   0  0  0  0  0  0  0  0  0  0  0  0
   11.0087  -17.1950   23.0715 C   0  0  1  0  0  0  0  0  0  0  0  0
    9.9794  -16.3929   22.5944 O   0  0  0  0  0  0  0  0  0  0  0  0
   12.3018  -16.5231   22.7118 C   0  0  2  0  0  0  0  0  0  0  0  0
   12.4512  -16.3498   21.2665 N   0  0  0  0  0  0  0  0  0  0  0  0
   13.4835  -17.2151   23.2732 C   0  0  0  0  0  0  0  0  0  0  0  0
   13.8975  -16.9549   24.5515 O   0  0  0  0  0  0  0  0  0  0  0  0
   14.1015  -18.0372   22.5718 O   0  0  0  0  0  0  0  0  0  0  0  0
  2  1  1  6
  2  3  1  0
  2  5  1  0
  3  4  1  0
  5  6  2  0
  5 12  1  0
  7  8  1  0
  8 10  1  0
  9  8  2  0
 11 10  1  1
 11 13  1  0
 12 11  1  0
 13 19  1  0
 13 14  2  0
 16 15  1  1
 17 16  1  0
 18 16  1  0
 18 20  1  0
 18 19  1  6
 20 21  1  0
 22 20  2  0
M  END
$$$$
