CNT.pdb
     RDKit          3D

 22 21  0  0  1  0  0  0  0  0999 V2000
    7.7032  -15.1600   18.5294 N   0  0  0  0  0  0  0  0  0  0  0  0
    8.3367  -14.4243   19.5965 C   0  0  1  0  0  0  0  0  0  0  0  0
    8.0400  -12.9408   19.5312 C   0  0  0  0  0  0  0  0  0  0  0  0
    8.1965  -12.4577   17.7789 S   0  0  0  0  0  0  0  0  0  0  0  0
    8.0177  -15.0276   20.8954 C   0  0  0  0  0  0  0  0  0  0  0  0
    6.8831  -15.5301   21.0817 O   0  0  0  0  0  0  0  0  0  0  0  0
   11.5910  -17.0777   24.3831 N   0  0  0  0  0  0  0  0  0  0  0  0
   10.7142  -16.8229   23.3105 C   0  0  0  0  0  0  0  0  0  0  0  0
   11.1996  -16.3947   22.2083 O   0  0  0  0  0  0  0  0  0  0  0  0
    9.2361  -17.0430   23.4182 C   0  0  0  0  0  0  0  0  0  0  0  0
    8.5949  -15.7136   23.2485 C   0  0  2  0  0  0  0  0  0  0  0  0
    8.9318  -15.0853   21.9960 N   0  0  0  0  0  0  0  0  0  0  0  0
    8.8209  -14.7698   24.3817 C   0  0  0  0  0  0  0  0  0  0  0  0
    9.7864  -13.9650   24.3427 O   0  0  0  0  0  0  0  0  0  0  0  0
    6.9944  -11.8256   25.5309 C   0  0  0  0  0  0  0  0  0  0  0  0
    7.0043  -12.8170   26.6769 C   0  0  1  0  0  0  0  0  0  0  0  0
    5.8557  -13.5987   26.6889 O   0  0  0  0  0  0  0  0  0  0  0  0
    8.1762  -13.7472   26.5560 C   0  0  2  0  0  0  0  0  0  0  0  0
    7.9802  -14.7497   25.5083 N   0  0  0  0  0  0  0  0  0  0  0  0
    8.5240  -14.4014   27.8373 C   0  0  0  0  0  0  0  0  0  0  0  0
    8.5490  -15.7663   27.9350 O   0  0  0  0  0  0  0  0  0  0  0  0
    8.7932  -13.6992   28.8294 O   0  0  0  0  0  0  0  0  0  0  0  0
  2  1  1  6
  2  3  1  0
  2  5  1  0
  3  4  1  0
  5  6  2  0
  5 12  1  0
  7  8  1  0
  8 10  1  0
  9  8  2  0
 11 10  1  1
 11 13  1  0
 12 11  1  0
 13 19  1  0
 13 14  2  0
 16 15  1  6
 17 16  1  0
 18 16  1  0
 18 20  1  0
 18 19  1  6
 20 21  1  0
 22 20  2  0
M  END
$$$$
