AKC.pdb
     RDKit          3D

 21 20  0  0  1  0  0  0  0  0999 V2000
   15.5728  -12.8864  -14.7278 C   0  0  0  0  0  0  0  0  0  0  0  0
   15.6910  -11.4974  -14.0966 C   0  0  2  0  0  0  0  0  0  0  0  0
   14.5210  -10.7595  -14.5206 N   0  0  0  0  0  0  0  0  0  0  0  0
   16.8918  -10.8364  -14.6154 C   0  0  0  0  0  0  0  0  0  0  0  0
   18.0195  -11.1584  -14.1251 O   0  0  0  0  0  0  0  0  0  0  0  0
   16.8548   -9.8458  -15.6475 N   0  0  0  0  0  0  0  0  0  0  0  0
   18.0775   -9.3018  -16.1308 C   0  0  1  0  0  0  0  0  0  0  0  0
   17.9757   -8.7581  -17.5393 C   0  0  0  0  0  0  0  0  0  0  0  0
   19.3252   -8.3389  -18.0784 C   0  0  0  0  0  0  0  0  0  0  0  0
   19.0959   -7.7324  -19.4425 C   0  0  0  0  0  0  0  0  0  0  0  0
   20.3913   -7.2509  -20.0732 C   0  0  0  0  0  0  0  0  0  0  0  0
   20.1853   -6.7869  -21.4232 N   0  0  0  0  0  0  0  0  0  0  0  0
   18.6146   -8.2108  -15.2867 C   0  0  0  0  0  0  0  0  0  0  0  0
   17.8080   -7.3740  -14.8237 O   0  0  0  0  0  0  0  0  0  0  0  0
   19.9883   -8.0676  -14.9789 N   0  0  0  0  0  0  0  0  0  0  0  0
   20.4598   -7.0022  -14.1019 C   0  0  1  0  0  0  0  0  0  0  0  0
   21.5978   -7.4922  -13.2226 C   0  0  0  0  0  0  0  0  0  0  0  0
   22.3422   -6.1071  -12.2978 S   0  0  0  0  0  0  0  0  0  0  0  0
   20.9720   -5.8813  -14.9202 C   0  0  0  0  0  0  0  0  0  0  0  0
   21.0472   -4.7374  -14.4322 O   0  0  0  0  0  0  0  0  0  0  0  0
   21.3844   -6.0351  -16.2350 O   0  0  0  0  0  0  0  0  0  0  0  0
  2  1  1  6
  3  2  1  0
  4  2  1  0
  4  5  2  0
  6  7  1  0
  6  4  1  0
  7  8  1  6
  9  8  1  0
 10 11  1  0
 10  9  1  0
 11 12  1  0
 13  7  1  0
 14 13  2  0
 15 13  1  0
 16 15  1  0
 16 19  1  0
 16 17  1  1
 18 17  1  0
 19 21  1  0
 20 19  2  0
M  END
$$$$
