AKC.pdb
     RDKit          3D

 21 20  0  0  1  0  0  0  0  0999 V2000
   16.3370  -11.6200  -15.0460 C   0  0  0  0  0  0  0  0  0  0  0  0
   16.5937  -10.1793  -15.4936 C   0  0  2  0  0  0  0  0  0  0  0  0
   16.3590  -10.1514  -16.9209 N   0  0  0  0  0  0  0  0  0  0  0  0
   17.9941   -9.8380  -15.2287 C   0  0  0  0  0  0  0  0  0  0  0  0
   18.3649   -9.6982  -14.0209 O   0  0  0  0  0  0  0  0  0  0  0  0
   18.9636   -9.6545  -16.2652 N   0  0  0  0  0  0  0  0  0  0  0  0
   20.3019   -9.3245  -15.9125 C   0  0  1  0  0  0  0  0  0  0  0  0
   21.3306   -9.9002  -16.8613 C   0  0  0  0  0  0  0  0  0  0  0  0
   21.2936  -11.4121  -16.8797 C   0  0  0  0  0  0  0  0  0  0  0  0
   22.2305  -11.8716  -17.9716 C   0  0  0  0  0  0  0  0  0  0  0  0
   22.2172  -13.3824  -18.1306 C   0  0  0  0  0  0  0  0  0  0  0  0
   22.9885  -13.8036  -19.2742 N   0  0  0  0  0  0  0  0  0  0  0  0
   20.5526   -7.8674  -15.8393 C   0  0  0  0  0  0  0  0  0  0  0  0
   20.2361   -7.1660  -16.8257 O   0  0  0  0  0  0  0  0  0  0  0  0
   21.1297   -7.2311  -14.7149 N   0  0  0  0  0  0  0  0  0  0  0  0
   21.3351   -5.7878  -14.6851 C   0  0  1  0  0  0  0  0  0  0  0  0
   20.0068   -5.0531  -14.7510 C   0  0  0  0  0  0  0  0  0  0  0  0
   20.2256   -3.2860  -14.3543 S   0  0  0  0  0  0  0  0  0  0  0  0
   21.9972   -5.4107  -13.4171 C   0  0  0  0  0  0  0  0  0  0  0  0
   22.5477   -4.2982  -13.3089 O   0  0  0  0  0  0  0  0  0  0  0  0
   22.0412   -6.2470  -12.3122 O   0  0  0  0  0  0  0  0  0  0  0  0
  2  1  1  6
  3  2  1  0
  4  2  1  0
  4  5  2  0
  6  7  1  0
  6  4  1  0
  7  8  1  6
  9  8  1  0
 10 11  1  0
 10  9  1  0
 11 12  1  0
 13  7  1  0
 14 13  2  0
 15 13  1  0
 16 15  1  0
 16 19  1  0
 16 17  1  1
 18 17  1  0
 19 21  1  0
 20 19  2  0
M  END
$$$$
