AKC.pdb
     RDKit          3D

 21 20  0  0  1  0  0  0  0  0999 V2000
   17.6109  -12.5868  -18.0830 C   0  0  0  0  0  0  0  0  0  0  0  0
   18.1624  -12.1562  -16.7221 C   0  0  2  0  0  0  0  0  0  0  0  0
   17.1023  -12.3861  -15.7649 N   0  0  0  0  0  0  0  0  0  0  0  0
   18.4731  -10.7245  -16.7626 C   0  0  0  0  0  0  0  0  0  0  0  0
   19.4149  -10.3307  -17.5200 O   0  0  0  0  0  0  0  0  0  0  0  0
   17.7664   -9.7490  -15.9899 N   0  0  0  0  0  0  0  0  0  0  0  0
   18.1896   -8.3913  -16.0326 C   0  0  1  0  0  0  0  0  0  0  0  0
   17.0630   -7.4056  -15.8107 C   0  0  0  0  0  0  0  0  0  0  0  0
   16.0158   -7.4955  -16.8983 C   0  0  0  0  0  0  0  0  0  0  0  0
   14.9520   -6.4704  -16.5841 C   0  0  0  0  0  0  0  0  0  0  0  0
   13.8704   -6.4318  -17.6501 C   0  0  0  0  0  0  0  0  0  0  0  0
   12.9800   -5.3125  -17.4641 N   0  0  0  0  0  0  0  0  0  0  0  0
   19.2438   -8.0685  -15.0448 C   0  0  0  0  0  0  0  0  0  0  0  0
   19.0620   -8.4146  -13.8563 O   0  0  0  0  0  0  0  0  0  0  0  0
   20.4413   -7.3912  -15.3758 N   0  0  0  0  0  0  0  0  0  0  0  0
   21.4838   -7.1678  -14.3810 C   0  0  1  0  0  0  0  0  0  0  0  0
   22.7381   -7.9511  -14.7298 C   0  0  0  0  0  0  0  0  0  0  0  0
   22.9838   -9.3309  -13.5620 S   0  0  0  0  0  0  0  0  0  0  0  0
   21.8404   -5.7324  -14.3553 C   0  0  0  0  0  0  0  0  0  0  0  0
   21.6687   -5.0297  -15.3697 O   0  0  0  0  0  0  0  0  0  0  0  0
   22.3693   -5.1073  -13.2365 O   0  0  0  0  0  0  0  0  0  0  0  0
  2  1  1  6
  3  2  1  0
  4  2  1  0
  4  5  2  0
  6  7  1  0
  6  4  1  0
  7  8  1  1
  9  8  1  0
 10 11  1  0
 10  9  1  0
 11 12  1  0
 13  7  1  0
 14 13  2  0
 15 13  1  0
 16 15  1  0
 16 19  1  0
 16 17  1  6
 18 17  1  0
 19 21  1  0
 20 19  2  0
M  END
$$$$
