AKC.pdb
     RDKit          3D

 21 20  0  0  1  0  0  0  0  0999 V2000
   16.7141  -11.3544  -10.6206 C   0  0  0  0  0  0  0  0  0  0  0  0
   15.5023  -10.5604  -10.1280 C   0  0  2  0  0  0  0  0  0  0  0  0
   14.3821  -10.9886  -10.9371 N   0  0  0  0  0  0  0  0  0  0  0  0
   15.7417   -9.1322  -10.3535 C   0  0  0  0  0  0  0  0  0  0  0  0
   15.5854   -8.6703  -11.5274 O   0  0  0  0  0  0  0  0  0  0  0  0
   16.1431   -8.2332   -9.3149 N   0  0  0  0  0  0  0  0  0  0  0  0
   16.2679   -6.8465   -9.6079 C   0  0  1  0  0  0  0  0  0  0  0  0
   15.6846   -5.9529   -8.5350 C   0  0  0  0  0  0  0  0  0  0  0  0
   14.1723   -5.9738   -8.5476 C   0  0  0  0  0  0  0  0  0  0  0  0
   13.7007   -5.0775   -7.4271 C   0  0  0  0  0  0  0  0  0  0  0  0
   12.1863   -5.0688   -7.3081 C   0  0  0  0  0  0  0  0  0  0  0  0
   11.7436   -4.2410   -6.2130 N   0  0  0  0  0  0  0  0  0  0  0  0
   17.6665   -6.4093   -9.8178 C   0  0  0  0  0  0  0  0  0  0  0  0
   18.4973   -6.6408   -8.9116 O   0  0  0  0  0  0  0  0  0  0  0  0
   18.1087   -5.7457  -10.9867 N   0  0  0  0  0  0  0  0  0  0  0  0
   19.5292   -5.5661  -11.2631 C   0  0  1  0  0  0  0  0  0  0  0  0
   20.2021   -6.9045  -11.5169 C   0  0  0  0  0  0  0  0  0  0  0  0
   21.9543   -6.6715  -11.9679 S   0  0  0  0  0  0  0  0  0  0  0  0
   19.6937   -4.7402  -12.4793 C   0  0  0  0  0  0  0  0  0  0  0  0
   18.8873   -4.8529  -13.4223 O   0  0  0  0  0  0  0  0  0  0  0  0
   20.7219   -3.8231  -12.6339 O   0  0  0  0  0  0  0  0  0  0  0  0
  2  1  1  6
  3  2  1  0
  4  2  1  0
  4  5  2  0
  6  7  1  0
  6  4  1  0
  7  8  1  1
  9  8  1  0
 10 11  1  0
 10  9  1  0
 11 12  1  0
 13  7  1  0
 14 13  2  0
 15 13  1  0
 16 15  1  0
 16 19  1  0
 16 17  1  6
 18 17  1  0
 19 21  1  0
 20 19  2  0
M  END
$$$$
