AKC.pdb
     RDKit          3D

 21 20  0  0  1  0  0  0  0  0999 V2000
   37.2028  -11.9327   -8.2978 C   0  0  0  0  0  0  0  0  0  0  0  0
   38.3202  -12.0057   -7.2548 C   0  0  2  0  0  0  0  0  0  0  0  0
   37.6719  -11.9481   -5.9628 N   0  0  0  0  0  0  0  0  0  0  0  0
   39.1947  -10.8397   -7.4076 C   0  0  0  0  0  0  0  0  0  0  0  0
   38.8285   -9.7368   -6.8925 O   0  0  0  0  0  0  0  0  0  0  0  0
   40.4413  -10.8839   -8.1090 N   0  0  0  0  0  0  0  0  0  0  0  0
   41.2571   -9.7189   -8.1476 C   0  0  1  0  0  0  0  0  0  0  0  0
   42.6970  -10.0079   -8.5125 C   0  0  0  0  0  0  0  0  0  0  0  0
   43.5032  -10.4488   -7.3111 C   0  0  0  0  0  0  0  0  0  0  0  0
   44.8815  -10.8189   -7.8057 C   0  0  0  0  0  0  0  0  0  0  0  0
   45.8005  -11.2284   -6.6674 C   0  0  0  0  0  0  0  0  0  0  0  0
   45.9566  -12.6606   -6.5989 N   0  0  0  0  0  0  0  0  0  0  0  0
   40.7727   -8.6881   -9.0932 C   0  0  0  0  0  0  0  0  0  0  0  0
   40.6186   -9.0147  -10.2910 O   0  0  0  0  0  0  0  0  0  0  0  0
   40.4767   -7.3579   -8.7120 N   0  0  0  0  0  0  0  0  0  0  0  0
   39.9557   -6.3935   -9.6737 C   0  0  1  0  0  0  0  0  0  0  0  0
   38.8114   -5.5961   -9.0710 C   0  0  0  0  0  0  0  0  0  0  0  0
   37.3779   -6.6740   -8.7377 S   0  0  0  0  0  0  0  0  0  0  0  0
   41.0247   -5.4403  -10.0435 C   0  0  0  0  0  0  0  0  0  0  0  0
   40.8089   -4.5659  -10.9045 O   0  0  0  0  0  0  0  0  0  0  0  0
   42.2873   -5.4649   -9.4714 O   0  0  0  0  0  0  0  0  0  0  0  0
  2  1  1  6
  3  2  1  0
  4  2  1  0
  4  5  2  0
  6  7  1  0
  6  4  1  0
  7  8  1  6
  9  8  1  0
 10 11  1  0
 10  9  1  0
 11 12  1  0
 13  7  1  0
 14 13  2  0
 15 13  1  0
 16 15  1  0
 16 19  1  0
 16 17  1  1
 18 17  1  0
 19 21  1  0
 20 19  2  0
M  END
$$$$
