AKC.pdb
     RDKit          3D

 21 20  0  0  1  0  0  0  0  0999 V2000
   14.6303   -8.6622  -14.3309 C   0  0  0  0  0  0  0  0  0  0  0  0
   15.2849   -9.6763  -15.2716 C   0  0  2  0  0  0  0  0  0  0  0  0
   15.0931  -10.9748  -14.6633 N   0  0  0  0  0  0  0  0  0  0  0  0
   16.7200   -9.3920  -15.3585 C   0  0  0  0  0  0  0  0  0  0  0  0
   17.4841   -9.8525  -14.4530 O   0  0  0  0  0  0  0  0  0  0  0  0
   17.3017   -8.6206  -16.4142 N   0  0  0  0  0  0  0  0  0  0  0  0
   18.7142   -8.4549  -16.4550 C   0  0  1  0  0  0  0  0  0  0  0  0
   19.2402   -8.1367  -17.8377 C   0  0  0  0  0  0  0  0  0  0  0  0
   19.5165   -9.3913  -18.6360 C   0  0  0  0  0  0  0  0  0  0  0  0
   20.0755   -8.9606  -19.9714 C   0  0  0  0  0  0  0  0  0  0  0  0
   20.3937  -10.1494  -20.8620 C   0  0  0  0  0  0  0  0  0  0  0  0
   20.9847   -9.7353  -22.1108 N   0  0  0  0  0  0  0  0  0  0  0  0
   19.2121   -7.3936  -15.5510 C   0  0  0  0  0  0  0  0  0  0  0  0
   18.4979   -6.3800  -15.3846 O   0  0  0  0  0  0  0  0  0  0  0  0
   20.4496   -7.4678  -14.8689 N   0  0  0  0  0  0  0  0  0  0  0  0
   20.8733   -6.4145  -13.9538 C   0  0  1  0  0  0  0  0  0  0  0  0
   21.8195   -6.9647  -12.9000 C   0  0  0  0  0  0  0  0  0  0  0  0
   22.4614   -5.6226  -11.8442 S   0  0  0  0  0  0  0  0  0  0  0  0
   21.5973   -5.3684  -14.7086 C   0  0  0  0  0  0  0  0  0  0  0  0
   21.7057   -4.2210  -14.2350 O   0  0  0  0  0  0  0  0  0  0  0  0
   22.1780   -5.5978  -15.9465 O   0  0  0  0  0  0  0  0  0  0  0  0
  2  1  1  1
  3  2  1  0
  4  2  1  0
  4  5  2  0
  6  7  1  0
  6  4  1  0
  7  8  1  6
  9  8  1  0
 10 11  1  0
 10  9  1  0
 11 12  1  0
 13  7  1  0
 14 13  2  0
 15 13  1  0
 16 15  1  0
 16 19  1  0
 16 17  1  1
 18 17  1  0
 19 21  1  0
 20 19  2  0
M  END
$$$$
