AKC.pdb
     RDKit          3D

 21 20  0  0  1  0  0  0  0  0999 V2000
   27.7903  -17.2090  -17.9477 C   0  0  0  0  0  0  0  0  0  0  0  0
   28.1808  -18.3371  -16.9904 C   0  0  2  0  0  0  0  0  0  0  0  0
   28.2235  -19.5453  -17.7851 N   0  0  0  0  0  0  0  0  0  0  0  0
   27.1451  -18.4728  -15.9624 C   0  0  0  0  0  0  0  0  0  0  0  0
   26.9557  -17.5033  -15.1625 O   0  0  0  0  0  0  0  0  0  0  0  0
   26.3371  -19.6449  -15.8166 N   0  0  0  0  0  0  0  0  0  0  0  0
   25.3820  -19.7021  -14.7636 C   0  0  1  0  0  0  0  0  0  0  0  0
   24.0403  -20.2484  -15.2011 C   0  0  0  0  0  0  0  0  0  0  0  0
   23.0360  -20.2434  -14.0702 C   0  0  0  0  0  0  0  0  0  0  0  0
   21.7427  -20.8020  -14.6148 C   0  0  0  0  0  0  0  0  0  0  0  0
   20.6015  -20.6587  -13.6223 C   0  0  0  0  0  0  0  0  0  0  0  0
   19.3473  -21.0915  -14.1879 N   0  0  0  0  0  0  0  0  0  0  0  0
   25.8220  -20.5173  -13.6089 C   0  0  0  0  0  0  0  0  0  0  0  0
   26.3424  -21.6313  -13.8397 O   0  0  0  0  0  0  0  0  0  0  0  0
   25.6842  -20.1014  -12.2634 N   0  0  0  0  0  0  0  0  0  0  0  0
   26.0653  -20.9742  -11.1591 C   0  0  1  0  0  0  0  0  0  0  0  0
   27.1161  -20.3101  -10.2855 C   0  0  0  0  0  0  0  0  0  0  0  0
   26.4987  -18.7263   -9.6233 S   0  0  0  0  0  0  0  0  0  0  0  0
   24.8815  -21.2451  -10.3145 C   0  0  0  0  0  0  0  0  0  0  0  0
   23.7918  -20.7010  -10.5765 O   0  0  0  0  0  0  0  0  0  0  0  0
   24.9163  -22.0930   -9.2180 O   0  0  0  0  0  0  0  0  0  0  0  0
  2  1  1  6
  3  2  1  0
  4  2  1  0
  4  5  2  0
  6  7  1  0
  6  4  1  0
  7  8  1  6
  9  8  1  0
 10 11  1  0
 10  9  1  0
 11 12  1  0
 13  7  1  0
 14 13  2  0
 15 13  1  0
 16 15  1  0
 16 19  1  0
 16 17  1  1
 18 17  1  0
 19 21  1  0
 20 19  2  0
M  END
$$$$
