AKC.pdb
     RDKit          3D

 21 20  0  0  1  0  0  0  0  0999 V2000
   29.1630  -19.5236  -18.6615 C   0  0  0  0  0  0  0  0  0  0  0  0
   28.9325  -20.6848  -17.6920 C   0  0  2  0  0  0  0  0  0  0  0  0
   28.4049  -21.7744  -18.4841 N   0  0  0  0  0  0  0  0  0  0  0  0
   27.9344  -20.2859  -16.6957 C   0  0  0  0  0  0  0  0  0  0  0  0
   28.2111  -19.3226  -15.9139 O   0  0  0  0  0  0  0  0  0  0  0  0
   26.6633  -20.9295  -16.5614 N   0  0  0  0  0  0  0  0  0  0  0  0
   25.7350  -20.4378  -15.6018 C   0  0  1  0  0  0  0  0  0  0  0  0
   24.2921  -20.5909  -16.0313 C   0  0  0  0  0  0  0  0  0  0  0  0
   23.3408  -19.9607  -15.0386 C   0  0  0  0  0  0  0  0  0  0  0  0
   21.9404  -20.1622  -15.5674 C   0  0  0  0  0  0  0  0  0  0  0  0
   20.8985  -19.5118  -14.6734 C   0  0  0  0  0  0  0  0  0  0  0  0
   19.5723  -19.6325  -15.2276 N   0  0  0  0  0  0  0  0  0  0  0  0
   25.8590  -21.0815  -14.2745 C   0  0  0  0  0  0  0  0  0  0  0  0
   25.9367  -22.3294  -14.2310 O   0  0  0  0  0  0  0  0  0  0  0  0
   25.8938  -20.3594  -13.0581 N   0  0  0  0  0  0  0  0  0  0  0  0
   25.9518  -21.0453  -11.7726 C   0  0  1  0  0  0  0  0  0  0  0  0
   26.9900  -20.4051  -10.8667 C   0  0  0  0  0  0  0  0  0  0  0  0
   26.8194  -21.0158   -9.1561 S   0  0  0  0  0  0  0  0  0  0  0  0
   24.6389  -20.9407  -11.0990 C   0  0  0  0  0  0  0  0  0  0  0  0
   23.9532  -19.9085  -11.2280 O   0  0  0  0  0  0  0  0  0  0  0  0
   24.1135  -21.9533  -10.3110 O   0  0  0  0  0  0  0  0  0  0  0  0
  2  1  1  6
  3  2  1  0
  4  2  1  0
  4  5  2  0
  6  7  1  0
  6  4  1  0
  7  8  1  6
  9  8  1  0
 10 11  1  0
 10  9  1  0
 11 12  1  0
 13  7  1  0
 14 13  2  0
 15 13  1  0
 16 15  1  0
 16 19  1  0
 16 17  1  1
 18 17  1  0
 19 21  1  0
 20 19  2  0
M  END
$$$$
