AKC.pdb
     RDKit          3D

 21 20  0  0  1  0  0  0  0  0999 V2000
   20.3586  -13.1904  -15.9346 C   0  0  0  0  0  0  0  0  0  0  0  0
   18.9350  -12.6301  -15.8991 C   0  0  2  0  0  0  0  0  0  0  0  0
   18.2156  -13.2854  -16.9696 N   0  0  0  0  0  0  0  0  0  0  0  0
   18.9810  -11.1888  -16.1609 C   0  0  0  0  0  0  0  0  0  0  0  0
   19.7692  -10.7624  -17.0624 O   0  0  0  0  0  0  0  0  0  0  0  0
   18.1808  -10.2391  -15.4499 N   0  0  0  0  0  0  0  0  0  0  0  0
   18.2385   -8.8670  -15.8219 C   0  0  1  0  0  0  0  0  0  0  0  0
   16.8765   -8.2564  -16.0711 C   0  0  0  0  0  0  0  0  0  0  0  0
   15.9491   -8.4520  -14.8924 C   0  0  0  0  0  0  0  0  0  0  0  0
   14.6332   -7.7982  -15.2422 C   0  0  0  0  0  0  0  0  0  0  0  0
   13.6545   -7.8388  -14.0810 C   0  0  0  0  0  0  0  0  0  0  0  0
   12.4088   -7.1918  -14.4126 N   0  0  0  0  0  0  0  0  0  0  0  0
   18.9171   -8.0109  -14.8230 C   0  0  0  0  0  0  0  0  0  0  0  0
   18.7212   -8.2526  -13.6112 O   0  0  0  0  0  0  0  0  0  0  0  0
   19.7723   -6.9378  -15.1684 N   0  0  0  0  0  0  0  0  0  0  0  0
   20.4474   -6.1488  -14.1446 C   0  0  1  0  0  0  0  0  0  0  0  0
   21.9554   -6.2236  -14.3139 C   0  0  0  0  0  0  0  0  0  0  0  0
   22.7951   -5.1375  -13.1125 S   0  0  0  0  0  0  0  0  0  0  0  0
   20.0485   -4.7301  -14.2736 C   0  0  0  0  0  0  0  0  0  0  0  0
   19.9863   -4.2005  -15.3996 O   0  0  0  0  0  0  0  0  0  0  0  0
   19.7312   -3.9345  -13.1834 O   0  0  0  0  0  0  0  0  0  0  0  0
  2  1  1  6
  3  2  1  0
  4  2  1  0
  4  5  2  0
  6  7  1  0
  6  4  1  0
  7  8  1  1
  9  8  1  0
 10 11  1  0
 10  9  1  0
 11 12  1  0
 13  7  1  0
 14 13  2  0
 15 13  1  0
 16 15  1  0
 16 19  1  0
 16 17  1  6
 18 17  1  0
 19 21  1  0
 20 19  2  0
M  END
$$$$
