AKC.pdb
     RDKit          3D

 21 20  0  0  1  0  0  0  0  0999 V2000
   21.2293  -12.6244  -18.0917 C   0  0  0  0  0  0  0  0  0  0  0  0
   21.8839  -11.7700  -17.0040 C   0  0  2  0  0  0  0  0  0  0  0  0
   21.7462  -12.5116  -15.7695 N   0  0  0  0  0  0  0  0  0  0  0  0
   21.1571  -10.5026  -16.8885 C   0  0  0  0  0  0  0  0  0  0  0  0
   21.6133   -9.4855  -17.4994 O   0  0  0  0  0  0  0  0  0  0  0  0
   19.9584  -10.3559  -16.1207 N   0  0  0  0  0  0  0  0  0  0  0  0
   19.2665   -9.1130  -16.1458 C   0  0  1  0  0  0  0  0  0  0  0  0
   17.7765   -9.2523  -15.9212 C   0  0  0  0  0  0  0  0  0  0  0  0
   17.0769   -9.8246  -17.1339 C   0  0  0  0  0  0  0  0  0  0  0  0
   15.6312  -10.0456  -16.7565 C   0  0  0  0  0  0  0  0  0  0  0  0
   14.8315  -10.6413  -17.9025 C   0  0  0  0  0  0  0  0  0  0  0  0
   13.5063  -11.0259  -17.4828 N   0  0  0  0  0  0  0  0  0  0  0  0
   19.7624   -8.1392  -15.1471 C   0  0  0  0  0  0  0  0  0  0  0  0
   20.0556   -8.5634  -14.0073 O   0  0  0  0  0  0  0  0  0  0  0  0
   19.9206   -6.7590  -15.4159 N   0  0  0  0  0  0  0  0  0  0  0  0
   20.5519   -5.8677  -14.4497 C   0  0  1  0  0  0  0  0  0  0  0  0
   22.0109   -6.2399  -14.2465 C   0  0  0  0  0  0  0  0  0  0  0  0
   22.8501   -5.0114  -13.1909 S   0  0  0  0  0  0  0  0  0  0  0  0
   20.5068   -4.4792  -14.9580 C   0  0  0  0  0  0  0  0  0  0  0  0
   20.5604   -3.5225  -14.1616 O   0  0  0  0  0  0  0  0  0  0  0  0
   20.4057   -4.1732  -16.3064 O   0  0  0  0  0  0  0  0  0  0  0  0
  2  1  1  6
  3  2  1  0
  4  2  1  0
  4  5  2  0
  6  7  1  0
  6  4  1  0
  7  8  1  1
  9  8  1  0
 10 11  1  0
 10  9  1  0
 11 12  1  0
 13  7  1  0
 14 13  2  0
 15 13  1  0
 16 15  1  0
 16 19  1  0
 16 17  1  6
 18 17  1  0
 19 21  1  0
 20 19  2  0
M  END
$$$$
