AKC.pdb
     RDKit          3D

 21 20  0  0  1  0  0  0  0  0999 V2000
   28.8598  -22.1227  -15.8054 C   0  0  0  0  0  0  0  0  0  0  0  0
   27.9702  -21.5557  -16.9139 C   0  0  2  0  0  0  0  0  0  0  0  0
   28.7319  -20.4989  -17.5430 N   0  0  0  0  0  0  0  0  0  0  0  0
   26.7609  -20.9861  -16.3131 C   0  0  0  0  0  0  0  0  0  0  0  0
   26.8228  -19.8152  -15.8222 O   0  0  0  0  0  0  0  0  0  0  0  0
   25.5138  -21.6855  -16.2530 N   0  0  0  0  0  0  0  0  0  0  0  0
   24.3999  -21.0642  -15.6226 C   0  0  1  0  0  0  0  0  0  0  0  0
   23.0918  -21.3060  -16.3440 C   0  0  0  0  0  0  0  0  0  0  0  0
   21.9463  -20.5620  -15.6945 C   0  0  0  0  0  0  0  0  0  0  0  0
   20.6926  -20.9072  -16.4629 C   0  0  0  0  0  0  0  0  0  0  0  0
   19.4873  -20.1333  -15.9570 C   0  0  0  0  0  0  0  0  0  0  0  0
   18.2988  -20.4472  -16.7115 N   0  0  0  0  0  0  0  0  0  0  0  0
   24.2013  -21.4893  -14.2186 C   0  0  0  0  0  0  0  0  0  0  0  0
   24.2977  -22.7083  -13.9539 O   0  0  0  0  0  0  0  0  0  0  0  0
   23.9092  -20.5902  -13.1657 N   0  0  0  0  0  0  0  0  0  0  0  0
   23.7857  -21.0527  -11.7883 C   0  0  1  0  0  0  0  0  0  0  0  0
   24.7569  -20.3143  -10.8828 C   0  0  0  0  0  0  0  0  0  0  0  0
   25.9037  -21.4818  -10.0768 S   0  0  0  0  0  0  0  0  0  0  0  0
   22.4164  -20.7812  -11.2986 C   0  0  0  0  0  0  0  0  0  0  0  0
   21.7490  -19.8548  -11.7972 O   0  0  0  0  0  0  0  0  0  0  0  0
   21.8171  -21.5187  -10.2891 O   0  0  0  0  0  0  0  0  0  0  0  0
  2  1  1  1
  3  2  1  0
  4  2  1  0
  4  5  2  0
  6  7  1  0
  6  4  1  0
  7  8  1  6
  9  8  1  0
 10 11  1  0
 10  9  1  0
 11 12  1  0
 13  7  1  0
 14 13  2  0
 15 13  1  0
 16 15  1  0
 16 19  1  0
 16 17  1  1
 18 17  1  0
 19 21  1  0
 20 19  2  0
M  END
$$$$
