FYR.pdb
     RDKit          3D

 35 36  0  0  1  0  0  0  0  0999 V2000
    6.6290  -18.1672   26.7282 N   0  0  0  0  0  0  0  0  0  0  0  0
    7.3983  -16.9140   26.6835 C   0  0  1  0  0  0  0  0  0  0  0  0
    8.6704  -17.0576   27.4917 C   0  0  0  0  0  0  0  0  0  0  0  0
    9.2555  -15.7376   27.7839 C   0  0  0  0  0  0  0  0  0  0  0  0
    8.6618  -14.5502   27.4128 C   0  0  0  0  0  0  0  0  0  0  0  0
    9.2646  -13.3506   27.7188 C   0  0  0  0  0  0  0  0  0  0  0  0
   10.4756  -13.2935   28.4028 C   0  0  0  0  0  0  0  0  0  0  0  0
   11.0408  -14.4953   28.7582 C   0  0  0  0  0  0  0  0  0  0  0  0
   10.4743  -15.7176   28.4731 C   0  0  0  0  0  0  0  0  0  0  0  0
    7.7060  -16.6373   25.2693 C   0  0  0  0  0  0  0  0  0  0  0  0
    8.1144  -17.5673   24.4891 O   0  0  0  0  0  0  0  0  0  0  0  0
    8.4757  -13.1064   17.1795 O   0  0  0  0  0  0  0  0  0  0  0  0
    8.2329  -13.2727   18.5440 C   0  0  0  0  0  0  0  0  0  0  0  0
    9.1276  -12.7819   19.4747 C   0  0  0  0  0  0  0  0  0  0  0  0
    8.9033  -12.9372   20.8466 C   0  0  0  0  0  0  0  0  0  0  0  0
    7.7828  -13.5850   21.3208 C   0  0  0  0  0  0  0  0  0  0  0  0
    7.5331  -13.7566   22.7787 C   0  0  0  0  0  0  0  0  0  0  0  0
    7.9121  -15.1201   23.2685 C   0  0  2  0  0  0  0  0  0  0  0  0
    7.5899  -15.3704   24.6418 N   0  0  0  0  0  0  0  0  0  0  0  0
    9.3418  -15.3511   22.9451 C   0  0  0  0  0  0  0  0  0  0  0  0
   10.2167  -14.9352   23.7228 O   0  0  0  0  0  0  0  0  0  0  0  0
    6.8952  -14.0713   20.3739 C   0  0  0  0  0  0  0  0  0  0  0  0
    7.1148  -13.9188   19.0205 C   0  0  0  0  0  0  0  0  0  0  0  0
   14.6863  -19.1299   17.7540 N   0  0  0  0  0  0  0  0  0  0  0  0
   14.2056  -20.2450   18.4833 C   0  0  0  0  0  0  0  0  0  0  0  0
   14.9761  -21.2666   18.6196 N   0  0  0  0  0  0  0  0  0  0  0  0
   12.9123  -20.2229   19.0472 N   0  0  0  0  0  0  0  0  0  0  0  0
   12.0482  -19.0957   18.8733 C   0  0  0  0  0  0  0  0  0  0  0  0
   12.2369  -17.9919   19.8639 C   0  0  0  0  0  0  0  0  0  0  0  0
   10.9285  -17.5558   20.4481 C   0  0  0  0  0  0  0  0  0  0  0  0
   11.0305  -16.4414   21.4631 C   0  0  2  0  0  0  0  0  0  0  0  0
    9.6520  -16.0441   21.7529 N   0  0  0  0  0  0  0  0  0  0  0  0
   11.7826  -15.2755   21.0127 C   0  0  0  0  0  0  0  0  0  0  0  0
   13.1314  -15.1624   21.2645 O   0  0  0  0  0  0  0  0  0  0  0  0
   11.2109  -14.3516   20.3861 O   0  0  0  0  0  0  0  0  0  0  0  0
  2  1  1  6
  2  3  1  0
  3  4  1  0
  4  9  1  0
  5  4  2  0
  5  6  1  0
  6  7  2  0
  7  8  1  0
  9  8  2  0
 10  2  1  0
 10 19  1  0
 11 10  2  0
 12 13  1  0
 13 14  2  0
 14 15  1  0
 16 17  1  0
 16 15  2  0
 18 17  1  1
 18 19  1  0
 18 20  1  0
 20 32  1  0
 21 20  2  0
 22 16  1  0
 23 22  2  0
 23 13  1  0
 25 24  1  0
 25 26  2  0
 27 25  1  0
 28 27  1  0
 29 28  1  0
 30 29  1  0
 31 30  1  6
 31 33  1  0
 32 31  1  0
 33 34  1  0
 35 33  2  0
M  END
$$$$
