FYR.pdb
     RDKit          3D

 35 36  0  0  1  0  0  0  0  0999 V2000
    5.3710  -17.1584   24.4127 N   0  0  0  0  0  0  0  0  0  0  0  0
    6.1895  -15.9440   24.5534 C   0  0  1  0  0  0  0  0  0  0  0  0
    6.3866  -15.6187   26.0188 C   0  0  0  0  0  0  0  0  0  0  0  0
    6.5802  -14.1711   26.2111 C   0  0  0  0  0  0  0  0  0  0  0  0
    7.8228  -13.5771   26.2688 C   0  0  0  0  0  0  0  0  0  0  0  0
    7.9309  -12.2165   26.4507 C   0  0  0  0  0  0  0  0  0  0  0  0
    6.8081  -11.4040   26.5807 C   0  0  0  0  0  0  0  0  0  0  0  0
    5.5846  -12.0277   26.5187 C   0  0  0  0  0  0  0  0  0  0  0  0
    5.4291  -13.3840   26.3385 C   0  0  0  0  0  0  0  0  0  0  0  0
    7.4827  -16.2071   23.8979 C   0  0  0  0  0  0  0  0  0  0  0  0
    8.0197  -17.3691   23.9415 O   0  0  0  0  0  0  0  0  0  0  0  0
    7.0355  -13.9663   16.8851 O   0  0  0  0  0  0  0  0  0  0  0  0
    7.7680  -14.0637   18.0693 C   0  0  0  0  0  0  0  0  0  0  0  0
    8.4066  -15.2436   18.3973 C   0  0  0  0  0  0  0  0  0  0  0  0
    9.1462  -15.3625   19.5786 C   0  0  0  0  0  0  0  0  0  0  0  0
    9.2653  -14.3083   20.4586 C   0  0  0  0  0  0  0  0  0  0  0  0
   10.0497  -14.4226   21.7191 C   0  0  0  0  0  0  0  0  0  0  0  0
    9.5358  -15.5050   22.6177 C   0  0  2  0  0  0  0  0  0  0  0  0
    8.2426  -15.2493   23.1786 N   0  0  0  0  0  0  0  0  0  0  0  0
   10.5746  -15.7978   23.6363 C   0  0  0  0  0  0  0  0  0  0  0  0
   10.9917  -14.8797   24.3618 O   0  0  0  0  0  0  0  0  0  0  0  0
    8.6187  -13.1317   20.1146 C   0  0  0  0  0  0  0  0  0  0  0  0
    7.8891  -13.0127   18.9499 C   0  0  0  0  0  0  0  0  0  0  0  0
   10.5924  -20.7665   30.1942 N   0  0  0  0  0  0  0  0  0  0  0  0
   11.9945  -20.7006   30.0044 C   0  0  0  0  0  0  0  0  0  0  0  0
   12.7617  -21.0586   30.9734 N   0  0  0  0  0  0  0  0  0  0  0  0
   12.5262  -20.2561   28.7753 N   0  0  0  0  0  0  0  0  0  0  0  0
   11.6857  -19.6824   27.7693 C   0  0  0  0  0  0  0  0  0  0  0  0
   12.3931  -19.2322   26.5315 C   0  0  0  0  0  0  0  0  0  0  0  0
   11.4485  -18.5716   25.5751 C   0  0  0  0  0  0  0  0  0  0  0  0
   12.0625  -17.4733   24.7387 C   0  0  2  0  0  0  0  0  0  0  0  0
   11.0504  -17.1247   23.7406 N   0  0  0  0  0  0  0  0  0  0  0  0
   13.2992  -17.8448   24.0602 C   0  0  0  0  0  0  0  0  0  0  0  0
   14.5173  -17.7203   24.6898 O   0  0  0  0  0  0  0  0  0  0  0  0
   13.2744  -18.2854   22.8862 O   0  0  0  0  0  0  0  0  0  0  0  0
  2  1  1  1
  2  3  1  0
  3  4  1  0
  4  9  1  0
  5  4  2  0
  5  6  1  0
  6  7  2  0
  7  8  1  0
  9  8  2  0
 10  2  1  0
 10 19  1  0
 11 10  2  0
 12 13  1  0
 13 14  2  0
 14 15  1  0
 16 17  1  0
 16 15  2  0
 18 17  1  1
 18 19  1  0
 18 20  1  0
 20 32  1  0
 21 20  2  0
 22 16  1  0
 23 22  2  0
 23 13  1  0
 25 24  1  0
 25 26  2  0
 27 25  1  0
 28 27  1  0
 29 28  1  0
 30 29  1  0
 31 30  1  6
 31 33  1  0
 32 31  1  0
 33 34  1  0
 35 33  2  0
M  END
$$$$
