FYR.pdb
     RDKit          3D

 35 36  0  0  1  0  0  0  0  0999 V2000
    6.9268  -16.1905   26.9109 N   0  0  0  0  0  0  0  0  0  0  0  0
    7.8483  -15.8777   25.8076 C   0  0  1  0  0  0  0  0  0  0  0  0
    8.4952  -14.5286   26.0391 C   0  0  0  0  0  0  0  0  0  0  0  0
    7.4769  -13.4668   26.1136 C   0  0  0  0  0  0  0  0  0  0  0  0
    7.0141  -12.7862   25.0078 C   0  0  0  0  0  0  0  0  0  0  0  0
    6.0597  -11.8039   25.1501 C   0  0  0  0  0  0  0  0  0  0  0  0
    5.5355  -11.4675   26.3950 C   0  0  0  0  0  0  0  0  0  0  0  0
    6.0184  -12.1650   27.4768 C   0  0  0  0  0  0  0  0  0  0  0  0
    6.9718  -13.1540   27.3817 C   0  0  0  0  0  0  0  0  0  0  0  0
    8.8641  -16.9444   25.7673 C   0  0  0  0  0  0  0  0  0  0  0  0
    9.7414  -17.0548   26.6939 O   0  0  0  0  0  0  0  0  0  0  0  0
    8.0907  -21.1971   30.0568 O   0  0  0  0  0  0  0  0  0  0  0  0
    8.5487  -20.9410   28.7633 C   0  0  0  0  0  0  0  0  0  0  0  0
    9.9031  -20.9390   28.4926 C   0  0  0  0  0  0  0  0  0  0  0  0
   10.3834  -20.6852   27.2036 C   0  0  0  0  0  0  0  0  0  0  0  0
    9.5245  -20.4279   26.1566 C   0  0  0  0  0  0  0  0  0  0  0  0
   10.0237  -20.1564   24.7802 C   0  0  0  0  0  0  0  0  0  0  0  0
   10.1628  -18.6919   24.4995 C   0  0  2  0  0  0  0  0  0  0  0  0
    8.9795  -17.9231   24.7470 N   0  0  0  0  0  0  0  0  0  0  0  0
   10.6967  -18.5292   23.1245 C   0  0  0  0  0  0  0  0  0  0  0  0
   11.0385  -19.5355   22.4812 O   0  0  0  0  0  0  0  0  0  0  0  0
    8.1690  -20.4338   26.4451 C   0  0  0  0  0  0  0  0  0  0  0  0
    7.6936  -20.6840   27.7157 C   0  0  0  0  0  0  0  0  0  0  0  0
    7.3452  -12.5991   17.9126 N   0  0  0  0  0  0  0  0  0  0  0  0
    8.1895  -13.3000   17.0170 C   0  0  0  0  0  0  0  0  0  0  0  0
    8.1152  -13.0249   15.7622 N   0  0  0  0  0  0  0  0  0  0  0  0
    9.0910  -14.2714   17.5015 N   0  0  0  0  0  0  0  0  0  0  0  0
    9.2178  -14.5300   18.9031 C   0  0  0  0  0  0  0  0  0  0  0  0
   10.1934  -15.6035   19.2653 C   0  0  0  0  0  0  0  0  0  0  0  0
   10.0760  -15.9801   20.7102 C   0  0  0  0  0  0  0  0  0  0  0  0
   11.0751  -17.0132   21.1765 C   0  0  2  0  0  0  0  0  0  0  0  0
   10.7935  -17.2212   22.5975 N   0  0  0  0  0  0  0  0  0  0  0  0
   12.4718  -16.6249   21.0146 C   0  0  0  0  0  0  0  0  0  0  0  0
   13.2723  -16.3877   22.1094 O   0  0  0  0  0  0  0  0  0  0  0  0
   12.9697  -16.4991   19.8703 O   0  0  0  0  0  0  0  0  0  0  0  0
  2  1  1  1
  2  3  1  0
  3  4  1  0
  4  9  1  0
  5  4  2  0
  5  6  1  0
  6  7  2  0
  7  8  1  0
  9  8  2  0
 10  2  1  0
 10 19  1  0
 11 10  2  0
 12 13  1  0
 13 14  2  0
 14 15  1  0
 16 17  1  0
 16 15  2  0
 18 17  1  6
 18 19  1  0
 18 20  1  0
 20 32  1  0
 21 20  2  0
 22 16  1  0
 23 22  2  0
 23 13  1  0
 25 24  1  0
 25 26  2  0
 27 25  1  0
 28 27  1  0
 29 28  1  0
 30 29  1  0
 31 30  1  1
 31 33  1  0
 32 31  1  0
 33 34  1  0
 35 33  2  0
M  END
$$$$
