FYR.pdb
     RDKit          3D

 35 36  0  0  1  0  0  0  0  0999 V2000
   10.2664  -17.0019   20.2717 N   0  0  0  0  0  0  0  0  0  0  0  0
    9.6969  -15.9120   21.0792 C   0  0  1  0  0  0  0  0  0  0  0  0
    8.1855  -15.9394   20.9949 C   0  0  0  0  0  0  0  0  0  0  0  0
    7.6427  -14.5734   20.8982 C   0  0  0  0  0  0  0  0  0  0  0  0
    7.3127  -13.8129   21.9995 C   0  0  0  0  0  0  0  0  0  0  0  0
    6.8095  -12.5416   21.8361 C   0  0  0  0  0  0  0  0  0  0  0  0
    6.6188  -11.9865   20.5738 C   0  0  0  0  0  0  0  0  0  0  0  0
    6.9579  -12.7712   19.4971 C   0  0  0  0  0  0  0  0  0  0  0  0
    7.4636  -14.0467   19.6131 C   0  0  0  0  0  0  0  0  0  0  0  0
   10.1466  -16.1125   22.4680 C   0  0  0  0  0  0  0  0  0  0  0  0
   10.9788  -17.0399   22.7642 O   0  0  0  0  0  0  0  0  0  0  0  0
   11.3650  -15.7469   31.2495 O   0  0  0  0  0  0  0  0  0  0  0  0
   10.9062  -15.4921   29.9561 C   0  0  0  0  0  0  0  0  0  0  0  0
   11.5823  -14.6067   29.1398 C   0  0  0  0  0  0  0  0  0  0  0  0
   11.1400  -14.3374   27.8405 C   0  0  0  0  0  0  0  0  0  0  0  0
   10.0143  -14.9446   27.3264 C   0  0  0  0  0  0  0  0  0  0  0  0
    9.5336  -14.6660   25.9449 C   0  0  0  0  0  0  0  0  0  0  0  0
   10.1783  -15.5522   24.9241 C   0  0  2  0  0  0  0  0  0  0  0  0
    9.7291  -15.3381   23.5808 N   0  0  0  0  0  0  0  0  0  0  0  0
   10.0424  -16.9593   25.3757 C   0  0  0  0  0  0  0  0  0  0  0  0
    8.9328  -17.5144   25.3126 O   0  0  0  0  0  0  0  0  0  0  0  0
    9.3477  -15.8302   28.1583 C   0  0  0  0  0  0  0  0  0  0  0  0
    9.7827  -16.0970   29.4399 C   0  0  0  0  0  0  0  0  0  0  0  0
   14.7083  -20.3334   21.0702 N   0  0  0  0  0  0  0  0  0  0  0  0
   13.3412  -20.2122   20.7196 C   0  0  0  0  0  0  0  0  0  0  0  0
   13.0282  -20.1894   19.4717 N   0  0  0  0  0  0  0  0  0  0  0  0
   12.3539  -20.1248   21.7239 N   0  0  0  0  0  0  0  0  0  0  0  0
   12.7096  -20.0708   23.1089 C   0  0  0  0  0  0  0  0  0  0  0  0
   11.5585  -19.9575   24.0563 C   0  0  0  0  0  0  0  0  0  0  0  0
   12.0304  -19.7998   25.4690 C   0  0  0  0  0  0  0  0  0  0  0  0
   11.1107  -18.9928   26.3554 C   0  0  2  0  0  0  0  0  0  0  0  0
   11.1946  -17.6172   25.8628 N   0  0  0  0  0  0  0  0  0  0  0  0
   11.4553  -19.0182   27.7726 C   0  0  0  0  0  0  0  0  0  0  0  0
   10.5745  -19.5154   28.7067 O   0  0  0  0  0  0  0  0  0  0  0  0
   12.5645  -18.5849   28.1665 O   0  0  0  0  0  0  0  0  0  0  0  0
  2  1  1  6
  2  3  1  0
  3  4  1  0
  4  9  1  0
  5  4  2  0
  5  6  1  0
  6  7  2  0
  7  8  1  0
  9  8  2  0
 10  2  1  0
 10 19  1  0
 11 10  2  0
 12 13  1  0
 13 14  2  0
 14 15  1  0
 16 17  1  0
 16 15  2  0
 18 17  1  1
 18 19  1  0
 18 20  1  0
 20 32  1  0
 21 20  2  0
 22 16  1  0
 23 22  2  0
 23 13  1  0
 25 24  1  0
 25 26  2  0
 27 25  1  0
 28 27  1  0
 29 28  1  0
 30 29  1  0
 31 30  1  6
 31 33  1  0
 32 31  1  0
 33 34  1  0
 35 33  2  0
M  END
$$$$
