FYR.pdb
     RDKit          3D

 35 36  0  0  1  0  0  0  0  0999 V2000
    6.2813  -18.5258   25.8498 N   0  0  0  0  0  0  0  0  0  0  0  0
    6.4402  -17.0638   25.8085 C   0  0  1  0  0  0  0  0  0  0  0  0
    7.3237  -16.6059   26.9495 C   0  0  0  0  0  0  0  0  0  0  0  0
    7.3894  -15.1352   27.0017 C   0  0  0  0  0  0  0  0  0  0  0  0
    6.2933  -14.3234   26.8024 C   0  0  0  0  0  0  0  0  0  0  0  0
    6.4265  -12.9543   26.8656 C   0  0  0  0  0  0  0  0  0  0  0  0
    7.6523  -12.3495   27.1289 C   0  0  0  0  0  0  0  0  0  0  0  0
    8.7248  -13.1874   27.3227 C   0  0  0  0  0  0  0  0  0  0  0  0
    8.6383  -14.5606   27.2684 C   0  0  0  0  0  0  0  0  0  0  0  0
    7.0464  -16.7239   24.5092 C   0  0  0  0  0  0  0  0  0  0  0  0
    7.9647  -17.4562   23.9984 O   0  0  0  0  0  0  0  0  0  0  0  0
    9.1505  -13.0378   16.7173 O   0  0  0  0  0  0  0  0  0  0  0  0
    8.5871  -13.2754   17.9721 C   0  0  0  0  0  0  0  0  0  0  0  0
    9.0001  -12.5457   19.0697 C   0  0  0  0  0  0  0  0  0  0  0  0
    8.4484  -12.7674   20.3357 C   0  0  0  0  0  0  0  0  0  0  0  0
    7.4733  -13.7210   20.5356 C   0  0  0  0  0  0  0  0  0  0  0  0
    6.8785  -13.9662   21.8785 C   0  0  0  0  0  0  0  0  0  0  0  0
    7.3492  -15.2507   22.4880 C   0  0  2  0  0  0  0  0  0  0  0  0
    6.6980  -15.6015   23.7149 N   0  0  0  0  0  0  0  0  0  0  0  0
    8.8283  -15.2007   22.5970 C   0  0  0  0  0  0  0  0  0  0  0  0
    9.3485  -14.5841   23.5418 O   0  0  0  0  0  0  0  0  0  0  0  0
    7.0702  -14.4442   19.4241 C   0  0  0  0  0  0  0  0  0  0  0  0
    7.6131  -14.2267   18.1748 C   0  0  0  0  0  0  0  0  0  0  0  0
   12.4399  -18.9849   25.3938 N   0  0  0  0  0  0  0  0  0  0  0  0
   13.2516  -19.9838   24.8025 C   0  0  0  0  0  0  0  0  0  0  0  0
   13.6263  -20.9781   25.5282 N   0  0  0  0  0  0  0  0  0  0  0  0
   13.6300  -19.8831   23.4469 N   0  0  0  0  0  0  0  0  0  0  0  0
   12.6914  -19.4817   22.4442 C   0  0  0  0  0  0  0  0  0  0  0  0
   12.6148  -18.0089   22.1990 C   0  0  0  0  0  0  0  0  0  0  0  0
   11.1952  -17.5556   22.0487 C   0  0  0  0  0  0  0  0  0  0  0  0
   11.0282  -16.0745   21.8013 C   0  0  2  0  0  0  0  0  0  0  0  0
    9.5922  -15.8656   21.6110 N   0  0  0  0  0  0  0  0  0  0  0  0
   11.7465  -15.5677   20.6372 C   0  0  0  0  0  0  0  0  0  0  0  0
   11.0694  -15.1560   19.5113 O   0  0  0  0  0  0  0  0  0  0  0  0
   12.9988  -15.4985   20.6416 O   0  0  0  0  0  0  0  0  0  0  0  0
  2  1  1  6
  2  3  1  0
  3  4  1  0
  4  9  1  0
  5  4  2  0
  5  6  1  0
  6  7  2  0
  7  8  1  0
  9  8  2  0
 10  2  1  0
 10 19  1  0
 11 10  2  0
 12 13  1  0
 13 14  2  0
 14 15  1  0
 16 17  1  0
 16 15  2  0
 18 17  1  1
 18 19  1  0
 18 20  1  0
 20 32  1  0
 21 20  2  0
 22 16  1  0
 23 22  2  0
 23 13  1  0
 25 24  1  0
 25 26  2  0
 27 25  1  0
 28 27  1  0
 29 28  1  0
 30 29  1  0
 31 30  1  6
 31 33  1  0
 32 31  1  0
 33 34  1  0
 35 33  2  0
M  END
$$$$
