FYR.pdb
     RDKit          3D

 35 36  0  0  1  0  0  0  0  0999 V2000
   10.4524  -16.5678   19.7785 N   0  0  0  0  0  0  0  0  0  0  0  0
    9.7598  -15.5710   20.6098 C   0  0  1  0  0  0  0  0  0  0  0  0
    8.2664  -15.6453   20.3722 C   0  0  0  0  0  0  0  0  0  0  0  0
    7.6579  -14.3060   20.4486 C   0  0  0  0  0  0  0  0  0  0  0  0
    8.3919  -13.1527   20.6253 C   0  0  0  0  0  0  0  0  0  0  0  0
    7.7574  -11.9322   20.6877 C   0  0  0  0  0  0  0  0  0  0  0  0
    6.3744  -11.8197   20.5764 C   0  0  0  0  0  0  0  0  0  0  0  0
    5.6724  -12.9886   20.4011 C   0  0  0  0  0  0  0  0  0  0  0  0
    6.2644  -14.2300   20.3332 C   0  0  0  0  0  0  0  0  0  0  0  0
   10.0809  -15.8717   22.0161 C   0  0  0  0  0  0  0  0  0  0  0  0
   10.8118  -16.8770   22.3250 O   0  0  0  0  0  0  0  0  0  0  0  0
   10.8842  -15.8890   30.8463 O   0  0  0  0  0  0  0  0  0  0  0  0
   10.5115  -15.5534   29.5437 C   0  0  0  0  0  0  0  0  0  0  0  0
    9.5410  -16.2848   28.8874 C   0  0  0  0  0  0  0  0  0  0  0  0
    9.1523  -15.9653   27.5823 C   0  0  0  0  0  0  0  0  0  0  0  0
    9.7224  -14.9101   26.9028 C   0  0  0  0  0  0  0  0  0  0  0  0
    9.3171  -14.5603   25.5133 C   0  0  0  0  0  0  0  0  0  0  0  0
   10.0514  -15.3618   24.4831 C   0  0  2  0  0  0  0  0  0  0  0  0
    9.6385  -15.1178   23.1333 N   0  0  0  0  0  0  0  0  0  0  0  0
    9.9863  -16.7925   24.8718 C   0  0  0  0  0  0  0  0  0  0  0  0
    8.9053  -17.3984   24.7843 O   0  0  0  0  0  0  0  0  0  0  0  0
   10.6944  -14.1865   27.5755 C   0  0  0  0  0  0  0  0  0  0  0  0
   11.0787  -14.5002   28.8627 C   0  0  0  0  0  0  0  0  0  0  0  0
   15.2714  -22.5623   22.2340 N   0  0  0  0  0  0  0  0  0  0  0  0
   15.2646  -22.8750   23.6155 C   0  0  0  0  0  0  0  0  0  0  0  0
   16.1272  -23.7219   24.0565 N   0  0  0  0  0  0  0  0  0  0  0  0
   14.3326  -22.2619   24.4795 N   0  0  0  0  0  0  0  0  0  0  0  0
   13.1746  -21.5960   23.9667 C   0  0  0  0  0  0  0  0  0  0  0  0
   12.2872  -20.9788   24.9996 C   0  0  0  0  0  0  0  0  0  0  0  0
   12.0502  -19.5273   24.7159 C   0  0  0  0  0  0  0  0  0  0  0  0
   11.1656  -18.8243   25.7189 C   0  0  2  0  0  0  0  0  0  0  0  0
   11.1707  -17.4136   25.3291 N   0  0  0  0  0  0  0  0  0  0  0  0
   11.6049  -18.9420   27.1049 C   0  0  0  0  0  0  0  0  0  0  0  0
   11.3041  -20.0597   27.8505 O   0  0  0  0  0  0  0  0  0  0  0  0
   12.2664  -18.0228   27.6439 O   0  0  0  0  0  0  0  0  0  0  0  0
  2  1  1  6
  2  3  1  0
  3  4  1  0
  4  9  1  0
  5  4  2  0
  5  6  1  0
  6  7  2  0
  7  8  1  0
  9  8  2  0
 10  2  1  0
 10 19  1  0
 11 10  2  0
 12 13  1  0
 13 14  2  0
 14 15  1  0
 16 17  1  0
 16 15  2  0
 18 17  1  1
 18 19  1  0
 18 20  1  0
 20 32  1  0
 21 20  2  0
 22 16  1  0
 23 22  2  0
 23 13  1  0
 25 24  1  0
 25 26  2  0
 27 25  1  0
 28 27  1  0
 29 28  1  0
 30 29  1  0
 31 30  1  6
 31 33  1  0
 32 31  1  0
 33 34  1  0
 35 33  2  0
M  END
$$$$
