FYR.pdb
     RDKit          3D

 35 36  0  0  1  0  0  0  0  0999 V2000
    7.3686  -16.9146   17.6415 N   0  0  0  0  0  0  0  0  0  0  0  0
    7.9996  -15.8869   16.7989 C   0  0  1  0  0  0  0  0  0  0  0  0
    7.5095  -14.5126   17.2028 C   0  0  0  0  0  0  0  0  0  0  0  0
    7.8084  -14.2472   18.6206 C   0  0  0  0  0  0  0  0  0  0  0  0
    8.8200  -13.4070   19.0341 C   0  0  0  0  0  0  0  0  0  0  0  0
    9.0442  -13.2039   20.3774 C   0  0  0  0  0  0  0  0  0  0  0  0
    8.2706  -13.8289   21.3513 C   0  0  0  0  0  0  0  0  0  0  0  0
    7.2704  -14.6600   20.9054 C   0  0  0  0  0  0  0  0  0  0  0  0
    7.0106  -14.8928   19.5733 C   0  0  0  0  0  0  0  0  0  0  0  0
    9.4569  -15.9983   16.9868 C   0  0  0  0  0  0  0  0  0  0  0  0
    9.9548  -16.8756   17.7760 O   0  0  0  0  0  0  0  0  0  0  0  0
   18.2164  -15.7420   15.8744 O   0  0  0  0  0  0  0  0  0  0  0  0
   16.8590  -15.4193   15.8334 C   0  0  0  0  0  0  0  0  0  0  0  0
   16.4095  -14.2314   16.3759 C   0  0  0  0  0  0  0  0  0  0  0  0
   15.0538  -13.8885   16.3450 C   0  0  0  0  0  0  0  0  0  0  0  0
   14.1166  -14.7218   15.7729 C   0  0  0  0  0  0  0  0  0  0  0  0
   12.6708  -14.3678   15.7340 C   0  0  0  0  0  0  0  0  0  0  0  0
   11.8361  -15.2724   16.5871 C   0  0  2  0  0  0  0  0  0  0  0  0
   10.4267  -15.1856   16.3454 N   0  0  0  0  0  0  0  0  0  0  0  0
   12.2074  -15.0486   18.0064 C   0  0  0  0  0  0  0  0  0  0  0  0
   11.8266  -14.0142   18.5793 O   0  0  0  0  0  0  0  0  0  0  0  0
   14.5842  -15.9096   15.2331 C   0  0  0  0  0  0  0  0  0  0  0  0
   15.9209  -16.2493   15.2626 C   0  0  0  0  0  0  0  0  0  0  0  0
    9.3672  -15.6816   24.7518 N   0  0  0  0  0  0  0  0  0  0  0  0
   10.4703  -16.4191   25.2474 C   0  0  0  0  0  0  0  0  0  0  0  0
   10.6039  -16.5404   26.5214 N   0  0  0  0  0  0  0  0  0  0  0  0
   11.3918  -17.0073   24.3553 N   0  0  0  0  0  0  0  0  0  0  0  0
   11.3020  -16.7843   22.9447 C   0  0  0  0  0  0  0  0  0  0  0  0
   12.4626  -17.2863   22.1471 C   0  0  0  0  0  0  0  0  0  0  0  0
   12.2705  -17.0263   20.6846 C   0  0  0  0  0  0  0  0  0  0  0  0
   13.1934  -15.9810   20.1027 C   0  0  2  0  0  0  0  0  0  0  0  0
   12.9863  -16.0337   18.6549 N   0  0  0  0  0  0  0  0  0  0  0  0
   14.6075  -16.1882   20.3943 C   0  0  0  0  0  0  0  0  0  0  0  0
   15.4794  -16.6038   19.4131 O   0  0  0  0  0  0  0  0  0  0  0  0
   15.0556  -15.9911   21.5491 O   0  0  0  0  0  0  0  0  0  0  0  0
  2  1  1  1
  2  3  1  0
  3  4  1  0
  4  9  1  0
  5  4  2  0
  5  6  1  0
  6  7  2  0
  7  8  1  0
  9  8  2  0
 10  2  1  0
 10 19  1  0
 11 10  2  0
 12 13  1  0
 13 14  2  0
 14 15  1  0
 16 17  1  0
 16 15  2  0
 18 17  1  6
 18 19  1  0
 18 20  1  0
 20 32  1  0
 21 20  2  0
 22 16  1  0
 23 22  2  0
 23 13  1  0
 25 24  1  0
 25 26  2  0
 27 25  1  0
 28 27  1  0
 29 28  1  0
 30 29  1  0
 31 30  1  1
 31 33  1  0
 32 31  1  0
 33 34  1  0
 35 33  2  0
M  END
$$$$
