FYR.pdb
     RDKit          3D

 35 36  0  0  1  0  0  0  0  0999 V2000
    6.9698  -18.3250   26.0471 N   0  0  0  0  0  0  0  0  0  0  0  0
    6.8361  -16.8648   25.9285 C   0  0  1  0  0  0  0  0  0  0  0  0
    7.5439  -16.1841   27.0808 C   0  0  0  0  0  0  0  0  0  0  0  0
    7.3946  -14.7211   26.9947 C   0  0  0  0  0  0  0  0  0  0  0  0
    8.4640  -13.8514   27.0067 C   0  0  0  0  0  0  0  0  0  0  0  0
    8.2517  -12.4935   26.9226 C   0  0  0  0  0  0  0  0  0  0  0  0
    6.9707  -11.9577   26.8240 C   0  0  0  0  0  0  0  0  0  0  0  0
    5.9268  -12.8521   26.8148 C   0  0  0  0  0  0  0  0  0  0  0  0
    6.0919  -14.2167   26.8970 C   0  0  0  0  0  0  0  0  0  0  0  0
    7.4355  -16.4714   24.6412 C   0  0  0  0  0  0  0  0  0  0  0  0
    8.4814  -17.0599   24.1936 O   0  0  0  0  0  0  0  0  0  0  0  0
    8.8730  -13.0753   16.5703 O   0  0  0  0  0  0  0  0  0  0  0  0
    8.3926  -13.2845   17.8641 C   0  0  0  0  0  0  0  0  0  0  0  0
    8.7592  -12.4336   18.8884 C   0  0  0  0  0  0  0  0  0  0  0  0
    8.2889  -12.6249   20.1918 C   0  0  0  0  0  0  0  0  0  0  0  0
    7.4433  -13.6681   20.5027 C   0  0  0  0  0  0  0  0  0  0  0  0
    6.9362  -13.8821   21.8863 C   0  0  0  0  0  0  0  0  0  0  0  0
    7.5344  -15.0920   22.5353 C   0  0  2  0  0  0  0  0  0  0  0  0
    6.9454  -15.4460   23.7923 N   0  0  0  0  0  0  0  0  0  0  0  0
    9.0051  -14.9057   22.6031 C   0  0  0  0  0  0  0  0  0  0  0  0
    9.4859  -14.1730   23.4836 O   0  0  0  0  0  0  0  0  0  0  0  0
    7.0852  -14.5124   19.4636 C   0  0  0  0  0  0  0  0  0  0  0  0
    7.5479  -14.3251   18.1776 C   0  0  0  0  0  0  0  0  0  0  0  0
   13.1917  -21.2063   24.1518 N   0  0  0  0  0  0  0  0  0  0  0  0
   13.3763  -20.9316   22.7746 C   0  0  0  0  0  0  0  0  0  0  0  0
   13.6523  -21.9103   21.9860 N   0  0  0  0  0  0  0  0  0  0  0  0
   13.2527  -19.6126   22.2891 N   0  0  0  0  0  0  0  0  0  0  0  0
   13.3590  -18.4876   23.1670 C   0  0  0  0  0  0  0  0  0  0  0  0
   13.0924  -17.1600   22.5334 C   0  0  0  0  0  0  0  0  0  0  0  0
   11.6222  -16.9051   22.4028 C   0  0  0  0  0  0  0  0  0  0  0  0
   11.2649  -15.5764   21.7785 C   0  0  2  0  0  0  0  0  0  0  0  0
    9.8067  -15.5787   21.6532 N   0  0  0  0  0  0  0  0  0  0  0  0
   11.8600  -15.3406   20.4678 C   0  0  0  0  0  0  0  0  0  0  0  0
   13.1052  -14.7655   20.3485 O   0  0  0  0  0  0  0  0  0  0  0  0
   11.2447  -15.6586   19.4221 O   0  0  0  0  0  0  0  0  0  0  0  0
  2  1  1  1
  2  3  1  0
  3  4  1  0
  4  9  1  0
  5  4  2  0
  5  6  1  0
  6  7  2  0
  7  8  1  0
  9  8  2  0
 10  2  1  0
 10 19  1  0
 11 10  2  0
 12 13  1  0
 13 14  2  0
 14 15  1  0
 16 17  1  0
 16 15  2  0
 18 17  1  1
 18 19  1  0
 18 20  1  0
 20 32  1  0
 21 20  2  0
 22 16  1  0
 23 22  2  0
 23 13  1  0
 25 24  1  0
 25 26  2  0
 27 25  1  0
 28 27  1  0
 29 28  1  0
 30 29  1  0
 31 30  1  6
 31 33  1  0
 32 31  1  0
 33 34  1  0
 35 33  2  0
M  END
$$$$
