FYR.pdb
     RDKit          3D

 35 36  0  0  1  0  0  0  0  0999 V2000
   10.3249  -12.8790   20.3468 N   0  0  0  0  0  0  0  0  0  0  0  0
    9.1768  -13.5051   21.0209 C   0  0  1  0  0  0  0  0  0  0  0  0
    8.6576  -14.6619   20.1936 C   0  0  0  0  0  0  0  0  0  0  0  0
    8.0584  -14.1785   18.9378 C   0  0  0  0  0  0  0  0  0  0  0  0
    8.5799  -14.4637   17.6940 C   0  0  0  0  0  0  0  0  0  0  0  0
    7.9677  -13.9787   16.5600 C   0  0  0  0  0  0  0  0  0  0  0  0
    6.8187  -13.1958   16.6263 C   0  0  0  0  0  0  0  0  0  0  0  0
    6.3247  -12.9301   17.8814 C   0  0  0  0  0  0  0  0  0  0  0  0
    6.9035  -13.3933   19.0418 C   0  0  0  0  0  0  0  0  0  0  0  0
    9.6420  -13.9723   22.3387 C   0  0  0  0  0  0  0  0  0  0  0  0
   10.8296  -14.4253   22.4962 O   0  0  0  0  0  0  0  0  0  0  0  0
   10.3684  -16.2722   30.8802 O   0  0  0  0  0  0  0  0  0  0  0  0
    9.8883  -15.7625   29.6726 C   0  0  0  0  0  0  0  0  0  0  0  0
   10.1920  -14.4696   29.2934 C   0  0  0  0  0  0  0  0  0  0  0  0
    9.7216  -13.9395   28.0875 C   0  0  0  0  0  0  0  0  0  0  0  0
    8.9384  -14.6861   27.2335 C   0  0  0  0  0  0  0  0  0  0  0  0
    8.4317  -14.1328   25.9473 C   0  0  0  0  0  0  0  0  0  0  0  0
    9.3314  -14.4502   24.7928 C   0  0  2  0  0  0  0  0  0  0  0  0
    8.8646  -13.9728   23.5253 N   0  0  0  0  0  0  0  0  0  0  0  0
    9.6138  -15.9069   24.8083 C   0  0  0  0  0  0  0  0  0  0  0  0
    8.7142  -16.7047   24.4961 O   0  0  0  0  0  0  0  0  0  0  0  0
    8.6430  -15.9812   27.6289 C   0  0  0  0  0  0  0  0  0  0  0  0
    9.1063  -16.5056   28.8177 C   0  0  0  0  0  0  0  0  0  0  0  0
   12.1198  -14.6675   19.3112 N   0  0  0  0  0  0  0  0  0  0  0  0
   12.9268  -14.9948   20.4283 C   0  0  0  0  0  0  0  0  0  0  0  0
   13.5825  -14.0516   21.0082 N   0  0  0  0  0  0  0  0  0  0  0  0
   12.9982  -16.3265   20.8891 N   0  0  0  0  0  0  0  0  0  0  0  0
   11.9614  -16.8852   21.7018 C   0  0  0  0  0  0  0  0  0  0  0  0
   12.4312  -17.6019   22.9269 C   0  0  0  0  0  0  0  0  0  0  0  0
   11.2794  -18.1525   23.7102 C   0  0  0  0  0  0  0  0  0  0  0  0
   11.2578  -17.7522   25.1670 C   0  0  2  0  0  0  0  0  0  0  0  0
   10.9099  -16.3307   25.1805 N   0  0  0  0  0  0  0  0  0  0  0  0
   12.5217  -17.9448   25.8693 C   0  0  0  0  0  0  0  0  0  0  0  0
   13.0524  -19.2037   26.0399 O   0  0  0  0  0  0  0  0  0  0  0  0
   13.1493  -16.9627   26.3326 O   0  0  0  0  0  0  0  0  0  0  0  0
  2  1  1  6
  2  3  1  0
  3  4  1  0
  4  9  1  0
  5  4  2  0
  5  6  1  0
  6  7  2  0
  7  8  1  0
  9  8  2  0
 10  2  1  0
 10 19  1  0
 11 10  2  0
 12 13  1  0
 13 14  2  0
 14 15  1  0
 16 17  1  0
 16 15  2  0
 18 17  1  1
 18 19  1  0
 18 20  1  0
 20 32  1  0
 21 20  2  0
 22 16  1  0
 23 22  2  0
 23 13  1  0
 25 24  1  0
 25 26  2  0
 27 25  1  0
 28 27  1  0
 29 28  1  0
 30 29  1  0
 31 30  1  6
 31 33  1  0
 32 31  1  0
 33 34  1  0
 35 33  2  0
M  END
$$$$
