FYR.pdb
     RDKit          3D

 35 36  0  0  1  0  0  0  0  0999 V2000
    0.0927  -22.8064   18.4265 N   0  0  0  0  0  0  0  0  0  0  0  0
    0.3983  -22.8233   19.8655 C   0  0  1  0  0  0  0  0  0  0  0  0
   -0.0350  -21.5202   20.5028 C   0  0  0  0  0  0  0  0  0  0  0  0
    0.8330  -20.4121   20.0686 C   0  0  0  0  0  0  0  0  0  0  0  0
    2.0909  -20.1911   20.5872 C   0  0  0  0  0  0  0  0  0  0  0  0
    2.8494  -19.1348   20.1345 C   0  0  0  0  0  0  0  0  0  0  0  0
    2.3820  -18.2657   19.1528 C   0  0  0  0  0  0  0  0  0  0  0  0
    1.1241  -18.5141   18.6569 C   0  0  0  0  0  0  0  0  0  0  0  0
    0.3308  -19.5572   19.0797 C   0  0  0  0  0  0  0  0  0  0  0  0
   -0.3283  -23.9611   20.4560 C   0  0  0  0  0  0  0  0  0  0  0  0
   -1.5957  -24.0792   20.3140 O   0  0  0  0  0  0  0  0  0  0  0  0
   -3.6268  -26.3420   16.0926 O   0  0  0  0  0  0  0  0  0  0  0  0
   -2.8378  -26.5739   17.2205 C   0  0  0  0  0  0  0  0  0  0  0  0
   -3.3786  -27.1871   18.3337 C   0  0  0  0  0  0  0  0  0  0  0  0
   -2.6056  -27.4292   19.4741 C   0  0  0  0  0  0  0  0  0  0  0  0
   -1.2772  -27.0654   19.5299 C   0  0  0  0  0  0  0  0  0  0  0  0
   -0.4442  -27.3178   20.7381 C   0  0  0  0  0  0  0  0  0  0  0  0
   -0.4415  -26.1575   21.6850 C   0  0  2  0  0  0  0  0  0  0  0  0
    0.2651  -25.0045   21.2118 N   0  0  0  0  0  0  0  0  0  0  0  0
    0.0282  -26.6367   23.0086 C   0  0  0  0  0  0  0  0  0  0  0  0
    1.2198  -26.4824   23.3241 O   0  0  0  0  0  0  0  0  0  0  0  0
   -0.7502  -26.4514   18.4048 C   0  0  0  0  0  0  0  0  0  0  0  0
   -1.5111  -26.2120   17.2792 C   0  0  0  0  0  0  0  0  0  0  0  0
   -5.1920  -30.2531   29.1366 N   0  0  0  0  0  0  0  0  0  0  0  0
   -3.9246  -30.3307   29.7642 C   0  0  0  0  0  0  0  0  0  0  0  0
   -3.8512  -30.8624   30.9337 N   0  0  0  0  0  0  0  0  0  0  0  0
   -2.7753  -29.8380   29.1105 N   0  0  0  0  0  0  0  0  0  0  0  0
   -2.8716  -29.1618   27.8531 C   0  0  0  0  0  0  0  0  0  0  0  0
   -1.5654  -28.8746   27.1848 C   0  0  0  0  0  0  0  0  0  0  0  0
   -1.7681  -28.2125   25.8566 C   0  0  0  0  0  0  0  0  0  0  0  0
   -0.4962  -27.7723   25.1700 C   0  0  2  0  0  0  0  0  0  0  0  0
   -0.9109  -27.2544   23.8654 N   0  0  0  0  0  0  0  0  0  0  0  0
    0.4882  -28.8312   24.9765 C   0  0  0  0  0  0  0  0  0  0  0  0
    0.4021  -29.6908   23.9044 O   0  0  0  0  0  0  0  0  0  0  0  0
    1.4339  -28.9779   25.7871 O   0  0  0  0  0  0  0  0  0  0  0  0
  2  1  1  6
  2  3  1  0
  3  4  1  0
  4  9  1  0
  5  4  2  0
  5  6  1  0
  6  7  2  0
  7  8  1  0
  9  8  2  0
 10  2  1  0
 10 19  1  0
 11 10  2  0
 12 13  1  0
 13 14  2  0
 14 15  1  0
 16 17  1  0
 16 15  2  0
 18 17  1  6
 18 19  1  0
 18 20  1  0
 20 32  1  0
 21 20  2  0
 22 16  1  0
 23 22  2  0
 23 13  1  0
 25 24  1  0
 25 26  2  0
 27 25  1  0
 28 27  1  0
 29 28  1  0
 30 29  1  0
 31 30  1  6
 31 33  1  0
 32 31  1  0
 33 34  1  0
 35 33  2  0
M  END
$$$$
