FYR.pdb
     RDKit          3D

 35 36  0  0  1  0  0  0  0  0999 V2000
    5.0073  -17.0845   23.1262 N   0  0  0  0  0  0  0  0  0  0  0  0
    5.9920  -16.0812   23.5598 C   0  0  1  0  0  0  0  0  0  0  0  0
    6.3557  -16.3057   25.0122 C   0  0  0  0  0  0  0  0  0  0  0  0
    6.8239  -15.0546   25.6330 C   0  0  0  0  0  0  0  0  0  0  0  0
    6.3923  -13.8073   25.2353 C   0  0  0  0  0  0  0  0  0  0  0  0
    6.8719  -12.6780   25.8604 C   0  0  0  0  0  0  0  0  0  0  0  0
    7.7948  -12.7528   26.8998 C   0  0  0  0  0  0  0  0  0  0  0  0
    8.2044  -14.0113   27.2718 C   0  0  0  0  0  0  0  0  0  0  0  0
    7.7522  -15.1671   26.6753 C   0  0  0  0  0  0  0  0  0  0  0  0
    7.1768  -16.2260   22.6959 C   0  0  0  0  0  0  0  0  0  0  0  0
    7.0544  -16.4193   21.4357 O   0  0  0  0  0  0  0  0  0  0  0  0
    7.1522  -13.5819   16.7782 O   0  0  0  0  0  0  0  0  0  0  0  0
    7.6795  -13.7055   18.0647 C   0  0  0  0  0  0  0  0  0  0  0  0
    8.6600  -14.6421   18.3277 C   0  0  0  0  0  0  0  0  0  0  0  0
    9.2022  -14.7822   19.6094 C   0  0  0  0  0  0  0  0  0  0  0  0
    8.7792  -13.9923   20.6568 C   0  0  0  0  0  0  0  0  0  0  0  0
    9.3487  -14.1321   22.0255 C   0  0  0  0  0  0  0  0  0  0  0  0
    9.5893  -15.5613   22.4030 C   0  0  2  0  0  0  0  0  0  0  0  0
    8.5227  -16.1699   23.1407 N   0  0  0  0  0  0  0  0  0  0  0  0
   10.9046  -15.6486   23.0845 C   0  0  0  0  0  0  0  0  0  0  0  0
   11.5147  -14.6038   23.3663 O   0  0  0  0  0  0  0  0  0  0  0  0
    7.7950  -13.0577   20.3761 C   0  0  0  0  0  0  0  0  0  0  0  0
    7.2593  -12.9181   19.1125 C   0  0  0  0  0  0  0  0  0  0  0  0
    9.3602  -19.9336   29.2921 N   0  0  0  0  0  0  0  0  0  0  0  0
   10.7323  -20.2605   29.4216 C   0  0  0  0  0  0  0  0  0  0  0  0
   11.2647  -20.2180   30.5923 N   0  0  0  0  0  0  0  0  0  0  0  0
   11.4867  -20.6278   28.2872 N   0  0  0  0  0  0  0  0  0  0  0  0
   11.1411  -20.1522   26.9826 C   0  0  0  0  0  0  0  0  0  0  0  0
   11.7807  -18.8599   26.5876 C   0  0  0  0  0  0  0  0  0  0  0  0
   11.3072  -18.4082   25.2403 C   0  0  0  0  0  0  0  0  0  0  0  0
   12.0246  -17.1965   24.6926 C   0  0  2  0  0  0  0  0  0  0  0  0
   11.4134  -16.9315   23.3895 N   0  0  0  0  0  0  0  0  0  0  0  0
   13.4634  -17.3665   24.5235 C   0  0  0  0  0  0  0  0  0  0  0  0
   14.3045  -17.4080   25.6127 O   0  0  0  0  0  0  0  0  0  0  0  0
   13.9616  -17.4776   23.3778 O   0  0  0  0  0  0  0  0  0  0  0  0
  2  1  1  6
  2  3  1  0
  3  4  1  0
  4  9  1  0
  5  4  2  0
  5  6  1  0
  6  7  2  0
  7  8  1  0
  9  8  2  0
 10  2  1  0
 10 19  1  0
 11 10  2  0
 12 13  1  0
 13 14  2  0
 14 15  1  0
 16 17  1  0
 16 15  2  0
 18 17  1  1
 18 19  1  0
 18 20  1  0
 20 32  1  0
 21 20  2  0
 22 16  1  0
 23 22  2  0
 23 13  1  0
 25 24  1  0
 25 26  2  0
 27 25  1  0
 28 27  1  0
 29 28  1  0
 30 29  1  0
 31 30  1  6
 31 33  1  0
 32 31  1  0
 33 34  1  0
 35 33  2  0
M  END
$$$$
