FYR.pdb
     RDKit          3D

 35 36  0  0  1  0  0  0  0  0999 V2000
   10.4332  -14.2302   20.3911 N   0  0  0  0  0  0  0  0  0  0  0  0
    9.2603  -14.1168   21.2719 C   0  0  1  0  0  0  0  0  0  0  0  0
    8.0892  -14.8681   20.6750 C   0  0  0  0  0  0  0  0  0  0  0  0
    7.5629  -14.1622   19.4940 C   0  0  0  0  0  0  0  0  0  0  0  0
    6.9115  -12.9496   19.5678 C   0  0  0  0  0  0  0  0  0  0  0  0
    6.4447  -12.3447   18.4222 C   0  0  0  0  0  0  0  0  0  0  0  0
    6.6107  -12.9256   17.1681 C   0  0  0  0  0  0  0  0  0  0  0  0
    7.2642  -14.1344   17.1296 C   0  0  0  0  0  0  0  0  0  0  0  0
    7.7472  -14.7754   18.2486 C   0  0  0  0  0  0  0  0  0  0  0  0
    9.6349  -14.6857   22.5785 C   0  0  0  0  0  0  0  0  0  0  0  0
   10.5226  -15.6048   22.6673 O   0  0  0  0  0  0  0  0  0  0  0  0
   10.8177  -16.1723   31.2501 O   0  0  0  0  0  0  0  0  0  0  0  0
   10.3069  -15.7179   30.0331 C   0  0  0  0  0  0  0  0  0  0  0  0
    9.4955  -16.5352   29.2706 C   0  0  0  0  0  0  0  0  0  0  0  0
    8.9728  -16.0995   28.0485 C   0  0  0  0  0  0  0  0  0  0  0  0
    9.2473  -14.8402   27.5598 C   0  0  0  0  0  0  0  0  0  0  0  0
    8.6968  -14.3652   26.2603 C   0  0  0  0  0  0  0  0  0  0  0  0
    9.5371  -14.7853   25.0940 C   0  0  2  0  0  0  0  0  0  0  0  0
    9.0818  -14.2983   23.8260 N   0  0  0  0  0  0  0  0  0  0  0  0
    9.6936  -16.2603   25.1392 C   0  0  0  0  0  0  0  0  0  0  0  0
    8.7304  -16.9842   24.8367 O   0  0  0  0  0  0  0  0  0  0  0  0
   10.0628  -14.0330   28.3370 C   0  0  0  0  0  0  0  0  0  0  0  0
   10.5790  -14.4610   29.5426 C   0  0  0  0  0  0  0  0  0  0  0  0
   15.0820  -20.0693   20.5547 N   0  0  0  0  0  0  0  0  0  0  0  0
   13.6664  -20.0918   20.5128 C   0  0  0  0  0  0  0  0  0  0  0  0
   13.0880  -20.1483   19.3647 N   0  0  0  0  0  0  0  0  0  0  0  0
   12.9183  -20.0579   21.7087 N   0  0  0  0  0  0  0  0  0  0  0  0
   13.5625  -19.9552   22.9822 C   0  0  0  0  0  0  0  0  0  0  0  0
   12.6402  -19.8365   24.1529 C   0  0  0  0  0  0  0  0  0  0  0  0
   12.1405  -18.4334   24.3115 C   0  0  0  0  0  0  0  0  0  0  0  0
   11.1959  -18.2271   25.4725 C   0  0  2  0  0  0  0  0  0  0  0  0
   10.9469  -16.7860   25.5274 N   0  0  0  0  0  0  0  0  0  0  0  0
   11.7098  -18.6761   26.7617 C   0  0  0  0  0  0  0  0  0  0  0  0
   12.1892  -17.7748   27.6856 O   0  0  0  0  0  0  0  0  0  0  0  0
   11.7244  -19.8962   27.0520 O   0  0  0  0  0  0  0  0  0  0  0  0
  2  1  1  6
  2  3  1  0
  3  4  1  0
  4  9  1  0
  5  4  2  0
  5  6  1  0
  6  7  2  0
  7  8  1  0
  9  8  2  0
 10  2  1  0
 10 19  1  0
 11 10  2  0
 12 13  1  0
 13 14  2  0
 14 15  1  0
 16 17  1  0
 16 15  2  0
 18 17  1  1
 18 19  1  0
 18 20  1  0
 20 32  1  0
 21 20  2  0
 22 16  1  0
 23 22  2  0
 23 13  1  0
 25 24  1  0
 25 26  2  0
 27 25  1  0
 28 27  1  0
 29 28  1  0
 30 29  1  0
 31 30  1  6
 31 33  1  0
 32 31  1  0
 33 34  1  0
 35 33  2  0
M  END
$$$$
