FYR.pdb
     RDKit          3D

 35 36  0  0  1  0  0  0  0  0999 V2000
    7.4808  -17.0213   20.7711 N   0  0  0  0  0  0  0  0  0  0  0  0
    8.9137  -16.7724   20.5490 C   0  0  1  0  0  0  0  0  0  0  0  0
    9.0965  -15.7032   19.4928 C   0  0  0  0  0  0  0  0  0  0  0  0
    8.4150  -14.4580   19.8864 C   0  0  0  0  0  0  0  0  0  0  0  0
    9.0855  -13.3394   20.3325 C   0  0  0  0  0  0  0  0  0  0  0  0
    8.3845  -12.2076   20.6842 C   0  0  0  0  0  0  0  0  0  0  0  0
    6.9960  -12.1520   20.6035 C   0  0  0  0  0  0  0  0  0  0  0  0
    6.3582  -13.2843   20.1549 C   0  0  0  0  0  0  0  0  0  0  0  0
    7.0179  -14.4375   19.7929 C   0  0  0  0  0  0  0  0  0  0  0  0
    9.4895  -16.3407   21.8348 C   0  0  0  0  0  0  0  0  0  0  0  0
   10.7486  -16.1425   21.9601 O   0  0  0  0  0  0  0  0  0  0  0  0
   10.8510  -14.4389   30.3986 O   0  0  0  0  0  0  0  0  0  0  0  0
   10.2707  -14.5984   29.1391 C   0  0  0  0  0  0  0  0  0  0  0  0
   10.2776  -13.5561   28.2329 C   0  0  0  0  0  0  0  0  0  0  0  0
    9.7022  -13.6948   26.9656 C   0  0  0  0  0  0  0  0  0  0  0  0
    9.1072  -14.8749   26.5739 C   0  0  0  0  0  0  0  0  0  0  0  0
    8.4913  -15.0346   25.2277 C   0  0  0  0  0  0  0  0  0  0  0  0
    9.3417  -15.8478   24.3011 C   0  0  2  0  0  0  0  0  0  0  0  0
    8.7498  -16.1065   23.0224 N   0  0  0  0  0  0  0  0  0  0  0  0
    9.7662  -17.0771   25.0158 C   0  0  0  0  0  0  0  0  0  0  0  0
    8.9033  -17.8701   25.4282 O   0  0  0  0  0  0  0  0  0  0  0  0
    9.1089  -15.9106   27.4949 C   0  0  0  0  0  0  0  0  0  0  0  0
    9.6761  -15.7756   28.7451 C   0  0  0  0  0  0  0  0  0  0  0  0
   15.1449  -18.9129   21.5181 N   0  0  0  0  0  0  0  0  0  0  0  0
   14.1654  -19.9116   21.2958 C   0  0  0  0  0  0  0  0  0  0  0  0
   13.6582  -20.0213   20.1183 N   0  0  0  0  0  0  0  0  0  0  0  0
   13.7669  -20.7642   22.3471 N   0  0  0  0  0  0  0  0  0  0  0  0
   14.3088  -20.6194   23.6635 C   0  0  0  0  0  0  0  0  0  0  0  0
   13.3064  -20.3335   24.7352 C   0  0  0  0  0  0  0  0  0  0  0  0
   12.6267  -19.0184   24.5072 C   0  0  0  0  0  0  0  0  0  0  0  0
   11.6460  -18.6194   25.5851 C   0  0  2  0  0  0  0  0  0  0  0  0
   11.1503  -17.2978   25.1981 N   0  0  0  0  0  0  0  0  0  0  0  0
   12.2135  -18.5464   26.9268 C   0  0  0  0  0  0  0  0  0  0  0  0
   12.4113  -19.6852   27.6750 O   0  0  0  0  0  0  0  0  0  0  0  0
   12.5319  -17.4402   27.4247 O   0  0  0  0  0  0  0  0  0  0  0  0
  2  1  1  1
  2  3  1  0
  3  4  1  0
  4  9  1  0
  5  4  2  0
  5  6  1  0
  6  7  2  0
  7  8  1  0
  9  8  2  0
 10  2  1  0
 10 19  1  0
 11 10  2  0
 12 13  1  0
 13 14  2  0
 14 15  1  0
 16 17  1  0
 16 15  2  0
 18 17  1  1
 18 19  1  0
 18 20  1  0
 20 32  1  0
 21 20  2  0
 22 16  1  0
 23 22  2  0
 23 13  1  0
 25 24  1  0
 25 26  2  0
 27 25  1  0
 28 27  1  0
 29 28  1  0
 30 29  1  0
 31 30  1  6
 31 33  1  0
 32 31  1  0
 33 34  1  0
 35 33  2  0
M  END
$$$$
