FYR.pdb
     RDKit          3D

 35 36  0  0  1  0  0  0  0  0999 V2000
    6.6857  -20.5282   21.7303 N   0  0  0  0  0  0  0  0  0  0  0  0
    6.0173  -20.0975   22.9681 C   0  0  1  0  0  0  0  0  0  0  0  0
    6.1189  -21.1843   24.0173 C   0  0  0  0  0  0  0  0  0  0  0  0
    5.1086  -22.2308   23.7850 C   0  0  0  0  0  0  0  0  0  0  0  0
    3.7537  -22.0140   23.9162 C   0  0  0  0  0  0  0  0  0  0  0  0
    2.8638  -23.0387   23.6833 C   0  0  0  0  0  0  0  0  0  0  0  0
    3.2924  -24.3102   23.3128 C   0  0  0  0  0  0  0  0  0  0  0  0
    4.6495  -24.4927   23.1909 C   0  0  0  0  0  0  0  0  0  0  0  0
    5.5752  -23.4979   23.4140 C   0  0  0  0  0  0  0  0  0  0  0  0
    6.6869  -18.8667   23.4239 C   0  0  0  0  0  0  0  0  0  0  0  0
    7.9510  -18.7139   23.2858 O   0  0  0  0  0  0  0  0  0  0  0  0
    8.7261  -11.0868   27.1771 O   0  0  0  0  0  0  0  0  0  0  0  0
    8.0126  -12.1756   26.6733 C   0  0  0  0  0  0  0  0  0  0  0  0
    7.9948  -12.4276   25.3155 C   0  0  0  0  0  0  0  0  0  0  0  0
    7.2867  -13.5133   24.7898 C   0  0  0  0  0  0  0  0  0  0  0  0
    6.5809  -14.3713   25.6058 C   0  0  0  0  0  0  0  0  0  0  0  0
    5.8232  -15.5302   25.0581 C   0  0  0  0  0  0  0  0  0  0  0  0
    6.7224  -16.6280   24.5792 C   0  0  2  0  0  0  0  0  0  0  0  0
    6.0384  -17.7643   24.0376 N   0  0  0  0  0  0  0  0  0  0  0  0
    7.6636  -16.9710   25.6740 C   0  0  0  0  0  0  0  0  0  0  0  0
    7.2311  -17.5298   26.6958 O   0  0  0  0  0  0  0  0  0  0  0  0
    6.6091  -14.1044   26.9655 C   0  0  0  0  0  0  0  0  0  0  0  0
    7.3071  -13.0342   27.4856 C   0  0  0  0  0  0  0  0  0  0  0  0
   16.0227  -18.9308   24.3040 N   0  0  0  0  0  0  0  0  0  0  0  0
   15.8276  -19.3154   25.6531 C   0  0  0  0  0  0  0  0  0  0  0  0
   16.7507  -19.9966   26.2360 N   0  0  0  0  0  0  0  0  0  0  0  0
   14.6469  -18.9500   26.3338 N   0  0  0  0  0  0  0  0  0  0  0  0
   13.5669  -18.3070   25.6498 C   0  0  0  0  0  0  0  0  0  0  0  0
   12.4157  -17.9063   26.5154 C   0  0  0  0  0  0  0  0  0  0  0  0
   11.2528  -17.4424   25.6933 C   0  0  0  0  0  0  0  0  0  0  0  0
   10.0213  -17.0794   26.4899 C   0  0  2  0  0  0  0  0  0  0  0  0
    9.0286  -16.6452   25.5060 N   0  0  0  0  0  0  0  0  0  0  0  0
   10.2224  -16.0186   27.4708 C   0  0  0  0  0  0  0  0  0  0  0  0
   10.3113  -16.3044   28.8147 O   0  0  0  0  0  0  0  0  0  0  0  0
   10.3175  -14.8226   27.1054 O   0  0  0  0  0  0  0  0  0  0  0  0
  2  1  1  6
  2  3  1  0
  3  4  1  0
  4  9  1  0
  5  4  2  0
  5  6  1  0
  6  7  2  0
  7  8  1  0
  9  8  2  0
 10  2  1  0
 10 19  1  0
 11 10  2  0
 12 13  1  0
 13 14  2  0
 14 15  1  0
 16 17  1  0
 16 15  2  0
 18 17  1  1
 18 19  1  0
 18 20  1  0
 20 32  1  0
 21 20  2  0
 22 16  1  0
 23 22  2  0
 23 13  1  0
 25 24  1  0
 25 26  2  0
 27 25  1  0
 28 27  1  0
 29 28  1  0
 30 29  1  0
 31 30  1  6
 31 33  1  0
 32 31  1  0
 33 34  1  0
 35 33  2  0
M  END
$$$$
