TNC.pdb
     RDKit          3D

 22 21  0  0  1  0  0  0  0  0999 V2000
    8.0756  -13.1188   18.2626 C   0  0  0  0  0  0  0  0  0  0  0  0
    8.1646  -13.5593   19.7058 C   0  0  1  0  0  0  0  0  0  0  0  0
    7.0859  -13.0159   20.3872 O   0  0  0  0  0  0  0  0  0  0  0  0
    8.1559  -15.0876   19.7425 C   0  0  2  0  0  0  0  0  0  0  0  0
    7.0135  -15.6105   19.0579 N   0  0  0  0  0  0  0  0  0  0  0  0
    8.3372  -15.6111   21.0950 C   0  0  0  0  0  0  0  0  0  0  0  0
    7.3274  -16.0165   21.7254 O   0  0  0  0  0  0  0  0  0  0  0  0
   12.2578  -18.1633   21.4492 N   0  0  0  0  0  0  0  0  0  0  0  0
   11.3195  -18.0490   22.4972 C   0  0  0  0  0  0  0  0  0  0  0  0
   10.6309  -19.0518   22.8030 O   0  0  0  0  0  0  0  0  0  0  0  0
   11.1614  -16.7738   23.2137 C   0  0  0  0  0  0  0  0  0  0  0  0
    9.8263  -16.1063   23.0315 C   0  0  2  0  0  0  0  0  0  0  0  0
    9.6252  -15.6596   21.6823 N   0  0  0  0  0  0  0  0  0  0  0  0
    9.6107  -15.0698   24.0370 C   0  0  0  0  0  0  0  0  0  0  0  0
    9.5862  -13.8653   23.7116 O   0  0  0  0  0  0  0  0  0  0  0  0
    9.4168  -15.3377   25.4293 N   0  0  0  0  0  0  0  0  0  0  0  0
    8.9583  -14.3199   26.3447 C   0  0  1  0  0  0  0  0  0  0  0  0
    7.6146  -13.7487   25.9377 C   0  0  0  0  0  0  0  0  0  0  0  0
    7.1536  -12.5509   27.2437 S   0  0  0  0  0  0  0  0  0  0  0  0
    8.8325  -14.8556   27.7175 C   0  0  0  0  0  0  0  0  0  0  0  0
    9.1895  -14.1246   28.8253 O   0  0  0  0  0  0  0  0  0  0  0  0
    8.3853  -16.0141   27.8665 O   0  0  0  0  0  0  0  0  0  0  0  0
  2  1  1  6
  2  3  1  0
  4  2  1  0
  4  6  1  0
  4  5  1  1
  6  7  2  0
  6 13  1  0
  9 11  1  0
  9  8  1  0
 10  9  2  0
 12 11  1  6
 12 14  1  0
 13 12  1  0
 14 16  1  0
 14 15  2  0
 16 17  1  0
 17 20  1  0
 17 18  1  6
 18 19  1  0
 20 21  1  0
 22 20  2  0
M  END
$$$$
