TNC.pdb
     RDKit          3D

 22 21  0  0  1  0  0  0  0  0999 V2000
    9.2010  -12.6560   20.1610 C   0  0  0  0  0  0  0  0  0  0  0  0
    7.9635  -13.1450   19.4438 C   0  0  1  0  0  0  0  0  0  0  0  0
    7.9718  -12.6129   18.1632 O   0  0  0  0  0  0  0  0  0  0  0  0
    7.9888  -14.6734   19.4306 C   0  0  2  0  0  0  0  0  0  0  0  0
    6.9314  -15.1969   18.6211 N   0  0  0  0  0  0  0  0  0  0  0  0
    8.0507  -15.2390   20.7769 C   0  0  0  0  0  0  0  0  0  0  0  0
    6.9754  -15.4367   21.3982 O   0  0  0  0  0  0  0  0  0  0  0  0
    9.8368  -19.3141   24.2164 N   0  0  0  0  0  0  0  0  0  0  0  0
   10.4028  -18.0444   23.9726 C   0  0  0  0  0  0  0  0  0  0  0  0
   11.0475  -17.4844   24.8914 O   0  0  0  0  0  0  0  0  0  0  0  0
   10.2366  -17.3992   22.6609 C   0  0  0  0  0  0  0  0  0  0  0  0
    9.3883  -16.1576   22.6688 C   0  0  2  0  0  0  0  0  0  0  0  0
    9.2978  -15.5569   21.3683 N   0  0  0  0  0  0  0  0  0  0  0  0
    9.8092  -15.2352   23.7195 C   0  0  0  0  0  0  0  0  0  0  0  0
   10.3601  -14.1533   23.4308 O   0  0  0  0  0  0  0  0  0  0  0  0
    9.6324  -15.4847   25.1174 N   0  0  0  0  0  0  0  0  0  0  0  0
    9.1146  -14.4770   26.0121 C   0  0  1  0  0  0  0  0  0  0  0  0
    7.7381  -13.9971   25.5968 C   0  0  0  0  0  0  0  0  0  0  0  0
    7.4071  -12.4878   26.5791 S   0  0  0  0  0  0  0  0  0  0  0  0
    9.0236  -14.9896   27.3964 C   0  0  0  0  0  0  0  0  0  0  0  0
    9.1901  -16.3201   27.6980 O   0  0  0  0  0  0  0  0  0  0  0  0
    8.7867  -14.1779   28.3181 O   0  0  0  0  0  0  0  0  0  0  0  0
  2  1  1  1
  2  3  1  0
  4  2  1  0
  4  6  1  0
  4  5  1  1
  6  7  2  0
  6 13  1  0
  9 11  1  0
  9  8  1  0
 10  9  2  0
 12 11  1  6
 12 14  1  0
 13 12  1  0
 14 16  1  0
 14 15  2  0
 16 17  1  0
 17 20  1  0
 17 18  1  6
 18 19  1  0
 20 21  1  0
 22 20  2  0
M  END
$$$$
