TNC.pdb
     RDKit          3D

 22 21  0  0  1  0  0  0  0  0999 V2000
    8.1306  -12.0918   18.5885 C   0  0  0  0  0  0  0  0  0  0  0  0
    8.7286  -13.1948   19.4314 C   0  0  1  0  0  0  0  0  0  0  0  0
    7.9806  -13.2989   20.5945 O   0  0  0  0  0  0  0  0  0  0  0  0
    8.7056  -14.4879   18.6164 C   0  0  2  0  0  0  0  0  0  0  0  0
    7.3807  -14.7872   18.1668 N   0  0  0  0  0  0  0  0  0  0  0  0
    9.3687  -15.5916   19.3081 C   0  0  0  0  0  0  0  0  0  0  0  0
    8.6625  -16.5186   19.7807 O   0  0  0  0  0  0  0  0  0  0  0  0
   12.4343  -19.2905   18.3963 N   0  0  0  0  0  0  0  0  0  0  0  0
   12.5662  -17.8893   18.2911 C   0  0  0  0  0  0  0  0  0  0  0  0
   12.5338  -17.3637   17.1526 O   0  0  0  0  0  0  0  0  0  0  0  0
   12.7352  -17.0686   19.5004 C   0  0  0  0  0  0  0  0  0  0  0  0
   11.4535  -16.6530   20.1680 C   0  0  2  0  0  0  0  0  0  0  0  0
   10.7785  -15.6146   19.4425 N   0  0  0  0  0  0  0  0  0  0  0  0
   11.6666  -16.3472   21.5797 C   0  0  0  0  0  0  0  0  0  0  0  0
   12.0520  -15.2139   21.9323 O   0  0  0  0  0  0  0  0  0  0  0  0
   11.4594  -17.2866   22.6391 N   0  0  0  0  0  0  0  0  0  0  0  0
   11.2605  -16.8636   24.0050 C   0  0  1  0  0  0  0  0  0  0  0  0
    9.8218  -16.4724   24.2783 C   0  0  0  0  0  0  0  0  0  0  0  0
    9.7559  -15.9706   26.0379 S   0  0  0  0  0  0  0  0  0  0  0  0
   11.6331  -17.9348   24.9541 C   0  0  0  0  0  0  0  0  0  0  0  0
   11.8419  -17.6904   26.2904 O   0  0  0  0  0  0  0  0  0  0  0  0
   11.7605  -19.1000   24.5177 O   0  0  0  0  0  0  0  0  0  0  0  0
  2  1  1  6
  2  3  1  0
  4  2  1  0
  4  6  1  0
  4  5  1  1
  6  7  2  0
  6 13  1  0
  9 11  1  0
  9  8  1  0
 10  9  2  0
 12 11  1  6
 12 14  1  0
 13 12  1  0
 14 16  1  0
 14 15  2  0
 16 17  1  0
 17 20  1  0
 17 18  1  6
 18 19  1  0
 20 21  1  0
 22 20  2  0
M  END
$$$$
