TNC.pdb
     RDKit          3D

 22 21  0  0  1  0  0  0  0  0999 V2000
    8.8093  -12.3633   19.4949 C   0  0  0  0  0  0  0  0  0  0  0  0
    7.8575  -13.2739   18.7536 C   0  0  1  0  0  0  0  0  0  0  0  0
    7.6343  -12.7298   17.4977 O   0  0  0  0  0  0  0  0  0  0  0  0
    8.4881  -14.6642   18.6730 C   0  0  2  0  0  0  0  0  0  0  0  0
    7.7414  -15.5162   17.7991 N   0  0  0  0  0  0  0  0  0  0  0  0
    8.7437  -15.2348   19.9941 C   0  0  0  0  0  0  0  0  0  0  0  0
    7.7843  -15.7456   20.6266 O   0  0  0  0  0  0  0  0  0  0  0  0
   13.0571  -16.0955   24.1446 N   0  0  0  0  0  0  0  0  0  0  0  0
   12.2222  -16.7490   23.2131 C   0  0  0  0  0  0  0  0  0  0  0  0
   11.8185  -17.9078   23.4733 O   0  0  0  0  0  0  0  0  0  0  0  0
   11.8354  -16.0741   21.9644 C   0  0  0  0  0  0  0  0  0  0  0  0
   10.3559  -15.8754   21.7838 C   0  0  2  0  0  0  0  0  0  0  0  0
   10.0465  -15.2117   20.5493 N   0  0  0  0  0  0  0  0  0  0  0  0
    9.7583  -15.2485   22.9594 C   0  0  0  0  0  0  0  0  0  0  0  0
   10.0353  -14.0693   23.2594 O   0  0  0  0  0  0  0  0  0  0  0  0
    8.8388  -15.9090   23.8346 N   0  0  0  0  0  0  0  0  0  0  0  0
    8.4167  -15.3191   25.0827 C   0  0  1  0  0  0  0  0  0  0  0  0
    6.9394  -14.9799   25.0836 C   0  0  0  0  0  0  0  0  0  0  0  0
    6.8131  -13.2554   25.6862 S   0  0  0  0  0  0  0  0  0  0  0  0
    8.6793  -16.2297   26.2181 C   0  0  0  0  0  0  0  0  0  0  0  0
    8.3881  -15.8855   27.5165 O   0  0  0  0  0  0  0  0  0  0  0  0
    9.1837  -17.3491   25.9800 O   0  0  0  0  0  0  0  0  0  0  0  0
  2  1  1  1
  2  3  1  0
  4  2  1  0
  4  6  1  0
  4  5  1  6
  6  7  2  0
  6 13  1  0
  9 11  1  0
  9  8  1  0
 10  9  2  0
 12 11  1  1
 12 14  1  0
 13 12  1  0
 14 16  1  0
 14 15  2  0
 16 17  1  0
 17 20  1  0
 17 18  1  6
 18 19  1  0
 20 21  1  0
 22 20  2  0
M  END
$$$$
