TNC.pdb
     RDKit          3D

 22 21  0  0  1  0  0  0  0  0999 V2000
   10.7551  -14.5007   18.6381 C   0  0  0  0  0  0  0  0  0  0  0  0
    9.9730  -14.5349   19.9311 C   0  0  1  0  0  0  0  0  0  0  0  0
   10.6562  -13.7715   20.8656 O   0  0  0  0  0  0  0  0  0  0  0  0
    8.5711  -13.9896   19.6586 C   0  0  2  0  0  0  0  0  0  0  0  0
    8.6334  -12.7005   19.0408 N   0  0  0  0  0  0  0  0  0  0  0  0
    7.7136  -14.0481   20.8407 C   0  0  0  0  0  0  0  0  0  0  0  0
    7.3084  -12.9702   21.3461 O   0  0  0  0  0  0  0  0  0  0  0  0
    5.7123  -18.8417   23.5707 N   0  0  0  0  0  0  0  0  0  0  0  0
    6.2905  -17.8868   22.7073 C   0  0  0  0  0  0  0  0  0  0  0  0
    7.4213  -18.1219   22.2179 O   0  0  0  0  0  0  0  0  0  0  0  0
    5.5712  -16.6431   22.3908 C   0  0  0  0  0  0  0  0  0  0  0  0
    6.4006  -15.3919   22.4787 C   0  0  2  0  0  0  0  0  0  0  0  0
    7.3478  -15.2949   21.4045 N   0  0  0  0  0  0  0  0  0  0  0  0
    6.9918  -15.2404   23.8052 C   0  0  0  0  0  0  0  0  0  0  0  0
    6.2840  -15.3290   24.8291 O   0  0  0  0  0  0  0  0  0  0  0  0
    8.3813  -14.9867   24.0347 N   0  0  0  0  0  0  0  0  0  0  0  0
    8.9241  -14.8654   25.3668 C   0  0  1  0  0  0  0  0  0  0  0  0
    7.8480  -14.5979   26.4002 C   0  0  0  0  0  0  0  0  0  0  0  0
    7.5386  -12.7937   26.3580 S   0  0  0  0  0  0  0  0  0  0  0  0
    9.6448  -16.0949   25.7624 C   0  0  0  0  0  0  0  0  0  0  0  0
   10.3334  -16.1917   26.9479 O   0  0  0  0  0  0  0  0  0  0  0  0
    9.6220  -17.0750   24.9858 O   0  0  0  0  0  0  0  0  0  0  0  0
  2  1  1  6
  2  3  1  0
  4  2  1  0
  4  6  1  0
  4  5  1  1
  6  7  2  0
  6 13  1  0
  9 11  1  0
  9  8  1  0
 10  9  2  0
 12 11  1  1
 12 14  1  0
 13 12  1  0
 14 16  1  0
 14 15  2  0
 16 17  1  0
 17 20  1  0
 17 18  1  1
 18 19  1  0
 20 21  1  0
 22 20  2  0
M  END
$$$$
