TNC.pdb
     RDKit          3D

 22 21  0  0  1  0  0  0  0  0999 V2000
    8.8882  -12.5168   19.3753 C   0  0  0  0  0  0  0  0  0  0  0  0
    8.1435  -13.4735   18.4726 C   0  0  1  0  0  0  0  0  0  0  0  0
    7.2575  -12.7348   17.7029 O   0  0  0  0  0  0  0  0  0  0  0  0
    9.1663  -14.2185   17.6148 C   0  0  2  0  0  0  0  0  0  0  0  0
    8.5172  -15.0196   16.6228 N   0  0  0  0  0  0  0  0  0  0  0  0
   10.1470  -14.9409   18.4226 C   0  0  0  0  0  0  0  0  0  0  0  0
    9.8541  -16.0895   18.8425 O   0  0  0  0  0  0  0  0  0  0  0  0
   14.0369  -16.0653   17.5014 N   0  0  0  0  0  0  0  0  0  0  0  0
   14.3661  -14.8440   18.1274 C   0  0  0  0  0  0  0  0  0  0  0  0
   15.1961  -14.0853   17.5716 O   0  0  0  0  0  0  0  0  0  0  0  0
   13.7399  -14.4752   19.4065 C   0  0  0  0  0  0  0  0  0  0  0  0
   12.3426  -14.9957   19.6010 C   0  0  2  0  0  0  0  0  0  0  0  0
   11.4013  -14.3570   18.7256 N   0  0  0  0  0  0  0  0  0  0  0  0
   11.9573  -14.9654   21.0090 C   0  0  0  0  0  0  0  0  0  0  0  0
   11.7723  -13.8781   21.5929 O   0  0  0  0  0  0  0  0  0  0  0  0
   11.7664  -16.1365   21.8089 N   0  0  0  0  0  0  0  0  0  0  0  0
   11.0813  -16.0890   23.0787 C   0  0  1  0  0  0  0  0  0  0  0  0
    9.6522  -15.6036   22.9390 C   0  0  0  0  0  0  0  0  0  0  0  0
    8.9500  -15.5937   24.6300 S   0  0  0  0  0  0  0  0  0  0  0  0
   11.0527  -17.4220   23.7188 C   0  0  0  0  0  0  0  0  0  0  0  0
   10.9104  -17.5803   25.0766 O   0  0  0  0  0  0  0  0  0  0  0  0
   11.1627  -18.4343   22.9926 O   0  0  0  0  0  0  0  0  0  0  0  0
  2  1  1  1
  2  3  1  0
  4  2  1  0
  4  6  1  0
  4  5  1  6
  6  7  2  0
  6 13  1  0
  9 11  1  0
  9  8  1  0
 10  9  2  0
 12 11  1  1
 12 14  1  0
 13 12  1  0
 14 16  1  0
 14 15  2  0
 16 17  1  0
 17 20  1  0
 17 18  1  6
 18 19  1  0
 20 21  1  0
 22 20  2  0
M  END
$$$$
