TNC.pdb
     RDKit          3D

 22 21  0  0  1  0  0  0  0  0999 V2000
    8.5158  -13.2937   16.1763 C   0  0  0  0  0  0  0  0  0  0  0  0
    8.7062  -14.3292   17.2608 C   0  0  1  0  0  0  0  0  0  0  0  0
    9.9057  -14.0616   17.9032 O   0  0  0  0  0  0  0  0  0  0  0  0
    7.5140  -14.2503   18.2145 C   0  0  2  0  0  0  0  0  0  0  0  0
    7.3205  -12.9125   18.6838 N   0  0  0  0  0  0  0  0  0  0  0  0
    7.5840  -15.2543   19.2744 C   0  0  0  0  0  0  0  0  0  0  0  0
    7.6037  -14.8680   20.4709 O   0  0  0  0  0  0  0  0  0  0  0  0
    5.6919  -19.5844   17.7328 N   0  0  0  0  0  0  0  0  0  0  0  0
    5.9968  -19.1589   19.0434 C   0  0  0  0  0  0  0  0  0  0  0  0
    5.0536  -18.9169   19.8343 O   0  0  0  0  0  0  0  0  0  0  0  0
    7.3979  -19.0080   19.4658 C   0  0  0  0  0  0  0  0  0  0  0  0
    7.7627  -17.6402   19.9730 C   0  0  2  0  0  0  0  0  0  0  0  0
    7.6289  -16.6341   18.9579 N   0  0  0  0  0  0  0  0  0  0  0  0
    9.0666  -17.6492   20.6299 C   0  0  0  0  0  0  0  0  0  0  0  0
   10.1095  -17.4547   19.9728 O   0  0  0  0  0  0  0  0  0  0  0  0
    9.2521  -17.8738   22.0310 N   0  0  0  0  0  0  0  0  0  0  0  0
   10.4737  -17.5066   22.7067 C   0  0  1  0  0  0  0  0  0  0  0  0
   10.2940  -16.2877   23.5897 C   0  0  0  0  0  0  0  0  0  0  0  0
   11.1393  -14.9083   22.7321 S   0  0  0  0  0  0  0  0  0  0  0  0
   10.9699  -18.6153   23.5503 C   0  0  0  0  0  0  0  0  0  0  0  0
   10.1778  -19.6834   23.8978 O   0  0  0  0  0  0  0  0  0  0  0  0
   12.1518  -18.5717   23.9573 O   0  0  0  0  0  0  0  0  0  0  0  0
  2  1  1  6
  2  3  1  0
  4  2  1  0
  4  6  1  0
  4  5  1  1
  6  7  2  0
  6 13  1  0
  9 11  1  0
  9  8  1  0
 10  9  2  0
 12 11  1  6
 12 14  1  0
 13 12  1  0
 14 16  1  0
 14 15  2  0
 16 17  1  0
 17 20  1  0
 17 18  1  1
 18 19  1  0
 20 21  1  0
 22 20  2  0
M  END
$$$$
