TNC.pdb
     RDKit          3D

 22 21  0  0  1  0  0  0  0  0999 V2000
    9.1764  -12.3117   19.3913 C   0  0  0  0  0  0  0  0  0  0  0  0
    8.2478  -13.2299   18.6300 C   0  0  1  0  0  0  0  0  0  0  0  0
    7.5249  -12.4595   17.7317 O   0  0  0  0  0  0  0  0  0  0  0  0
    9.0932  -14.2912   17.9258 C   0  0  2  0  0  0  0  0  0  0  0  0
    8.3008  -15.0538   17.0106 N   0  0  0  0  0  0  0  0  0  0  0  0
    9.8672  -15.0983   18.8670 C   0  0  0  0  0  0  0  0  0  0  0  0
    9.3804  -16.1843   19.2729 O   0  0  0  0  0  0  0  0  0  0  0  0
   14.1960  -14.0254   18.0182 N   0  0  0  0  0  0  0  0  0  0  0  0
   13.9099  -15.2159   18.7202 C   0  0  0  0  0  0  0  0  0  0  0  0
   14.1055  -16.3154   18.1489 O   0  0  0  0  0  0  0  0  0  0  0  0
   13.3950  -15.1581   20.0971 C   0  0  0  0  0  0  0  0  0  0  0  0
   11.9234  -15.4347   20.2350 C   0  0  2  0  0  0  0  0  0  0  0  0
   11.1398  -14.6639   19.3119 N   0  0  0  0  0  0  0  0  0  0  0  0
   11.4899  -15.3150   21.6242 C   0  0  0  0  0  0  0  0  0  0  0  0
   12.0266  -14.4862   22.3872 O   0  0  0  0  0  0  0  0  0  0  0  0
   10.4515  -16.1089   22.2066 N   0  0  0  0  0  0  0  0  0  0  0  0
   10.0322  -15.9297   23.5763 C   0  0  1  0  0  0  0  0  0  0  0  0
    8.5854  -15.4894   23.6780 C   0  0  0  0  0  0  0  0  0  0  0  0
    8.2863  -15.1273   25.4478 S   0  0  0  0  0  0  0  0  0  0  0  0
   10.1864  -17.1813   24.3489 C   0  0  0  0  0  0  0  0  0  0  0  0
   10.1185  -17.2089   25.7213 O   0  0  0  0  0  0  0  0  0  0  0  0
   10.3854  -18.2465   23.7243 O   0  0  0  0  0  0  0  0  0  0  0  0
  2  1  1  6
  2  3  1  0
  4  2  1  0
  4  6  1  0
  4  5  1  1
  6  7  2  0
  6 13  1  0
  9 11  1  0
  9  8  1  0
 10  9  2  0
 12 11  1  1
 12 14  1  0
 13 12  1  0
 14 16  1  0
 14 15  2  0
 16 17  1  0
 17 20  1  0
 17 18  1  6
 18 19  1  0
 20 21  1  0
 22 20  2  0
M  END
$$$$
