TNC.pdb
     RDKit          3D

 22 21  0  0  1  0  0  0  0  0999 V2000
    9.1679  -12.5867   19.9329 C   0  0  0  0  0  0  0  0  0  0  0  0
    8.0808  -13.1640   19.0556 C   0  0  1  0  0  0  0  0  0  0  0  0
    7.8512  -12.2749   18.0164 O   0  0  0  0  0  0  0  0  0  0  0  0
    8.5463  -14.5297   18.5504 C   0  0  2  0  0  0  0  0  0  0  0  0
    7.6296  -15.0603   17.5885 N   0  0  0  0  0  0  0  0  0  0  0  0
    8.8670  -15.4457   19.6433 C   0  0  0  0  0  0  0  0  0  0  0  0
    7.9491  -16.1611   20.1199 O   0  0  0  0  0  0  0  0  0  0  0  0
   12.9854  -17.3521   18.9280 N   0  0  0  0  0  0  0  0  0  0  0  0
   12.1791  -17.7921   19.9995 C   0  0  0  0  0  0  0  0  0  0  0  0
   11.6869  -18.9448   19.9508 O   0  0  0  0  0  0  0  0  0  0  0  0
   11.9289  -16.9089   21.1492 C   0  0  0  0  0  0  0  0  0  0  0  0
   10.5229  -16.3856   21.2516 C   0  0  2  0  0  0  0  0  0  0  0  0
   10.1857  -15.5242   20.1541 N   0  0  0  0  0  0  0  0  0  0  0  0
   10.2706  -15.7987   22.5646 C   0  0  0  0  0  0  0  0  0  0  0  0
   10.3657  -14.5665   22.7377 O   0  0  0  0  0  0  0  0  0  0  0  0
    9.9065  -16.5588   23.7211 N   0  0  0  0  0  0  0  0  0  0  0  0
    9.6124  -15.9284   24.9860 C   0  0  1  0  0  0  0  0  0  0  0  0
    8.4094  -15.0102   24.9009 C   0  0  0  0  0  0  0  0  0  0  0  0
    7.0271  -16.0381   24.2801 S   0  0  0  0  0  0  0  0  0  0  0  0
    9.3469  -16.9367   26.0349 C   0  0  0  0  0  0  0  0  0  0  0  0
    9.3137  -18.2839   25.7650 O   0  0  0  0  0  0  0  0  0  0  0  0
    9.1466  -16.5415   27.2045 O   0  0  0  0  0  0  0  0  0  0  0  0
  2  1  1  1
  2  3  1  0
  4  2  1  0
  4  6  1  0
  4  5  1  1
  6  7  2  0
  6 13  1  0
  9 11  1  0
  9  8  1  0
 10  9  2  0
 12 11  1  1
 12 14  1  0
 13 12  1  0
 14 16  1  0
 14 15  2  0
 16 17  1  0
 17 20  1  0
 17 18  1  6
 18 19  1  0
 20 21  1  0
 22 20  2  0
M  END
$$$$
