TNC.pdb
     RDKit          3D

 22 21  0  0  1  0  0  0  0  0999 V2000
    8.5603  -12.5074   19.9274 C   0  0  0  0  0  0  0  0  0  0  0  0
    7.6777  -13.3727   19.0574 C   0  0  1  0  0  0  0  0  0  0  0  0
    7.6516  -12.8174   17.7869 O   0  0  0  0  0  0  0  0  0  0  0  0
    8.2502  -14.7902   19.0527 C   0  0  2  0  0  0  0  0  0  0  0  0
    7.5506  -15.6227   18.1228 N   0  0  0  0  0  0  0  0  0  0  0  0
    8.3560  -15.3503   20.3986 C   0  0  0  0  0  0  0  0  0  0  0  0
    7.3286  -15.8452   20.9285 O   0  0  0  0  0  0  0  0  0  0  0  0
   10.1358  -17.1107   24.9075 N   0  0  0  0  0  0  0  0  0  0  0  0
   11.2443  -16.9880   24.0426 C   0  0  0  0  0  0  0  0  0  0  0  0
   12.3592  -17.4167   24.4257 O   0  0  0  0  0  0  0  0  0  0  0  0
   11.0845  -16.3699   22.7172 C   0  0  0  0  0  0  0  0  0  0  0  0
    9.7132  -15.8212   22.4354 C   0  0  2  0  0  0  0  0  0  0  0  0
    9.5917  -15.3346   21.0905 N   0  0  0  0  0  0  0  0  0  0  0  0
    9.3097  -14.8554   23.4535 C   0  0  0  0  0  0  0  0  0  0  0  0
    9.4267  -13.6302   23.2476 O   0  0  0  0  0  0  0  0  0  0  0  0
    8.7663  -15.2189   24.7265 N   0  0  0  0  0  0  0  0  0  0  0  0
    8.1667  -14.2437   25.6059 C   0  0  1  0  0  0  0  0  0  0  0  0
    6.9485  -13.5882   24.9862 C   0  0  0  0  0  0  0  0  0  0  0  0
    6.2834  -12.4473   26.2546 S   0  0  0  0  0  0  0  0  0  0  0  0
    7.7546  -14.8616   26.8848 C   0  0  0  0  0  0  0  0  0  0  0  0
    7.5581  -14.1222   28.0265 O   0  0  0  0  0  0  0  0  0  0  0  0
    7.5815  -16.0998   26.9199 O   0  0  0  0  0  0  0  0  0  0  0  0
  2  1  1  1
  2  3  1  0
  4  2  1  0
  4  6  1  0
  4  5  1  6
  6  7  2  0
  6 13  1  0
  9 11  1  0
  9  8  1  0
 10  9  2  0
 12 11  1  1
 12 14  1  0
 13 12  1  0
 14 16  1  0
 14 15  2  0
 16 17  1  0
 17 20  1  0
 17 18  1  6
 18 19  1  0
 20 21  1  0
 22 20  2  0
M  END
$$$$
