TNC.pdb
     RDKit          3D

 22 21  0  0  1  0  0  0  0  0999 V2000
    8.1068  -12.5297   20.7733 C   0  0  0  0  0  0  0  0  0  0  0  0
    7.8817  -13.4969   19.6338 C   0  0  1  0  0  0  0  0  0  0  0  0
    8.7263  -13.1382   18.5940 O   0  0  0  0  0  0  0  0  0  0  0  0
    8.1645  -14.9109   20.1414 C   0  0  2  0  0  0  0  0  0  0  0  0
    8.2592  -15.8366   19.0545 N   0  0  0  0  0  0  0  0  0  0  0  0
    7.2388  -15.3169   21.1970 C   0  0  0  0  0  0  0  0  0  0  0  0
    6.2306  -16.0008   20.8852 O   0  0  0  0  0  0  0  0  0  0  0  0
    6.9467  -17.8314   25.6183 N   0  0  0  0  0  0  0  0  0  0  0  0
    7.7231  -18.1635   24.4875 C   0  0  0  0  0  0  0  0  0  0  0  0
    8.2217  -19.3122   24.4138 O   0  0  0  0  0  0  0  0  0  0  0  0
    7.9355  -17.1749   23.4189 C   0  0  0  0  0  0  0  0  0  0  0  0
    7.2462  -15.8554   23.6306 C   0  0  2  0  0  0  0  0  0  0  0  0
    7.4741  -14.9461   22.5436 N   0  0  0  0  0  0  0  0  0  0  0  0
    7.5591  -15.2990   24.9439 C   0  0  0  0  0  0  0  0  0  0  0  0
    7.3444  -15.9598   25.9804 O   0  0  0  0  0  0  0  0  0  0  0  0
    8.1176  -13.9970   25.1458 N   0  0  0  0  0  0  0  0  0  0  0  0
    8.1677  -13.3832   26.4513 C   0  0  1  0  0  0  0  0  0  0  0  0
    6.7879  -13.0298   26.9699 C   0  0  0  0  0  0  0  0  0  0  0  0
    6.2784  -11.5172   26.0726 S   0  0  0  0  0  0  0  0  0  0  0  0
    8.8129  -14.2780   27.4364 C   0  0  0  0  0  0  0  0  0  0  0  0
    9.1107  -13.8684   28.7141 O   0  0  0  0  0  0  0  0  0  0  0  0
    9.0940  -15.4454   27.0866 O   0  0  0  0  0  0  0  0  0  0  0  0
  2  1  1  1
  2  3  1  0
  4  2  1  0
  4  6  1  0
  4  5  1  6
  6  7  2  0
  6 13  1  0
  9 11  1  0
  9  8  1  0
 10  9  2  0
 12 11  1  6
 12 14  1  0
 13 12  1  0
 14 16  1  0
 14 15  2  0
 16 17  1  0
 17 20  1  0
 17 18  1  1
 18 19  1  0
 20 21  1  0
 22 20  2  0
M  END
$$$$
