TNC.pdb
     RDKit          3D

 22 21  0  0  1  0  0  0  0  0999 V2000
    9.4802  -12.5098   19.7898 C   0  0  0  0  0  0  0  0  0  0  0  0
    8.6082  -13.5029   19.0561 C   0  0  1  0  0  0  0  0  0  0  0  0
    7.5475  -12.8086   18.4940 O   0  0  0  0  0  0  0  0  0  0  0  0
    9.4622  -14.2015   17.9980 C   0  0  2  0  0  0  0  0  0  0  0  0
    8.6435  -14.9245   17.0737 N   0  0  0  0  0  0  0  0  0  0  0  0
   10.5417  -14.9903   18.5885 C   0  0  0  0  0  0  0  0  0  0  0  0
   10.3198  -16.1932   18.8806 O   0  0  0  0  0  0  0  0  0  0  0  0
   14.8648  -13.6495   16.9114 N   0  0  0  0  0  0  0  0  0  0  0  0
   14.6548  -14.7652   17.7497 C   0  0  0  0  0  0  0  0  0  0  0  0
   14.8449  -15.9143   17.2842 O   0  0  0  0  0  0  0  0  0  0  0  0
   14.2238  -14.5735   19.1433 C   0  0  0  0  0  0  0  0  0  0  0  0
   12.8684  -15.1368   19.4702 C   0  0  2  0  0  0  0  0  0  0  0  0
   11.8115  -14.4097   18.8264 N   0  0  0  0  0  0  0  0  0  0  0  0
   12.6911  -15.2877   20.9116 C   0  0  0  0  0  0  0  0  0  0  0  0
   12.8426  -14.3122   21.6751 O   0  0  0  0  0  0  0  0  0  0  0  0
   12.3419  -16.5213   21.5472 N   0  0  0  0  0  0  0  0  0  0  0  0
   12.0614  -16.5975   22.9612 C   0  0  1  0  0  0  0  0  0  0  0  0
   10.5861  -16.8049   23.2407 C   0  0  0  0  0  0  0  0  0  0  0  0
   10.4167  -16.8676   25.0628 S   0  0  0  0  0  0  0  0  0  0  0  0
   12.8085  -17.7062   23.5936 C   0  0  0  0  0  0  0  0  0  0  0  0
   13.3015  -17.6218   24.8738 O   0  0  0  0  0  0  0  0  0  0  0  0
   12.9938  -18.7526   22.9340 O   0  0  0  0  0  0  0  0  0  0  0  0
  2  1  1  6
  2  3  1  0
  4  2  1  0
  4  6  1  0
  4  5  1  1
  6  7  2  0
  6 13  1  0
  9 11  1  0
  9  8  1  0
 10  9  2  0
 12 11  1  1
 12 14  1  0
 13 12  1  0
 14 16  1  0
 14 15  2  0
 16 17  1  0
 17 20  1  0
 17 18  1  6
 18 19  1  0
 20 21  1  0
 22 20  2  0
M  END
$$$$
