TNC.pdb
     RDKit          3D

 22 21  0  0  1  0  0  0  0  0999 V2000
   -4.3300  -27.9283   30.4039 C   0  0  0  0  0  0  0  0  0  0  0  0
   -3.1214  -27.3340   31.0899 C   0  0  1  0  0  0  0  0  0  0  0  0
   -2.3086  -28.3775   31.5064 O   0  0  0  0  0  0  0  0  0  0  0  0
   -2.4106  -26.4135   30.0978 C   0  0  2  0  0  0  0  0  0  0  0  0
   -1.1560  -25.9668   30.6208 N   0  0  0  0  0  0  0  0  0  0  0  0
   -3.2779  -25.3392   29.6183 C   0  0  0  0  0  0  0  0  0  0  0  0
   -3.6657  -24.4664   30.4363 O   0  0  0  0  0  0  0  0  0  0  0  0
   -6.4575  -22.5506   26.5753 N   0  0  0  0  0  0  0  0  0  0  0  0
   -5.5813  -23.2555   25.7226 C   0  0  0  0  0  0  0  0  0  0  0  0
   -5.6295  -23.0320   24.4893 O   0  0  0  0  0  0  0  0  0  0  0  0
   -4.6304  -24.2301   26.2798 C   0  0  0  0  0  0  0  0  0  0  0  0
   -4.6098  -24.3075   27.7814 C   0  0  2  0  0  0  0  0  0  0  0  0
   -3.6729  -25.2844   28.2592 N   0  0  0  0  0  0  0  0  0  0  0  0
   -5.9570  -24.4646   28.3222 C   0  0  0  0  0  0  0  0  0  0  0  0
   -6.6005  -25.5157   28.1270 O   0  0  0  0  0  0  0  0  0  0  0  0
   -6.6284  -23.4632   29.0931 N   0  0  0  0  0  0  0  0  0  0  0  0
   -7.9492  -23.6767   29.6351 C   0  0  1  0  0  0  0  0  0  0  0  0
   -7.9364  -23.7808   31.1472 C   0  0  0  0  0  0  0  0  0  0  0  0
   -7.0670  -22.2877   31.7532 S   0  0  0  0  0  0  0  0  0  0  0  0
   -8.8639  -22.5772   29.2585 C   0  0  0  0  0  0  0  0  0  0  0  0
  -10.1997  -22.5918   29.5813 O   0  0  0  0  0  0  0  0  0  0  0  0
   -8.3978  -21.6049   28.6247 O   0  0  0  0  0  0  0  0  0  0  0  0
  2  1  1  6
  2  3  1  0
  4  2  1  0
  4  6  1  0
  4  5  1  1
  6  7  2  0
  6 13  1  0
  9 11  1  0
  9  8  1  0
 10  9  2  0
 12 11  1  6
 12 14  1  0
 13 12  1  0
 14 16  1  0
 14 15  2  0
 16 17  1  0
 17 20  1  0
 17 18  1  1
 18 19  1  0
 20 21  1  0
 22 20  2  0
M  END
$$$$
