TNC.pdb
     RDKit          3D

 22 21  0  0  1  0  0  0  0  0999 V2000
    7.3939  -13.0641   19.2530 C   0  0  0  0  0  0  0  0  0  0  0  0
    7.3306  -14.0848   20.3660 C   0  0  1  0  0  0  0  0  0  0  0  0
    7.1917  -15.3388   19.7903 O   0  0  0  0  0  0  0  0  0  0  0  0
    8.6107  -13.9720   21.1941 C   0  0  2  0  0  0  0  0  0  0  0  0
    9.7673  -14.2057   20.3848 N   0  0  0  0  0  0  0  0  0  0  0  0
    8.5568  -14.7787   22.4117 C   0  0  0  0  0  0  0  0  0  0  0  0
    7.5463  -14.6835   23.1542 O   0  0  0  0  0  0  0  0  0  0  0  0
   10.8383  -18.8575   21.8353 N   0  0  0  0  0  0  0  0  0  0  0  0
   10.0635  -18.5755   22.9807 C   0  0  0  0  0  0  0  0  0  0  0  0
    8.9881  -19.1985   23.1505 O   0  0  0  0  0  0  0  0  0  0  0  0
   10.5186  -17.5698   23.9533 C   0  0  0  0  0  0  0  0  0  0  0  0
    9.6810  -16.3224   24.0134 C   0  0  2  0  0  0  0  0  0  0  0  0
    9.6225  -15.6493   22.7470 N   0  0  0  0  0  0  0  0  0  0  0  0
   10.0879  -15.4641   25.1223 C   0  0  0  0  0  0  0  0  0  0  0  0
   11.2427  -14.9937   25.1699 O   0  0  0  0  0  0  0  0  0  0  0  0
    9.2286  -15.1033   26.2083 N   0  0  0  0  0  0  0  0  0  0  0  0
    9.6809  -14.2633   27.2916 C   0  0  1  0  0  0  0  0  0  0  0  0
    8.5989  -13.3158   27.7701 C   0  0  0  0  0  0  0  0  0  0  0  0
    7.7446  -12.7167   26.2654 S   0  0  0  0  0  0  0  0  0  0  0  0
   10.1236  -15.0749   28.4460 C   0  0  0  0  0  0  0  0  0  0  0  0
   10.0286  -16.4459   28.4578 O   0  0  0  0  0  0  0  0  0  0  0  0
   10.5993  -14.4856   29.4414 O   0  0  0  0  0  0  0  0  0  0  0  0
  2  1  1  6
  2  3  1  0
  4  2  1  0
  4  6  1  0
  4  5  1  6
  6  7  2  0
  6 13  1  0
  9 11  1  0
  9  8  1  0
 10  9  2  0
 12 11  1  6
 12 14  1  0
 13 12  1  0
 14 16  1  0
 14 15  2  0
 16 17  1  0
 17 20  1  0
 17 18  1  1
 18 19  1  0
 20 21  1  0
 22 20  2  0
M  END
$$$$
