TNC.pdb
     RDKit          3D

 22 21  0  0  1  0  0  0  0  0999 V2000
    9.3819  -14.4633   14.3406 C   0  0  0  0  0  0  0  0  0  0  0  0
    9.2991  -15.0141   15.7457 C   0  0  1  0  0  0  0  0  0  0  0  0
   10.3565  -14.4906   16.4744 O   0  0  0  0  0  0  0  0  0  0  0  0
    7.9448  -14.6213   16.3362 C   0  0  2  0  0  0  0  0  0  0  0  0
    7.7052  -13.2191   16.1816 N   0  0  0  0  0  0  0  0  0  0  0  0
    7.7710  -15.1132   17.7014 C   0  0  0  0  0  0  0  0  0  0  0  0
    7.2954  -14.3350   18.5672 O   0  0  0  0  0  0  0  0  0  0  0  0
    5.7186  -19.4855   19.5123 N   0  0  0  0  0  0  0  0  0  0  0  0
    6.8549  -19.1333   18.7529 C   0  0  0  0  0  0  0  0  0  0  0  0
    6.8684  -19.4002   17.5274 O   0  0  0  0  0  0  0  0  0  0  0  0
    7.9962  -18.4631   19.3954 C   0  0  0  0  0  0  0  0  0  0  0  0
    7.9471  -16.9605   19.3655 C   0  0  2  0  0  0  0  0  0  0  0  0
    8.1321  -16.4401   18.0406 N   0  0  0  0  0  0  0  0  0  0  0  0
    8.8453  -16.3813   20.3603 C   0  0  0  0  0  0  0  0  0  0  0  0
   10.0404  -16.1555   20.0810 O   0  0  0  0  0  0  0  0  0  0  0  0
    8.4459  -16.0366   21.6905 N   0  0  0  0  0  0  0  0  0  0  0  0
    9.3447  -15.3810   22.6105 C   0  0  1  0  0  0  0  0  0  0  0  0
    8.6065  -14.7223   23.7588 C   0  0  0  0  0  0  0  0  0  0  0  0
    7.4974  -13.4764   23.0036 S   0  0  0  0  0  0  0  0  0  0  0  0
   10.3170  -16.3392   23.1794 C   0  0  0  0  0  0  0  0  0  0  0  0
   11.3194  -15.9463   24.0338 O   0  0  0  0  0  0  0  0  0  0  0  0
   10.2169  -17.5461   22.8672 O   0  0  0  0  0  0  0  0  0  0  0  0
  2  1  1  6
  2  3  1  0
  4  2  1  0
  4  6  1  0
  4  5  1  1
  6  7  2  0
  6 13  1  0
  9 11  1  0
  9  8  1  0
 10  9  2  0
 12 11  1  6
 12 14  1  0
 13 12  1  0
 14 16  1  0
 14 15  2  0
 16 17  1  0
 17 20  1  0
 17 18  1  1
 18 19  1  0
 20 21  1  0
 22 20  2  0
M  END
$$$$
