TNC.pdb
     RDKit          3D

 22 21  0  0  1  0  0  0  0  0999 V2000
    8.9540  -12.4829   17.6483 C   0  0  0  0  0  0  0  0  0  0  0  0
    8.4994  -13.2290   18.8817 C   0  0  1  0  0  0  0  0  0  0  0  0
    7.1760  -12.8922   19.1229 O   0  0  0  0  0  0  0  0  0  0  0  0
    8.6736  -14.7265   18.6282 C   0  0  2  0  0  0  0  0  0  0  0  0
    7.8628  -15.1587   17.5314 N   0  0  0  0  0  0  0  0  0  0  0  0
    8.5084  -15.5182   19.8456 C   0  0  0  0  0  0  0  0  0  0  0  0
    7.4099  -16.0972   20.0443 O   0  0  0  0  0  0  0  0  0  0  0  0
    9.3065  -18.8788   23.8385 N   0  0  0  0  0  0  0  0  0  0  0  0
   10.4080  -18.0464   23.5454 C   0  0  0  0  0  0  0  0  0  0  0  0
   11.3164  -17.9234   24.4017 O   0  0  0  0  0  0  0  0  0  0  0  0
   10.4817  -17.3426   22.2556 C   0  0  0  0  0  0  0  0  0  0  0  0
    9.4027  -16.3199   22.0296 C   0  0  2  0  0  0  0  0  0  0  0  0
    9.5654  -15.6295   20.7817 N   0  0  0  0  0  0  0  0  0  0  0  0
    9.2621  -15.4348   23.1824 C   0  0  0  0  0  0  0  0  0  0  0  0
   10.1866  -14.6611   23.5048 O   0  0  0  0  0  0  0  0  0  0  0  0
    8.0955  -15.3820   24.0094 N   0  0  0  0  0  0  0  0  0  0  0  0
    7.9721  -14.4372   25.0939 C   0  0  1  0  0  0  0  0  0  0  0  0
    6.5276  -14.0704   25.3706 C   0  0  0  0  0  0  0  0  0  0  0  0
    6.5655  -12.8353   26.7218 S   0  0  0  0  0  0  0  0  0  0  0  0
    8.5551  -14.9782   26.3408 C   0  0  0  0  0  0  0  0  0  0  0  0
    9.2259  -14.1851   27.2408 O   0  0  0  0  0  0  0  0  0  0  0  0
    8.4291  -16.2000   26.5765 O   0  0  0  0  0  0  0  0  0  0  0  0
  2  1  1  6
  2  3  1  0
  4  2  1  0
  4  6  1  0
  4  5  1  6
  6  7  2  0
  6 13  1  0
  9 11  1  0
  9  8  1  0
 10  9  2  0
 12 11  1  1
 12 14  1  0
 13 12  1  0
 14 16  1  0
 14 15  2  0
 16 17  1  0
 17 20  1  0
 17 18  1  1
 18 19  1  0
 20 21  1  0
 22 20  2  0
M  END
$$$$
