HCT.pdb
     RDKit          3D

 24 24  0  0  1  0  0  0  0  0999 V2000
   18.5245  -14.9851  -18.0302 N   0  0  0  0  0  0  0  0  0  0  0  0
   18.0153  -13.8616  -17.2731 C   0  0  1  0  0  0  0  0  0  0  0  0
   18.1418  -14.1540  -15.7722 C   0  0  0  0  0  0  0  0  0  0  0  0
   17.0661  -15.1022  -15.3870 C   0  0  0  0  0  0  0  0  0  0  0  0
   16.1094  -15.6950  -16.1862 C   0  0  0  0  0  0  0  0  0  0  0  0
   15.3448  -16.4786  -15.4106 N   0  0  0  0  0  0  0  0  0  0  0  0
   15.7846  -16.4025  -14.1466 C   0  0  0  0  0  0  0  0  0  0  0  0
   16.8305  -15.5651  -14.1372 N   0  0  0  0  0  0  0  0  0  0  0  0
   18.8862  -12.6932  -17.5355 C   0  0  0  0  0  0  0  0  0  0  0  0
   19.9328  -12.9140  -18.2102 O   0  0  0  0  0  0  0  0  0  0  0  0
   18.5815  -11.3936  -17.0658 N   0  0  0  0  0  0  0  0  0  0  0  0
   19.4330  -10.3104  -17.4578 C   0  0  1  0  0  0  0  0  0  0  0  0
   19.2000   -9.9761  -18.9192 C   0  0  0  0  0  0  0  0  0  0  0  0
   20.3471   -8.6487  -19.3661 S   0  0  0  0  0  0  0  0  0  0  0  0
   19.2507   -9.0878  -16.6828 C   0  0  0  0  0  0  0  0  0  0  0  0
   18.1346   -8.5875  -16.5353 O   0  0  0  0  0  0  0  0  0  0  0  0
   20.5760   -8.8326  -13.1063 C   0  0  0  0  0  0  0  0  0  0  0  0
   21.1316   -7.6608  -13.8894 C   0  0  1  0  0  0  0  0  0  0  0  0
   22.4193   -8.0375  -14.2862 O   0  0  0  0  0  0  0  0  0  0  0  0
   20.3345   -7.4179  -15.1291 C   0  0  2  0  0  0  0  0  0  0  0  0
   20.3748   -8.4723  -16.0945 N   0  0  0  0  0  0  0  0  0  0  0  0
   20.7938   -6.1639  -15.7715 C   0  0  0  0  0  0  0  0  0  0  0  0
   20.6991   -4.9262  -15.1589 O   0  0  0  0  0  0  0  0  0  0  0  0
   21.3060   -6.1715  -16.9389 O   0  0  0  0  0  0  0  0  0  0  0  0
  2  1  1  6
  3  4  1  0
  3  2  1  0
  4  5  2  0
  5  6  1  0
  7  6  1  0
  8  7  2  0
  8  4  1  0
  9  2  1  0
  9 10  2  0
 11  9  1  0
 12 11  1  0
 12 15  1  0
 12 13  1  6
 14 13  1  0
 15 21  1  0
 16 15  2  0
 18 20  1  0
 18 17  1  6
 19 18  1  0
 20 22  1  0
 20 21  1  6
 22 24  2  0
 22 23  1  0
M  END
$$$$
