HCT.pdb
     RDKit          3D

 24 24  0  0  1  0  0  0  0  0999 V2000
   15.1725  -22.3491   -1.8486 N   0  0  0  0  0  0  0  0  0  0  0  0
   14.6058  -22.0660   -0.5473 C   0  0  1  0  0  0  0  0  0  0  0  0
   13.5474  -23.1233   -0.2069 C   0  0  0  0  0  0  0  0  0  0  0  0
   12.4215  -22.9851   -1.1649 C   0  0  0  0  0  0  0  0  0  0  0  0
   11.6392  -21.8780   -1.4253 C   0  0  0  0  0  0  0  0  0  0  0  0
   10.7426  -22.2122   -2.3657 N   0  0  0  0  0  0  0  0  0  0  0  0
   10.9301  -23.4942   -2.7103 C   0  0  0  0  0  0  0  0  0  0  0  0
   11.9511  -23.9594   -1.9781 N   0  0  0  0  0  0  0  0  0  0  0  0
   15.6744  -22.2179    0.4663 C   0  0  0  0  0  0  0  0  0  0  0  0
   16.7706  -22.6983    0.0581 O   0  0  0  0  0  0  0  0  0  0  0  0
   15.4981  -21.8515    1.8217 N   0  0  0  0  0  0  0  0  0  0  0  0
   16.6587  -21.7392    2.6537 C   0  0  1  0  0  0  0  0  0  0  0  0
   17.5668  -20.6450    2.1245 C   0  0  0  0  0  0  0  0  0  0  0  0
   16.6216  -19.1011    2.1270 S   0  0  0  0  0  0  0  0  0  0  0  0
   16.3722  -21.4468    4.0541 C   0  0  0  0  0  0  0  0  0  0  0  0
   15.6380  -20.5100    4.3720 O   0  0  0  0  0  0  0  0  0  0  0  0
   16.4308  -24.6180    6.8235 C   0  0  0  0  0  0  0  0  0  0  0  0
   17.1180  -23.3424    7.2660 C   0  0  1  0  0  0  0  0  0  0  0  0
   18.4795  -23.5253    7.0006 O   0  0  0  0  0  0  0  0  0  0  0  0
   16.6570  -22.1757    6.4551 C   0  0  2  0  0  0  0  0  0  0  0  0
   16.9481  -22.2536    5.0570 N   0  0  0  0  0  0  0  0  0  0  0  0
   17.2529  -20.9325    6.9988 C   0  0  0  0  0  0  0  0  0  0  0  0
   16.8717  -20.3828    8.2106 O   0  0  0  0  0  0  0  0  0  0  0  0
   18.1602  -20.3036    6.3610 O   0  0  0  0  0  0  0  0  0  0  0  0
  2  1  1  6
  3  4  1  0
  3  2  1  0
  4  5  2  0
  5  6  1  0
  7  6  1  0
  8  7  2  0
  8  4  1  0
  9  2  1  0
  9 10  2  0
 11  9  1  0
 12 11  1  0
 12 15  1  0
 12 13  1  6
 14 13  1  0
 15 21  1  0
 16 15  2  0
 18 20  1  0
 18 17  1  6
 19 18  1  0
 20 22  1  0
 20 21  1  6
 22 24  2  0
 22 23  1  0
M  END
$$$$
