HCT.pdb
     RDKit          3D

 24 24  0  0  1  0  0  0  0  0999 V2000
   24.4039  -12.6710  -17.1348 N   0  0  0  0  0  0  0  0  0  0  0  0
   24.6260  -11.5511  -16.2452 C   0  0  1  0  0  0  0  0  0  0  0  0
   25.8799  -10.7852  -16.6868 C   0  0  0  0  0  0  0  0  0  0  0  0
   27.0615  -11.6597  -16.4776 C   0  0  0  0  0  0  0  0  0  0  0  0
   27.6216  -12.0864  -15.2903 C   0  0  0  0  0  0  0  0  0  0  0  0
   28.6771  -12.8617  -15.5816 N   0  0  0  0  0  0  0  0  0  0  0  0
   28.8049  -12.9409  -16.9137 C   0  0  0  0  0  0  0  0  0  0  0  0
   27.8212  -12.2090  -17.4537 N   0  0  0  0  0  0  0  0  0  0  0  0
   23.4962  -10.6064  -16.3986 C   0  0  0  0  0  0  0  0  0  0  0  0
   22.9572  -10.5575  -17.5416 O   0  0  0  0  0  0  0  0  0  0  0  0
   23.0307   -9.7947  -15.3371 N   0  0  0  0  0  0  0  0  0  0  0  0
   21.8155   -9.0596  -15.5238 C   0  0  1  0  0  0  0  0  0  0  0  0
   21.0219   -9.0410  -14.2309 C   0  0  0  0  0  0  0  0  0  0  0  0
   20.3855  -10.7133  -13.9558 S   0  0  0  0  0  0  0  0  0  0  0  0
   22.0051   -7.6785  -15.9543 C   0  0  0  0  0  0  0  0  0  0  0  0
   22.8766   -6.9681  -15.4508 O   0  0  0  0  0  0  0  0  0  0  0  0
   19.3654   -5.9921  -19.0988 C   0  0  0  0  0  0  0  0  0  0  0  0
   20.8587   -5.7653  -18.9821 C   0  0  1  0  0  0  0  0  0  0  0  0
   21.0840   -4.4513  -19.4065 O   0  0  0  0  0  0  0  0  0  0  0  0
   21.3060   -5.8590  -17.5599 C   0  0  2  0  0  0  0  0  0  0  0  0
   21.1738   -7.1527  -16.9647 N   0  0  0  0  0  0  0  0  0  0  0  0
   20.5548   -4.8776  -16.7422 C   0  0  0  0  0  0  0  0  0  0  0  0
   20.7904   -3.5148  -16.7977 O   0  0  0  0  0  0  0  0  0  0  0  0
   19.6412   -5.2541  -15.9366 O   0  0  0  0  0  0  0  0  0  0  0  0
  2  1  1  6
  3  4  1  0
  3  2  1  0
  4  5  2  0
  5  6  1  0
  7  6  1  0
  8  7  2  0
  8  4  1  0
  9  2  1  0
  9 10  2  0
 11  9  1  0
 12 11  1  0
 12 15  1  0
 12 13  1  1
 14 13  1  0
 15 21  1  0
 16 15  2  0
 18 20  1  0
 18 17  1  1
 19 18  1  0
 20 22  1  0
 20 21  1  1
 22 24  2  0
 22 23  1  0
M  END
$$$$
