HCT.pdb
     RDKit          3D

 24 24  0  0  1  0  0  0  0  0999 V2000
   21.4025  -14.4398  -17.4740 N   0  0  0  0  0  0  0  0  0  0  0  0
   21.9991  -13.2254  -17.9879 C   0  0  1  0  0  0  0  0  0  0  0  0
   21.3507  -12.8627  -19.3303 C   0  0  0  0  0  0  0  0  0  0  0  0
   21.8072  -13.8399  -20.3507 C   0  0  0  0  0  0  0  0  0  0  0  0
   22.9453  -13.8065  -21.1311 C   0  0  0  0  0  0  0  0  0  0  0  0
   22.9478  -14.8972  -21.9124 N   0  0  0  0  0  0  0  0  0  0  0  0
   21.8496  -15.6210  -21.6534 C   0  0  0  0  0  0  0  0  0  0  0  0
   21.1597  -14.9746  -20.7040 N   0  0  0  0  0  0  0  0  0  0  0  0
   21.6667  -12.1184  -17.0624 C   0  0  0  0  0  0  0  0  0  0  0  0
   20.5341  -12.1762  -16.5027 O   0  0  0  0  0  0  0  0  0  0  0  0
   22.5538  -11.0463  -16.8053 N   0  0  0  0  0  0  0  0  0  0  0  0
   22.1493  -10.0356  -15.8743 C   0  0  1  0  0  0  0  0  0  0  0  0
   23.2041   -9.8789  -14.7950 C   0  0  0  0  0  0  0  0  0  0  0  0
   22.8009  -11.0376  -13.4639 S   0  0  0  0  0  0  0  0  0  0  0  0
   21.9174   -8.7239  -16.4695 C   0  0  0  0  0  0  0  0  0  0  0  0
   22.7924   -8.1593  -17.1277 O   0  0  0  0  0  0  0  0  0  0  0  0
   18.0383   -6.7520  -15.7968 C   0  0  0  0  0  0  0  0  0  0  0  0
   18.7590   -6.7782  -17.1291 C   0  0  1  0  0  0  0  0  0  0  0  0
   18.5141   -5.5364  -17.7251 O   0  0  0  0  0  0  0  0  0  0  0  0
   20.2355   -6.8993  -16.9378 C   0  0  2  0  0  0  0  0  0  0  0  0
   20.6682   -8.0961  -16.2852 N   0  0  0  0  0  0  0  0  0  0  0  0
   20.7297   -5.7314  -16.1711 C   0  0  0  0  0  0  0  0  0  0  0  0
   20.9190   -4.4835  -16.7395 O   0  0  0  0  0  0  0  0  0  0  0  0
   21.0071   -5.8278  -14.9305 O   0  0  0  0  0  0  0  0  0  0  0  0
  2  1  1  1
  3  4  1  0
  3  2  1  0
  4  5  2  0
  5  6  1  0
  7  6  1  0
  8  7  2  0
  8  4  1  0
  9  2  1  0
  9 10  2  0
 11  9  1  0
 12 11  1  0
 12 15  1  0
 12 13  1  1
 14 13  1  0
 15 21  1  0
 16 15  2  0
 18 20  1  0
 18 17  1  1
 19 18  1  0
 20 22  1  0
 20 21  1  1
 22 24  2  0
 22 23  1  0
M  END
$$$$
