HCT.pdb
     RDKit          3D

 24 24  0  0  1  0  0  0  0  0999 V2000
   21.2917  -13.1395  -17.9804 N   0  0  0  0  0  0  0  0  0  0  0  0
   22.2306  -12.1082  -17.5937 C   0  0  1  0  0  0  0  0  0  0  0  0
   23.1469  -11.7771  -18.7790 C   0  0  0  0  0  0  0  0  0  0  0  0
   23.9684  -12.9754  -19.0857 C   0  0  0  0  0  0  0  0  0  0  0  0
   23.7767  -13.9265  -20.0674 C   0  0  0  0  0  0  0  0  0  0  0  0
   24.7655  -14.8285  -19.9735 N   0  0  0  0  0  0  0  0  0  0  0  0
   25.5776  -14.4811  -18.9651 C   0  0  0  0  0  0  0  0  0  0  0  0
   25.0892  -13.3546  -18.4288 N   0  0  0  0  0  0  0  0  0  0  0  0
   21.4687  -10.8709  -17.3095 C   0  0  0  0  0  0  0  0  0  0  0  0
   20.3448  -10.7609  -17.8788 O   0  0  0  0  0  0  0  0  0  0  0  0
   21.9542   -9.8560  -16.4512 N   0  0  0  0  0  0  0  0  0  0  0  0
   21.0517   -8.8228  -16.0390 C   0  0  1  0  0  0  0  0  0  0  0  0
   19.9196   -9.4230  -15.2265 C   0  0  0  0  0  0  0  0  0  0  0  0
   18.8230   -8.0696  -14.7337 S   0  0  0  0  0  0  0  0  0  0  0  0
   21.6660   -7.7667  -15.2415 C   0  0  0  0  0  0  0  0  0  0  0  0
   22.2639   -8.0242  -14.1956 O   0  0  0  0  0  0  0  0  0  0  0  0
   22.9420   -2.9340  -15.2198 C   0  0  0  0  0  0  0  0  0  0  0  0
   22.0520   -4.0119  -15.8040 C   0  0  1  0  0  0  0  0  0  0  0  0
   22.4646   -4.1760  -17.1308 O   0  0  0  0  0  0  0  0  0  0  0  0
   22.2602   -5.3160  -15.1061 C   0  0  2  0  0  0  0  0  0  0  0  0
   21.5709   -6.4299  -15.6802 N   0  0  0  0  0  0  0  0  0  0  0  0
   21.8565   -5.1842  -13.6863 C   0  0  0  0  0  0  0  0  0  0  0  0
   20.7040   -5.7560  -13.1756 O   0  0  0  0  0  0  0  0  0  0  0  0
   22.5674   -4.5256  -12.8581 O   0  0  0  0  0  0  0  0  0  0  0  0
  2  1  1  6
  3  4  1  0
  3  2  1  0
  4  5  2  0
  5  6  1  0
  7  6  1  0
  8  7  2  0
  8  4  1  0
  9  2  1  0
  9 10  2  0
 11  9  1  0
 12 11  1  0
 12 15  1  0
 12 13  1  1
 14 13  1  0
 15 21  1  0
 16 15  2  0
 18 20  1  0
 18 17  1  1
 19 18  1  0
 20 22  1  0
 20 21  1  6
 22 24  2  0
 22 23  1  0
M  END
$$$$
