HCT.pdb
     RDKit          3D

 24 24  0  0  1  0  0  0  0  0999 V2000
   20.2844  -12.2566  -16.1514 N   0  0  0  0  0  0  0  0  0  0  0  0
   19.1502  -11.4320  -16.5099 C   0  0  1  0  0  0  0  0  0  0  0  0
   17.8515  -12.2144  -16.2745 C   0  0  0  0  0  0  0  0  0  0  0  0
   17.6905  -13.1979  -17.3751 C   0  0  0  0  0  0  0  0  0  0  0  0
   16.9634  -13.0776  -18.5423 C   0  0  0  0  0  0  0  0  0  0  0  0
   17.1053  -14.2139  -19.2415 N   0  0  0  0  0  0  0  0  0  0  0  0
   17.8980  -15.0505  -18.5567 C   0  0  0  0  0  0  0  0  0  0  0  0
   18.2510  -14.4289  -17.4236 N   0  0  0  0  0  0  0  0  0  0  0  0
   19.1047  -10.2783  -15.5829 C   0  0  0  0  0  0  0  0  0  0  0  0
   19.1480  -10.5488  -14.3483 O   0  0  0  0  0  0  0  0  0  0  0  0
   19.0177   -8.9399  -16.0341 N   0  0  0  0  0  0  0  0  0  0  0  0
   19.0779   -7.8884  -15.0633 C   0  0  1  0  0  0  0  0  0  0  0  0
   20.4518   -7.8604  -14.4201 C   0  0  0  0  0  0  0  0  0  0  0  0
   21.6621   -8.2872  -15.6969 S   0  0  0  0  0  0  0  0  0  0  0  0
   18.8043   -6.5580  -15.5959 C   0  0  0  0  0  0  0  0  0  0  0  0
   19.2629   -6.1997  -16.6818 O   0  0  0  0  0  0  0  0  0  0  0  0
   15.0777   -4.9492  -14.9094 C   0  0  0  0  0  0  0  0  0  0  0  0
   16.2132   -3.9790  -14.6551 C   0  0  1  0  0  0  0  0  0  0  0  0
   16.4442   -4.0082  -13.2755 O   0  0  0  0  0  0  0  0  0  0  0  0
   17.4671   -4.4325  -15.3284 C   0  0  2  0  0  0  0  0  0  0  0  0
   18.0001   -5.6709  -14.8511 N   0  0  0  0  0  0  0  0  0  0  0  0
   18.5045   -3.3826  -15.1951 C   0  0  0  0  0  0  0  0  0  0  0  0
   18.3822   -2.1273  -15.7652 O   0  0  0  0  0  0  0  0  0  0  0  0
   19.5752   -3.5949  -14.5365 O   0  0  0  0  0  0  0  0  0  0  0  0
  2  1  1  1
  3  4  1  0
  3  2  1  0
  4  5  2  0
  5  6  1  0
  7  6  1  0
  8  7  2  0
  8  4  1  0
  9  2  1  0
  9 10  2  0
 11  9  1  0
 12 11  1  0
 12 15  1  0
 12 13  1  6
 14 13  1  0
 15 21  1  0
 16 15  2  0
 18 20  1  0
 18 17  1  1
 19 18  1  0
 20 22  1  0
 20 21  1  1
 22 24  2  0
 22 23  1  0
M  END
$$$$
