HCT.pdb
     RDKit          3D

 24 24  0  0  1  0  0  0  0  0999 V2000
   27.1543  -17.9927  -16.9825 N   0  0  0  0  0  0  0  0  0  0  0  0
   26.5244  -17.5945  -18.2232 C   0  0  1  0  0  0  0  0  0  0  0  0
   26.0829  -18.8425  -18.9988 C   0  0  0  0  0  0  0  0  0  0  0  0
   27.2938  -19.6195  -19.3655 C   0  0  0  0  0  0  0  0  0  0  0  0
   27.8413  -20.7169  -18.7321 C   0  0  0  0  0  0  0  0  0  0  0  0
   28.9347  -21.0903  -19.4141 N   0  0  0  0  0  0  0  0  0  0  0  0
   29.0988  -20.2663  -20.4588 C   0  0  0  0  0  0  0  0  0  0  0  0
   28.0995  -19.3745  -20.4250 N   0  0  0  0  0  0  0  0  0  0  0  0
   25.2827  -16.8570  -17.8966 C   0  0  0  0  0  0  0  0  0  0  0  0
   24.4293  -16.7568  -18.8244 O   0  0  0  0  0  0  0  0  0  0  0  0
   25.0455  -16.2887  -16.6225 N   0  0  0  0  0  0  0  0  0  0  0  0
   23.8158  -15.5861  -16.4081 C   0  0  1  0  0  0  0  0  0  0  0  0
   23.3248  -15.8289  -14.9932 C   0  0  0  0  0  0  0  0  0  0  0  0
   21.7077  -15.0313  -14.8312 S   0  0  0  0  0  0  0  0  0  0  0  0
   23.9002  -14.1440  -16.6130 C   0  0  0  0  0  0  0  0  0  0  0  0
   24.7022  -13.4565  -15.9792 O   0  0  0  0  0  0  0  0  0  0  0  0
   22.6846  -10.2899  -19.4744 C   0  0  0  0  0  0  0  0  0  0  0  0
   22.6207  -11.7864  -19.2468 C   0  0  1  0  0  0  0  0  0  0  0  0
   23.5865  -12.3467  -20.0899 O   0  0  0  0  0  0  0  0  0  0  0  0
   22.9971  -12.1321  -17.8432 C   0  0  2  0  0  0  0  0  0  0  0  0
   23.0470  -13.5319  -17.5541 N   0  0  0  0  0  0  0  0  0  0  0  0
   22.0497  -11.4839  -16.9059 C   0  0  0  0  0  0  0  0  0  0  0  0
   22.3107  -10.2717  -16.2908 O   0  0  0  0  0  0  0  0  0  0  0  0
   20.9317  -12.0259  -16.6203 O   0  0  0  0  0  0  0  0  0  0  0  0
  2  1  1  1
  3  4  1  0
  3  2  1  0
  4  5  2  0
  5  6  1  0
  7  6  1  0
  8  7  2  0
  8  4  1  0
  9  2  1  0
  9 10  2  0
 11  9  1  0
 12 11  1  0
 12 15  1  0
 12 13  1  1
 14 13  1  0
 15 21  1  0
 16 15  2  0
 18 20  1  0
 18 17  1  1
 19 18  1  0
 20 22  1  0
 20 21  1  6
 22 24  2  0
 22 23  1  0
M  END
$$$$
