HCT.pdb
     RDKit          3D

 24 24  0  0  1  0  0  0  0  0999 V2000
   24.0532  -11.8745  -17.4569 N   0  0  0  0  0  0  0  0  0  0  0  0
   24.1377  -10.7459  -16.5548 C   0  0  1  0  0  0  0  0  0  0  0  0
   25.1555   -9.7323  -17.0941 C   0  0  0  0  0  0  0  0  0  0  0  0
   26.5148  -10.3129  -16.9537 C   0  0  0  0  0  0  0  0  0  0  0  0
   27.4284  -10.1377  -15.9340 C   0  0  0  0  0  0  0  0  0  0  0  0
   28.5243  -10.8538  -16.2276 N   0  0  0  0  0  0  0  0  0  0  0  0
   28.3361  -11.4772  -17.3994 C   0  0  0  0  0  0  0  0  0  0  0  0
   27.1139  -11.1455  -17.8367 N   0  0  0  0  0  0  0  0  0  0  0  0
   22.8300  -10.0514  -16.5580 C   0  0  0  0  0  0  0  0  0  0  0  0
   22.2000  -10.0468  -17.6546 O   0  0  0  0  0  0  0  0  0  0  0  0
   22.2976   -9.4217  -15.4080 N   0  0  0  0  0  0  0  0  0  0  0  0
   20.9826   -8.8590  -15.4865 C   0  0  1  0  0  0  0  0  0  0  0  0
   20.2344   -9.1179  -14.1922 C   0  0  0  0  0  0  0  0  0  0  0  0
   19.8402  -10.8838  -14.1324 S   0  0  0  0  0  0  0  0  0  0  0  0
   20.9543   -7.4228  -15.7420 C   0  0  0  0  0  0  0  0  0  0  0  0
   21.7844   -6.6686  -15.2323 O   0  0  0  0  0  0  0  0  0  0  0  0
   17.6533   -5.6827  -18.1221 C   0  0  0  0  0  0  0  0  0  0  0  0
   19.1140   -5.3170  -18.2893 C   0  0  1  0  0  0  0  0  0  0  0  0
   19.1395   -3.9454  -18.5637 O   0  0  0  0  0  0  0  0  0  0  0  0
   19.8699   -5.5334  -17.0192 C   0  0  2  0  0  0  0  0  0  0  0  0
   19.9576   -6.8942  -16.5879 N   0  0  0  0  0  0  0  0  0  0  0  0
   19.2554   -4.7279  -15.9376 C   0  0  0  0  0  0  0  0  0  0  0  0
   19.3921   -3.3531  -15.8529 O   0  0  0  0  0  0  0  0  0  0  0  0
   18.5608   -5.2776  -15.0208 O   0  0  0  0  0  0  0  0  0  0  0  0
  2  1  1  6
  3  4  1  0
  3  2  1  0
  4  5  2  0
  5  6  1  0
  7  6  1  0
  8  7  2  0
  8  4  1  0
  9  2  1  0
  9 10  2  0
 11  9  1  0
 12 11  1  0
 12 15  1  0
 12 13  1  1
 14 13  1  0
 15 21  1  0
 16 15  2  0
 18 20  1  0
 18 17  1  1
 19 18  1  0
 20 22  1  0
 20 21  1  1
 22 24  2  0
 22 23  1  0
M  END
$$$$
