HCT.pdb
     RDKit          3D

 24 24  0  0  1  0  0  0  0  0999 V2000
   18.1409  -11.2163  -17.5871 N   0  0  0  0  0  0  0  0  0  0  0  0
   19.4943  -10.7070  -17.5271 C   0  0  1  0  0  0  0  0  0  0  0  0
   19.8661  -10.0763  -18.8754 C   0  0  0  0  0  0  0  0  0  0  0  0
   20.0313  -11.1642  -19.8723 C   0  0  0  0  0  0  0  0  0  0  0  0
   21.1732  -11.8639  -20.2069 C   0  0  0  0  0  0  0  0  0  0  0  0
   20.8535  -12.7544  -21.1581 N   0  0  0  0  0  0  0  0  0  0  0  0
   19.5472  -12.6428  -21.4378 C   0  0  0  0  0  0  0  0  0  0  0  0
   19.0520  -11.6755  -20.6541 N   0  0  0  0  0  0  0  0  0  0  0  0
   19.5315   -9.6058  -16.5379 C   0  0  0  0  0  0  0  0  0  0  0  0
   18.4710   -8.9282  -16.4129 O   0  0  0  0  0  0  0  0  0  0  0  0
   20.6804   -9.3122  -15.7658 N   0  0  0  0  0  0  0  0  0  0  0  0
   20.6019   -8.2548  -14.8027 C   0  0  1  0  0  0  0  0  0  0  0  0
   20.8652   -8.8043  -13.4132 C   0  0  0  0  0  0  0  0  0  0  0  0
   20.7288   -7.4274  -12.2457 S   0  0  0  0  0  0  0  0  0  0  0  0
   21.5331   -7.1558  -15.0349 C   0  0  0  0  0  0  0  0  0  0  0  0
   22.7505   -7.3442  -15.0476 O   0  0  0  0  0  0  0  0  0  0  0  0
   20.7674   -4.2549  -17.7831 C   0  0  0  0  0  0  0  0  0  0  0  0
   21.1106   -3.6872  -16.4211 C   0  0  1  0  0  0  0  0  0  0  0  0
   19.8886   -3.3945  -15.8058 O   0  0  0  0  0  0  0  0  0  0  0  0
   21.8050   -4.7041  -15.5755 C   0  0  2  0  0  0  0  0  0  0  0  0
   21.0255   -5.8576  -15.2480 N   0  0  0  0  0  0  0  0  0  0  0  0
   22.2669   -4.0671  -14.3197 C   0  0  0  0  0  0  0  0  0  0  0  0
   23.2160   -3.0599  -14.2917 O   0  0  0  0  0  0  0  0  0  0  0  0
   21.8006   -4.4266  -13.1889 O   0  0  0  0  0  0  0  0  0  0  0  0
  2  1  1  6
  3  4  1  0
  3  2  1  0
  4  5  2  0
  5  6  1  0
  7  6  1  0
  8  7  2  0
  8  4  1  0
  9  2  1  0
  9 10  2  0
 11  9  1  0
 12 11  1  0
 12 15  1  0
 12 13  1  1
 14 13  1  0
 15 21  1  0
 16 15  2  0
 18 20  1  0
 18 17  1  6
 19 18  1  0
 20 22  1  0
 20 21  1  1
 22 24  2  0
 22 23  1  0
M  END
$$$$
