HCT.pdb
     RDKit          3D

 24 24  0  0  1  0  0  0  0  0999 V2000
   20.2361  -10.9864  -15.6061 N   0  0  0  0  0  0  0  0  0  0  0  0
   19.9032   -9.7389  -16.2601 C   0  0  1  0  0  0  0  0  0  0  0  0
   18.4167   -9.7387  -16.6398 C   0  0  0  0  0  0  0  0  0  0  0  0
   18.2526  -10.5189  -17.8924 C   0  0  0  0  0  0  0  0  0  0  0  0
   17.6050  -11.7230  -18.0821 C   0  0  0  0  0  0  0  0  0  0  0  0
   17.7091  -12.0535  -19.3782 N   0  0  0  0  0  0  0  0  0  0  0  0
   18.4011  -11.0992  -20.0167 C   0  0  0  0  0  0  0  0  0  0  0  0
   18.7291  -10.1690  -19.1099 N   0  0  0  0  0  0  0  0  0  0  0  0
   20.0737   -8.6422  -15.2800 C   0  0  0  0  0  0  0  0  0  0  0  0
   19.9814   -8.9610  -14.0597 O   0  0  0  0  0  0  0  0  0  0  0  0
   20.3265   -7.3049  -15.6677 N   0  0  0  0  0  0  0  0  0  0  0  0
   20.6933   -6.3599  -14.6556 C   0  0  1  0  0  0  0  0  0  0  0  0
   21.9377   -6.8388  -13.9317 C   0  0  0  0  0  0  0  0  0  0  0  0
   22.3586   -5.5945  -12.6859 S   0  0  0  0  0  0  0  0  0  0  0  0
   20.9532   -5.0129  -15.1524 C   0  0  0  0  0  0  0  0  0  0  0  0
   21.9990   -4.7432  -15.7450 O   0  0  0  0  0  0  0  0  0  0  0  0
   17.6568   -2.9136  -16.4783 C   0  0  0  0  0  0  0  0  0  0  0  0
   18.6259   -2.0769  -15.6685 C   0  0  1  0  0  0  0  0  0  0  0  0
   18.1080   -2.0351  -14.3695 O   0  0  0  0  0  0  0  0  0  0  0  0
   19.9670   -2.7306  -15.5946 C   0  0  2  0  0  0  0  0  0  0  0  0
   19.9871   -4.0062  -14.9483 N   0  0  0  0  0  0  0  0  0  0  0  0
   20.9165   -1.8285  -14.9013 C   0  0  0  0  0  0  0  0  0  0  0  0
   21.2202   -0.5587  -15.3610 O   0  0  0  0  0  0  0  0  0  0  0  0
   21.5060   -2.1905  -13.8304 O   0  0  0  0  0  0  0  0  0  0  0  0
  2  1  1  1
  3  4  1  0
  3  2  1  0
  4  5  2  0
  5  6  1  0
  7  6  1  0
  8  7  2  0
  8  4  1  0
  9  2  1  0
  9 10  2  0
 11  9  1  0
 12 11  1  0
 12 15  1  0
 12 13  1  6
 14 13  1  0
 15 21  1  0
 16 15  2  0
 18 20  1  0
 18 17  1  6
 19 18  1  0
 20 22  1  0
 20 21  1  1
 22 24  2  0
 22 23  1  0
M  END
$$$$
