HCT.pdb
     RDKit          3D

 24 24  0  0  1  0  0  0  0  0999 V2000
   26.2140  -11.8745  -17.8799 N   0  0  0  0  0  0  0  0  0  0  0  0
   26.1225  -10.4541  -17.6176 C   0  0  1  0  0  0  0  0  0  0  0  0
   26.8993   -9.6823  -18.6924 C   0  0  0  0  0  0  0  0  0  0  0  0
   28.3368  -10.0355  -18.5765 C   0  0  0  0  0  0  0  0  0  0  0  0
   29.1096  -10.8020  -19.4254 C   0  0  0  0  0  0  0  0  0  0  0  0
   30.3532  -10.8546  -18.9246 N   0  0  0  0  0  0  0  0  0  0  0  0
   30.3947  -10.1472  -17.7866 C   0  0  0  0  0  0  0  0  0  0  0  0
   29.1673   -9.6515  -17.5793 N   0  0  0  0  0  0  0  0  0  0  0  0
   24.7069  -10.0459  -17.7658 C   0  0  0  0  0  0  0  0  0  0  0  0
   23.9361  -10.8840  -18.3160 O   0  0  0  0  0  0  0  0  0  0  0  0
   24.2241   -8.7917  -17.3226 N   0  0  0  0  0  0  0  0  0  0  0  0
   22.8156   -8.5406  -17.3924 C   0  0  1  0  0  0  0  0  0  0  0  0
   22.0711   -9.5434  -16.5308 C   0  0  0  0  0  0  0  0  0  0  0  0
   20.3005   -9.2137  -16.7139 S   0  0  0  0  0  0  0  0  0  0  0  0
   22.4188   -7.2022  -16.9682 C   0  0  0  0  0  0  0  0  0  0  0  0
   22.7875   -6.7411  -15.8870 O   0  0  0  0  0  0  0  0  0  0  0  0
   20.5387   -2.8748  -18.5580 C   0  0  0  0  0  0  0  0  0  0  0  0
   20.6648   -4.3652  -18.7988 C   0  0  1  0  0  0  0  0  0  0  0  0
   21.5586   -4.5098  -19.8653 O   0  0  0  0  0  0  0  0  0  0  0  0
   21.2656   -5.0508  -17.6154 C   0  0  2  0  0  0  0  0  0  0  0  0
   21.5991   -6.4273  -17.8144 N   0  0  0  0  0  0  0  0  0  0  0  0
   20.3398   -4.9451  -16.4631 C   0  0  0  0  0  0  0  0  0  0  0  0
   20.5642   -4.0963  -15.3929 O   0  0  0  0  0  0  0  0  0  0  0  0
   19.2759   -5.6453  -16.4069 O   0  0  0  0  0  0  0  0  0  0  0  0
  2  1  1  6
  3  4  1  0
  3  2  1  0
  4  5  2  0
  5  6  1  0
  7  6  1  0
  8  7  2  0
  8  4  1  0
  9  2  1  0
  9 10  2  0
 11  9  1  0
 12 11  1  0
 12 15  1  0
 12 13  1  1
 14 13  1  0
 15 21  1  0
 16 15  2  0
 18 20  1  0
 18 17  1  1
 19 18  1  0
 20 22  1  0
 20 21  1  6
 22 24  2  0
 22 23  1  0
M  END
$$$$
