HCT.pdb
     RDKit          3D

 24 24  0  0  1  0  0  0  0  0999 V2000
   20.8858  -12.6416  -16.7870 N   0  0  0  0  0  0  0  0  0  0  0  0
   20.0277  -11.5038  -16.5346 C   0  0  1  0  0  0  0  0  0  0  0  0
   19.2563  -11.7224  -15.2264 C   0  0  0  0  0  0  0  0  0  0  0  0
   18.1349  -12.6582  -15.4941 C   0  0  0  0  0  0  0  0  0  0  0  0
   18.1579  -14.0364  -15.5665 C   0  0  0  0  0  0  0  0  0  0  0  0
   16.9129  -14.4614  -15.8299 N   0  0  0  0  0  0  0  0  0  0  0  0
   16.1013  -13.3988  -15.9270 C   0  0  0  0  0  0  0  0  0  0  0  0
   16.8483  -12.3056  -15.7222 N   0  0  0  0  0  0  0  0  0  0  0  0
   20.8851  -10.3179  -16.3088 C   0  0  0  0  0  0  0  0  0  0  0  0
   21.8692  -10.4772  -15.5307 O   0  0  0  0  0  0  0  0  0  0  0  0
   20.6336   -9.0669  -16.9206 N   0  0  0  0  0  0  0  0  0  0  0  0
   21.5898   -8.0157  -16.7400 C   0  0  1  0  0  0  0  0  0  0  0  0
   22.1625   -7.6051  -18.0836 C   0  0  0  0  0  0  0  0  0  0  0  0
   23.1278   -9.0000  -18.7158 S   0  0  0  0  0  0  0  0  0  0  0  0
   21.0585   -6.8202  -16.0940 C   0  0  0  0  0  0  0  0  0  0  0  0
   19.9997   -6.3122  -16.4662 O   0  0  0  0  0  0  0  0  0  0  0  0
   20.1871   -6.6085  -12.5152 C   0  0  0  0  0  0  0  0  0  0  0  0
   21.1910   -5.4973  -12.7446 C   0  0  1  0  0  0  0  0  0  0  0  0
   22.4275   -6.0020  -12.3279 O   0  0  0  0  0  0  0  0  0  0  0  0
   21.3075   -5.1713  -14.1977 C   0  0  2  0  0  0  0  0  0  0  0  0
   21.7731   -6.2405  -15.0255 N   0  0  0  0  0  0  0  0  0  0  0  0
   22.2077   -4.0067  -14.3699 C   0  0  0  0  0  0  0  0  0  0  0  0
   21.8849   -2.7346  -13.9298 O   0  0  0  0  0  0  0  0  0  0  0  0
   23.3403   -4.1290  -14.9422 O   0  0  0  0  0  0  0  0  0  0  0  0
  2  1  1  1
  3  4  1  0
  3  2  1  0
  4  5  2  0
  5  6  1  0
  7  6  1  0
  8  7  2  0
  8  4  1  0
  9  2  1  0
  9 10  2  0
 11  9  1  0
 12 11  1  0
 12 15  1  0
 12 13  1  6
 14 13  1  0
 15 21  1  0
 16 15  2  0
 18 20  1  0
 18 17  1  6
 19 18  1  0
 20 22  1  0
 20 21  1  6
 22 24  2  0
 22 23  1  0
M  END
$$$$
