HCT.pdb
     RDKit          3D

 24 24  0  0  1  0  0  0  0  0999 V2000
   18.9555  -11.8491  -17.0587 N   0  0  0  0  0  0  0  0  0  0  0  0
   19.6374  -10.6845  -17.5816 C   0  0  1  0  0  0  0  0  0  0  0  0
   18.7446   -9.9885  -18.6173 C   0  0  0  0  0  0  0  0  0  0  0  0
   18.7043  -10.8281  -19.8413 C   0  0  0  0  0  0  0  0  0  0  0  0
   19.4447  -10.7035  -20.9996 C   0  0  0  0  0  0  0  0  0  0  0  0
   19.0747  -11.6827  -21.8389 N   0  0  0  0  0  0  0  0  0  0  0  0
   18.1245  -12.4239  -21.2515 C   0  0  0  0  0  0  0  0  0  0  0  0
   17.9029  -11.9008  -20.0381 N   0  0  0  0  0  0  0  0  0  0  0  0
   19.8118   -9.7146  -16.4765 C   0  0  0  0  0  0  0  0  0  0  0  0
   18.8598   -9.6308  -15.6483 O   0  0  0  0  0  0  0  0  0  0  0  0
   20.9721   -8.9166  -16.3376 N   0  0  0  0  0  0  0  0  0  0  0  0
   21.1106   -8.1151  -15.1585 C   0  0  1  0  0  0  0  0  0  0  0  0
   22.2518   -8.6426  -14.3092 C   0  0  0  0  0  0  0  0  0  0  0  0
   22.3224   -7.6394  -12.8040 S   0  0  0  0  0  0  0  0  0  0  0  0
   21.3586   -6.7004  -15.4154 C   0  0  0  0  0  0  0  0  0  0  0  0
   22.2189   -6.3404  -16.2204 O   0  0  0  0  0  0  0  0  0  0  0  0
   19.7247   -2.0522  -14.7972 C   0  0  0  0  0  0  0  0  0  0  0  0
   19.5360   -3.5191  -14.4692 C   0  0  1  0  0  0  0  0  0  0  0  0
   18.4650   -3.9561  -15.2563 O   0  0  0  0  0  0  0  0  0  0  0  0
   20.7361   -4.3158  -14.8645 C   0  0  2  0  0  0  0  0  0  0  0  0
   20.5976   -5.7327  -14.7277 N   0  0  0  0  0  0  0  0  0  0  0  0
   21.9054   -3.8710  -14.0702 C   0  0  0  0  0  0  0  0  0  0  0  0
   22.9059   -3.0674  -14.5891 O   0  0  0  0  0  0  0  0  0  0  0  0
   22.0428   -4.2164  -12.8507 O   0  0  0  0  0  0  0  0  0  0  0  0
  2  1  1  1
  3  4  1  0
  3  2  1  0
  4  5  2  0
  5  6  1  0
  7  6  1  0
  8  7  2  0
  8  4  1  0
  9  2  1  0
  9 10  2  0
 11  9  1  0
 12 11  1  0
 12 15  1  0
 12 13  1  1
 14 13  1  0
 15 21  1  0
 16 15  2  0
 18 20  1  0
 18 17  1  6
 19 18  1  0
 20 22  1  0
 20 21  1  1
 22 24  2  0
 22 23  1  0
M  END
$$$$
