HCT.pdb
     RDKit          3D

 24 24  0  0  1  0  0  0  0  0999 V2000
   20.6215  -13.5931  -17.2833 N   0  0  0  0  0  0  0  0  0  0  0  0
   21.2636  -12.3515  -17.6588 C   0  0  1  0  0  0  0  0  0  0  0  0
   20.7368  -11.8935  -19.0251 C   0  0  0  0  0  0  0  0  0  0  0  0
   21.2155  -12.8485  -20.0563 C   0  0  0  0  0  0  0  0  0  0  0  0
   22.4555  -12.9209  -20.6582 C   0  0  0  0  0  0  0  0  0  0  0  0
   22.4377  -13.9407  -21.5298 N   0  0  0  0  0  0  0  0  0  0  0  0
   21.2279  -14.5174  -21.5007 C   0  0  0  0  0  0  0  0  0  0  0  0
   20.4888  -13.8504  -20.6040 N   0  0  0  0  0  0  0  0  0  0  0  0
   20.8532  -11.3071  -16.6928 C   0  0  0  0  0  0  0  0  0  0  0  0
   19.7506  -11.4919  -16.1016 O   0  0  0  0  0  0  0  0  0  0  0  0
   21.6375  -10.1585  -16.4318 N   0  0  0  0  0  0  0  0  0  0  0  0
   21.2004   -9.2524  -15.4121 C   0  0  1  0  0  0  0  0  0  0  0  0
   21.2267   -9.9454  -14.0627 C   0  0  0  0  0  0  0  0  0  0  0  0
   22.8772  -10.6568  -13.8453 S   0  0  0  0  0  0  0  0  0  0  0  0
   21.9948   -8.0332  -15.3064 C   0  0  0  0  0  0  0  0  0  0  0  0
   23.2227   -8.0627  -15.4016 O   0  0  0  0  0  0  0  0  0  0  0  0
   20.9437   -4.8739  -17.3312 C   0  0  0  0  0  0  0  0  0  0  0  0
   21.1696   -4.4722  -15.8880 C   0  0  1  0  0  0  0  0  0  0  0  0
   19.9013   -4.4153  -15.3000 O   0  0  0  0  0  0  0  0  0  0  0  0
   21.9548   -5.5125  -15.1583 C   0  0  2  0  0  0  0  0  0  0  0  0
   21.3408   -6.8025  -15.0916 N   0  0  0  0  0  0  0  0  0  0  0  0
   22.2317   -5.0432  -13.7802 C   0  0  0  0  0  0  0  0  0  0  0  0
   23.0151   -3.9355  -13.5057 O   0  0  0  0  0  0  0  0  0  0  0  0
   21.7509   -5.6517  -12.7683 O   0  0  0  0  0  0  0  0  0  0  0  0
  2  1  1  1
  3  4  1  0
  3  2  1  0
  4  5  2  0
  5  6  1  0
  7  6  1  0
  8  7  2  0
  8  4  1  0
  9  2  1  0
  9 10  2  0
 11  9  1  0
 12 11  1  0
 12 15  1  0
 12 13  1  1
 14 13  1  0
 15 21  1  0
 16 15  2  0
 18 20  1  0
 18 17  1  6
 19 18  1  0
 20 22  1  0
 20 21  1  1
 22 24  2  0
 22 23  1  0
M  END
$$$$
