VDM.pdb
     RDKit          3D

 24 23  0  0  1  0  0  0  0  0999 V2000
   13.1479  -11.2770  -13.0447 C   0  0  0  0  0  0  0  0  0  0  0  0
   13.7961  -11.1676  -14.4009 C   0  0  2  0  0  0  0  0  0  0  0  0
   13.0444  -12.0791  -15.3717 C   0  0  0  0  0  0  0  0  0  0  0  0
   15.2247  -11.6226  -14.3136 C   0  0  2  0  0  0  0  0  0  0  0  0
   15.2338  -13.0203  -13.9260 N   0  0  0  0  0  0  0  0  0  0  0  0
   16.0144  -10.7972  -13.3594 C   0  0  0  0  0  0  0  0  0  0  0  0
   16.0755  -11.1924  -12.1648 O   0  0  0  0  0  0  0  0  0  0  0  0
   16.6694   -9.6224  -13.7558 N   0  0  0  0  0  0  0  0  0  0  0  0
   17.4321   -8.8188  -12.8155 C   0  0  1  0  0  0  0  0  0  0  0  0
   18.4195   -7.9339  -13.5954 C   0  0  0  0  0  0  0  0  0  0  0  0
   19.2195   -7.1703  -12.6157 C   0  0  0  0  0  0  0  0  0  0  0  0
   18.7184   -6.5309  -11.6515 O   0  0  0  0  0  0  0  0  0  0  0  0
   16.5254   -7.8682  -12.0943 C   0  0  0  0  0  0  0  0  0  0  0  0
   15.6959   -7.1493  -12.7048 O   0  0  0  0  0  0  0  0  0  0  0  0
   20.5999   -7.1511  -12.7622 O   0  0  0  0  0  0  0  0  0  0  0  0
   12.9505   -9.4293   -7.2470 C   0  0  0  0  0  0  0  0  0  0  0  0
   12.4220   -7.8016   -7.8682 S   0  0  0  0  0  0  0  0  0  0  0  0
   13.9031   -6.7888   -8.2507 C   0  0  0  0  0  0  0  0  0  0  0  0
   14.8232   -7.6638   -9.0806 C   0  0  0  0  0  0  0  0  0  0  0  0
   15.7857   -6.8438   -9.9151 C   0  0  2  0  0  0  0  0  0  0  0  0
   16.6061   -7.7726  -10.6703 N   0  0  0  0  0  0  0  0  0  0  0  0
   16.6105   -6.0497   -8.9518 C   0  0  0  0  0  0  0  0  0  0  0  0
   17.7299   -6.4139   -8.5679 O   0  0  0  0  0  0  0  0  0  0  0  0
   16.0953   -4.8571   -8.4686 O   0  0  0  0  0  0  0  0  0  0  0  0
  2  3  1  6
  2  1  1  0
  4  2  1  0
  4  5  1  1
  6  7  2  0
  6  4  1  0
  8  6  1  0
  9  8  1  0
  9 10  1  6
 10 11  1  0
 11 12  2  0
 11 15  1  0
 13  9  1  0
 14 13  2  0
 17 16  1  0
 17 18  1  0
 18 19  1  0
 20 19  1  1
 20 21  1  0
 21 13  1  0
 22 20  1  0
 22 24  1  0
 23 22  2  0
M  END
$$$$
