VDM.pdb
     RDKit          3D

 24 23  0  0  1  0  0  0  0  0999 V2000
   21.5033  -10.7726  -19.0624 C   0  0  0  0  0  0  0  0  0  0  0  0
   21.2350  -11.6712  -17.8825 C   0  0  2  0  0  0  0  0  0  0  0  0
   21.3485  -13.1243  -18.3450 C   0  0  0  0  0  0  0  0  0  0  0  0
   19.8430  -11.4300  -17.3732 C   0  0  2  0  0  0  0  0  0  0  0  0
   18.9073  -11.7740  -18.4267 N   0  0  0  0  0  0  0  0  0  0  0  0
   19.6504  -10.0240  -16.9242 C   0  0  0  0  0  0  0  0  0  0  0  0
   19.5897   -9.1349  -17.8144 O   0  0  0  0  0  0  0  0  0  0  0  0
   19.5407   -9.6835  -15.5683 N   0  0  0  0  0  0  0  0  0  0  0  0
   19.3131   -8.3134  -15.1409 C   0  0  1  0  0  0  0  0  0  0  0  0
   18.5020   -8.3223  -13.8339 C   0  0  0  0  0  0  0  0  0  0  0  0
   17.1184   -8.7261  -14.1585 C   0  0  0  0  0  0  0  0  0  0  0  0
   16.5826   -8.5406  -15.2846 O   0  0  0  0  0  0  0  0  0  0  0  0
   20.6158   -7.6557  -14.7997 C   0  0  0  0  0  0  0  0  0  0  0  0
   21.6519   -8.3220  -14.5546 O   0  0  0  0  0  0  0  0  0  0  0  0
   16.3616   -9.3426  -13.1712 O   0  0  0  0  0  0  0  0  0  0  0  0
   26.4947   -4.7741  -17.6432 C   0  0  0  0  0  0  0  0  0  0  0  0
   24.9354   -5.6958  -17.4600 S   0  0  0  0  0  0  0  0  0  0  0  0
   24.0788   -5.1407  -15.9356 C   0  0  0  0  0  0  0  0  0  0  0  0
   22.7659   -5.8981  -15.8766 C   0  0  0  0  0  0  0  0  0  0  0  0
   21.9487   -5.5230  -14.6574 C   0  0  2  0  0  0  0  0  0  0  0  0
   20.6839   -6.2288  -14.7482 N   0  0  0  0  0  0  0  0  0  0  0  0
   21.7497   -4.0413  -14.7209 C   0  0  0  0  0  0  0  0  0  0  0  0
   20.8098   -3.5162  -15.3323 O   0  0  0  0  0  0  0  0  0  0  0  0
   22.6598   -3.2246  -14.0683 O   0  0  0  0  0  0  0  0  0  0  0  0
  2  3  1  6
  2  1  1  0
  4  2  1  0
  4  5  1  6
  6  7  2  0
  6  4  1  0
  8  6  1  0
  9  8  1  0
  9 10  1  1
 10 11  1  0
 11 12  2  0
 11 15  1  0
 13  9  1  0
 14 13  2  0
 17 16  1  0
 17 18  1  0
 18 19  1  0
 20 19  1  6
 20 21  1  0
 21 13  1  0
 22 20  1  0
 22 24  1  0
 23 22  2  0
M  END
$$$$
