VDM.pdb
     RDKit          3D

 24 23  0  0  1  0  0  0  0  0999 V2000
   17.6947  -11.4689  -22.3336 C   0  0  0  0  0  0  0  0  0  0  0  0
   18.4007  -10.4745  -21.4482 C   0  0  2  0  0  0  0  0  0  0  0  0
   17.5513  -10.2523  -20.1962 C   0  0  0  0  0  0  0  0  0  0  0  0
   18.5464   -9.1685  -22.1753 C   0  0  2  0  0  0  0  0  0  0  0  0
   19.2293   -9.4203  -23.4299 N   0  0  0  0  0  0  0  0  0  0  0  0
   19.2756   -8.1572  -21.3624 C   0  0  0  0  0  0  0  0  0  0  0  0
   19.8602   -7.2288  -21.9815 O   0  0  0  0  0  0  0  0  0  0  0  0
   19.3226   -8.2202  -19.9624 N   0  0  0  0  0  0  0  0  0  0  0  0
   19.9089   -7.1531  -19.1691 C   0  0  1  0  0  0  0  0  0  0  0  0
   19.0611   -5.8801  -19.3335 C   0  0  0  0  0  0  0  0  0  0  0  0
   19.7331   -4.7869  -18.6013 C   0  0  0  0  0  0  0  0  0  0  0  0
   19.1425   -4.0229  -17.7906 O   0  0  0  0  0  0  0  0  0  0  0  0
   19.8396   -7.4953  -17.7116 C   0  0  0  0  0  0  0  0  0  0  0  0
   18.7757   -7.8872  -17.1714 O   0  0  0  0  0  0  0  0  0  0  0  0
   21.0896   -4.5845  -18.8162 O   0  0  0  0  0  0  0  0  0  0  0  0
   23.7831  -11.9291  -12.9425 C   0  0  0  0  0  0  0  0  0  0  0  0
   23.6675  -10.9247  -14.4565 S   0  0  0  0  0  0  0  0  0  0  0  0
   22.3478   -9.6671  -14.2503 C   0  0  0  0  0  0  0  0  0  0  0  0
   22.2326   -8.9391  -15.5760 C   0  0  0  0  0  0  0  0  0  0  0  0
   21.0993   -7.9338  -15.5747 C   0  0  2  0  0  0  0  0  0  0  0  0
   21.0165   -7.3707  -16.9097 N   0  0  0  0  0  0  0  0  0  0  0  0
   21.4612   -6.8894  -14.5661 C   0  0  0  0  0  0  0  0  0  0  0  0
   21.2967   -7.0466  -13.3490 O   0  0  0  0  0  0  0  0  0  0  0  0
   22.0012   -5.6953  -15.0173 O   0  0  0  0  0  0  0  0  0  0  0  0
  2  3  1  1
  2  1  1  0
  4  2  1  0
  4  5  1  6
  6  7  2  0
  6  4  1  0
  8  6  1  0
  9  8  1  0
  9 10  1  1
 10 11  1  0
 11 12  2  0
 11 15  1  0
 13  9  1  0
 14 13  2  0
 17 16  1  0
 17 18  1  0
 18 19  1  0
 20 19  1  6
 20 21  1  0
 21 13  1  0
 22 20  1  0
 22 24  1  0
 23 22  2  0
M  END
$$$$
