VDM.pdb
     RDKit          3D

 24 23  0  0  1  0  0  0  0  0999 V2000
   13.9281  -25.5104   -3.1986 C   0  0  0  0  0  0  0  0  0  0  0  0
   15.3272  -25.1030   -3.5834 C   0  0  2  0  0  0  0  0  0  0  0  0
   15.5366  -25.4284   -5.0628 C   0  0  0  0  0  0  0  0  0  0  0  0
   16.3196  -25.8820   -2.7687 C   0  0  2  0  0  0  0  0  0  0  0  0
   16.1487  -27.2907   -3.0691 N   0  0  0  0  0  0  0  0  0  0  0  0
   16.1682  -25.6233   -1.3108 C   0  0  0  0  0  0  0  0  0  0  0  0
   16.3952  -24.4532   -0.9035 O   0  0  0  0  0  0  0  0  0  0  0  0
   15.7905  -26.6304   -0.4110 N   0  0  0  0  0  0  0  0  0  0  0  0
   15.5717  -26.3525    0.9985 C   0  0  1  0  0  0  0  0  0  0  0  0
   14.5698  -27.3741    1.5631 C   0  0  0  0  0  0  0  0  0  0  0  0
   14.2600  -26.9877    2.9550 C   0  0  0  0  0  0  0  0  0  0  0  0
   14.6157  -25.8942    3.4720 O   0  0  0  0  0  0  0  0  0  0  0  0
   16.8390  -26.5657    1.7696 C   0  0  0  0  0  0  0  0  0  0  0  0
   17.4714  -27.6497    1.7211 O   0  0  0  0  0  0  0  0  0  0  0  0
   13.5391  -27.8758    3.7418 O   0  0  0  0  0  0  0  0  0  0  0  0
   23.7876  -24.2651    1.4726 C   0  0  0  0  0  0  0  0  0  0  0  0
   22.0333  -24.3983    1.0046 S   0  0  0  0  0  0  0  0  0  0  0  0
   21.0617  -24.9705    2.4518 C   0  0  0  0  0  0  0  0  0  0  0  0
   19.6120  -25.0192    2.0081 C   0  0  0  0  0  0  0  0  0  0  0  0
   18.6983  -25.5188    3.1084 C   0  0  2  0  0  0  0  0  0  0  0  0
   17.3440  -25.5073    2.5871 N   0  0  0  0  0  0  0  0  0  0  0  0
   18.8491  -24.5634    4.2500 C   0  0  0  0  0  0  0  0  0  0  0  0
   18.0258  -23.6705    4.4908 O   0  0  0  0  0  0  0  0  0  0  0  0
   19.9602  -24.6845    5.0696 O   0  0  0  0  0  0  0  0  0  0  0  0
  2  3  1  6
  2  1  1  0
  4  2  1  0
  4  5  1  1
  6  7  2  0
  6  4  1  0
  8  6  1  0
  9  8  1  0
  9 10  1  1
 10 11  1  0
 11 12  2  0
 11 15  1  0
 13  9  1  0
 14 13  2  0
 17 16  1  0
 17 18  1  0
 18 19  1  0
 20 19  1  6
 20 21  1  0
 21 13  1  0
 22 20  1  0
 22 24  1  0
 23 22  2  0
M  END
$$$$
