VDM.pdb
     RDKit          3D

 24 23  0  0  1  0  0  0  0  0999 V2000
   21.3461  -15.3610  -14.6490 C   0  0  0  0  0  0  0  0  0  0  0  0
   19.8926  -15.3459  -15.0476 C   0  0  2  0  0  0  0  0  0  0  0  0
   19.2888  -16.7139  -14.7281 C   0  0  0  0  0  0  0  0  0  0  0  0
   19.7788  -15.0967  -16.5242 C   0  0  2  0  0  0  0  0  0  0  0  0
   20.4573  -16.1730  -17.2207 N   0  0  0  0  0  0  0  0  0  0  0  0
   20.3387  -13.7726  -16.9100 C   0  0  0  0  0  0  0  0  0  0  0  0
   21.5348  -13.7422  -17.3041 O   0  0  0  0  0  0  0  0  0  0  0  0
   19.5805  -12.5949  -16.8422 N   0  0  0  0  0  0  0  0  0  0  0  0
   20.1303  -11.3089  -17.2366 C   0  0  1  0  0  0  0  0  0  0  0  0
   18.9983  -10.4260  -17.7892 C   0  0  0  0  0  0  0  0  0  0  0  0
   19.4153   -9.9271  -19.1158 C   0  0  0  0  0  0  0  0  0  0  0  0
   18.6417   -9.8514  -20.1084 O   0  0  0  0  0  0  0  0  0  0  0  0
   20.6558  -10.5819  -16.0360 C   0  0  0  0  0  0  0  0  0  0  0  0
   20.0476  -10.5880  -14.9372 O   0  0  0  0  0  0  0  0  0  0  0  0
   20.7319   -9.5199  -19.2841 O   0  0  0  0  0  0  0  0  0  0  0  0
   27.2039  -11.9256  -15.3682 C   0  0  0  0  0  0  0  0  0  0  0  0
   26.3332  -10.3528  -15.6560 S   0  0  0  0  0  0  0  0  0  0  0  0
   24.5891  -10.5171  -15.1111 C   0  0  0  0  0  0  0  0  0  0  0  0
   23.9694   -9.1370  -15.2211 C   0  0  0  0  0  0  0  0  0  0  0  0
   22.4700   -9.1696  -15.0067 C   0  0  2  0  0  0  0  0  0  0  0  0
   21.8836   -9.8573  -16.1421 N   0  0  0  0  0  0  0  0  0  0  0  0
   22.0205   -7.7438  -14.9438 C   0  0  0  0  0  0  0  0  0  0  0  0
   21.5091   -7.1584  -15.9076 O   0  0  0  0  0  0  0  0  0  0  0  0
   22.1874   -7.0509  -13.7551 O   0  0  0  0  0  0  0  0  0  0  0  0
  2  3  1  6
  2  1  1  0
  4  2  1  0
  4  5  1  6
  6  7  2  0
  6  4  1  0
  8  6  1  0
  9  8  1  0
  9 10  1  1
 10 11  1  0
 11 12  2  0
 11 15  1  0
 13  9  1  0
 14 13  2  0
 17 16  1  0
 17 18  1  0
 18 19  1  0
 20 19  1  6
 20 21  1  0
 21 13  1  0
 22 20  1  0
 22 24  1  0
 23 22  2  0
M  END
$$$$
