VDM.pdb
     RDKit          3D

 24 23  0  0  1  0  0  0  0  0999 V2000
   26.3951  -21.2087   -9.7750 C   0  0  0  0  0  0  0  0  0  0  0  0
   25.4564  -20.0639   -9.4923 C   0  0  2  0  0  0  0  0  0  0  0  0
   25.5351  -19.7299   -8.0022 C   0  0  0  0  0  0  0  0  0  0  0  0
   24.0503  -20.4727   -9.8256 C   0  0  2  0  0  0  0  0  0  0  0  0
   23.6928  -21.5993   -8.9849 N   0  0  0  0  0  0  0  0  0  0  0  0
   23.8955  -20.8101  -11.2670 C   0  0  0  0  0  0  0  0  0  0  0  0
   24.1563  -21.9919  -11.6165 O   0  0  0  0  0  0  0  0  0  0  0  0
   23.4790  -19.8626  -12.2133 N   0  0  0  0  0  0  0  0  0  0  0  0
   23.4878  -20.1508  -13.6375 C   0  0  1  0  0  0  0  0  0  0  0  0
   22.4111  -19.2978  -14.3300 C   0  0  0  0  0  0  0  0  0  0  0  0
   21.0892  -19.8454  -13.9622 C   0  0  0  0  0  0  0  0  0  0  0  0
   20.9116  -21.0229  -13.5480 O   0  0  0  0  0  0  0  0  0  0  0  0
   24.7898  -19.7218  -14.2431 C   0  0  0  0  0  0  0  0  0  0  0  0
   25.3478  -18.6432  -13.9226 O   0  0  0  0  0  0  0  0  0  0  0  0
   19.9776  -19.0220  -14.0797 O   0  0  0  0  0  0  0  0  0  0  0  0
   30.0736  -18.9555  -12.8170 C   0  0  0  0  0  0  0  0  0  0  0  0
   29.4638  -20.6459  -12.5253 S   0  0  0  0  0  0  0  0  0  0  0  0
   28.9161  -21.3757  -14.1169 C   0  0  0  0  0  0  0  0  0  0  0  0
   27.4002  -21.3212  -14.1191 C   0  0  0  0  0  0  0  0  0  0  0  0
   26.8590  -20.6317  -15.3548 C   0  0  2  0  0  0  0  0  0  0  0  0
   25.4161  -20.5611  -15.2162 N   0  0  0  0  0  0  0  0  0  0  0  0
   27.2517  -21.4833  -16.5208 C   0  0  0  0  0  0  0  0  0  0  0  0
   26.6918  -22.5550  -16.7875 O   0  0  0  0  0  0  0  0  0  0  0  0
   28.2884  -21.0523  -17.3335 O   0  0  0  0  0  0  0  0  0  0  0  0
  2  3  1  1
  2  1  1  0
  4  2  1  0
  4  5  1  1
  6  7  2  0
  6  4  1  0
  8  6  1  0
  9  8  1  0
  9 10  1  6
 10 11  1  0
 11 12  2  0
 11 15  1  0
 13  9  1  0
 14 13  2  0
 17 16  1  0
 17 18  1  0
 18 19  1  0
 20 19  1  1
 20 21  1  0
 21 13  1  0
 22 20  1  0
 22 24  1  0
 23 22  2  0
M  END
$$$$
