VDM.pdb
     RDKit          3D

 24 23  0  0  1  0  0  0  0  0999 V2000
   17.2429  -11.7114  -17.6624 C   0  0  0  0  0  0  0  0  0  0  0  0
   18.3794  -12.3687  -16.9223 C   0  0  2  0  0  0  0  0  0  0  0  0
   17.8410  -13.6122  -16.2138 C   0  0  0  0  0  0  0  0  0  0  0  0
   18.9246  -11.4203  -15.8933 C   0  0  2  0  0  0  0  0  0  0  0  0
   17.8915  -11.1796  -14.9041 N   0  0  0  0  0  0  0  0  0  0  0  0
   19.3894  -10.1445  -16.5031 C   0  0  0  0  0  0  0  0  0  0  0  0
   20.4020  -10.1950  -17.2506 O   0  0  0  0  0  0  0  0  0  0  0  0
   18.7397   -8.9248  -16.2647 N   0  0  0  0  0  0  0  0  0  0  0  0
   19.2189   -7.6791  -16.8394 C   0  0  1  0  0  0  0  0  0  0  0  0
   18.0874   -6.6378  -16.7975 C   0  0  0  0  0  0  0  0  0  0  0  0
   17.1507   -6.9375  -17.8999 C   0  0  0  0  0  0  0  0  0  0  0  0
   15.9120   -6.7091  -17.8454 O   0  0  0  0  0  0  0  0  0  0  0  0
   20.3187   -7.1103  -15.9951 C   0  0  0  0  0  0  0  0  0  0  0  0
   20.3175   -7.2163  -14.7436 O   0  0  0  0  0  0  0  0  0  0  0  0
   17.6577   -7.5041  -19.0615 O   0  0  0  0  0  0  0  0  0  0  0  0
   27.6922   -4.2561  -16.6905 C   0  0  0  0  0  0  0  0  0  0  0  0
   26.1610   -4.8821  -17.4509 S   0  0  0  0  0  0  0  0  0  0  0  0
   24.8718   -5.0615  -16.1581 C   0  0  0  0  0  0  0  0  0  0  0  0
   23.6408   -5.6175  -16.8485 C   0  0  0  0  0  0  0  0  0  0  0  0
   22.5110   -5.8758  -15.8728 C   0  0  2  0  0  0  0  0  0  0  0  0
   21.4006   -6.4242  -16.6293 N   0  0  0  0  0  0  0  0  0  0  0  0
   22.1583   -4.5510  -15.2735 C   0  0  0  0  0  0  0  0  0  0  0  0
   21.4880   -3.7002  -15.8735 O   0  0  0  0  0  0  0  0  0  0  0  0
   22.6047   -4.2662  -13.9926 O   0  0  0  0  0  0  0  0  0  0  0  0
  2  3  1  1
  2  1  1  0
  4  2  1  0
  4  5  1  1
  6  7  2  0
  6  4  1  0
  8  6  1  0
  9  8  1  0
  9 10  1  1
 10 11  1  0
 11 12  2  0
 11 15  1  0
 13  9  1  0
 14 13  2  0
 17 16  1  0
 17 18  1  0
 18 19  1  0
 20 19  1  6
 20 21  1  0
 21 13  1  0
 22 20  1  0
 22 24  1  0
 23 22  2  0
M  END
$$$$
