VDM.pdb
     RDKit          3D

 24 23  0  0  1  0  0  0  0  0999 V2000
   17.2378  -12.6981  -18.6972 C   0  0  0  0  0  0  0  0  0  0  0  0
   18.4521  -13.3555  -18.0934 C   0  0  2  0  0  0  0  0  0  0  0  0
   18.1224  -14.8235  -17.8202 C   0  0  0  0  0  0  0  0  0  0  0  0
   18.7939  -12.6837  -16.7944 C   0  0  2  0  0  0  0  0  0  0  0  0
   17.7068  -12.9158  -15.8626 N   0  0  0  0  0  0  0  0  0  0  0  0
   19.0464  -11.2275  -16.9704 C   0  0  0  0  0  0  0  0  0  0  0  0
   20.1088  -10.8906  -17.5574 O   0  0  0  0  0  0  0  0  0  0  0  0
   18.1495  -10.2546  -16.5061 N   0  0  0  0  0  0  0  0  0  0  0  0
   18.4082   -8.8347  -16.6751 C   0  0  1  0  0  0  0  0  0  0  0  0
   17.0831   -8.0635  -16.5493 C   0  0  0  0  0  0  0  0  0  0  0  0
   17.3602   -6.6355  -16.8079 C   0  0  0  0  0  0  0  0  0  0  0  0
   16.8583   -5.6939  -16.1363 O   0  0  0  0  0  0  0  0  0  0  0  0
   19.2726   -8.3309  -15.5593 C   0  0  0  0  0  0  0  0  0  0  0  0
   18.9704   -8.5083  -14.3532 O   0  0  0  0  0  0  0  0  0  0  0  0
   18.2185   -6.3074  -17.8486 O   0  0  0  0  0  0  0  0  0  0  0  0
   24.8795  -11.1999  -14.2358 C   0  0  0  0  0  0  0  0  0  0  0  0
   24.5179   -9.6122  -15.0501 S   0  0  0  0  0  0  0  0  0  0  0  0
   22.8858   -8.9972  -14.4812 C   0  0  0  0  0  0  0  0  0  0  0  0
   22.7232   -7.6038  -15.0582 C   0  0  0  0  0  0  0  0  0  0  0  0
   21.3258   -7.0598  -14.8424 C   0  0  2  0  0  0  0  0  0  0  0  0
   20.4755   -7.6252  -15.8736 N   0  0  0  0  0  0  0  0  0  0  0  0
   21.4255   -5.5728  -14.9755 C   0  0  0  0  0  0  0  0  0  0  0  0
   20.9613   -4.9530  -15.9417 O   0  0  0  0  0  0  0  0  0  0  0  0
   22.0675   -4.8620  -13.9737 O   0  0  0  0  0  0  0  0  0  0  0  0
  2  3  1  1
  2  1  1  0
  4  2  1  0
  4  5  1  1
  6  7  2  0
  6  4  1  0
  8  6  1  0
  9  8  1  0
  9 10  1  1
 10 11  1  0
 11 12  2  0
 11 15  1  0
 13  9  1  0
 14 13  2  0
 17 16  1  0
 17 18  1  0
 18 19  1  0
 20 19  1  6
 20 21  1  0
 21 13  1  0
 22 20  1  0
 22 24  1  0
 23 22  2  0
M  END
$$$$
