VDM.pdb
     RDKit          3D

 24 23  0  0  1  0  0  0  0  0999 V2000
   20.4449  -18.4881  -17.4940 C   0  0  0  0  0  0  0  0  0  0  0  0
   20.3842  -17.3505  -16.5072 C   0  0  2  0  0  0  0  0  0  0  0  0
   20.1631  -16.0500  -17.2806 C   0  0  0  0  0  0  0  0  0  0  0  0
   21.6862  -17.2593  -15.7643 C   0  0  2  0  0  0  0  0  0  0  0  0
   22.7223  -16.8829  -16.7071 N   0  0  0  0  0  0  0  0  0  0  0  0
   22.0256  -18.5354  -15.0773 C   0  0  0  0  0  0  0  0  0  0  0  0
   21.3553  -18.8388  -14.0549 O   0  0  0  0  0  0  0  0  0  0  0  0
   23.0490  -19.3781  -15.5344 N   0  0  0  0  0  0  0  0  0  0  0  0
   23.5150  -20.5088  -14.7495 C   0  0  1  0  0  0  0  0  0  0  0  0
   23.9534  -21.6351  -15.7010 C   0  0  0  0  0  0  0  0  0  0  0  0
   24.2352  -22.8357  -14.8874 C   0  0  0  0  0  0  0  0  0  0  0  0
   24.6632  -23.9201  -15.3675 O   0  0  0  0  0  0  0  0  0  0  0  0
   24.7450  -20.1319  -13.9808 C   0  0  0  0  0  0  0  0  0  0  0  0
   25.6750  -19.4668  -14.5006 O   0  0  0  0  0  0  0  0  0  0  0  0
   24.0161  -22.7715  -13.5180 O   0  0  0  0  0  0  0  0  0  0  0  0
   27.4068  -19.7531   -6.5291 C   0  0  0  0  0  0  0  0  0  0  0  0
   26.2024  -20.4104   -7.7257 S   0  0  0  0  0  0  0  0  0  0  0  0
   26.8094  -20.1006   -9.4290 C   0  0  0  0  0  0  0  0  0  0  0  0
   25.6548  -20.4095  -10.3629 C   0  0  0  0  0  0  0  0  0  0  0  0
   26.0317  -20.2095  -11.8166 C   0  0  2  0  0  0  0  0  0  0  0  0
   24.8677  -20.5421  -12.6169 N   0  0  0  0  0  0  0  0  0  0  0  0
   27.1660  -21.1456  -12.0923 C   0  0  0  0  0  0  0  0  0  0  0  0
   26.9980  -22.2964  -12.5173 O   0  0  0  0  0  0  0  0  0  0  0  0
   28.4585  -20.7032  -11.8585 O   0  0  0  0  0  0  0  0  0  0  0  0
  2  3  1  6
  2  1  1  0
  4  2  1  0
  4  5  1  6
  6  7  2  0
  6  4  1  0
  8  6  1  0
  9  8  1  0
  9 10  1  6
 10 11  1  0
 11 12  2  0
 11 15  1  0
 13  9  1  0
 14 13  2  0
 17 16  1  0
 17 18  1  0
 18 19  1  0
 20 19  1  1
 20 21  1  0
 21 13  1  0
 22 20  1  0
 22 24  1  0
 23 22  2  0
M  END
$$$$
