VDM.pdb
     RDKit          3D

 24 23  0  0  1  0  0  0  0  0999 V2000
   21.5224  -15.6760  -15.6076 C   0  0  0  0  0  0  0  0  0  0  0  0
   21.6133  -14.2336  -16.0351 C   0  0  2  0  0  0  0  0  0  0  0  0
   21.6432  -13.3581  -14.7818 C   0  0  0  0  0  0  0  0  0  0  0  0
   20.4048  -13.8740  -16.8510 C   0  0  2  0  0  0  0  0  0  0  0  0
   20.3951  -14.7049  -18.0399 N   0  0  0  0  0  0  0  0  0  0  0  0
   20.3839  -12.4291  -17.2077 C   0  0  0  0  0  0  0  0  0  0  0  0
   21.1587  -12.0475  -18.1247 O   0  0  0  0  0  0  0  0  0  0  0  0
   19.5431  -11.5137  -16.5582 N   0  0  0  0  0  0  0  0  0  0  0  0
   19.6479  -10.0830  -16.7900 C   0  0  1  0  0  0  0  0  0  0  0  0
   18.2460   -9.4555  -16.7043 C   0  0  0  0  0  0  0  0  0  0  0  0
   18.3641   -8.0255  -17.0560 C   0  0  0  0  0  0  0  0  0  0  0  0
   19.1253   -7.5895  -17.9617 O   0  0  0  0  0  0  0  0  0  0  0  0
   20.4428   -9.4393  -15.6947 C   0  0  0  0  0  0  0  0  0  0  0  0
   20.1551   -9.6002  -14.4828 O   0  0  0  0  0  0  0  0  0  0  0  0
   17.5979   -7.1068  -16.3515 O   0  0  0  0  0  0  0  0  0  0  0  0
   26.3279  -11.8695  -15.5049 C   0  0  0  0  0  0  0  0  0  0  0  0
   25.8259  -10.1573  -15.8666 S   0  0  0  0  0  0  0  0  0  0  0  0
   24.1748   -9.8417  -15.1319 C   0  0  0  0  0  0  0  0  0  0  0  0
   23.8534   -8.3837  -15.3997 C   0  0  0  0  0  0  0  0  0  0  0  0
   22.4266   -8.0390  -15.0245 C   0  0  2  0  0  0  0  0  0  0  0  0
   21.5601   -8.6154  -16.0360 N   0  0  0  0  0  0  0  0  0  0  0  0
   22.3390   -6.5453  -15.0214 C   0  0  0  0  0  0  0  0  0  0  0  0
   22.9370   -5.8399  -14.1980 O   0  0  0  0  0  0  0  0  0  0  0  0
   21.5520   -5.9282  -15.9810 O   0  0  0  0  0  0  0  0  0  0  0  0
  2  3  1  1
  2  1  1  0
  4  2  1  0
  4  5  1  6
  6  7  2  0
  6  4  1  0
  8  6  1  0
  9  8  1  0
  9 10  1  1
 10 11  1  0
 11 12  2  0
 11 15  1  0
 13  9  1  0
 14 13  2  0
 17 16  1  0
 17 18  1  0
 18 19  1  0
 20 19  1  6
 20 21  1  0
 21 13  1  0
 22 20  1  0
 22 24  1  0
 23 22  2  0
M  END
$$$$
