VDM.pdb
     RDKit          3D

 24 23  0  0  1  0  0  0  0  0999 V2000
   12.5087  -12.7584  -14.2689 C   0  0  0  0  0  0  0  0  0  0  0  0
   13.4314  -12.0491  -13.3112 C   0  0  2  0  0  0  0  0  0  0  0  0
   13.0244  -10.5765  -13.2479 C   0  0  0  0  0  0  0  0  0  0  0  0
   14.8441  -12.1423  -13.8120 C   0  0  2  0  0  0  0  0  0  0  0  0
   15.2388  -13.5381  -13.8027 N   0  0  0  0  0  0  0  0  0  0  0  0
   15.7784  -11.3164  -12.9994 C   0  0  0  0  0  0  0  0  0  0  0  0
   16.0395  -11.7152  -11.8334 O   0  0  0  0  0  0  0  0  0  0  0  0
   16.3533  -10.1371  -13.4946 N   0  0  0  0  0  0  0  0  0  0  0  0
   17.1232   -9.2465  -12.6427 C   0  0  1  0  0  0  0  0  0  0  0  0
   18.0381   -8.3762  -13.5213 C   0  0  0  0  0  0  0  0  0  0  0  0
   18.7798   -7.4555  -12.6354 C   0  0  0  0  0  0  0  0  0  0  0  0
   19.4986   -7.8394  -11.6734 O   0  0  0  0  0  0  0  0  0  0  0  0
   16.2110   -8.2871  -11.9404 C   0  0  0  0  0  0  0  0  0  0  0  0
   15.3068   -7.6636  -12.5497 O   0  0  0  0  0  0  0  0  0  0  0  0
   18.6811   -6.0907  -12.8703 O   0  0  0  0  0  0  0  0  0  0  0  0
   11.3659   -7.1269   -6.2629 C   0  0  0  0  0  0  0  0  0  0  0  0
   12.5583   -8.1305   -7.2038 S   0  0  0  0  0  0  0  0  0  0  0  0
   13.7043   -7.0199   -8.1089 C   0  0  0  0  0  0  0  0  0  0  0  0
   14.6510   -7.9149   -8.8857 C   0  0  0  0  0  0  0  0  0  0  0  0
   15.5555   -7.1210   -9.8060 C   0  0  2  0  0  0  0  0  0  0  0  0
   16.3737   -8.0711  -10.5367 N   0  0  0  0  0  0  0  0  0  0  0  0
   16.3927   -6.2472   -8.9259 C   0  0  0  0  0  0  0  0  0  0  0  0
   15.9257   -5.2959   -8.2855 O   0  0  0  0  0  0  0  0  0  0  0  0
   17.7489   -6.5155   -8.8275 O   0  0  0  0  0  0  0  0  0  0  0  0
  2  3  1  6
  2  1  1  0
  4  2  1  0
  4  5  1  1
  6  7  2  0
  6  4  1  0
  8  6  1  0
  9  8  1  0
  9 10  1  6
 10 11  1  0
 11 12  2  0
 11 15  1  0
 13  9  1  0
 14 13  2  0
 17 16  1  0
 17 18  1  0
 18 19  1  0
 20 19  1  1
 20 21  1  0
 21 13  1  0
 22 20  1  0
 22 24  1  0
 23 22  2  0
M  END
$$$$
