FWS.pdb
     RDKit          3D

 32 34  0  0  1  0  0  0  0  0999 V2000
    8.3193  -16.3398   21.5010 N   0  0  0  0  0  0  0  0  0  0  0  0
    9.1495  -15.2099   21.8536 C   0  0  1  0  0  0  0  0  0  0  0  0
    8.3575  -13.9106   21.9204 C   0  0  0  0  0  0  0  0  0  0  0  0
    7.9098  -13.5767   20.5661 C   0  0  0  0  0  0  0  0  0  0  0  0
    8.6908  -12.8218   19.7104 C   0  0  0  0  0  0  0  0  0  0  0  0
    8.2813  -12.4993   18.4338 C   0  0  0  0  0  0  0  0  0  0  0  0
    7.0545  -12.9468   18.0040 C   0  0  0  0  0  0  0  0  0  0  0  0
    6.2471  -13.7096   18.8460 C   0  0  0  0  0  0  0  0  0  0  0  0
    6.6892  -14.0166   20.1255 C   0  0  0  0  0  0  0  0  0  0  0  0
    9.6870  -15.4304   23.2215 C   0  0  0  0  0  0  0  0  0  0  0  0
   10.5574  -14.6435   23.6951 O   0  0  0  0  0  0  0  0  0  0  0  0
    9.2341  -16.5035   23.9850 N   0  0  0  0  0  0  0  0  0  0  0  0
    9.7846  -16.7377   25.3368 C   0  0  1  0  0  0  0  0  0  0  0  0
    8.6420  -16.8323   26.2741 C   0  0  0  0  0  0  0  0  0  0  0  0
    7.6317  -15.7878   26.1313 C   0  0  0  0  0  0  0  0  0  0  0  0
    6.3492  -15.9657   25.5982 C   0  0  0  0  0  0  0  0  0  0  0  0
    5.7647  -14.7731   25.6496 N   0  0  0  0  0  0  0  0  0  0  0  0
    6.5816  -13.8466   26.1774 C   0  0  0  0  0  0  0  0  0  0  0  0
    6.4364  -12.4922   26.4589 C   0  0  0  0  0  0  0  0  0  0  0  0
    7.4710  -11.7959   27.0396 C   0  0  0  0  0  0  0  0  0  0  0  0
    8.6758  -12.3942   27.3629 C   0  0  0  0  0  0  0  0  0  0  0  0
    8.8153  -13.7362   27.0815 C   0  0  0  0  0  0  0  0  0  0  0  0
    7.7808  -14.4443   26.4986 C   0  0  0  0  0  0  0  0  0  0  0  0
   10.7012  -17.8705   25.2344 C   0  0  0  0  0  0  0  0  0  0  0  0
   10.2553  -19.0652   25.0687 O   0  0  0  0  0  0  0  0  0  0  0  0
   14.3768  -17.8057   24.0636 O   0  0  0  0  0  0  0  0  0  0  0  0
   14.4071  -18.6792   25.1471 C   0  0  0  0  0  0  0  0  0  0  0  0
   12.9360  -18.9956   25.4737 C   0  0  2  0  0  0  0  0  0  0  0  0
   12.1289  -17.8053   25.2899 N   0  0  0  0  0  0  0  0  0  0  0  0
   12.9149  -19.5475   26.8295 C   0  0  0  0  0  0  0  0  0  0  0  0
   13.6485  -20.6685   27.1403 O   0  0  0  0  0  0  0  0  0  0  0  0
   12.2276  -19.0056   27.7173 O   0  0  0  0  0  0  0  0  0  0  0  0
  2  1  1  1
  2 10  1  0
  3  2  1  0
  3  4  1  0
  4  9  1  0
  4  5  2  0
  5  6  1  0
  6  7  2  0
  8  7  1  0
  9  8  2  0
 10 11  2  0
 12 10  1  0
 12 13  1  0
 13 14  1  1
 15 14  1  0
 16 15  2  0
 17 18  1  0
 17 16  1  0
 18 23  2  0
 19 20  2  0
 19 18  1  0
 20 21  1  0
 21 22  2  0
 23 22  1  0
 23 15  1  0
 24 13  1  0
 24 25  2  0
 26 27  1  0
 28 27  1  1
 28 30  1  0
 29 28  1  0
 29 24  1  0
 30 32  2  0
 30 31  1  0
M  END
$$$$
