FWS.pdb
     RDKit          3D

 32 34  0  0  1  0  0  0  0  0999 V2000
    9.4390  -19.6001   28.1219 N   0  0  0  0  0  0  0  0  0  0  0  0
    9.3012  -18.2775   27.5546 C   0  0  1  0  0  0  0  0  0  0  0  0
   10.5975  -17.4811   27.6259 C   0  0  0  0  0  0  0  0  0  0  0  0
   10.2574  -16.0658   27.7904 C   0  0  0  0  0  0  0  0  0  0  0  0
   10.4590  -15.4068   28.9893 C   0  0  0  0  0  0  0  0  0  0  0  0
   10.1423  -14.0753   29.1582 C   0  0  0  0  0  0  0  0  0  0  0  0
    9.6089  -13.3863   28.0950 C   0  0  0  0  0  0  0  0  0  0  0  0
    9.3953  -14.0260   26.8752 C   0  0  0  0  0  0  0  0  0  0  0  0
    9.7250  -15.3674   26.7385 C   0  0  0  0  0  0  0  0  0  0  0  0
    8.9874  -18.4168   26.1085 C   0  0  0  0  0  0  0  0  0  0  0  0
    9.3809  -19.4357   25.4698 O   0  0  0  0  0  0  0  0  0  0  0  0
    8.2597  -17.4263   25.4536 N   0  0  0  0  0  0  0  0  0  0  0  0
    7.8841  -17.5971   24.0340 C   0  0  1  0  0  0  0  0  0  0  0  0
    6.6184  -16.8602   23.8152 C   0  0  0  0  0  0  0  0  0  0  0  0
    6.6611  -15.4383   24.1441 C   0  0  0  0  0  0  0  0  0  0  0  0
    6.2621  -14.8739   25.3619 C   0  0  0  0  0  0  0  0  0  0  0  0
    6.4605  -13.5654   25.2394 N   0  0  0  0  0  0  0  0  0  0  0  0
    6.9578  -13.2536   24.0312 C   0  0  0  0  0  0  0  0  0  0  0  0
    7.3469  -12.0580   23.4364 C   0  0  0  0  0  0  0  0  0  0  0  0
    7.8565  -12.0597   22.1586 C   0  0  0  0  0  0  0  0  0  0  0  0
    8.0022  -13.2216   21.4217 C   0  0  0  0  0  0  0  0  0  0  0  0
    7.6147  -14.4038   22.0150 C   0  0  0  0  0  0  0  0  0  0  0  0
    7.1020  -14.4119   23.2989 C   0  0  0  0  0  0  0  0  0  0  0  0
    9.0525  -17.2331   23.2363 C   0  0  0  0  0  0  0  0  0  0  0  0
    9.0682  -17.4274   21.9652 O   0  0  0  0  0  0  0  0  0  0  0  0
   12.6865  -16.1677   24.7491 O   0  0  0  0  0  0  0  0  0  0  0  0
   12.3768  -15.4289   23.6106 C   0  0  0  0  0  0  0  0  0  0  0  0
   11.3362  -16.2615   22.8391 C   0  0  2  0  0  0  0  0  0  0  0  0
   10.2562  -16.6385   23.7297 N   0  0  0  0  0  0  0  0  0  0  0  0
   12.0573  -17.3855   22.2391 C   0  0  0  0  0  0  0  0  0  0  0  0
   11.6976  -18.6814   22.5268 O   0  0  0  0  0  0  0  0  0  0  0  0
   13.0087  -17.1775   21.4609 O   0  0  0  0  0  0  0  0  0  0  0  0
  2  1  1  6
  2 10  1  0
  3  2  1  0
  3  4  1  0
  4  9  1  0
  4  5  2  0
  5  6  1  0
  6  7  2  0
  8  7  1  0
  9  8  2  0
 10 11  2  0
 12 10  1  0
 12 13  1  0
 13 14  1  6
 15 14  1  0
 16 15  2  0
 17 18  1  0
 17 16  1  0
 18 23  2  0
 19 20  2  0
 19 18  1  0
 20 21  1  0
 21 22  2  0
 23 22  1  0
 23 15  1  0
 24 13  1  0
 24 25  2  0
 26 27  1  0
 28 27  1  1
 28 30  1  0
 29 28  1  0
 29 24  1  0
 30 32  2  0
 30 31  1  0
M  END
$$$$
