FWS.pdb
     RDKit          3D

 32 34  0  0  1  0  0  0  0  0999 V2000
    6.0219  -18.2532   25.4354 N   0  0  0  0  0  0  0  0  0  0  0  0
    6.4599  -16.8785   25.5269 C   0  0  1  0  0  0  0  0  0  0  0  0
    6.8570  -16.4927   26.9458 C   0  0  0  0  0  0  0  0  0  0  0  0
    6.9980  -15.0356   27.0020 C   0  0  0  0  0  0  0  0  0  0  0  0
    5.9312  -14.1940   26.7456 C   0  0  0  0  0  0  0  0  0  0  0  0
    6.0503  -12.8211   26.7940 C   0  0  0  0  0  0  0  0  0  0  0  0
    7.2734  -12.2778   27.1084 C   0  0  0  0  0  0  0  0  0  0  0  0
    8.3654  -13.1030   27.3714 C   0  0  0  0  0  0  0  0  0  0  0  0
    8.2116  -14.4814   27.3142 C   0  0  0  0  0  0  0  0  0  0  0  0
    7.6867  -16.7203   24.7030 C   0  0  0  0  0  0  0  0  0  0  0  0
    8.4131  -17.7246   24.4483 O   0  0  0  0  0  0  0  0  0  0  0  0
    8.0393  -15.4667   24.2095 N   0  0  0  0  0  0  0  0  0  0  0  0
    9.1135  -15.3408   23.2017 C   0  0  1  0  0  0  0  0  0  0  0  0
    8.9884  -14.0023   22.5806 C   0  0  0  0  0  0  0  0  0  0  0  0
    7.9826  -13.8963   21.5275 C   0  0  0  0  0  0  0  0  0  0  0  0
    6.6040  -14.0698   21.7005 C   0  0  0  0  0  0  0  0  0  0  0  0
    6.0609  -13.8915   20.5006 N   0  0  0  0  0  0  0  0  0  0  0  0
    6.9936  -13.6164   19.5739 C   0  0  0  0  0  0  0  0  0  0  0  0
    6.9359  -13.3350   18.2129 C   0  0  0  0  0  0  0  0  0  0  0  0
    8.0911  -13.0613   17.5178 C   0  0  0  0  0  0  0  0  0  0  0  0
    9.3348  -13.0536   18.1237 C   0  0  0  0  0  0  0  0  0  0  0  0
    9.3870  -13.3336   19.4723 C   0  0  0  0  0  0  0  0  0  0  0  0
    8.2313  -13.6093   20.1792 C   0  0  0  0  0  0  0  0  0  0  0  0
   10.3664  -15.6891   23.8671 C   0  0  0  0  0  0  0  0  0  0  0  0
   10.7839  -15.0146   24.8792 O   0  0  0  0  0  0  0  0  0  0  0  0
   12.2535  -19.1249   23.3903 O   0  0  0  0  0  0  0  0  0  0  0  0
   12.7890  -18.4030   24.4534 C   0  0  0  0  0  0  0  0  0  0  0  0
   12.5432  -16.9198   24.1209 C   0  0  2  0  0  0  0  0  0  0  0  0
   11.2368  -16.7668   23.5111 N   0  0  0  0  0  0  0  0  0  0  0  0
   13.6644  -16.4839   23.2864 C   0  0  0  0  0  0  0  0  0  0  0  0
   14.9492  -16.4993   23.7767 O   0  0  0  0  0  0  0  0  0  0  0  0
   13.4637  -16.0914   22.1203 O   0  0  0  0  0  0  0  0  0  0  0  0
  2  1  1  1
  2 10  1  0
  3  2  1  0
  3  4  1  0
  4  9  1  0
  4  5  2  0
  5  6  1  0
  6  7  2  0
  8  7  1  0
  9  8  2  0
 10 11  2  0
 12 10  1  0
 12 13  1  0
 13 14  1  1
 15 14  1  0
 16 15  2  0
 17 18  1  0
 17 16  1  0
 18 23  2  0
 19 20  2  0
 19 18  1  0
 20 21  1  0
 21 22  2  0
 23 22  1  0
 23 15  1  0
 24 13  1  0
 24 25  2  0
 26 27  1  0
 28 27  1  6
 28 30  1  0
 29 28  1  0
 29 24  1  0
 30 32  2  0
 30 31  1  0
M  END
$$$$
