FWS.pdb
     RDKit          3D

 32 34  0  0  1  0  0  0  0  0999 V2000
    8.5217  -17.1451   21.1973 N   0  0  0  0  0  0  0  0  0  0  0  0
    9.8644  -16.7142   21.5161 C   0  0  1  0  0  0  0  0  0  0  0  0
   10.2080  -15.3755   20.8760 C   0  0  0  0  0  0  0  0  0  0  0  0
    8.9922  -14.5591   20.8405 C   0  0  0  0  0  0  0  0  0  0  0  0
    7.7538  -15.1148   20.5762 C   0  0  0  0  0  0  0  0  0  0  0  0
    6.6017  -14.3579   20.5387 C   0  0  0  0  0  0  0  0  0  0  0  0
    6.6948  -13.0065   20.7728 C   0  0  0  0  0  0  0  0  0  0  0  0
    7.9306  -12.4204   21.0416 C   0  0  0  0  0  0  0  0  0  0  0  0
    9.0712  -13.2109   21.0721 C   0  0  0  0  0  0  0  0  0  0  0  0
    9.9527  -16.4987   22.9840 C   0  0  0  0  0  0  0  0  0  0  0  0
   10.8497  -15.7445   23.4611 O   0  0  0  0  0  0  0  0  0  0  0  0
    9.0487  -17.1265   23.8373 N   0  0  0  0  0  0  0  0  0  0  0  0
    9.1828  -16.9760   25.3017 C   0  0  1  0  0  0  0  0  0  0  0  0
    7.8231  -16.7894   25.8579 C   0  0  0  0  0  0  0  0  0  0  0  0
    7.2056  -15.4975   25.5720 C   0  0  0  0  0  0  0  0  0  0  0  0
    6.0380  -15.3030   24.8240 C   0  0  0  0  0  0  0  0  0  0  0  0
    5.8315  -13.9902   24.8056 N   0  0  0  0  0  0  0  0  0  0  0  0
    6.7831  -13.3324   25.4883 C   0  0  0  0  0  0  0  0  0  0  0  0
    6.9983  -11.9885   25.7755 C   0  0  0  0  0  0  0  0  0  0  0  0
    8.0777  -11.6134   26.5414 C   0  0  0  0  0  0  0  0  0  0  0  0
    8.9790  -12.5318   27.0497 C   0  0  0  0  0  0  0  0  0  0  0  0
    8.7620  -13.8622   26.7619 C   0  0  0  0  0  0  0  0  0  0  0  0
    7.6797  -14.2486   25.9935 C   0  0  0  0  0  0  0  0  0  0  0  0
    9.9839  -18.1020   25.7753 C   0  0  0  0  0  0  0  0  0  0  0  0
    9.4226  -19.1437   26.2787 O   0  0  0  0  0  0  0  0  0  0  0  0
   14.0482  -18.1894   25.6466 O   0  0  0  0  0  0  0  0  0  0  0  0
   13.4953  -19.4666   25.6188 C   0  0  0  0  0  0  0  0  0  0  0  0
   12.1115  -19.3405   26.2824 C   0  0  2  0  0  0  0  0  0  0  0  0
   11.4106  -18.1957   25.7345 N   0  0  0  0  0  0  0  0  0  0  0  0
   12.3408  -19.2853   27.7273 C   0  0  0  0  0  0  0  0  0  0  0  0
   12.8905  -20.3575   28.3902 O   0  0  0  0  0  0  0  0  0  0  0  0
   12.0367  -18.2629   28.3726 O   0  0  0  0  0  0  0  0  0  0  0  0
  2  1  1  1
  2 10  1  0
  3  2  1  0
  3  4  1  0
  4  9  1  0
  4  5  2  0
  5  6  1  0
  6  7  2  0
  8  7  1  0
  9  8  2  0
 10 11  2  0
 12 10  1  0
 12 13  1  0
 13 14  1  1
 15 14  1  0
 16 15  2  0
 17 18  1  0
 17 16  1  0
 18 23  2  0
 19 20  2  0
 19 18  1  0
 20 21  1  0
 21 22  2  0
 23 22  1  0
 23 15  1  0
 24 13  1  0
 24 25  2  0
 26 27  1  0
 28 27  1  6
 28 30  1  0
 29 28  1  0
 29 24  1  0
 30 32  2  0
 30 31  1  0
M  END
$$$$
