FWS.pdb
     RDKit          3D

 32 34  0  0  1  0  0  0  0  0999 V2000
    5.6211  -16.3140   21.6549 N   0  0  0  0  0  0  0  0  0  0  0  0
    6.9735  -16.7948   21.4822 C   0  0  1  0  0  0  0  0  0  0  0  0
    7.5637  -16.3870   20.1386 C   0  0  0  0  0  0  0  0  0  0  0  0
    7.4896  -14.9281   20.0294 C   0  0  0  0  0  0  0  0  0  0  0  0
    7.9451  -14.2614   18.9068 C   0  0  0  0  0  0  0  0  0  0  0  0
    7.8824  -12.8888   18.7915 C   0  0  0  0  0  0  0  0  0  0  0  0
    7.3480  -12.1652   19.8311 C   0  0  0  0  0  0  0  0  0  0  0  0
    6.8815  -12.8118   20.9743 C   0  0  0  0  0  0  0  0  0  0  0  0
    6.9592  -14.1952   21.0585 C   0  0  0  0  0  0  0  0  0  0  0  0
    7.8335  -16.1599   22.5147 C   0  0  0  0  0  0  0  0  0  0  0  0
    7.9250  -14.8993   22.5757 O   0  0  0  0  0  0  0  0  0  0  0  0
    8.5403  -16.9507   23.4171 N   0  0  0  0  0  0  0  0  0  0  0  0
    9.5202  -16.3337   24.3360 C   0  0  1  0  0  0  0  0  0  0  0  0
    8.9217  -16.3305   25.6906 C   0  0  0  0  0  0  0  0  0  0  0  0
    7.7521  -15.4716   25.8522 C   0  0  0  0  0  0  0  0  0  0  0  0
    6.4201  -15.8759   25.7003 C   0  0  0  0  0  0  0  0  0  0  0  0
    5.6826  -14.7943   25.9300 N   0  0  0  0  0  0  0  0  0  0  0  0
    6.4478  -13.7285   26.2180 C   0  0  0  0  0  0  0  0  0  0  0  0
    6.1629  -12.4073   26.5466 C   0  0  0  0  0  0  0  0  0  0  0  0
    7.1873  -11.5309   26.8208 C   0  0  0  0  0  0  0  0  0  0  0  0
    8.5168  -11.9118   26.7833 C   0  0  0  0  0  0  0  0  0  0  0  0
    8.7941  -13.2218   26.4566 C   0  0  0  0  0  0  0  0  0  0  0  0
    7.7713  -14.1098   26.1800 C   0  0  0  0  0  0  0  0  0  0  0  0
   10.7904  -17.0264   24.1339 C   0  0  0  0  0  0  0  0  0  0  0  0
   11.0053  -18.1763   24.6679 O   0  0  0  0  0  0  0  0  0  0  0  0
   13.8748  -15.3430   22.2142 O   0  0  0  0  0  0  0  0  0  0  0  0
   13.9955  -16.7267   22.1214 C   0  0  0  0  0  0  0  0  0  0  0  0
   13.1301  -17.3016   23.2579 C   0  0  2  0  0  0  0  0  0  0  0  0
   11.8922  -16.5531   23.3544 N   0  0  0  0  0  0  0  0  0  0  0  0
   13.9551  -17.2810   24.4671 C   0  0  0  0  0  0  0  0  0  0  0  0
   15.1419  -17.9742   24.5166 O   0  0  0  0  0  0  0  0  0  0  0  0
   13.5869  -16.6345   25.4674 O   0  0  0  0  0  0  0  0  0  0  0  0
  2  1  1  6
  2 10  1  0
  3  2  1  0
  3  4  1  0
  4  9  1  0
  4  5  2  0
  5  6  1  0
  6  7  2  0
  8  7  1  0
  9  8  2  0
 10 11  2  0
 12 10  1  0
 12 13  1  0
 13 14  1  1
 15 14  1  0
 16 15  2  0
 17 18  1  0
 17 16  1  0
 18 23  2  0
 19 20  2  0
 19 18  1  0
 20 21  1  0
 21 22  2  0
 23 22  1  0
 23 15  1  0
 24 13  1  0
 24 25  2  0
 26 27  1  0
 28 27  1  6
 28 30  1  0
 29 28  1  0
 29 24  1  0
 30 32  2  0
 30 31  1  0
M  END
$$$$
