FWS.pdb
     RDKit          3D

 32 34  0  0  1  0  0  0  0  0999 V2000
    7.5561  -16.3993   21.7468 N   0  0  0  0  0  0  0  0  0  0  0  0
    8.9892  -16.5837   21.6985 C   0  0  1  0  0  0  0  0  0  0  0  0
    9.6585  -15.6444   20.7037 C   0  0  0  0  0  0  0  0  0  0  0  0
    8.8092  -14.4611   20.5480 C   0  0  0  0  0  0  0  0  0  0  0  0
    7.7055  -14.4660   19.7149 C   0  0  0  0  0  0  0  0  0  0  0  0
    6.8983  -13.3590   19.5582 C   0  0  0  0  0  0  0  0  0  0  0  0
    7.2069  -12.2159   20.2567 C   0  0  0  0  0  0  0  0  0  0  0  0
    8.3137  -12.1835   21.1034 C   0  0  0  0  0  0  0  0  0  0  0  0
    9.1058  -13.3154   21.2385 C   0  0  0  0  0  0  0  0  0  0  0  0
    9.5527  -16.2368   23.0293 C   0  0  0  0  0  0  0  0  0  0  0  0
   10.3018  -15.2250   23.1563 O   0  0  0  0  0  0  0  0  0  0  0  0
    9.2577  -17.0246   24.1391 N   0  0  0  0  0  0  0  0  0  0  0  0
    9.8680  -16.7185   25.4503 C   0  0  1  0  0  0  0  0  0  0  0  0
    8.7780  -16.6794   26.4521 C   0  0  0  0  0  0  0  0  0  0  0  0
    7.6863  -15.7585   26.1485 C   0  0  0  0  0  0  0  0  0  0  0  0
    6.4400  -16.1212   25.6232 C   0  0  0  0  0  0  0  0  0  0  0  0
    5.7540  -14.9897   25.4986 N   0  0  0  0  0  0  0  0  0  0  0  0
    6.4724  -13.9306   25.9069 C   0  0  0  0  0  0  0  0  0  0  0  0
    6.2032  -12.5688   25.9953 C   0  0  0  0  0  0  0  0  0  0  0  0
    7.1567  -11.7103   26.4915 C   0  0  0  0  0  0  0  0  0  0  0  0
    8.3985  -12.1490   26.9153 C   0  0  0  0  0  0  0  0  0  0  0  0
    8.6609  -13.4991   26.8252 C   0  0  0  0  0  0  0  0  0  0  0  0
    7.7086  -14.3695   26.3284 C   0  0  0  0  0  0  0  0  0  0  0  0
   10.9625  -17.6664   25.6438 C   0  0  0  0  0  0  0  0  0  0  0  0
   11.4172  -17.9156   26.8206 O   0  0  0  0  0  0  0  0  0  0  0  0
   13.0580  -19.3410   22.6080 O   0  0  0  0  0  0  0  0  0  0  0  0
   12.9842  -20.2153   23.6887 C   0  0  0  0  0  0  0  0  0  0  0  0
   12.6945  -19.3380   24.9206 C   0  0  2  0  0  0  0  0  0  0  0  0
   11.6260  -18.4068   24.6156 N   0  0  0  0  0  0  0  0  0  0  0  0
   13.9629  -18.7132   25.3001 C   0  0  0  0  0  0  0  0  0  0  0  0
   15.0267  -19.4820   25.7108 O   0  0  0  0  0  0  0  0  0  0  0  0
   14.0900  -17.4737   25.2565 O   0  0  0  0  0  0  0  0  0  0  0  0
  2  1  1  1
  2 10  1  0
  3  2  1  0
  3  4  1  0
  4  9  1  0
  4  5  2  0
  5  6  1  0
  6  7  2  0
  8  7  1  0
  9  8  2  0
 10 11  2  0
 12 10  1  0
 12 13  1  0
 13 14  1  1
 15 14  1  0
 16 15  2  0
 17 18  1  0
 17 16  1  0
 18 23  2  0
 19 20  2  0
 19 18  1  0
 20 21  1  0
 21 22  2  0
 23 22  1  0
 23 15  1  0
 24 13  1  0
 24 25  2  0
 26 27  1  0
 28 27  1  6
 28 30  1  0
 29 28  1  0
 29 24  1  0
 30 32  2  0
 30 31  1  0
M  END
$$$$
