FWS.pdb
     RDKit          3D

 32 34  0  0  1  0  0  0  0  0999 V2000
    8.5867  -15.6748   19.6520 N   0  0  0  0  0  0  0  0  0  0  0  0
    9.7509  -14.8525   19.8943 C   0  0  1  0  0  0  0  0  0  0  0  0
    9.6749  -13.5163   19.1672 C   0  0  0  0  0  0  0  0  0  0  0  0
    9.0087  -13.7321   17.8805 C   0  0  0  0  0  0  0  0  0  0  0  0
    7.8202  -13.0996   17.5649 C   0  0  0  0  0  0  0  0  0  0  0  0
    7.1821  -13.2945   16.3582 C   0  0  0  0  0  0  0  0  0  0  0  0
    7.7522  -14.1472   15.4429 C   0  0  0  0  0  0  0  0  0  0  0  0
    8.9498  -14.7977   15.7352 C   0  0  0  0  0  0  0  0  0  0  0  0
    9.5665  -14.5795   16.9595 C   0  0  0  0  0  0  0  0  0  0  0  0
    9.8022  -14.5258   21.3432 C   0  0  0  0  0  0  0  0  0  0  0  0
    9.7308  -13.3214   21.7243 O   0  0  0  0  0  0  0  0  0  0  0  0
    9.9289  -15.5444   22.2844 N   0  0  0  0  0  0  0  0  0  0  0  0
    9.4020  -15.3602   23.6532 C   0  0  1  0  0  0  0  0  0  0  0  0
    7.9550  -15.0667   23.5391 C   0  0  0  0  0  0  0  0  0  0  0  0
    7.2559  -14.8799   24.8073 C   0  0  0  0  0  0  0  0  0  0  0  0
    6.5404  -15.8686   25.4938 C   0  0  0  0  0  0  0  0  0  0  0  0
    6.0653  -15.2815   26.5874 N   0  0  0  0  0  0  0  0  0  0  0  0
    6.4262  -13.9891   26.6489 C   0  0  0  0  0  0  0  0  0  0  0  0
    6.2066  -12.9778   27.5783 C   0  0  0  0  0  0  0  0  0  0  0  0
    6.7402  -11.7267   27.3719 C   0  0  0  0  0  0  0  0  0  0  0  0
    7.5014  -11.4216   26.2577 C   0  0  0  0  0  0  0  0  0  0  0  0
    7.7157  -12.4267   25.3392 C   0  0  0  0  0  0  0  0  0  0  0  0
    7.1840  -13.6872   25.5384 C   0  0  0  0  0  0  0  0  0  0  0  0
    9.8209  -16.5228   24.4323 C   0  0  0  0  0  0  0  0  0  0  0  0
    9.6695  -17.7135   23.9710 O   0  0  0  0  0  0  0  0  0  0  0  0
   10.8102  -16.2681   28.2403 O   0  0  0  0  0  0  0  0  0  0  0  0
   11.5142  -17.3591   27.7384 C   0  0  0  0  0  0  0  0  0  0  0  0
   10.8455  -17.7100   26.3964 C   0  0  2  0  0  0  0  0  0  0  0  0
   10.4280  -16.4937   25.7270 N   0  0  0  0  0  0  0  0  0  0  0  0
    9.7619  -18.6470   26.6983 C   0  0  0  0  0  0  0  0  0  0  0  0
   10.0306  -19.8643   27.2791 O   0  0  0  0  0  0  0  0  0  0  0  0
    8.5816  -18.3497   26.4285 O   0  0  0  0  0  0  0  0  0  0  0  0
  2  1  1  1
  2 10  1  0
  3  2  1  0
  3  4  1  0
  4  9  1  0
  4  5  2  0
  5  6  1  0
  6  7  2  0
  8  7  1  0
  9  8  2  0
 10 11  2  0
 12 10  1  0
 12 13  1  0
 13 14  1  6
 15 14  1  0
 16 15  2  0
 17 18  1  0
 17 16  1  0
 18 23  2  0
 19 20  2  0
 19 18  1  0
 20 21  1  0
 21 22  2  0
 23 22  1  0
 23 15  1  0
 24 13  1  0
 24 25  2  0
 26 27  1  0
 28 27  1  1
 28 30  1  0
 29 28  1  0
 29 24  1  0
 30 32  2  0
 30 31  1  0
M  END
$$$$
