FWS.pdb
     RDKit          3D

 32 34  0  0  1  0  0  0  0  0999 V2000
    5.7005  -14.6974   21.6794 N   0  0  0  0  0  0  0  0  0  0  0  0
    7.1431  -14.7101   21.5857 C   0  0  1  0  0  0  0  0  0  0  0  0
    7.7022  -13.3753   21.1105 C   0  0  0  0  0  0  0  0  0  0  0  0
    7.7013  -13.3737   19.6456 C   0  0  0  0  0  0  0  0  0  0  0  0
    6.8475  -12.5610   18.9224 C   0  0  0  0  0  0  0  0  0  0  0  0
    6.8355  -12.5503   17.5436 C   0  0  0  0  0  0  0  0  0  0  0  0
    7.7041  -13.3776   16.8719 C   0  0  0  0  0  0  0  0  0  0  0  0
    8.5754  -14.2069   17.5761 C   0  0  0  0  0  0  0  0  0  0  0  0
    8.5620  -14.1935   18.9640 C   0  0  0  0  0  0  0  0  0  0  0  0
    7.7005  -14.9241   22.9467 C   0  0  0  0  0  0  0  0  0  0  0  0
    7.4644  -14.0885   23.8670 O   0  0  0  0  0  0  0  0  0  0  0  0
    8.4839  -16.0446   23.2120 N   0  0  0  0  0  0  0  0  0  0  0  0
    9.1513  -16.1903   24.5229 C   0  0  1  0  0  0  0  0  0  0  0  0
    8.1029  -16.4788   25.5282 C   0  0  0  0  0  0  0  0  0  0  0  0
    8.5644  -16.5261   26.9127 C   0  0  0  0  0  0  0  0  0  0  0  0
    8.5149  -17.6492   27.7475 C   0  0  0  0  0  0  0  0  0  0  0  0
    9.0271  -17.2612   28.9109 N   0  0  0  0  0  0  0  0  0  0  0  0
    9.4005  -15.9713   28.8790 C   0  0  0  0  0  0  0  0  0  0  0  0
    9.9940  -15.1240   29.8088 C   0  0  0  0  0  0  0  0  0  0  0  0
   10.2869  -13.8243   29.4660 C   0  0  0  0  0  0  0  0  0  0  0  0
   10.0115  -13.3100   28.2115 C   0  0  0  0  0  0  0  0  0  0  0  0
    9.4228  -14.1532   27.2937 C   0  0  0  0  0  0  0  0  0  0  0  0
    9.1253  -15.4610   27.6290 C   0  0  0  0  0  0  0  0  0  0  0  0
   10.2348  -17.1540   24.3457 C   0  0  0  0  0  0  0  0  0  0  0  0
   10.0072  -18.3155   23.8432 O   0  0  0  0  0  0  0  0  0  0  0  0
   14.0305  -16.2912   23.9187 O   0  0  0  0  0  0  0  0  0  0  0  0
   13.7013  -17.6050   23.5971 C   0  0  0  0  0  0  0  0  0  0  0  0
   12.5861  -18.0114   24.5780 C   0  0  2  0  0  0  0  0  0  0  0  0
   11.6104  -16.9436   24.6764 N   0  0  0  0  0  0  0  0  0  0  0  0
   13.2416  -18.3614   25.8393 C   0  0  0  0  0  0  0  0  0  0  0  0
   14.1912  -19.3553   25.8824 O   0  0  0  0  0  0  0  0  0  0  0  0
   12.9424  -17.7610   26.8901 O   0  0  0  0  0  0  0  0  0  0  0  0
  2  1  1  1
  2 10  1  0
  3  2  1  0
  3  4  1  0
  4  9  1  0
  4  5  2  0
  5  6  1  0
  6  7  2  0
  8  7  1  0
  9  8  2  0
 10 11  2  0
 12 10  1  0
 12 13  1  0
 13 14  1  1
 15 14  1  0
 16 15  2  0
 17 18  1  0
 17 16  1  0
 18 23  2  0
 19 20  2  0
 19 18  1  0
 20 21  1  0
 21 22  2  0
 23 22  1  0
 23 15  1  0
 24 13  1  0
 24 25  2  0
 26 27  1  0
 28 27  1  6
 28 30  1  0
 29 28  1  0
 29 24  1  0
 30 32  2  0
 30 31  1  0
M  END
$$$$
