FWS.pdb
     RDKit          3D

 32 34  0  0  1  0  0  0  0  0999 V2000
    7.7807  -16.2381   21.7011 N   0  0  0  0  0  0  0  0  0  0  0  0
    9.2263  -16.2230   21.7149 C   0  0  1  0  0  0  0  0  0  0  0  0
    9.7974  -15.0026   21.0046 C   0  0  0  0  0  0  0  0  0  0  0  0
    8.6850  -14.2528   20.4161 C   0  0  0  0  0  0  0  0  0  0  0  0
    8.0853  -14.6530   19.2361 C   0  0  0  0  0  0  0  0  0  0  0  0
    7.0384  -13.9560   18.6707 C   0  0  0  0  0  0  0  0  0  0  0  0
    6.5807  -12.8265   19.3069 C   0  0  0  0  0  0  0  0  0  0  0  0
    7.1670  -12.4007   20.4975 C   0  0  0  0  0  0  0  0  0  0  0  0
    8.2193  -13.1253   21.0401 C   0  0  0  0  0  0  0  0  0  0  0  0
    9.6817  -16.1235   23.1261 C   0  0  0  0  0  0  0  0  0  0  0  0
   10.4924  -15.2140   23.4680 O   0  0  0  0  0  0  0  0  0  0  0  0
    9.2174  -17.0308   24.0751 N   0  0  0  0  0  0  0  0  0  0  0  0
    9.6836  -16.9445   25.4752 C   0  0  1  0  0  0  0  0  0  0  0  0
    8.4846  -16.8981   26.3431 C   0  0  0  0  0  0  0  0  0  0  0  0
    7.5716  -15.7884   26.0845 C   0  0  0  0  0  0  0  0  0  0  0  0
    6.3657  -15.8763   25.3783 C   0  0  0  0  0  0  0  0  0  0  0  0
    5.8564  -14.6487   25.3729 N   0  0  0  0  0  0  0  0  0  0  0  0
    6.6501  -13.7833   26.0250 C   0  0  0  0  0  0  0  0  0  0  0  0
    6.5537  -12.4253   26.3105 C   0  0  0  0  0  0  0  0  0  0  0  0
    7.5409  -11.8044   27.0402 C   0  0  0  0  0  0  0  0  0  0  0  0
    8.6496  -12.4836   27.5129 C   0  0  0  0  0  0  0  0  0  0  0  0
    8.7411  -13.8288   27.2269 C   0  0  0  0  0  0  0  0  0  0  0  0
    7.7536  -14.4615   26.4948 C   0  0  0  0  0  0  0  0  0  0  0  0
   10.6481  -18.0239   25.6716 C   0  0  0  0  0  0  0  0  0  0  0  0
   10.3383  -19.2415   25.3976 O   0  0  0  0  0  0  0  0  0  0  0  0
   14.2906  -17.2631   26.8561 O   0  0  0  0  0  0  0  0  0  0  0  0
   14.2783  -18.6240   26.5636 C   0  0  0  0  0  0  0  0  0  0  0  0
   12.7937  -19.0293   26.5100 C   0  0  2  0  0  0  0  0  0  0  0  0
   11.9867  -17.8787   26.1542 N   0  0  0  0  0  0  0  0  0  0  0  0
   12.4729  -19.6257   27.8080 C   0  0  0  0  0  0  0  0  0  0  0  0
   13.2064  -20.6832   28.2928 O   0  0  0  0  0  0  0  0  0  0  0  0
   11.5271  -19.1802   28.4871 O   0  0  0  0  0  0  0  0  0  0  0  0
  2  1  1  1
  2 10  1  0
  3  2  1  0
  3  4  1  0
  4  9  1  0
  4  5  2  0
  5  6  1  0
  6  7  2  0
  8  7  1  0
  9  8  2  0
 10 11  2  0
 12 10  1  0
 12 13  1  0
 13 14  1  1
 15 14  1  0
 16 15  2  0
 17 18  1  0
 17 16  1  0
 18 23  2  0
 19 20  2  0
 19 18  1  0
 20 21  1  0
 21 22  2  0
 23 22  1  0
 23 15  1  0
 24 13  1  0
 24 25  2  0
 26 27  1  0
 28 27  1  1
 28 30  1  0
 29 28  1  0
 29 24  1  0
 30 32  2  0
 30 31  1  0
M  END
$$$$
