FYT.pdb
     RDKit          3D

 31 32  0  0  1  0  0  0  0  0999 V2000
    6.3717  -15.3365   26.9562 N   0  0  0  0  0  0  0  0  0  0  0  0
    6.9032  -15.9024   25.7598 C   0  0  1  0  0  0  0  0  0  0  0  0
    7.3454  -14.8759   24.7422 C   0  0  0  0  0  0  0  0  0  0  0  0
    7.0475  -13.5406   25.3049 C   0  0  0  0  0  0  0  0  0  0  0  0
    7.4874  -12.4144   24.6473 C   0  0  0  0  0  0  0  0  0  0  0  0
    7.2141  -11.1599   25.1662 C   0  0  0  0  0  0  0  0  0  0  0  0
    6.5066  -11.1022   26.3291 C   0  0  0  0  0  0  0  0  0  0  0  0
    6.0468  -12.2040   27.0208 C   0  0  0  0  0  0  0  0  0  0  0  0
    6.3276  -13.4641   26.4894 C   0  0  0  0  0  0  0  0  0  0  0  0
    7.9446  -16.9269   26.0112 C   0  0  0  0  0  0  0  0  0  0  0  0
    8.8584  -16.6192   26.8484 O   0  0  0  0  0  0  0  0  0  0  0  0
   11.9660  -24.9124   26.5217 O   0  0  0  0  0  0  0  0  0  0  0  0
   11.1101  -23.8166   26.2983 C   0  0  0  0  0  0  0  0  0  0  0  0
   10.8374  -23.3804   25.0174 C   0  0  0  0  0  0  0  0  0  0  0  0
   10.0004  -22.3076   24.7711 C   0  0  0  0  0  0  0  0  0  0  0  0
    9.4055  -21.6330   25.8159 C   0  0  0  0  0  0  0  0  0  0  0  0
    8.5457  -20.4882   25.5833 C   0  0  0  0  0  0  0  0  0  0  0  0
    9.1308  -19.1316   25.6617 C   0  0  2  0  0  0  0  0  0  0  0  0
    8.0019  -18.1946   25.4054 N   0  0  0  0  0  0  0  0  0  0  0  0
   10.1558  -18.7940   24.6571 C   0  0  0  0  0  0  0  0  0  0  0  0
   11.2373  -19.4485   24.5774 O   0  0  0  0  0  0  0  0  0  0  0  0
    9.6699  -22.0584   27.0961 C   0  0  0  0  0  0  0  0  0  0  0  0
   10.5171  -23.1442   27.3426 C   0  0  0  0  0  0  0  0  0  0  0  0
   11.6327  -16.4336   20.5822 C   0  0  0  0  0  0  0  0  0  0  0  0
   10.5155  -16.5859   21.5925 C   0  0  1  0  0  0  0  0  0  0  0  0
    9.4483  -17.1843   20.9232 O   0  0  0  0  0  0  0  0  0  0  0  0
   11.0238  -17.4973   22.7033 C   0  0  2  0  0  0  0  0  0  0  0  0
   10.0326  -17.7354   23.7019 N   0  0  0  0  0  0  0  0  0  0  0  0
   12.3098  -17.0280   23.2311 C   0  0  0  0  0  0  0  0  0  0  0  0
   12.4743  -16.7830   24.4792 O   0  0  0  0  0  0  0  0  0  0  0  0
   13.4176  -16.8189   22.4420 O   0  0  0  0  0  0  0  0  0  0  0  0
  2  1  1  1
  3  2  1  0
  3  4  1  0
  4  9  1  0
  4  5  2  0
  5  6  1  0
  6  7  2  0
  8  7  1  0
  9  8  2  0
 10 19  1  0
 10  2  1  0
 11 10  2  0
 12 13  1  0
 13 14  2  0
 14 15  1  0
 16 17  1  0
 16 15  2  0
 18 17  1  6
 18 19  1  0
 20 18  1  0
 21 20  2  0
 22 16  1  0
 23 22  2  0
 23 13  1  0
 25 27  1  0
 25 24  1  6
 25 26  1  0
 27 28  1  1
 28 20  1  0
 29 27  1  0
 29 31  1  0
 30 29  2  0
M  END
$$$$
