FYT.pdb
     RDKit          3D

 31 32  0  0  1  0  0  0  0  0999 V2000
    7.6874  -15.4768   24.6994 N   0  0  0  0  0  0  0  0  0  0  0  0
    8.6322  -14.7511   23.9153 C   0  0  1  0  0  0  0  0  0  0  0  0
    8.7627  -13.2969   24.3066 C   0  0  0  0  0  0  0  0  0  0  0  0
    7.5556  -12.9396   25.0838 C   0  0  0  0  0  0  0  0  0  0  0  0
    6.3748  -12.6867   24.4235 C   0  0  0  0  0  0  0  0  0  0  0  0
    5.2394  -12.3509   25.1420 C   0  0  0  0  0  0  0  0  0  0  0  0
    5.3511  -12.2865   26.4983 C   0  0  0  0  0  0  0  0  0  0  0  0
    6.5133  -12.5318   27.2003 C   0  0  0  0  0  0  0  0  0  0  0  0
    7.6523  -12.8694   26.4668 C   0  0  0  0  0  0  0  0  0  0  0  0
    9.9488  -15.4249   23.8165 C   0  0  0  0  0  0  0  0  0  0  0  0
   10.8406  -14.8367   23.1170 O   0  0  0  0  0  0  0  0  0  0  0  0
   10.6978  -14.9691   30.5421 O   0  0  0  0  0  0  0  0  0  0  0  0
   10.9753  -15.6915   29.3654 C   0  0  0  0  0  0  0  0  0  0  0  0
   11.7591  -15.1469   28.3682 C   0  0  0  0  0  0  0  0  0  0  0  0
   12.0468  -15.8352   27.2040 C   0  0  0  0  0  0  0  0  0  0  0  0
   11.5500  -17.1056   27.0039 C   0  0  0  0  0  0  0  0  0  0  0  0
   11.8158  -17.8360   25.7794 C   0  0  0  0  0  0  0  0  0  0  0  0
   11.6942  -17.1262   24.4870 C   0  0  2  0  0  0  0  0  0  0  0  0
   10.2854  -16.6465   24.4262 N   0  0  0  0  0  0  0  0  0  0  0  0
   11.8861  -17.9333   23.2681 C   0  0  0  0  0  0  0  0  0  0  0  0
   12.8881  -18.6971   23.1378 O   0  0  0  0  0  0  0  0  0  0  0  0
   10.7679  -17.6582   27.9903 C   0  0  0  0  0  0  0  0  0  0  0  0
   10.4784  -16.9597   29.1674 C   0  0  0  0  0  0  0  0  0  0  0  0
   10.1733  -19.9734   19.1269 C   0  0  0  0  0  0  0  0  0  0  0  0
    9.9191  -18.9103   20.1744 C   0  0  1  0  0  0  0  0  0  0  0  0
    8.8360  -19.3483   20.9359 O   0  0  0  0  0  0  0  0  0  0  0  0
   11.1704  -18.8111   21.0389 C   0  0  2  0  0  0  0  0  0  0  0  0
   10.9884  -17.9388   22.1536 N   0  0  0  0  0  0  0  0  0  0  0  0
   12.3561  -18.5125   20.2280 C   0  0  0  0  0  0  0  0  0  0  0  0
   12.7377  -17.3067   20.0150 O   0  0  0  0  0  0  0  0  0  0  0  0
   13.1354  -19.4853   19.6450 O   0  0  0  0  0  0  0  0  0  0  0  0
  2  1  1  1
  3  2  1  0
  3  4  1  0
  4  9  1  0
  4  5  2  0
  5  6  1  0
  6  7  2  0
  8  7  1  0
  9  8  2  0
 10 19  1  0
 10  2  1  0
 11 10  2  0
 12 13  1  0
 13 14  2  0
 14 15  1  0
 16 17  1  0
 16 15  2  0
 18 17  1  1
 18 19  1  0
 20 18  1  0
 21 20  2  0
 22 16  1  0
 23 22  2  0
 23 13  1  0
 25 27  1  0
 25 24  1  6
 25 26  1  0
 27 28  1  1
 28 20  1  0
 29 27  1  0
 29 31  1  0
 30 29  2  0
M  END
$$$$
