FYT.pdb
     RDKit          3D

 31 32  0  0  1  0  0  0  0  0999 V2000
   10.0335  -17.2321   19.8591 N   0  0  0  0  0  0  0  0  0  0  0  0
    9.4261  -16.3461   20.7973 C   0  0  1  0  0  0  0  0  0  0  0  0
    7.9185  -16.2939   20.7011 C   0  0  0  0  0  0  0  0  0  0  0  0
    7.5348  -14.8720   20.5608 C   0  0  0  0  0  0  0  0  0  0  0  0
    7.2150  -14.1425   21.6832 C   0  0  0  0  0  0  0  0  0  0  0  0
    6.8540  -12.8109   21.5625 C   0  0  0  0  0  0  0  0  0  0  0  0
    6.8332  -12.2774   20.3090 C   0  0  0  0  0  0  0  0  0  0  0  0
    7.1457  -12.9712   19.1580 C   0  0  0  0  0  0  0  0  0  0  0  0
    7.5084  -14.3130   19.2905 C   0  0  0  0  0  0  0  0  0  0  0  0
    9.8916  -16.5602   22.1883 C   0  0  0  0  0  0  0  0  0  0  0  0
   10.7455  -17.4925   22.3678 O   0  0  0  0  0  0  0  0  0  0  0  0
   10.7424  -14.8416   31.0131 O   0  0  0  0  0  0  0  0  0  0  0  0
   10.4755  -14.8473   29.6303 C   0  0  0  0  0  0  0  0  0  0  0  0
    9.7889  -13.8070   29.0372 C   0  0  0  0  0  0  0  0  0  0  0  0
    9.5147  -13.7882   27.6820 C   0  0  0  0  0  0  0  0  0  0  0  0
    9.9263  -14.8256   26.8727 C   0  0  0  0  0  0  0  0  0  0  0  0
    9.6264  -14.8409   25.4537 C   0  0  0  0  0  0  0  0  0  0  0  0
   10.1528  -15.9494   24.6273 C   0  0  2  0  0  0  0  0  0  0  0  0
    9.4693  -15.8246   23.3099 N   0  0  0  0  0  0  0  0  0  0  0  0
    9.8606  -17.3178   25.0921 C   0  0  0  0  0  0  0  0  0  0  0  0
    8.6704  -17.7040   25.2887 O   0  0  0  0  0  0  0  0  0  0  0  0
   10.6108  -15.8674   27.4524 C   0  0  0  0  0  0  0  0  0  0  0  0
   10.8872  -15.8839   28.8238 C   0  0  0  0  0  0  0  0  0  0  0  0
   10.3768  -20.6328   23.6712 C   0  0  0  0  0  0  0  0  0  0  0  0
   11.0559  -20.7320   25.0206 C   0  0  1  0  0  0  0  0  0  0  0  0
   12.4228  -20.5737   24.7943 O   0  0  0  0  0  0  0  0  0  0  0  0
   10.5255  -19.5941   25.8848 C   0  0  2  0  0  0  0  0  0  0  0  0
   10.8563  -18.3123   25.3519 N   0  0  0  0  0  0  0  0  0  0  0  0
   10.8982  -19.7755   27.2922 C   0  0  0  0  0  0  0  0  0  0  0  0
   11.7724  -19.0263   27.8574 O   0  0  0  0  0  0  0  0  0  0  0  0
   10.3484  -20.7453   28.0989 O   0  0  0  0  0  0  0  0  0  0  0  0
  2  1  1  6
  3  2  1  0
  3  4  1  0
  4  9  1  0
  4  5  2  0
  5  6  1  0
  6  7  2  0
  8  7  1  0
  9  8  2  0
 10 19  1  0
 10  2  1  0
 11 10  2  0
 12 13  1  0
 13 14  2  0
 14 15  1  0
 16 17  1  0
 16 15  2  0
 18 17  1  1
 18 19  1  0
 20 18  1  0
 21 20  2  0
 22 16  1  0
 23 22  2  0
 23 13  1  0
 25 27  1  0
 25 24  1  6
 25 26  1  0
 27 28  1  6
 28 20  1  0
 29 27  1  0
 29 31  1  0
 30 29  2  0
M  END
$$$$
