FYT.pdb
     RDKit          3D

 31 32  0  0  1  0  0  0  0  0999 V2000
    5.4000  -17.7019   24.3135 N   0  0  0  0  0  0  0  0  0  0  0  0
    6.1324  -16.5238   24.6448 C   0  0  1  0  0  0  0  0  0  0  0  0
    6.2507  -16.2754   26.1311 C   0  0  0  0  0  0  0  0  0  0  0  0
    6.6163  -14.8534   26.3127 C   0  0  0  0  0  0  0  0  0  0  0  0
    5.6985  -13.8737   26.0093 C   0  0  0  0  0  0  0  0  0  0  0  0
    6.0312  -12.5397   26.1753 C   0  0  0  0  0  0  0  0  0  0  0  0
    7.2798  -12.2575   26.6417 C   0  0  0  0  0  0  0  0  0  0  0  0
    8.2300  -13.2067   26.9579 C   0  0  0  0  0  0  0  0  0  0  0  0
    7.8848  -14.5487   26.7870 C   0  0  0  0  0  0  0  0  0  0  0  0
    7.4424  -16.4380   23.9565 C   0  0  0  0  0  0  0  0  0  0  0  0
    8.0684  -17.5370   23.7805 O   0  0  0  0  0  0  0  0  0  0  0  0
    7.0499  -13.5034   16.7765 O   0  0  0  0  0  0  0  0  0  0  0  0
    7.6117  -13.6312   18.0616 C   0  0  0  0  0  0  0  0  0  0  0  0
    7.1631  -12.8549   19.1111 C   0  0  0  0  0  0  0  0  0  0  0  0
    7.6974  -12.9613   20.3820 C   0  0  0  0  0  0  0  0  0  0  0  0
    8.7099  -13.8608   20.6399 C   0  0  0  0  0  0  0  0  0  0  0  0
    9.3043  -13.9708   21.9584 C   0  0  0  0  0  0  0  0  0  0  0  0
    9.2686  -15.2794   22.6477 C   0  0  2  0  0  0  0  0  0  0  0  0
    8.0400  -15.2540   23.4892 N   0  0  0  0  0  0  0  0  0  0  0  0
   10.3751  -15.5673   23.5787 C   0  0  0  0  0  0  0  0  0  0  0  0
   10.3904  -15.0840   24.7494 O   0  0  0  0  0  0  0  0  0  0  0  0
    9.1648  -14.6393   19.6022 C   0  0  0  0  0  0  0  0  0  0  0  0
    8.6225  -14.5298   18.3172 C   0  0  0  0  0  0  0  0  0  0  0  0
   10.8363  -16.4242   26.0581 C   0  0  0  0  0  0  0  0  0  0  0  0
   11.7989  -17.4318   25.4666 C   0  0  1  0  0  0  0  0  0  0  0  0
   11.0372  -18.5327   25.0758 O   0  0  0  0  0  0  0  0  0  0  0  0
   12.4539  -16.7819   24.2535 C   0  0  2  0  0  0  0  0  0  0  0  0
   11.4985  -16.3968   23.2659 N   0  0  0  0  0  0  0  0  0  0  0  0
   13.5549  -17.6036   23.7382 C   0  0  0  0  0  0  0  0  0  0  0  0
   13.5529  -18.0517   22.5365 O   0  0  0  0  0  0  0  0  0  0  0  0
   14.6537  -17.9495   24.4907 O   0  0  0  0  0  0  0  0  0  0  0  0
  2  1  1  1
  3  2  1  0
  3  4  1  0
  4  9  1  0
  4  5  2  0
  5  6  1  0
  6  7  2  0
  8  7  1  0
  9  8  2  0
 10 19  1  0
 10  2  1  0
 11 10  2  0
 12 13  1  0
 13 14  2  0
 14 15  1  0
 16 17  1  0
 16 15  2  0
 18 17  1  1
 18 19  1  0
 20 18  1  0
 21 20  2  0
 22 16  1  0
 23 22  2  0
 23 13  1  0
 25 27  1  0
 25 24  1  6
 25 26  1  0
 27 28  1  6
 28 20  1  0
 29 27  1  0
 29 31  1  0
 30 29  2  0
M  END
$$$$
