FYT.pdb
     RDKit          3D

 31 32  0  0  1  0  0  0  0  0999 V2000
   10.5278  -16.4259   19.8094 N   0  0  0  0  0  0  0  0  0  0  0  0
    9.7203  -15.7898   20.7981 C   0  0  1  0  0  0  0  0  0  0  0  0
    8.2347  -15.9493   20.5689 C   0  0  0  0  0  0  0  0  0  0  0  0
    7.6785  -14.5998   20.3280 C   0  0  0  0  0  0  0  0  0  0  0  0
    7.3534  -13.7995   21.3995 C   0  0  0  0  0  0  0  0  0  0  0  0
    6.8317  -12.5348   21.1845 C   0  0  0  0  0  0  0  0  0  0  0  0
    6.6626  -12.1369   19.8925 C   0  0  0  0  0  0  0  0  0  0  0  0
    6.9744  -12.9055   18.7899 C   0  0  0  0  0  0  0  0  0  0  0  0
    7.4997  -14.1789   19.0173 C   0  0  0  0  0  0  0  0  0  0  0  0
   10.1136  -16.1366   22.1846 C   0  0  0  0  0  0  0  0  0  0  0  0
   11.0652  -16.9781   22.3150 O   0  0  0  0  0  0  0  0  0  0  0  0
   10.5368  -15.1572   31.1432 O   0  0  0  0  0  0  0  0  0  0  0  0
   10.2551  -15.0757   29.7658 C   0  0  0  0  0  0  0  0  0  0  0  0
    9.5930  -16.0982   29.1165 C   0  0  0  0  0  0  0  0  0  0  0  0
    9.3040  -16.0425   27.7654 C   0  0  0  0  0  0  0  0  0  0  0  0
    9.6757  -14.9458   27.0173 C   0  0  0  0  0  0  0  0  0  0  0  0
    9.4076  -14.8770   25.5935 C   0  0  0  0  0  0  0  0  0  0  0  0
   10.1856  -15.7431   24.6806 C   0  0  2  0  0  0  0  0  0  0  0  0
    9.5258  -15.6164   23.3513 N   0  0  0  0  0  0  0  0  0  0  0  0
   10.1886  -17.1868   24.9804 C   0  0  0  0  0  0  0  0  0  0  0  0
    9.1109  -17.8512   25.0192 O   0  0  0  0  0  0  0  0  0  0  0  0
   10.3359  -13.9212   27.6533 C   0  0  0  0  0  0  0  0  0  0  0  0
   10.6271  -13.9800   29.0205 C   0  0  0  0  0  0  0  0  0  0  0  0
   13.5727  -19.7905   24.7725 C   0  0  0  0  0  0  0  0  0  0  0  0
   12.1232  -20.2071   24.6410 C   0  0  1  0  0  0  0  0  0  0  0  0
   12.0538  -21.5453   25.0274 O   0  0  0  0  0  0  0  0  0  0  0  0
   11.3088  -19.3372   25.5911 C   0  0  2  0  0  0  0  0  0  0  0  0
   11.3675  -17.9549   25.2415 N   0  0  0  0  0  0  0  0  0  0  0  0
   11.6441  -19.6189   26.9914 C   0  0  0  0  0  0  0  0  0  0  0  0
   12.0889  -18.7041   27.7726 O   0  0  0  0  0  0  0  0  0  0  0  0
   11.5093  -20.8631   27.5634 O   0  0  0  0  0  0  0  0  0  0  0  0
  2  1  1  6
  3  2  1  0
  3  4  1  0
  4  9  1  0
  4  5  2  0
  5  6  1  0
  6  7  2  0
  8  7  1  0
  9  8  2  0
 10 19  1  0
 10  2  1  0
 11 10  2  0
 12 13  1  0
 13 14  2  0
 14 15  1  0
 16 17  1  0
 16 15  2  0
 18 17  1  1
 18 19  1  0
 20 18  1  0
 21 20  2  0
 22 16  1  0
 23 22  2  0
 23 13  1  0
 25 27  1  0
 25 24  1  1
 25 26  1  0
 27 28  1  6
 28 20  1  0
 29 27  1  0
 29 31  1  0
 30 29  2  0
M  END
$$$$
