FYT.pdb
     RDKit          3D

 31 32  0  0  1  0  0  0  0  0999 V2000
    7.0870  -14.2039   19.7375 N   0  0  0  0  0  0  0  0  0  0  0  0
    6.8541  -15.1249   20.8014 C   0  0  1  0  0  0  0  0  0  0  0  0
    6.6519  -16.5507   20.3422 C   0  0  0  0  0  0  0  0  0  0  0  0
    5.4073  -17.0442   20.9716 C   0  0  0  0  0  0  0  0  0  0  0  0
    4.2139  -16.4158   20.6973 C   0  0  0  0  0  0  0  0  0  0  0  0
    3.0434  -16.8698   21.2819 C   0  0  0  0  0  0  0  0  0  0  0  0
    3.1342  -17.9410   22.1188 C   0  0  0  0  0  0  0  0  0  0  0  0
    4.3080  -18.6002   22.4216 C   0  0  0  0  0  0  0  0  0  0  0  0
    5.4824  -18.1347   21.8271 C   0  0  0  0  0  0  0  0  0  0  0  0
    7.8545  -15.0237   21.8906 C   0  0  0  0  0  0  0  0  0  0  0  0
    9.0740  -14.8918   21.5357 O   0  0  0  0  0  0  0  0  0  0  0  0
   10.6159  -14.9353   30.5112 O   0  0  0  0  0  0  0  0  0  0  0  0
    9.9541  -14.8381   29.2719 C   0  0  0  0  0  0  0  0  0  0  0  0
    9.8991  -13.6389   28.5905 C   0  0  0  0  0  0  0  0  0  0  0  0
    9.2563  -13.5170   27.3722 C   0  0  0  0  0  0  0  0  0  0  0  0
    8.6424  -14.6083   26.7953 C   0  0  0  0  0  0  0  0  0  0  0  0
    7.9390  -14.4984   25.5317 C   0  0  0  0  0  0  0  0  0  0  0  0
    8.6349  -14.9085   24.2922 C   0  0  2  0  0  0  0  0  0  0  0  0
    7.5661  -15.0617   23.2663 N   0  0  0  0  0  0  0  0  0  0  0  0
    9.3352  -16.2056   24.3248 C   0  0  0  0  0  0  0  0  0  0  0  0
    8.6949  -17.2981   24.2975 O   0  0  0  0  0  0  0  0  0  0  0  0
    8.6907  -15.8080   27.4650 C   0  0  0  0  0  0  0  0  0  0  0  0
    9.3418  -15.9287   28.6974 C   0  0  0  0  0  0  0  0  0  0  0  0
   13.0461  -19.1679   23.4690 C   0  0  0  0  0  0  0  0  0  0  0  0
   12.4757  -17.7699   23.3583 C   0  0  1  0  0  0  0  0  0  0  0  0
   11.9310  -17.6590   22.0793 O   0  0  0  0  0  0  0  0  0  0  0  0
   11.3843  -17.6357   24.4136 C   0  0  2  0  0  0  0  0  0  0  0  0
   10.7575  -16.3542   24.3818 N   0  0  0  0  0  0  0  0  0  0  0  0
   11.8723  -18.0347   25.7386 C   0  0  0  0  0  0  0  0  0  0  0  0
   12.4445  -17.1973   26.5236 O   0  0  0  0  0  0  0  0  0  0  0  0
   11.7551  -19.3141   26.2315 O   0  0  0  0  0  0  0  0  0  0  0  0
  2  1  1  6
  3  2  1  0
  3  4  1  0
  4  9  1  0
  4  5  2  0
  5  6  1  0
  6  7  2  0
  8  7  1  0
  9  8  2  0
 10 19  1  0
 10  2  1  0
 11 10  2  0
 12 13  1  0
 13 14  2  0
 14 15  1  0
 16 17  1  0
 16 15  2  0
 18 17  1  1
 18 19  1  0
 20 18  1  0
 21 20  2  0
 22 16  1  0
 23 22  2  0
 23 13  1  0
 25 27  1  0
 25 24  1  6
 25 26  1  0
 27 28  1  1
 28 20  1  0
 29 27  1  0
 29 31  1  0
 30 29  2  0
M  END
$$$$
