FYT.pdb
     RDKit          3D

 31 32  0  0  1  0  0  0  0  0999 V2000
    5.9720  -18.0803   26.3840 N   0  0  0  0  0  0  0  0  0  0  0  0
    6.4990  -16.7782   26.1371 C   0  0  1  0  0  0  0  0  0  0  0  0
    7.3749  -16.2521   27.2511 C   0  0  0  0  0  0  0  0  0  0  0  0
    7.5468  -14.7997   27.0280 C   0  0  0  0  0  0  0  0  0  0  0  0
    6.4361  -13.9927   26.9314 C   0  0  0  0  0  0  0  0  0  0  0  0
    6.5865  -12.6320   26.7221 C   0  0  0  0  0  0  0  0  0  0  0  0
    7.8564  -12.1492   26.6201 C   0  0  0  0  0  0  0  0  0  0  0  0
    8.9966  -12.9210   26.7106 C   0  0  0  0  0  0  0  0  0  0  0  0
    8.8342  -14.2916   26.9216 C   0  0  0  0  0  0  0  0  0  0  0  0
    7.1454  -16.6522   24.8092 C   0  0  0  0  0  0  0  0  0  0  0  0
    7.9035  -17.6146   24.4491 O   0  0  0  0  0  0  0  0  0  0  0  0
    8.7088  -13.2667   16.5689 O   0  0  0  0  0  0  0  0  0  0  0  0
    8.2994  -13.5468   17.8870 C   0  0  0  0  0  0  0  0  0  0  0  0
    7.8146  -14.7934   18.2283 C   0  0  0  0  0  0  0  0  0  0  0  0
    7.4068  -15.0941   19.5149 C   0  0  0  0  0  0  0  0  0  0  0  0
    7.4743  -14.1409   20.5086 C   0  0  0  0  0  0  0  0  0  0  0  0
    7.0270  -14.4249   21.8588 C   0  0  0  0  0  0  0  0  0  0  0  0
    7.6579  -15.5409   22.5973 C   0  0  2  0  0  0  0  0  0  0  0  0
    6.9894  -15.5675   23.9279 N   0  0  0  0  0  0  0  0  0  0  0  0
    9.0984  -15.4132   22.8851 C   0  0  0  0  0  0  0  0  0  0  0  0
    9.5173  -15.2197   24.0647 O   0  0  0  0  0  0  0  0  0  0  0  0
    7.9555  -12.8956   20.1804 C   0  0  0  0  0  0  0  0  0  0  0  0
    8.3675  -12.5939   18.8778 C   0  0  0  0  0  0  0  0  0  0  0  0
   10.7821  -16.9053   24.2708 C   0  0  0  0  0  0  0  0  0  0  0  0
   11.6777  -17.0053   23.0542 C   0  0  1  0  0  0  0  0  0  0  0  0
   11.2399  -18.1095   22.3235 O   0  0  0  0  0  0  0  0  0  0  0  0
   11.4950  -15.7267   22.2450 C   0  0  2  0  0  0  0  0  0  0  0  0
   10.1300  -15.4987   21.8970 N   0  0  0  0  0  0  0  0  0  0  0  0
   12.4223  -15.6780   21.1090 C   0  0  0  0  0  0  0  0  0  0  0  0
   12.0054  -15.7500   19.8982 O   0  0  0  0  0  0  0  0  0  0  0  0
   13.7851  -15.5533   21.2529 O   0  0  0  0  0  0  0  0  0  0  0  0
  2  1  1  1
  3  2  1  0
  3  4  1  0
  4  9  1  0
  4  5  2  0
  5  6  1  0
  6  7  2  0
  8  7  1  0
  9  8  2  0
 10 19  1  0
 10  2  1  0
 11 10  2  0
 12 13  1  0
 13 14  2  0
 14 15  1  0
 16 17  1  0
 16 15  2  0
 18 17  1  6
 18 19  1  0
 20 18  1  0
 21 20  2  0
 22 16  1  0
 23 22  2  0
 23 13  1  0
 25 27  1  0
 25 24  1  1
 25 26  1  0
 27 28  1  6
 28 20  1  0
 29 27  1  0
 29 31  1  0
 30 29  2  0
M  END
$$$$
