FYT.pdb
     RDKit          3D

 31 32  0  0  1  0  0  0  0  0999 V2000
    8.9531  -15.0008   20.8235 N   0  0  0  0  0  0  0  0  0  0  0  0
    8.5083  -14.5512   22.1019 C   0  0  1  0  0  0  0  0  0  0  0  0
    7.0061  -14.5728   22.2687 C   0  0  0  0  0  0  0  0  0  0  0  0
    6.6974  -13.9306   23.5652 C   0  0  0  0  0  0  0  0  0  0  0  0
    6.8716  -12.5728   23.7074 C   0  0  0  0  0  0  0  0  0  0  0  0
    6.5858  -11.9622   24.9172 C   0  0  0  0  0  0  0  0  0  0  0  0
    6.1359  -12.7551   25.9296 C   0  0  0  0  0  0  0  0  0  0  0  0
    5.9471  -14.1184   25.8310 C   0  0  0  0  0  0  0  0  0  0  0  0
    6.2380  -14.7243   24.6073 C   0  0  0  0  0  0  0  0  0  0  0  0
    9.2067  -15.2137   23.2291 C   0  0  0  0  0  0  0  0  0  0  0  0
    9.9066  -16.2424   22.9422 O   0  0  0  0  0  0  0  0  0  0  0  0
   11.8053  -16.8203   31.6845 O   0  0  0  0  0  0  0  0  0  0  0  0
   11.2940  -16.2761   30.4905 C   0  0  0  0  0  0  0  0  0  0  0  0
   10.2916  -16.9182   29.7917 C   0  0  0  0  0  0  0  0  0  0  0  0
    9.7722  -16.4048   28.6175 C   0  0  0  0  0  0  0  0  0  0  0  0
   10.2495  -15.2177   28.1040 C   0  0  0  0  0  0  0  0  0  0  0  0
    9.7391  -14.6738   26.8601 C   0  0  0  0  0  0  0  0  0  0  0  0
   10.0998  -15.3422   25.5904 C   0  0  2  0  0  0  0  0  0  0  0  0
    9.1572  -14.8007   24.5724 N   0  0  0  0  0  0  0  0  0  0  0  0
    9.9302  -16.8061   25.5419 C   0  0  0  0  0  0  0  0  0  0  0  0
    8.7795  -17.3347   25.5717 O   0  0  0  0  0  0  0  0  0  0  0  0
   11.2480  -14.5693   28.7915 C   0  0  0  0  0  0  0  0  0  0  0  0
   11.7718  -15.0908   29.9793 C   0  0  0  0  0  0  0  0  0  0  0  0
   10.4315  -19.5858   23.2633 C   0  0  0  0  0  0  0  0  0  0  0  0
   11.2975  -19.9578   24.4480 C   0  0  1  0  0  0  0  0  0  0  0  0
   12.6051  -19.6050   24.1155 O   0  0  0  0  0  0  0  0  0  0  0  0
   10.8149  -19.1426   25.6419 C   0  0  2  0  0  0  0  0  0  0  0  0
   11.0095  -17.7416   25.4529 N   0  0  0  0  0  0  0  0  0  0  0  0
   11.3639  -19.6625   26.8993 C   0  0  0  0  0  0  0  0  0  0  0  0
   12.1288  -18.9509   27.6432 O   0  0  0  0  0  0  0  0  0  0  0  0
   11.1048  -20.9300   27.3682 O   0  0  0  0  0  0  0  0  0  0  0  0
  2  1  1  6
  3  2  1  0
  3  4  1  0
  4  9  1  0
  4  5  2  0
  5  6  1  0
  6  7  2  0
  8  7  1  0
  9  8  2  0
 10 19  1  0
 10  2  1  0
 11 10  2  0
 12 13  1  0
 13 14  2  0
 14 15  1  0
 16 17  1  0
 16 15  2  0
 18 17  1  1
 18 19  1  0
 20 18  1  0
 21 20  2  0
 22 16  1  0
 23 22  2  0
 23 13  1  0
 25 27  1  0
 25 24  1  6
 25 26  1  0
 27 28  1  6
 28 20  1  0
 29 27  1  0
 29 31  1  0
 30 29  2  0
M  END
$$$$
