FYT.pdb
     RDKit          3D

 31 32  0  0  1  0  0  0  0  0999 V2000
    9.2298  -12.6137   20.6678 N   0  0  0  0  0  0  0  0  0  0  0  0
    8.9308  -13.9203   21.1554 C   0  0  1  0  0  0  0  0  0  0  0  0
    8.8157  -14.9661   20.0701 C   0  0  0  0  0  0  0  0  0  0  0  0
    7.6083  -14.6471   19.2770 C   0  0  0  0  0  0  0  0  0  0  0  0
    7.7264  -13.8759   18.1431 C   0  0  0  0  0  0  0  0  0  0  0  0
    6.6020  -13.5714   17.3941 C   0  0  0  0  0  0  0  0  0  0  0  0
    5.4073  -14.0622   17.8275 C   0  0  0  0  0  0  0  0  0  0  0  0
    5.2433  -14.8380   18.9567 C   0  0  0  0  0  0  0  0  0  0  0  0
    6.3829  -15.1393   19.7049 C   0  0  0  0  0  0  0  0  0  0  0  0
    9.8251  -14.3514   22.2562 C   0  0  0  0  0  0  0  0  0  0  0  0
   10.9781  -13.8046   22.3030 O   0  0  0  0  0  0  0  0  0  0  0  0
   10.7265  -15.7385   30.9959 O   0  0  0  0  0  0  0  0  0  0  0  0
   10.3698  -15.5362   29.6486 C   0  0  0  0  0  0  0  0  0  0  0  0
    9.3076  -16.2161   29.0873 C   0  0  0  0  0  0  0  0  0  0  0  0
    8.9368  -16.0351   27.7675 C   0  0  0  0  0  0  0  0  0  0  0  0
    9.6297  -15.1561   26.9626 C   0  0  0  0  0  0  0  0  0  0  0  0
    9.2762  -14.9702   25.5683 C   0  0  0  0  0  0  0  0  0  0  0  0
   10.2470  -15.3760   24.5282 C   0  0  2  0  0  0  0  0  0  0  0  0
    9.5043  -15.3043   23.2392 N   0  0  0  0  0  0  0  0  0  0  0  0
   10.7631  -16.7549   24.6067 C   0  0  0  0  0  0  0  0  0  0  0  0
   10.0103  -17.7506   24.3913 O   0  0  0  0  0  0  0  0  0  0  0  0
   10.6896  -14.4735   27.5108 C   0  0  0  0  0  0  0  0  0  0  0  0
   11.0628  -14.6582   28.8465 C   0  0  0  0  0  0  0  0  0  0  0  0
   14.2635  -20.1351   24.5778 C   0  0  0  0  0  0  0  0  0  0  0  0
   13.9719  -18.6502   24.5341 C   0  0  1  0  0  0  0  0  0  0  0  0
   14.0677  -18.2618   23.1981 O   0  0  0  0  0  0  0  0  0  0  0  0
   12.5505  -18.4474   25.0454 C   0  0  2  0  0  0  0  0  0  0  0  0
   12.1186  -17.0935   24.9164 N   0  0  0  0  0  0  0  0  0  0  0  0
   12.3834  -19.0071   26.3913 C   0  0  0  0  0  0  0  0  0  0  0  0
   11.7395  -20.0984   26.5896 O   0  0  0  0  0  0  0  0  0  0  0  0
   12.8956  -18.4153   27.5230 O   0  0  0  0  0  0  0  0  0  0  0  0
  2  1  1  6
  3  2  1  0
  3  4  1  0
  4  9  1  0
  4  5  2  0
  5  6  1  0
  6  7  2  0
  8  7  1  0
  9  8  2  0
 10 19  1  0
 10  2  1  0
 11 10  2  0
 12 13  1  0
 13 14  2  0
 14 15  1  0
 16 17  1  0
 16 15  2  0
 18 17  1  1
 18 19  1  0
 20 18  1  0
 21 20  2  0
 22 16  1  0
 23 22  2  0
 23 13  1  0
 25 27  1  0
 25 24  1  6
 25 26  1  0
 27 28  1  1
 28 20  1  0
 29 27  1  0
 29 31  1  0
 30 29  2  0
M  END
$$$$
