FYT.pdb
     RDKit          3D

 31 32  0  0  1  0  0  0  0  0999 V2000
    8.8767  -18.4213   27.5459 N   0  0  0  0  0  0  0  0  0  0  0  0
    7.7225  -17.7390   27.0596 C   0  0  1  0  0  0  0  0  0  0  0  0
    7.3744  -16.4930   27.8413 C   0  0  0  0  0  0  0  0  0  0  0  0
    8.6176  -15.7053   27.9915 C   0  0  0  0  0  0  0  0  0  0  0  0
    8.7783  -14.5475   27.2648 C   0  0  0  0  0  0  0  0  0  0  0  0
    9.9386  -13.8033   27.3980 C   0  0  0  0  0  0  0  0  0  0  0  0
   10.8851  -14.2656   28.2621 C   0  0  0  0  0  0  0  0  0  0  0  0
   10.7658  -15.4193   29.0093 C   0  0  0  0  0  0  0  0  0  0  0  0
    9.5923  -16.1625   28.8678 C   0  0  0  0  0  0  0  0  0  0  0  0
    7.7635  -17.4907   25.5988 C   0  0  0  0  0  0  0  0  0  0  0  0
    7.8092  -18.5206   24.8453 O   0  0  0  0  0  0  0  0  0  0  0  0
    7.4448  -12.6695   17.9428 O   0  0  0  0  0  0  0  0  0  0  0  0
    7.4589  -13.1569   19.2640 C   0  0  0  0  0  0  0  0  0  0  0  0
    6.5977  -14.1612   19.6578 C   0  0  0  0  0  0  0  0  0  0  0  0
    6.5919  -14.6575   20.9484 C   0  0  0  0  0  0  0  0  0  0  0  0
    7.4607  -14.1542   21.8931 C   0  0  0  0  0  0  0  0  0  0  0  0
    7.4541  -14.6400   23.2597 C   0  0  0  0  0  0  0  0  0  0  0  0
    7.7331  -16.0718   23.5069 C   0  0  2  0  0  0  0  0  0  0  0  0
    7.7564  -16.2239   24.9883 N   0  0  0  0  0  0  0  0  0  0  0  0
    9.0352  -16.5824   23.0403 C   0  0  0  0  0  0  0  0  0  0  0  0
    9.1401  -17.2082   21.9440 O   0  0  0  0  0  0  0  0  0  0  0  0
    8.3230  -13.1534   21.5124 C   0  0  0  0  0  0  0  0  0  0  0  0
    8.3269  -12.6531   20.2059 C   0  0  0  0  0  0  0  0  0  0  0  0
   13.5463  -16.3536   21.9533 C   0  0  0  0  0  0  0  0  0  0  0  0
   12.2413  -15.7714   22.4530 C   0  0  1  0  0  0  0  0  0  0  0  0
   11.5108  -15.3978   21.3253 O   0  0  0  0  0  0  0  0  0  0  0  0
   11.5127  -16.8702   23.2176 C   0  0  2  0  0  0  0  0  0  0  0  0
   10.2671  -16.4220   23.7507 N   0  0  0  0  0  0  0  0  0  0  0  0
   12.3938  -17.5090   24.2016 C   0  0  0  0  0  0  0  0  0  0  0  0
   13.5359  -17.9885   23.8689 O   0  0  0  0  0  0  0  0  0  0  0  0
   12.0686  -17.6397   25.5323 O   0  0  0  0  0  0  0  0  0  0  0  0
  2  1  1  1
  3  2  1  0
  3  4  1  0
  4  9  1  0
  4  5  2  0
  5  6  1  0
  6  7  2  0
  8  7  1  0
  9  8  2  0
 10 19  1  0
 10  2  1  0
 11 10  2  0
 12 13  1  0
 13 14  2  0
 14 15  1  0
 16 17  1  0
 16 15  2  0
 18 17  1  1
 18 19  1  0
 20 18  1  0
 21 20  2  0
 22 16  1  0
 23 22  2  0
 23 13  1  0
 25 27  1  0
 25 24  1  6
 25 26  1  0
 27 28  1  1
 28 20  1  0
 29 27  1  0
 29 31  1  0
 30 29  2  0
M  END
$$$$
