FYT.pdb
     RDKit          3D

 31 32  0  0  1  0  0  0  0  0999 V2000
    8.4613  -15.9917   26.3636 N   0  0  0  0  0  0  0  0  0  0  0  0
    7.2416  -16.3147   25.6986 C   0  0  1  0  0  0  0  0  0  0  0  0
    6.0501  -15.5247   26.1895 C   0  0  0  0  0  0  0  0  0  0  0  0
    6.5404  -14.1846   26.5799 C   0  0  0  0  0  0  0  0  0  0  0  0
    6.1258  -13.0788   25.8730 C   0  0  0  0  0  0  0  0  0  0  0  0
    6.5795  -11.8201   26.2303 C   0  0  0  0  0  0  0  0  0  0  0  0
    7.4335  -11.7376   27.2887 C   0  0  0  0  0  0  0  0  0  0  0  0
    7.8745  -12.8185   28.0243 C   0  0  0  0  0  0  0  0  0  0  0  0
    7.4113  -14.0831   27.6561 C   0  0  0  0  0  0  0  0  0  0  0  0
    7.3586  -16.2921   24.2211 C   0  0  0  0  0  0  0  0  0  0  0  0
    6.4186  -16.8547   23.5649 O   0  0  0  0  0  0  0  0  0  0  0  0
    7.4605  -13.0820   16.1102 O   0  0  0  0  0  0  0  0  0  0  0  0
    7.6131  -13.3852   17.4771 C   0  0  0  0  0  0  0  0  0  0  0  0
    7.2640  -14.6262   17.9705 C   0  0  0  0  0  0  0  0  0  0  0  0
    7.4044  -14.9491   19.3077 C   0  0  0  0  0  0  0  0  0  0  0  0
    7.9052  -14.0248   20.1996 C   0  0  0  0  0  0  0  0  0  0  0  0
    8.0359  -14.3316   21.6112 C   0  0  0  0  0  0  0  0  0  0  0  0
    8.4278  -15.7020   22.0079 C   0  0  2  0  0  0  0  0  0  0  0  0
    8.4121  -15.7063   23.4972 N   0  0  0  0  0  0  0  0  0  0  0  0
    9.7845  -16.1380   21.6292 C   0  0  0  0  0  0  0  0  0  0  0  0
   10.3142  -15.7642   20.5411 O   0  0  0  0  0  0  0  0  0  0  0  0
    8.2561  -12.7853   19.7195 C   0  0  0  0  0  0  0  0  0  0  0  0
    8.1132  -12.4611   18.3660 C   0  0  0  0  0  0  0  0  0  0  0  0
   12.8848  -17.2315   24.1856 C   0  0  0  0  0  0  0  0  0  0  0  0
   12.6421  -18.2093   23.0556 C   0  0  1  0  0  0  0  0  0  0  0  0
   11.8671  -19.2436   23.5795 O   0  0  0  0  0  0  0  0  0  0  0  0
   11.8739  -17.4693   21.9669 C   0  0  2  0  0  0  0  0  0  0  0  0
   10.6109  -16.9909   22.4278 N   0  0  0  0  0  0  0  0  0  0  0  0
   11.8045  -18.2596   20.7326 C   0  0  0  0  0  0  0  0  0  0  0  0
   10.6821  -18.6289   20.2339 O   0  0  0  0  0  0  0  0  0  0  0  0
   12.9178  -18.6573   20.0284 O   0  0  0  0  0  0  0  0  0  0  0  0
  2  1  1  1
  3  2  1  0
  3  4  1  0
  4  9  1  0
  4  5  2  0
  5  6  1  0
  6  7  2  0
  8  7  1  0
  9  8  2  0
 10 19  1  0
 10  2  1  0
 11 10  2  0
 12 13  1  0
 13 14  2  0
 14 15  1  0
 16 17  1  0
 16 15  2  0
 18 17  1  1
 18 19  1  0
 20 18  1  0
 21 20  2  0
 22 16  1  0
 23 22  2  0
 23 13  1  0
 25 27  1  0
 25 24  1  1
 25 26  1  0
 27 28  1  1
 28 20  1  0
 29 27  1  0
 29 31  1  0
 30 29  2  0
M  END
$$$$
