FYT.pdb
     RDKit          3D

 31 32  0  0  1  0  0  0  0  0999 V2000
    5.5109  -15.9653   23.3589 N   0  0  0  0  0  0  0  0  0  0  0  0
    6.7616  -16.6080   23.1205 C   0  0  1  0  0  0  0  0  0  0  0  0
    7.0662  -16.8283   21.6563 C   0  0  0  0  0  0  0  0  0  0  0  0
    7.2646  -15.4970   21.0423 C   0  0  0  0  0  0  0  0  0  0  0  0
    6.1777  -14.6799   20.8298 C   0  0  0  0  0  0  0  0  0  0  0  0
    6.3530  -13.4321   20.2552 C   0  0  0  0  0  0  0  0  0  0  0  0
    7.6225  -13.0675   19.9213 C   0  0  0  0  0  0  0  0  0  0  0  0
    8.7393  -13.8540   20.1161 C   0  0  0  0  0  0  0  0  0  0  0  0
    8.5520  -15.1101   20.6960 C   0  0  0  0  0  0  0  0  0  0  0  0
    7.8915  -15.9710   23.8380 C   0  0  0  0  0  0  0  0  0  0  0  0
    7.6457  -14.8614   24.4202 O   0  0  0  0  0  0  0  0  0  0  0  0
    8.4503  -20.3653   28.9039 O   0  0  0  0  0  0  0  0  0  0  0  0
    8.7803  -19.1987   28.1873 C   0  0  0  0  0  0  0  0  0  0  0  0
   10.0878  -18.7637   28.1056 C   0  0  0  0  0  0  0  0  0  0  0  0
   10.4381  -17.6222   27.4081 C   0  0  0  0  0  0  0  0  0  0  0  0
    9.4747  -16.8748   26.7647 C   0  0  0  0  0  0  0  0  0  0  0  0
    9.8147  -15.6593   26.0501 C   0  0  0  0  0  0  0  0  0  0  0  0
   10.2769  -15.7639   24.6485 C   0  0  2  0  0  0  0  0  0  0  0  0
    9.1959  -16.4890   23.9248 N   0  0  0  0  0  0  0  0  0  0  0  0
   11.5018  -16.5500   24.4126 C   0  0  0  0  0  0  0  0  0  0  0  0
   11.4733  -17.8159   24.3816 O   0  0  0  0  0  0  0  0  0  0  0  0
    8.1690  -17.2983   26.8394 C   0  0  0  0  0  0  0  0  0  0  0  0
    7.8171  -18.4537   27.5457 C   0  0  0  0  0  0  0  0  0  0  0  0
   12.2838  -17.5665   21.9516 C   0  0  0  0  0  0  0  0  0  0  0  0
   13.6662  -16.9766   22.1330 C   0  0  1  0  0  0  0  0  0  0  0  0
   13.6817  -15.7690   21.4356 O   0  0  0  0  0  0  0  0  0  0  0  0
   13.8675  -16.7314   23.6237 C   0  0  2  0  0  0  0  0  0  0  0  0
   12.7972  -15.9814   24.1966 N   0  0  0  0  0  0  0  0  0  0  0  0
   15.2008  -16.1843   23.8986 C   0  0  0  0  0  0  0  0  0  0  0  0
   15.3552  -15.0532   24.4832 O   0  0  0  0  0  0  0  0  0  0  0  0
   16.3664  -16.8310   23.5568 O   0  0  0  0  0  0  0  0  0  0  0  0
  2  1  1  6
  3  2  1  0
  3  4  1  0
  4  9  1  0
  4  5  2  0
  5  6  1  0
  6  7  2  0
  8  7  1  0
  9  8  2  0
 10 19  1  0
 10  2  1  0
 11 10  2  0
 12 13  1  0
 13 14  2  0
 14 15  1  0
 16 17  1  0
 16 15  2  0
 18 17  1  1
 18 19  1  0
 20 18  1  0
 21 20  2  0
 22 16  1  0
 23 22  2  0
 23 13  1  0
 25 27  1  0
 25 24  1  1
 25 26  1  0
 27 28  1  6
 28 20  1  0
 29 27  1  0
 29 31  1  0
 30 29  2  0
M  END
$$$$
