FYT.pdb
     RDKit          3D

 31 32  0  0  1  0  0  0  0  0999 V2000
    9.4940  -17.9619   20.2430 N   0  0  0  0  0  0  0  0  0  0  0  0
    9.1118  -16.7829   20.9488 C   0  0  1  0  0  0  0  0  0  0  0  0
    7.7738  -16.2228   20.5236 C   0  0  0  0  0  0  0  0  0  0  0  0
    7.7692  -14.7838   20.8671 C   0  0  0  0  0  0  0  0  0  0  0  0
    6.9932  -14.3392   21.9132 C   0  0  0  0  0  0  0  0  0  0  0  0
    6.9816  -12.9941   22.2423 C   0  0  0  0  0  0  0  0  0  0  0  0
    7.7573  -12.1587   21.4963 C   0  0  0  0  0  0  0  0  0  0  0  0
    8.5493  -12.5608   20.4405 C   0  0  0  0  0  0  0  0  0  0  0  0
    8.5540  -13.9190   20.1167 C   0  0  0  0  0  0  0  0  0  0  0  0
    9.2181  -16.9235   22.4206 C   0  0  0  0  0  0  0  0  0  0  0  0
    8.6157  -17.9202   22.9443 O   0  0  0  0  0  0  0  0  0  0  0  0
   12.1978  -15.3330   30.7789 O   0  0  0  0  0  0  0  0  0  0  0  0
   11.9438  -15.3718   29.3943 C   0  0  0  0  0  0  0  0  0  0  0  0
   11.4616  -14.2613   28.7311 C   0  0  0  0  0  0  0  0  0  0  0  0
   11.2046  -14.2733   27.3725 C   0  0  0  0  0  0  0  0  0  0  0  0
   11.4264  -15.4139   26.6307 C   0  0  0  0  0  0  0  0  0  0  0  0
   11.1385  -15.4584   25.2099 C   0  0  0  0  0  0  0  0  0  0  0  0
   10.0237  -16.3081   24.7363 C   0  0  2  0  0  0  0  0  0  0  0  0
    9.9222  -16.0539   23.2723 N   0  0  0  0  0  0  0  0  0  0  0  0
    8.6862  -16.0083   25.2795 C   0  0  0  0  0  0  0  0  0  0  0  0
    8.2761  -16.5487   26.3491 O   0  0  0  0  0  0  0  0  0  0  0  0
   11.9064  -16.5263   27.2806 C   0  0  0  0  0  0  0  0  0  0  0  0
   12.1658  -16.5116   28.6553 C   0  0  0  0  0  0  0  0  0  0  0  0
    5.4825  -12.4836   26.0527 C   0  0  0  0  0  0  0  0  0  0  0  0
    6.4419  -13.0664   25.0369 C   0  0  1  0  0  0  0  0  0  0  0  0
    7.6271  -12.3390   25.1411 O   0  0  0  0  0  0  0  0  0  0  0  0
    6.6786  -14.5240   25.4143 C   0  0  2  0  0  0  0  0  0  0  0  0
    7.7542  -15.1043   24.6776 N   0  0  0  0  0  0  0  0  0  0  0  0
    5.4316  -15.2957   25.3679 C   0  0  0  0  0  0  0  0  0  0  0  0
    4.3737  -14.8995   25.9753 O   0  0  0  0  0  0  0  0  0  0  0  0
    5.3038  -16.4816   24.6818 O   0  0  0  0  0  0  0  0  0  0  0  0
  2  1  1  6
  3  2  1  0
  3  4  1  0
  4  9  1  0
  4  5  2  0
  5  6  1  0
  6  7  2  0
  8  7  1  0
  9  8  2  0
 10 19  1  0
 10  2  1  0
 11 10  2  0
 12 13  1  0
 13 14  2  0
 14 15  1  0
 16 17  1  0
 16 15  2  0
 18 17  1  1
 18 19  1  0
 20 18  1  0
 21 20  2  0
 22 16  1  0
 23 22  2  0
 23 13  1  0
 25 27  1  0
 25 24  1  1
 25 26  1  0
 27 28  1  6
 28 20  1  0
 29 27  1  0
 29 31  1  0
 30 29  2  0
M  END
$$$$
