FYT.pdb
     RDKit          3D

 31 32  0  0  1  0  0  0  0  0999 V2000
    7.2887  -16.3760   21.3916 N   0  0  0  0  0  0  0  0  0  0  0  0
    7.5978  -15.6420   22.5747 C   0  0  1  0  0  0  0  0  0  0  0  0
    6.3806  -15.1804   23.3431 C   0  0  0  0  0  0  0  0  0  0  0  0
    6.8567  -14.3159   24.4451 C   0  0  0  0  0  0  0  0  0  0  0  0
    7.2838  -13.0373   24.1672 C   0  0  0  0  0  0  0  0  0  0  0  0
    7.7318  -12.2203   25.1918 C   0  0  0  0  0  0  0  0  0  0  0  0
    7.7271  -12.7354   26.4531 C   0  0  0  0  0  0  0  0  0  0  0  0
    7.3083  -14.0097   26.7763 C   0  0  0  0  0  0  0  0  0  0  0  0
    6.8585  -14.8255   25.7363 C   0  0  0  0  0  0  0  0  0  0  0  0
    8.5835  -16.3260   23.4452 C   0  0  0  0  0  0  0  0  0  0  0  0
    8.2391  -17.4621   23.9155 O   0  0  0  0  0  0  0  0  0  0  0  0
   12.1522  -19.8277   18.8868 O   0  0  0  0  0  0  0  0  0  0  0  0
   12.1240  -19.0449   20.0572 C   0  0  0  0  0  0  0  0  0  0  0  0
   11.9973  -17.6721   19.9883 C   0  0  0  0  0  0  0  0  0  0  0  0
   11.9665  -16.8811   21.1221 C   0  0  0  0  0  0  0  0  0  0  0  0
   12.0634  -17.4517   22.3734 C   0  0  0  0  0  0  0  0  0  0  0  0
   12.0608  -16.6401   23.5755 C   0  0  0  0  0  0  0  0  0  0  0  0
   10.8732  -16.6782   24.4569 C   0  0  2  0  0  0  0  0  0  0  0  0
    9.8520  -15.8251   23.7878 N   0  0  0  0  0  0  0  0  0  0  0  0
   11.0335  -16.1103   25.8081 C   0  0  0  0  0  0  0  0  0  0  0  0
   11.4881  -14.9405   25.9787 O   0  0  0  0  0  0  0  0  0  0  0  0
   12.1901  -18.8182   22.4543 C   0  0  0  0  0  0  0  0  0  0  0  0
   12.2209  -19.6163   21.3056 C   0  0  0  0  0  0  0  0  0  0  0  0
    9.7865  -14.2218   28.0401 C   0  0  0  0  0  0  0  0  0  0  0  0
    9.9681  -15.4387   28.9223 C   0  0  1  0  0  0  0  0  0  0  0  0
    8.7540  -16.1248   28.9141 O   0  0  0  0  0  0  0  0  0  0  0  0
   11.0659  -16.2945   28.3015 C   0  0  2  0  0  0  0  0  0  0  0  0
   10.6974  -16.7972   27.0178 N   0  0  0  0  0  0  0  0  0  0  0  0
   11.5348  -17.3216   29.2385 C   0  0  0  0  0  0  0  0  0  0  0  0
   11.5113  -18.5677   28.9359 O   0  0  0  0  0  0  0  0  0  0  0  0
   12.0270  -17.0319   30.4904 O   0  0  0  0  0  0  0  0  0  0  0  0
  2  1  1  6
  3  2  1  0
  3  4  1  0
  4  9  1  0
  4  5  2  0
  5  6  1  0
  6  7  2  0
  8  7  1  0
  9  8  2  0
 10 19  1  0
 10  2  1  0
 11 10  2  0
 12 13  1  0
 13 14  2  0
 14 15  1  0
 16 17  1  0
 16 15  2  0
 18 17  1  6
 18 19  1  0
 20 18  1  0
 21 20  2  0
 22 16  1  0
 23 22  2  0
 23 13  1  0
 25 27  1  0
 25 24  1  6
 25 26  1  0
 27 28  1  6
 28 20  1  0
 29 27  1  0
 29 31  1  0
 30 29  2  0
M  END
$$$$
