CYE.pdb
     RDKit          3D

 28 28  0  0  1  0  0  0  0  0999 V2000
   19.9478  -11.7474  -15.3500 N   0  0  0  0  0  0  0  0  0  0  0  0
   19.5620  -10.4869  -15.9860 C   0  0  1  0  0  0  0  0  0  0  0  0
   18.1310  -10.6815  -16.4721 C   0  0  0  0  0  0  0  0  0  0  0  0
   18.0786  -11.3879  -18.1318 S   0  0  0  0  0  0  0  0  0  0  0  0
   19.6552   -9.3816  -15.0216 C   0  0  0  0  0  0  0  0  0  0  0  0
   19.3633   -9.6272  -13.8190 O   0  0  0  0  0  0  0  0  0  0  0  0
   26.1825   -7.1889  -16.9612 O   0  0  0  0  0  0  0  0  0  0  0  0
   25.0366   -7.1659  -16.1669 C   0  0  0  0  0  0  0  0  0  0  0  0
   24.4454   -5.9905  -15.7729 C   0  0  0  0  0  0  0  0  0  0  0  0
   23.3031   -6.0313  -14.9802 C   0  0  0  0  0  0  0  0  0  0  0  0
   22.7199   -7.2003  -14.5601 C   0  0  0  0  0  0  0  0  0  0  0  0
   21.5142   -7.2455  -13.7303 C   0  0  0  0  0  0  0  0  0  0  0  0
   20.2081   -6.9965  -14.4202 C   0  0  2  0  0  0  0  0  0  0  0  0
   20.0533   -8.0946  -15.4115 N   0  0  0  0  0  0  0  0  0  0  0  0
   20.0877   -5.7332  -15.1427 C   0  0  0  0  0  0  0  0  0  0  0  0
   20.4670   -5.7114  -16.3789 O   0  0  0  0  0  0  0  0  0  0  0  0
   23.3405   -8.3863  -14.9741 C   0  0  0  0  0  0  0  0  0  0  0  0
   24.4708   -8.3344  -15.7585 C   0  0  0  0  0  0  0  0  0  0  0  0
   19.5891   -4.5094  -14.6419 N   0  0  0  0  0  0  0  0  0  0  0  0
   19.5736   -3.3351  -15.4864 C   0  0  1  0  0  0  0  0  0  0  0  0
   18.1361   -2.8933  -15.7243 C   0  0  0  0  0  0  0  0  0  0  0  0
   17.3488   -2.8486  -14.4654 C   0  0  0  0  0  0  0  0  0  0  0  0
   15.9816   -2.3066  -14.6640 C   0  0  0  0  0  0  0  0  0  0  0  0
   15.0892   -3.0562  -15.0977 O   0  0  0  0  0  0  0  0  0  0  0  0
   20.4217   -2.2819  -14.8991 C   0  0  0  0  0  0  0  0  0  0  0  0
   21.0502   -2.4761  -13.8283 O   0  0  0  0  0  0  0  0  0  0  0  0
   15.6959   -0.9946  -14.3753 O   0  0  0  0  0  0  0  0  0  0  0  0
   20.6030   -1.0197  -15.4546 O   0  0  0  0  0  0  0  0  0  0  0  0
  2  1  1  1
  3  2  1  0
  3  4  1  0
  5  6  2  0
  5  2  1  0
  8  7  1  0
  9  8  2  0
 10  9  1  0
 11 10  2  0
 11 17  1  0
 12 11  1  0
 13 12  1  6
 13 14  1  0
 14  5  1  0
 15 19  1  0
 15 13  1  0
 16 15  2  0
 17 18  2  0
 18  8  1  0
 20 19  1  0
 20 25  1  0
 20 21  1  1
 22 21  1  0
 23 22  1  0
 23 24  2  0
 25 28  1  0
 26 25  2  0
 27 23  1  0
M  END
$$$$
