CYE.pdb
     RDKit          3D

 28 28  0  0  1  0  0  0  0  0999 V2000
   24.8972  -11.8032  -18.6460 N   0  0  0  0  0  0  0  0  0  0  0  0
   24.9106  -10.6131  -17.7940 C   0  0  1  0  0  0  0  0  0  0  0  0
   25.1204   -9.4284  -18.7291 C   0  0  0  0  0  0  0  0  0  0  0  0
   26.7700   -9.4377  -19.4606 S   0  0  0  0  0  0  0  0  0  0  0  0
   23.6421  -10.4991  -17.0602 C   0  0  0  0  0  0  0  0  0  0  0  0
   22.5813  -10.7994  -17.6738 O   0  0  0  0  0  0  0  0  0  0  0  0
   21.3416  -16.3210  -14.9737 O   0  0  0  0  0  0  0  0  0  0  0  0
   21.5506  -14.9673  -14.7121 C   0  0  0  0  0  0  0  0  0  0  0  0
   20.5730  -14.0249  -14.9180 C   0  0  0  0  0  0  0  0  0  0  0  0
   20.8408  -12.6889  -14.6385 C   0  0  0  0  0  0  0  0  0  0  0  0
   22.0486  -12.2477  -14.1593 C   0  0  0  0  0  0  0  0  0  0  0  0
   22.3308  -10.8425  -13.8590 C   0  0  0  0  0  0  0  0  0  0  0  0
   22.3068   -9.8860  -15.0116 C   0  0  2  0  0  0  0  0  0  0  0  0
   23.5985  -10.0728  -15.7249 N   0  0  0  0  0  0  0  0  0  0  0  0
   22.1920   -8.4696  -14.6756 C   0  0  0  0  0  0  0  0  0  0  0  0
   23.2874   -7.8044  -14.5016 O   0  0  0  0  0  0  0  0  0  0  0  0
   23.0303  -13.2268  -13.9572 C   0  0  0  0  0  0  0  0  0  0  0  0
   22.7546  -14.5463  -14.2372 C   0  0  0  0  0  0  0  0  0  0  0  0
   21.0013   -7.7240  -14.5221 N   0  0  0  0  0  0  0  0  0  0  0  0
   21.0627   -6.2871  -14.3681 C   0  0  1  0  0  0  0  0  0  0  0  0
   21.9039   -5.6868  -15.4862 C   0  0  0  0  0  0  0  0  0  0  0  0
   22.0745   -4.2192  -15.3318 C   0  0  0  0  0  0  0  0  0  0  0  0
   21.8788   -3.4829  -16.6054 C   0  0  0  0  0  0  0  0  0  0  0  0
   21.5819   -4.1172  -17.6331 O   0  0  0  0  0  0  0  0  0  0  0  0
   19.6995   -5.7302  -14.2954 C   0  0  0  0  0  0  0  0  0  0  0  0
   18.7473   -6.2603  -14.9213 O   0  0  0  0  0  0  0  0  0  0  0  0
   22.0215   -2.1180  -16.6583 O   0  0  0  0  0  0  0  0  0  0  0  0
   19.3490   -4.6077  -13.5528 O   0  0  0  0  0  0  0  0  0  0  0  0
  2  1  1  6
  3  2  1  0
  3  4  1  0
  5  6  2  0
  5  2  1  0
  8  7  1  0
  9  8  2  0
 10  9  1  0
 11 10  2  0
 11 17  1  0
 12 11  1  0
 13 12  1  1
 13 14  1  0
 14  5  1  0
 15 19  1  0
 15 13  1  0
 16 15  2  0
 17 18  2  0
 18  8  1  0
 20 19  1  0
 20 25  1  0
 20 21  1  6
 22 21  1  0
 23 22  1  0
 23 24  2  0
 25 28  1  0
 26 25  2  0
 27 23  1  0
M  END
$$$$
