CYE.pdb
     RDKit          3D

 28 28  0  0  1  0  0  0  0  0999 V2000
   29.0924  -22.7295  -17.4491 N   0  0  0  0  0  0  0  0  0  0  0  0
   28.4843  -21.4848  -16.9767 C   0  0  1  0  0  0  0  0  0  0  0  0
   27.8574  -20.8312  -18.2021 C   0  0  0  0  0  0  0  0  0  0  0  0
   29.1064  -20.3217  -19.4009 S   0  0  0  0  0  0  0  0  0  0  0  0
   27.4757  -21.7709  -15.9465 C   0  0  0  0  0  0  0  0  0  0  0  0
   26.8330  -22.8526  -16.0402 O   0  0  0  0  0  0  0  0  0  0  0  0
   23.3875  -20.8236   -7.9945 O   0  0  0  0  0  0  0  0  0  0  0  0
   24.1672  -20.7172   -9.1457 C   0  0  0  0  0  0  0  0  0  0  0  0
   23.7268  -20.0573  -10.2668 C   0  0  0  0  0  0  0  0  0  0  0  0
   24.5502  -19.9844  -11.3855 C   0  0  0  0  0  0  0  0  0  0  0  0
   25.8022  -20.5439  -11.4363 C   0  0  0  0  0  0  0  0  0  0  0  0
   26.6729  -20.4633  -12.6110 C   0  0  0  0  0  0  0  0  0  0  0  0
   26.2172  -21.1850  -13.8420 C   0  0  2  0  0  0  0  0  0  0  0  0
   27.2267  -20.8813  -14.8913 N   0  0  0  0  0  0  0  0  0  0  0  0
   24.9093  -20.8052  -14.3686 C   0  0  0  0  0  0  0  0  0  0  0  0
   24.8288  -19.6975  -15.0313 O   0  0  0  0  0  0  0  0  0  0  0  0
   26.2299  -21.2118  -10.2813 C   0  0  0  0  0  0  0  0  0  0  0  0
   25.4068  -21.2781   -9.1796 C   0  0  0  0  0  0  0  0  0  0  0  0
   23.6987  -21.5235  -14.2428 N   0  0  0  0  0  0  0  0  0  0  0  0
   22.4560  -20.9291  -14.6839 C   0  0  1  0  0  0  0  0  0  0  0  0
   22.0361  -21.5442  -16.0120 C   0  0  0  0  0  0  0  0  0  0  0  0
   21.6887  -22.9822  -15.8776 C   0  0  0  0  0  0  0  0  0  0  0  0
   21.2897  -23.5978  -17.1677 C   0  0  0  0  0  0  0  0  0  0  0  0
   20.0832  -23.7887  -17.4010 O   0  0  0  0  0  0  0  0  0  0  0  0
   21.4345  -21.0574  -13.6287 C   0  0  0  0  0  0  0  0  0  0  0  0
   21.6342  -21.7731  -12.6151 O   0  0  0  0  0  0  0  0  0  0  0  0
   22.2339  -23.9555  -18.0986 O   0  0  0  0  0  0  0  0  0  0  0  0
   20.1984  -20.4203  -13.6515 O   0  0  0  0  0  0  0  0  0  0  0  0
  2  1  1  6
  3  2  1  0
  3  4  1  0
  5  6  2  0
  5  2  1  0
  8  7  1  0
  9  8  2  0
 10  9  1  0
 11 10  2  0
 11 17  1  0
 12 11  1  0
 13 12  1  1
 13 14  1  0
 14  5  1  0
 15 19  1  0
 15 13  1  0
 16 15  2  0
 17 18  2  0
 18  8  1  0
 20 19  1  0
 20 25  1  0
 20 21  1  6
 22 21  1  0
 23 22  1  0
 23 24  2  0
 25 28  1  0
 26 25  2  0
 27 23  1  0
M  END
$$$$
