CYE.pdb
     RDKit          3D

 28 28  0  0  1  0  0  0  0  0999 V2000
   24.1166  -11.0940  -17.8985 N   0  0  0  0  0  0  0  0  0  0  0  0
   24.4222   -9.8128  -17.2599 C   0  0  1  0  0  0  0  0  0  0  0  0
   25.3018   -9.0513  -18.2440 C   0  0  0  0  0  0  0  0  0  0  0  0
   25.7243   -7.4078  -17.6301 S   0  0  0  0  0  0  0  0  0  0  0  0
   23.1812   -9.0799  -16.9715 C   0  0  0  0  0  0  0  0  0  0  0  0
   22.2715   -9.1014  -17.8454 O   0  0  0  0  0  0  0  0  0  0  0  0
   17.4630  -12.3854  -15.4436 O   0  0  0  0  0  0  0  0  0  0  0  0
   18.3722  -11.3719  -15.1425 C   0  0  0  0  0  0  0  0  0  0  0  0
   19.2838  -11.4890  -14.1220 C   0  0  0  0  0  0  0  0  0  0  0  0
   20.1660  -10.4437  -13.8692 C   0  0  0  0  0  0  0  0  0  0  0  0
   20.1797   -9.2785  -14.5940 C   0  0  0  0  0  0  0  0  0  0  0  0
   21.1113   -8.1792  -14.3332 C   0  0  0  0  0  0  0  0  0  0  0  0
   21.7819   -7.5637  -15.5228 C   0  0  2  0  0  0  0  0  0  0  0  0
   23.0019   -8.3774  -15.7710 N   0  0  0  0  0  0  0  0  0  0  0  0
   22.2037   -6.1729  -15.3810 C   0  0  0  0  0  0  0  0  0  0  0  0
   23.1454   -5.9158  -14.5326 O   0  0  0  0  0  0  0  0  0  0  0  0
   19.2410   -9.1817  -15.6296 C   0  0  0  0  0  0  0  0  0  0  0  0
   18.3725  -10.2223  -15.8711 C   0  0  0  0  0  0  0  0  0  0  0  0
   21.6987   -5.0537  -16.0808 N   0  0  0  0  0  0  0  0  0  0  0  0
   22.2091   -3.7310  -15.7940 C   0  0  1  0  0  0  0  0  0  0  0  0
   21.8837   -2.7940  -16.9492 C   0  0  0  0  0  0  0  0  0  0  0  0
   22.4026   -3.3021  -18.2450 C   0  0  0  0  0  0  0  0  0  0  0  0
   21.5309   -2.9431  -19.3912 C   0  0  0  0  0  0  0  0  0  0  0  0
   20.9320   -3.8448  -20.0034 O   0  0  0  0  0  0  0  0  0  0  0  0
   21.6922   -3.2629  -14.4951 C   0  0  0  0  0  0  0  0  0  0  0  0
   22.0323   -2.1485  -14.0243 O   0  0  0  0  0  0  0  0  0  0  0  0
   21.3812   -1.6340  -19.7785 O   0  0  0  0  0  0  0  0  0  0  0  0
   20.8092   -3.9822  -13.6967 O   0  0  0  0  0  0  0  0  0  0  0  0
  2  1  1  6
  3  2  1  0
  3  4  1  0
  5  6  2  0
  5  2  1  0
  8  7  1  0
  9  8  2  0
 10  9  1  0
 11 10  2  0
 11 17  1  0
 12 11  1  0
 13 12  1  1
 13 14  1  0
 14  5  1  0
 15 19  1  0
 15 13  1  0
 16 15  2  0
 17 18  2  0
 18  8  1  0
 20 19  1  0
 20 25  1  0
 20 21  1  6
 22 21  1  0
 23 22  1  0
 23 24  2  0
 25 28  1  0
 26 25  2  0
 27 23  1  0
M  END
$$$$
