CYE.pdb
     RDKit          3D

 28 28  0  0  1  0  0  0  0  0999 V2000
   28.9538  -22.3352  -17.1885 N   0  0  0  0  0  0  0  0  0  0  0  0
   28.2766  -21.1398  -16.6836 C   0  0  1  0  0  0  0  0  0  0  0  0
   27.5410  -20.5381  -17.8747 C   0  0  0  0  0  0  0  0  0  0  0  0
   26.6146  -19.0604  -17.4117 S   0  0  0  0  0  0  0  0  0  0  0  0
   27.3458  -21.5004  -15.6048 C   0  0  0  0  0  0  0  0  0  0  0  0
   26.6806  -22.5644  -15.7362 O   0  0  0  0  0  0  0  0  0  0  0  0
   23.4125  -20.6849   -7.5344 O   0  0  0  0  0  0  0  0  0  0  0  0
   24.1923  -20.6034   -8.6875 C   0  0  0  0  0  0  0  0  0  0  0  0
   23.6842  -20.1541   -9.8818 C   0  0  0  0  0  0  0  0  0  0  0  0
   24.5115  -20.0951  -10.9984 C   0  0  0  0  0  0  0  0  0  0  0  0
   25.8323  -20.4668  -10.9771 C   0  0  0  0  0  0  0  0  0  0  0  0
   26.7064  -20.4001  -12.1501 C   0  0  0  0  0  0  0  0  0  0  0  0
   26.1978  -21.0309  -13.4099 C   0  0  2  0  0  0  0  0  0  0  0  0
   27.1930  -20.6989  -14.4642 N   0  0  0  0  0  0  0  0  0  0  0  0
   24.8922  -20.5765  -13.8804 C   0  0  0  0  0  0  0  0  0  0  0  0
   24.8537  -19.4957  -14.5896 O   0  0  0  0  0  0  0  0  0  0  0  0
   26.3284  -20.9218   -9.7482 C   0  0  0  0  0  0  0  0  0  0  0  0
   25.5008  -20.9762   -8.6493 C   0  0  0  0  0  0  0  0  0  0  0  0
   23.6420  -21.1951  -13.6533 N   0  0  0  0  0  0  0  0  0  0  0  0
   22.4300  -20.5790  -14.1471 C   0  0  1  0  0  0  0  0  0  0  0  0
   22.4035  -20.6456  -15.6680 C   0  0  0  0  0  0  0  0  0  0  0  0
   22.5878  -22.0313  -16.1706 C   0  0  0  0  0  0  0  0  0  0  0  0
   22.4993  -22.1205  -17.6494 C   0  0  0  0  0  0  0  0  0  0  0  0
   22.2268  -21.0984  -18.3033 O   0  0  0  0  0  0  0  0  0  0  0  0
   21.2543  -21.2015  -13.5118 C   0  0  0  0  0  0  0  0  0  0  0  0
   21.3730  -22.2151  -12.7783 O   0  0  0  0  0  0  0  0  0  0  0  0
   22.7141  -23.3126  -18.2966 O   0  0  0  0  0  0  0  0  0  0  0  0
   19.9493  -20.7424  -13.6559 O   0  0  0  0  0  0  0  0  0  0  0  0
  2  1  1  6
  3  2  1  0
  3  4  1  0
  5  6  2  0
  5  2  1  0
  8  7  1  0
  9  8  2  0
 10  9  1  0
 11 10  2  0
 11 17  1  0
 12 11  1  0
 13 12  1  1
 13 14  1  0
 14  5  1  0
 15 19  1  0
 15 13  1  0
 16 15  2  0
 17 18  2  0
 18  8  1  0
 20 19  1  0
 20 25  1  0
 20 21  1  6
 22 21  1  0
 23 22  1  0
 23 24  2  0
 25 28  1  0
 26 25  2  0
 27 23  1  0
M  END
$$$$
