CYE.pdb
     RDKit          3D

 28 28  0  0  1  0  0  0  0  0999 V2000
   17.7410  -10.4657  -16.1804 N   0  0  0  0  0  0  0  0  0  0  0  0
   19.1044   -9.9333  -16.1648 C   0  0  1  0  0  0  0  0  0  0  0  0
   19.5401   -9.8493  -17.6226 C   0  0  0  0  0  0  0  0  0  0  0  0
   18.6071   -8.5980  -18.5284 S   0  0  0  0  0  0  0  0  0  0  0  0
   19.1267   -8.6120  -15.5214 C   0  0  0  0  0  0  0  0  0  0  0  0
   18.0386   -7.9775  -15.4484 O   0  0  0  0  0  0  0  0  0  0  0  0
   16.9210   -7.9706   -8.8784 O   0  0  0  0  0  0  0  0  0  0  0  0
   17.8804   -7.7833   -9.8729 C   0  0  0  0  0  0  0  0  0  0  0  0
   18.3867   -8.8295  -10.6047 C   0  0  0  0  0  0  0  0  0  0  0  0
   19.3424   -8.5802  -11.5840 C   0  0  0  0  0  0  0  0  0  0  0  0
   19.8191   -7.3251  -11.8683 C   0  0  0  0  0  0  0  0  0  0  0  0
   20.8210   -7.0598  -12.9028 C   0  0  0  0  0  0  0  0  0  0  0  0
   20.3104   -6.7646  -14.2797 C   0  0  2  0  0  0  0  0  0  0  0  0
   20.3090   -8.0644  -15.0028 N   0  0  0  0  0  0  0  0  0  0  0  0
   21.0945   -5.8221  -15.0730 C   0  0  0  0  0  0  0  0  0  0  0  0
   22.1497   -6.2734  -15.6691 O   0  0  0  0  0  0  0  0  0  0  0  0
   19.2883   -6.2739  -11.1092 C   0  0  0  0  0  0  0  0  0  0  0  0
   18.3428   -6.5319  -10.1422 C   0  0  0  0  0  0  0  0  0  0  0  0
   20.8265   -4.4494  -15.2756 N   0  0  0  0  0  0  0  0  0  0  0  0
   21.4084   -3.7580  -16.4050 C   0  0  1  0  0  0  0  0  0  0  0  0
   21.2173   -4.5868  -17.6679 C   0  0  0  0  0  0  0  0  0  0  0  0
   21.7149   -3.8845  -18.8786 C   0  0  0  0  0  0  0  0  0  0  0  0
   21.6562   -4.7311  -20.0962 C   0  0  0  0  0  0  0  0  0  0  0  0
   21.1033   -5.8433  -20.0354 O   0  0  0  0  0  0  0  0  0  0  0  0
   20.8484   -2.3979  -16.5053 C   0  0  0  0  0  0  0  0  0  0  0  0
   21.4658   -1.4842  -17.1082 O   0  0  0  0  0  0  0  0  0  0  0  0
   22.2031   -4.3000  -21.2800 O   0  0  0  0  0  0  0  0  0  0  0  0
   19.6272   -2.0103  -15.9643 O   0  0  0  0  0  0  0  0  0  0  0  0
  2  1  1  6
  3  2  1  0
  3  4  1  0
  5  6  2  0
  5  2  1  0
  8  7  1  0
  9  8  2  0
 10  9  1  0
 11 10  2  0
 11 17  1  0
 12 11  1  0
 13 12  1  1
 13 14  1  0
 14  5  1  0
 15 19  1  0
 15 13  1  0
 16 15  2  0
 17 18  2  0
 18  8  1  0
 20 19  1  0
 20 25  1  0
 20 21  1  6
 22 21  1  0
 23 22  1  0
 23 24  2  0
 25 28  1  0
 26 25  2  0
 27 23  1  0
M  END
$$$$
