CYE.pdb
     RDKit          3D

 28 28  0  0  1  0  0  0  0  0999 V2000
   28.4828  -22.6386  -17.7451 N   0  0  0  0  0  0  0  0  0  0  0  0
   28.2791  -21.3894  -17.0098 C   0  0  1  0  0  0  0  0  0  0  0  0
   27.5850  -20.4395  -17.9782 C   0  0  0  0  0  0  0  0  0  0  0  0
   25.8751  -20.9281  -18.2843 S   0  0  0  0  0  0  0  0  0  0  0  0
   27.4582  -21.6312  -15.8147 C   0  0  0  0  0  0  0  0  0  0  0  0
   26.7765  -22.6922  -15.7771 O   0  0  0  0  0  0  0  0  0  0  0  0
   24.8496  -20.3053   -7.3038 O   0  0  0  0  0  0  0  0  0  0  0  0
   25.4401  -20.2841   -8.5669 C   0  0  0  0  0  0  0  0  0  0  0  0
   24.9891  -19.4609   -9.5695 C   0  0  0  0  0  0  0  0  0  0  0  0
   25.6191  -19.4843  -10.8094 C   0  0  0  0  0  0  0  0  0  0  0  0
   26.6866  -20.2977  -11.0960 C   0  0  0  0  0  0  0  0  0  0  0  0
   27.3548  -20.3197  -12.3988 C   0  0  0  0  0  0  0  0  0  0  0  0
   26.6276  -20.9944  -13.5212 C   0  0  2  0  0  0  0  0  0  0  0  0
   27.4250  -20.7226  -14.7470 N   0  0  0  0  0  0  0  0  0  0  0  0
   25.2636  -20.5392  -13.7754 C   0  0  0  0  0  0  0  0  0  0  0  0
   25.0786  -19.7206  -14.7594 O   0  0  0  0  0  0  0  0  0  0  0  0
   27.1289  -21.1286  -10.0581 C   0  0  0  0  0  0  0  0  0  0  0  0
   26.4980  -21.0975   -8.8348 C   0  0  0  0  0  0  0  0  0  0  0  0
   24.0979  -20.9008  -13.0628 N   0  0  0  0  0  0  0  0  0  0  0  0
   22.7971  -20.5032  -13.5548 C   0  0  1  0  0  0  0  0  0  0  0  0
   22.5583  -21.1170  -14.9276 C   0  0  0  0  0  0  0  0  0  0  0  0
   22.7505  -20.1314  -16.0223 C   0  0  0  0  0  0  0  0  0  0  0  0
   21.6691  -20.1850  -17.0373 C   0  0  0  0  0  0  0  0  0  0  0  0
   21.3986  -21.2715  -17.5784 O   0  0  0  0  0  0  0  0  0  0  0  0
   21.7584  -20.8503  -12.5679 C   0  0  0  0  0  0  0  0  0  0  0  0
   22.0120  -21.6066  -11.5968 O   0  0  0  0  0  0  0  0  0  0  0  0
   20.9703  -19.0539  -17.3813 O   0  0  0  0  0  0  0  0  0  0  0  0
   20.4469  -20.3893  -12.6139 O   0  0  0  0  0  0  0  0  0  0  0  0
  2  1  1  6
  3  2  1  0
  3  4  1  0
  5  6  2  0
  5  2  1  0
  8  7  1  0
  9  8  2  0
 10  9  1  0
 11 10  2  0
 11 17  1  0
 12 11  1  0
 13 12  1  1
 13 14  1  0
 14  5  1  0
 15 19  1  0
 15 13  1  0
 16 15  2  0
 17 18  2  0
 18  8  1  0
 20 19  1  0
 20 25  1  0
 20 21  1  6
 22 21  1  0
 23 22  1  0
 23 24  2  0
 25 28  1  0
 26 25  2  0
 27 23  1  0
M  END
$$$$
