CYE.pdb
     RDKit          3D

 28 28  0  0  1  0  0  0  0  0999 V2000
   41.5488  -11.8752   -7.4187 N   0  0  0  0  0  0  0  0  0  0  0  0
   41.6998  -10.7569   -8.3510 C   0  0  1  0  0  0  0  0  0  0  0  0
   40.6005  -10.9260   -9.3926 C   0  0  0  0  0  0  0  0  0  0  0  0
   40.9276  -12.3210  -10.4897 S   0  0  0  0  0  0  0  0  0  0  0  0
   41.5699   -9.4788   -7.6368 C   0  0  0  0  0  0  0  0  0  0  0  0
   40.6121   -9.3562   -6.8248 O   0  0  0  0  0  0  0  0  0  0  0  0
   44.3416   -9.5915   -1.3940 O   0  0  0  0  0  0  0  0  0  0  0  0
   44.2117   -8.9714   -2.6362 C   0  0  0  0  0  0  0  0  0  0  0  0
   44.9761   -9.3362   -3.7173 C   0  0  0  0  0  0  0  0  0  0  0  0
   44.8011   -8.6805   -4.9315 C   0  0  0  0  0  0  0  0  0  0  0  0
   43.8910   -7.6703   -5.1170 C   0  0  0  0  0  0  0  0  0  0  0  0
   43.7012   -6.9827   -6.3959 C   0  0  0  0  0  0  0  0  0  0  0  0
   42.3742   -7.1581   -7.0682 C   0  0  2  0  0  0  0  0  0  0  0  0
   42.4719   -8.4247   -7.8418 N   0  0  0  0  0  0  0  0  0  0  0  0
   41.9753   -6.1056   -7.9986 C   0  0  0  0  0  0  0  0  0  0  0  0
   42.5099   -6.1126   -9.1761 O   0  0  0  0  0  0  0  0  0  0  0  0
   43.1228   -7.3154   -4.0004 C   0  0  0  0  0  0  0  0  0  0  0  0
   43.3043   -7.9708   -2.8033 C   0  0  0  0  0  0  0  0  0  0  0  0
   41.0501   -5.0640   -7.7610 N   0  0  0  0  0  0  0  0  0  0  0  0
   40.7511   -4.1101   -8.8064 C   0  0  1  0  0  0  0  0  0  0  0  0
   39.3368   -4.3399   -9.3214 C   0  0  0  0  0  0  0  0  0  0  0  0
   38.9768   -3.3941  -10.4089 C   0  0  0  0  0  0  0  0  0  0  0  0
   37.5696   -3.5443  -10.8558 C   0  0  0  0  0  0  0  0  0  0  0  0
   36.7512   -4.1034  -10.1047 O   0  0  0  0  0  0  0  0  0  0  0  0
   40.9820   -2.7387   -8.3171 C   0  0  0  0  0  0  0  0  0  0  0  0
   40.9183   -1.7527   -9.0938 O   0  0  0  0  0  0  0  0  0  0  0  0
   37.1667   -3.0749  -12.0820 O   0  0  0  0  0  0  0  0  0  0  0  0
   41.2792   -2.4161   -6.9973 O   0  0  0  0  0  0  0  0  0  0  0  0
  2  1  1  1
  3  2  1  0
  3  4  1  0
  5  6  2  0
  5  2  1  0
  8  7  1  0
  9  8  2  0
 10  9  1  0
 11 10  2  0
 11 17  1  0
 12 11  1  0
 13 12  1  6
 13 14  1  0
 14  5  1  0
 15 19  1  0
 15 13  1  0
 16 15  2  0
 17 18  2  0
 18  8  1  0
 20 19  1  0
 20 25  1  0
 20 21  1  1
 22 21  1  0
 23 22  1  0
 23 24  2  0
 25 28  1  0
 26 25  2  0
 27 23  1  0
M  END
$$$$
