CYE.pdb
     RDKit          3D

 28 28  0  0  1  0  0  0  0  0999 V2000
   28.5626  -22.7979  -16.8861 N   0  0  0  0  0  0  0  0  0  0  0  0
   27.7282  -21.6300  -16.5995 C   0  0  1  0  0  0  0  0  0  0  0  0
   27.0602  -21.2565  -17.9172 C   0  0  0  0  0  0  0  0  0  0  0  0
   25.7891  -22.4492  -18.3843 S   0  0  0  0  0  0  0  0  0  0  0  0
   26.7335  -21.9567  -15.5678 C   0  0  0  0  0  0  0  0  0  0  0  0
   26.7528  -23.1216  -15.0836 O   0  0  0  0  0  0  0  0  0  0  0  0
   22.4675  -20.4392   -7.9925 O   0  0  0  0  0  0  0  0  0  0  0  0
   23.1569  -20.4203   -9.2045 C   0  0  0  0  0  0  0  0  0  0  0  0
   22.5785  -19.9707  -10.3662 C   0  0  0  0  0  0  0  0  0  0  0  0
   23.3170  -19.9760  -11.5449 C   0  0  0  0  0  0  0  0  0  0  0  0
   24.6159  -20.4126  -11.6173 C   0  0  0  0  0  0  0  0  0  0  0  0
   25.3970  -20.4137  -12.8560 C   0  0  0  0  0  0  0  0  0  0  0  0
   24.9043  -21.2905  -13.9660 C   0  0  2  0  0  0  0  0  0  0  0  0
   25.7909  -21.0160  -15.1282 N   0  0  0  0  0  0  0  0  0  0  0  0
   23.5282  -21.0710  -14.4026 C   0  0  0  0  0  0  0  0  0  0  0  0
   23.2841  -20.0133  -15.1057 O   0  0  0  0  0  0  0  0  0  0  0  0
   25.1848  -20.8667  -10.4201 C   0  0  0  0  0  0  0  0  0  0  0  0
   24.4449  -20.8572   -9.2591 C   0  0  0  0  0  0  0  0  0  0  0  0
   22.4112  -21.8985  -14.1481 N   0  0  0  0  0  0  0  0  0  0  0  0
   21.0896  -21.4751  -14.5560 C   0  0  1  0  0  0  0  0  0  0  0  0
   20.4440  -22.5589  -15.4085 C   0  0  0  0  0  0  0  0  0  0  0  0
   20.3958  -23.8676  -14.7073 C   0  0  0  0  0  0  0  0  0  0  0  0
   19.6506  -24.8992  -15.4709 C   0  0  0  0  0  0  0  0  0  0  0  0
   20.2190  -25.4898  -16.4062 O   0  0  0  0  0  0  0  0  0  0  0  0
   20.2918  -21.1062  -13.3724 C   0  0  0  0  0  0  0  0  0  0  0  0
   19.2095  -20.4782  -13.4888 O   0  0  0  0  0  0  0  0  0  0  0  0
   18.3492  -25.2047  -15.1560 O   0  0  0  0  0  0  0  0  0  0  0  0
   20.6461  -21.4088  -12.0619 O   0  0  0  0  0  0  0  0  0  0  0  0
  2  1  1  6
  3  2  1  0
  3  4  1  0
  5  6  2  0
  5  2  1  0
  8  7  1  0
  9  8  2  0
 10  9  1  0
 11 10  2  0
 11 17  1  0
 12 11  1  0
 13 12  1  1
 13 14  1  0
 14  5  1  0
 15 19  1  0
 15 13  1  0
 16 15  2  0
 17 18  2  0
 18  8  1  0
 20 19  1  0
 20 25  1  0
 20 21  1  1
 22 21  1  0
 23 22  1  0
 23 24  2  0
 25 28  1  0
 26 25  2  0
 27 23  1  0
M  END
$$$$
