CYE.pdb
     RDKit          3D

 28 28  0  0  1  0  0  0  0  0999 V2000
   29.0885  -20.6832  -16.6729 N   0  0  0  0  0  0  0  0  0  0  0  0
   28.2958  -20.0370  -15.6258 C   0  0  1  0  0  0  0  0  0  0  0  0
   28.0689  -18.6046  -16.0932 C   0  0  0  0  0  0  0  0  0  0  0  0
   27.1045  -17.6561  -14.8988 S   0  0  0  0  0  0  0  0  0  0  0  0
   27.0231  -20.7484  -15.4398 C   0  0  0  0  0  0  0  0  0  0  0  0
   26.5447  -21.3626  -16.4327 O   0  0  0  0  0  0  0  0  0  0  0  0
   21.9478  -19.6544   -8.6267 O   0  0  0  0  0  0  0  0  0  0  0  0
   22.7538  -20.2361   -9.6048 C   0  0  0  0  0  0  0  0  0  0  0  0
   24.1217  -20.1144   -9.5904 C   0  0  0  0  0  0  0  0  0  0  0  0
   24.8729  -20.7173  -10.5938 C   0  0  0  0  0  0  0  0  0  0  0  0
   24.3168  -21.4416  -11.6182 C   0  0  0  0  0  0  0  0  0  0  0  0
   25.1062  -22.0820  -12.6723 C   0  0  0  0  0  0  0  0  0  0  0  0
   25.0548  -21.4552  -14.0318 C   0  0  2  0  0  0  0  0  0  0  0  0
   26.3538  -20.7523  -14.2074 N   0  0  0  0  0  0  0  0  0  0  0  0
   23.9934  -20.4774  -14.2546 C   0  0  0  0  0  0  0  0  0  0  0  0
   24.1489  -19.2981  -13.7469 O   0  0  0  0  0  0  0  0  0  0  0  0
   22.9201  -21.5521  -11.6122 C   0  0  0  0  0  0  0  0  0  0  0  0
   22.1862  -20.9512  -10.6143 C   0  0  0  0  0  0  0  0  0  0  0  0
   22.7959  -20.6701  -14.9799 N   0  0  0  0  0  0  0  0  0  0  0  0
   21.8363  -19.5933  -15.0905 C   0  0  1  0  0  0  0  0  0  0  0  0
   21.8815  -19.0083  -16.4955 C   0  0  0  0  0  0  0  0  0  0  0  0
   20.8558  -17.9524  -16.6951 C   0  0  0  0  0  0  0  0  0  0  0  0
   20.8639  -17.3995  -18.0723 C   0  0  0  0  0  0  0  0  0  0  0  0
   21.8878  -16.8320  -18.4920 O   0  0  0  0  0  0  0  0  0  0  0  0
   20.4981  -20.0696  -14.6959 C   0  0  0  0  0  0  0  0  0  0  0  0
   20.1689  -21.2739  -14.8395 O   0  0  0  0  0  0  0  0  0  0  0  0
   19.7590  -17.5083  -18.8808 O   0  0  0  0  0  0  0  0  0  0  0  0
   19.5088  -19.2620  -14.1449 O   0  0  0  0  0  0  0  0  0  0  0  0
  2  1  1  6
  3  2  1  0
  3  4  1  0
  5  6  2  0
  5  2  1  0
  8  7  1  0
  9  8  2  0
 10  9  1  0
 11 10  2  0
 11 17  1  0
 12 11  1  0
 13 12  1  1
 13 14  1  0
 14  5  1  0
 15 19  1  0
 15 13  1  0
 16 15  2  0
 17 18  2  0
 18  8  1  0
 20 19  1  0
 20 25  1  0
 20 21  1  6
 22 21  1  0
 23 22  1  0
 23 24  2  0
 25 28  1  0
 26 25  2  0
 27 23  1  0
M  END
$$$$
