CYE.pdb
     RDKit          3D

 28 28  0  0  1  0  0  0  0  0999 V2000
   28.2288  -22.3324  -17.3582 N   0  0  0  0  0  0  0  0  0  0  0  0
   27.6827  -21.1352  -16.7171 C   0  0  1  0  0  0  0  0  0  0  0  0
   26.8931  -20.4033  -17.7954 C   0  0  0  0  0  0  0  0  0  0  0  0
   27.9789  -19.6509  -19.0248 S   0  0  0  0  0  0  0  0  0  0  0  0
   26.8234  -21.5117  -15.5856 C   0  0  0  0  0  0  0  0  0  0  0  0
   26.1767  -22.5914  -15.6750 O   0  0  0  0  0  0  0  0  0  0  0  0
   23.3581  -20.8386   -7.3055 O   0  0  0  0  0  0  0  0  0  0  0  0
   24.0682  -20.6956   -8.4971 C   0  0  0  0  0  0  0  0  0  0  0  0
   23.7412  -19.7438   -9.4317 C   0  0  0  0  0  0  0  0  0  0  0  0
   24.4871  -19.6493  -10.6019 C   0  0  0  0  0  0  0  0  0  0  0  0
   25.5523  -20.4673  -10.8836 C   0  0  0  0  0  0  0  0  0  0  0  0
   26.3424  -20.3657  -12.1123 C   0  0  0  0  0  0  0  0  0  0  0  0
   25.8064  -21.0684  -13.3217 C   0  0  2  0  0  0  0  0  0  0  0  0
   26.7171  -20.7081  -14.4412 N   0  0  0  0  0  0  0  0  0  0  0  0
   24.4496  -20.7138  -13.7286 C   0  0  0  0  0  0  0  0  0  0  0  0
   24.2914  -19.6178  -14.3967 O   0  0  0  0  0  0  0  0  0  0  0  0
   25.8672  -21.4303   -9.9158 C   0  0  0  0  0  0  0  0  0  0  0  0
   25.1222  -21.5152   -8.7611 C   0  0  0  0  0  0  0  0  0  0  0  0
   23.2665  -21.4456  -13.4792 N   0  0  0  0  0  0  0  0  0  0  0  0
   21.9852  -20.9070  -13.8797 C   0  0  1  0  0  0  0  0  0  0  0  0
   21.4926  -21.6284  -15.1268 C   0  0  0  0  0  0  0  0  0  0  0  0
   20.1337  -21.1841  -15.5301 C   0  0  0  0  0  0  0  0  0  0  0  0
   19.9806  -21.0744  -17.0022 C   0  0  0  0  0  0  0  0  0  0  0  0
   20.9171  -21.4330  -17.7377 O   0  0  0  0  0  0  0  0  0  0  0  0
   21.0379  -20.9711  -12.7519 C   0  0  0  0  0  0  0  0  0  0  0  0
   21.1657  -21.8310  -11.8444 O   0  0  0  0  0  0  0  0  0  0  0  0
   18.8228  -20.5841  -17.5548 O   0  0  0  0  0  0  0  0  0  0  0  0
   19.9531  -20.1160  -12.5887 O   0  0  0  0  0  0  0  0  0  0  0  0
  2  1  1  6
  3  2  1  0
  3  4  1  0
  5  6  2  0
  5  2  1  0
  8  7  1  0
  9  8  2  0
 10  9  1  0
 11 10  2  0
 11 17  1  0
 12 11  1  0
 13 12  1  1
 13 14  1  0
 14  5  1  0
 15 19  1  0
 15 13  1  0
 16 15  2  0
 17 18  2  0
 18  8  1  0
 20 19  1  0
 20 25  1  0
 20 21  1  6
 22 21  1  0
 23 22  1  0
 23 24  2  0
 25 28  1  0
 26 25  2  0
 27 23  1  0
M  END
$$$$
