CYE.pdb
     RDKit          3D

 28 28  0  0  1  0  0  0  0  0999 V2000
   28.5416  -21.6831  -18.4985 N   0  0  0  0  0  0  0  0  0  0  0  0
   28.1253  -20.5279  -17.7019 C   0  0  1  0  0  0  0  0  0  0  0  0
   27.2995  -19.6496  -18.6339 C   0  0  0  0  0  0  0  0  0  0  0  0
   28.3272  -18.8460  -19.8807 S   0  0  0  0  0  0  0  0  0  0  0  0
   27.3375  -20.9679  -16.5416 C   0  0  0  0  0  0  0  0  0  0  0  0
   26.6148  -21.9929  -16.6789 O   0  0  0  0  0  0  0  0  0  0  0  0
   24.7748  -21.0264   -7.9104 O   0  0  0  0  0  0  0  0  0  0  0  0
   25.3595  -20.7851   -9.1532 C   0  0  0  0  0  0  0  0  0  0  0  0
   24.9193  -19.7847   -9.9848 C   0  0  0  0  0  0  0  0  0  0  0  0
   25.5428  -19.5921  -11.2132 C   0  0  0  0  0  0  0  0  0  0  0  0
   26.5934  -20.3581  -11.6522 C   0  0  0  0  0  0  0  0  0  0  0  0
   27.2549  -20.1533  -12.9425 C   0  0  0  0  0  0  0  0  0  0  0  0
   26.5813  -20.7336  -14.1481 C   0  0  2  0  0  0  0  0  0  0  0  0
   27.3788  -20.2815  -15.3194 N   0  0  0  0  0  0  0  0  0  0  0  0
   25.1977  -20.3261  -14.3758 C   0  0  0  0  0  0  0  0  0  0  0  0
   24.9923  -19.1393  -14.8468 O   0  0  0  0  0  0  0  0  0  0  0  0
   27.0251  -21.3722  -10.7872 C   0  0  0  0  0  0  0  0  0  0  0  0
   26.4007  -21.5541   -9.5737 C   0  0  0  0  0  0  0  0  0  0  0  0
   24.0341  -21.0941  -14.1441 N   0  0  0  0  0  0  0  0  0  0  0  0
   22.7288  -20.4814  -14.2583 C   0  0  1  0  0  0  0  0  0  0  0  0
   22.1878  -20.6854  -15.6669 C   0  0  0  0  0  0  0  0  0  0  0  0
   22.3307  -19.4659  -16.5031 C   0  0  0  0  0  0  0  0  0  0  0  0
   21.7000  -19.6105  -17.8387 C   0  0  0  0  0  0  0  0  0  0  0  0
   20.6708  -18.9619  -18.0968 O   0  0  0  0  0  0  0  0  0  0  0  0
   21.8359  -20.9999  -13.2059 C   0  0  0  0  0  0  0  0  0  0  0  0
   20.6684  -20.5559  -13.0681 O   0  0  0  0  0  0  0  0  0  0  0  0
   22.2391  -20.4477  -18.7845 O   0  0  0  0  0  0  0  0  0  0  0  0
   22.1864  -21.9950  -12.2996 O   0  0  0  0  0  0  0  0  0  0  0  0
  2  1  1  6
  3  2  1  0
  3  4  1  0
  5  6  2  0
  5  2  1  0
  8  7  1  0
  9  8  2  0
 10  9  1  0
 11 10  2  0
 11 17  1  0
 12 11  1  0
 13 12  1  1
 13 14  1  0
 14  5  1  0
 15 19  1  0
 15 13  1  0
 16 15  2  0
 17 18  2  0
 18  8  1  0
 20 19  1  0
 20 25  1  0
 20 21  1  6
 22 21  1  0
 23 22  1  0
 23 24  2  0
 25 28  1  0
 26 25  2  0
 27 23  1  0
M  END
$$$$
