CYE.pdb
     RDKit          3D

 28 28  0  0  1  0  0  0  0  0999 V2000
   22.7253  -13.5182  -17.4489 N   0  0  0  0  0  0  0  0  0  0  0  0
   22.6444  -12.2115  -18.1034 C   0  0  1  0  0  0  0  0  0  0  0  0
   21.6704  -12.3811  -19.2629 C   0  0  0  0  0  0  0  0  0  0  0  0
   22.2731  -13.5760  -20.4734 S   0  0  0  0  0  0  0  0  0  0  0  0
   22.1738  -11.1947  -17.1520 C   0  0  0  0  0  0  0  0  0  0  0  0
   21.2219  -11.5063  -16.3848 O   0  0  0  0  0  0  0  0  0  0  0  0
   22.4105   -2.9637  -13.4653 O   0  0  0  0  0  0  0  0  0  0  0  0
   22.6599   -4.2131  -14.0322 C   0  0  0  0  0  0  0  0  0  0  0  0
   22.3968   -5.3835  -13.3633 C   0  0  0  0  0  0  0  0  0  0  0  0
   22.6669   -6.6001  -13.9811 C   0  0  0  0  0  0  0  0  0  0  0  0
   23.1911   -6.7024  -15.2452 C   0  0  0  0  0  0  0  0  0  0  0  0
   23.4707   -7.9823  -15.8995 C   0  0  0  0  0  0  0  0  0  0  0  0
   22.3135   -8.9154  -16.0837 C   0  0  2  0  0  0  0  0  0  0  0  0
   22.7538   -9.9194  -17.0890 N   0  0  0  0  0  0  0  0  0  0  0  0
   21.0730   -8.3201  -16.5726 C   0  0  0  0  0  0  0  0  0  0  0  0
   20.9793   -8.0873  -17.8413 O   0  0  0  0  0  0  0  0  0  0  0  0
   23.4512   -5.4956  -15.9078 C   0  0  0  0  0  0  0  0  0  0  0  0
   23.1803   -4.2970  -15.2870 C   0  0  0  0  0  0  0  0  0  0  0  0
   19.9377   -7.9680  -15.8081 N   0  0  0  0  0  0  0  0  0  0  0  0
   18.7653   -7.4280  -16.4611 C   0  0  1  0  0  0  0  0  0  0  0  0
   17.5802   -8.3575  -16.2384 C   0  0  0  0  0  0  0  0  0  0  0  0
   16.3315   -7.8268  -16.8434 C   0  0  0  0  0  0  0  0  0  0  0  0
   15.2433   -8.8350  -16.8876 C   0  0  0  0  0  0  0  0  0  0  0  0
   14.2988   -8.6735  -17.6802 O   0  0  0  0  0  0  0  0  0  0  0  0
   18.5238   -6.0484  -16.0008 C   0  0  0  0  0  0  0  0  0  0  0  0
   17.8619   -5.2380  -16.6969 O   0  0  0  0  0  0  0  0  0  0  0  0
   15.2704   -9.9360  -16.0671 O   0  0  0  0  0  0  0  0  0  0  0  0
   18.9863   -5.5310  -14.7954 O   0  0  0  0  0  0  0  0  0  0  0  0
  2  1  1  1
  3  2  1  0
  3  4  1  0
  5  6  2  0
  5  2  1  0
  8  7  1  0
  9  8  2  0
 10  9  1  0
 11 10  2  0
 11 17  1  0
 12 11  1  0
 13 12  1  6
 13 14  1  0
 14  5  1  0
 15 19  1  0
 15 13  1  0
 16 15  2  0
 17 18  2  0
 18  8  1  0
 20 19  1  0
 20 25  1  0
 20 21  1  1
 22 21  1  0
 23 22  1  0
 23 24  2  0
 25 28  1  0
 26 25  2  0
 27 23  1  0
M  END
$$$$
