CYE.pdb
     RDKit          3D

 28 28  0  0  1  0  0  0  0  0999 V2000
   30.5064   -7.9301  -19.0852 N   0  0  0  0  0  0  0  0  0  0  0  0
   29.3478   -7.9316  -18.1906 C   0  0  1  0  0  0  0  0  0  0  0  0
   28.4370   -6.8123  -18.6799 C   0  0  0  0  0  0  0  0  0  0  0  0
   29.0776   -5.1854  -18.2336 S   0  0  0  0  0  0  0  0  0  0  0  0
   28.6697   -9.2348  -18.2394 C   0  0  0  0  0  0  0  0  0  0  0  0
   28.8100   -9.9295  -19.2832 O   0  0  0  0  0  0  0  0  0  0  0  0
   26.3549  -17.1962  -15.2964 O   0  0  0  0  0  0  0  0  0  0  0  0
   26.8185  -15.9157  -15.5965 C   0  0  0  0  0  0  0  0  0  0  0  0
   27.4607  -15.6301  -16.7763 C   0  0  0  0  0  0  0  0  0  0  0  0
   27.9008  -14.3331  -17.0192 C   0  0  0  0  0  0  0  0  0  0  0  0
   27.7275  -13.3009  -16.1317 C   0  0  0  0  0  0  0  0  0  0  0  0
   28.1849  -11.9336  -16.3880 C   0  0  0  0  0  0  0  0  0  0  0  0
   27.2756  -11.0550  -17.1911 C   0  0  2  0  0  0  0  0  0  0  0  0
   27.8914   -9.7013  -17.1701 N   0  0  0  0  0  0  0  0  0  0  0  0
   25.9060  -10.9215  -16.7025 C   0  0  0  0  0  0  0  0  0  0  0  0
   25.6646   -9.9844  -15.8445 O   0  0  0  0  0  0  0  0  0  0  0  0
   27.0700  -13.6160  -14.9353 C   0  0  0  0  0  0  0  0  0  0  0  0
   26.6386  -14.9030  -14.7050 C   0  0  0  0  0  0  0  0  0  0  0  0
   24.7900  -11.7070  -17.0695 N   0  0  0  0  0  0  0  0  0  0  0  0
   23.4610  -11.3128  -16.6565 C   0  0  1  0  0  0  0  0  0  0  0  0
   23.4892   -9.8830  -16.1339 C   0  0  0  0  0  0  0  0  0  0  0  0
   22.1412   -9.4092  -15.7276 C   0  0  0  0  0  0  0  0  0  0  0  0
   22.1393   -7.9889  -15.2969 C   0  0  0  0  0  0  0  0  0  0  0  0
   21.6583   -7.1267  -16.0530 O   0  0  0  0  0  0  0  0  0  0  0  0
   22.5094  -11.5142  -17.7643 C   0  0  0  0  0  0  0  0  0  0  0  0
   21.2969  -11.2069  -17.6429 O   0  0  0  0  0  0  0  0  0  0  0  0
   22.6601   -7.6218  -14.0803 O   0  0  0  0  0  0  0  0  0  0  0  0
   22.8500  -12.0420  -19.0052 O   0  0  0  0  0  0  0  0  0  0  0  0
  2  1  1  6
  3  2  1  0
  3  4  1  0
  5  6  2  0
  5  2  1  0
  8  7  1  0
  9  8  2  0
 10  9  1  0
 11 10  2  0
 11 17  1  0
 12 11  1  0
 13 12  1  1
 13 14  1  0
 14  5  1  0
 15 19  1  0
 15 13  1  0
 16 15  2  0
 17 18  2  0
 18  8  1  0
 20 19  1  0
 20 25  1  0
 20 21  1  6
 22 21  1  0
 23 22  1  0
 23 24  2  0
 25 28  1  0
 26 25  2  0
 27 23  1  0
M  END
$$$$
