FYN.pdb
     RDKit          3D

 32 33  0  0  1  0  0  0  0  0999 V2000
   25.9844   -3.1296  -19.5319 N   0  0  0  0  0  0  0  0  0  0  0  0
   25.3001   -3.3093  -18.2899 C   0  0  1  0  0  0  0  0  0  0  0  0
   24.1574   -2.3284  -18.1085 C   0  0  0  0  0  0  0  0  0  0  0  0
   24.6941   -0.9481  -17.9958 C   0  0  0  0  0  0  0  0  0  0  0  0
   24.7725   -0.1057  -19.0855 C   0  0  0  0  0  0  0  0  0  0  0  0
   25.2613    1.1578  -18.9857 C   0  0  0  0  0  0  0  0  0  0  0  0
   25.6992    1.6402  -17.7723 C   0  0  0  0  0  0  0  0  0  0  0  0
   25.6382    0.8386  -16.6711 C   0  0  0  0  0  0  0  0  0  0  0  0
   25.1419   -0.4396  -16.7815 C   0  0  0  0  0  0  0  0  0  0  0  0
   24.7794   -4.7201  -18.2697 C   0  0  0  0  0  0  0  0  0  0  0  0
   24.2293   -5.1307  -19.3241 O   0  0  0  0  0  0  0  0  0  0  0  0
   25.1749  -13.3330  -15.9624 O   0  0  0  0  0  0  0  0  0  0  0  0
   25.2832  -11.9549  -16.1372 C   0  0  0  0  0  0  0  0  0  0  0  0
   25.4515  -11.1386  -15.0555 C   0  0  0  0  0  0  0  0  0  0  0  0
   25.5580   -9.7929  -15.2130 C   0  0  0  0  0  0  0  0  0  0  0  0
   25.5051   -9.1558  -16.4622 C   0  0  0  0  0  0  0  0  0  0  0  0
   25.5727   -7.7269  -16.6336 C   0  0  0  0  0  0  0  0  0  0  0  0
   24.4365   -6.9604  -17.1612 C   0  0  2  0  0  0  0  0  0  0  0  0
   24.8972   -5.5452  -17.1354 N   0  0  0  0  0  0  0  0  0  0  0  0
   23.2063   -7.0040  -16.3681 C   0  0  0  0  0  0  0  0  0  0  0  0
   23.1321   -6.3868  -15.2612 O   0  0  0  0  0  0  0  0  0  0  0  0
   25.3359   -9.9905  -17.5414 C   0  0  0  0  0  0  0  0  0  0  0  0
   25.2250  -11.3774  -17.3876 C   0  0  0  0  0  0  0  0  0  0  0  0
   18.5117   -7.9198  -14.6315 N   0  0  0  0  0  0  0  0  0  0  0  0
   18.4740   -8.2494  -16.0397 C   0  0  0  0  0  0  0  0  0  0  0  0
   17.3803   -8.5489  -16.5308 O   0  0  0  0  0  0  0  0  0  0  0  0
   19.6997   -8.2193  -16.8216 C   0  0  0  0  0  0  0  0  0  0  0  0
   20.8605   -7.7301  -15.9647 C   0  0  2  0  0  0  0  0  0  0  0  0
   22.0716   -7.7305  -16.8270 N   0  0  0  0  0  0  0  0  0  0  0  0
   21.0866   -8.7340  -14.9121 C   0  0  0  0  0  0  0  0  0  0  0  0
   20.9039   -8.5613  -13.6835 O   0  0  0  0  0  0  0  0  0  0  0  0
   21.5462  -10.0181  -15.2633 O   0  0  0  0  0  0  0  0  0  0  0  0
  2  1  1  6
  2  3  1  0
  3  4  1  0
  4  9  1  0
  4  5  2  0
  5  6  1  0
  7  6  2  0
  8  7  1  0
  9  8  2  0
 10  2  1  0
 11 10  2  0
 13 12  1  0
 13 23  2  0
 14 13  1  0
 15 14  2  0
 15 16  1  0
 16 22  2  0
 17 16  1  0
 18 19  1  0
 18 17  1  1
 19 10  1  0
 20 18  1  0
 21 20  2  0
 22 23  1  0
 24 25  1  0
 25 26  2  0
 28 27  1  6
 27 25  1  0
 28 29  1  0
 29 20  1  0
 30 32  1  0
 30 28  1  0
 31 30  2  0
M  END
$$$$
