FYN.pdb
     RDKit          3D

 32 33  0  0  1  0  0  0  0  0999 V2000
   16.3112  -14.8830    6.2833 N   0  0  0  0  0  0  0  0  0  0  0  0
   17.1167  -15.7477    5.4791 C   0  0  1  0  0  0  0  0  0  0  0  0
   18.5625  -15.2945    5.4067 C   0  0  0  0  0  0  0  0  0  0  0  0
   18.6595  -14.0538    4.5961 C   0  0  0  0  0  0  0  0  0  0  0  0
   19.1092  -12.8655    5.1337 C   0  0  0  0  0  0  0  0  0  0  0  0
   19.2008  -11.7293    4.3949 C   0  0  0  0  0  0  0  0  0  0  0  0
   18.8407  -11.7333    3.0656 C   0  0  0  0  0  0  0  0  0  0  0  0
   18.3912  -12.8881    2.4967 C   0  0  0  0  0  0  0  0  0  0  0  0
   18.3017  -14.0339    3.2526 C   0  0  0  0  0  0  0  0  0  0  0  0
   17.0347  -17.1218    6.0849 C   0  0  0  0  0  0  0  0  0  0  0  0
   16.7954  -17.1781    7.3188 O   0  0  0  0  0  0  0  0  0  0  0  0
   18.2423  -26.1169    5.4707 O   0  0  0  0  0  0  0  0  0  0  0  0
   17.9875  -24.7535    5.3386 C   0  0  0  0  0  0  0  0  0  0  0  0
   16.8090  -24.2304    5.7882 C   0  0  0  0  0  0  0  0  0  0  0  0
   16.5487  -22.9022    5.6646 C   0  0  0  0  0  0  0  0  0  0  0  0
   17.4438  -21.9914    5.0829 C   0  0  0  0  0  0  0  0  0  0  0  0
   17.1570  -20.5903    4.9082 C   0  0  0  0  0  0  0  0  0  0  0  0
   17.4271  -19.6114    5.9690 C   0  0  2  0  0  0  0  0  0  0  0  0
   17.2143  -18.2891    5.3192 N   0  0  0  0  0  0  0  0  0  0  0  0
   18.7934  -19.5926    6.4955 C   0  0  0  0  0  0  0  0  0  0  0  0
   19.7241  -19.0194    5.8496 O   0  0  0  0  0  0  0  0  0  0  0  0
   18.6258  -22.5327    4.6357 C   0  0  0  0  0  0  0  0  0  0  0  0
   18.9014  -23.8995    4.7589 C   0  0  0  0  0  0  0  0  0  0  0  0
   22.2265  -18.3908   10.9473 N   0  0  0  0  0  0  0  0  0  0  0  0
   22.0202  -18.8254    9.5829 C   0  0  0  0  0  0  0  0  0  0  0  0
   23.0186  -19.1163    8.9152 O   0  0  0  0  0  0  0  0  0  0  0  0
   20.6709  -18.9062    9.0467 C   0  0  0  0  0  0  0  0  0  0  0  0
   20.5135  -20.1633    8.2008 C   0  0  2  0  0  0  0  0  0  0  0  0
   19.1001  -20.2078    7.7417 N   0  0  0  0  0  0  0  0  0  0  0  0
   20.7097  -21.3209    9.0888 C   0  0  0  0  0  0  0  0  0  0  0  0
   19.9300  -21.6849   10.0012 O   0  0  0  0  0  0  0  0  0  0  0  0
   21.8568  -22.1245    8.9404 O   0  0  0  0  0  0  0  0  0  0  0  0
  2  1  1  1
  2  3  1  0
  3  4  1  0
  4  9  1  0
  4  5  2  0
  5  6  1  0
  7  6  2  0
  8  7  1  0
  9  8  2  0
 10  2  1  0
 11 10  2  0
 13 12  1  0
 13 23  2  0
 14 13  1  0
 15 14  2  0
 15 16  1  0
 16 22  2  0
 17 16  1  0
 18 19  1  0
 18 17  1  6
 19 10  1  0
 20 18  1  0
 21 20  2  0
 22 23  1  0
 24 25  1  0
 25 26  2  0
 28 27  1  1
 27 25  1  0
 28 29  1  0
 29 20  1  0
 30 32  1  0
 30 28  1  0
 31 30  2  0
M  END
$$$$
