FYN.pdb
     RDKit          3D

 32 33  0  0  1  0  0  0  0  0999 V2000
   27.7833  -21.1566   -9.5974 N   0  0  0  0  0  0  0  0  0  0  0  0
   26.5865  -20.5271   -9.1340 C   0  0  1  0  0  0  0  0  0  0  0  0
   26.8659  -19.3199   -8.2591 C   0  0  0  0  0  0  0  0  0  0  0  0
   27.6291  -19.7384   -7.0556 C   0  0  0  0  0  0  0  0  0  0  0  0
   26.9992  -20.1866   -5.9129 C   0  0  0  0  0  0  0  0  0  0  0  0
   27.6940  -20.5717   -4.8110 C   0  0  0  0  0  0  0  0  0  0  0  0
   29.0703  -20.5243   -4.8050 C   0  0  0  0  0  0  0  0  0  0  0  0
   29.7305  -20.0872   -5.9151 C   0  0  0  0  0  0  0  0  0  0  0  0
   29.0187  -19.6991   -7.0264 C   0  0  0  0  0  0  0  0  0  0  0  0
   25.8021  -20.1152  -10.3493 C   0  0  0  0  0  0  0  0  0  0  0  0
   25.9780  -18.9387  -10.7589 O   0  0  0  0  0  0  0  0  0  0  0  0
   23.6988  -18.1876  -18.2609 O   0  0  0  0  0  0  0  0  0  0  0  0
   24.0719  -18.6972  -17.0189 C   0  0  0  0  0  0  0  0  0  0  0  0
   24.2598  -20.0401  -16.8581 C   0  0  0  0  0  0  0  0  0  0  0  0
   24.6234  -20.5493  -15.6516 C   0  0  0  0  0  0  0  0  0  0  0  0
   24.8282  -19.7584  -14.5106 C   0  0  0  0  0  0  0  0  0  0  0  0
   25.1703  -20.2948  -13.2179 C   0  0  0  0  0  0  0  0  0  0  0  0
   24.1461  -20.5614  -12.1998 C   0  0  2  0  0  0  0  0  0  0  0  0
   24.9157  -20.9932  -11.0009 N   0  0  0  0  0  0  0  0  0  0  0  0
   23.2097  -21.6472  -12.4970 C   0  0  0  0  0  0  0  0  0  0  0  0
   23.2838  -22.7499  -11.8722 O   0  0  0  0  0  0  0  0  0  0  0  0
   24.6359  -18.4088  -14.6882 C   0  0  0  0  0  0  0  0  0  0  0  0
   24.2610  -17.8766  -15.9275 C   0  0  0  0  0  0  0  0  0  0  0  0
   18.6520  -23.4094  -12.4062 N   0  0  0  0  0  0  0  0  0  0  0  0
   19.6168  -23.1138  -11.3695 C   0  0  0  0  0  0  0  0  0  0  0  0
   19.3694  -23.5082  -10.2247 O   0  0  0  0  0  0  0  0  0  0  0  0
   20.8261  -22.3758  -11.6974 C   0  0  0  0  0  0  0  0  0  0  0  0
   20.8482  -22.0315  -13.1812 C   0  0  2  0  0  0  0  0  0  0  0  0
   22.1968  -21.4832  -13.4833 N   0  0  0  0  0  0  0  0  0  0  0  0
   19.8860  -20.9383  -13.3956 C   0  0  0  0  0  0  0  0  0  0  0  0
   19.9297  -19.8073  -12.8555 O   0  0  0  0  0  0  0  0  0  0  0  0
   18.8040  -21.1273  -14.2772 O   0  0  0  0  0  0  0  0  0  0  0  0
  2  1  1  6
  2  3  1  0
  3  4  1  0
  4  9  1  0
  4  5  2  0
  5  6  1  0
  7  6  2  0
  8  7  1  0
  9  8  2  0
 10  2  1  0
 11 10  2  0
 13 12  1  0
 13 23  2  0
 14 13  1  0
 15 14  2  0
 15 16  1  0
 16 22  2  0
 17 16  1  0
 18 19  1  0
 18 17  1  6
 19 10  1  0
 20 18  1  0
 21 20  2  0
 22 23  1  0
 24 25  1  0
 25 26  2  0
 28 27  1  1
 27 25  1  0
 28 29  1  0
 29 20  1  0
 30 32  1  0
 30 28  1  0
 31 30  2  0
M  END
$$$$
