FYN.pdb
     RDKit          3D

 32 33  0  0  1  0  0  0  0  0999 V2000
   30.6018   -4.8123  -18.3672 N   0  0  0  0  0  0  0  0  0  0  0  0
   30.3918   -6.2237  -18.4512 C   0  0  1  0  0  0  0  0  0  0  0  0
   29.8983   -6.6576  -19.8184 C   0  0  0  0  0  0  0  0  0  0  0  0
   28.5618   -6.0652  -20.0806 C   0  0  0  0  0  0  0  0  0  0  0  0
   28.3891   -5.0187  -20.9628 C   0  0  0  0  0  0  0  0  0  0  0  0
   27.1680   -4.4756  -21.2062 C   0  0  0  0  0  0  0  0  0  0  0  0
   26.0498   -4.9639  -20.5676 C   0  0  0  0  0  0  0  0  0  0  0  0
   26.1785   -5.9978  -19.6881 C   0  0  0  0  0  0  0  0  0  0  0  0
   27.4190   -6.5416  -19.4476 C   0  0  0  0  0  0  0  0  0  0  0  0
   31.7051   -6.8875  -18.1404 C   0  0  0  0  0  0  0  0  0  0  0  0
   32.7260   -6.3961  -18.6873 O   0  0  0  0  0  0  0  0  0  0  0  0
   36.0018   -3.8885  -13.6575 O   0  0  0  0  0  0  0  0  0  0  0  0
   35.3330   -5.0193  -14.1216 C   0  0  0  0  0  0  0  0  0  0  0  0
   35.9990   -6.2045  -14.2494 C   0  0  0  0  0  0  0  0  0  0  0  0
   35.3577   -7.3143  -14.7014 C   0  0  0  0  0  0  0  0  0  0  0  0
   34.0015   -7.3287  -15.0614 C   0  0  0  0  0  0  0  0  0  0  0  0
   33.3258   -8.4894  -15.5831 C   0  0  0  0  0  0  0  0  0  0  0  0
   33.1021   -8.6670  -17.0236 C   0  0  2  0  0  0  0  0  0  0  0  0
   31.7968   -8.0003  -17.2833 N   0  0  0  0  0  0  0  0  0  0  0  0
   32.9547  -10.0482  -17.4871 C   0  0  0  0  0  0  0  0  0  0  0  0
   32.0222  -10.7823  -17.0361 O   0  0  0  0  0  0  0  0  0  0  0  0
   33.3444   -6.1286  -14.9269 C   0  0  0  0  0  0  0  0  0  0  0  0
   33.9978   -4.9811  -14.4624 C   0  0  0  0  0  0  0  0  0  0  0  0
   31.8884  -14.4028  -20.0371 N   0  0  0  0  0  0  0  0  0  0  0  0
   32.7852  -13.4213  -20.6075 C   0  0  0  0  0  0  0  0  0  0  0  0
   33.5035  -13.7771  -21.5482 O   0  0  0  0  0  0  0  0  0  0  0  0
   32.8153  -12.0710  -20.0688 C   0  0  0  0  0  0  0  0  0  0  0  0
   33.6828  -12.0212  -18.8175 C   0  0  2  0  0  0  0  0  0  0  0  0
   33.8470  -10.5886  -18.4554 N   0  0  0  0  0  0  0  0  0  0  0  0
   35.0170  -12.5235  -19.1844 C   0  0  0  0  0  0  0  0  0  0  0  0
   35.9842  -11.8226  -19.5663 O   0  0  0  0  0  0  0  0  0  0  0  0
   35.2830  -13.9048  -19.1155 O   0  0  0  0  0  0  0  0  0  0  0  0
  2  1  1  6
  2  3  1  0
  3  4  1  0
  4  9  1  0
  4  5  2  0
  5  6  1  0
  7  6  2  0
  8  7  1  0
  9  8  2  0
 10  2  1  0
 11 10  2  0
 13 12  1  0
 13 23  2  0
 14 13  1  0
 15 14  2  0
 15 16  1  0
 16 22  2  0
 17 16  1  0
 18 19  1  0
 18 17  1  1
 19 10  1  0
 20 18  1  0
 21 20  2  0
 22 23  1  0
 24 25  1  0
 25 26  2  0
 28 27  1  6
 27 25  1  0
 28 29  1  0
 29 20  1  0
 30 32  1  0
 30 28  1  0
 31 30  2  0
M  END
$$$$
