FYN.pdb
     RDKit          3D

 32 33  0  0  1  0  0  0  0  0999 V2000
   26.8396  -18.6036   -8.6616 N   0  0  0  0  0  0  0  0  0  0  0  0
   26.7870  -20.0077   -8.9243 C   0  0  1  0  0  0  0  0  0  0  0  0
   26.3813  -20.8126   -7.7042 C   0  0  0  0  0  0  0  0  0  0  0  0
   27.3313  -20.5518   -6.5926 C   0  0  0  0  0  0  0  0  0  0  0  0
   28.6973  -20.5558   -6.7856 C   0  0  0  0  0  0  0  0  0  0  0  0
   29.5689  -20.3161   -5.7717 C   0  0  0  0  0  0  0  0  0  0  0  0
   29.1039  -20.0580   -4.5013 C   0  0  0  0  0  0  0  0  0  0  0  0
   27.7604  -20.0450   -4.2694 C   0  0  0  0  0  0  0  0  0  0  0  0
   26.8850  -20.2889   -5.3022 C   0  0  0  0  0  0  0  0  0  0  0  0
   25.7940  -20.2150  -10.0347 C   0  0  0  0  0  0  0  0  0  0  0  0
   24.6661  -19.6775   -9.8869 O   0  0  0  0  0  0  0  0  0  0  0  0
   29.0052  -16.6797  -16.0874 O   0  0  0  0  0  0  0  0  0  0  0  0
   28.3693  -17.7492  -15.4604 C   0  0  0  0  0  0  0  0  0  0  0  0
   27.0224  -17.7107  -15.2390 C   0  0  0  0  0  0  0  0  0  0  0  0
   26.3908  -18.7474  -14.6281 C   0  0  0  0  0  0  0  0  0  0  0  0
   27.0534  -19.9042  -14.1900 C   0  0  0  0  0  0  0  0  0  0  0  0
   26.3987  -20.9878  -13.5021 C   0  0  0  0  0  0  0  0  0  0  0  0
   25.3854  -20.7423  -12.4679 C   0  0  2  0  0  0  0  0  0  0  0  0
   26.1018  -20.9688  -11.1828 N   0  0  0  0  0  0  0  0  0  0  0  0
   24.2379  -21.6519  -12.4617 C   0  0  0  0  0  0  0  0  0  0  0  0
   24.2151  -22.6539  -11.6824 O   0  0  0  0  0  0  0  0  0  0  0  0
   28.4085  -19.9287  -14.4202 C   0  0  0  0  0  0  0  0  0  0  0  0
   29.0665  -18.8648  -15.0485 C   0  0  0  0  0  0  0  0  0  0  0  0
   19.0921  -21.3414  -10.7405 N   0  0  0  0  0  0  0  0  0  0  0  0
   20.1054  -22.2069  -11.3037 C   0  0  0  0  0  0  0  0  0  0  0  0
   19.8078  -23.3909  -11.4958 O   0  0  0  0  0  0  0  0  0  0  0  0
   21.4188  -21.6699  -11.6214 C   0  0  0  0  0  0  0  0  0  0  0  0
   21.8573  -22.1320  -13.0052 C   0  0  2  0  0  0  0  0  0  0  0  0
   23.1263  -21.4247  -13.3211 N   0  0  0  0  0  0  0  0  0  0  0  0
   20.8524  -21.6553  -13.9694 C   0  0  0  0  0  0  0  0  0  0  0  0
   20.9429  -20.6191  -14.6700 O   0  0  0  0  0  0  0  0  0  0  0  0
   19.6680  -22.3929  -14.1611 O   0  0  0  0  0  0  0  0  0  0  0  0
  2  1  1  1
  2  3  1  0
  3  4  1  0
  4  9  1  0
  4  5  2  0
  5  6  1  0
  7  6  2  0
  8  7  1  0
  9  8  2  0
 10  2  1  0
 11 10  2  0
 13 12  1  0
 13 23  2  0
 14 13  1  0
 15 14  2  0
 15 16  1  0
 16 22  2  0
 17 16  1  0
 18 19  1  0
 18 17  1  6
 19 10  1  0
 20 18  1  0
 21 20  2  0
 22 23  1  0
 24 25  1  0
 25 26  2  0
 28 27  1  1
 27 25  1  0
 28 29  1  0
 29 20  1  0
 30 32  1  0
 30 28  1  0
 31 30  2  0
M  END
$$$$
