FYN.pdb
     RDKit          3D

 32 33  0  0  1  0  0  0  0  0999 V2000
   24.1359   -3.5951  -20.2843 N   0  0  0  0  0  0  0  0  0  0  0  0
   23.4568   -3.7293  -19.0337 C   0  0  1  0  0  0  0  0  0  0  0  0
   22.0546   -3.1517  -19.0686 C   0  0  0  0  0  0  0  0  0  0  0  0
   22.1227   -1.6806  -19.2609 C   0  0  0  0  0  0  0  0  0  0  0  0
   21.9871   -1.1015  -20.5057 C   0  0  0  0  0  0  0  0  0  0  0  0
   22.0471    0.2437  -20.6850 C   0  0  0  0  0  0  0  0  0  0  0  0
   22.2483    1.0803  -19.6097 C   0  0  0  0  0  0  0  0  0  0  0  0
   22.3870    0.5469  -18.3625 C   0  0  0  0  0  0  0  0  0  0  0  0
   22.3250   -0.8165  -18.1904 C   0  0  0  0  0  0  0  0  0  0  0  0
   23.4039   -5.1976  -18.7123 C   0  0  0  0  0  0  0  0  0  0  0  0
   23.0037   -5.9593  -19.6302 O   0  0  0  0  0  0  0  0  0  0  0  0
   26.7422  -12.6978  -15.2751 O   0  0  0  0  0  0  0  0  0  0  0  0
   26.3105  -11.4104  -15.5877 C   0  0  0  0  0  0  0  0  0  0  0  0
   26.7260  -10.8101  -16.7417 C   0  0  0  0  0  0  0  0  0  0  0  0
   26.3122   -9.5547  -17.0573 C   0  0  0  0  0  0  0  0  0  0  0  0
   25.4512   -8.7994  -16.2465 C   0  0  0  0  0  0  0  0  0  0  0  0
   25.0435   -7.4517  -16.5521 C   0  0  0  0  0  0  0  0  0  0  0  0
   23.7410   -7.1621  -17.1655 C   0  0  2  0  0  0  0  0  0  0  0  0
   23.7808   -5.7022  -17.4535 N   0  0  0  0  0  0  0  0  0  0  0  0
   22.5671   -7.3794  -16.3176 C   0  0  0  0  0  0  0  0  0  0  0  0
   22.2744   -6.5526  -15.3997 O   0  0  0  0  0  0  0  0  0  0  0  0
   25.0411   -9.4171  -15.0887 C   0  0  0  0  0  0  0  0  0  0  0  0
   25.4631  -10.7097  -14.7562 C   0  0  0  0  0  0  0  0  0  0  0  0
   17.3443   -7.2645  -15.0891 N   0  0  0  0  0  0  0  0  0  0  0  0
   18.1641   -8.3952  -15.4665 C   0  0  0  0  0  0  0  0  0  0  0  0
   17.8249   -9.5120  -15.0603 O   0  0  0  0  0  0  0  0  0  0  0  0
   19.3403   -8.1897  -16.2964 C   0  0  0  0  0  0  0  0  0  0  0  0
   20.5866   -8.6931  -15.5795 C   0  0  2  0  0  0  0  0  0  0  0  0
   21.7305   -8.5143  -16.5123 N   0  0  0  0  0  0  0  0  0  0  0  0
   20.4249  -10.1421  -15.3766 C   0  0  0  0  0  0  0  0  0  0  0  0
   20.6644  -11.0322  -16.2268 O   0  0  0  0  0  0  0  0  0  0  0  0
   19.9656  -10.6233  -14.1352 O   0  0  0  0  0  0  0  0  0  0  0  0
  2  1  1  6
  2  3  1  0
  3  4  1  0
  4  9  1  0
  4  5  2  0
  5  6  1  0
  7  6  2  0
  8  7  1  0
  9  8  2  0
 10  2  1  0
 11 10  2  0
 13 12  1  0
 13 23  2  0
 14 13  1  0
 15 14  2  0
 15 16  1  0
 16 22  2  0
 17 16  1  0
 18 19  1  0
 18 17  1  1
 19 10  1  0
 20 18  1  0
 21 20  2  0
 22 23  1  0
 24 25  1  0
 25 26  2  0
 28 27  1  6
 27 25  1  0
 28 29  1  0
 29 20  1  0
 30 32  1  0
 30 28  1  0
 31 30  2  0
M  END
$$$$
