FYN.pdb
     RDKit          3D

 32 33  0  0  1  0  0  0  0  0999 V2000
   14.6263  -11.3985  -13.8424 N   0  0  0  0  0  0  0  0  0  0  0  0
   15.7940  -10.6979  -13.4076 C   0  0  1  0  0  0  0  0  0  0  0  0
   16.7872  -10.4699  -14.5312 C   0  0  0  0  0  0  0  0  0  0  0  0
   17.2858  -11.7759  -15.0329 C   0  0  0  0  0  0  0  0  0  0  0  0
   16.9597  -12.2468  -16.2880 C   0  0  0  0  0  0  0  0  0  0  0  0
   17.4152  -13.4400  -16.7506 C   0  0  0  0  0  0  0  0  0  0  0  0
   18.2295  -14.2254  -15.9653 C   0  0  0  0  0  0  0  0  0  0  0  0
   18.5749  -13.7953  -14.7184 C   0  0  0  0  0  0  0  0  0  0  0  0
   18.1088  -12.5856  -14.2580 C   0  0  0  0  0  0  0  0  0  0  0  0
   15.3375   -9.3801  -12.8449 C   0  0  0  0  0  0  0  0  0  0  0  0
   14.2929   -8.8878  -13.3443 O   0  0  0  0  0  0  0  0  0  0  0  0
   10.7534   -9.2570   -7.1134 O   0  0  0  0  0  0  0  0  0  0  0  0
   11.9339   -8.8908   -7.7564 C   0  0  0  0  0  0  0  0  0  0  0  0
   12.2714   -7.5725   -7.8697 C   0  0  0  0  0  0  0  0  0  0  0  0
   13.4200   -7.2027   -8.4950 C   0  0  0  0  0  0  0  0  0  0  0  0
   14.3223   -8.1192   -9.0564 C   0  0  0  0  0  0  0  0  0  0  0  0
   15.5192   -7.7333   -9.7595 C   0  0  0  0  0  0  0  0  0  0  0  0
   15.5124   -7.4712  -11.2044 C   0  0  2  0  0  0  0  0  0  0  0  0
   16.0358   -8.7246  -11.8133 N   0  0  0  0  0  0  0  0  0  0  0  0
   16.3900   -6.3945  -11.6679 C   0  0  0  0  0  0  0  0  0  0  0  0
   17.6503   -6.5479  -11.6710 O   0  0  0  0  0  0  0  0  0  0  0  0
   13.9693   -9.4423   -8.9340 C   0  0  0  0  0  0  0  0  0  0  0  0
   12.7879   -9.8313   -8.2917 C   0  0  0  0  0  0  0  0  0  0  0  0
   19.7936   -3.8160  -14.1763 N   0  0  0  0  0  0  0  0  0  0  0  0
   18.3773   -3.7622  -14.4668 C   0  0  0  0  0  0  0  0  0  0  0  0
   17.9802   -2.8734  -15.2281 O   0  0  0  0  0  0  0  0  0  0  0  0
   17.4795   -4.7361  -13.8669 C   0  0  0  0  0  0  0  0  0  0  0  0
   16.7980   -4.1409  -12.6413 C   0  0  2  0  0  0  0  0  0  0  0  0
   15.8468   -5.1628  -12.1299 N   0  0  0  0  0  0  0  0  0  0  0  0
   15.9906   -2.9972  -13.0964 C   0  0  0  0  0  0  0  0  0  0  0  0
   14.7493   -3.0015  -13.2748 O   0  0  0  0  0  0  0  0  0  0  0  0
   16.6191   -1.7662  -13.3667 O   0  0  0  0  0  0  0  0  0  0  0  0
  2  1  1  6
  2  3  1  0
  3  4  1  0
  4  9  1  0
  4  5  2  0
  5  6  1  0
  7  6  2  0
  8  7  1  0
  9  8  2  0
 10  2  1  0
 11 10  2  0
 13 12  1  0
 13 23  2  0
 14 13  1  0
 15 14  2  0
 15 16  1  0
 16 22  2  0
 17 16  1  0
 18 19  1  0
 18 17  1  1
 19 10  1  0
 20 18  1  0
 21 20  2  0
 22 23  1  0
 24 25  1  0
 25 26  2  0
 28 27  1  6
 27 25  1  0
 28 29  1  0
 29 20  1  0
 30 32  1  0
 30 28  1  0
 31 30  2  0
M  END
$$$$
