FYN.pdb
     RDKit          3D

 32 33  0  0  1  0  0  0  0  0999 V2000
   19.1143  -14.4607  -22.6635 N   0  0  0  0  0  0  0  0  0  0  0  0
   17.9436  -15.0844  -22.1308 C   0  0  1  0  0  0  0  0  0  0  0  0
   17.2349  -15.9566  -23.1497 C   0  0  0  0  0  0  0  0  0  0  0  0
   16.6188  -15.1039  -24.1981 C   0  0  0  0  0  0  0  0  0  0  0  0
   17.1394  -15.0268  -25.4734 C   0  0  0  0  0  0  0  0  0  0  0  0
   16.5776  -14.2493  -26.4352 C   0  0  0  0  0  0  0  0  0  0  0  0
   15.4531  -13.5040  -26.1580 C   0  0  0  0  0  0  0  0  0  0  0  0
   14.9079  -13.5529  -24.9092 C   0  0  0  0  0  0  0  0  0  0  0  0
   15.4837  -14.3430  -23.9414 C   0  0  0  0  0  0  0  0  0  0  0  0
   18.3783  -15.9129  -20.9533 C   0  0  0  0  0  0  0  0  0  0  0  0
   19.4909  -16.4916  -21.0541 O   0  0  0  0  0  0  0  0  0  0  0  0
   19.8620  -17.4027  -12.3467 O   0  0  0  0  0  0  0  0  0  0  0  0
   19.4713  -17.0419  -13.6345 C   0  0  0  0  0  0  0  0  0  0  0  0
   20.4129  -16.8028  -14.5941 C   0  0  0  0  0  0  0  0  0  0  0  0
   20.0444  -16.4499  -15.8537 C   0  0  0  0  0  0  0  0  0  0  0  0
   18.7072  -16.3079  -16.2550 C   0  0  0  0  0  0  0  0  0  0  0  0
   18.3095  -15.8911  -17.5756 C   0  0  0  0  0  0  0  0  0  0  0  0
   18.0401  -16.8648  -18.6414 C   0  0  2  0  0  0  0  0  0  0  0  0
   17.5886  -16.0396  -19.7951 N   0  0  0  0  0  0  0  0  0  0  0  0
   16.9656  -17.8247  -18.3803 C   0  0  0  0  0  0  0  0  0  0  0  0
   15.7528  -17.4492  -18.3823 O   0  0  0  0  0  0  0  0  0  0  0  0
   17.7710  -16.5523  -15.2785 C   0  0  0  0  0  0  0  0  0  0  0  0
   18.1424  -16.9159  -13.9787 C   0  0  0  0  0  0  0  0  0  0  0  0
   15.1074  -22.5579  -17.5116 N   0  0  0  0  0  0  0  0  0  0  0  0
   16.0998  -22.2188  -16.5150 C   0  0  0  0  0  0  0  0  0  0  0  0
   16.4234  -23.0944  -15.7050 O   0  0  0  0  0  0  0  0  0  0  0  0
   16.6769  -20.8843  -16.4952 C   0  0  0  0  0  0  0  0  0  0  0  0
   16.1467  -20.0626  -17.6633 C   0  0  2  0  0  0  0  0  0  0  0  0
   17.2602  -19.1942  -18.1287 N   0  0  0  0  0  0  0  0  0  0  0  0
   15.1014  -19.1696  -17.1371 C   0  0  0  0  0  0  0  0  0  0  0  0
   13.8691  -19.2852  -17.3392 O   0  0  0  0  0  0  0  0  0  0  0  0
   15.4644  -18.0754  -16.3282 O   0  0  0  0  0  0  0  0  0  0  0  0
  2  1  1  6
  2  3  1  0
  3  4  1  0
  4  9  1  0
  4  5  2  0
  5  6  1  0
  7  6  2  0
  8  7  1  0
  9  8  2  0
 10  2  1  0
 11 10  2  0
 13 12  1  0
 13 23  2  0
 14 13  1  0
 15 14  2  0
 15 16  1  0
 16 22  2  0
 17 16  1  0
 18 19  1  0
 18 17  1  1
 19 10  1  0
 20 18  1  0
 21 20  2  0
 22 23  1  0
 24 25  1  0
 25 26  2  0
 28 27  1  1
 27 25  1  0
 28 29  1  0
 29 20  1  0
 30 32  1  0
 30 28  1  0
 31 30  2  0
M  END
$$$$
