FYN.pdb
     RDKit          3D

 32 33  0  0  1  0  0  0  0  0999 V2000
   28.0064  -29.0017  -19.1308 N   0  0  0  0  0  0  0  0  0  0  0  0
   28.5487  -29.3642  -17.8589 C   0  0  1  0  0  0  0  0  0  0  0  0
   27.4730  -29.6410  -16.8258 C   0  0  0  0  0  0  0  0  0  0  0  0
   26.6139  -28.4405  -16.6620 C   0  0  0  0  0  0  0  0  0  0  0  0
   25.2424  -28.5021  -16.7973 C   0  0  0  0  0  0  0  0  0  0  0  0
   24.4535  -27.4066  -16.6464 C   0  0  0  0  0  0  0  0  0  0  0  0
   25.0118  -26.1833  -16.3490 C   0  0  0  0  0  0  0  0  0  0  0  0
   26.3640  -26.0807  -16.2070 C   0  0  0  0  0  0  0  0  0  0  0  0
   27.1551  -27.1954  -16.3617 C   0  0  0  0  0  0  0  0  0  0  0  0
   29.3924  -30.5913  -18.0692 C   0  0  0  0  0  0  0  0  0  0  0  0
   29.2856  -31.1617  -19.1855 O   0  0  0  0  0  0  0  0  0  0  0  0
   35.4166  -29.2392  -21.1604 O   0  0  0  0  0  0  0  0  0  0  0  0
   34.6997  -29.8653  -20.1429 C   0  0  0  0  0  0  0  0  0  0  0  0
   34.7278  -31.2252  -20.0222 C   0  0  0  0  0  0  0  0  0  0  0  0
   34.0324  -31.8476  -19.0342 C   0  0  0  0  0  0  0  0  0  0  0  0
   33.2544  -31.1619  -18.0887 C   0  0  0  0  0  0  0  0  0  0  0  0
   32.4792  -31.8169  -17.0660 C   0  0  0  0  0  0  0  0  0  0  0  0
   31.1088  -32.2809  -17.3176 C   0  0  2  0  0  0  0  0  0  0  0  0
   30.2591  -31.0830  -17.0750 N   0  0  0  0  0  0  0  0  0  0  0  0
   30.6077  -33.3253  -16.4219 C   0  0  0  0  0  0  0  0  0  0  0  0
   30.3239  -33.0556  -15.2142 O   0  0  0  0  0  0  0  0  0  0  0  0
   33.2365  -29.7938  -18.2226 C   0  0  0  0  0  0  0  0  0  0  0  0
   33.9496  -29.1453  -19.2377 C   0  0  0  0  0  0  0  0  0  0  0  0
   27.7011  -35.9987  -13.3508 N   0  0  0  0  0  0  0  0  0  0  0  0
   27.8106  -36.2423  -14.7727 C   0  0  0  0  0  0  0  0  0  0  0  0
   27.3536  -37.3037  -15.2108 O   0  0  0  0  0  0  0  0  0  0  0  0
   28.4424  -35.2512  -15.6288 C   0  0  0  0  0  0  0  0  0  0  0  0
   29.8805  -35.6538  -15.9300 C   0  0  2  0  0  0  0  0  0  0  0  0
   30.4222  -34.6564  -16.8904 N   0  0  0  0  0  0  0  0  0  0  0  0
   29.8393  -36.9454  -16.6351 C   0  0  0  0  0  0  0  0  0  0  0  0
   30.2934  -38.0313  -16.2022 O   0  0  0  0  0  0  0  0  0  0  0  0
   29.2465  -37.0227  -17.9103 O   0  0  0  0  0  0  0  0  0  0  0  0
  2  1  1  6
  2  3  1  0
  3  4  1  0
  4  9  1  0
  4  5  2  0
  5  6  1  0
  7  6  2  0
  8  7  1  0
  9  8  2  0
 10  2  1  0
 11 10  2  0
 13 12  1  0
 13 23  2  0
 14 13  1  0
 15 14  2  0
 15 16  1  0
 16 22  2  0
 17 16  1  0
 18 19  1  0
 18 17  1  1
 19 10  1  0
 20 18  1  0
 21 20  2  0
 22 23  1  0
 24 25  1  0
 25 26  2  0
 28 27  1  6
 27 25  1  0
 28 29  1  0
 29 20  1  0
 30 32  1  0
 30 28  1  0
 31 30  2  0
M  END
$$$$
