FYN.pdb
     RDKit          3D

 32 33  0  0  1  0  0  0  0  0999 V2000
   24.3532  -34.4329  -13.2560 N   0  0  0  0  0  0  0  0  0  0  0  0
   24.0159  -33.4344  -12.2904 C   0  0  1  0  0  0  0  0  0  0  0  0
   22.5313  -33.1237  -12.2698 C   0  0  0  0  0  0  0  0  0  0  0  0
   22.1263  -32.5233  -13.5665 C   0  0  0  0  0  0  0  0  0  0  0  0
   22.4735  -31.2336  -13.9122 C   0  0  0  0  0  0  0  0  0  0  0  0
   22.1063  -30.6819  -15.0980 C   0  0  0  0  0  0  0  0  0  0  0  0
   21.3644  -31.4082  -16.0028 C   0  0  0  0  0  0  0  0  0  0  0  0
   21.0012  -32.6867  -15.6985 C   0  0  0  0  0  0  0  0  0  0  0  0
   21.3774  -33.2373  -14.4953 C   0  0  0  0  0  0  0  0  0  0  0  0
   24.4558  -33.9487  -10.9473 C   0  0  0  0  0  0  0  0  0  0  0  0
   24.4939  -35.1987  -10.8097 O   0  0  0  0  0  0  0  0  0  0  0  0
   28.5609  -32.9563   -2.9357 O   0  0  0  0  0  0  0  0  0  0  0  0
   27.9576  -32.8707   -4.1887 C   0  0  0  0  0  0  0  0  0  0  0  0
   28.4203  -33.6302   -5.2249 C   0  0  0  0  0  0  0  0  0  0  0  0
   27.8404  -33.5553   -6.4517 C   0  0  0  0  0  0  0  0  0  0  0  0
   26.7531  -32.7166   -6.7412 C   0  0  0  0  0  0  0  0  0  0  0  0
   26.1615  -32.5986   -8.0496 C   0  0  0  0  0  0  0  0  0  0  0  0
   25.2416  -33.6167   -8.5730 C   0  0  2  0  0  0  0  0  0  0  0  0
   24.8086  -33.0844   -9.8939 N   0  0  0  0  0  0  0  0  0  0  0  0
   24.0175  -33.8370   -7.8002 C   0  0  0  0  0  0  0  0  0  0  0  0
   23.0315  -33.0457   -7.9171 O   0  0  0  0  0  0  0  0  0  0  0  0
   26.2982  -31.9588   -5.6882 C   0  0  0  0  0  0  0  0  0  0  0  0
   26.8902  -32.0300   -4.4217 C   0  0  0  0  0  0  0  0  0  0  0  0
   19.8225  -37.0957   -5.9596 N   0  0  0  0  0  0  0  0  0  0  0  0
   21.0679  -36.7373   -5.3165 C   0  0  0  0  0  0  0  0  0  0  0  0
   21.0655  -36.6154   -4.0867 O   0  0  0  0  0  0  0  0  0  0  0  0
   22.2633  -36.5349   -6.1193 C   0  0  0  0  0  0  0  0  0  0  0  0
   22.6602  -35.0641   -6.1135 C   0  0  2  0  0  0  0  0  0  0  0  0
   23.9082  -34.9443   -6.9126 N   0  0  0  0  0  0  0  0  0  0  0  0
   23.0051  -34.7049   -4.7283 C   0  0  0  0  0  0  0  0  0  0  0  0
   24.0324  -35.0727   -4.1101 O   0  0  0  0  0  0  0  0  0  0  0  0
   22.1397  -33.8754   -3.9890 O   0  0  0  0  0  0  0  0  0  0  0  0
  2  1  1  6
  2  3  1  0
  3  4  1  0
  4  9  1  0
  4  5  2  0
  5  6  1  0
  7  6  2  0
  8  7  1  0
  9  8  2  0
 10  2  1  0
 11 10  2  0
 13 12  1  0
 13 23  2  0
 14 13  1  0
 15 14  2  0
 15 16  1  0
 16 22  2  0
 17 16  1  0
 18 19  1  0
 18 17  1  1
 19 10  1  0
 20 18  1  0
 21 20  2  0
 22 23  1  0
 24 25  1  0
 25 26  2  0
 28 27  1  1
 27 25  1  0
 28 29  1  0
 29 20  1  0
 30 32  1  0
 30 28  1  0
 31 30  2  0
M  END
$$$$
