FYN.pdb
     RDKit          3D

 32 33  0  0  1  0  0  0  0  0999 V2000
   26.4615  -18.7196   -7.6485 N   0  0  0  0  0  0  0  0  0  0  0  0
   27.0363  -19.9393   -8.1231 C   0  0  1  0  0  0  0  0  0  0  0  0
   27.0008  -21.0423   -7.0823 C   0  0  0  0  0  0  0  0  0  0  0  0
   27.9186  -20.7065   -5.9639 C   0  0  0  0  0  0  0  0  0  0  0  0
   29.2767  -20.5575   -6.1556 C   0  0  0  0  0  0  0  0  0  0  0  0
   30.1187  -20.2487   -5.1354 C   0  0  0  0  0  0  0  0  0  0  0  0
   29.6305  -20.0729   -3.8597 C   0  0  0  0  0  0  0  0  0  0  0  0
   28.2938  -20.2114   -3.6289 C   0  0  0  0  0  0  0  0  0  0  0  0
   27.4485  -20.5243   -4.6680 C   0  0  0  0  0  0  0  0  0  0  0  0
   26.2579  -20.3525   -9.3419 C   0  0  0  0  0  0  0  0  0  0  0  0
   25.0086  -20.4250   -9.2123 O   0  0  0  0  0  0  0  0  0  0  0  0
   27.0607  -18.3818  -18.1081 O   0  0  0  0  0  0  0  0  0  0  0  0
   27.1965  -18.7526  -16.7719 C   0  0  0  0  0  0  0  0  0  0  0  0
   27.2153  -20.0735  -16.4264 C   0  0  0  0  0  0  0  0  0  0  0  0
   27.3469  -20.4478  -15.1265 C   0  0  0  0  0  0  0  0  0  0  0  0
   27.4701  -19.5334  -14.0692 C   0  0  0  0  0  0  0  0  0  0  0  0
   27.5653  -19.9212  -12.6848 C   0  0  0  0  0  0  0  0  0  0  0  0
   26.3698  -20.0888  -11.8485 C   0  0  2  0  0  0  0  0  0  0  0  0
   26.8858  -20.6442  -10.5674 N   0  0  0  0  0  0  0  0  0  0  0  0
   25.3720  -21.0436  -12.3353 C   0  0  0  0  0  0  0  0  0  0  0  0
   25.1422  -22.1162  -11.6960 O   0  0  0  0  0  0  0  0  0  0  0  0
   27.4501  -18.2077  -14.4326 C   0  0  0  0  0  0  0  0  0  0  0  0
   27.3146  -17.8141  -15.7691 C   0  0  0  0  0  0  0  0  0  0  0  0
   20.4891  -22.2823  -11.7914 N   0  0  0  0  0  0  0  0  0  0  0  0
   21.0506  -21.3392  -12.7339 C   0  0  0  0  0  0  0  0  0  0  0  0
   20.3316  -20.9594  -13.6645 O   0  0  0  0  0  0  0  0  0  0  0  0
   22.4177  -20.8742  -12.5627 C   0  0  0  0  0  0  0  0  0  0  0  0
   23.3064  -21.4297  -13.6684 C   0  0  2  0  0  0  0  0  0  0  0  0
   24.6377  -20.7830  -13.5263 N   0  0  0  0  0  0  0  0  0  0  0  0
   22.7481  -20.9776  -14.9532 C   0  0  0  0  0  0  0  0  0  0  0  0
   21.8241  -21.5389  -15.5887 O   0  0  0  0  0  0  0  0  0  0  0  0
   23.2603  -19.8163  -15.5637 O   0  0  0  0  0  0  0  0  0  0  0  0
  2  1  1  1
  2  3  1  0
  3  4  1  0
  4  9  1  0
  4  5  2  0
  5  6  1  0
  7  6  2  0
  8  7  1  0
  9  8  2  0
 10  2  1  0
 11 10  2  0
 13 12  1  0
 13 23  2  0
 14 13  1  0
 15 14  2  0
 15 16  1  0
 16 22  2  0
 17 16  1  0
 18 19  1  0
 18 17  1  6
 19 10  1  0
 20 18  1  0
 21 20  2  0
 22 23  1  0
 24 25  1  0
 25 26  2  0
 28 27  1  1
 27 25  1  0
 28 29  1  0
 29 20  1  0
 30 32  1  0
 30 28  1  0
 31 30  2  0
M  END
$$$$
