GYV.pdb
     RDKit          3D

 24 24  0  0  1  0  0  0  0  0999 V2000
   13.0243  -16.0127    6.2431 N   0  0  0  0  0  0  0  0  0  0  0  0
   14.2678  -15.3534    5.9915 C   0  0  0  0  0  0  0  0  0  0  0  0
   15.4369  -16.2742    6.2195 C   0  0  0  0  0  0  0  0  0  0  0  0
   15.2719  -17.3672    6.8184 O   0  0  0  0  0  0  0  0  0  0  0  0
   15.5803  -20.6104    1.2149 O   0  0  0  0  0  0  0  0  0  0  0  0
   16.3029  -19.7557    2.0358 C   0  0  0  0  0  0  0  0  0  0  0  0
   17.2167  -20.3069    2.9380 C   0  0  0  0  0  0  0  0  0  0  0  0
   17.9253  -19.4287    3.7463 C   0  0  0  0  0  0  0  0  0  0  0  0
   17.7618  -18.0672    3.6900 C   0  0  0  0  0  0  0  0  0  0  0  0
   18.5105  -17.1269    4.5431 C   0  0  0  0  0  0  0  0  0  0  0  0
   17.8704  -16.8637    5.8766 C   0  0  2  0  0  0  0  0  0  0  0  0
   16.7424  -15.9609    5.7818 N   0  0  0  0  0  0  0  0  0  0  0  0
   18.8744  -16.3559    6.8657 C   0  0  0  0  0  0  0  0  0  0  0  0
   19.3133  -15.1808    6.8259 O   0  0  0  0  0  0  0  0  0  0  0  0
   16.8461  -17.5805    2.7804 C   0  0  0  0  0  0  0  0  0  0  0  0
   16.1147  -18.3970    1.9536 C   0  0  0  0  0  0  0  0  0  0  0  0
   20.0504  -18.6091   10.3748 C   0  0  0  0  0  0  0  0  0  0  0  0
   20.0098  -17.1039   10.2775 C   0  0  2  0  0  0  0  0  0  0  0  0
   18.6263  -16.6506   10.6865 C   0  0  0  0  0  0  0  0  0  0  0  0
   20.3484  -16.6962    8.8585 C   0  0  2  0  0  0  0  0  0  0  0  0
   19.3857  -17.1933    7.9126 N   0  0  0  0  0  0  0  0  0  0  0  0
   21.7397  -17.0937    8.4925 C   0  0  0  0  0  0  0  0  0  0  0  0
   22.8054  -16.3865    9.0266 O   0  0  0  0  0  0  0  0  0  0  0  0
   21.9796  -18.0492    7.7153 O   0  0  0  0  0  0  0  0  0  0  0  0
  2  1  1  0
  3  2  1  0
  4  3  2  0
  5  6  1  0
  6 16  2  0
  7  6  1  0
  7  8  2  0
  8  9  1  0
  9 15  2  0
  9 10  1  0
 11 10  1  6
 11 13  1  0
 11 12  1  0
 12  3  1  0
 13 21  1  0
 14 13  2  0
 16 15  1  0
 18 20  1  0
 18 17  1  6
 19 18  1  0
 20 22  1  0
 20 21  1  6
 22 24  2  0
 22 23  1  0
M  END
$$$$
