GYV.pdb
     RDKit          3D

 24 24  0  0  1  0  0  0  0  0999 V2000
   21.4215  -22.1416   -6.8702 N   0  0  0  0  0  0  0  0  0  0  0  0
   22.7484  -22.3943   -7.3390 C   0  0  0  0  0  0  0  0  0  0  0  0
   23.1436  -21.4289   -8.4247 C   0  0  0  0  0  0  0  0  0  0  0  0
   22.3577  -20.5100   -8.7687 O   0  0  0  0  0  0  0  0  0  0  0  0
   28.6463  -18.9083   -5.2355 O   0  0  0  0  0  0  0  0  0  0  0  0
   28.0779  -19.2894   -6.4430 C   0  0  0  0  0  0  0  0  0  0  0  0
   28.2442  -20.6079   -6.8752 C   0  0  0  0  0  0  0  0  0  0  0  0
   27.6649  -20.9610   -8.0862 C   0  0  0  0  0  0  0  0  0  0  0  0
   26.9502  -20.0778   -8.8561 C   0  0  0  0  0  0  0  0  0  0  0  0
   26.3306  -20.4439  -10.1423 C   0  0  0  0  0  0  0  0  0  0  0  0
   24.8338  -20.5625  -10.0918 C   0  0  2  0  0  0  0  0  0  0  0  0
   24.3858  -21.5086   -9.0914 N   0  0  0  0  0  0  0  0  0  0  0  0
   24.2747  -20.9093  -11.4377 C   0  0  0  0  0  0  0  0  0  0  0  0
   24.3722  -22.0629  -11.9225 O   0  0  0  0  0  0  0  0  0  0  0  0
   26.8193  -18.7902   -8.3789 C   0  0  0  0  0  0  0  0  0  0  0  0
   27.3683  -18.3795   -7.1893 C   0  0  0  0  0  0  0  0  0  0  0  0
   20.4218  -20.2482  -12.8593 C   0  0  0  0  0  0  0  0  0  0  0  0
   21.5553  -19.5054  -13.5227 C   0  0  2  0  0  0  0  0  0  0  0  0
   21.1747  -19.2749  -14.9680 C   0  0  0  0  0  0  0  0  0  0  0  0
   22.8219  -20.3253  -13.3891 C   0  0  2  0  0  0  0  0  0  0  0  0
   23.5966  -19.9339  -12.2423 N   0  0  0  0  0  0  0  0  0  0  0  0
   23.6317  -20.2889  -14.6424 C   0  0  0  0  0  0  0  0  0  0  0  0
   24.7414  -19.4606  -14.7041 O   0  0  0  0  0  0  0  0  0  0  0  0
   23.3423  -20.9843  -15.6459 O   0  0  0  0  0  0  0  0  0  0  0  0
  2  1  1  0
  3  2  1  0
  4  3  2  0
  5  6  1  0
  6 16  2  0
  7  6  1  0
  7  8  2  0
  8  9  1  0
  9 15  2  0
  9 10  1  0
 11 10  1  6
 11 13  1  0
 11 12  1  0
 12  3  1  0
 13 21  1  0
 14 13  2  0
 16 15  1  0
 18 20  1  0
 18 17  1  1
 19 18  1  0
 20 22  1  0
 20 21  1  1
 22 24  2  0
 22 23  1  0
M  END
$$$$
