GYV.pdb
     RDKit          3D

 24 24  0  0  1  0  0  0  0  0999 V2000
   20.2295   -8.8078  -18.0347 N   0  0  0  0  0  0  0  0  0  0  0  0
   21.4327   -9.4393  -17.5900 C   0  0  0  0  0  0  0  0  0  0  0  0
   22.6327   -8.5566  -17.8081 C   0  0  0  0  0  0  0  0  0  0  0  0
   22.6170   -7.6822  -18.7113 O   0  0  0  0  0  0  0  0  0  0  0  0
   21.5269   -2.7280  -15.5409 O   0  0  0  0  0  0  0  0  0  0  0  0
   22.4439   -3.7616  -15.6715 C   0  0  0  0  0  0  0  0  0  0  0  0
   23.4456   -3.6502  -16.6394 C   0  0  0  0  0  0  0  0  0  0  0  0
   24.3487   -4.6987  -16.7477 C   0  0  0  0  0  0  0  0  0  0  0  0
   24.2918   -5.8163  -15.9532 C   0  0  0  0  0  0  0  0  0  0  0  0
   25.2469   -6.9338  -16.0600 C   0  0  0  0  0  0  0  0  0  0  0  0
   24.9878   -7.8553  -17.2180 C   0  0  2  0  0  0  0  0  0  0  0  0
   23.8039   -8.6667  -17.0270 N   0  0  0  0  0  0  0  0  0  0  0  0
   26.1810   -8.7162  -17.4994 C   0  0  0  0  0  0  0  0  0  0  0  0
   26.4717   -9.7061  -16.7847 O   0  0  0  0  0  0  0  0  0  0  0  0
   23.2816   -5.8709  -15.0155 C   0  0  0  0  0  0  0  0  0  0  0  0
   22.3581   -4.8669  -14.8594 C   0  0  0  0  0  0  0  0  0  0  0  0
   29.4245  -10.5948  -20.5690 C   0  0  0  0  0  0  0  0  0  0  0  0
   28.1945   -9.7526  -20.3356 C   0  0  2  0  0  0  0  0  0  0  0  0
   28.2437   -8.5853  -21.2958 C   0  0  0  0  0  0  0  0  0  0  0  0
   28.1770   -9.3026  -18.8894 C   0  0  2  0  0  0  0  0  0  0  0  0
   27.0544   -8.4493  -18.6060 N   0  0  0  0  0  0  0  0  0  0  0  0
   29.4689   -8.6650  -18.4992 C   0  0  0  0  0  0  0  0  0  0  0  0
   30.5375   -9.4716  -18.1408 O   0  0  0  0  0  0  0  0  0  0  0  0
   29.6222   -7.4197  -18.4843 O   0  0  0  0  0  0  0  0  0  0  0  0
  2  1  1  0
  3  2  1  0
  4  3  2  0
  5  6  1  0
  6 16  2  0
  7  6  1  0
  7  8  2  0
  8  9  1  0
  9 15  2  0
  9 10  1  0
 11 10  1  1
 11 13  1  0
 11 12  1  0
 12  3  1  0
 13 21  1  0
 14 13  2  0
 16 15  1  0
 18 20  1  0
 18 17  1  1
 19 18  1  0
 20 22  1  0
 20 21  1  6
 22 24  2  0
 22 23  1  0
M  END
$$$$
