GYV.pdb
     RDKit          3D

 24 24  0  0  1  0  0  0  0  0999 V2000
   28.8994  -22.6900  -16.2244 N   0  0  0  0  0  0  0  0  0  0  0  0
   28.3478  -21.4090  -15.9094 C   0  0  0  0  0  0  0  0  0  0  0  0
   27.0850  -21.5358  -15.0994 C   0  0  0  0  0  0  0  0  0  0  0  0
   26.6713  -22.6701  -14.7491 O   0  0  0  0  0  0  0  0  0  0  0  0
   26.6130  -20.7209   -7.6923 O   0  0  0  0  0  0  0  0  0  0  0  0
   26.2223  -20.3791   -8.9795 C   0  0  0  0  0  0  0  0  0  0  0  0
   26.7286  -19.2052   -9.5438 C   0  0  0  0  0  0  0  0  0  0  0  0
   26.3209  -18.8883  -10.8323 C   0  0  0  0  0  0  0  0  0  0  0  0
   25.4563  -19.6723  -11.5543 C   0  0  0  0  0  0  0  0  0  0  0  0
   25.0189  -19.3447  -12.9232 C   0  0  0  0  0  0  0  0  0  0  0  0
   25.1276  -20.4870  -13.8930 C   0  0  2  0  0  0  0  0  0  0  0  0
   26.3244  -20.4135  -14.7047 N   0  0  0  0  0  0  0  0  0  0  0  0
   23.9065  -20.5797  -14.7559 C   0  0  0  0  0  0  0  0  0  0  0  0
   23.7515  -19.8576  -15.7707 O   0  0  0  0  0  0  0  0  0  0  0  0
   24.9892  -20.8188  -10.9460 C   0  0  0  0  0  0  0  0  0  0  0  0
   25.3548  -21.1869   -9.6747 C   0  0  0  0  0  0  0  0  0  0  0  0
   20.0217  -23.0236  -16.4033 C   0  0  0  0  0  0  0  0  0  0  0  0
   21.1976  -23.0110  -15.4580 C   0  0  2  0  0  0  0  0  0  0  0  0
   20.7441  -23.6124  -14.1467 C   0  0  0  0  0  0  0  0  0  0  0  0
   21.6796  -21.5842  -15.2959 C   0  0  2  0  0  0  0  0  0  0  0  0
   22.8490  -21.5038  -14.4624 N   0  0  0  0  0  0  0  0  0  0  0  0
   20.5889  -20.6906  -14.8066 C   0  0  0  0  0  0  0  0  0  0  0  0
   19.6284  -20.2468  -15.7019 O   0  0  0  0  0  0  0  0  0  0  0  0
   20.5105  -20.3256  -13.6086 O   0  0  0  0  0  0  0  0  0  0  0  0
  2  1  1  0
  3  2  1  0
  4  3  2  0
  5  6  1  0
  6 16  2  0
  7  6  1  0
  7  8  2  0
  8  9  1  0
  9 15  2  0
  9 10  1  0
 11 10  1  6
 11 13  1  0
 11 12  1  0
 12  3  1  0
 13 21  1  0
 14 13  2  0
 16 15  1  0
 18 20  1  0
 18 17  1  6
 19 18  1  0
 20 22  1  0
 20 21  1  1
 22 24  2  0
 22 23  1  0
M  END
$$$$
