GYV.pdb
     RDKit          3D

 24 24  0  0  1  0  0  0  0  0999 V2000
   28.7436  -21.4473  -15.1566 N   0  0  0  0  0  0  0  0  0  0  0  0
   28.0507  -20.4599  -14.3889 C   0  0  0  0  0  0  0  0  0  0  0  0
   26.9225  -21.0670  -13.5982 C   0  0  0  0  0  0  0  0  0  0  0  0
   26.4920  -22.2116  -13.8898 O   0  0  0  0  0  0  0  0  0  0  0  0
   29.5187  -20.8279   -7.0533 O   0  0  0  0  0  0  0  0  0  0  0  0
   28.4159  -20.6961   -7.8858 C   0  0  0  0  0  0  0  0  0  0  0  0
   28.3636  -21.4607   -9.0543 C   0  0  0  0  0  0  0  0  0  0  0  0
   27.2491  -21.3086   -9.8678 C   0  0  0  0  0  0  0  0  0  0  0  0
   26.2199  -20.4513   -9.5691 C   0  0  0  0  0  0  0  0  0  0  0  0
   25.0323  -20.2841  -10.4259 C   0  0  0  0  0  0  0  0  0  0  0  0
   25.1658  -20.9019  -11.7888 C   0  0  2  0  0  0  0  0  0  0  0  0
   26.3097  -20.3953  -12.5178 N   0  0  0  0  0  0  0  0  0  0  0  0
   23.9093  -20.7271  -12.5855 C   0  0  0  0  0  0  0  0  0  0  0  0
   23.5727  -19.6165  -13.0635 O   0  0  0  0  0  0  0  0  0  0  0  0
   26.3264  -19.7226   -8.4028 C   0  0  0  0  0  0  0  0  0  0  0  0
   27.4027  -19.8282   -7.5567 C   0  0  0  0  0  0  0  0  0  0  0  0
   20.3258  -22.8432  -15.2088 C   0  0  0  0  0  0  0  0  0  0  0  0
   21.7233  -22.8583  -14.6403 C   0  0  2  0  0  0  0  0  0  0  0  0
   21.9202  -24.1791  -13.9305 C   0  0  0  0  0  0  0  0  0  0  0  0
   21.8839  -21.6776  -13.7052 C   0  0  2  0  0  0  0  0  0  0  0  0
   23.0248  -21.8271  -12.8423 N   0  0  0  0  0  0  0  0  0  0  0  0
   20.6344  -21.4194  -12.9307 C   0  0  0  0  0  0  0  0  0  0  0  0
   19.5296  -20.9001  -13.5870 O   0  0  0  0  0  0  0  0  0  0  0  0
   20.5486  -21.6570  -11.7015 O   0  0  0  0  0  0  0  0  0  0  0  0
  2  1  1  0
  3  2  1  0
  4  3  2  0
  5  6  1  0
  6 16  2  0
  7  6  1  0
  7  8  2  0
  8  9  1  0
  9 15  2  0
  9 10  1  0
 11 10  1  1
 11 13  1  0
 11 12  1  0
 12  3  1  0
 13 21  1  0
 14 13  2  0
 16 15  1  0
 18 20  1  0
 18 17  1  1
 19 18  1  0
 20 22  1  0
 20 21  1  1
 22 24  2  0
 22 23  1  0
M  END
$$$$
