GYV.pdb
     RDKit          3D

 24 24  0  0  1  0  0  0  0  0999 V2000
   28.9259  -22.9401  -17.2777 N   0  0  0  0  0  0  0  0  0  0  0  0
   28.4684  -21.6687  -16.8102 C   0  0  0  0  0  0  0  0  0  0  0  0
   27.4513  -21.8183  -15.7102 C   0  0  0  0  0  0  0  0  0  0  0  0
   26.7884  -22.8812  -15.6041 O   0  0  0  0  0  0  0  0  0  0  0  0
   23.2789  -20.9440   -8.0317 O   0  0  0  0  0  0  0  0  0  0  0  0
   24.0896  -20.7218   -9.1362 C   0  0  0  0  0  0  0  0  0  0  0  0
   25.3749  -21.2702   -9.1448 C   0  0  0  0  0  0  0  0  0  0  0  0
   26.1636  -21.0319  -10.2620 C   0  0  0  0  0  0  0  0  0  0  0  0
   25.7324  -20.2921  -11.3345 C   0  0  0  0  0  0  0  0  0  0  0  0
   26.5619  -20.0350  -12.5253 C   0  0  0  0  0  0  0  0  0  0  0  0
   26.2146  -20.8881  -13.7122 C   0  0  2  0  0  0  0  0  0  0  0  0
   27.2004  -20.7962  -14.7688 N   0  0  0  0  0  0  0  0  0  0  0  0
   24.8485  -20.5591  -14.2314 C   0  0  0  0  0  0  0  0  0  0  0  0
   24.6129  -19.5001  -14.8626 O   0  0  0  0  0  0  0  0  0  0  0  0
   24.4548  -19.7759  -11.2699 C   0  0  0  0  0  0  0  0  0  0  0  0
   23.6264  -19.9761  -10.1934 C   0  0  0  0  0  0  0  0  0  0  0  0
   20.6070  -21.7710  -16.0727 C   0  0  0  0  0  0  0  0  0  0  0  0
   22.0104  -22.1090  -15.6335 C   0  0  2  0  0  0  0  0  0  0  0  0
   22.0091  -23.5380  -15.1386 C   0  0  0  0  0  0  0  0  0  0  0  0
   22.4348  -21.1318  -14.5568 C   0  0  2  0  0  0  0  0  0  0  0  0
   23.7368  -21.4437  -14.0313 N   0  0  0  0  0  0  0  0  0  0  0  0
   21.4112  -21.0312  -13.4752 C   0  0  0  0  0  0  0  0  0  0  0  0
   21.7168  -21.5106  -12.2111 O   0  0  0  0  0  0  0  0  0  0  0  0
   20.2794  -20.5259  -13.6706 O   0  0  0  0  0  0  0  0  0  0  0  0
  2  1  1  0
  3  2  1  0
  4  3  2  0
  5  6  1  0
  6 16  2  0
  7  6  1  0
  7  8  2  0
  8  9  1  0
  9 15  2  0
  9 10  1  0
 11 10  1  1
 11 13  1  0
 11 12  1  0
 12  3  1  0
 13 21  1  0
 14 13  2  0
 16 15  1  0
 18 20  1  0
 18 17  1  1
 19 18  1  0
 20 22  1  0
 20 21  1  1
 22 24  2  0
 22 23  1  0
M  END
$$$$
