GYV.pdb
     RDKit          3D

 24 24  0  0  1  0  0  0  0  0999 V2000
   24.1250  -20.5627  -18.7764 N   0  0  0  0  0  0  0  0  0  0  0  0
   24.4167  -19.3570  -18.0652 C   0  0  0  0  0  0  0  0  0  0  0  0
   23.1845  -18.5111  -17.8840 C   0  0  0  0  0  0  0  0  0  0  0  0
   22.2450  -18.5782  -18.7166 O   0  0  0  0  0  0  0  0  0  0  0  0
   18.7711  -22.0657  -14.4283 O   0  0  0  0  0  0  0  0  0  0  0  0
   19.3935  -20.8381  -14.6076 C   0  0  0  0  0  0  0  0  0  0  0  0
   20.7880  -20.7781  -14.5414 C   0  0  0  0  0  0  0  0  0  0  0  0
   21.3834  -19.5376  -14.7244 C   0  0  0  0  0  0  0  0  0  0  0  0
   20.6638  -18.3936  -14.9629 C   0  0  0  0  0  0  0  0  0  0  0  0
   21.2871  -17.0725  -15.1597 C   0  0  0  0  0  0  0  0  0  0  0  0
   21.8329  -16.8502  -16.5417 C   0  0  2  0  0  0  0  0  0  0  0  0
   23.0301  -17.6239  -16.7963 N   0  0  0  0  0  0  0  0  0  0  0  0
   22.0780  -15.3946  -16.7969 C   0  0  0  0  0  0  0  0  0  0  0  0
   23.0571  -14.7867  -16.2999 O   0  0  0  0  0  0  0  0  0  0  0  0
   19.2907  -18.5138  -15.0174 C   0  0  0  0  0  0  0  0  0  0  0  0
   18.6426  -19.7119  -14.8447 C   0  0  0  0  0  0  0  0  0  0  0  0
   20.4052  -13.3877  -20.1395 C   0  0  0  0  0  0  0  0  0  0  0  0
   21.6854  -13.0321  -19.4245 C   0  0  2  0  0  0  0  0  0  0  0  0
   22.7871  -13.9018  -19.9873 C   0  0  0  0  0  0  0  0  0  0  0  0
   21.4912  -13.2465  -17.9377 C   0  0  2  0  0  0  0  0  0  0  0  0
   21.2003  -14.6203  -17.6268 N   0  0  0  0  0  0  0  0  0  0  0  0
   20.4588  -12.3229  -17.3821 C   0  0  0  0  0  0  0  0  0  0  0  0
   20.7077  -10.9594  -17.3754 O   0  0  0  0  0  0  0  0  0  0  0  0
   19.3693  -12.7389  -16.9191 O   0  0  0  0  0  0  0  0  0  0  0  0
  2  1  1  0
  3  2  1  0
  4  3  2  0
  5  6  1  0
  6 16  2  0
  7  6  1  0
  7  8  2  0
  8  9  1  0
  9 15  2  0
  9 10  1  0
 11 10  1  1
 11 13  1  0
 11 12  1  0
 12  3  1  0
 13 21  1  0
 14 13  2  0
 16 15  1  0
 18 20  1  0
 18 17  1  6
 19 18  1  0
 20 22  1  0
 20 21  1  6
 22 24  2  0
 22 23  1  0
M  END
$$$$
