GYV.pdb
     RDKit          3D

 24 24  0  0  1  0  0  0  0  0999 V2000
   31.2304  -22.1649  -10.4583 N   0  0  0  0  0  0  0  0  0  0  0  0
   30.4935  -20.9424  -10.3755 C   0  0  0  0  0  0  0  0  0  0  0  0
   29.0440  -21.1922  -10.0546 C   0  0  0  0  0  0  0  0  0  0  0  0
   28.5784  -22.3589  -10.1051 O   0  0  0  0  0  0  0  0  0  0  0  0
   29.1034  -20.3382   -3.4161 O   0  0  0  0  0  0  0  0  0  0  0  0
   28.4164  -20.1217   -4.6025 C   0  0  0  0  0  0  0  0  0  0  0  0
   28.6939  -18.9649   -5.3357 C   0  0  0  0  0  0  0  0  0  0  0  0
   27.9920  -18.7743   -6.5180 C   0  0  0  0  0  0  0  0  0  0  0  0
   27.0554  -19.6645   -6.9805 C   0  0  0  0  0  0  0  0  0  0  0  0
   26.3063  -19.4713   -8.2350 C   0  0  0  0  0  0  0  0  0  0  0  0
   26.7633  -20.3493   -9.3652 C   0  0  2  0  0  0  0  0  0  0  0  0
   28.1605  -20.1525   -9.6904 N   0  0  0  0  0  0  0  0  0  0  0  0
   25.9047  -20.1581  -10.5778 C   0  0  0  0  0  0  0  0  0  0  0  0
   25.9577  -19.1151  -11.2739 O   0  0  0  0  0  0  0  0  0  0  0  0
   26.8235  -20.7883   -6.2148 C   0  0  0  0  0  0  0  0  0  0  0  0
   27.4847  -21.0338   -5.0367 C   0  0  0  0  0  0  0  0  0  0  0  0
   24.1236  -23.4539  -12.5968 C   0  0  0  0  0  0  0  0  0  0  0  0
   24.5528  -22.1427  -13.2076 C   0  0  2  0  0  0  0  0  0  0  0  0
   26.0304  -22.2368  -13.5152 C   0  0  0  0  0  0  0  0  0  0  0  0
   24.2418  -21.0245  -12.2342 C   0  0  2  0  0  0  0  0  0  0  0  0
   24.9746  -21.1638  -11.0045 N   0  0  0  0  0  0  0  0  0  0  0  0
   22.7740  -20.9020  -11.9928 C   0  0  0  0  0  0  0  0  0  0  0  0
   21.9450  -20.5476  -13.0455 O   0  0  0  0  0  0  0  0  0  0  0  0
   22.2622  -21.1092  -10.8661 O   0  0  0  0  0  0  0  0  0  0  0  0
  2  1  1  0
  3  2  1  0
  4  3  2  0
  5  6  1  0
  6 16  2  0
  7  6  1  0
  7  8  2  0
  8  9  1  0
  9 15  2  0
  9 10  1  0
 11 10  1  1
 11 13  1  0
 11 12  1  0
 12  3  1  0
 13 21  1  0
 14 13  2  0
 16 15  1  0
 18 20  1  0
 18 17  1  1
 19 18  1  0
 20 22  1  0
 20 21  1  1
 22 24  2  0
 22 23  1  0
M  END
$$$$
