GYV.pdb
     RDKit          3D

 24 24  0  0  1  0  0  0  0  0999 V2000
   28.3213  -16.0325  -18.2544 N   0  0  0  0  0  0  0  0  0  0  0  0
   28.2163  -17.3660  -17.7493 C   0  0  0  0  0  0  0  0  0  0  0  0
   27.3076  -17.4324  -16.5507 C   0  0  0  0  0  0  0  0  0  0  0  0
   27.4101  -16.5790  -15.6332 O   0  0  0  0  0  0  0  0  0  0  0  0
   22.3071  -13.5409  -17.8880 O   0  0  0  0  0  0  0  0  0  0  0  0
   22.7140  -14.7593  -17.3623 C   0  0  0  0  0  0  0  0  0  0  0  0
   23.0287  -15.7974  -18.2432 C   0  0  0  0  0  0  0  0  0  0  0  0
   23.4326  -17.0046  -17.6897 C   0  0  0  0  0  0  0  0  0  0  0  0
   23.5311  -17.2078  -16.3359 C   0  0  0  0  0  0  0  0  0  0  0  0
   23.9602  -18.4853  -15.7392 C   0  0  0  0  0  0  0  0  0  0  0  0
   25.3950  -18.5044  -15.2939 C   0  0  2  0  0  0  0  0  0  0  0  0
   26.3214  -18.4323  -16.4044 N   0  0  0  0  0  0  0  0  0  0  0  0
   25.6796  -19.7040  -14.4429 C   0  0  0  0  0  0  0  0  0  0  0  0
   25.7904  -20.8552  -14.9301 O   0  0  0  0  0  0  0  0  0  0  0  0
   23.2076  -16.1472  -15.5154 C   0  0  0  0  0  0  0  0  0  0  0  0
   22.8017  -14.9289  -16.0014 C   0  0  0  0  0  0  0  0  0  0  0  0
   26.8675  -21.6147  -10.0372 C   0  0  0  0  0  0  0  0  0  0  0  0
   26.4108  -20.3802  -10.7749 C   0  0  2  0  0  0  0  0  0  0  0  0
   25.1930  -19.8381  -10.0608 C   0  0  0  0  0  0  0  0  0  0  0  0
   26.1118  -20.7520  -12.2126 C   0  0  2  0  0  0  0  0  0  0  0  0
   25.8400  -19.5942  -13.0214 N   0  0  0  0  0  0  0  0  0  0  0  0
   25.0129  -21.7583  -12.3001 C   0  0  0  0  0  0  0  0  0  0  0  0
   25.3343  -23.1061  -12.3349 O   0  0  0  0  0  0  0  0  0  0  0  0
   23.8037  -21.4258  -12.3434 O   0  0  0  0  0  0  0  0  0  0  0  0
  2  1  1  0
  3  2  1  0
  4  3  2  0
  5  6  1  0
  6 16  2  0
  7  6  1  0
  7  8  2  0
  8  9  1  0
  9 15  2  0
  9 10  1  0
 11 10  1  6
 11 13  1  0
 11 12  1  0
 12  3  1  0
 13 21  1  0
 14 13  2  0
 16 15  1  0
 18 20  1  0
 18 17  1  1
 19 18  1  0
 20 22  1  0
 20 21  1  6
 22 24  2  0
 22 23  1  0
M  END
$$$$
