GYV.pdb
     RDKit          3D

 24 24  0  0  1  0  0  0  0  0999 V2000
   29.0451  -24.3722  -17.0366 N   0  0  0  0  0  0  0  0  0  0  0  0
   28.6154  -23.0130  -16.9250 C   0  0  0  0  0  0  0  0  0  0  0  0
   27.6037  -22.8425  -15.8231 C   0  0  0  0  0  0  0  0  0  0  0  0
   26.8378  -23.7914  -15.5174 O   0  0  0  0  0  0  0  0  0  0  0  0
   23.8609  -20.3803   -8.3114 O   0  0  0  0  0  0  0  0  0  0  0  0
   24.6360  -20.4032   -9.4625 C   0  0  0  0  0  0  0  0  0  0  0  0
   25.8329  -21.1242   -9.4499 C   0  0  0  0  0  0  0  0  0  0  0  0
   26.5877  -21.1296  -10.6149 C   0  0  0  0  0  0  0  0  0  0  0  0
   26.2058  -20.4650  -11.7533 C   0  0  0  0  0  0  0  0  0  0  0  0
   26.9998  -20.4661  -12.9951 C   0  0  0  0  0  0  0  0  0  0  0  0
   26.5073  -21.4282  -14.0386 C   0  0  2  0  0  0  0  0  0  0  0  0
   27.4710  -21.6377  -15.0988 N   0  0  0  0  0  0  0  0  0  0  0  0
   25.1897  -20.9878  -14.5991 C   0  0  0  0  0  0  0  0  0  0  0  0
   25.0938  -20.0235  -15.3966 O   0  0  0  0  0  0  0  0  0  0  0  0
   25.0150  -19.7703  -11.7068 C   0  0  0  0  0  0  0  0  0  0  0  0
   24.2240  -19.7265  -10.5854 C   0  0  0  0  0  0  0  0  0  0  0  0
   21.7621  -23.4899  -14.7840 C   0  0  0  0  0  0  0  0  0  0  0  0
   22.0618  -22.2894  -15.6474 C   0  0  2  0  0  0  0  0  0  0  0  0
   22.9668  -22.7417  -16.7714 C   0  0  0  0  0  0  0  0  0  0  0  0
   22.7059  -21.2191  -14.7906 C   0  0  2  0  0  0  0  0  0  0  0  0
   23.9665  -21.6510  -14.2493 N   0  0  0  0  0  0  0  0  0  0  0  0
   21.7791  -20.7427  -13.7221 C   0  0  0  0  0  0  0  0  0  0  0  0
   20.8071  -19.8073  -14.0407 O   0  0  0  0  0  0  0  0  0  0  0  0
   21.8491  -21.1606  -12.5411 O   0  0  0  0  0  0  0  0  0  0  0  0
  2  1  1  0
  3  2  1  0
  4  3  2  0
  5  6  1  0
  6 16  2  0
  7  6  1  0
  7  8  2  0
  8  9  1  0
  9 15  2  0
  9 10  1  0
 11 10  1  1
 11 13  1  0
 11 12  1  0
 12  3  1  0
 13 21  1  0
 14 13  2  0
 16 15  1  0
 18 20  1  0
 18 17  1  1
 19 18  1  0
 20 22  1  0
 20 21  1  1
 22 24  2  0
 22 23  1  0
M  END
$$$$
