GYV.pdb
     RDKit          3D

 24 24  0  0  1  0  0  0  0  0999 V2000
   16.0146  -11.6847  -15.0898 N   0  0  0  0  0  0  0  0  0  0  0  0
   16.8153  -10.5102  -15.2439 C   0  0  0  0  0  0  0  0  0  0  0  0
   17.2084   -9.9312  -13.9109 C   0  0  0  0  0  0  0  0  0  0  0  0
   17.3466  -10.6827  -12.9126 O   0  0  0  0  0  0  0  0  0  0  0  0
   23.3818  -10.0682  -14.8444 O   0  0  0  0  0  0  0  0  0  0  0  0
   22.3309   -9.3573  -14.2817 C   0  0  0  0  0  0  0  0  0  0  0  0
   22.1917   -9.3557  -12.8912 C   0  0  0  0  0  0  0  0  0  0  0  0
   21.1318   -8.6365  -12.3562 C   0  0  0  0  0  0  0  0  0  0  0  0
   20.2360   -7.9424  -13.1303 C   0  0  0  0  0  0  0  0  0  0  0  0
   19.1086   -7.1751  -12.5713 C   0  0  0  0  0  0  0  0  0  0  0  0
   17.8281   -7.9537  -12.4645 C   0  0  2  0  0  0  0  0  0  0  0  0
   17.4350   -8.5501  -13.7240 N   0  0  0  0  0  0  0  0  0  0  0  0
   16.7247   -7.1038  -11.9129 C   0  0  0  0  0  0  0  0  0  0  0  0
   16.0658   -6.3165  -12.6348 O   0  0  0  0  0  0  0  0  0  0  0  0
   20.4233   -7.9803  -14.4964 C   0  0  0  0  0  0  0  0  0  0  0  0
   21.4517   -8.6731  -15.0862 C   0  0  0  0  0  0  0  0  0  0  0  0
   13.4563   -6.1479   -8.3796 C   0  0  0  0  0  0  0  0  0  0  0  0
   14.6362   -6.9890   -8.8002 C   0  0  2  0  0  0  0  0  0  0  0  0
   15.5829   -7.0794   -7.6245 C   0  0  0  0  0  0  0  0  0  0  0  0
   15.2864   -6.3496  -10.0096 C   0  0  2  0  0  0  0  0  0  0  0  0
   16.3657   -7.1489  -10.5245 N   0  0  0  0  0  0  0  0  0  0  0  0
   15.7221   -4.9515   -9.7213 C   0  0  0  0  0  0  0  0  0  0  0  0
   14.7993   -3.9227   -9.8265 O   0  0  0  0  0  0  0  0  0  0  0  0
   16.8988   -4.6736   -9.3856 O   0  0  0  0  0  0  0  0  0  0  0  0
  2  1  1  0
  3  2  1  0
  4  3  2  0
  5  6  1  0
  6 16  2  0
  7  6  1  0
  7  8  2  0
  8  9  1  0
  9 15  2  0
  9 10  1  0
 11 10  1  6
 11 13  1  0
 11 12  1  0
 12  3  1  0
 13 21  1  0
 14 13  2  0
 16 15  1  0
 18 20  1  0
 18 17  1  1
 19 18  1  0
 20 22  1  0
 20 21  1  1
 22 24  2  0
 22 23  1  0
M  END
$$$$
