GYV.pdb
     RDKit          3D

 24 24  0  0  1  0  0  0  0  0999 V2000
   20.9488  -13.8323  -20.5011 N   0  0  0  0  0  0  0  0  0  0  0  0
   20.0442  -12.7444  -20.2946 C   0  0  0  0  0  0  0  0  0  0  0  0
   20.3227  -12.0334  -18.9971 C   0  0  0  0  0  0  0  0  0  0  0  0
   19.9915  -12.5607  -17.9050 O   0  0  0  0  0  0  0  0  0  0  0  0
   26.1093  -14.1772  -18.1777 O   0  0  0  0  0  0  0  0  0  0  0  0
   25.2672  -13.0849  -18.0222 C   0  0  0  0  0  0  0  0  0  0  0  0
   24.6695  -12.8718  -16.7771 C   0  0  0  0  0  0  0  0  0  0  0  0
   23.8322  -11.7719  -16.6504 C   0  0  0  0  0  0  0  0  0  0  0  0
   23.5778  -10.9060  -17.6844 C   0  0  0  0  0  0  0  0  0  0  0  0
   22.6915   -9.7350  -17.5590 C   0  0  0  0  0  0  0  0  0  0  0  0
   21.2315  -10.0487  -17.7235 C   0  0  2  0  0  0  0  0  0  0  0  0
   20.9539  -10.7713  -18.9472 N   0  0  0  0  0  0  0  0  0  0  0  0
   20.4002   -8.8052  -17.6417 C   0  0  0  0  0  0  0  0  0  0  0  0
   20.3463   -7.9768  -18.5830 O   0  0  0  0  0  0  0  0  0  0  0  0
   24.1956  -11.1666  -18.8899 C   0  0  0  0  0  0  0  0  0  0  0  0
   25.0340  -12.2375  -19.0785 C   0  0  0  0  0  0  0  0  0  0  0  0
   17.3189   -8.0666  -14.5886 C   0  0  0  0  0  0  0  0  0  0  0  0
   17.3503   -7.6915  -16.0497 C   0  0  2  0  0  0  0  0  0  0  0  0
   16.8205   -8.8663  -16.8409 C   0  0  0  0  0  0  0  0  0  0  0  0
   18.7724   -7.3386  -16.4338 C   0  0  2  0  0  0  0  0  0  0  0  0
   19.6208   -8.4992  -16.4766 N   0  0  0  0  0  0  0  0  0  0  0  0
   19.3314   -6.2771  -15.5459 C   0  0  0  0  0  0  0  0  0  0  0  0
   18.8453   -4.9836  -15.6532 O   0  0  0  0  0  0  0  0  0  0  0  0
   20.2293   -6.5154  -14.7024 O   0  0  0  0  0  0  0  0  0  0  0  0
  2  1  1  0
  3  2  1  0
  4  3  2  0
  5  6  1  0
  6 16  2  0
  7  6  1  0
  7  8  2  0
  8  9  1  0
  9 15  2  0
  9 10  1  0
 11 10  1  6
 11 13  1  0
 11 12  1  0
 12  3  1  0
 13 21  1  0
 14 13  2  0
 16 15  1  0
 18 20  1  0
 18 17  1  1
 19 18  1  0
 20 22  1  0
 20 21  1  1
 22 24  2  0
 22 23  1  0
M  END
$$$$
