GYV.pdb
     RDKit          3D

 24 24  0  0  1  0  0  0  0  0999 V2000
   28.9136  -23.6758  -17.6333 N   0  0  0  0  0  0  0  0  0  0  0  0
   28.2102  -22.4390  -17.4918 C   0  0  0  0  0  0  0  0  0  0  0  0
   27.2951  -22.4580  -16.2964 C   0  0  0  0  0  0  0  0  0  0  0  0
   26.6281  -23.4895  -16.0286 O   0  0  0  0  0  0  0  0  0  0  0  0
   23.6643  -20.6533   -8.4910 O   0  0  0  0  0  0  0  0  0  0  0  0
   24.4282  -20.5984   -9.6486 C   0  0  0  0  0  0  0  0  0  0  0  0
   25.6186  -21.3285   -9.7008 C   0  0  0  0  0  0  0  0  0  0  0  0
   26.3622  -21.2551  -10.8706 C   0  0  0  0  0  0  0  0  0  0  0  0
   25.9755  -20.5059  -11.9536 C   0  0  0  0  0  0  0  0  0  0  0  0
   26.7576  -20.4229  -13.2001 C   0  0  0  0  0  0  0  0  0  0  0  0
   26.2502  -21.3066  -14.3041 C   0  0  2  0  0  0  0  0  0  0  0  0
   27.1467  -21.3448  -15.4404 N   0  0  0  0  0  0  0  0  0  0  0  0
   24.8722  -20.9010  -14.7292 C   0  0  0  0  0  0  0  0  0  0  0  0
   24.6557  -19.8384  -15.3611 O   0  0  0  0  0  0  0  0  0  0  0  0
   24.7916  -19.8065  -11.8444 C   0  0  0  0  0  0  0  0  0  0  0  0
   24.0117  -19.8381  -10.7148 C   0  0  0  0  0  0  0  0  0  0  0  0
   21.5985  -23.5653  -15.2993 C   0  0  0  0  0  0  0  0  0  0  0  0
   21.8088  -22.1876  -15.8773 C   0  0  2  0  0  0  0  0  0  0  0  0
   22.7187  -22.3230  -17.0776 C   0  0  0  0  0  0  0  0  0  0  0  0
   22.4026  -21.2939  -14.8081 C   0  0  2  0  0  0  0  0  0  0  0  0
   23.7265  -21.7122  -14.4329 N   0  0  0  0  0  0  0  0  0  0  0  0
   21.5006  -21.1842  -13.6241 C   0  0  0  0  0  0  0  0  0  0  0  0
   20.3152  -20.4759  -13.7430 O   0  0  0  0  0  0  0  0  0  0  0  0
   21.7787  -21.7128  -12.5205 O   0  0  0  0  0  0  0  0  0  0  0  0
  2  1  1  0
  3  2  1  0
  4  3  2  0
  5  6  1  0
  6 16  2  0
  7  6  1  0
  7  8  2  0
  8  9  1  0
  9 15  2  0
  9 10  1  0
 11 10  1  1
 11 13  1  0
 11 12  1  0
 12  3  1  0
 13 21  1  0
 14 13  2  0
 16 15  1  0
 18 20  1  0
 18 17  1  1
 19 18  1  0
 20 22  1  0
 20 21  1  1
 22 24  2  0
 22 23  1  0
M  END
$$$$
