GYV.pdb
     RDKit          3D

 24 24  0  0  1  0  0  0  0  0999 V2000
   28.7214  -23.8569  -17.1146 N   0  0  0  0  0  0  0  0  0  0  0  0
   28.4459  -22.5007  -16.7549 C   0  0  0  0  0  0  0  0  0  0  0  0
   27.2941  -22.4086  -15.7898 C   0  0  0  0  0  0  0  0  0  0  0  0
   26.5177  -23.3858  -15.6387 O   0  0  0  0  0  0  0  0  0  0  0  0
   22.9177  -20.7154   -8.4430 O   0  0  0  0  0  0  0  0  0  0  0  0
   23.7736  -20.6102   -9.5306 C   0  0  0  0  0  0  0  0  0  0  0  0
   25.0118  -21.2554   -9.4734 C   0  0  0  0  0  0  0  0  0  0  0  0
   25.8473  -21.1332  -10.5752 C   0  0  0  0  0  0  0  0  0  0  0  0
   25.5051  -20.4156  -11.6939 C   0  0  0  0  0  0  0  0  0  0  0  0
   26.3849  -20.2813  -12.8688 C   0  0  0  0  0  0  0  0  0  0  0  0
   25.9891  -21.1424  -14.0346 C   0  0  2  0  0  0  0  0  0  0  0  0
   27.0378  -21.2480  -15.0274 N   0  0  0  0  0  0  0  0  0  0  0  0
   24.7166  -20.6554  -14.6572 C   0  0  0  0  0  0  0  0  0  0  0  0
   24.6637  -19.5902  -15.3187 O   0  0  0  0  0  0  0  0  0  0  0  0
   24.2705  -19.8004  -11.6935 C   0  0  0  0  0  0  0  0  0  0  0  0
   23.3995  -19.8836  -10.6353 C   0  0  0  0  0  0  0  0  0  0  0  0
   21.4622  -23.1863  -15.6882 C   0  0  0  0  0  0  0  0  0  0  0  0
   21.8416  -21.8496  -16.2762 C   0  0  2  0  0  0  0  0  0  0  0  0
   22.9425  -22.0837  -17.2862 C   0  0  0  0  0  0  0  0  0  0  0  0
   22.2802  -20.9291  -15.1560 C   0  0  2  0  0  0  0  0  0  0  0  0
   23.4895  -21.3875  -14.5266 N   0  0  0  0  0  0  0  0  0  0  0  0
   21.1863  -20.7161  -14.1632 C   0  0  0  0  0  0  0  0  0  0  0  0
   20.1004  -19.9298  -14.5149 O   0  0  0  0  0  0  0  0  0  0  0  0
   21.2151  -21.2257  -13.0169 O   0  0  0  0  0  0  0  0  0  0  0  0
  2  1  1  0
  3  2  1  0
  4  3  2  0
  5  6  1  0
  6 16  2  0
  7  6  1  0
  7  8  2  0
  8  9  1  0
  9 15  2  0
  9 10  1  0
 11 10  1  1
 11 13  1  0
 11 12  1  0
 12  3  1  0
 13 21  1  0
 14 13  2  0
 16 15  1  0
 18 20  1  0
 18 17  1  1
 19 18  1  0
 20 22  1  0
 20 21  1  1
 22 24  2  0
 22 23  1  0
M  END
$$$$
