GYV.pdb
     RDKit          3D

 24 24  0  0  1  0  0  0  0  0999 V2000
   21.9268  -10.8131  -19.8423 N   0  0  0  0  0  0  0  0  0  0  0  0
   20.8307  -10.9067  -18.9291 C   0  0  0  0  0  0  0  0  0  0  0  0
   20.9383   -9.8828  -17.8306 C   0  0  0  0  0  0  0  0  0  0  0  0
   20.3701  -10.0797  -16.7265 O   0  0  0  0  0  0  0  0  0  0  0  0
   26.5072  -11.6793  -15.2365 O   0  0  0  0  0  0  0  0  0  0  0  0
   25.7088  -10.6047  -15.6029 C   0  0  0  0  0  0  0  0  0  0  0  0
   25.8678  -10.0562  -16.8783 C   0  0  0  0  0  0  0  0  0  0  0  0
   25.0562   -8.9825  -17.2177 C   0  0  0  0  0  0  0  0  0  0  0  0
   24.1234   -8.4535  -16.3611 C   0  0  0  0  0  0  0  0  0  0  0  0
   23.2564   -7.3147  -16.7130 C   0  0  0  0  0  0  0  0  0  0  0  0
   21.8193   -7.6854  -16.9462 C   0  0  2  0  0  0  0  0  0  0  0  0
   21.6651   -8.6820  -17.9852 N   0  0  0  0  0  0  0  0  0  0  0  0
   20.9918   -6.4734  -17.2471 C   0  0  0  0  0  0  0  0  0  0  0  0
   21.2029   -5.7560  -18.2551 O   0  0  0  0  0  0  0  0  0  0  0  0
   24.0111   -9.0358  -15.1157 C   0  0  0  0  0  0  0  0  0  0  0  0
   24.7844  -10.0993  -14.7206 C   0  0  0  0  0  0  0  0  0  0  0  0
   16.9714   -5.9357  -16.0691 C   0  0  0  0  0  0  0  0  0  0  0  0
   17.7373   -5.2841  -17.1939 C   0  0  2  0  0  0  0  0  0  0  0  0
   17.7929   -6.2637  -18.3447 C   0  0  0  0  0  0  0  0  0  0  0  0
   19.1176   -4.9108  -16.6940 C   0  0  2  0  0  0  0  0  0  0  0  0
   19.9116   -6.0716  -16.3924 N   0  0  0  0  0  0  0  0  0  0  0  0
   19.0446   -3.9740  -15.5344 C   0  0  0  0  0  0  0  0  0  0  0  0
   18.7264   -2.6442  -15.7613 O   0  0  0  0  0  0  0  0  0  0  0  0
   19.2618   -4.3493  -14.3570 O   0  0  0  0  0  0  0  0  0  0  0  0
  2  1  1  0
  3  2  1  0
  4  3  2  0
  5  6  1  0
  6 16  2  0
  7  6  1  0
  7  8  2  0
  8  9  1  0
  9 15  2  0
  9 10  1  0
 11 10  1  6
 11 13  1  0
 11 12  1  0
 12  3  1  0
 13 21  1  0
 14 13  2  0
 16 15  1  0
 18 20  1  0
 18 17  1  1
 19 18  1  0
 20 22  1  0
 20 21  1  1
 22 24  2  0
 22 23  1  0
M  END
$$$$
