GYV.pdb
     RDKit          3D

 24 24  0  0  1  0  0  0  0  0999 V2000
   24.9509  -12.4849  -19.9014 N   0  0  0  0  0  0  0  0  0  0  0  0
   24.0058  -11.4121  -19.8862 C   0  0  0  0  0  0  0  0  0  0  0  0
   23.7391  -10.9312  -18.4847 C   0  0  0  0  0  0  0  0  0  0  0  0
   23.4237  -11.7512  -17.5855 O   0  0  0  0  0  0  0  0  0  0  0  0
   29.5544  -11.1959  -16.5336 O   0  0  0  0  0  0  0  0  0  0  0  0
   28.3608  -10.4927  -16.4498 C   0  0  0  0  0  0  0  0  0  0  0  0
   28.0906   -9.5147  -17.4107 C   0  0  0  0  0  0  0  0  0  0  0  0
   26.8895   -8.8272  -17.3022 C   0  0  0  0  0  0  0  0  0  0  0  0
   25.9789   -9.0709  -16.3048 C   0  0  0  0  0  0  0  0  0  0  0  0
   24.7007   -8.3472  -16.1824 C   0  0  0  0  0  0  0  0  0  0  0  0
   23.5306   -9.0572  -16.8019 C   0  0  2  0  0  0  0  0  0  0  0  0
   23.8286   -9.5691  -18.1232 N   0  0  0  0  0  0  0  0  0  0  0  0
   22.3206   -8.1746  -16.8356 C   0  0  0  0  0  0  0  0  0  0  0  0
   22.2526   -7.1655  -17.5787 O   0  0  0  0  0  0  0  0  0  0  0  0
   26.2995  -10.0475  -15.3849 C   0  0  0  0  0  0  0  0  0  0  0  0
   27.4709  -10.7619  -15.4379 C   0  0  0  0  0  0  0  0  0  0  0  0
   17.5516   -7.4884  -15.8541 C   0  0  0  0  0  0  0  0  0  0  0  0
   18.7297   -8.4302  -15.8956 C   0  0  2  0  0  0  0  0  0  0  0  0
   18.7482   -9.2061  -14.5977 C   0  0  0  0  0  0  0  0  0  0  0  0
   19.9951   -7.6222  -16.0964 C   0  0  2  0  0  0  0  0  0  0  0  0
   21.1742   -8.4418  -16.0153 N   0  0  0  0  0  0  0  0  0  0  0  0
   20.0600   -6.4649  -15.1562 C   0  0  0  0  0  0  0  0  0  0  0  0
   20.8147   -6.5779  -13.9991 O   0  0  0  0  0  0  0  0  0  0  0  0
   19.4532   -5.3890  -15.3771 O   0  0  0  0  0  0  0  0  0  0  0  0
  2  1  1  0
  3  2  1  0
  4  3  2  0
  5  6  1  0
  6 16  2  0
  7  6  1  0
  7  8  2  0
  8  9  1  0
  9 15  2  0
  9 10  1  0
 11 10  1  6
 11 13  1  0
 11 12  1  0
 12  3  1  0
 13 21  1  0
 14 13  2  0
 16 15  1  0
 18 20  1  0
 18 17  1  1
 19 18  1  0
 20 22  1  0
 20 21  1  1
 22 24  2  0
 22 23  1  0
M  END
$$$$
