GYV.pdb
     RDKit          3D

 24 24  0  0  1  0  0  0  0  0999 V2000
   22.3429  -10.9890  -19.6519 N   0  0  0  0  0  0  0  0  0  0  0  0
   21.4887   -9.8427  -19.6801 C   0  0  0  0  0  0  0  0  0  0  0  0
   21.0507   -9.4464  -18.2952 C   0  0  0  0  0  0  0  0  0  0  0  0
   20.2721  -10.1876  -17.6433 O   0  0  0  0  0  0  0  0  0  0  0  0
   25.5822  -12.3193  -15.1482 O   0  0  0  0  0  0  0  0  0  0  0  0
   24.7906  -11.1818  -15.2249 C   0  0  0  0  0  0  0  0  0  0  0  0
   25.1919  -10.1419  -16.0677 C   0  0  0  0  0  0  0  0  0  0  0  0
   24.3812   -9.0167  -16.1247 C   0  0  0  0  0  0  0  0  0  0  0  0
   23.2241   -8.8943  -15.3968 C   0  0  0  0  0  0  0  0  0  0  0  0
   22.3563   -7.7042  -15.4517 C   0  0  0  0  0  0  0  0  0  0  0  0
   21.1444   -7.8670  -16.3245 C   0  0  2  0  0  0  0  0  0  0  0  0
   21.4836   -8.2522  -17.6784 N   0  0  0  0  0  0  0  0  0  0  0  0
   20.3063   -6.6253  -16.3206 C   0  0  0  0  0  0  0  0  0  0  0  0
   20.7301   -5.5342  -16.7735 O   0  0  0  0  0  0  0  0  0  0  0  0
   22.8783   -9.9524  -14.5822 C   0  0  0  0  0  0  0  0  0  0  0  0
   23.6378  -11.0919  -14.4823 C   0  0  0  0  0  0  0  0  0  0  0  0
   16.1160   -6.6829  -16.2388 C   0  0  0  0  0  0  0  0  0  0  0  0
   16.9755   -5.5313  -16.6991 C   0  0  2  0  0  0  0  0  0  0  0  0
   17.3714   -5.7940  -18.1347 C   0  0  0  0  0  0  0  0  0  0  0  0
   18.1786   -5.4230  -15.7852 C   0  0  2  0  0  0  0  0  0  0  0  0
   18.9710   -6.6233  -15.7959 N   0  0  0  0  0  0  0  0  0  0  0  0
   17.7801   -5.0355  -14.4000 C   0  0  0  0  0  0  0  0  0  0  0  0
   17.9235   -5.9570  -13.3746 O   0  0  0  0  0  0  0  0  0  0  0  0
   17.3180   -3.9006  -14.1299 O   0  0  0  0  0  0  0  0  0  0  0  0
  2  1  1  0
  3  2  1  0
  4  3  2  0
  5  6  1  0
  6 16  2  0
  7  6  1  0
  7  8  2  0
  8  9  1  0
  9 15  2  0
  9 10  1  0
 11 10  1  1
 11 13  1  0
 11 12  1  0
 12  3  1  0
 13 21  1  0
 14 13  2  0
 16 15  1  0
 18 20  1  0
 18 17  1  1
 19 18  1  0
 20 22  1  0
 20 21  1  1
 22 24  2  0
 22 23  1  0
M  END
$$$$
