QVN.pdb
     RDKit          3D

 25 24  0  0  1  0  0  0  0  0999 V2000
   25.0190  -14.0801  -22.9491 N   0  0  0  0  0  0  0  0  0  0  0  0
   25.4144  -14.6888  -21.7229 C   0  0  0  0  0  0  0  0  0  0  0  0
   26.6403  -14.6278  -21.4102 O   0  0  0  0  0  0  0  0  0  0  0  0
   24.4462  -15.3727  -20.8312 C   0  0  0  0  0  0  0  0  0  0  0  0
   24.2947  -14.5386  -19.5694 C   0  0  0  0  0  0  0  0  0  0  0  0
   25.4344  -14.8474  -18.5942 C   0  0  2  0  0  0  0  0  0  0  0  0
   25.3092  -16.2237  -18.1363 N   0  0  0  0  0  0  0  0  0  0  0  0
   25.2816  -13.8983  -17.4539 C   0  0  0  0  0  0  0  0  0  0  0  0
   24.5277  -14.2423  -16.5130 O   0  0  0  0  0  0  0  0  0  0  0  0
   27.8767  -10.4633  -16.8627 C   0  0  0  0  0  0  0  0  0  0  0  0
   27.1733  -11.2779  -15.8013 C   0  0  2  0  0  0  0  0  0  0  0  0
   28.0597  -12.4146  -15.3810 C   0  0  0  0  0  0  0  0  0  0  0  0
   25.8301  -11.7037  -16.3020 C   0  0  2  0  0  0  0  0  0  0  0  0
   25.9360  -12.6570  -17.3931 N   0  0  0  0  0  0  0  0  0  0  0  0
   24.9800  -10.5313  -16.7264 C   0  0  0  0  0  0  0  0  0  0  0  0
   25.1121  -10.0423  -17.8772 O   0  0  0  0  0  0  0  0  0  0  0  0
   21.0759   -6.9398  -16.4972 N   0  0  0  0  0  0  0  0  0  0  0  0
   21.1055   -7.7440  -15.3134 C   0  0  0  0  0  0  0  0  0  0  0  0
   20.1994   -7.5262  -14.4731 O   0  0  0  0  0  0  0  0  0  0  0  0
   22.1421   -8.7639  -15.1063 C   0  0  0  0  0  0  0  0  0  0  0  0
   23.1222   -8.8826  -16.2367 C   0  0  2  0  0  0  0  0  0  0  0  0
   24.0310   -9.9724  -15.8415 N   0  0  0  0  0  0  0  0  0  0  0  0
   23.9082   -7.6234  -16.4037 C   0  0  0  0  0  0  0  0  0  0  0  0
   25.0519   -7.4357  -15.6462 O   0  0  0  0  0  0  0  0  0  0  0  0
   23.5596   -6.7378  -17.2057 O   0  0  0  0  0  0  0  0  0  0  0  0
  2  3  2  0
  2  1  1  0
  4  2  1  0
  5  4  1  0
  6  5  1  0
  6  7  1  1
  8  6  1  0
  9  8  2  0
 11 10  1  6
 11 13  1  0
 12 11  1  0
 13 15  1  0
 13 14  1  6
 14  8  1  0
 15 16  2  0
 18 17  1  0
 18 19  2  0
 21 20  1  1
 20 18  1  0
 22 15  1  0
 22 21  1  0
 23 21  1  0
 23 24  1  0
 25 23  2  0
M  END
$$$$
