QVN.pdb
     RDKit          3D

 25 24  0  0  1  0  0  0  0  0999 V2000
   27.3280  -16.3723  -14.5267 N   0  0  0  0  0  0  0  0  0  0  0  0
   27.8655  -16.5480  -15.8347 C   0  0  0  0  0  0  0  0  0  0  0  0
   28.5908  -15.6181  -16.2968 O   0  0  0  0  0  0  0  0  0  0  0  0
   27.5997  -17.7635  -16.6421 C   0  0  0  0  0  0  0  0  0  0  0  0
   26.7673  -18.7174  -15.8009 C   0  0  0  0  0  0  0  0  0  0  0  0
   27.6821  -19.6222  -14.9703 C   0  0  2  0  0  0  0  0  0  0  0  0
   28.5703  -20.3507  -15.8648 N   0  0  0  0  0  0  0  0  0  0  0  0
   26.7888  -20.5636  -14.2354 C   0  0  0  0  0  0  0  0  0  0  0  0
   26.9704  -21.7912  -14.4146 O   0  0  0  0  0  0  0  0  0  0  0  0
   25.0017  -19.8043  -10.4637 C   0  0  0  0  0  0  0  0  0  0  0  0
   25.3179  -21.1032  -11.1691 C   0  0  2  0  0  0  0  0  0  0  0  0
   26.7702  -21.4315  -10.9749 C   0  0  0  0  0  0  0  0  0  0  0  0
   24.8985  -21.0125  -12.6017 C   0  0  2  0  0  0  0  0  0  0  0  0
   25.7702  -20.1380  -13.3670 N   0  0  0  0  0  0  0  0  0  0  0  0
   23.4649  -20.5653  -12.7506 C   0  0  0  0  0  0  0  0  0  0  0  0
   23.1685  -19.3501  -12.6228 O   0  0  0  0  0  0  0  0  0  0  0  0
   18.3351  -20.8896  -14.0764 N   0  0  0  0  0  0  0  0  0  0  0  0
   19.1585  -21.8621  -14.7284 C   0  0  0  0  0  0  0  0  0  0  0  0
   18.6084  -22.5378  -15.6313 O   0  0  0  0  0  0  0  0  0  0  0  0
   20.5665  -22.0481  -14.3536 C   0  0  0  0  0  0  0  0  0  0  0  0
   21.0512  -21.1009  -13.2951 C   0  0  2  0  0  0  0  0  0  0  0  0
   22.4447  -21.5006  -13.0338 N   0  0  0  0  0  0  0  0  0  0  0  0
   20.2555  -21.2427  -12.0390 C   0  0  0  0  0  0  0  0  0  0  0  0
   19.1370  -20.4476  -11.8546 O   0  0  0  0  0  0  0  0  0  0  0  0
   20.5738  -22.0567  -11.1529 O   0  0  0  0  0  0  0  0  0  0  0  0
  2  3  2  0
  2  1  1  0
  4  2  1  0
  5  4  1  0
  6  5  1  0
  6  7  1  6
  8  6  1  0
  9  8  2  0
 11 10  1  6
 11 13  1  0
 12 11  1  0
 13 15  1  0
 13 14  1  6
 14  8  1  0
 15 16  2  0
 18 17  1  0
 18 19  2  0
 21 20  1  6
 20 18  1  0
 22 15  1  0
 22 21  1  0
 23 21  1  0
 23 24  1  0
 25 23  2  0
M  END
$$$$
