QVN.pdb
     RDKit          3D

 25 24  0  0  1  0  0  0  0  0999 V2000
   17.0932  -14.8265  -14.1252 N   0  0  0  0  0  0  0  0  0  0  0  0
   17.2625  -14.2169  -15.4021 C   0  0  0  0  0  0  0  0  0  0  0  0
   16.2811  -13.5701  -15.8742 O   0  0  0  0  0  0  0  0  0  0  0  0
   18.5291  -14.3221  -16.1668 C   0  0  0  0  0  0  0  0  0  0  0  0
   19.0481  -12.9156  -16.4176 C   0  0  0  0  0  0  0  0  0  0  0  0
   18.3467  -12.3047  -17.6342 C   0  0  2  0  0  0  0  0  0  0  0  0
   18.6051  -13.1372  -18.8003 N   0  0  0  0  0  0  0  0  0  0  0  0
   18.9318  -10.9453  -17.8191 C   0  0  0  0  0  0  0  0  0  0  0  0
   20.0092  -10.8616  -18.4547 O   0  0  0  0  0  0  0  0  0  0  0  0
   16.4863   -7.5879  -17.6687 C   0  0  0  0  0  0  0  0  0  0  0  0
   17.8144   -7.6432  -18.3883 C   0  0  2  0  0  0  0  0  0  0  0  0
   17.6046   -8.1814  -19.7743 C   0  0  0  0  0  0  0  0  0  0  0  0
   18.7962   -8.4224  -17.5727 C   0  0  2  0  0  0  0  0  0  0  0  0
   18.3354   -9.7764  -17.3182 N   0  0  0  0  0  0  0  0  0  0  0  0
   19.1255   -7.7394  -16.2680 C   0  0  0  0  0  0  0  0  0  0  0  0
   18.4339   -7.9720  -15.2441 O   0  0  0  0  0  0  0  0  0  0  0  0
   21.6071   -4.4268  -12.9293 N   0  0  0  0  0  0  0  0  0  0  0  0
   22.4753   -4.9046  -13.9621 C   0  0  0  0  0  0  0  0  0  0  0  0
   23.6785   -4.5584  -13.8785 O   0  0  0  0  0  0  0  0  0  0  0  0
   21.9744   -5.7523  -15.0521 C   0  0  0  0  0  0  0  0  0  0  0  0
   20.5117   -6.0752  -14.9572 C   0  0  2  0  0  0  0  0  0  0  0  0
   20.2082   -6.8360  -16.1815 N   0  0  0  0  0  0  0  0  0  0  0  0
   19.6851   -4.8312  -14.9341 C   0  0  0  0  0  0  0  0  0  0  0  0
   19.1975   -4.3667  -13.7243 O   0  0  0  0  0  0  0  0  0  0  0  0
   19.4224   -4.2025  -15.9756 O   0  0  0  0  0  0  0  0  0  0  0  0
  2  3  2  0
  2  1  1  0
  4  2  1  0
  5  4  1  0
  6  5  1  0
  6  7  1  6
  8  6  1  0
  9  8  2  0
 11 10  1  1
 11 13  1  0
 12 11  1  0
 13 15  1  0
 13 14  1  1
 14  8  1  0
 15 16  2  0
 18 17  1  0
 18 19  2  0
 21 20  1  6
 20 18  1  0
 22 15  1  0
 22 21  1  0
 23 21  1  0
 23 24  1  0
 25 23  2  0
M  END
$$$$
