QVN.pdb
     RDKit          3D

 25 24  0  0  1  0  0  0  0  0999 V2000
   21.5996  -21.7928  -11.5671 N   0  0  0  0  0  0  0  0  0  0  0  0
   21.1217  -21.7408  -10.2257 C   0  0  0  0  0  0  0  0  0  0  0  0
   20.1515  -22.4966   -9.9226 O   0  0  0  0  0  0  0  0  0  0  0  0
   21.7211  -20.8448   -9.2068 C   0  0  0  0  0  0  0  0  0  0  0  0
   22.8418  -20.0595   -9.8684 C   0  0  0  0  0  0  0  0  0  0  0  0
   24.1508  -20.8516   -9.8010 C   0  0  2  0  0  0  0  0  0  0  0  0
   24.6676  -20.8018   -8.4408 N   0  0  0  0  0  0  0  0  0  0  0  0
   25.0941  -20.1874  -10.7461 C   0  0  0  0  0  0  0  0  0  0  0  0
   25.4881  -19.0335  -10.4538 O   0  0  0  0  0  0  0  0  0  0  0  0
   28.3560  -21.5778  -12.0428 C   0  0  0  0  0  0  0  0  0  0  0  0
   27.5621  -21.1683  -13.2622 C   0  0  2  0  0  0  0  0  0  0  0  0
   28.5006  -20.6468  -14.3119 C   0  0  0  0  0  0  0  0  0  0  0  0
   26.4925  -20.2017  -12.8647 C   0  0  2  0  0  0  0  0  0  0  0  0
   25.5500  -20.7912  -11.9294 N   0  0  0  0  0  0  0  0  0  0  0  0
   25.7523  -19.6458  -14.0564 C   0  0  0  0  0  0  0  0  0  0  0  0
   26.3896  -19.1130  -15.0003 O   0  0  0  0  0  0  0  0  0  0  0  0
   22.3828  -17.8765  -17.4622 N   0  0  0  0  0  0  0  0  0  0  0  0
   23.3917  -17.2090  -16.6970 C   0  0  0  0  0  0  0  0  0  0  0  0
   23.6823  -16.0437  -17.0605 O   0  0  0  0  0  0  0  0  0  0  0  0
   24.0416  -17.8614  -15.5526 C   0  0  0  0  0  0  0  0  0  0  0  0
   23.5825  -19.2687  -15.3051 C   0  0  2  0  0  0  0  0  0  0  0  0
   24.3430  -19.7168  -14.1259 N   0  0  0  0  0  0  0  0  0  0  0  0
   23.9065  -20.1535  -16.4641 C   0  0  0  0  0  0  0  0  0  0  0  0
   25.2279  -20.4831  -16.7137 O   0  0  0  0  0  0  0  0  0  0  0  0
   23.0180  -20.6007  -17.2124 O   0  0  0  0  0  0  0  0  0  0  0  0
  2  3  2  0
  2  1  1  0
  4  2  1  0
  5  4  1  0
  6  5  1  0
  6  7  1  1
  8  6  1  0
  9  8  2  0
 11 10  1  1
 11 13  1  0
 12 11  1  0
 13 15  1  0
 13 14  1  1
 14  8  1  0
 15 16  2  0
 18 17  1  0
 18 19  2  0
 21 20  1  6
 20 18  1  0
 22 15  1  0
 22 21  1  0
 23 21  1  0
 23 24  1  0
 25 23  2  0
M  END
$$$$
