QVN.pdb
     RDKit          3D

 25 24  0  0  1  0  0  0  0  0999 V2000
   11.5311  -10.5582  -14.9856 N   0  0  0  0  0  0  0  0  0  0  0  0
   11.3630  -11.9201  -15.3699 C   0  0  0  0  0  0  0  0  0  0  0  0
   10.3523  -12.2056  -16.0781 O   0  0  0  0  0  0  0  0  0  0  0  0
   12.3208  -12.9790  -14.9685 C   0  0  0  0  0  0  0  0  0  0  0  0
   13.4447  -12.3261  -14.1804 C   0  0  0  0  0  0  0  0  0  0  0  0
   14.8013  -12.7292  -14.7655 C   0  0  2  0  0  0  0  0  0  0  0  0
   15.0404  -14.1379  -14.4864 N   0  0  0  0  0  0  0  0  0  0  0  0
   15.8218  -11.8787  -14.0876 C   0  0  0  0  0  0  0  0  0  0  0  0
   16.2643  -12.2762  -12.9839 O   0  0  0  0  0  0  0  0  0  0  0  0
   19.1238  -10.4984  -15.4378 C   0  0  0  0  0  0  0  0  0  0  0  0
   18.3064   -9.3214  -14.9567 C   0  0  2  0  0  0  0  0  0  0  0  0
   19.2269   -8.2730  -14.4017 C   0  0  0  0  0  0  0  0  0  0  0  0
   17.2655   -9.7929  -13.9920 C   0  0  2  0  0  0  0  0  0  0  0  0
   16.2979  -10.6719  -14.6258 N   0  0  0  0  0  0  0  0  0  0  0  0
   16.5520   -8.6479  -13.3159 C   0  0  0  0  0  0  0  0  0  0  0  0
   15.7332   -7.9468  -13.9631 O   0  0  0  0  0  0  0  0  0  0  0  0
   15.3748   -5.1660   -9.4716 N   0  0  0  0  0  0  0  0  0  0  0  0
   15.9685   -6.3535   -8.9367 C   0  0  0  0  0  0  0  0  0  0  0  0
   16.0934   -6.3965   -7.6888 O   0  0  0  0  0  0  0  0  0  0  0  0
   16.4017   -7.4529   -9.8092 C   0  0  0  0  0  0  0  0  0  0  0  0
   16.1765   -7.2022  -11.2717 C   0  0  2  0  0  0  0  0  0  0  0  0
   16.7937   -8.3515  -11.9558 N   0  0  0  0  0  0  0  0  0  0  0  0
   16.8527   -5.9459  -11.7141 C   0  0  0  0  0  0  0  0  0  0  0  0
   18.2179   -5.9588  -11.9445 O   0  0  0  0  0  0  0  0  0  0  0  0
   16.2196   -4.8871  -11.8792 O   0  0  0  0  0  0  0  0  0  0  0  0
  2  3  2  0
  2  1  1  0
  4  2  1  0
  5  4  1  0
  6  5  1  0
  6  7  1  1
  8  6  1  0
  9  8  2  0
 11 10  1  1
 11 13  1  0
 12 11  1  0
 13 15  1  0
 13 14  1  6
 14  8  1  0
 15 16  2  0
 18 17  1  0
 18 19  2  0
 21 20  1  1
 20 18  1  0
 22 15  1  0
 22 21  1  0
 23 21  1  0
 23 24  1  0
 25 23  2  0
M  END
$$$$
