QVN.pdb
     RDKit          3D

 25 24  0  0  1  0  0  0  0  0999 V2000
   16.3988  -11.9338  -19.7717 N   0  0  0  0  0  0  0  0  0  0  0  0
   17.2933  -11.6982  -20.8557 C   0  0  0  0  0  0  0  0  0  0  0  0
   16.9231  -12.0700  -22.0086 O   0  0  0  0  0  0  0  0  0  0  0  0
   18.6113  -11.0447  -20.6656 C   0  0  0  0  0  0  0  0  0  0  0  0
   18.7266  -10.6278  -19.2084 C   0  0  0  0  0  0  0  0  0  0  0  0
   19.6065  -11.6216  -18.4446 C   0  0  2  0  0  0  0  0  0  0  0  0
   18.8295  -12.8172  -18.1509 N   0  0  0  0  0  0  0  0  0  0  0  0
   20.0164  -10.9384  -17.1837 C   0  0  0  0  0  0  0  0  0  0  0  0
   19.1151  -10.6616  -16.3573 O   0  0  0  0  0  0  0  0  0  0  0  0
   22.7667  -12.1769  -14.8911 C   0  0  0  0  0  0  0  0  0  0  0  0
   23.0542  -10.7152  -15.1471 C   0  0  2  0  0  0  0  0  0  0  0  0
   23.6424  -10.1019  -13.9092 C   0  0  0  0  0  0  0  0  0  0  0  0
   21.8140  -10.0367  -15.6347 C   0  0  2  0  0  0  0  0  0  0  0  0
   21.3472  -10.5984  -16.8906 N   0  0  0  0  0  0  0  0  0  0  0  0
   21.9960   -8.5454  -15.7765 C   0  0  0  0  0  0  0  0  0  0  0  0
   22.6571   -8.0811  -16.7401 O   0  0  0  0  0  0  0  0  0  0  0  0
   21.4669   -3.3771  -14.8662 N   0  0  0  0  0  0  0  0  0  0  0  0
   20.3658   -4.1401  -15.3703 C   0  0  0  0  0  0  0  0  0  0  0  0
   19.3978   -3.4828  -15.8236 O   0  0  0  0  0  0  0  0  0  0  0  0
   20.3807   -5.6088  -15.3536 C   0  0  0  0  0  0  0  0  0  0  0  0
   21.6694   -6.2051  -14.8677 C   0  0  2  0  0  0  0  0  0  0  0  0
   21.4296   -7.6581  -14.8343 N   0  0  0  0  0  0  0  0  0  0  0  0
   21.9984   -5.7295  -13.4904 C   0  0  0  0  0  0  0  0  0  0  0  0
   22.6414   -4.5137  -13.3313 O   0  0  0  0  0  0  0  0  0  0  0  0
   21.7103   -6.4000  -12.4821 O   0  0  0  0  0  0  0  0  0  0  0  0
  2  3  2  0
  2  1  1  0
  4  2  1  0
  5  4  1  0
  6  5  1  0
  6  7  1  1
  8  6  1  0
  9  8  2  0
 11 10  1  1
 11 13  1  0
 12 11  1  0
 13 15  1  0
 13 14  1  6
 14  8  1  0
 15 16  2  0
 18 17  1  0
 18 19  2  0
 21 20  1  1
 20 18  1  0
 22 15  1  0
 22 21  1  0
 23 21  1  0
 23 24  1  0
 25 23  2  0
M  END
$$$$
