QVN.pdb
     RDKit          3D

 25 24  0  0  1  0  0  0  0  0999 V2000
   28.1672  -17.6201  -15.3238 N   0  0  0  0  0  0  0  0  0  0  0  0
   28.3479  -18.1276  -16.6430 C   0  0  0  0  0  0  0  0  0  0  0  0
   29.1893  -17.5385  -17.3843 O   0  0  0  0  0  0  0  0  0  0  0  0
   27.5919  -19.2986  -17.1503 C   0  0  0  0  0  0  0  0  0  0  0  0
   26.6885  -19.7977  -16.0344 C   0  0  0  0  0  0  0  0  0  0  0  0
   27.4239  -20.8413  -15.1886 C   0  0  2  0  0  0  0  0  0  0  0  0
   27.8832  -21.9178  -16.0545 N   0  0  0  0  0  0  0  0  0  0  0  0
   26.4349  -21.3514  -14.1956 C   0  0  0  0  0  0  0  0  0  0  0  0
   25.5955  -22.1923  -14.5958 O   0  0  0  0  0  0  0  0  0  0  0  0
   24.5116  -21.0728   -9.6067 C   0  0  0  0  0  0  0  0  0  0  0  0
   25.6731  -20.7824  -10.5294 C   0  0  2  0  0  0  0  0  0  0  0  0
   26.0961  -19.3519  -10.3579 C   0  0  0  0  0  0  0  0  0  0  0  0
   25.3040  -21.1461  -11.9322 C   0  0  2  0  0  0  0  0  0  0  0  0
   26.4063  -20.9347  -12.8546 N   0  0  0  0  0  0  0  0  0  0  0  0
   24.0829  -20.4015  -12.4137 C   0  0  0  0  0  0  0  0  0  0  0  0
   24.2083  -19.2818  -12.9718 O   0  0  0  0  0  0  0  0  0  0  0  0
   19.9057  -20.5751  -15.9979 N   0  0  0  0  0  0  0  0  0  0  0  0
   20.5826  -19.8021  -15.0013 C   0  0  0  0  0  0  0  0  0  0  0  0
   20.1365  -18.6469  -14.7989 O   0  0  0  0  0  0  0  0  0  0  0  0
   21.7321  -20.3422  -14.2634 C   0  0  0  0  0  0  0  0  0  0  0  0
   21.5786  -20.3017  -12.7710 C   0  0  2  0  0  0  0  0  0  0  0  0
   22.7920  -20.9499  -12.2443 N   0  0  0  0  0  0  0  0  0  0  0  0
   20.3783  -21.0745  -12.3310 C   0  0  0  0  0  0  0  0  0  0  0  0
   19.1978  -20.3990  -12.0720 O   0  0  0  0  0  0  0  0  0  0  0  0
   20.4134  -22.3106  -12.1899 O   0  0  0  0  0  0  0  0  0  0  0  0
  2  3  2  0
  2  1  1  0
  4  2  1  0
  5  4  1  0
  6  5  1  0
  6  7  1  6
  8  6  1  0
  9  8  2  0
 11 10  1  1
 11 13  1  0
 12 11  1  0
 13 15  1  0
 13 14  1  6
 14  8  1  0
 15 16  2  0
 18 17  1  0
 18 19  2  0
 21 20  1  6
 20 18  1  0
 22 15  1  0
 22 21  1  0
 23 21  1  0
 23 24  1  0
 25 23  2  0
M  END
$$$$
