QVN.pdb
     RDKit          3D

 25 24  0  0  1  0  0  0  0  0999 V2000
   20.4128  -22.6084  -14.3981 N   0  0  0  0  0  0  0  0  0  0  0  0
   19.1642  -22.4967  -13.7206 C   0  0  0  0  0  0  0  0  0  0  0  0
   18.3366  -23.4449  -13.8630 O   0  0  0  0  0  0  0  0  0  0  0  0
   18.8248  -21.3255  -12.8760 C   0  0  0  0  0  0  0  0  0  0  0  0
   20.0622  -20.4501  -12.7622 C   0  0  0  0  0  0  0  0  0  0  0  0
   21.1040  -21.1251  -11.8654 C   0  0  2  0  0  0  0  0  0  0  0  0
   20.7439  -20.9085  -10.4714 N   0  0  0  0  0  0  0  0  0  0  0  0
   22.4109  -20.4776  -12.1771 C   0  0  0  0  0  0  0  0  0  0  0  0
   22.6902  -19.4176  -11.5686 O   0  0  0  0  0  0  0  0  0  0  0  0
   25.6690  -22.7309  -13.1278 C   0  0  0  0  0  0  0  0  0  0  0  0
   25.6975  -21.3079  -12.6189 C   0  0  2  0  0  0  0  0  0  0  0  0
   25.5409  -21.3128  -11.1256 C   0  0  0  0  0  0  0  0  0  0  0  0
   24.6682  -20.4959  -13.3383 C   0  0  2  0  0  0  0  0  0  0  0  0
   23.3245  -20.9979  -13.1085 N   0  0  0  0  0  0  0  0  0  0  0  0
   24.9381  -20.4138  -14.8207 C   0  0  0  0  0  0  0  0  0  0  0  0
   24.4473  -21.2716  -15.5980 O   0  0  0  0  0  0  0  0  0  0  0  0
   23.3783  -18.3219  -17.4794 N   0  0  0  0  0  0  0  0  0  0  0  0
   24.4296  -17.3552  -17.3843 C   0  0  0  0  0  0  0  0  0  0  0  0
   24.1050  -16.1614  -17.5945 O   0  0  0  0  0  0  0  0  0  0  0  0
   25.8060  -17.7504  -17.0572 C   0  0  0  0  0  0  0  0  0  0  0  0
   25.9783  -19.2181  -16.7950 C   0  0  2  0  0  0  0  0  0  0  0  0
   25.7406  -19.3785  -15.3502 N   0  0  0  0  0  0  0  0  0  0  0  0
   27.3670  -19.6642  -17.1171 C   0  0  0  0  0  0  0  0  0  0  0  0
   27.6123  -20.2866  -18.3293 O   0  0  0  0  0  0  0  0  0  0  0  0
   28.3089  -19.4919  -16.3220 O   0  0  0  0  0  0  0  0  0  0  0  0
  2  3  2  0
  2  1  1  0
  4  2  1  0
  5  4  1  0
  6  5  1  0
  6  7  1  1
  8  6  1  0
  9  8  2  0
 11 10  1  6
 11 13  1  0
 12 11  1  0
 13 15  1  0
 13 14  1  6
 14  8  1  0
 15 16  2  0
 18 17  1  0
 18 19  2  0
 21 20  1  1
 20 18  1  0
 22 15  1  0
 22 21  1  0
 23 21  1  0
 23 24  1  0
 25 23  2  0
M  END
$$$$
