QVN.pdb
     RDKit          3D

 25 24  0  0  1  0  0  0  0  0999 V2000
   22.5905  -13.1466  -22.0123 N   0  0  0  0  0  0  0  0  0  0  0  0
   22.9410  -14.5257  -22.0893 C   0  0  0  0  0  0  0  0  0  0  0  0
   22.7269  -15.1214  -23.1864 O   0  0  0  0  0  0  0  0  0  0  0  0
   23.5347  -15.2559  -20.9428 C   0  0  0  0  0  0  0  0  0  0  0  0
   23.6676  -14.2846  -19.7812 C   0  0  0  0  0  0  0  0  0  0  0  0
   24.3747  -14.9641  -18.6049 C   0  0  2  0  0  0  0  0  0  0  0  0
   23.5688  -16.0882  -18.1503 N   0  0  0  0  0  0  0  0  0  0  0  0
   24.4925  -13.9344  -17.5325 C   0  0  0  0  0  0  0  0  0  0  0  0
   23.5906  -13.9008  -16.6621 O   0  0  0  0  0  0  0  0  0  0  0  0
   27.6316  -13.1695  -15.4719 C   0  0  0  0  0  0  0  0  0  0  0  0
   27.1306  -11.8475  -16.0068 C   0  0  2  0  0  0  0  0  0  0  0  0
   27.3508  -10.7800  -14.9740 C   0  0  0  0  0  0  0  0  0  0  0  0
   25.7079  -11.9890  -16.4451 C   0  0  2  0  0  0  0  0  0  0  0  0
   25.5534  -13.0169  -17.4601 N   0  0  0  0  0  0  0  0  0  0  0  0
   25.1305  -10.6866  -16.9427 C   0  0  0  0  0  0  0  0  0  0  0  0
   25.4378  -10.2573  -18.0838 O   0  0  0  0  0  0  0  0  0  0  0  0
   21.1858   -8.2407  -19.5526 N   0  0  0  0  0  0  0  0  0  0  0  0
   22.0932   -8.0050  -18.4711 C   0  0  0  0  0  0  0  0  0  0  0  0
   22.2320   -6.8098  -18.1149 O   0  0  0  0  0  0  0  0  0  0  0  0
   22.8142   -9.1081  -17.8223 C   0  0  0  0  0  0  0  0  0  0  0  0
   23.5957   -8.7013  -16.6072 C   0  0  2  0  0  0  0  0  0  0  0  0
   24.2430   -9.9382  -16.1375 N   0  0  0  0  0  0  0  0  0  0  0  0
   22.6947   -8.1806  -15.5357 C   0  0  0  0  0  0  0  0  0  0  0  0
   22.5464   -6.8124  -15.3837 O   0  0  0  0  0  0  0  0  0  0  0  0
   22.0750   -8.9462  -14.7748 O   0  0  0  0  0  0  0  0  0  0  0  0
  2  3  2  0
  2  1  1  0
  4  2  1  0
  5  4  1  0
  6  5  1  0
  6  7  1  1
  8  6  1  0
  9  8  2  0
 11 10  1  1
 11 13  1  0
 12 11  1  0
 13 15  1  0
 13 14  1  6
 14  8  1  0
 15 16  2  0
 18 17  1  0
 18 19  2  0
 21 20  1  6
 20 18  1  0
 22 15  1  0
 22 21  1  0
 23 21  1  0
 23 24  1  0
 25 23  2  0
M  END
$$$$
