QVN.pdb
     RDKit          3D

 25 24  0  0  1  0  0  0  0  0999 V2000
   21.2357  -13.0504  -21.7407 N   0  0  0  0  0  0  0  0  0  0  0  0
   20.6002  -11.9261  -21.1386 C   0  0  0  0  0  0  0  0  0  0  0  0
   20.9430  -10.7761  -21.5442 O   0  0  0  0  0  0  0  0  0  0  0  0
   19.5746  -12.0720  -20.0770 C   0  0  0  0  0  0  0  0  0  0  0  0
   20.0816  -11.3668  -18.8295 C   0  0  0  0  0  0  0  0  0  0  0  0
   21.0862  -12.2575  -18.0928 C   0  0  2  0  0  0  0  0  0  0  0  0
   20.3857  -13.4067  -17.5376 N   0  0  0  0  0  0  0  0  0  0  0  0
   21.6705  -11.4221  -17.0041 C   0  0  0  0  0  0  0  0  0  0  0  0
   20.9638  -11.2201  -15.9884 O   0  0  0  0  0  0  0  0  0  0  0  0
   25.3379  -11.6622  -15.5876 C   0  0  0  0  0  0  0  0  0  0  0  0
   25.0421  -10.2291  -15.9665 C   0  0  2  0  0  0  0  0  0  0  0  0
   25.7350   -9.3091  -15.0032 C   0  0  0  0  0  0  0  0  0  0  0  0
   23.5629  -10.0257  -16.0487 C   0  0  2  0  0  0  0  0  0  0  0  0
   22.9569  -10.8623  -17.0702 N   0  0  0  0  0  0  0  0  0  0  0  0
   23.1965   -8.5811  -16.2855 C   0  0  0  0  0  0  0  0  0  0  0  0
   23.4783   -8.0320  -17.3809 O   0  0  0  0  0  0  0  0  0  0  0  0
   20.9447   -3.8905  -15.8081 N   0  0  0  0  0  0  0  0  0  0  0  0
   20.1912   -5.0709  -16.1047 C   0  0  0  0  0  0  0  0  0  0  0  0
   19.0164   -4.8915  -16.5074 O   0  0  0  0  0  0  0  0  0  0  0  0
   20.7719   -6.4105  -15.9438 C   0  0  0  0  0  0  0  0  0  0  0  0
   22.1912   -6.4107  -15.4559 C   0  0  2  0  0  0  0  0  0  0  0  0
   22.5365   -7.8325  -15.2855 N   0  0  0  0  0  0  0  0  0  0  0  0
   22.3091   -5.7151  -14.1392 C   0  0  0  0  0  0  0  0  0  0  0  0
   22.6245   -4.3672  -14.1133 O   0  0  0  0  0  0  0  0  0  0  0  0
   22.1326   -6.3176  -13.0646 O   0  0  0  0  0  0  0  0  0  0  0  0
  2  3  2  0
  2  1  1  0
  4  2  1  0
  5  4  1  0
  6  5  1  0
  6  7  1  1
  8  6  1  0
  9  8  2  0
 11 10  1  1
 11 13  1  0
 12 11  1  0
 13 15  1  0
 13 14  1  6
 14  8  1  0
 15 16  2  0
 18 17  1  0
 18 19  2  0
 21 20  1  1
 20 18  1  0
 22 15  1  0
 22 21  1  0
 23 21  1  0
 23 24  1  0
 25 23  2  0
M  END
$$$$
