QVN.pdb
     RDKit          3D

 25 24  0  0  1  0  0  0  0  0999 V2000
   17.5039   -7.6842  -14.5591 N   0  0  0  0  0  0  0  0  0  0  0  0
   17.8728   -9.0481  -14.7449 C   0  0  0  0  0  0  0  0  0  0  0  0
   18.6235   -9.3204  -15.7280 O   0  0  0  0  0  0  0  0  0  0  0  0
   17.4081  -10.1238  -13.8355 C   0  0  0  0  0  0  0  0  0  0  0  0
   17.8808   -9.7915  -12.4295 C   0  0  0  0  0  0  0  0  0  0  0  0
   16.8585  -10.2828  -11.4005 C   0  0  2  0  0  0  0  0  0  0  0  0
   16.0305  -11.3150  -12.0077 N   0  0  0  0  0  0  0  0  0  0  0  0
   16.0326   -9.0980  -11.0285 C   0  0  0  0  0  0  0  0  0  0  0  0
   15.1292   -8.7503  -11.8254 O   0  0  0  0  0  0  0  0  0  0  0  0
   13.9362   -8.5471   -7.9094 C   0  0  0  0  0  0  0  0  0  0  0  0
   14.9468   -7.4257   -7.9863 C   0  0  2  0  0  0  0  0  0  0  0  0
   14.3580   -6.1857   -7.3779 C   0  0  0  0  0  0  0  0  0  0  0  0
   15.4021   -7.2552   -9.4005 C   0  0  2  0  0  0  0  0  0  0  0  0
   16.2232   -8.3689   -9.8433 N   0  0  0  0  0  0  0  0  0  0  0  0
   16.1427   -5.9572   -9.6103 C   0  0  0  0  0  0  0  0  0  0  0  0
   17.2819   -5.7940   -9.1039 O   0  0  0  0  0  0  0  0  0  0  0  0
   17.1522   -1.0700  -11.3925 N   0  0  0  0  0  0  0  0  0  0  0  0
   16.7252   -2.0129  -12.3811 C   0  0  0  0  0  0  0  0  0  0  0  0
   16.8230   -1.6445  -13.5766 O   0  0  0  0  0  0  0  0  0  0  0  0
   16.2050   -3.3341  -12.0049 C   0  0  0  0  0  0  0  0  0  0  0  0
   16.2090   -3.5985  -10.5275 C   0  0  2  0  0  0  0  0  0  0  0  0
   15.5687   -4.9160  -10.3734 N   0  0  0  0  0  0  0  0  0  0  0  0
   15.4073   -2.5736   -9.7939 C   0  0  0  0  0  0  0  0  0  0  0  0
   14.0801   -2.8373   -9.5007 O   0  0  0  0  0  0  0  0  0  0  0  0
   15.9023   -1.4876   -9.4410 O   0  0  0  0  0  0  0  0  0  0  0  0
  2  3  2  0
  2  1  1  0
  4  2  1  0
  5  4  1  0
  6  5  1  0
  6  7  1  6
  8  6  1  0
  9  8  2  0
 11 10  1  6
 11 13  1  0
 12 11  1  0
 13 15  1  0
 13 14  1  1
 14  8  1  0
 15 16  2  0
 18 17  1  0
 18 19  2  0
 21 20  1  6
 20 18  1  0
 22 15  1  0
 22 21  1  0
 23 21  1  0
 23 24  1  0
 25 23  2  0
M  END
$$$$
