QVN.pdb
     RDKit          3D

 25 24  0  0  1  0  0  0  0  0999 V2000
   29.1239  -22.4635  -18.1960 N   0  0  0  0  0  0  0  0  0  0  0  0
   30.1228  -21.9643  -19.0812 C   0  0  0  0  0  0  0  0  0  0  0  0
   30.7491  -22.8077  -19.7889 O   0  0  0  0  0  0  0  0  0  0  0  0
   30.4344  -20.5179  -19.1870 C   0  0  0  0  0  0  0  0  0  0  0  0
   29.5445  -19.7697  -18.2079 C   0  0  0  0  0  0  0  0  0  0  0  0
   28.1526  -19.5641  -18.8127 C   0  0  2  0  0  0  0  0  0  0  0  0
   28.2405  -18.5859  -19.8874 N   0  0  0  0  0  0  0  0  0  0  0  0
   27.2851  -19.0572  -17.7105 C   0  0  0  0  0  0  0  0  0  0  0  0
   27.6327  -17.9940  -17.1441 O   0  0  0  0  0  0  0  0  0  0  0  0
   22.9678  -18.6065  -15.5505 C   0  0  0  0  0  0  0  0  0  0  0  0
   23.8541  -18.9912  -16.7130 C   0  0  2  0  0  0  0  0  0  0  0  0
   23.2307  -20.1400  -17.4521 C   0  0  0  0  0  0  0  0  0  0  0  0
   25.2400  -19.2616  -16.2206 C   0  0  2  0  0  0  0  0  0  0  0  0
   26.1161  -19.7115  -17.2886 N   0  0  0  0  0  0  0  0  0  0  0  0
   25.2601  -20.2579  -15.0873 C   0  0  0  0  0  0  0  0  0  0  0  0
   25.1311  -21.4855  -15.3265 O   0  0  0  0  0  0  0  0  0  0  0  0
   25.1701  -21.9747  -10.0558 N   0  0  0  0  0  0  0  0  0  0  0  0
   25.7500  -20.6695  -10.1497 C   0  0  0  0  0  0  0  0  0  0  0  0
   26.1562  -20.1652   -9.0749 O   0  0  0  0  0  0  0  0  0  0  0  0
   25.8589  -19.9709  -11.4372 C   0  0  0  0  0  0  0  0  0  0  0  0
   25.3079  -20.7399  -12.6024 C   0  0  2  0  0  0  0  0  0  0  0  0
   25.4230  -19.8261  -13.7520 N   0  0  0  0  0  0  0  0  0  0  0  0
   23.8699  -21.0839  -12.3902 C   0  0  0  0  0  0  0  0  0  0  0  0
   22.9290  -20.0685  -12.3650 O   0  0  0  0  0  0  0  0  0  0  0  0
   23.4965  -22.2609  -12.2336 O   0  0  0  0  0  0  0  0  0  0  0  0
  2  3  2  0
  2  1  1  0
  4  2  1  0
  5  4  1  0
  6  5  1  0
  6  7  1  6
  8  6  1  0
  9  8  2  0
 11 10  1  1
 11 13  1  0
 12 11  1  0
 13 15  1  0
 13 14  1  6
 14  8  1  0
 15 16  2  0
 18 17  1  0
 18 19  2  0
 21 20  1  1
 20 18  1  0
 22 15  1  0
 22 21  1  0
 23 21  1  0
 23 24  1  0
 25 23  2  0
M  END
$$$$
