QVN.pdb
     RDKit          3D

 25 24  0  0  1  0  0  0  0  0999 V2000
   27.3541  -19.2004  -19.1288 N   0  0  0  0  0  0  0  0  0  0  0  0
   26.2889  -19.9760  -18.5862 C   0  0  0  0  0  0  0  0  0  0  0  0
   25.2065  -19.3744  -18.3197 O   0  0  0  0  0  0  0  0  0  0  0  0
   26.4192  -21.4321  -18.3349 C   0  0  0  0  0  0  0  0  0  0  0  0
   25.6693  -21.7598  -17.0540 C   0  0  0  0  0  0  0  0  0  0  0  0
   26.3690  -21.1142  -15.8545 C   0  0  2  0  0  0  0  0  0  0  0  0
   27.7292  -21.6257  -15.7649 N   0  0  0  0  0  0  0  0  0  0  0  0
   25.5814  -21.5019  -14.6488 C   0  0  0  0  0  0  0  0  0  0  0  0
   24.8122  -22.4864  -14.7532 O   0  0  0  0  0  0  0  0  0  0  0  0
   27.0425  -21.0667  -10.8887 C   0  0  0  0  0  0  0  0  0  0  0  0
   25.6093  -20.5977  -10.9915 C   0  0  2  0  0  0  0  0  0  0  0  0
   24.8945  -20.9043   -9.7072 C   0  0  0  0  0  0  0  0  0  0  0  0
   24.9702  -21.1958  -12.2040 C   0  0  2  0  0  0  0  0  0  0  0  0
   25.6648  -20.8204  -13.4235 N   0  0  0  0  0  0  0  0  0  0  0  0
   23.5085  -20.8375  -12.3157 C   0  0  0  0  0  0  0  0  0  0  0  0
   22.7170  -21.1261  -11.3824 O   0  0  0  0  0  0  0  0  0  0  0  0
   19.1035  -18.6585  -14.3314 N   0  0  0  0  0  0  0  0  0  0  0  0
   20.2876  -18.1342  -14.9412 C   0  0  0  0  0  0  0  0  0  0  0  0
   20.1180  -17.2230  -15.7872 O   0  0  0  0  0  0  0  0  0  0  0  0
   21.6199  -18.6415  -14.5875 C   0  0  0  0  0  0  0  0  0  0  0  0
   21.6052  -19.7726  -13.6012 C   0  0  2  0  0  0  0  0  0  0  0  0
   23.0146  -20.1776  -13.4631 N   0  0  0  0  0  0  0  0  0  0  0  0
   20.8102  -20.9274  -14.1166 C   0  0  0  0  0  0  0  0  0  0  0  0
   19.6127  -21.2512  -13.5016 O   0  0  0  0  0  0  0  0  0  0  0  0
   21.1984  -21.6071  -15.0842 O   0  0  0  0  0  0  0  0  0  0  0  0
  2  3  2  0
  2  1  1  0
  4  2  1  0
  5  4  1  0
  6  5  1  0
  6  7  1  1
  8  6  1  0
  9  8  2  0
 11 10  1  1
 11 13  1  0
 12 11  1  0
 13 15  1  0
 13 14  1  6
 14  8  1  0
 15 16  2  0
 18 17  1  0
 18 19  2  0
 21 20  1  6
 20 18  1  0
 22 15  1  0
 22 21  1  0
 23 21  1  0
 23 24  1  0
 25 23  2  0
M  END
$$$$
