QVN.pdb
     RDKit          3D

 25 24  0  0  1  0  0  0  0  0999 V2000
   18.3847  -21.8504  -13.2938 N   0  0  0  0  0  0  0  0  0  0  0  0
   19.3190  -22.9109  -13.1121 C   0  0  0  0  0  0  0  0  0  0  0  0
   18.9275  -23.9290  -12.4683 O   0  0  0  0  0  0  0  0  0  0  0  0
   20.7010  -22.8476  -13.6470 C   0  0  0  0  0  0  0  0  0  0  0  0
   20.9026  -21.4783  -14.2755 C   0  0  0  0  0  0  0  0  0  0  0  0
   21.3054  -20.4612  -13.2037 C   0  0  2  0  0  0  0  0  0  0  0  0
   20.4983  -19.2597  -13.3607 N   0  0  0  0  0  0  0  0  0  0  0  0
   22.7480  -20.1587  -13.4313 C   0  0  0  0  0  0  0  0  0  0  0  0
   23.0342  -19.3862  -14.3765 O   0  0  0  0  0  0  0  0  0  0  0  0
   27.4215  -20.3252  -11.8009 C   0  0  0  0  0  0  0  0  0  0  0  0
   25.9988  -20.8054  -11.6280 C   0  0  2  0  0  0  0  0  0  0  0  0
   26.0071  -22.2705  -11.2992 C   0  0  0  0  0  0  0  0  0  0  0  0
   25.1992  -20.4567  -12.8427 C   0  0  2  0  0  0  0  0  0  0  0  0
   23.7800  -20.6951  -12.6440 N   0  0  0  0  0  0  0  0  0  0  0  0
   25.6754  -21.1921  -14.0714 C   0  0  0  0  0  0  0  0  0  0  0  0
   25.3732  -22.4013  -14.2373 O   0  0  0  0  0  0  0  0  0  0  0  0
   25.5808  -23.6099  -17.0665 N   0  0  0  0  0  0  0  0  0  0  0  0
   24.8704  -22.4156  -17.4098 C   0  0  0  0  0  0  0  0  0  0  0  0
   23.7761  -22.5733  -18.0032 O   0  0  0  0  0  0  0  0  0  0  0  0
   25.4021  -21.0868  -17.0796 C   0  0  0  0  0  0  0  0  0  0  0  0
   26.7262  -21.1125  -16.3733 C   0  0  2  0  0  0  0  0  0  0  0  0
   26.4615  -20.5353  -15.0442 N   0  0  0  0  0  0  0  0  0  0  0  0
   27.7332  -20.2687  -17.0840 C   0  0  0  0  0  0  0  0  0  0  0  0
   28.5928  -20.8635  -17.9919 O   0  0  0  0  0  0  0  0  0  0  0  0
   27.8199  -19.0441  -16.8790 O   0  0  0  0  0  0  0  0  0  0  0  0
  2  3  2  0
  2  1  1  0
  4  2  1  0
  5  4  1  0
  6  5  1  0
  6  7  1  6
  8  6  1  0
  9  8  2  0
 11 10  1  6
 11 13  1  0
 12 11  1  0
 13 15  1  0
 13 14  1  1
 14  8  1  0
 15 16  2  0
 18 17  1  0
 18 19  2  0
 21 20  1  6
 20 18  1  0
 22 15  1  0
 22 21  1  0
 23 21  1  0
 23 24  1  0
 25 23  2  0
M  END
$$$$
