THG.pdb
     RDKit          3D

 22 22  0  0  1  0  0  0  0  0999 V2000
   27.2880  -16.4012  -16.1124 C   0  0  0  0  0  0  0  0  0  0  0  0
   25.9696  -17.1062  -16.1835 C   0  0  1  0  0  0  0  0  0  0  0  0
   25.2299  -16.7810  -17.3008 O   0  0  0  0  0  0  0  0  0  0  0  0
   26.1608  -18.6040  -16.1322 C   0  0  2  0  0  0  0  0  0  0  0  0
   26.8328  -19.0952  -17.3196 N   0  0  0  0  0  0  0  0  0  0  0  0
   24.8736  -19.3333  -16.0125 C   0  0  0  0  0  0  0  0  0  0  0  0
   24.3992  -19.9659  -16.9900 O   0  0  0  0  0  0  0  0  0  0  0  0
   24.1324  -19.3444  -14.7953 N   0  0  0  0  0  0  0  0  0  0  0  0
   22.8620  -20.0416  -14.6650 C   0  0  1  0  0  0  0  0  0  0  0  0
   22.8547  -20.9637  -13.4744 C   0  0  0  0  0  0  0  0  0  0  0  0
   23.7164  -22.1489  -13.6253 C   0  0  0  0  0  0  0  0  0  0  0  0
   24.4826  -22.4195  -14.7255 C   0  0  0  0  0  0  0  0  0  0  0  0
   25.1581  -23.5914  -14.5444 N   0  0  0  0  0  0  0  0  0  0  0  0
   24.7832  -24.0138  -13.3214 C   0  0  0  0  0  0  0  0  0  0  0  0
   23.9177  -23.1550  -12.7608 N   0  0  0  0  0  0  0  0  0  0  0  0
   21.8215  -19.0114  -14.4351 C   0  0  0  0  0  0  0  0  0  0  0  0
   21.9560  -18.0914  -13.5812 O   0  0  0  0  0  0  0  0  0  0  0  0
   20.6175  -19.0100  -15.1679 N   0  0  0  0  0  0  0  0  0  0  0  0
   19.5831  -18.0064  -14.9884 C   0  0  0  0  0  0  0  0  0  0  0  0
   18.4599  -18.5042  -14.1889 C   0  0  0  0  0  0  0  0  0  0  0  0
   18.5010  -19.6768  -13.7602 O   0  0  0  0  0  0  0  0  0  0  0  0
   17.3926  -17.6570  -13.9369 O   0  0  0  0  0  0  0  0  0  0  0  0
  2  1  1  6
  2  4  1  0
  2  3  1  0
  4  6  1  0
  4  5  1  6
  6  7  2  0
  8  9  1  0
  8  6  1  0
  9 16  1  0
  9 10  1  1
 11 10  1  0
 11 15  1  0
 12 13  1  0
 12 11  2  0
 13 14  1  0
 14 15  2  0
 16 17  2  0
 18 16  1  0
 18 19  1  0
 19 20  1  0
 20 21  2  0
 20 22  1  0
M  END
$$$$
