THG.pdb
     RDKit          3D

 22 22  0  0  1  0  0  0  0  0999 V2000
   25.4547  -19.5322  -17.1204 C   0  0  0  0  0  0  0  0  0  0  0  0
   26.6083  -20.3736  -17.5692 C   0  0  1  0  0  0  0  0  0  0  0  0
   27.3118  -19.8282  -18.6223 O   0  0  0  0  0  0  0  0  0  0  0  0
   27.5554  -20.6382  -16.4222 C   0  0  2  0  0  0  0  0  0  0  0  0
   28.6937  -21.4310  -16.8446 N   0  0  0  0  0  0  0  0  0  0  0  0
   26.8987  -21.3590  -15.3031 C   0  0  0  0  0  0  0  0  0  0  0  0
   26.9495  -22.6130  -15.2276 O   0  0  0  0  0  0  0  0  0  0  0  0
   26.1913  -20.6632  -14.2801 N   0  0  0  0  0  0  0  0  0  0  0  0
   25.6341  -21.3425  -13.1204 C   0  0  1  0  0  0  0  0  0  0  0  0
   26.0414  -20.6712  -11.8353 C   0  0  0  0  0  0  0  0  0  0  0  0
   27.4492  -20.8909  -11.4611 C   0  0  0  0  0  0  0  0  0  0  0  0
   28.3438  -21.6236  -12.1915 C   0  0  0  0  0  0  0  0  0  0  0  0
   29.5581  -21.6291  -11.5686 N   0  0  0  0  0  0  0  0  0  0  0  0
   29.3731  -20.8897  -10.4580 C   0  0  0  0  0  0  0  0  0  0  0  0
   28.1104  -20.4416  -10.3836 N   0  0  0  0  0  0  0  0  0  0  0  0
   24.1588  -21.2434  -13.2249 C   0  0  0  0  0  0  0  0  0  0  0  0
   23.3856  -21.6696  -12.3226 O   0  0  0  0  0  0  0  0  0  0  0  0
   23.5417  -20.6615  -14.3505 N   0  0  0  0  0  0  0  0  0  0  0  0
   22.1003  -20.5792  -14.5084 C   0  0  0  0  0  0  0  0  0  0  0  0
   21.5378  -19.3924  -13.8574 C   0  0  0  0  0  0  0  0  0  0  0  0
   21.9947  -18.2693  -14.1577 O   0  0  0  0  0  0  0  0  0  0  0  0
   20.5194  -19.5581  -12.9323 O   0  0  0  0  0  0  0  0  0  0  0  0
  2  1  1  1
  2  4  1  0
  2  3  1  0
  4  6  1  0
  4  5  1  6
  6  7  2  0
  8  9  1  0
  8  6  1  0
  9 16  1  0
  9 10  1  1
 11 10  1  0
 11 15  1  0
 12 13  1  0
 12 11  2  0
 13 14  1  0
 14 15  2  0
 16 17  2  0
 18 16  1  0
 18 19  1  0
 19 20  1  0
 20 21  2  0
 20 22  1  0
M  END
$$$$
