THG.pdb
     RDKit          3D

 22 22  0  0  1  0  0  0  0  0999 V2000
   25.9770  -23.9088  -16.0587 C   0  0  0  0  0  0  0  0  0  0  0  0
   27.3453  -23.4265  -16.4267 C   0  0  1  0  0  0  0  0  0  0  0  0
   27.9544  -24.1874  -17.4020 O   0  0  0  0  0  0  0  0  0  0  0  0
   27.3012  -21.9846  -16.8759 C   0  0  2  0  0  0  0  0  0  0  0  0
   28.6323  -21.4603  -17.1120 N   0  0  0  0  0  0  0  0  0  0  0  0
   26.6434  -21.1031  -15.8792 C   0  0  0  0  0  0  0  0  0  0  0  0
   27.2236  -20.8007  -14.8056 O   0  0  0  0  0  0  0  0  0  0  0  0
   25.3400  -20.5702  -16.0991 N   0  0  0  0  0  0  0  0  0  0  0  0
   24.6768  -19.7129  -15.1286 C   0  0  1  0  0  0  0  0  0  0  0  0
   24.2700  -18.3969  -15.7373 C   0  0  0  0  0  0  0  0  0  0  0  0
   25.4014  -17.5270  -16.1024 C   0  0  0  0  0  0  0  0  0  0  0  0
   26.4394  -17.2092  -15.2704 C   0  0  0  0  0  0  0  0  0  0  0  0
   27.3164  -16.3860  -15.9152 N   0  0  0  0  0  0  0  0  0  0  0  0
   26.7856  -16.2188  -17.1419 C   0  0  0  0  0  0  0  0  0  0  0  0
   25.6357  -16.8995  -17.2650 N   0  0  0  0  0  0  0  0  0  0  0  0
   23.4378  -20.4091  -14.7074 C   0  0  0  0  0  0  0  0  0  0  0  0
   22.8006  -21.1821  -15.4756 O   0  0  0  0  0  0  0  0  0  0  0  0
   22.9056  -20.2388  -13.4135 N   0  0  0  0  0  0  0  0  0  0  0  0
   21.7537  -20.9783  -12.9281 C   0  0  0  0  0  0  0  0  0  0  0  0
   20.4945  -20.4671  -13.4774 C   0  0  0  0  0  0  0  0  0  0  0  0
   19.4180  -20.8844  -13.0005 O   0  0  0  0  0  0  0  0  0  0  0  0
   20.5426  -19.5395  -14.5057 O   0  0  0  0  0  0  0  0  0  0  0  0
  2  1  1  6
  2  4  1  0
  2  3  1  0
  4  6  1  0
  4  5  1  1
  6  7  2  0
  8  9  1  0
  8  6  1  0
  9 16  1  0
  9 10  1  6
 11 10  1  0
 11 15  1  0
 12 13  1  0
 12 11  2  0
 13 14  1  0
 14 15  2  0
 16 17  2  0
 18 16  1  0
 18 19  1  0
 19 20  1  0
 20 21  2  0
 20 22  1  0
M  END
$$$$
