THG.pdb
     RDKit          3D

 22 22  0  0  1  0  0  0  0  0999 V2000
   16.2945   -9.7040  -18.0830 C   0  0  0  0  0  0  0  0  0  0  0  0
   17.4331   -9.4557  -17.1437 C   0  0  1  0  0  0  0  0  0  0  0  0
   17.0321   -9.1142  -15.8693 O   0  0  0  0  0  0  0  0  0  0  0  0
   18.3409  -10.6613  -17.0734 C   0  0  2  0  0  0  0  0  0  0  0  0
   17.6577  -11.8091  -16.5091 N   0  0  0  0  0  0  0  0  0  0  0  0
   19.5494  -10.4101  -16.2490 C   0  0  0  0  0  0  0  0  0  0  0  0
   19.6890  -10.9607  -15.1274 O   0  0  0  0  0  0  0  0  0  0  0  0
   20.5891   -9.5426  -16.6936 N   0  0  0  0  0  0  0  0  0  0  0  0
   21.7205   -9.1890  -15.8500 C   0  0  1  0  0  0  0  0  0  0  0  0
   23.0183   -9.2400  -16.6122 C   0  0  0  0  0  0  0  0  0  0  0  0
   23.4452  -10.6001  -16.9838 C   0  0  0  0  0  0  0  0  0  0  0  0
   22.8602  -11.7507  -16.5316 C   0  0  0  0  0  0  0  0  0  0  0  0
   23.4939  -12.8350  -17.0656 N   0  0  0  0  0  0  0  0  0  0  0  0
   24.4637  -12.3134  -17.8414 C   0  0  0  0  0  0  0  0  0  0  0  0
   24.4434  -10.9722  -17.7996 N   0  0  0  0  0  0  0  0  0  0  0  0
   21.5169   -7.7872  -15.4134 C   0  0  0  0  0  0  0  0  0  0  0  0
   20.9496   -6.9264  -16.1420 O   0  0  0  0  0  0  0  0  0  0  0  0
   21.9525   -7.3433  -14.1487 N   0  0  0  0  0  0  0  0  0  0  0  0
   21.7205   -5.9953  -13.6601 C   0  0  0  0  0  0  0  0  0  0  0  0
   22.2353   -4.9759  -14.5790 C   0  0  0  0  0  0  0  0  0  0  0  0
   21.5555   -3.9466  -14.7758 O   0  0  0  0  0  0  0  0  0  0  0  0
   23.4573   -5.1898  -15.1965 O   0  0  0  0  0  0  0  0  0  0  0  0
  2  1  1  6
  2  4  1  0
  2  3  1  0
  4  6  1  0
  4  5  1  1
  6  7  2  0
  8  9  1  0
  8  6  1  0
  9 16  1  0
  9 10  1  6
 11 10  1  0
 11 15  1  0
 12 13  1  0
 12 11  2  0
 13 14  1  0
 14 15  2  0
 16 17  2  0
 18 16  1  0
 18 19  1  0
 19 20  1  0
 20 21  2  0
 20 22  1  0
M  END
$$$$
