THG.pdb
     RDKit          3D

 22 22  0  0  1  0  0  0  0  0999 V2000
   38.0395   -9.7876   -6.9314 C   0  0  0  0  0  0  0  0  0  0  0  0
   39.3898   -9.6659   -6.2973 C   0  0  1  0  0  0  0  0  0  0  0  0
   39.7131  -10.7286   -5.4802 O   0  0  0  0  0  0  0  0  0  0  0  0
   40.4619   -9.5032   -7.3494 C   0  0  2  0  0  0  0  0  0  0  0  0
   41.7888   -9.5321   -6.7653 N   0  0  0  0  0  0  0  0  0  0  0  0
   40.3298   -8.2278   -8.0970 C   0  0  0  0  0  0  0  0  0  0  0  0
   41.0232   -7.2258   -7.7874 O   0  0  0  0  0  0  0  0  0  0  0  0
   39.4196   -8.0913   -9.1851 N   0  0  0  0  0  0  0  0  0  0  0  0
   39.2200   -6.8275   -9.8778 C   0  0  1  0  0  0  0  0  0  0  0  0
   38.3804   -7.0000  -11.1161 C   0  0  0  0  0  0  0  0  0  0  0  0
   38.1361   -5.7503  -11.8568 C   0  0  0  0  0  0  0  0  0  0  0  0
   38.6088   -4.5211  -11.4875 C   0  0  0  0  0  0  0  0  0  0  0  0
   38.2034   -3.5781  -12.3869 N   0  0  0  0  0  0  0  0  0  0  0  0
   37.4833   -4.2634  -13.2959 C   0  0  0  0  0  0  0  0  0  0  0  0
   37.4365   -5.5685  -12.9871 N   0  0  0  0  0  0  0  0  0  0  0  0
   38.4738   -5.9386   -8.9558 C   0  0  0  0  0  0  0  0  0  0  0  0
   37.3623   -6.2636   -8.4530 O   0  0  0  0  0  0  0  0  0  0  0  0
   38.9758   -4.6728   -8.5923 N   0  0  0  0  0  0  0  0  0  0  0  0
   38.3513   -3.8335   -7.5848 C   0  0  0  0  0  0  0  0  0  0  0  0
   39.0403   -2.5493   -7.4277 C   0  0  0  0  0  0  0  0  0  0  0  0
   40.0992   -2.3545   -8.0612 O   0  0  0  0  0  0  0  0  0  0  0  0
   38.4931   -1.5971   -6.5826 O   0  0  0  0  0  0  0  0  0  0  0  0
  2  1  1  6
  2  4  1  0
  2  3  1  0
  4  6  1  0
  4  5  1  1
  6  7  2  0
  8  9  1  0
  8  6  1  0
  9 16  1  0
  9 10  1  6
 11 10  1  0
 11 15  1  0
 12 13  1  0
 12 11  2  0
 13 14  1  0
 14 15  2  0
 16 17  2  0
 18 16  1  0
 18 19  1  0
 19 20  1  0
 20 21  2  0
 20 22  1  0
M  END
$$$$
