THG.pdb
     RDKit          3D

 22 22  0  0  1  0  0  0  0  0999 V2000
   27.0149  -11.0730  -15.0998 C   0  0  0  0  0  0  0  0  0  0  0  0
   25.8914  -10.1992  -15.5627 C   0  0  1  0  0  0  0  0  0  0  0  0
   26.2810   -9.2315  -16.4645 O   0  0  0  0  0  0  0  0  0  0  0  0
   24.7844  -11.0287  -16.1705 C   0  0  2  0  0  0  0  0  0  0  0  0
   25.2089  -11.6586  -17.4057 N   0  0  0  0  0  0  0  0  0  0  0  0
   23.5756  -10.2220  -16.4721 C   0  0  0  0  0  0  0  0  0  0  0  0
   23.2881   -9.9115  -17.6560 O   0  0  0  0  0  0  0  0  0  0  0  0
   22.7017   -9.7722  -15.4400 N   0  0  0  0  0  0  0  0  0  0  0  0
   21.4685   -9.0543  -15.7235 C   0  0  1  0  0  0  0  0  0  0  0  0
   20.2557   -9.8677  -15.3556 C   0  0  0  0  0  0  0  0  0  0  0  0
   20.0367  -11.0444  -16.2144 C   0  0  0  0  0  0  0  0  0  0  0  0
   19.9638  -11.0092  -17.5797 C   0  0  0  0  0  0  0  0  0  0  0  0
   19.7544  -12.2669  -18.0664 N   0  0  0  0  0  0  0  0  0  0  0  0
   19.7039  -13.0503  -16.9718 C   0  0  0  0  0  0  0  0  0  0  0  0
   19.8723  -12.3264  -15.8544 N   0  0  0  0  0  0  0  0  0  0  0  0
   21.4648   -7.8415  -14.8712 C   0  0  0  0  0  0  0  0  0  0  0  0
   21.8646   -7.8538  -13.6739 O   0  0  0  0  0  0  0  0  0  0  0  0
   21.0091   -6.6019  -15.3632 N   0  0  0  0  0  0  0  0  0  0  0  0
   21.0775   -5.3718  -14.5940 C   0  0  0  0  0  0  0  0  0  0  0  0
   22.3885   -4.7245  -14.6983 C   0  0  0  0  0  0  0  0  0  0  0  0
   23.2776   -5.2753  -15.3812 O   0  0  0  0  0  0  0  0  0  0  0  0
   22.5953   -3.5250  -14.0359 O   0  0  0  0  0  0  0  0  0  0  0  0
  2  1  1  6
  2  4  1  0
  2  3  1  0
  4  6  1  0
  4  5  1  6
  6  7  2  0
  8  9  1  0
  8  6  1  0
  9 16  1  0
  9 10  1  1
 11 10  1  0
 11 15  1  0
 12 13  1  0
 12 11  2  0
 13 14  1  0
 14 15  2  0
 16 17  2  0
 18 16  1  0
 18 19  1  0
 19 20  1  0
 20 21  2  0
 20 22  1  0
M  END
$$$$
