THG.pdb
     RDKit          3D

 22 22  0  0  1  0  0  0  0  0999 V2000
   20.7060  -15.9642  -17.9357 C   0  0  0  0  0  0  0  0  0  0  0  0
   20.9189  -17.2374  -17.1782 C   0  0  1  0  0  0  0  0  0  0  0  0
   19.8757  -18.1312  -17.2977 O   0  0  0  0  0  0  0  0  0  0  0  0
   22.2013  -17.9090  -17.6110 C   0  0  2  0  0  0  0  0  0  0  0  0
   22.1439  -18.3193  -19.0006 N   0  0  0  0  0  0  0  0  0  0  0  0
   22.5082  -19.1142  -16.8008 C   0  0  0  0  0  0  0  0  0  0  0  0
   22.3111  -20.2670  -17.2623 O   0  0  0  0  0  0  0  0  0  0  0  0
   23.0336  -19.0117  -15.4800 N   0  0  0  0  0  0  0  0  0  0  0  0
   23.4018  -20.1814  -14.6969 C   0  0  1  0  0  0  0  0  0  0  0  0
   24.6176  -19.9202  -13.8475 C   0  0  0  0  0  0  0  0  0  0  0  0
   25.0922  -21.0961  -13.0977 C   0  0  0  0  0  0  0  0  0  0  0  0
   24.5065  -22.3316  -13.1347 C   0  0  0  0  0  0  0  0  0  0  0  0
   25.1909  -23.1945  -12.3287 N   0  0  0  0  0  0  0  0  0  0  0  0
   26.1914  -22.4551  -11.8121 C   0  0  0  0  0  0  0  0  0  0  0  0
   26.1414  -21.1937  -12.2672 N   0  0  0  0  0  0  0  0  0  0  0  0
   22.2722  -20.4647  -13.7800 C   0  0  0  0  0  0  0  0  0  0  0  0
   22.3314  -21.3552  -12.8870 O   0  0  0  0  0  0  0  0  0  0  0  0
   21.0634  -19.7447  -13.8626 N   0  0  0  0  0  0  0  0  0  0  0  0
   19.8829  -20.0892  -13.0898 C   0  0  0  0  0  0  0  0  0  0  0  0
   19.1042  -21.1622  -13.7149 C   0  0  0  0  0  0  0  0  0  0  0  0
   19.5303  -21.6769  -14.7703 O   0  0  0  0  0  0  0  0  0  0  0  0
   17.9234  -21.5676  -13.1135 O   0  0  0  0  0  0  0  0  0  0  0  0
  2  1  1  6
  2  4  1  0
  2  3  1  0
  4  6  1  0
  4  5  1  6
  6  7  2  0
  8  9  1  0
  8  6  1  0
  9 16  1  0
  9 10  1  1
 11 10  1  0
 11 15  1  0
 12 13  1  0
 12 11  2  0
 13 14  1  0
 14 15  2  0
 16 17  2  0
 18 16  1  0
 18 19  1  0
 19 20  1  0
 20 21  2  0
 20 22  1  0
M  END
$$$$
