THG.pdb
     RDKit          3D

 22 22  0  0  1  0  0  0  0  0999 V2000
   23.7557  -10.0139  -15.0499 C   0  0  0  0  0  0  0  0  0  0  0  0
   23.6351  -11.0496  -16.1236 C   0  0  1  0  0  0  0  0  0  0  0  0
   24.3326  -12.2080  -15.8533 O   0  0  0  0  0  0  0  0  0  0  0  0
   22.1852  -11.3899  -16.3779 C   0  0  2  0  0  0  0  0  0  0  0  0
   22.0466  -12.3636  -17.4435 N   0  0  0  0  0  0  0  0  0  0  0  0
   21.3836  -10.1985  -16.7535 C   0  0  0  0  0  0  0  0  0  0  0  0
   21.5767   -9.6123  -17.8488 O   0  0  0  0  0  0  0  0  0  0  0  0
   20.3729   -9.6778  -15.8941 N   0  0  0  0  0  0  0  0  0  0  0  0
   19.5781   -8.5112  -16.2466 C   0  0  1  0  0  0  0  0  0  0  0  0
   18.1089   -8.7515  -16.0193 C   0  0  0  0  0  0  0  0  0  0  0  0
   17.4840   -9.6429  -17.0118 C   0  0  0  0  0  0  0  0  0  0  0  0
   18.1197  -10.1520  -18.1106 C   0  0  0  0  0  0  0  0  0  0  0  0
   17.2604  -10.9387  -18.8215 N   0  0  0  0  0  0  0  0  0  0  0  0
   16.1053  -10.8904  -18.1303 C   0  0  0  0  0  0  0  0  0  0  0  0
   16.2285  -10.1152  -17.0418 N   0  0  0  0  0  0  0  0  0  0  0  0
   19.9932   -7.4122  -15.3427 C   0  0  0  0  0  0  0  0  0  0  0  0
   19.8044   -7.4532  -14.0952 O   0  0  0  0  0  0  0  0  0  0  0  0
   20.6259   -6.2549  -15.8394 N   0  0  0  0  0  0  0  0  0  0  0  0
   21.1213   -5.1936  -14.9805 C   0  0  0  0  0  0  0  0  0  0  0  0
   22.1794   -5.6580  -14.0786 C   0  0  0  0  0  0  0  0  0  0  0  0
   22.4845   -6.8693  -14.0844 O   0  0  0  0  0  0  0  0  0  0  0  0
   22.8036   -4.7375  -13.2519 O   0  0  0  0  0  0  0  0  0  0  0  0
  2  1  1  1
  2  4  1  0
  2  3  1  0
  4  6  1  0
  4  5  1  6
  6  7  2  0
  8  9  1  0
  8  6  1  0
  9 16  1  0
  9 10  1  1
 11 10  1  0
 11 15  1  0
 12 13  1  0
 12 11  2  0
 13 14  1  0
 14 15  2  0
 16 17  2  0
 18 16  1  0
 18 19  1  0
 19 20  1  0
 20 21  2  0
 20 22  1  0
M  END
$$$$
