THG.pdb
     RDKit          3D

 22 22  0  0  1  0  0  0  0  0999 V2000
   37.4406  -30.0548  -21.7263 C   0  0  0  0  0  0  0  0  0  0  0  0
   36.0505  -30.5358  -22.0027 C   0  0  1  0  0  0  0  0  0  0  0  0
   35.9585  -31.9043  -22.1446 O   0  0  0  0  0  0  0  0  0  0  0  0
   35.1023  -30.0835  -20.9169 C   0  0  2  0  0  0  0  0  0  0  0  0
   35.1238  -28.6423  -20.7587 N   0  0  0  0  0  0  0  0  0  0  0  0
   35.4269  -30.6833  -19.5986 C   0  0  0  0  0  0  0  0  0  0  0  0
   36.3507  -30.2124  -18.8875 O   0  0  0  0  0  0  0  0  0  0  0  0
   34.7100  -31.8063  -19.0926 N   0  0  0  0  0  0  0  0  0  0  0  0
   35.0834  -32.4735  -17.8547 C   0  0  1  0  0  0  0  0  0  0  0  0
   34.2134  -32.0377  -16.7053 C   0  0  0  0  0  0  0  0  0  0  0  0
   34.3384  -30.6103  -16.3630 C   0  0  0  0  0  0  0  0  0  0  0  0
   33.3407  -29.6854  -16.5044 C   0  0  0  0  0  0  0  0  0  0  0  0
   33.7823  -28.4598  -16.0979 N   0  0  0  0  0  0  0  0  0  0  0  0
   35.0562  -28.6686  -15.7130 C   0  0  0  0  0  0  0  0  0  0  0  0
   35.4002  -29.9564  -15.8680 N   0  0  0  0  0  0  0  0  0  0  0  0
   34.8578  -33.9244  -18.0569 C   0  0  0  0  0  0  0  0  0  0  0  0
   34.0509  -34.3709  -18.9191 O   0  0  0  0  0  0  0  0  0  0  0  0
   35.5418  -34.8864  -17.2866 N   0  0  0  0  0  0  0  0  0  0  0  0
   35.3726  -36.3166  -17.4747 C   0  0  0  0  0  0  0  0  0  0  0  0
   36.1599  -36.8249  -18.6017 C   0  0  0  0  0  0  0  0  0  0  0  0
   36.7808  -36.0101  -19.3166 O   0  0  0  0  0  0  0  0  0  0  0  0
   36.1878  -38.1907  -18.8344 O   0  0  0  0  0  0  0  0  0  0  0  0
  2  1  1  1
  2  4  1  0
  2  3  1  0
  4  6  1  0
  4  5  1  1
  6  7  2  0
  8  9  1  0
  8  6  1  0
  9 16  1  0
  9 10  1  1
 11 10  1  0
 11 15  1  0
 12 13  1  0
 12 11  2  0
 13 14  1  0
 14 15  2  0
 16 17  2  0
 18 16  1  0
 18 19  1  0
 19 20  1  0
 20 21  2  0
 20 22  1  0
M  END
$$$$
