THG.pdb
     RDKit          3D

 22 22  0  0  1  0  0  0  0  0999 V2000
   24.3594  -11.2342  -19.4942 C   0  0  0  0  0  0  0  0  0  0  0  0
   23.1535  -10.4031  -19.1856 C   0  0  1  0  0  0  0  0  0  0  0  0
   22.5266   -9.9029  -20.3073 O   0  0  0  0  0  0  0  0  0  0  0  0
   22.1564  -11.1905  -18.3680 C   0  0  2  0  0  0  0  0  0  0  0  0
   21.5948  -12.2897  -19.1291 N   0  0  0  0  0  0  0  0  0  0  0  0
   21.0273  -10.3515  -17.8943 C   0  0  0  0  0  0  0  0  0  0  0  0
   20.0355  -10.1300  -18.6345 O   0  0  0  0  0  0  0  0  0  0  0  0
   21.0243   -9.7698  -16.5932 N   0  0  0  0  0  0  0  0  0  0  0  0
   19.8685   -9.0656  -16.0592 C   0  0  1  0  0  0  0  0  0  0  0  0
   19.3371   -9.7327  -14.8180 C   0  0  0  0  0  0  0  0  0  0  0  0
   18.4016  -10.8394  -15.0828 C   0  0  0  0  0  0  0  0  0  0  0  0
   17.9896  -11.2299  -16.3272 C   0  0  0  0  0  0  0  0  0  0  0  0
   17.1261  -12.2815  -16.2220 N   0  0  0  0  0  0  0  0  0  0  0  0
   17.0304  -12.5108  -14.8981 C   0  0  0  0  0  0  0  0  0  0  0  0
   17.7922  -11.6506  -14.2049 N   0  0  0  0  0  0  0  0  0  0  0  0
   20.3251   -7.7092  -15.6734 C   0  0  0  0  0  0  0  0  0  0  0  0
   19.5229   -6.7953  -15.3345 O   0  0  0  0  0  0  0  0  0  0  0  0
   21.6934   -7.3713  -15.6666 N   0  0  0  0  0  0  0  0  0  0  0  0
   22.1806   -6.0513  -15.3065 C   0  0  0  0  0  0  0  0  0  0  0  0
   22.1913   -5.8406  -13.8560 C   0  0  0  0  0  0  0  0  0  0  0  0
   21.7665   -6.7510  -13.1137 O   0  0  0  0  0  0  0  0  0  0  0  0
   22.6722   -4.6395  -13.3594 O   0  0  0  0  0  0  0  0  0  0  0  0
  2  1  1  6
  2  4  1  0
  2  3  1  0
  4  6  1  0
  4  5  1  6
  6  7  2  0
  8  9  1  0
  8  6  1  0
  9 16  1  0
  9 10  1  1
 11 10  1  0
 11 15  1  0
 12 13  1  0
 12 11  2  0
 13 14  1  0
 14 15  2  0
 16 17  2  0
 18 16  1  0
 18 19  1  0
 19 20  1  0
 20 21  2  0
 20 22  1  0
M  END
$$$$
