THG.pdb
     RDKit          3D

 22 22  0  0  1  0  0  0  0  0999 V2000
   24.5715  -12.0388  -19.1857 C   0  0  0  0  0  0  0  0  0  0  0  0
   23.5737  -10.9761  -18.8462 C   0  0  1  0  0  0  0  0  0  0  0  0
   23.2123  -10.1948  -19.9234 O   0  0  0  0  0  0  0  0  0  0  0  0
   22.3333  -11.5833  -18.2336 C   0  0  2  0  0  0  0  0  0  0  0  0
   21.5661  -12.3275  -19.2135 N   0  0  0  0  0  0  0  0  0  0  0  0
   21.4345  -10.5584  -17.6462 C   0  0  0  0  0  0  0  0  0  0  0  0
   20.5425  -10.0101  -18.3420 O   0  0  0  0  0  0  0  0  0  0  0  0
   21.5475  -10.1601  -16.2825 N   0  0  0  0  0  0  0  0  0  0  0  0
   20.6376   -9.2011  -15.6748 C   0  0  1  0  0  0  0  0  0  0  0  0
   19.8822   -9.8069  -14.5213 C   0  0  0  0  0  0  0  0  0  0  0  0
   18.8399  -10.7676  -14.9223 C   0  0  0  0  0  0  0  0  0  0  0  0
   18.5234  -11.0781  -16.2162 C   0  0  0  0  0  0  0  0  0  0  0  0
   17.5171  -11.9998  -16.2398 N   0  0  0  0  0  0  0  0  0  0  0  0
   17.2399  -12.2330  -14.9424 C   0  0  0  0  0  0  0  0  0  0  0  0
   18.0284  -11.4983  -14.1428 N   0  0  0  0  0  0  0  0  0  0  0  0
   21.4660   -8.0980  -15.1326 C   0  0  0  0  0  0  0  0  0  0  0  0
   22.5353   -8.3045  -14.4942 O   0  0  0  0  0  0  0  0  0  0  0  0
   21.0945   -6.7496  -15.3061 N   0  0  0  0  0  0  0  0  0  0  0  0
   21.9720   -5.6389  -14.9806 C   0  0  0  0  0  0  0  0  0  0  0  0
   21.8796   -5.2541  -13.5692 C   0  0  0  0  0  0  0  0  0  0  0  0
   21.0916   -5.8775  -12.8271 O   0  0  0  0  0  0  0  0  0  0  0  0
   22.6692   -4.2128  -13.1082 O   0  0  0  0  0  0  0  0  0  0  0  0
  2  1  1  6
  2  4  1  0
  2  3  1  0
  4  6  1  0
  4  5  1  6
  6  7  2  0
  8  9  1  0
  8  6  1  0
  9 16  1  0
  9 10  1  1
 11 10  1  0
 11 15  1  0
 12 13  1  0
 12 11  2  0
 13 14  1  0
 14 15  2  0
 16 17  2  0
 18 16  1  0
 18 19  1  0
 19 20  1  0
 20 21  2  0
 20 22  1  0
M  END
$$$$
