THG.pdb
     RDKit          3D

 22 22  0  0  1  0  0  0  0  0999 V2000
   21.1161  -12.7525  -20.4515 C   0  0  0  0  0  0  0  0  0  0  0  0
   20.4775  -12.1902  -19.2202 C   0  0  1  0  0  0  0  0  0  0  0  0
   20.2327  -13.1345  -18.2456 O   0  0  0  0  0  0  0  0  0  0  0  0
   21.3233  -11.0820  -18.6377 C   0  0  2  0  0  0  0  0  0  0  0  0
   22.4101  -11.6084  -17.8350 N   0  0  0  0  0  0  0  0  0  0  0  0
   20.5357  -10.1639  -17.7775 C   0  0  0  0  0  0  0  0  0  0  0  0
   19.5387   -9.5499  -18.2354 O   0  0  0  0  0  0  0  0  0  0  0  0
   20.8765   -9.9452  -16.4110 N   0  0  0  0  0  0  0  0  0  0  0  0
   20.1681   -8.9862  -15.5771 C   0  0  1  0  0  0  0  0  0  0  0  0
   19.5532   -9.6470  -14.3716 C   0  0  0  0  0  0  0  0  0  0  0  0
   18.4637  -10.5861  -14.6899 C   0  0  0  0  0  0  0  0  0  0  0  0
   17.3743  -10.2829  -15.4594 C   0  0  0  0  0  0  0  0  0  0  0  0
   16.5576  -11.3719  -15.5581 N   0  0  0  0  0  0  0  0  0  0  0  0
   17.1763  -12.3266  -14.8368 C   0  0  0  0  0  0  0  0  0  0  0  0
   18.3217  -11.8653  -14.3111 N   0  0  0  0  0  0  0  0  0  0  0  0
   21.1712   -8.0118  -15.0858 C   0  0  0  0  0  0  0  0  0  0  0  0
   22.3514   -8.3465  -14.7877 O   0  0  0  0  0  0  0  0  0  0  0  0
   20.8510   -6.6486  -14.9260 N   0  0  0  0  0  0  0  0  0  0  0  0
   21.8034   -5.6632  -14.4450 C   0  0  0  0  0  0  0  0  0  0  0  0
   21.8562   -5.6110  -12.9811 C   0  0  0  0  0  0  0  0  0  0  0  0
   22.5903   -4.7595  -12.4366 O   0  0  0  0  0  0  0  0  0  0  0  0
   21.0903   -6.5076  -12.2531 O   0  0  0  0  0  0  0  0  0  0  0  0
  2  1  1  6
  2  4  1  0
  2  3  1  0
  4  6  1  0
  4  5  1  1
  6  7  2  0
  8  9  1  0
  8  6  1  0
  9 16  1  0
  9 10  1  1
 11 10  1  0
 11 15  1  0
 12 13  1  0
 12 11  2  0
 13 14  1  0
 14 15  2  0
 16 17  2  0
 18 16  1  0
 18 19  1  0
 19 20  1  0
 20 21  2  0
 20 22  1  0
M  END
$$$$
