THG.pdb
     RDKit          3D

 22 22  0  0  1  0  0  0  0  0999 V2000
   24.3989   -6.5501  -19.5195 C   0  0  0  0  0  0  0  0  0  0  0  0
   23.6329   -7.5678  -20.3055 C   0  0  1  0  0  0  0  0  0  0  0  0
   24.3340   -8.0789  -21.3772 O   0  0  0  0  0  0  0  0  0  0  0  0
   23.1855   -8.7043  -19.4162 C   0  0  2  0  0  0  0  0  0  0  0  0
   22.4560   -9.7095  -20.1645 N   0  0  0  0  0  0  0  0  0  0  0  0
   22.3075   -8.2442  -18.3114 C   0  0  0  0  0  0  0  0  0  0  0  0
   21.1117   -7.9238  -18.5308 O   0  0  0  0  0  0  0  0  0  0  0  0
   22.7823   -8.1487  -16.9710 N   0  0  0  0  0  0  0  0  0  0  0  0
   21.9276   -7.7269  -15.8717 C   0  0  1  0  0  0  0  0  0  0  0  0
   21.7622   -8.8181  -14.8472 C   0  0  0  0  0  0  0  0  0  0  0  0
   20.8070   -9.8698  -15.2366 C   0  0  0  0  0  0  0  0  0  0  0  0
   19.9957   -9.8165  -16.3364 C   0  0  0  0  0  0  0  0  0  0  0  0
   19.2352  -10.9474  -16.4080 N   0  0  0  0  0  0  0  0  0  0  0  0
   19.6054  -11.6738  -15.3357 C   0  0  0  0  0  0  0  0  0  0  0  0
   20.5487  -11.0360  -14.6255 N   0  0  0  0  0  0  0  0  0  0  0  0
   22.6058   -6.5903  -15.2043 C   0  0  0  0  0  0  0  0  0  0  0  0
   23.8599   -6.5330  -15.0717 O   0  0  0  0  0  0  0  0  0  0  0  0
   21.8736   -5.5065  -14.6793 N   0  0  0  0  0  0  0  0  0  0  0  0
   22.5025   -4.3505  -14.0648 C   0  0  0  0  0  0  0  0  0  0  0  0
   22.4866   -3.1775  -14.9437 C   0  0  0  0  0  0  0  0  0  0  0  0
   22.0278   -3.2991  -16.0992 O   0  0  0  0  0  0  0  0  0  0  0  0
   22.9807   -1.9757  -14.4622 O   0  0  0  0  0  0  0  0  0  0  0  0
  2  1  1  1
  2  4  1  0
  2  3  1  0
  4  6  1  0
  4  5  1  6
  6  7  2  0
  8  9  1  0
  8  6  1  0
  9 16  1  0
  9 10  1  1
 11 10  1  0
 11 15  1  0
 12 13  1  0
 12 11  2  0
 13 14  1  0
 14 15  2  0
 16 17  2  0
 18 16  1  0
 18 19  1  0
 19 20  1  0
 20 21  2  0
 20 22  1  0
M  END
$$$$
