THG.pdb
     RDKit          3D

 22 22  0  0  1  0  0  0  0  0999 V2000
   23.5454   -7.3567  -20.8810 C   0  0  0  0  0  0  0  0  0  0  0  0
   22.4612   -7.2213  -19.8580 C   0  0  1  0  0  0  0  0  0  0  0  0
   21.4474   -8.1445  -20.0035 O   0  0  0  0  0  0  0  0  0  0  0  0
   23.0284   -7.3212  -18.4613 C   0  0  2  0  0  0  0  0  0  0  0  0
   23.4362   -8.6772  -18.1488 N   0  0  0  0  0  0  0  0  0  0  0  0
   22.0541   -6.8969  -17.4250 C   0  0  0  0  0  0  0  0  0  0  0  0
   20.8237   -6.8504  -17.6793 O   0  0  0  0  0  0  0  0  0  0  0  0
   22.4725   -6.5290  -16.1132 N   0  0  0  0  0  0  0  0  0  0  0  0
   21.5310   -6.1115  -15.0855 C   0  0  1  0  0  0  0  0  0  0  0  0
   21.4647   -7.1062  -13.9567 C   0  0  0  0  0  0  0  0  0  0  0  0
   20.7169   -8.3338  -14.2791 C   0  0  0  0  0  0  0  0  0  0  0  0
   20.1574   -8.6076  -15.4967 C   0  0  0  0  0  0  0  0  0  0  0  0
   19.5385   -9.8234  -15.4608 N   0  0  0  0  0  0  0  0  0  0  0  0
   19.7377  -10.2687  -14.2052 C   0  0  0  0  0  0  0  0  0  0  0  0
   20.4441   -9.3819  -13.4872 N   0  0  0  0  0  0  0  0  0  0  0  0
   22.0364   -4.8361  -14.5242 C   0  0  0  0  0  0  0  0  0  0  0  0
   23.2298   -4.6913  -14.1388 O   0  0  0  0  0  0  0  0  0  0  0  0
   21.1981   -3.7108  -14.3922 N   0  0  0  0  0  0  0  0  0  0  0  0
   21.6537   -2.4446  -13.8459 C   0  0  0  0  0  0  0  0  0  0  0  0
   20.5968   -1.4289  -13.8437 C   0  0  0  0  0  0  0  0  0  0  0  0
   19.4983   -1.7042  -14.3709 O   0  0  0  0  0  0  0  0  0  0  0  0
   20.8533   -0.1998  -13.2573 O   0  0  0  0  0  0  0  0  0  0  0  0
  2  1  1  6
  2  4  1  0
  2  3  1  0
  4  6  1  0
  4  5  1  1
  6  7  2  0
  8  9  1  0
  8  6  1  0
  9 16  1  0
  9 10  1  1
 11 10  1  0
 11 15  1  0
 12 13  1  0
 12 11  2  0
 13 14  1  0
 14 15  2  0
 16 17  2  0
 18 16  1  0
 18 19  1  0
 19 20  1  0
 20 21  2  0
 20 22  1  0
M  END
$$$$
