NEY.pdb
     RDKit          3D

 30 30  0  0  1  0  0  0  0  0999 V2000
    8.2609  -12.5946   17.1856 N   0  0  0  0  0  0  0  0  0  0  0  0
    7.6294  -13.8542   17.0642 C   0  0  0  0  0  0  0  0  0  0  0  0
    7.0329  -14.1987   16.0220 O   0  0  0  0  0  0  0  0  0  0  0  0
    7.6706  -14.7945   18.1946 C   0  0  0  0  0  0  0  0  0  0  0  0
    8.2205  -14.1133   19.4415 C   0  0  2  0  0  0  0  0  0  0  0  0
    9.5050  -13.5320   19.1606 N   0  0  0  0  0  0  0  0  0  0  0  0
    8.3508  -15.1955   20.4814 C   0  0  0  0  0  0  0  0  0  0  0  0
    7.2715  -15.7291   20.8850 O   0  0  0  0  0  0  0  0  0  0  0  0
    9.6385  -15.5341   20.9257 N   0  0  0  0  0  0  0  0  0  0  0  0
    9.8838  -16.4923   21.9469 C   0  0  1  0  0  0  0  0  0  0  0  0
   11.0857  -17.3914   21.7018 C   0  0  0  0  0  0  0  0  0  0  0  0
   12.0862  -16.7937   20.7487 C   0  0  0  0  0  0  0  0  0  0  0  0
   13.2079  -17.7735   20.5906 C   0  0  0  0  0  0  0  0  0  0  0  0
   13.0589  -18.8241   19.9187 O   0  0  0  0  0  0  0  0  0  0  0  0
    9.9260  -15.9719   23.3041 C   0  0  0  0  0  0  0  0  0  0  0  0
   10.1800  -14.7464   23.5697 O   0  0  0  0  0  0  0  0  0  0  0  0
   14.4427  -17.5340   21.1901 O   0  0  0  0  0  0  0  0  0  0  0  0
    6.3147  -10.7361   26.7737 O   0  0  0  0  0  0  0  0  0  0  0  0
    6.6144  -12.0190   26.3265 C   0  0  0  0  0  0  0  0  0  0  0  0
    7.3003  -12.1846   25.1461 C   0  0  0  0  0  0  0  0  0  0  0  0
    7.6034  -13.4415   24.6916 C   0  0  0  0  0  0  0  0  0  0  0  0
    7.2308  -14.5548   25.4009 C   0  0  0  0  0  0  0  0  0  0  0  0
    7.5589  -15.8878   24.9064 C   0  0  0  0  0  0  0  0  0  0  0  0
    8.8341  -16.3884   25.5395 C   0  0  2  0  0  0  0  0  0  0  0  0
    9.6853  -16.7993   24.4131 N   0  0  0  0  0  0  0  0  0  0  0  0
    8.6644  -17.4684   26.5039 C   0  0  0  0  0  0  0  0  0  0  0  0
    9.1241  -18.7400   26.2341 O   0  0  0  0  0  0  0  0  0  0  0  0
    6.5315  -14.4339   26.6071 C   0  0  0  0  0  0  0  0  0  0  0  0
    6.2502  -13.1498   27.0223 C   0  0  0  0  0  0  0  0  0  0  0  0
    8.0935  -17.2599   27.6011 O   0  0  0  0  0  0  0  0  0  0  0  0
  2  1  1  0
  3  2  2  0
  4  5  1  0
  4  2  1  0
  5  6  1  6
  7  8  2  0
  7  5  1  0
  9  7  1  0
 10  9  1  0
 11 12  1  0
 10 11  1  6
 12 13  1  0
 13 14  2  0
 13 17  1  0
 15 16  2  0
 15 10  1  0
 18 19  1  0
 19 20  2  0
 20 21  1  0
 22 23  1  0
 22 21  2  0
 24 23  1  6
 24 25  1  0
 25 15  1  0
 26 24  1  0
 27 26  1  0
 28 22  1  0
 29 28  2  0
 29 19  1  0
 30 26  2  0
M  END
$$$$
