NEY.pdb
     RDKit          3D

 30 30  0  0  1  0  0  0  0  0999 V2000
    8.3832  -12.6503   17.6399 N   0  0  0  0  0  0  0  0  0  0  0  0
    7.7635  -13.8863   17.3431 C   0  0  0  0  0  0  0  0  0  0  0  0
    7.4202  -14.1935   16.1818 O   0  0  0  0  0  0  0  0  0  0  0  0
    7.5113  -14.8465   18.4283 C   0  0  0  0  0  0  0  0  0  0  0  0
    7.9309  -14.2629   19.7716 C   0  0  2  0  0  0  0  0  0  0  0  0
    9.1097  -13.4556   19.6125 N   0  0  0  0  0  0  0  0  0  0  0  0
    8.2195  -15.4421   20.6637 C   0  0  0  0  0  0  0  0  0  0  0  0
    7.2967  -16.3066   20.7797 O   0  0  0  0  0  0  0  0  0  0  0  0
    9.4713  -15.5024   21.2959 N   0  0  0  0  0  0  0  0  0  0  0  0
    9.8135  -16.4952   22.2541 C   0  0  1  0  0  0  0  0  0  0  0  0
   11.1304  -17.2086   21.9900 C   0  0  0  0  0  0  0  0  0  0  0  0
   11.2914  -17.6408   20.5569 C   0  0  0  0  0  0  0  0  0  0  0  0
   12.6142  -18.3324   20.4343 C   0  0  0  0  0  0  0  0  0  0  0  0
   12.8718  -19.0651   19.4473 O   0  0  0  0  0  0  0  0  0  0  0  0
    9.7490  -16.0785   23.6458 C   0  0  0  0  0  0  0  0  0  0  0  0
   10.4000  -15.0754   24.1006 O   0  0  0  0  0  0  0  0  0  0  0  0
   13.5867  -18.1734   21.4195 O   0  0  0  0  0  0  0  0  0  0  0  0
    6.9647  -10.3976   25.8444 O   0  0  0  0  0  0  0  0  0  0  0  0
    7.0875  -11.7809   25.9272 C   0  0  0  0  0  0  0  0  0  0  0  0
    7.4346  -12.3622   27.1241 C   0  0  0  0  0  0  0  0  0  0  0  0
    7.5598  -13.7235   27.2226 C   0  0  0  0  0  0  0  0  0  0  0  0
    7.3424  -14.5303   26.1348 C   0  0  0  0  0  0  0  0  0  0  0  0
    7.4792  -15.9782   26.2520 C   0  0  0  0  0  0  0  0  0  0  0  0
    8.9073  -16.3971   26.0022 C   0  0  2  0  0  0  0  0  0  0  0  0
    8.9553  -16.7649   24.5793 N   0  0  0  0  0  0  0  0  0  0  0  0
    9.3933  -17.4782   26.8511 C   0  0  0  0  0  0  0  0  0  0  0  0
    9.7635  -18.6922   26.3124 O   0  0  0  0  0  0  0  0  0  0  0  0
    6.9873  -13.9823   24.8970 C   0  0  0  0  0  0  0  0  0  0  0  0
    6.8740  -12.6092   24.8484 C   0  0  0  0  0  0  0  0  0  0  0  0
    9.4828  -17.3233   28.0925 O   0  0  0  0  0  0  0  0  0  0  0  0
  2  1  1  0
  3  2  2  0
  4  5  1  0
  4  2  1  0
  5  6  1  6
  7  8  2  0
  7  5  1  0
  9  7  1  0
 10  9  1  0
 11 12  1  0
 10 11  1  6
 12 13  1  0
 13 14  2  0
 13 17  1  0
 15 16  2  0
 15 10  1  0
 18 19  1  0
 19 20  2  0
 20 21  1  0
 22 23  1  0
 22 21  2  0
 24 23  1  1
 24 25  1  0
 25 15  1  0
 26 24  1  0
 27 26  1  0
 28 22  1  0
 29 28  2  0
 29 19  1  0
 30 26  2  0
M  END
$$$$
