NEY.pdb
     RDKit          3D

 30 30  0  0  1  0  0  0  0  0999 V2000
    7.2191  -16.1223   16.6043 N   0  0  0  0  0  0  0  0  0  0  0  0
    7.7884  -14.8297   16.6758 C   0  0  0  0  0  0  0  0  0  0  0  0
    8.8145  -14.5211   16.0335 O   0  0  0  0  0  0  0  0  0  0  0  0
    7.1602  -13.8103   17.5301 C   0  0  0  0  0  0  0  0  0  0  0  0
    8.0961  -13.4059   18.6622 C   0  0  2  0  0  0  0  0  0  0  0  0
    9.3820  -13.0409   18.1333 N   0  0  0  0  0  0  0  0  0  0  0  0
    8.2190  -14.6165   19.5505 C   0  0  0  0  0  0  0  0  0  0  0  0
    7.1340  -15.1353   19.9580 O   0  0  0  0  0  0  0  0  0  0  0  0
    9.5067  -15.0805   19.8616 N   0  0  0  0  0  0  0  0  0  0  0  0
    9.7537  -16.1365   20.7808 C   0  0  1  0  0  0  0  0  0  0  0  0
   10.7652  -17.1692   20.3083 C   0  0  0  0  0  0  0  0  0  0  0  0
   10.3354  -17.8881   19.0573 C   0  0  0  0  0  0  0  0  0  0  0  0
   11.4375  -18.8243   18.6672 C   0  0  0  0  0  0  0  0  0  0  0  0
   12.4768  -18.4005   18.1037 O   0  0  0  0  0  0  0  0  0  0  0  0
   10.0640  -15.7292   22.1419 C   0  0  0  0  0  0  0  0  0  0  0  0
   10.8985  -14.7985   22.4144 O   0  0  0  0  0  0  0  0  0  0  0  0
   11.3270  -20.1893   18.9246 O   0  0  0  0  0  0  0  0  0  0  0  0
    6.1484  -11.4100   28.1804 O   0  0  0  0  0  0  0  0  0  0  0  0
    6.6779  -12.1599   27.1350 C   0  0  0  0  0  0  0  0  0  0  0  0
    5.8420  -12.6544   26.1615 C   0  0  0  0  0  0  0  0  0  0  0  0
    6.3476  -13.3949   25.1250 C   0  0  0  0  0  0  0  0  0  0  0  0
    7.6911  -13.6569   25.0375 C   0  0  0  0  0  0  0  0  0  0  0  0
    8.2174  -14.4469   23.9295 C   0  0  0  0  0  0  0  0  0  0  0  0
    9.0464  -15.5972   24.4461 C   0  0  2  0  0  0  0  0  0  0  0  0
    9.4540  -16.3446   23.2472 N   0  0  0  0  0  0  0  0  0  0  0  0
    8.3759  -16.4593   25.4119 C   0  0  0  0  0  0  0  0  0  0  0  0
    7.3792  -17.3267   25.0176 O   0  0  0  0  0  0  0  0  0  0  0  0
    8.5789  -13.1739   26.0056 C   0  0  0  0  0  0  0  0  0  0  0  0
    8.0227  -12.4347   27.0278 C   0  0  0  0  0  0  0  0  0  0  0  0
    8.6942  -16.4268   26.6247 O   0  0  0  0  0  0  0  0  0  0  0  0
  2  1  1  0
  3  2  2  0
  4  5  1  0
  4  2  1  0
  5  6  1  6
  7  8  2  0
  7  5  1  0
  9  7  1  0
 10  9  1  0
 11 12  1  0
 10 11  1  6
 12 13  1  0
 13 14  2  0
 13 17  1  0
 15 16  2  0
 15 10  1  0
 18 19  1  0
 19 20  2  0
 20 21  1  0
 22 23  1  0
 22 21  2  0
 24 23  1  6
 24 25  1  0
 25 15  1  0
 26 24  1  0
 27 26  1  0
 28 22  1  0
 29 28  2  0
 29 19  1  0
 30 26  2  0
M  END
$$$$
