NEY.pdb
     RDKit          3D

 30 30  0  0  1  0  0  0  0  0999 V2000
    6.5185  -12.5077   18.1296 N   0  0  0  0  0  0  0  0  0  0  0  0
    7.4906  -13.4269   18.5879 C   0  0  0  0  0  0  0  0  0  0  0  0
    8.4143  -13.8360   17.8530 O   0  0  0  0  0  0  0  0  0  0  0  0
    7.4203  -13.9223   19.9711 C   0  0  0  0  0  0  0  0  0  0  0  0
    8.8153  -14.0395   20.5722 C   0  0  2  0  0  0  0  0  0  0  0  0
    9.7405  -14.5206   19.5827 N   0  0  0  0  0  0  0  0  0  0  0  0
    8.6972  -15.0272   21.7036 C   0  0  0  0  0  0  0  0  0  0  0  0
    7.7569  -14.8308   22.5341 O   0  0  0  0  0  0  0  0  0  0  0  0
    9.6222  -16.0816   21.7604 N   0  0  0  0  0  0  0  0  0  0  0  0
    9.6147  -17.0708   22.7813 C   0  0  1  0  0  0  0  0  0  0  0  0
   10.5003  -18.2764   22.5070 C   0  0  0  0  0  0  0  0  0  0  0  0
   10.3148  -19.3859   23.5077 C   0  0  0  0  0  0  0  0  0  0  0  0
   11.2807  -20.4775   23.1633 C   0  0  0  0  0  0  0  0  0  0  0  0
   12.4329  -20.5028   23.6626 O   0  0  0  0  0  0  0  0  0  0  0  0
    9.8471  -16.5857   24.1324 C   0  0  0  0  0  0  0  0  0  0  0  0
   10.8537  -15.8608   24.4457 O   0  0  0  0  0  0  0  0  0  0  0  0
   10.9145  -21.4892   22.2778 O   0  0  0  0  0  0  0  0  0  0  0  0
    6.3838  -10.8627   25.3316 O   0  0  0  0  0  0  0  0  0  0  0  0
    6.7468  -12.1349   25.7620 C   0  0  0  0  0  0  0  0  0  0  0  0
    5.9068  -13.1979   25.5261 C   0  0  0  0  0  0  0  0  0  0  0  0
    6.2495  -14.4575   25.9436 C   0  0  0  0  0  0  0  0  0  0  0  0
    7.4314  -14.6830   26.6020 C   0  0  0  0  0  0  0  0  0  0  0  0
    7.7850  -16.0285   27.0419 C   0  0  0  0  0  0  0  0  0  0  0  0
    9.1636  -16.4002   26.5533 C   0  0  2  0  0  0  0  0  0  0  0  0
    8.9645  -16.8906   25.1815 N   0  0  0  0  0  0  0  0  0  0  0  0
    9.8692  -17.3771   27.3738 C   0  0  0  0  0  0  0  0  0  0  0  0
   10.2249  -18.6079   26.8642 O   0  0  0  0  0  0  0  0  0  0  0  0
    8.3168  -13.6312   26.8636 C   0  0  0  0  0  0  0  0  0  0  0  0
    7.9278  -12.3837   26.4243 C   0  0  0  0  0  0  0  0  0  0  0  0
   10.1658  -17.1151   28.5640 O   0  0  0  0  0  0  0  0  0  0  0  0
  2  1  1  0
  3  2  2  0
  4  5  1  0
  4  2  1  0
  5  6  1  6
  7  8  2  0
  7  5  1  0
  9  7  1  0
 10  9  1  0
 11 12  1  0
 10 11  1  6
 12 13  1  0
 13 14  2  0
 13 17  1  0
 15 16  2  0
 15 10  1  0
 18 19  1  0
 19 20  2  0
 20 21  1  0
 22 23  1  0
 22 21  2  0
 24 23  1  1
 24 25  1  0
 25 15  1  0
 26 24  1  0
 27 26  1  0
 28 22  1  0
 29 28  2  0
 29 19  1  0
 30 26  2  0
M  END
$$$$
