NEY.pdb
     RDKit          3D

 30 30  0  0  1  0  0  0  0  0999 V2000
    7.5043  -15.1011   15.6597 N   0  0  0  0  0  0  0  0  0  0  0  0
    7.5860  -13.8675   16.3463 C   0  0  0  0  0  0  0  0  0  0  0  0
    7.7870  -12.7888   15.7491 O   0  0  0  0  0  0  0  0  0  0  0  0
    7.4309  -13.8435   17.8088 C   0  0  0  0  0  0  0  0  0  0  0  0
    8.7912  -13.8035   18.4936 C   0  0  2  0  0  0  0  0  0  0  0  0
    9.8034  -14.3172   17.6115 N   0  0  0  0  0  0  0  0  0  0  0  0
    8.6665  -14.6779   19.7141 C   0  0  0  0  0  0  0  0  0  0  0  0
    7.8105  -14.3233   20.5825 O   0  0  0  0  0  0  0  0  0  0  0  0
    9.4937  -15.8082   19.8052 N   0  0  0  0  0  0  0  0  0  0  0  0
    9.4332  -16.7335   20.8828 C   0  0  1  0  0  0  0  0  0  0  0  0
    9.8754  -18.1465   20.5351 C   0  0  0  0  0  0  0  0  0  0  0  0
   11.3217  -18.2290   20.1251 C   0  0  0  0  0  0  0  0  0  0  0  0
   11.8254  -19.5890   20.4991 C   0  0  0  0  0  0  0  0  0  0  0  0
   11.0744  -20.4249   21.0601 O   0  0  0  0  0  0  0  0  0  0  0  0
   10.0715  -16.3070   22.1179 C   0  0  0  0  0  0  0  0  0  0  0  0
   11.1849  -15.6774   22.1420 O   0  0  0  0  0  0  0  0  0  0  0  0
   13.1435  -19.9514   20.2290 O   0  0  0  0  0  0  0  0  0  0  0  0
   10.6466  -14.3917   30.6767 O   0  0  0  0  0  0  0  0  0  0  0  0
   10.2139  -14.7050   29.3921 C   0  0  0  0  0  0  0  0  0  0  0  0
   10.1158  -16.0223   29.0100 C   0  0  0  0  0  0  0  0  0  0  0  0
    9.6912  -16.3478   27.7482 C   0  0  0  0  0  0  0  0  0  0  0  0
    9.3568  -15.3714   26.8449 C   0  0  0  0  0  0  0  0  0  0  0  0
    8.9065  -15.7305   25.5043 C   0  0  0  0  0  0  0  0  0  0  0  0
   10.0817  -16.0976   24.6316 C   0  0  2  0  0  0  0  0  0  0  0  0
    9.4900  -16.5665   23.3697 N   0  0  0  0  0  0  0  0  0  0  0  0
   10.9885  -17.0886   25.1983 C   0  0  0  0  0  0  0  0  0  0  0  0
   12.1619  -16.7074   25.8138 O   0  0  0  0  0  0  0  0  0  0  0  0
    9.4414  -14.0178   27.1901 C   0  0  0  0  0  0  0  0  0  0  0  0
    9.8734  -13.7412   28.4698 C   0  0  0  0  0  0  0  0  0  0  0  0
   10.7171  -18.3115   25.1349 O   0  0  0  0  0  0  0  0  0  0  0  0
  2  1  1  0
  3  2  2  0
  4  5  1  0
  4  2  1  0
  5  6  1  6
  7  8  2  0
  7  5  1  0
  9  7  1  0
 10  9  1  0
 11 12  1  0
 10 11  1  6
 12 13  1  0
 13 14  2  0
 13 17  1  0
 15 16  2  0
 15 10  1  0
 18 19  1  0
 19 20  2  0
 20 21  1  0
 22 23  1  0
 22 21  2  0
 24 23  1  1
 24 25  1  0
 25 15  1  0
 26 24  1  0
 27 26  1  0
 28 22  1  0
 29 28  2  0
 29 19  1  0
 30 26  2  0
M  END
$$$$
