NEY.pdb
     RDKit          3D

 30 30  0  0  1  0  0  0  0  0999 V2000
    8.2280  -21.2580   18.2944 N   0  0  0  0  0  0  0  0  0  0  0  0
    8.8399  -20.5790   19.3735 C   0  0  0  0  0  0  0  0  0  0  0  0
    9.5993  -19.6028   19.1970 O   0  0  0  0  0  0  0  0  0  0  0  0
    8.5802  -21.0284   20.7497 C   0  0  0  0  0  0  0  0  0  0  0  0
    8.0037  -19.8934   21.5867 C   0  0  2  0  0  0  0  0  0  0  0  0
    7.5139  -18.8479   20.7302 N   0  0  0  0  0  0  0  0  0  0  0  0
    9.1401  -19.3863   22.4359 C   0  0  0  0  0  0  0  0  0  0  0  0
    9.6394  -20.2068   23.2665 O   0  0  0  0  0  0  0  0  0  0  0  0
    9.5622  -18.0602   22.2524 N   0  0  0  0  0  0  0  0  0  0  0  0
   10.5512  -17.4380   23.0622 C   0  0  1  0  0  0  0  0  0  0  0  0
   11.3963  -16.3950   22.3474 C   0  0  0  0  0  0  0  0  0  0  0  0
   12.4265  -16.9972   21.4294 C   0  0  0  0  0  0  0  0  0  0  0  0
   13.1484  -15.8727   20.7530 C   0  0  0  0  0  0  0  0  0  0  0  0
   13.3681  -14.7915   21.3532 O   0  0  0  0  0  0  0  0  0  0  0  0
   10.0844  -16.9075   24.3332 C   0  0  0  0  0  0  0  0  0  0  0  0
    9.5330  -15.7585   24.4450 O   0  0  0  0  0  0  0  0  0  0  0  0
   13.5908  -16.0085   19.4387 O   0  0  0  0  0  0  0  0  0  0  0  0
    5.1908  -21.3113   26.0226 O   0  0  0  0  0  0  0  0  0  0  0  0
    5.9702  -20.1680   26.1672 C   0  0  0  0  0  0  0  0  0  0  0  0
    6.7543  -20.0168   27.2867 C   0  0  0  0  0  0  0  0  0  0  0  0
    7.5279  -18.8965   27.4444 C   0  0  0  0  0  0  0  0  0  0  0  0
    7.5361  -17.9078   26.4938 C   0  0  0  0  0  0  0  0  0  0  0  0
    8.3636  -16.7196   26.6733 C   0  0  0  0  0  0  0  0  0  0  0  0
    9.8141  -17.1038   26.8334 C   0  0  2  0  0  0  0  0  0  0  0  0
   10.2151  -17.6401   25.5243 N   0  0  0  0  0  0  0  0  0  0  0  0
   10.0892  -18.0511   27.9069 C   0  0  0  0  0  0  0  0  0  0  0  0
   10.5679  -19.3149   27.6334 O   0  0  0  0  0  0  0  0  0  0  0  0
    6.7539  -18.0193   25.3387 C   0  0  0  0  0  0  0  0  0  0  0  0
    5.9934  -19.1637   25.2258 C   0  0  0  0  0  0  0  0  0  0  0  0
    9.8935  -17.7327   29.1042 O   0  0  0  0  0  0  0  0  0  0  0  0
  2  1  1  0
  3  2  2  0
  4  5  1  0
  4  2  1  0
  5  6  1  6
  7  8  2  0
  7  5  1  0
  9  7  1  0
 10  9  1  0
 11 12  1  0
 10 11  1  6
 12 13  1  0
 13 14  2  0
 13 17  1  0
 15 16  2  0
 15 10  1  0
 18 19  1  0
 19 20  2  0
 20 21  1  0
 22 23  1  0
 22 21  2  0
 24 23  1  6
 24 25  1  0
 25 15  1  0
 26 24  1  0
 27 26  1  0
 28 22  1  0
 29 28  2  0
 29 19  1  0
 30 26  2  0
M  END
$$$$
