NEY.pdb
     RDKit          3D

 30 30  0  0  1  0  0  0  0  0999 V2000
    8.6466  -13.2293   16.2140 N   0  0  0  0  0  0  0  0  0  0  0  0
    7.5885  -14.0696   16.6313 C   0  0  0  0  0  0  0  0  0  0  0  0
    6.5562  -14.2257   15.9451 O   0  0  0  0  0  0  0  0  0  0  0  0
    7.6972  -14.7862   17.9112 C   0  0  0  0  0  0  0  0  0  0  0  0
    8.9193  -14.3151   18.6895 C   0  0  2  0  0  0  0  0  0  0  0  0
   10.1111  -14.5308   17.9151 N   0  0  0  0  0  0  0  0  0  0  0  0
    8.9541  -15.1437   19.9472 C   0  0  0  0  0  0  0  0  0  0  0  0
    7.9625  -15.0281   20.7319 O   0  0  0  0  0  0  0  0  0  0  0  0
   10.0651  -15.9746   20.1612 N   0  0  0  0  0  0  0  0  0  0  0  0
   10.2550  -16.7312   21.3497 C   0  0  1  0  0  0  0  0  0  0  0  0
   11.3402  -17.7932   21.2625 C   0  0  0  0  0  0  0  0  0  0  0  0
   10.8908  -19.0399   20.5480 C   0  0  0  0  0  0  0  0  0  0  0  0
   12.0777  -19.9441   20.4173 C   0  0  0  0  0  0  0  0  0  0  0  0
   12.4691  -20.6414   21.3858 O   0  0  0  0  0  0  0  0  0  0  0  0
   10.4184  -15.9585   22.5708 C   0  0  0  0  0  0  0  0  0  0  0  0
   11.0147  -14.8271   22.6013 O   0  0  0  0  0  0  0  0  0  0  0  0
   12.7712  -20.0270   19.2116 O   0  0  0  0  0  0  0  0  0  0  0  0
    5.6400  -11.3661   27.7644 O   0  0  0  0  0  0  0  0  0  0  0  0
    6.3170  -12.1881   26.8690 C   0  0  0  0  0  0  0  0  0  0  0  0
    5.6224  -13.1428   26.1640 C   0  0  0  0  0  0  0  0  0  0  0  0
    6.2742  -13.9605   25.2781 C   0  0  0  0  0  0  0  0  0  0  0  0
    7.6261  -13.8443   25.0773 C   0  0  0  0  0  0  0  0  0  0  0  0
    8.3089  -14.7210   24.1318 C   0  0  0  0  0  0  0  0  0  0  0  0
    9.3859  -15.5155   24.8292 C   0  0  2  0  0  0  0  0  0  0  0  0
    9.9215  -16.4198   23.8008 N   0  0  0  0  0  0  0  0  0  0  0  0
    8.9481  -16.2485   26.0109 C   0  0  0  0  0  0  0  0  0  0  0  0
    8.5136  -17.5536   25.9164 O   0  0  0  0  0  0  0  0  0  0  0  0
    8.3731  -12.8869   25.7730 C   0  0  0  0  0  0  0  0  0  0  0  0
    7.6729  -12.0886   26.6522 C   0  0  0  0  0  0  0  0  0  0  0  0
    8.9577  -15.7024   27.1400 O   0  0  0  0  0  0  0  0  0  0  0  0
  2  1  1  0
  3  2  2  0
  4  5  1  0
  4  2  1  0
  5  6  1  6
  7  8  2  0
  7  5  1  0
  9  7  1  0
 10  9  1  0
 11 12  1  0
 10 11  1  6
 12 13  1  0
 13 14  2  0
 13 17  1  0
 15 16  2  0
 15 10  1  0
 18 19  1  0
 19 20  2  0
 20 21  1  0
 22 23  1  0
 22 21  2  0
 24 23  1  6
 24 25  1  0
 25 15  1  0
 26 24  1  0
 27 26  1  0
 28 22  1  0
 29 28  2  0
 29 19  1  0
 30 26  2  0
M  END
$$$$
