NEY.pdb
     RDKit          3D

 30 30  0  0  1  0  0  0  0  0999 V2000
    7.8002  -13.2561   17.2158 N   0  0  0  0  0  0  0  0  0  0  0  0
    7.6721  -14.2971   18.1645 C   0  0  0  0  0  0  0  0  0  0  0  0
    8.2797  -15.3820   18.0439 O   0  0  0  0  0  0  0  0  0  0  0  0
    6.7990  -14.1059   19.3326 C   0  0  0  0  0  0  0  0  0  0  0  0
    7.6041  -13.6256   20.5335 C   0  0  2  0  0  0  0  0  0  0  0  0
    8.8141  -12.9864   20.0929 N   0  0  0  0  0  0  0  0  0  0  0  0
    7.9253  -14.8588   21.3370 C   0  0  0  0  0  0  0  0  0  0  0  0
    6.9372  -15.5222   21.7798 O   0  0  0  0  0  0  0  0  0  0  0  0
    9.2759  -15.1843   21.5377 N   0  0  0  0  0  0  0  0  0  0  0  0
    9.7024  -16.3056   22.3003 C   0  0  1  0  0  0  0  0  0  0  0  0
   10.9863  -16.9578   21.8113 C   0  0  0  0  0  0  0  0  0  0  0  0
   10.8800  -17.4932   20.4082 C   0  0  0  0  0  0  0  0  0  0  0  0
   12.1926  -18.1248   20.0599 C   0  0  0  0  0  0  0  0  0  0  0  0
   12.4868  -19.2740   20.4725 O   0  0  0  0  0  0  0  0  0  0  0  0
    9.7694  -16.1024   23.7387 C   0  0  0  0  0  0  0  0  0  0  0  0
   10.6896  -15.4130   24.2998 O   0  0  0  0  0  0  0  0  0  0  0  0
   13.1144  -17.4438   19.2674 O   0  0  0  0  0  0  0  0  0  0  0  0
    7.2674  -10.5310   26.6037 O   0  0  0  0  0  0  0  0  0  0  0  0
    7.3240  -11.9210   26.5816 C   0  0  0  0  0  0  0  0  0  0  0  0
    8.4448  -12.5633   27.0531 C   0  0  0  0  0  0  0  0  0  0  0  0
    8.5165  -13.9319   27.0384 C   0  0  0  0  0  0  0  0  0  0  0  0
    7.4772  -14.6855   26.5555 C   0  0  0  0  0  0  0  0  0  0  0  0
    7.5656  -16.1419   26.5447 C   0  0  0  0  0  0  0  0  0  0  0  0
    8.9261  -16.5862   26.0662 C   0  0  2  0  0  0  0  0  0  0  0  0
    8.8121  -16.6598   24.6021 N   0  0  0  0  0  0  0  0  0  0  0  0
    9.4007  -17.8442   26.6299 C   0  0  0  0  0  0  0  0  0  0  0  0
    9.6193  -18.9441   25.8277 O   0  0  0  0  0  0  0  0  0  0  0  0
    6.3173  -14.0745   26.0657 C   0  0  0  0  0  0  0  0  0  0  0  0
    6.2928  -12.6966   26.1016 C   0  0  0  0  0  0  0  0  0  0  0  0
    9.6187  -17.9496   27.8606 O   0  0  0  0  0  0  0  0  0  0  0  0
  2  1  1  0
  3  2  2  0
  4  5  1  0
  4  2  1  0
  5  6  1  6
  7  8  2  0
  7  5  1  0
  9  7  1  0
 10  9  1  0
 11 12  1  0
 10 11  1  6
 12 13  1  0
 13 14  2  0
 13 17  1  0
 15 16  2  0
 15 10  1  0
 18 19  1  0
 19 20  2  0
 20 21  1  0
 22 23  1  0
 22 21  2  0
 24 23  1  1
 24 25  1  0
 25 15  1  0
 26 24  1  0
 27 26  1  0
 28 22  1  0
 29 28  2  0
 29 19  1  0
 30 26  2  0
M  END
$$$$
