NEY.pdb
     RDKit          3D

 30 30  0  0  1  0  0  0  0  0999 V2000
    8.2794  -13.6676   16.1206 N   0  0  0  0  0  0  0  0  0  0  0  0
    7.8160  -14.4838   17.1784 C   0  0  0  0  0  0  0  0  0  0  0  0
    7.9741  -15.7231   17.1773 O   0  0  0  0  0  0  0  0  0  0  0  0
    7.1255  -13.8638   18.3196 C   0  0  0  0  0  0  0  0  0  0  0  0
    8.1079  -13.5641   19.4449 C   0  0  2  0  0  0  0  0  0  0  0  0
    9.3720  -13.1504   18.8994 N   0  0  0  0  0  0  0  0  0  0  0  0
    8.2639  -14.8510   20.2123 C   0  0  0  0  0  0  0  0  0  0  0  0
    7.1959  -15.3999   20.6252 O   0  0  0  0  0  0  0  0  0  0  0  0
    9.5613  -15.3472   20.4148 N   0  0  0  0  0  0  0  0  0  0  0  0
    9.8497  -16.4532   21.2601 C   0  0  1  0  0  0  0  0  0  0  0  0
   10.9422  -17.3789   20.7479 C   0  0  0  0  0  0  0  0  0  0  0  0
   10.6731  -17.9002   19.3613 C   0  0  0  0  0  0  0  0  0  0  0  0
   11.9538  -18.4665   18.8299 C   0  0  0  0  0  0  0  0  0  0  0  0
   12.5492  -19.3945   19.4314 O   0  0  0  0  0  0  0  0  0  0  0  0
   10.0896  -16.1337   22.6583 C   0  0  0  0  0  0  0  0  0  0  0  0
   11.0353  -15.3618   23.0412 O   0  0  0  0  0  0  0  0  0  0  0  0
   12.5090  -17.9701   17.6523 O   0  0  0  0  0  0  0  0  0  0  0  0
    5.9377  -11.3268   28.1260 O   0  0  0  0  0  0  0  0  0  0  0  0
    6.4869  -12.1329   27.1339 C   0  0  0  0  0  0  0  0  0  0  0  0
    7.3195  -13.1699   27.4839 C   0  0  0  0  0  0  0  0  0  0  0  0
    7.8688  -13.9732   26.5189 C   0  0  0  0  0  0  0  0  0  0  0  0
    7.6009  -13.7607   25.1906 C   0  0  0  0  0  0  0  0  0  0  0  0
    8.1920  -14.6225   24.1724 C   0  0  0  0  0  0  0  0  0  0  0  0
    8.7954  -15.8526   24.8051 C   0  0  2  0  0  0  0  0  0  0  0  0
    9.2828  -16.6628   23.6789 N   0  0  0  0  0  0  0  0  0  0  0  0
    7.8944  -16.6140   25.6618 C   0  0  0  0  0  0  0  0  0  0  0  0
    7.9482  -16.4931   27.0342 O   0  0  0  0  0  0  0  0  0  0  0  0
    6.7593  -12.7174   24.7883 C   0  0  0  0  0  0  0  0  0  0  0  0
    6.2315  -11.9375   25.7952 C   0  0  0  0  0  0  0  0  0  0  0  0
    7.0509  -17.3974   25.1637 O   0  0  0  0  0  0  0  0  0  0  0  0
  2  1  1  0
  3  2  2  0
  4  5  1  0
  4  2  1  0
  5  6  1  6
  7  8  2  0
  7  5  1  0
  9  7  1  0
 10  9  1  0
 11 12  1  0
 10 11  1  6
 12 13  1  0
 13 14  2  0
 13 17  1  0
 15 16  2  0
 15 10  1  0
 18 19  1  0
 19 20  2  0
 20 21  1  0
 22 23  1  0
 22 21  2  0
 24 23  1  6
 24 25  1  0
 25 15  1  0
 26 24  1  0
 27 26  1  0
 28 22  1  0
 29 28  2  0
 29 19  1  0
 30 26  2  0
M  END
$$$$
