NEY.pdb
     RDKit          3D

 30 30  0  0  1  0  0  0  0  0999 V2000
    7.9441  -12.6186   17.0146 N   0  0  0  0  0  0  0  0  0  0  0  0
    7.1764  -13.8063   17.0133 C   0  0  0  0  0  0  0  0  0  0  0  0
    6.4207  -14.1058   16.0646 O   0  0  0  0  0  0  0  0  0  0  0  0
    7.2636  -14.7237   18.1597 C   0  0  0  0  0  0  0  0  0  0  0  0
    8.1725  -14.1505   19.2397 C   0  0  2  0  0  0  0  0  0  0  0  0
    9.4140  -13.7150   18.6602 N   0  0  0  0  0  0  0  0  0  0  0  0
    8.4145  -15.2722   20.2158 C   0  0  0  0  0  0  0  0  0  0  0  0
    7.4043  -15.6933   20.8597 O   0  0  0  0  0  0  0  0  0  0  0  0
    9.7218  -15.7670   20.3439 N   0  0  0  0  0  0  0  0  0  0  0  0
   10.0758  -16.8101   21.2426 C   0  0  1  0  0  0  0  0  0  0  0  0
   10.9692  -17.8877   20.6479 C   0  0  0  0  0  0  0  0  0  0  0  0
   12.1876  -17.3320   19.9599 C   0  0  0  0  0  0  0  0  0  0  0  0
   12.9295  -18.4799   19.3476 C   0  0  0  0  0  0  0  0  0  0  0  0
   12.9294  -19.6129   19.8898 O   0  0  0  0  0  0  0  0  0  0  0  0
   10.6063  -16.3836   22.5276 C   0  0  0  0  0  0  0  0  0  0  0  0
   10.9961  -15.1863   22.7544 O   0  0  0  0  0  0  0  0  0  0  0  0
   13.6363  -18.3087   18.1590 O   0  0  0  0  0  0  0  0  0  0  0  0
   10.4108  -14.2090   30.6737 O   0  0  0  0  0  0  0  0  0  0  0  0
   10.2900  -14.6027   29.3448 C   0  0  0  0  0  0  0  0  0  0  0  0
   10.0797  -15.9282   29.0449 C   0  0  0  0  0  0  0  0  0  0  0  0
    9.9585  -16.3326   27.7410 C   0  0  0  0  0  0  0  0  0  0  0  0
   10.0441  -15.4284   26.7132 C   0  0  0  0  0  0  0  0  0  0  0  0
    9.9140  -15.8712   25.3291 C   0  0  0  0  0  0  0  0  0  0  0  0
   11.0213  -16.8332   24.9746 C   0  0  2  0  0  0  0  0  0  0  0  0
   10.7198  -17.2767   23.6055 N   0  0  0  0  0  0  0  0  0  0  0  0
   11.1736  -17.9641   25.8821 C   0  0  0  0  0  0  0  0  0  0  0  0
   12.2226  -18.0216   26.7751 O   0  0  0  0  0  0  0  0  0  0  0  0
   10.2575  -14.0696   26.9716 C   0  0  0  0  0  0  0  0  0  0  0  0
   10.3727  -13.7122   28.2981 C   0  0  0  0  0  0  0  0  0  0  0  0
   10.3501  -18.9100   25.8662 O   0  0  0  0  0  0  0  0  0  0  0  0
  2  1  1  0
  3  2  2  0
  4  5  1  0
  4  2  1  0
  5  6  1  6
  7  8  2  0
  7  5  1  0
  9  7  1  0
 10  9  1  0
 11 12  1  0
 10 11  1  6
 12 13  1  0
 13 14  2  0
 13 17  1  0
 15 16  2  0
 15 10  1  0
 18 19  1  0
 19 20  2  0
 20 21  1  0
 22 23  1  0
 22 21  2  0
 24 23  1  1
 24 25  1  0
 25 15  1  0
 26 24  1  0
 27 26  1  0
 28 22  1  0
 29 28  2  0
 29 19  1  0
 30 26  2  0
M  END
$$$$
