NEY.pdb
     RDKit          3D

 30 30  0  0  1  0  0  0  0  0999 V2000
    6.8661  -13.8097   17.1595 N   0  0  0  0  0  0  0  0  0  0  0  0
    7.5975  -13.0357   18.0901 C   0  0  0  0  0  0  0  0  0  0  0  0
    8.4520  -12.1988   17.7294 O   0  0  0  0  0  0  0  0  0  0  0  0
    7.3516  -13.2145   19.5292 C   0  0  0  0  0  0  0  0  0  0  0  0
    8.6469  -13.5469   20.2592 C   0  0  2  0  0  0  0  0  0  0  0  0
    9.6027  -14.1028   19.3404 N   0  0  0  0  0  0  0  0  0  0  0  0
    8.2808  -14.5604   21.3119 C   0  0  0  0  0  0  0  0  0  0  0  0
    7.4414  -14.1903   22.1900 O   0  0  0  0  0  0  0  0  0  0  0  0
    8.8847  -15.8260   21.2499 N   0  0  0  0  0  0  0  0  0  0  0  0
    8.7511  -16.8043   22.2727 C   0  0  1  0  0  0  0  0  0  0  0  0
    9.1965  -18.2039   21.8780 C   0  0  0  0  0  0  0  0  0  0  0  0
    8.8117  -19.2531   22.8868 C   0  0  0  0  0  0  0  0  0  0  0  0
    9.3204  -20.5716   22.3910 C   0  0  0  0  0  0  0  0  0  0  0  0
    9.9476  -20.6561   21.3062 O   0  0  0  0  0  0  0  0  0  0  0  0
    9.3215  -16.4509   23.5629 C   0  0  0  0  0  0  0  0  0  0  0  0
   10.5068  -15.9878   23.6940 O   0  0  0  0  0  0  0  0  0  0  0  0
    9.1048  -21.7333   23.1297 O   0  0  0  0  0  0  0  0  0  0  0  0
    6.4870  -10.5863   25.6700 O   0  0  0  0  0  0  0  0  0  0  0  0
    6.8358  -11.8978   25.9766 C   0  0  0  0  0  0  0  0  0  0  0  0
    8.1551  -12.2164   26.1979 C   0  0  0  0  0  0  0  0  0  0  0  0
    8.5155  -13.5035   26.5009 C   0  0  0  0  0  0  0  0  0  0  0  0
    7.5725  -14.4957   26.5893 C   0  0  0  0  0  0  0  0  0  0  0  0
    7.9685  -15.8623   26.9122 C   0  0  0  0  0  0  0  0  0  0  0  0
    9.1508  -16.2830   26.0739 C   0  0  2  0  0  0  0  0  0  0  0  0
    8.5898  -16.6004   24.7523 N   0  0  0  0  0  0  0  0  0  0  0  0
    9.9242  -17.3972   26.6086 C   0  0  0  0  0  0  0  0  0  0  0  0
   10.6462  -17.2650   27.7759 O   0  0  0  0  0  0  0  0  0  0  0  0
    6.2183  -14.2172   26.3719 C   0  0  0  0  0  0  0  0  0  0  0  0
    5.9060  -12.9087   26.0703 C   0  0  0  0  0  0  0  0  0  0  0  0
    9.9480  -18.5009   26.0133 O   0  0  0  0  0  0  0  0  0  0  0  0
  2  1  1  0
  3  2  2  0
  4  5  1  0
  4  2  1  0
  5  6  1  6
  7  8  2  0
  7  5  1  0
  9  7  1  0
 10  9  1  0
 11 12  1  0
 10 11  1  6
 12 13  1  0
 13 14  2  0
 13 17  1  0
 15 16  2  0
 15 10  1  0
 18 19  1  0
 19 20  2  0
 20 21  1  0
 22 23  1  0
 22 21  2  0
 24 23  1  1
 24 25  1  0
 25 15  1  0
 26 24  1  0
 27 26  1  0
 28 22  1  0
 29 28  2  0
 29 19  1  0
 30 26  2  0
M  END
$$$$
