NEY.pdb
     RDKit          3D

 30 30  0  0  1  0  0  0  0  0999 V2000
   16.1311  -17.9024   19.5198 N   0  0  0  0  0  0  0  0  0  0  0  0
   15.2200  -17.1289   18.7638 C   0  0  0  0  0  0  0  0  0  0  0  0
   15.5685  -16.5131   17.7342 O   0  0  0  0  0  0  0  0  0  0  0  0
   13.8165  -17.0405   19.1951 C   0  0  0  0  0  0  0  0  0  0  0  0
   13.6221  -17.7308   20.5392 C   0  0  2  0  0  0  0  0  0  0  0  0
   13.2048  -19.0919   20.3394 N   0  0  0  0  0  0  0  0  0  0  0  0
   12.5477  -16.9525   21.2530 C   0  0  0  0  0  0  0  0  0  0  0  0
   12.9061  -15.8705   21.8126 O   0  0  0  0  0  0  0  0  0  0  0  0
   11.2431  -17.4704   21.2500 N   0  0  0  0  0  0  0  0  0  0  0  0
   10.1915  -16.9387   22.0452 C   0  0  1  0  0  0  0  0  0  0  0  0
    8.7922  -17.3290   21.5951 C   0  0  0  0  0  0  0  0  0  0  0  0
    8.5760  -17.1508   20.1159 C   0  0  0  0  0  0  0  0  0  0  0  0
    7.1966  -17.6377   19.7942 C   0  0  0  0  0  0  0  0  0  0  0  0
    7.0154  -18.7582   19.2564 O   0  0  0  0  0  0  0  0  0  0  0  0
   10.3217  -17.1385   23.4797 C   0  0  0  0  0  0  0  0  0  0  0  0
   10.1188  -18.2687   24.0440 O   0  0  0  0  0  0  0  0  0  0  0  0
    6.0849  -16.8507   20.0880 O   0  0  0  0  0  0  0  0  0  0  0  0
    5.4318  -11.5051   27.6344 O   0  0  0  0  0  0  0  0  0  0  0  0
    6.3279  -12.2011   26.8292 C   0  0  0  0  0  0  0  0  0  0  0  0
    7.1101  -13.1894   27.3793 C   0  0  0  0  0  0  0  0  0  0  0  0
    7.9978  -13.8844   26.6000 C   0  0  0  0  0  0  0  0  0  0  0  0
    8.1240  -13.6101   25.2621 C   0  0  0  0  0  0  0  0  0  0  0  0
    9.0729  -14.3566   24.4429 C   0  0  0  0  0  0  0  0  0  0  0  0
    9.7302  -15.4462   25.2542 C   0  0  2  0  0  0  0  0  0  0  0  0
   10.6839  -16.0855   24.3355 N   0  0  0  0  0  0  0  0  0  0  0  0
    8.8163  -16.4197   25.8394 C   0  0  0  0  0  0  0  0  0  0  0  0
    8.4059  -16.3093   27.1512 O   0  0  0  0  0  0  0  0  0  0  0  0
    7.3485  -12.6128   24.6598 C   0  0  0  0  0  0  0  0  0  0  0  0
    6.4707  -11.9421   25.4846 C   0  0  0  0  0  0  0  0  0  0  0  0
    8.3856  -17.3804   25.1577 O   0  0  0  0  0  0  0  0  0  0  0  0
  2  1  1  0
  3  2  2  0
  4  5  1  0
  4  2  1  0
  5  6  1  6
  7  8  2  0
  7  5  1  0
  9  7  1  0
 10  9  1  0
 11 12  1  0
 10 11  1  6
 12 13  1  0
 13 14  2  0
 13 17  1  0
 15 16  2  0
 15 10  1  0
 18 19  1  0
 19 20  2  0
 20 21  1  0
 22 23  1  0
 22 21  2  0
 24 23  1  6
 24 25  1  0
 25 15  1  0
 26 24  1  0
 27 26  1  0
 28 22  1  0
 29 28  2  0
 29 19  1  0
 30 26  2  0
M  END
$$$$
