NEY.pdb
     RDKit          3D

 30 30  0  0  1  0  0  0  0  0999 V2000
    5.1127  -20.7313   14.0913 N   0  0  0  0  0  0  0  0  0  0  0  0
    6.2537  -19.9702   13.7465 C   0  0  0  0  0  0  0  0  0  0  0  0
    6.2255  -19.1044   12.8463 O   0  0  0  0  0  0  0  0  0  0  0  0
    7.5172  -20.1976   14.4643 C   0  0  0  0  0  0  0  0  0  0  0  0
    7.8913  -18.9768   15.2955 C   0  0  2  0  0  0  0  0  0  0  0  0
    7.9930  -17.8174   14.4516 N   0  0  0  0  0  0  0  0  0  0  0  0
    9.2271  -19.2920   15.9166 C   0  0  0  0  0  0  0  0  0  0  0  0
    9.2680  -20.2895   16.7013 O   0  0  0  0  0  0  0  0  0  0  0  0
   10.3186  -18.4723   15.5894 N   0  0  0  0  0  0  0  0  0  0  0  0
   11.6264  -18.6713   16.1100 C   0  0  1  0  0  0  0  0  0  0  0  0
   12.7323  -17.9635   15.3425 C   0  0  0  0  0  0  0  0  0  0  0  0
   12.9566  -18.5348   13.9678 C   0  0  0  0  0  0  0  0  0  0  0  0
   14.0477  -17.7421   13.3164 C   0  0  0  0  0  0  0  0  0  0  0  0
   14.7236  -16.9114   13.9726 O   0  0  0  0  0  0  0  0  0  0  0  0
   11.7823  -18.4287   17.5353 C   0  0  0  0  0  0  0  0  0  0  0  0
   11.8705  -17.2536   18.0336 O   0  0  0  0  0  0  0  0  0  0  0  0
   14.3325  -17.9142   11.9633 O   0  0  0  0  0  0  0  0  0  0  0  0
   12.1027  -20.7577   26.0317 O   0  0  0  0  0  0  0  0  0  0  0  0
   11.8178  -20.5969   24.6794 C   0  0  0  0  0  0  0  0  0  0  0  0
   12.3216  -21.4941   23.7671 C   0  0  0  0  0  0  0  0  0  0  0  0
   12.0503  -21.3499   22.4315 C   0  0  0  0  0  0  0  0  0  0  0  0
   11.2746  -20.3131   21.9792 C   0  0  0  0  0  0  0  0  0  0  0  0
   10.9932  -20.1700   20.5547 C   0  0  0  0  0  0  0  0  0  0  0  0
   12.0164  -19.2744   19.9002 C   0  0  2  0  0  0  0  0  0  0  0  0
   11.8441  -19.4879   18.4555 N   0  0  0  0  0  0  0  0  0  0  0  0
   13.3953  -19.5034   20.3143 C   0  0  0  0  0  0  0  0  0  0  0  0
   13.9182  -18.8712   21.4225 O   0  0  0  0  0  0  0  0  0  0  0  0
   10.7409  -19.3765   22.8716 C   0  0  0  0  0  0  0  0  0  0  0  0
   11.0417  -19.5639   24.2039 C   0  0  0  0  0  0  0  0  0  0  0  0
   14.1349  -20.2822   19.6665 O   0  0  0  0  0  0  0  0  0  0  0  0
  2  1  1  0
  3  2  2  0
  4  5  1  0
  4  2  1  0
  5  6  1  6
  7  8  2  0
  7  5  1  0
  9  7  1  0
 10  9  1  0
 11 12  1  0
 10 11  1  6
 12 13  1  0
 13 14  2  0
 13 17  1  0
 15 16  2  0
 15 10  1  0
 18 19  1  0
 19 20  2  0
 20 21  1  0
 22 23  1  0
 22 21  2  0
 24 23  1  1
 24 25  1  0
 25 15  1  0
 26 24  1  0
 27 26  1  0
 28 22  1  0
 29 28  2  0
 29 19  1  0
 30 26  2  0
M  END
$$$$
