NEY.pdb
     RDKit          3D

 30 30  0  0  1  0  0  0  0  0999 V2000
    7.0669  -12.8618   16.0053 N   0  0  0  0  0  0  0  0  0  0  0  0
    8.1548  -13.3142   16.7875 C   0  0  0  0  0  0  0  0  0  0  0  0
    9.3015  -13.4517   16.3112 O   0  0  0  0  0  0  0  0  0  0  0  0
    7.9395  -13.6353   18.2067 C   0  0  0  0  0  0  0  0  0  0  0  0
    9.0703  -14.5066   18.7388 C   0  0  2  0  0  0  0  0  0  0  0  0
    9.2784  -15.6315   17.8683 N   0  0  0  0  0  0  0  0  0  0  0  0
    8.6280  -14.9729   20.1014 C   0  0  0  0  0  0  0  0  0  0  0  0
    8.3692  -14.0693   20.9552 O   0  0  0  0  0  0  0  0  0  0  0  0
    8.5341  -16.3547   20.3292 N   0  0  0  0  0  0  0  0  0  0  0  0
    8.4578  -16.9270   21.6283 C   0  0  1  0  0  0  0  0  0  0  0  0
    8.5984  -18.4409   21.6670 C   0  0  0  0  0  0  0  0  0  0  0  0
    7.8008  -19.1361   20.5959 C   0  0  0  0  0  0  0  0  0  0  0  0
    8.0631  -20.6060   20.7128 C   0  0  0  0  0  0  0  0  0  0  0  0
    7.5477  -21.2833   21.6364 O   0  0  0  0  0  0  0  0  0  0  0  0
    9.3185  -16.3261   22.6346 C   0  0  0  0  0  0  0  0  0  0  0  0
   10.0253  -15.2836   22.4101 O   0  0  0  0  0  0  0  0  0  0  0  0
    8.8884  -21.2501   19.7933 O   0  0  0  0  0  0  0  0  0  0  0  0
    6.6028  -10.6415   27.1269 O   0  0  0  0  0  0  0  0  0  0  0  0
    6.8605  -11.8795   26.5468 C   0  0  0  0  0  0  0  0  0  0  0  0
    6.0684  -12.9576   26.8652 C   0  0  0  0  0  0  0  0  0  0  0  0
    6.3088  -14.1839   26.3025 C   0  0  0  0  0  0  0  0  0  0  0  0
    7.3392  -14.3607   25.4147 C   0  0  0  0  0  0  0  0  0  0  0  0
    7.5854  -15.6713   24.8227 C   0  0  0  0  0  0  0  0  0  0  0  0
    8.9886  -16.1351   25.1281 C   0  0  2  0  0  0  0  0  0  0  0  0
    9.4205  -16.8657   23.9273 N   0  0  0  0  0  0  0  0  0  0  0  0
    9.1238  -16.9513   26.3286 C   0  0  0  0  0  0  0  0  0  0  0  0
    9.8111  -16.4862   27.4297 O   0  0  0  0  0  0  0  0  0  0  0  0
    8.1707  -13.2919   25.0615 C   0  0  0  0  0  0  0  0  0  0  0  0
    7.8890  -12.0791   25.6536 C   0  0  0  0  0  0  0  0  0  0  0  0
    8.6159  -18.0969   26.3814 O   0  0  0  0  0  0  0  0  0  0  0  0
  2  1  1  0
  3  2  2  0
  4  5  1  0
  4  2  1  0
  5  6  1  6
  7  8  2  0
  7  5  1  0
  9  7  1  0
 10  9  1  0
 11 12  1  0
 10 11  1  6
 12 13  1  0
 13 14  2  0
 13 17  1  0
 15 16  2  0
 15 10  1  0
 18 19  1  0
 19 20  2  0
 20 21  1  0
 22 23  1  0
 22 21  2  0
 24 23  1  6
 24 25  1  0
 25 15  1  0
 26 24  1  0
 27 26  1  0
 28 22  1  0
 29 28  2  0
 29 19  1  0
 30 26  2  0
M  END
$$$$
