NEY.pdb
     RDKit          3D

 30 30  0  0  1  0  0  0  0  0999 V2000
    7.6596  -16.3224   16.2067 N   0  0  0  0  0  0  0  0  0  0  0  0
    8.2050  -15.0364   16.4269 C   0  0  0  0  0  0  0  0  0  0  0  0
    9.3253  -14.7068   15.9830 O   0  0  0  0  0  0  0  0  0  0  0  0
    7.4371  -14.0493   17.2012 C   0  0  0  0  0  0  0  0  0  0  0  0
    8.2666  -13.5115   18.3605 C   0  0  2  0  0  0  0  0  0  0  0  0
    9.5658  -13.1105   17.8936 N   0  0  0  0  0  0  0  0  0  0  0  0
    8.3899  -14.6466   19.3432 C   0  0  0  0  0  0  0  0  0  0  0  0
    7.3092  -15.0808   19.8490 O   0  0  0  0  0  0  0  0  0  0  0  0
    9.6734  -15.1386   19.6277 N   0  0  0  0  0  0  0  0  0  0  0  0
    9.9291  -16.1184   20.6255 C   0  0  1  0  0  0  0  0  0  0  0  0
   11.1516  -16.9858   20.3684 C   0  0  0  0  0  0  0  0  0  0  0  0
   11.3957  -17.9998   21.4542 C   0  0  0  0  0  0  0  0  0  0  0  0
   12.5517  -18.8528   21.0308 C   0  0  0  0  0  0  0  0  0  0  0  0
   12.4936  -19.5485   19.9867 O   0  0  0  0  0  0  0  0  0  0  0  0
    9.9480  -15.6337   21.9964 C   0  0  0  0  0  0  0  0  0  0  0  0
   10.9055  -14.9298   22.4702 O   0  0  0  0  0  0  0  0  0  0  0  0
   13.7176  -18.8889   21.7930 O   0  0  0  0  0  0  0  0  0  0  0  0
    6.2697  -11.1652   28.3725 O   0  0  0  0  0  0  0  0  0  0  0  0
    6.5710  -11.9384   27.2558 C   0  0  0  0  0  0  0  0  0  0  0  0
    7.4813  -11.4764   26.3344 C   0  0  0  0  0  0  0  0  0  0  0  0
    7.7891  -12.2258   25.2289 C   0  0  0  0  0  0  0  0  0  0  0  0
    7.1987  -13.4459   25.0196 C   0  0  0  0  0  0  0  0  0  0  0  0
    7.5344  -14.2343   23.8386 C   0  0  0  0  0  0  0  0  0  0  0  0
    8.6901  -15.1597   24.1307 C   0  0  2  0  0  0  0  0  0  0  0  0
    8.8993  -15.9157   22.8869 N   0  0  0  0  0  0  0  0  0  0  0  0
    8.4996  -16.0478   25.2711 C   0  0  0  0  0  0  0  0  0  0  0  0
    7.9815  -17.3149   25.1056 O   0  0  0  0  0  0  0  0  0  0  0  0
    6.2668  -13.9557   25.9308 C   0  0  0  0  0  0  0  0  0  0  0  0
    5.9904  -13.1655   27.0261 C   0  0  0  0  0  0  0  0  0  0  0  0
    8.8039  -15.6734   26.4289 O   0  0  0  0  0  0  0  0  0  0  0  0
  2  1  1  0
  3  2  2  0
  4  5  1  0
  4  2  1  0
  5  6  1  6
  7  8  2  0
  7  5  1  0
  9  7  1  0
 10  9  1  0
 11 12  1  0
 10 11  1  6
 12 13  1  0
 13 14  2  0
 13 17  1  0
 15 16  2  0
 15 10  1  0
 18 19  1  0
 19 20  2  0
 20 21  1  0
 22 23  1  0
 22 21  2  0
 24 23  1  6
 24 25  1  0
 25 15  1  0
 26 24  1  0
 27 26  1  0
 28 22  1  0
 29 28  2  0
 29 19  1  0
 30 26  2  0
M  END
$$$$
