WGK.pdb
     RDKit          3D

 28 29  0  0  1  0  0  0  0  0999 V2000
   27.0420  -21.4641  -12.2767 N   0  0  0  0  0  0  0  0  0  0  0  0
   26.1283  -21.1999  -11.1920 C   0  0  1  0  0  0  0  0  0  0  0  0
   26.6762  -20.0599  -10.3584 C   0  0  0  0  0  0  0  0  0  0  0  0
   27.8585  -20.4943   -9.5824 C   0  0  0  0  0  0  0  0  0  0  0  0
   28.9839  -21.0712  -10.0784 C   0  0  0  0  0  0  0  0  0  0  0  0
   29.8288  -21.3252   -9.0580 N   0  0  0  0  0  0  0  0  0  0  0  0
   29.2556  -20.9158   -7.9070 C   0  0  0  0  0  0  0  0  0  0  0  0
   29.6889  -20.9424   -6.5861 C   0  0  0  0  0  0  0  0  0  0  0  0
   28.8807  -20.4457   -5.5979 C   0  0  0  0  0  0  0  0  0  0  0  0
   27.6615  -19.9288   -5.9021 C   0  0  0  0  0  0  0  0  0  0  0  0
   27.2224  -19.8973   -7.2044 C   0  0  0  0  0  0  0  0  0  0  0  0
   28.0197  -20.3932   -8.2256 C   0  0  0  0  0  0  0  0  0  0  0  0
   24.7954  -20.7761  -11.7032 C   0  0  0  0  0  0  0  0  0  0  0  0
   24.5102  -19.5472  -11.7477 O   0  0  0  0  0  0  0  0  0  0  0  0
   23.8663  -21.7682  -12.1337 N   0  0  0  0  0  0  0  0  0  0  0  0
   22.6009  -21.3217  -12.6332 C   0  0  0  0  0  0  0  0  0  0  0  0
   21.7096  -22.4316  -13.0352 C   0  0  0  0  0  0  0  0  0  0  0  0
   22.1120  -23.5168  -13.5237 O   0  0  0  0  0  0  0  0  0  0  0  0
   20.3132  -22.2588  -12.8573 N   0  0  0  0  0  0  0  0  0  0  0  0
   19.3356  -23.3017  -13.1570 C   0  0  1  0  0  0  0  0  0  0  0  0
   18.0174  -22.8748  -12.5401 C   0  0  0  0  0  0  0  0  0  0  0  0
   16.9673  -23.9362  -12.5921 C   0  0  0  0  0  0  0  0  0  0  0  0
   15.6434  -23.4093  -12.1160 C   0  0  0  0  0  0  0  0  0  0  0  0
   14.5731  -24.4794  -12.2164 C   0  0  0  0  0  0  0  0  0  0  0  0
   13.3645  -23.9312  -11.6278 N   0  0  0  0  0  0  0  0  0  0  0  0
   19.2360  -23.4862  -14.6165 C   0  0  0  0  0  0  0  0  0  0  0  0
   19.3023  -22.5194  -15.4064 O   0  0  0  0  0  0  0  0  0  0  0  0
   19.0658  -24.7539  -15.1250 O   0  0  0  0  0  0  0  0  0  0  0  0
  2  1  1  6
  2 13  1  0
  2  3  1  0
  4  3  1  0
  5  4  2  0
  6  5  1  0
  7  6  1  0
  7 12  2  0
  8  7  1  0
  9  8  2  0
  9 10  1  0
 10 11  2  0
 11 12  1  0
 12  4  1  0
 13 14  2  0
 15 13  1  0
 15 16  1  0
 17 16  1  0
 17 18  2  0
 19 17  1  0
 20 26  1  0
 20 19  1  0
 20 21  1  6
 22 21  1  0
 23 24  1  0
 23 22  1  0
 24 25  1  0
 26 27  2  0
 26 28  1  0
M  END
$$$$
