WGK.pdb
     RDKit          3D

 28 29  0  0  1  0  0  0  0  0999 V2000
   25.1080  -20.5648   -9.3993 N   0  0  0  0  0  0  0  0  0  0  0  0
   26.5220  -20.2833   -9.4479 C   0  0  1  0  0  0  0  0  0  0  0  0
   27.2023  -20.9983   -8.2986 C   0  0  0  0  0  0  0  0  0  0  0  0
   27.4947  -20.0603   -7.1925 C   0  0  0  0  0  0  0  0  0  0  0  0
   27.0132  -18.7976   -7.0545 C   0  0  0  0  0  0  0  0  0  0  0  0
   27.5121  -18.2632   -5.9208 N   0  0  0  0  0  0  0  0  0  0  0  0
   28.3122  -19.1729   -5.3269 C   0  0  0  0  0  0  0  0  0  0  0  0
   29.0601  -19.1364   -4.1553 C   0  0  0  0  0  0  0  0  0  0  0  0
   29.7957  -20.2316   -3.7867 C   0  0  0  0  0  0  0  0  0  0  0  0
   29.7975  -21.3498   -4.5586 C   0  0  0  0  0  0  0  0  0  0  0  0
   29.0620  -21.3975   -5.7191 C   0  0  0  0  0  0  0  0  0  0  0  0
   28.3077  -20.3034   -6.1169 C   0  0  0  0  0  0  0  0  0  0  0  0
   27.1283  -20.7923  -10.7092 C   0  0  0  0  0  0  0  0  0  0  0  0
   28.3796  -20.9432  -10.7793 O   0  0  0  0  0  0  0  0  0  0  0  0
   26.2820  -21.1003  -11.8146 N   0  0  0  0  0  0  0  0  0  0  0  0
   26.8986  -21.6113  -13.0016 C   0  0  0  0  0  0  0  0  0  0  0  0
   25.9254  -21.9516  -14.0624 C   0  0  0  0  0  0  0  0  0  0  0  0
   26.2319  -22.5016  -15.1494 O   0  0  0  0  0  0  0  0  0  0  0  0
   24.5610  -21.6369  -13.8367 N   0  0  0  0  0  0  0  0  0  0  0  0
   23.6166  -21.3624  -14.9164 C   0  0  1  0  0  0  0  0  0  0  0  0
   22.9163  -20.0592  -14.5822 C   0  0  0  0  0  0  0  0  0  0  0  0
   21.7808  -19.7440  -15.5006 C   0  0  0  0  0  0  0  0  0  0  0  0
   22.0417  -18.4781  -16.2665 C   0  0  0  0  0  0  0  0  0  0  0  0
   20.8564  -18.1303  -17.1468 C   0  0  0  0  0  0  0  0  0  0  0  0
   21.2272  -16.9579  -17.9187 N   0  0  0  0  0  0  0  0  0  0  0  0
   24.3354  -21.2969  -16.2021 C   0  0  0  0  0  0  0  0  0  0  0  0
   24.1000  -22.1040  -17.1277 O   0  0  0  0  0  0  0  0  0  0  0  0
   25.2901  -20.3237  -16.3912 O   0  0  0  0  0  0  0  0  0  0  0  0
  2  1  1  6
  2 13  1  0
  2  3  1  0
  4  3  1  0
  5  4  2  0
  6  5  1  0
  7  6  1  0
  7 12  2  0
  8  7  1  0
  9  8  2  0
  9 10  1  0
 10 11  2  0
 11 12  1  0
 12  4  1  0
 13 14  2  0
 15 13  1  0
 15 16  1  0
 17 16  1  0
 17 18  2  0
 19 17  1  0
 20 26  1  0
 20 19  1  0
 20 21  1  1
 22 21  1  0
 23 24  1  0
 23 22  1  0
 24 25  1  0
 26 27  2  0
 26 28  1  0
M  END
$$$$
