WGK.pdb
     RDKit          3D

 28 29  0  0  1  0  0  0  0  0999 V2000
   25.3335  -20.4976   -9.9400 N   0  0  0  0  0  0  0  0  0  0  0  0
   26.7594  -20.3784  -10.1246 C   0  0  1  0  0  0  0  0  0  0  0  0
   27.4606  -21.1102   -8.9987 C   0  0  0  0  0  0  0  0  0  0  0  0
   27.3643  -20.3491   -7.7338 C   0  0  0  0  0  0  0  0  0  0  0  0
   26.3514  -19.5238   -7.3619 C   0  0  0  0  0  0  0  0  0  0  0  0
   26.6310  -19.0128   -6.1452 N   0  0  0  0  0  0  0  0  0  0  0  0
   27.8176  -19.5031   -5.7301 C   0  0  0  0  0  0  0  0  0  0  0  0
   28.5563  -19.3042   -4.5690 C   0  0  0  0  0  0  0  0  0  0  0  0
   29.7555  -19.9472   -4.4106 C   0  0  0  0  0  0  0  0  0  0  0  0
   30.2245  -20.7757   -5.3799 C   0  0  0  0  0  0  0  0  0  0  0  0
   29.5029  -20.9800   -6.5321 C   0  0  0  0  0  0  0  0  0  0  0  0
   28.2853  -20.3422   -6.7196 C   0  0  0  0  0  0  0  0  0  0  0  0
   27.1907  -21.0106  -11.4021 C   0  0  0  0  0  0  0  0  0  0  0  0
   26.5086  -21.9550  -11.8881 O   0  0  0  0  0  0  0  0  0  0  0  0
   28.3672  -20.5354  -12.0525 N   0  0  0  0  0  0  0  0  0  0  0  0
   28.7352  -21.1494  -13.2926 C   0  0  0  0  0  0  0  0  0  0  0  0
   28.0385  -20.5662  -14.4599 C   0  0  0  0  0  0  0  0  0  0  0  0
   27.1985  -19.6351  -14.3861 O   0  0  0  0  0  0  0  0  0  0  0  0
   28.3388  -21.0920  -15.7424 N   0  0  0  0  0  0  0  0  0  0  0  0
   27.7538  -20.5711  -16.9751 C   0  0  1  0  0  0  0  0  0  0  0  0
   28.7921  -20.7304  -18.0693 C   0  0  0  0  0  0  0  0  0  0  0  0
   28.3494  -20.1895  -19.3897 C   0  0  0  0  0  0  0  0  0  0  0  0
   29.3917  -20.4242  -20.4459 C   0  0  0  0  0  0  0  0  0  0  0  0
   28.9466  -19.8467  -21.7759 C   0  0  0  0  0  0  0  0  0  0  0  0
   29.9750  -20.1712  -22.7481 N   0  0  0  0  0  0  0  0  0  0  0  0
   26.5059  -21.2953  -17.2789 C   0  0  0  0  0  0  0  0  0  0  0  0
   26.2515  -22.4078  -16.7679 O   0  0  0  0  0  0  0  0  0  0  0  0
   25.5961  -20.7350  -18.1465 O   0  0  0  0  0  0  0  0  0  0  0  0
  2  1  1  1
  2 13  1  0
  2  3  1  0
  4  3  1  0
  5  4  2  0
  6  5  1  0
  7  6  1  0
  7 12  2  0
  8  7  1  0
  9  8  2  0
  9 10  1  0
 10 11  2  0
 11 12  1  0
 12  4  1  0
 13 14  2  0
 15 13  1  0
 15 16  1  0
 17 16  1  0
 17 18  2  0
 19 17  1  0
 20 26  1  0
 20 19  1  0
 20 21  1  6
 22 21  1  0
 23 24  1  0
 23 22  1  0
 24 25  1  0
 26 27  2  0
 26 28  1  0
M  END
$$$$
