WGK.pdb
     RDKit          3D

 28 29  0  0  1  0  0  0  0  0999 V2000
   22.0909  -20.1980  -14.7981 N   0  0  0  0  0  0  0  0  0  0  0  0
   20.9087  -20.9304  -14.4143 C   0  0  1  0  0  0  0  0  0  0  0  0
   20.8045  -22.1743  -15.2727 C   0  0  0  0  0  0  0  0  0  0  0  0
   20.4876  -21.8233  -16.6744 C   0  0  0  0  0  0  0  0  0  0  0  0
   21.3499  -21.8291  -17.7241 C   0  0  0  0  0  0  0  0  0  0  0  0
   20.6866  -21.4453  -18.8343 N   0  0  0  0  0  0  0  0  0  0  0  0
   19.4022  -21.1920  -18.5073 C   0  0  0  0  0  0  0  0  0  0  0  0
   18.3110  -20.7739  -19.2609 C   0  0  0  0  0  0  0  0  0  0  0  0
   17.0966  -20.5946  -18.6529 C   0  0  0  0  0  0  0  0  0  0  0  0
   16.9544  -20.8229  -17.3211 C   0  0  0  0  0  0  0  0  0  0  0  0
   18.0261  -21.2364  -16.5659 C   0  0  0  0  0  0  0  0  0  0  0  0
   19.2676  -21.4263  -17.1549 C   0  0  0  0  0  0  0  0  0  0  0  0
   20.9889  -21.3750  -12.9953 C   0  0  0  0  0  0  0  0  0  0  0  0
   21.8648  -20.8740  -12.2369 O   0  0  0  0  0  0  0  0  0  0  0  0
   20.0730  -22.3591  -12.5204 N   0  0  0  0  0  0  0  0  0  0  0  0
   20.1053  -22.6788  -11.1251 C   0  0  0  0  0  0  0  0  0  0  0  0
   19.0139  -23.5873  -10.7110 C   0  0  0  0  0  0  0  0  0  0  0  0
   18.1205  -24.0137  -11.4844 O   0  0  0  0  0  0  0  0  0  0  0  0
   18.9747  -24.0024   -9.3554 N   0  0  0  0  0  0  0  0  0  0  0  0
   17.9185  -24.8519   -8.8114 C   0  0  1  0  0  0  0  0  0  0  0  0
   18.3495  -25.2710   -7.4189 C   0  0  0  0  0  0  0  0  0  0  0  0
   17.5203  -26.3755   -6.8491 C   0  0  0  0  0  0  0  0  0  0  0  0
   18.0664  -26.8331   -5.5264 C   0  0  0  0  0  0  0  0  0  0  0  0
   17.1898  -27.9184   -4.9311 C   0  0  0  0  0  0  0  0  0  0  0  0
   17.8434  -28.3785   -3.7192 N   0  0  0  0  0  0  0  0  0  0  0  0
   16.6414  -24.1151   -8.8033 C   0  0  0  0  0  0  0  0  0  0  0  0
   16.5922  -22.8894   -8.5616 O   0  0  0  0  0  0  0  0  0  0  0  0
   15.4721  -24.7911   -9.0684 O   0  0  0  0  0  0  0  0  0  0  0  0
  2  1  1  6
  2 13  1  0
  2  3  1  0
  4  3  1  0
  5  4  2  0
  6  5  1  0
  7  6  1  0
  7 12  2  0
  8  7  1  0
  9  8  2  0
  9 10  1  0
 10 11  2  0
 11 12  1  0
 12  4  1  0
 13 14  2  0
 15 13  1  0
 15 16  1  0
 17 16  1  0
 17 18  2  0
 19 17  1  0
 20 26  1  0
 20 19  1  0
 20 21  1  1
 22 21  1  0
 23 24  1  0
 23 22  1  0
 24 25  1  0
 26 27  2  0
 26 28  1  0
M  END
$$$$
