WGK.pdb
     RDKit          3D

 28 29  0  0  1  0  0  0  0  0999 V2000
   22.3014  -21.1854  -17.5268 N   0  0  0  0  0  0  0  0  0  0  0  0
   21.8070  -20.5316  -16.3395 C   0  0  1  0  0  0  0  0  0  0  0  0
   20.3008  -20.6850  -16.2886 C   0  0  0  0  0  0  0  0  0  0  0  0
   19.6597  -19.9788  -17.4195 C   0  0  0  0  0  0  0  0  0  0  0  0
   19.2315  -20.5357  -18.5822 C   0  0  0  0  0  0  0  0  0  0  0  0
   18.7083  -19.5672  -19.3618 N   0  0  0  0  0  0  0  0  0  0  0  0
   18.7963  -18.3893  -18.7095 C   0  0  0  0  0  0  0  0  0  0  0  0
   18.4117  -17.0986  -19.0551 C   0  0  0  0  0  0  0  0  0  0  0  0
   18.6271  -16.0695  -18.1769 C   0  0  0  0  0  0  0  0  0  0  0  0
   19.2128  -16.3040  -16.9736 C   0  0  0  0  0  0  0  0  0  0  0  0
   19.5973  -17.5759  -16.6210 C   0  0  0  0  0  0  0  0  0  0  0  0
   19.3916  -18.6372  -17.4903 C   0  0  0  0  0  0  0  0  0  0  0  0
   22.3599  -21.1622  -15.1090 C   0  0  0  0  0  0  0  0  0  0  0  0
   22.6879  -22.3809  -15.1302 O   0  0  0  0  0  0  0  0  0  0  0  0
   22.5087  -20.3754  -13.9292 N   0  0  0  0  0  0  0  0  0  0  0  0
   23.1238  -20.9916  -12.7925 C   0  0  0  0  0  0  0  0  0  0  0  0
   24.4356  -20.4006  -12.4492 C   0  0  0  0  0  0  0  0  0  0  0  0
   25.0404  -19.5640  -13.1649 O   0  0  0  0  0  0  0  0  0  0  0  0
   25.0479  -20.8046  -11.2353 N   0  0  0  0  0  0  0  0  0  0  0  0
   26.3484  -20.3075  -10.7938 C   0  0  1  0  0  0  0  0  0  0  0  0
   26.4897  -20.6576   -9.3248 C   0  0  0  0  0  0  0  0  0  0  0  0
   27.7758  -20.1903   -8.7252 C   0  0  0  0  0  0  0  0  0  0  0  0
   27.7864  -20.4022   -7.2379 C   0  0  0  0  0  0  0  0  0  0  0  0
   29.0552  -19.8405   -6.6254 C   0  0  0  0  0  0  0  0  0  0  0  0
   28.9733  -20.0639   -5.1932 N   0  0  0  0  0  0  0  0  0  0  0  0
   27.4157  -20.9062  -11.6164 C   0  0  0  0  0  0  0  0  0  0  0  0
   27.3096  -22.0572  -12.0930 O   0  0  0  0  0  0  0  0  0  0  0  0
   28.5588  -20.1819  -11.8676 O   0  0  0  0  0  0  0  0  0  0  0  0
  2  1  1  6
  2 13  1  0
  2  3  1  0
  4  3  1  0
  5  4  2  0
  6  5  1  0
  7  6  1  0
  7 12  2  0
  8  7  1  0
  9  8  2  0
  9 10  1  0
 10 11  2  0
 11 12  1  0
 12  4  1  0
 13 14  2  0
 15 13  1  0
 15 16  1  0
 17 16  1  0
 17 18  2  0
 19 17  1  0
 20 26  1  0
 20 19  1  0
 20 21  1  1
 22 21  1  0
 23 24  1  0
 23 22  1  0
 24 25  1  0
 26 27  2  0
 26 28  1  0
M  END
$$$$
