WGK.pdb
     RDKit          3D

 28 29  0  0  1  0  0  0  0  0999 V2000
   25.8245  -20.6763  -10.5374 N   0  0  0  0  0  0  0  0  0  0  0  0
   25.3378  -20.8841   -9.1953 C   0  0  1  0  0  0  0  0  0  0  0  0
   25.8684  -19.7781   -8.3065 C   0  0  0  0  0  0  0  0  0  0  0  0
   27.2507  -20.0705   -7.8682 C   0  0  0  0  0  0  0  0  0  0  0  0
   28.2237  -20.6666   -8.6053 C   0  0  0  0  0  0  0  0  0  0  0  0
   29.3413  -20.7610   -7.8558 N   0  0  0  0  0  0  0  0  0  0  0  0
   29.0954  -20.2297   -6.6401 C   0  0  0  0  0  0  0  0  0  0  0  0
   29.8902  -20.0749   -5.5098 C   0  0  0  0  0  0  0  0  0  0  0  0
   29.3669  -19.4855   -4.3893 C   0  0  0  0  0  0  0  0  0  0  0  0
   28.0790  -19.0530   -4.3779 C   0  0  0  0  0  0  0  0  0  0  0  0
   27.2837  -19.2008   -5.4894 C   0  0  0  0  0  0  0  0  0  0  0  0
   27.7869  -19.7939   -6.6381 C   0  0  0  0  0  0  0  0  0  0  0  0
   23.8509  -20.8187   -9.1467 C   0  0  0  0  0  0  0  0  0  0  0  0
   23.2591  -19.8043   -9.6096 O   0  0  0  0  0  0  0  0  0  0  0  0
   23.1236  -21.9051   -8.5777 N   0  0  0  0  0  0  0  0  0  0  0  0
   21.6986  -21.7859   -8.5058 C   0  0  0  0  0  0  0  0  0  0  0  0
   21.1185  -22.4487   -7.3174 C   0  0  0  0  0  0  0  0  0  0  0  0
   21.7964  -22.8958   -6.3590 O   0  0  0  0  0  0  0  0  0  0  0  0
   19.7083  -22.5873   -7.2573 N   0  0  0  0  0  0  0  0  0  0  0  0
   19.0236  -23.3248   -6.1989 C   0  0  1  0  0  0  0  0  0  0  0  0
   17.5334  -23.1374   -6.4103 C   0  0  0  0  0  0  0  0  0  0  0  0
   16.6966  -23.8616   -5.4066 C   0  0  0  0  0  0  0  0  0  0  0  0
   15.2339  -23.7146   -5.7166 C   0  0  0  0  0  0  0  0  0  0  0  0
   14.3947  -24.4998   -4.7268 C   0  0  0  0  0  0  0  0  0  0  0  0
   13.0027  -24.2607   -5.0629 N   0  0  0  0  0  0  0  0  0  0  0  0
   19.4204  -24.7441   -6.2440 C   0  0  0  0  0  0  0  0  0  0  0  0
   19.6371  -25.3311   -7.3265 O   0  0  0  0  0  0  0  0  0  0  0  0
   19.5567  -25.4431   -5.0662 O   0  0  0  0  0  0  0  0  0  0  0  0
  2  1  1  6
  2 13  1  0
  2  3  1  0
  4  3  1  0
  5  4  2  0
  6  5  1  0
  7  6  1  0
  7 12  2  0
  8  7  1  0
  9  8  2  0
  9 10  1  0
 10 11  2  0
 11 12  1  0
 12  4  1  0
 13 14  2  0
 15 13  1  0
 15 16  1  0
 17 16  1  0
 17 18  2  0
 19 17  1  0
 20 26  1  0
 20 19  1  0
 20 21  1  6
 22 21  1  0
 23 24  1  0
 23 22  1  0
 24 25  1  0
 26 27  2  0
 26 28  1  0
M  END
$$$$
