WGK.pdb
     RDKit          3D

 28 29  0  0  1  0  0  0  0  0999 V2000
   24.9744  -18.7944  -17.0838 N   0  0  0  0  0  0  0  0  0  0  0  0
   24.6894  -19.6436  -15.9529 C   0  0  1  0  0  0  0  0  0  0  0  0
   23.8415  -20.8093  -16.4188 C   0  0  0  0  0  0  0  0  0  0  0  0
   22.4452  -20.3836  -16.6590 C   0  0  0  0  0  0  0  0  0  0  0  0
   21.9088  -20.0040  -17.8480 C   0  0  0  0  0  0  0  0  0  0  0  0
   20.6120  -19.6849  -17.6582 N   0  0  0  0  0  0  0  0  0  0  0  0
   20.3085  -19.8562  -16.3546 C   0  0  0  0  0  0  0  0  0  0  0  0
   19.1313  -19.6741  -15.6374 C   0  0  0  0  0  0  0  0  0  0  0  0
   19.1109  -19.9324  -14.2922 C   0  0  0  0  0  0  0  0  0  0  0  0
   20.2322  -20.3644  -13.6581 C   0  0  0  0  0  0  0  0  0  0  0  0
   21.4018  -20.5479  -14.3569 C   0  0  0  0  0  0  0  0  0  0  0  0
   21.4518  -20.2944  -15.7198 C   0  0  0  0  0  0  0  0  0  0  0  0
   25.9408  -20.2072  -15.3751 C   0  0  0  0  0  0  0  0  0  0  0  0
   26.9633  -20.3250  -16.1058 O   0  0  0  0  0  0  0  0  0  0  0  0
   25.9596  -20.6027  -14.0054 N   0  0  0  0  0  0  0  0  0  0  0  0
   27.2044  -21.0548  -13.4611 C   0  0  0  0  0  0  0  0  0  0  0  0
   27.0657  -21.6671  -12.1218 C   0  0  0  0  0  0  0  0  0  0  0  0
   26.5470  -22.7917  -11.9116 O   0  0  0  0  0  0  0  0  0  0  0  0
   27.5493  -20.9379  -11.0056 N   0  0  0  0  0  0  0  0  0  0  0  0
   26.9728  -21.0507   -9.6685 C   0  0  1  0  0  0  0  0  0  0  0  0
   27.6893  -20.0495   -8.7827 C   0  0  0  0  0  0  0  0  0  0  0  0
   27.0975  -19.9378   -7.4154 C   0  0  0  0  0  0  0  0  0  0  0  0
   28.0623  -19.2935   -6.4608 C   0  0  0  0  0  0  0  0  0  0  0  0
   27.4702  -19.2233   -5.0661 C   0  0  0  0  0  0  0  0  0  0  0  0
   28.5118  -18.7282   -4.1843 N   0  0  0  0  0  0  0  0  0  0  0  0
   25.5204  -20.8039   -9.7299 C   0  0  0  0  0  0  0  0  0  0  0  0
   25.0264  -19.9918  -10.5421 O   0  0  0  0  0  0  0  0  0  0  0  0
   24.6849  -21.4833   -8.8727 O   0  0  0  0  0  0  0  0  0  0  0  0
  2  1  1  6
  2 13  1  0
  2  3  1  0
  4  3  1  0
  5  4  2  0
  6  5  1  0
  7  6  1  0
  7 12  2  0
  8  7  1  0
  9  8  2  0
  9 10  1  0
 10 11  2  0
 11 12  1  0
 12  4  1  0
 13 14  2  0
 15 13  1  0
 15 16  1  0
 17 16  1  0
 17 18  2  0
 19 17  1  0
 20 26  1  0
 20 19  1  0
 20 21  1  1
 22 21  1  0
 23 24  1  0
 23 22  1  0
 24 25  1  0
 26 27  2  0
 26 28  1  0
M  END
$$$$
