WGK.pdb
     RDKit          3D

 28 29  0  0  1  0  0  0  0  0999 V2000
   29.1769  -21.5031   -9.6285 N   0  0  0  0  0  0  0  0  0  0  0  0
   27.8133  -21.0797   -9.4225 C   0  0  1  0  0  0  0  0  0  0  0  0
   27.8186  -19.6829   -8.8363 C   0  0  0  0  0  0  0  0  0  0  0  0
   28.5353  -19.6562   -7.5424 C   0  0  0  0  0  0  0  0  0  0  0  0
   29.8229  -19.2740   -7.3391 C   0  0  0  0  0  0  0  0  0  0  0  0
   30.1102  -19.3936   -6.0265 N   0  0  0  0  0  0  0  0  0  0  0  0
   29.0163  -19.8504   -5.3820 C   0  0  0  0  0  0  0  0  0  0  0  0
   28.7738  -20.1437   -4.0447 C   0  0  0  0  0  0  0  0  0  0  0  0
   27.5401  -20.6018   -3.6645 C   0  0  0  0  0  0  0  0  0  0  0  0
   26.5556  -20.7702   -4.5856 C   0  0  0  0  0  0  0  0  0  0  0  0
   26.7837  -20.4836   -5.9106 C   0  0  0  0  0  0  0  0  0  0  0  0
   28.0232  -20.0181   -6.3243 C   0  0  0  0  0  0  0  0  0  0  0  0
   27.0692  -21.0182  -10.7110 C   0  0  0  0  0  0  0  0  0  0  0  0
   27.6732  -21.2757  -11.7891 O   0  0  0  0  0  0  0  0  0  0  0  0
   25.6867  -20.6694  -10.7015 N   0  0  0  0  0  0  0  0  0  0  0  0
   24.9878  -20.6886  -11.9511 C   0  0  0  0  0  0  0  0  0  0  0  0
   23.5482  -20.3760  -11.8174 C   0  0  0  0  0  0  0  0  0  0  0  0
   22.9370  -20.3262  -10.7210 O   0  0  0  0  0  0  0  0  0  0  0  0
   22.8130  -20.1161  -13.0020 N   0  0  0  0  0  0  0  0  0  0  0  0
   21.3931  -19.7739  -13.0008 C   0  0  1  0  0  0  0  0  0  0  0  0
   21.0423  -19.3007  -14.3985 C   0  0  0  0  0  0  0  0  0  0  0  0
   22.1980  -18.6962  -15.1271 C   0  0  0  0  0  0  0  0  0  0  0  0
   21.8019  -18.2774  -16.5145 C   0  0  0  0  0  0  0  0  0  0  0  0
   22.9914  -17.7053  -17.2619 C   0  0  0  0  0  0  0  0  0  0  0  0
   22.5755  -17.5067  -18.6386 N   0  0  0  0  0  0  0  0  0  0  0  0
   20.5987  -20.9467  -12.5918 C   0  0  0  0  0  0  0  0  0  0  0  0
   20.9249  -22.1079  -12.9212 O   0  0  0  0  0  0  0  0  0  0  0  0
   19.4688  -20.7617  -11.8279 O   0  0  0  0  0  0  0  0  0  0  0  0
  2  1  1  6
  2 13  1  0
  2  3  1  0
  4  3  1  0
  5  4  2  0
  6  5  1  0
  7  6  1  0
  7 12  2  0
  8  7  1  0
  9  8  2  0
  9 10  1  0
 10 11  2  0
 11 12  1  0
 12  4  1  0
 13 14  2  0
 15 13  1  0
 15 16  1  0
 17 16  1  0
 17 18  2  0
 19 17  1  0
 20 26  1  0
 20 19  1  0
 20 21  1  6
 22 21  1  0
 23 24  1  0
 23 22  1  0
 24 25  1  0
 26 27  2  0
 26 28  1  0
M  END
$$$$
