WGK.pdb
     RDKit          3D

 28 29  0  0  1  0  0  0  0  0999 V2000
   25.4329  -21.1933  -10.5460 N   0  0  0  0  0  0  0  0  0  0  0  0
   26.4157  -20.1618  -10.3192 C   0  0  1  0  0  0  0  0  0  0  0  0
   27.4402  -20.6728   -9.3271 C   0  0  0  0  0  0  0  0  0  0  0  0
   26.9374  -20.5540   -7.9409 C   0  0  0  0  0  0  0  0  0  0  0  0
   25.6423  -20.6403   -7.5403 C   0  0  0  0  0  0  0  0  0  0  0  0
   25.5886  -20.4754   -6.2025 N   0  0  0  0  0  0  0  0  0  0  0  0
   26.8407  -20.2833   -5.7378 C   0  0  0  0  0  0  0  0  0  0  0  0
   27.3398  -20.0682   -4.4579 C   0  0  0  0  0  0  0  0  0  0  0  0
   28.6873  -19.9029   -4.2752 C   0  0  0  0  0  0  0  0  0  0  0  0
   29.5354  -19.9483   -5.3358 C   0  0  0  0  0  0  0  0  0  0  0  0
   29.0535  -20.1602   -6.6057 C   0  0  0  0  0  0  0  0  0  0  0  0
   27.6937  -20.3309   -6.8205 C   0  0  0  0  0  0  0  0  0  0  0  0
   27.1421  -19.8261  -11.5751 C   0  0  0  0  0  0  0  0  0  0  0  0
   27.9278  -18.8382  -11.5922 O   0  0  0  0  0  0  0  0  0  0  0  0
   26.9361  -20.6289  -12.7353 N   0  0  0  0  0  0  0  0  0  0  0  0
   27.7909  -20.4016  -13.8613 C   0  0  0  0  0  0  0  0  0  0  0  0
   27.6532  -21.4318  -14.9137 C   0  0  0  0  0  0  0  0  0  0  0  0
   28.4197  -21.5345  -15.9037 O   0  0  0  0  0  0  0  0  0  0  0  0
   26.5886  -22.3615  -14.7967 N   0  0  0  0  0  0  0  0  0  0  0  0
   25.7156  -22.7192  -15.9116 C   0  0  1  0  0  0  0  0  0  0  0  0
   24.3160  -22.8884  -15.3519 C   0  0  0  0  0  0  0  0  0  0  0  0
   24.2433  -23.8632  -14.2221 C   0  0  0  0  0  0  0  0  0  0  0  0
   23.4135  -25.0591  -14.5937 C   0  0  0  0  0  0  0  0  0  0  0  0
   23.2970  -26.0157  -13.4223 C   0  0  0  0  0  0  0  0  0  0  0  0
   22.4981  -27.1427  -13.8689 N   0  0  0  0  0  0  0  0  0  0  0  0
   25.7800  -21.6741  -16.9496 C   0  0  0  0  0  0  0  0  0  0  0  0
   25.3073  -20.5320  -16.7615 O   0  0  0  0  0  0  0  0  0  0  0  0
   26.3751  -21.9601  -18.1573 O   0  0  0  0  0  0  0  0  0  0  0  0
  2  1  1  6
  2 13  1  0
  2  3  1  0
  4  3  1  0
  5  4  2  0
  6  5  1  0
  7  6  1  0
  7 12  2  0
  8  7  1  0
  9  8  2  0
  9 10  1  0
 10 11  2  0
 11 12  1  0
 12  4  1  0
 13 14  2  0
 15 13  1  0
 15 16  1  0
 17 16  1  0
 17 18  2  0
 19 17  1  0
 20 26  1  0
 20 19  1  0
 20 21  1  1
 22 21  1  0
 23 24  1  0
 23 22  1  0
 24 25  1  0
 26 27  2  0
 26 28  1  0
M  END
$$$$
