WGK.pdb
     RDKit          3D

 28 29  0  0  1  0  0  0  0  0999 V2000
   25.2229  -21.0431  -10.4002 N   0  0  0  0  0  0  0  0  0  0  0  0
   26.5084  -20.3947  -10.3089 C   0  0  1  0  0  0  0  0  0  0  0  0
   27.3639  -21.1447   -9.3087 C   0  0  0  0  0  0  0  0  0  0  0  0
   26.9327  -20.8553   -7.9234 C   0  0  0  0  0  0  0  0  0  0  0  0
   25.6703  -20.9563   -7.4318 C   0  0  0  0  0  0  0  0  0  0  0  0
   25.6808  -20.6030   -6.1300 N   0  0  0  0  0  0  0  0  0  0  0  0
   26.9416  -20.2747   -5.7789 C   0  0  0  0  0  0  0  0  0  0  0  0
   27.4961  -19.8486   -4.5771 C   0  0  0  0  0  0  0  0  0  0  0  0
   28.8380  -19.5823   -4.5070 C   0  0  0  0  0  0  0  0  0  0  0  0
   29.6268  -19.7322   -5.6031 C   0  0  0  0  0  0  0  0  0  0  0  0
   29.0896  -20.1527   -6.7967 C   0  0  0  0  0  0  0  0  0  0  0  0
   27.7341  -20.4298   -6.8969 C   0  0  0  0  0  0  0  0  0  0  0  0
   27.2209  -20.4275  -11.6161 C   0  0  0  0  0  0  0  0  0  0  0  0
   27.3984  -21.5333  -12.1983 O   0  0  0  0  0  0  0  0  0  0  0  0
   27.6891  -19.2070  -12.1855 N   0  0  0  0  0  0  0  0  0  0  0  0
   28.6252  -19.2935  -13.2656 C   0  0  0  0  0  0  0  0  0  0  0  0
   27.9990  -19.6798  -14.5488 C   0  0  0  0  0  0  0  0  0  0  0  0
   26.9293  -19.1880  -14.9869 O   0  0  0  0  0  0  0  0  0  0  0  0
   28.6481  -20.6675  -15.3328 N   0  0  0  0  0  0  0  0  0  0  0  0
   28.1673  -21.0856  -16.6470 C   0  0  1  0  0  0  0  0  0  0  0  0
   29.3145  -21.7935  -17.3424 C   0  0  0  0  0  0  0  0  0  0  0  0
   29.1506  -21.8725  -18.8253 C   0  0  0  0  0  0  0  0  0  0  0  0
   30.3416  -22.5269  -19.4658 C   0  0  0  0  0  0  0  0  0  0  0  0
   30.2513  -22.4424  -20.9775 C   0  0  0  0  0  0  0  0  0  0  0  0
   31.4198  -23.1169  -21.5136 N   0  0  0  0  0  0  0  0  0  0  0  0
   26.9861  -21.9543  -16.4919 C   0  0  0  0  0  0  0  0  0  0  0  0
   26.0273  -21.9079  -17.2930 O   0  0  0  0  0  0  0  0  0  0  0  0
   26.9350  -22.8400  -15.4396 O   0  0  0  0  0  0  0  0  0  0  0  0
  2  1  1  6
  2 13  1  0
  2  3  1  0
  4  3  1  0
  5  4  2  0
  6  5  1  0
  7  6  1  0
  7 12  2  0
  8  7  1  0
  9  8  2  0
  9 10  1  0
 10 11  2  0
 11 12  1  0
 12  4  1  0
 13 14  2  0
 15 13  1  0
 15 16  1  0
 17 16  1  0
 17 18  2  0
 19 17  1  0
 20 26  1  0
 20 19  1  0
 20 21  1  1
 22 21  1  0
 23 24  1  0
 23 22  1  0
 24 25  1  0
 26 27  2  0
 26 28  1  0
M  END
$$$$
