WGK.pdb
     RDKit          3D

 28 29  0  0  1  0  0  0  0  0999 V2000
   25.4040  -19.0475  -11.3638 N   0  0  0  0  0  0  0  0  0  0  0  0
   25.5219  -20.3911  -11.8759 C   0  0  1  0  0  0  0  0  0  0  0  0
   25.4768  -21.3624  -10.7142 C   0  0  0  0  0  0  0  0  0  0  0  0
   26.4648  -20.9915   -9.6775 C   0  0  0  0  0  0  0  0  0  0  0  0
   26.2627  -20.1460   -8.6336 C   0  0  0  0  0  0  0  0  0  0  0  0
   27.4013  -20.0617   -7.9151 N   0  0  0  0  0  0  0  0  0  0  0  0
   28.3364  -20.8473   -8.4889 C   0  0  0  0  0  0  0  0  0  0  0  0
   29.6589  -21.1203   -8.1576 C   0  0  0  0  0  0  0  0  0  0  0  0
   30.3892  -21.9783   -8.9367 C   0  0  0  0  0  0  0  0  0  0  0  0
   29.8285  -22.5618  -10.0282 C   0  0  0  0  0  0  0  0  0  0  0  0
   28.5219  -22.2993  -10.3656 C   0  0  0  0  0  0  0  0  0  0  0  0
   27.7585  -21.4347   -9.5948 C   0  0  0  0  0  0  0  0  0  0  0  0
   24.3849  -20.7241  -12.7781 C   0  0  0  0  0  0  0  0  0  0  0  0
   23.2175  -20.3600  -12.4652 O   0  0  0  0  0  0  0  0  0  0  0  0
   24.6378  -21.4485  -13.9798 N   0  0  0  0  0  0  0  0  0  0  0  0
   23.5216  -21.7388  -14.8283 C   0  0  0  0  0  0  0  0  0  0  0  0
   22.6362  -22.7918  -14.2850 C   0  0  0  0  0  0  0  0  0  0  0  0
   22.9691  -23.9966  -14.1594 O   0  0  0  0  0  0  0  0  0  0  0  0
   21.3296  -22.4164  -13.8806 N   0  0  0  0  0  0  0  0  0  0  0  0
   20.3605  -23.3631  -13.3350 C   0  0  1  0  0  0  0  0  0  0  0  0
   19.4983  -22.6048  -12.3440 C   0  0  0  0  0  0  0  0  0  0  0  0
   18.6461  -23.4938  -11.4982 C   0  0  0  0  0  0  0  0  0  0  0  0
   19.3257  -23.8145  -10.1973 C   0  0  0  0  0  0  0  0  0  0  0  0
   18.4286  -24.6662   -9.3195 C   0  0  0  0  0  0  0  0  0  0  0  0
   19.1750  -24.9678   -8.1113 N   0  0  0  0  0  0  0  0  0  0  0  0
   19.5678  -23.9511  -14.4304 C   0  0  0  0  0  0  0  0  0  0  0  0
   19.1270  -23.2534  -15.3696 O   0  0  0  0  0  0  0  0  0  0  0  0
   19.3049  -25.3022  -14.4215 O   0  0  0  0  0  0  0  0  0  0  0  0
  2  1  1  1
  2 13  1  0
  2  3  1  0
  4  3  1  0
  5  4  2  0
  6  5  1  0
  7  6  1  0
  7 12  2  0
  8  7  1  0
  9  8  2  0
  9 10  1  0
 10 11  2  0
 11 12  1  0
 12  4  1  0
 13 14  2  0
 15 13  1  0
 15 16  1  0
 17 16  1  0
 17 18  2  0
 19 17  1  0
 20 26  1  0
 20 19  1  0
 20 21  1  1
 22 21  1  0
 23 24  1  0
 23 22  1  0
 24 25  1  0
 26 27  2  0
 26 28  1  0
M  END
$$$$
