WGK.pdb
     RDKit          3D

 28 29  0  0  1  0  0  0  0  0999 V2000
   20.7897  -21.2680  -14.2710 N   0  0  0  0  0  0  0  0  0  0  0  0
   21.7292  -22.3361  -14.0304 C   0  0  1  0  0  0  0  0  0  0  0  0
   22.9951  -21.7495  -13.4402 C   0  0  0  0  0  0  0  0  0  0  0  0
   23.8691  -21.2044  -14.5020 C   0  0  0  0  0  0  0  0  0  0  0  0
   23.9492  -19.9069  -14.8965 C   0  0  0  0  0  0  0  0  0  0  0  0
   24.8544  -19.8099  -15.8920 N   0  0  0  0  0  0  0  0  0  0  0  0
   25.3585  -21.0362  -16.1420 C   0  0  0  0  0  0  0  0  0  0  0  0
   26.3073  -21.4889  -17.0521 C   0  0  0  0  0  0  0  0  0  0  0  0
   26.6338  -22.8188  -17.0852 C   0  0  0  0  0  0  0  0  0  0  0  0
   26.0365  -23.6946  -16.2353 C   0  0  0  0  0  0  0  0  0  0  0  0
   25.0970  -23.2587  -15.3313 C   0  0  0  0  0  0  0  0  0  0  0  0
   24.7469  -21.9175  -15.2753 C   0  0  0  0  0  0  0  0  0  0  0  0
   21.1906  -23.3135  -13.0444 C   0  0  0  0  0  0  0  0  0  0  0  0
   20.2152  -22.9843  -12.3138 O   0  0  0  0  0  0  0  0  0  0  0  0
   21.7879  -24.6044  -12.9452 N   0  0  0  0  0  0  0  0  0  0  0  0
   21.2082  -25.5361  -12.0254 C   0  0  0  0  0  0  0  0  0  0  0  0
   20.6765  -26.7494  -12.6836 C   0  0  0  0  0  0  0  0  0  0  0  0
   20.7044  -26.9477  -13.9238 O   0  0  0  0  0  0  0  0  0  0  0  0
   20.0994  -27.7510  -11.8620 N   0  0  0  0  0  0  0  0  0  0  0  0
   19.6493  -29.0422  -12.3752 C   0  0  1  0  0  0  0  0  0  0  0  0
   19.6786  -30.0223  -11.2179 C   0  0  0  0  0  0  0  0  0  0  0  0
   21.0367  -30.1915  -10.6188 C   0  0  0  0  0  0  0  0  0  0  0  0
   20.9966  -31.1325   -9.4483 C   0  0  0  0  0  0  0  0  0  0  0  0
   22.3731  -31.2741   -8.8271 C   0  0  0  0  0  0  0  0  0  0  0  0
   22.2531  -32.2227   -7.7345 N   0  0  0  0  0  0  0  0  0  0  0  0
   18.3016  -28.9044  -12.9571 C   0  0  0  0  0  0  0  0  0  0  0  0
   17.4853  -28.0591  -12.5299 O   0  0  0  0  0  0  0  0  0  0  0  0
   17.9299  -29.7256  -13.9973 O   0  0  0  0  0  0  0  0  0  0  0  0
  2  1  1  1
  2 13  1  0
  2  3  1  0
  4  3  1  0
  5  4  2  0
  6  5  1  0
  7  6  1  0
  7 12  2  0
  8  7  1  0
  9  8  2  0
  9 10  1  0
 10 11  2  0
 11 12  1  0
 12  4  1  0
 13 14  2  0
 15 13  1  0
 15 16  1  0
 17 16  1  0
 17 18  2  0
 19 17  1  0
 20 26  1  0
 20 19  1  0
 20 21  1  1
 22 21  1  0
 23 24  1  0
 23 22  1  0
 24 25  1  0
 26 27  2  0
 26 28  1  0
M  END
$$$$
