FDI.pdb
     RDKit          3D

 28 28  0  0  1  0  0  0  0  0999 V2000
    6.5624  -18.1841   21.0140 N   0  0  0  0  0  0  0  0  0  0  0  0
    7.2037  -16.9043   21.1864 C   0  0  1  0  0  0  0  0  0  0  0  0
    6.1117  -15.9003   21.5141 C   0  0  0  0  0  0  0  0  0  0  0  0
    6.7171  -14.5618   21.4315 C   0  0  0  0  0  0  0  0  0  0  0  0
    6.8937  -13.7670   22.5372 C   0  0  0  0  0  0  0  0  0  0  0  0
    7.4625  -12.5080   22.4567 C   0  0  0  0  0  0  0  0  0  0  0  0
    7.8583  -12.0628   21.1947 C   0  0  0  0  0  0  0  0  0  0  0  0
    7.6958  -12.8333   20.0683 C   0  0  0  0  0  0  0  0  0  0  0  0
    7.1231  -14.0787   20.2120 C   0  0  0  0  0  0  0  0  0  0  0  0
    8.1467  -17.0165   22.3285 C   0  0  0  0  0  0  0  0  0  0  0  0
    7.7669  -17.3896   23.4697 O   0  0  0  0  0  0  0  0  0  0  0  0
    9.5382  -16.6957   22.1513 N   0  0  0  0  0  0  0  0  0  0  0  0
   10.4890  -16.8250   23.2057 C   0  0  1  0  0  0  0  0  0  0  0  0
   11.9112  -16.9742   22.7421 C   0  0  0  0  0  0  0  0  0  0  0  0
   12.0640  -17.8445   21.5735 C   0  0  0  0  0  0  0  0  0  0  0  0
   11.6529  -19.0281   21.5010 O   0  0  0  0  0  0  0  0  0  0  0  0
   10.3531  -15.7470   24.2317 C   0  0  0  0  0  0  0  0  0  0  0  0
   10.8993  -14.6563   24.0065 O   0  0  0  0  0  0  0  0  0  0  0  0
   12.7111  -17.3270   20.4600 O   0  0  0  0  0  0  0  0  0  0  0  0
    7.2228  -12.2273   25.8810 C   0  0  0  0  0  0  0  0  0  0  0  0
    8.5349  -12.9659   25.8811 C   0  0  0  0  0  0  0  0  0  0  0  0
    8.4973  -14.2103   26.7185 C   0  0  2  0  0  0  0  0  0  0  0  0
    8.2129  -13.8055   28.1461 C   0  0  0  0  0  0  0  0  0  0  0  0
    9.7252  -15.0399   26.5761 C   0  0  2  0  0  0  0  0  0  0  0  0
    9.6253  -15.9480   25.4321 N   0  0  0  0  0  0  0  0  0  0  0  0
   10.1167  -15.7831   27.7932 C   0  0  0  0  0  0  0  0  0  0  0  0
   10.7202  -15.1961   28.8576 O   0  0  0  0  0  0  0  0  0  0  0  0
    9.8797  -17.0285   27.8471 O   0  0  0  0  0  0  0  0  0  0  0  0
  2  1  1  1
  2  3  1  0
  2 10  1  0
  3  4  1  0
  4  9  2  0
  5  6  2  0
  5  4  1  0
  6  7  1  0
  7  8  2  0
  9  8  1  0
 10 12  1  0
 10 11  2  0
 12 13  1  0
 13 14  1  6
 15 14  1  0
 15 19  1  0
 16 15  2  0
 17 13  1  0
 17 18  2  0
 20 21  1  0
 22 24  1  0
 22 21  1  0
 22 23  1  1
 24 25  1  6
 25 17  1  0
 26 24  1  0
 27 26  1  0
 28 26  2  0
M  END
$$$$
