FDI.pdb
     RDKit          3D

 28 28  0  0  1  0  0  0  0  0999 V2000
    7.4083  -18.0740   19.8084 N   0  0  0  0  0  0  0  0  0  0  0  0
    7.7617  -16.8025   20.3891 C   0  0  1  0  0  0  0  0  0  0  0  0
    6.5387  -15.9080   20.2787 C   0  0  0  0  0  0  0  0  0  0  0  0
    6.9559  -14.5550   20.6792 C   0  0  0  0  0  0  0  0  0  0  0  0
    7.5434  -13.6784   19.8007 C   0  0  0  0  0  0  0  0  0  0  0  0
    7.9359  -12.4067   20.1801 C   0  0  0  0  0  0  0  0  0  0  0  0
    7.7122  -12.0358   21.5067 C   0  0  0  0  0  0  0  0  0  0  0  0
    7.1267  -12.8891   22.4111 C   0  0  0  0  0  0  0  0  0  0  0  0
    6.7573  -14.1429   21.9738 C   0  0  0  0  0  0  0  0  0  0  0  0
    8.0941  -17.0303   21.8187 C   0  0  0  0  0  0  0  0  0  0  0  0
    7.2456  -17.4763   22.6353 O   0  0  0  0  0  0  0  0  0  0  0  0
    9.4159  -16.7409   22.3085 N   0  0  0  0  0  0  0  0  0  0  0  0
    9.8489  -17.1361   23.6081 C   0  0  1  0  0  0  0  0  0  0  0  0
   11.0710  -18.0115   23.6138 C   0  0  0  0  0  0  0  0  0  0  0  0
   12.2810  -17.3411   23.1314 C   0  0  0  0  0  0  0  0  0  0  0  0
   13.1391  -16.7929   23.8649 O   0  0  0  0  0  0  0  0  0  0  0  0
    9.9971  -15.9753   24.5375 C   0  0  0  0  0  0  0  0  0  0  0  0
   10.7117  -15.0277   24.1767 O   0  0  0  0  0  0  0  0  0  0  0  0
   12.5002  -17.3062   21.7612 O   0  0  0  0  0  0  0  0  0  0  0  0
    6.9820  -12.3569   26.1979 C   0  0  0  0  0  0  0  0  0  0  0  0
    8.1895  -13.2180   25.9375 C   0  0  0  0  0  0  0  0  0  0  0  0
    8.5735  -14.0490   27.1263 C   0  0  2  0  0  0  0  0  0  0  0  0
    8.8472  -13.1149   28.2818 C   0  0  0  0  0  0  0  0  0  0  0  0
    9.7012  -14.9783   26.8415 C   0  0  2  0  0  0  0  0  0  0  0  0
    9.3474  -15.9417   25.7975 N   0  0  0  0  0  0  0  0  0  0  0  0
   10.2442  -15.6765   28.0267 C   0  0  0  0  0  0  0  0  0  0  0  0
   11.1155  -15.0990   28.8921 O   0  0  0  0  0  0  0  0  0  0  0  0
    9.8813  -16.8725   28.2464 O   0  0  0  0  0  0  0  0  0  0  0  0
  2  1  1  1
  2  3  1  0
  2 10  1  0
  3  4  1  0
  4  9  2  0
  5  6  2  0
  5  4  1  0
  6  7  1  0
  7  8  2  0
  9  8  1  0
 10 12  1  0
 10 11  2  0
 12 13  1  0
 13 14  1  6
 15 14  1  0
 15 19  1  0
 16 15  2  0
 17 13  1  0
 17 18  2  0
 20 21  1  0
 22 24  1  0
 22 21  1  0
 22 23  1  1
 24 25  1  6
 25 17  1  0
 26 24  1  0
 27 26  1  0
 28 26  2  0
M  END
$$$$
