FDI.pdb
     RDKit          3D

 28 28  0  0  1  0  0  0  0  0999 V2000
    6.2176  -16.8761   24.8406 N   0  0  0  0  0  0  0  0  0  0  0  0
    7.1411  -16.7844   23.7372 C   0  0  1  0  0  0  0  0  0  0  0  0
    6.9109  -15.4364   23.0756 C   0  0  0  0  0  0  0  0  0  0  0  0
    7.0970  -14.4092   24.1126 C   0  0  0  0  0  0  0  0  0  0  0  0
    7.9901  -13.3761   23.9699 C   0  0  0  0  0  0  0  0  0  0  0  0
    8.1640  -12.4118   24.9472 C   0  0  0  0  0  0  0  0  0  0  0  0
    7.3899  -12.5235   26.1029 C   0  0  0  0  0  0  0  0  0  0  0  0
    6.4870  -13.5449   26.2771 C   0  0  0  0  0  0  0  0  0  0  0  0
    6.3585  -14.4753   25.2682 C   0  0  0  0  0  0  0  0  0  0  0  0
    8.5188  -16.8482   24.2887 C   0  0  0  0  0  0  0  0  0  0  0  0
    8.7409  -17.1642   25.4872 O   0  0  0  0  0  0  0  0  0  0  0  0
    9.6480  -16.5450   23.4497 N   0  0  0  0  0  0  0  0  0  0  0  0
   10.9835  -16.8767   23.8226 C   0  0  1  0  0  0  0  0  0  0  0  0
   12.0100  -16.5996   22.7599 C   0  0  0  0  0  0  0  0  0  0  0  0
   11.7771  -17.3258   21.5090 C   0  0  0  0  0  0  0  0  0  0  0  0
   11.3409  -18.5000   21.4310 O   0  0  0  0  0  0  0  0  0  0  0  0
   11.3739  -16.2804   25.1360 C   0  0  0  0  0  0  0  0  0  0  0  0
   11.9299  -15.1717   25.1301 O   0  0  0  0  0  0  0  0  0  0  0  0
   12.0580  -16.6715   20.3175 O   0  0  0  0  0  0  0  0  0  0  0  0
    8.3981  -14.1826   28.7127 C   0  0  0  0  0  0  0  0  0  0  0  0
    9.1801  -15.4217   28.3660 C   0  0  0  0  0  0  0  0  0  0  0  0
   10.5600  -15.1125   27.8646 C   0  0  2  0  0  0  0  0  0  0  0  0
   10.4272  -14.2692   26.6181 C   0  0  0  0  0  0  0  0  0  0  0  0
   11.3886  -16.3330   27.6633 C   0  0  2  0  0  0  0  0  0  0  0  0
   11.1236  -16.9484   26.3617 N   0  0  0  0  0  0  0  0  0  0  0  0
   11.2834  -17.3392   28.7419 C   0  0  0  0  0  0  0  0  0  0  0  0
   10.7910  -18.5883   28.5444 O   0  0  0  0  0  0  0  0  0  0  0  0
   11.6696  -17.0220   29.9083 O   0  0  0  0  0  0  0  0  0  0  0  0
  2  1  1  1
  2  3  1  0
  2 10  1  0
  3  4  1  0
  4  9  2  0
  5  6  2  0
  5  4  1  0
  6  7  1  0
  7  8  2  0
  9  8  1  0
 10 12  1  0
 10 11  2  0
 12 13  1  0
 13 14  1  6
 15 14  1  0
 15 19  1  0
 16 15  2  0
 17 13  1  0
 17 18  2  0
 20 21  1  0
 22 24  1  0
 22 21  1  0
 22 23  1  6
 24 25  1  6
 25 17  1  0
 26 24  1  0
 27 26  1  0
 28 26  2  0
M  END
$$$$
