FDI.pdb
     RDKit          3D

 28 28  0  0  1  0  0  0  0  0999 V2000
    6.0774  -18.1422   20.7672 N   0  0  0  0  0  0  0  0  0  0  0  0
    6.8963  -16.9565   20.8126 C   0  0  1  0  0  0  0  0  0  0  0  0
    5.9902  -15.8055   21.2153 C   0  0  0  0  0  0  0  0  0  0  0  0
    6.7395  -14.5620   20.9755 C   0  0  0  0  0  0  0  0  0  0  0  0
    7.2836  -14.2579   19.7520 C   0  0  0  0  0  0  0  0  0  0  0  0
    7.9888  -13.0881   19.5292 C   0  0  0  0  0  0  0  0  0  0  0  0
    8.1325  -12.2114   20.6054 C   0  0  0  0  0  0  0  0  0  0  0  0
    7.6004  -12.4857   21.8424 C   0  0  0  0  0  0  0  0  0  0  0  0
    6.9083  -13.6669   22.0028 C   0  0  0  0  0  0  0  0  0  0  0  0
    7.9415  -17.1631   21.8476 C   0  0  0  0  0  0  0  0  0  0  0  0
    7.6809  -17.6969   22.9579 O   0  0  0  0  0  0  0  0  0  0  0  0
    9.2973  -16.7504   21.5982 N   0  0  0  0  0  0  0  0  0  0  0  0
   10.3411  -16.9532   22.5479 C   0  0  1  0  0  0  0  0  0  0  0  0
   11.7177  -17.0272   21.9486 C   0  0  0  0  0  0  0  0  0  0  0  0
   12.7714  -17.3240   22.9222 C   0  0  0  0  0  0  0  0  0  0  0  0
   12.7733  -18.3087   23.7004 O   0  0  0  0  0  0  0  0  0  0  0  0
   10.2826  -15.9764   23.6773 C   0  0  0  0  0  0  0  0  0  0  0  0
   11.1357  -15.0767   23.7140 O   0  0  0  0  0  0  0  0  0  0  0  0
   13.8511  -16.4547   22.9943 O   0  0  0  0  0  0  0  0  0  0  0  0
    6.9993  -12.2951   26.9103 C   0  0  0  0  0  0  0  0  0  0  0  0
    8.0968  -13.3214   27.0083 C   0  0  0  0  0  0  0  0  0  0  0  0
    8.1151  -14.2610   25.8387 C   0  0  2  0  0  0  0  0  0  0  0  0
    6.7851  -14.9763   25.7920 C   0  0  0  0  0  0  0  0  0  0  0  0
    9.2805  -15.1872   25.8598 C   0  0  2  0  0  0  0  0  0  0  0  0
    9.2884  -16.0607   24.6850 N   0  0  0  0  0  0  0  0  0  0  0  0
    9.4172  -15.9844   27.0977 C   0  0  0  0  0  0  0  0  0  0  0  0
    9.3379  -17.3390   27.1191 O   0  0  0  0  0  0  0  0  0  0  0  0
    9.6165  -15.3759   28.1933 O   0  0  0  0  0  0  0  0  0  0  0  0
  2  1  1  1
  2  3  1  0
  2 10  1  0
  3  4  1  0
  4  9  2  0
  5  6  2  0
  5  4  1  0
  6  7  1  0
  7  8  2  0
  9  8  1  0
 10 12  1  0
 10 11  2  0
 12 13  1  0
 13 14  1  6
 15 14  1  0
 15 19  1  0
 16 15  2  0
 17 13  1  0
 17 18  2  0
 20 21  1  0
 22 24  1  0
 22 21  1  0
 22 23  1  1
 24 25  1  6
 25 17  1  0
 26 24  1  0
 27 26  1  0
 28 26  2  0
M  END
$$$$
