FDI.pdb
     RDKit          3D

 28 28  0  0  1  0  0  0  0  0999 V2000
    7.3328  -16.9979   21.2999 N   0  0  0  0  0  0  0  0  0  0  0  0
    7.6675  -16.0757   22.3564 C   0  0  1  0  0  0  0  0  0  0  0  0
    6.4447  -15.9614   23.2507 C   0  0  0  0  0  0  0  0  0  0  0  0
    6.6523  -14.7912   24.1182 C   0  0  0  0  0  0  0  0  0  0  0  0
    6.3045  -14.7918   25.4465 C   0  0  0  0  0  0  0  0  0  0  0  0
    6.4999  -13.6895   26.2601 C   0  0  0  0  0  0  0  0  0  0  0  0
    7.0716  -12.5569   25.6787 C   0  0  0  0  0  0  0  0  0  0  0  0
    7.4310  -12.5234   24.3527 C   0  0  0  0  0  0  0  0  0  0  0  0
    7.2116  -13.6524   23.5930 C   0  0  0  0  0  0  0  0  0  0  0  0
    8.8020  -16.6519   23.1227 C   0  0  0  0  0  0  0  0  0  0  0  0
    8.6498  -17.6303   23.9006 O   0  0  0  0  0  0  0  0  0  0  0  0
   10.1218  -16.0941   22.9891 N   0  0  0  0  0  0  0  0  0  0  0  0
   11.2552  -16.6560   23.6465 C   0  0  1  0  0  0  0  0  0  0  0  0
   12.5269  -16.5971   22.8471 C   0  0  0  0  0  0  0  0  0  0  0  0
   12.4062  -17.1635   21.5014 C   0  0  0  0  0  0  0  0  0  0  0  0
   11.8532  -18.2567   21.2294 O   0  0  0  0  0  0  0  0  0  0  0  0
   11.4439  -16.1103   25.0248 C   0  0  0  0  0  0  0  0  0  0  0  0
   12.3890  -15.3306   25.2183 O   0  0  0  0  0  0  0  0  0  0  0  0
   12.9416  -16.4415   20.4436 O   0  0  0  0  0  0  0  0  0  0  0  0
    9.0865  -12.8405   27.8068 C   0  0  0  0  0  0  0  0  0  0  0  0
   10.1437  -13.8244   27.3808 C   0  0  0  0  0  0  0  0  0  0  0  0
   10.0074  -15.1519   28.0667 C   0  0  2  0  0  0  0  0  0  0  0  0
   10.2145  -14.9370   29.5478 C   0  0  0  0  0  0  0  0  0  0  0  0
   10.9032  -16.1934   27.4928 C   0  0  2  0  0  0  0  0  0  0  0  0
   10.5779  -16.4627   26.0910 N   0  0  0  0  0  0  0  0  0  0  0  0
   10.9600  -17.4553   28.2618 C   0  0  0  0  0  0  0  0  0  0  0  0
   10.2292  -18.5526   27.9401 O   0  0  0  0  0  0  0  0  0  0  0  0
   11.7262  -17.5173   29.2715 O   0  0  0  0  0  0  0  0  0  0  0  0
  2  1  1  6
  2  3  1  0
  2 10  1  0
  3  4  1  0
  4  9  2  0
  5  6  2  0
  5  4  1  0
  6  7  1  0
  7  8  2  0
  9  8  1  0
 10 12  1  0
 10 11  2  0
 12 13  1  0
 13 14  1  6
 15 14  1  0
 15 19  1  0
 16 15  2  0
 17 13  1  0
 17 18  2  0
 20 21  1  0
 22 24  1  0
 22 21  1  0
 22 23  1  1
 24 25  1  6
 25 17  1  0
 26 24  1  0
 27 26  1  0
 28 26  2  0
M  END
$$$$
