FDI.pdb
     RDKit          3D

 28 28  0  0  1  0  0  0  0  0999 V2000
    6.1483  -18.2921   21.0044 N   0  0  0  0  0  0  0  0  0  0  0  0
    6.9009  -17.0623   21.0054 C   0  0  1  0  0  0  0  0  0  0  0  0
    5.9320  -15.9484   21.3637 C   0  0  0  0  0  0  0  0  0  0  0  0
    6.6614  -14.6788   21.2191 C   0  0  0  0  0  0  0  0  0  0  0  0
    7.0961  -14.2171   20.0012 C   0  0  0  0  0  0  0  0  0  0  0  0
    7.7829  -13.0230   19.8680 C   0  0  0  0  0  0  0  0  0  0  0  0
    8.0245  -12.2893   21.0302 C   0  0  0  0  0  0  0  0  0  0  0  0
    7.6030  -12.7230   22.2643 C   0  0  0  0  0  0  0  0  0  0  0  0
    6.9237  -13.9204   22.3333 C   0  0  0  0  0  0  0  0  0  0  0  0
    7.9530  -17.1721   22.0482 C   0  0  0  0  0  0  0  0  0  0  0  0
    7.6999  -17.5999   23.2051 O   0  0  0  0  0  0  0  0  0  0  0  0
    9.3071  -16.7851   21.7523 N   0  0  0  0  0  0  0  0  0  0  0  0
   10.3599  -16.9121   22.7051 C   0  0  1  0  0  0  0  0  0  0  0  0
   11.7388  -16.9237   22.1064 C   0  0  0  0  0  0  0  0  0  0  0  0
   12.8049  -17.1660   23.0816 C   0  0  0  0  0  0  0  0  0  0  0  0
   13.8147  -16.4373   23.2374 O   0  0  0  0  0  0  0  0  0  0  0  0
   10.2483  -15.9172   23.8146 C   0  0  0  0  0  0  0  0  0  0  0  0
   10.6837  -14.7727   23.6167 O   0  0  0  0  0  0  0  0  0  0  0  0
   12.6956  -18.2837   23.8973 O   0  0  0  0  0  0  0  0  0  0  0  0
    7.5090  -12.2594   27.0105 C   0  0  0  0  0  0  0  0  0  0  0  0
    8.6598  -13.2269   27.0929 C   0  0  0  0  0  0  0  0  0  0  0  0
    8.6089  -14.2775   26.0230 C   0  0  2  0  0  0  0  0  0  0  0  0
    7.2022  -14.8263   25.9723 C   0  0  0  0  0  0  0  0  0  0  0  0
    9.6454  -15.3318   26.1987 C   0  0  2  0  0  0  0  0  0  0  0  0
    9.6650  -16.2546   25.0624 N   0  0  0  0  0  0  0  0  0  0  0  0
    9.5596  -16.0804   27.4711 C   0  0  0  0  0  0  0  0  0  0  0  0
    9.7926  -15.5130   28.6817 O   0  0  0  0  0  0  0  0  0  0  0  0
    9.2553  -17.3117   27.4321 O   0  0  0  0  0  0  0  0  0  0  0  0
  2  1  1  1
  2  3  1  0
  2 10  1  0
  3  4  1  0
  4  9  2  0
  5  6  2  0
  5  4  1  0
  6  7  1  0
  7  8  2  0
  9  8  1  0
 10 12  1  0
 10 11  2  0
 12 13  1  0
 13 14  1  6
 15 14  1  0
 15 19  1  0
 16 15  2  0
 17 13  1  0
 17 18  2  0
 20 21  1  0
 22 24  1  0
 22 21  1  0
 22 23  1  1
 24 25  1  6
 25 17  1  0
 26 24  1  0
 27 26  1  0
 28 26  2  0
M  END
$$$$
