FDI.pdb
     RDKit          3D

 28 28  0  0  1  0  0  0  0  0999 V2000
    9.6045  -15.7685   20.9166 N   0  0  0  0  0  0  0  0  0  0  0  0
    9.0102  -15.0896   22.0411 C   0  0  1  0  0  0  0  0  0  0  0  0
    7.5458  -14.8676   21.7031 C   0  0  0  0  0  0  0  0  0  0  0  0
    7.5024  -13.9486   20.5548 C   0  0  0  0  0  0  0  0  0  0  0  0
    7.8996  -12.6376   20.6490 C   0  0  0  0  0  0  0  0  0  0  0  0
    7.8569  -11.7750   19.5677 C   0  0  0  0  0  0  0  0  0  0  0  0
    7.3894  -12.2876   18.3568 C   0  0  0  0  0  0  0  0  0  0  0  0
    6.9844  -13.5946   18.2288 C   0  0  0  0  0  0  0  0  0  0  0  0
    7.0501  -14.4054   19.3415 C   0  0  0  0  0  0  0  0  0  0  0  0
    9.1266  -15.9792   23.2249 C   0  0  0  0  0  0  0  0  0  0  0  0
    8.3434  -15.8852   24.2064 O   0  0  0  0  0  0  0  0  0  0  0  0
   10.1549  -16.9847   23.2752 N   0  0  0  0  0  0  0  0  0  0  0  0
   10.4252  -17.7379   24.4550 C   0  0  1  0  0  0  0  0  0  0  0  0
   11.3024  -18.9388   24.2355 C   0  0  0  0  0  0  0  0  0  0  0  0
   11.2634  -19.4571   22.8658 C   0  0  0  0  0  0  0  0  0  0  0  0
   10.3050  -20.0954   22.3666 O   0  0  0  0  0  0  0  0  0  0  0  0
   10.9276  -16.8845   25.5741 C   0  0  0  0  0  0  0  0  0  0  0  0
   12.0388  -16.3486   25.4443 O   0  0  0  0  0  0  0  0  0  0  0  0
   12.3661  -19.2284   22.0544 O   0  0  0  0  0  0  0  0  0  0  0  0
    8.3087  -13.0656   28.4497 C   0  0  0  0  0  0  0  0  0  0  0  0
    8.7554  -14.4744   28.1615 C   0  0  0  0  0  0  0  0  0  0  0  0
   10.2429  -14.5875   28.0016 C   0  0  2  0  0  0  0  0  0  0  0  0
   10.6487  -13.7644   26.8014 C   0  0  0  0  0  0  0  0  0  0  0  0
   10.7109  -15.9991   27.9319 C   0  0  2  0  0  0  0  0  0  0  0  0
   10.1699  -16.6825   26.7556 N   0  0  0  0  0  0  0  0  0  0  0  0
   10.4625  -16.7961   29.1525 C   0  0  0  0  0  0  0  0  0  0  0  0
    9.7040  -17.9214   29.1610 O   0  0  0  0  0  0  0  0  0  0  0  0
   10.9806  -16.4113   30.2451 O   0  0  0  0  0  0  0  0  0  0  0  0
  2  1  1  6
  2  3  1  0
  2 10  1  0
  3  4  1  0
  4  9  2  0
  5  6  2  0
  5  4  1  0
  6  7  1  0
  7  8  2  0
  9  8  1  0
 10 12  1  0
 10 11  2  0
 12 13  1  0
 13 14  1  6
 15 14  1  0
 15 19  1  0
 16 15  2  0
 17 13  1  0
 17 18  2  0
 20 21  1  0
 22 24  1  0
 22 21  1  0
 22 23  1  6
 24 25  1  6
 25 17  1  0
 26 24  1  0
 27 26  1  0
 28 26  2  0
M  END
$$$$
