FDI.pdb
     RDKit          3D

 28 28  0  0  1  0  0  0  0  0999 V2000
    6.9162  -16.7351   25.5751 N   0  0  0  0  0  0  0  0  0  0  0  0
    6.9509  -17.1574   24.1970 C   0  0  1  0  0  0  0  0  0  0  0  0
    6.4982  -15.9746   23.3580 C   0  0  0  0  0  0  0  0  0  0  0  0
    6.6787  -14.7678   24.1803 C   0  0  0  0  0  0  0  0  0  0  0  0
    7.3986  -13.6833   23.7434 C   0  0  0  0  0  0  0  0  0  0  0  0
    7.5678  -12.5498   24.5192 C   0  0  0  0  0  0  0  0  0  0  0  0
    6.9735  -12.5426   25.7818 C   0  0  0  0  0  0  0  0  0  0  0  0
    6.2467  -13.6113   26.2491 C   0  0  0  0  0  0  0  0  0  0  0  0
    6.1134  -14.7121   25.4303 C   0  0  0  0  0  0  0  0  0  0  0  0
    8.3552  -17.5068   23.8620 C   0  0  0  0  0  0  0  0  0  0  0  0
    8.7397  -18.7028   23.7750 O   0  0  0  0  0  0  0  0  0  0  0  0
    9.3221  -16.4676   23.6258 N   0  0  0  0  0  0  0  0  0  0  0  0
   10.7262  -16.7066   23.6877 C   0  0  1  0  0  0  0  0  0  0  0  0
   11.5271  -15.9617   22.6565 C   0  0  0  0  0  0  0  0  0  0  0  0
   11.1975  -16.3250   21.2760 C   0  0  0  0  0  0  0  0  0  0  0  0
   10.9617  -17.4914   20.8773 O   0  0  0  0  0  0  0  0  0  0  0  0
   11.2782  -16.5108   25.0625 C   0  0  0  0  0  0  0  0  0  0  0  0
   12.5108  -16.4671   25.1945 O   0  0  0  0  0  0  0  0  0  0  0  0
   11.1402  -15.3073   20.3338 O   0  0  0  0  0  0  0  0  0  0  0  0
    9.4526  -12.6403   27.9004 C   0  0  0  0  0  0  0  0  0  0  0  0
   10.3248  -13.7397   27.3546 C   0  0  0  0  0  0  0  0  0  0  0  0
   10.2743  -14.9854   28.1894 C   0  0  2  0  0  0  0  0  0  0  0  0
   10.8303  -14.6565   29.5552 C   0  0  0  0  0  0  0  0  0  0  0  0
   10.9512  -16.1426   27.5420 C   0  0  2  0  0  0  0  0  0  0  0  0
   10.4327  -16.3770   26.1931 N   0  0  0  0  0  0  0  0  0  0  0  0
   10.9290  -17.3943   28.3291 C   0  0  0  0  0  0  0  0  0  0  0  0
   11.8353  -17.6756   29.2993 O   0  0  0  0  0  0  0  0  0  0  0  0
   10.0219  -18.2480   28.0871 O   0  0  0  0  0  0  0  0  0  0  0  0
  2  1  1  1
  2  3  1  0
  2 10  1  0
  3  4  1  0
  4  9  2  0
  5  6  2  0
  5  4  1  0
  6  7  1  0
  7  8  2  0
  9  8  1  0
 10 12  1  0
 10 11  2  0
 12 13  1  0
 13 14  1  6
 15 14  1  0
 15 19  1  0
 16 15  2  0
 17 13  1  0
 17 18  2  0
 20 21  1  0
 22 24  1  0
 22 21  1  0
 22 23  1  1
 24 25  1  6
 25 17  1  0
 26 24  1  0
 27 26  1  0
 28 26  2  0
M  END
$$$$
