FDI.pdb
     RDKit          3D

 28 28  0  0  1  0  0  0  0  0999 V2000
    7.1893  -17.8268   20.5677 N   0  0  0  0  0  0  0  0  0  0  0  0
    7.6559  -16.6501   21.2578 C   0  0  1  0  0  0  0  0  0  0  0  0
    6.4685  -16.0771   22.0125 C   0  0  0  0  0  0  0  0  0  0  0  0
    6.9177  -14.8218   22.6350 C   0  0  0  0  0  0  0  0  0  0  0  0
    6.8237  -14.5985   23.9865 C   0  0  0  0  0  0  0  0  0  0  0  0
    7.2460  -13.4166   24.5695 C   0  0  0  0  0  0  0  0  0  0  0  0
    7.7801  -12.4410   23.7265 C   0  0  0  0  0  0  0  0  0  0  0  0
    7.8883  -12.6328   22.3700 C   0  0  0  0  0  0  0  0  0  0  0  0
    7.4505  -13.8309   21.8478 C   0  0  0  0  0  0  0  0  0  0  0  0
    8.7092  -17.0710   22.2168 C   0  0  0  0  0  0  0  0  0  0  0  0
    8.4854  -17.9207   23.1188 O   0  0  0  0  0  0  0  0  0  0  0  0
   10.0303  -16.5066   22.1333 N   0  0  0  0  0  0  0  0  0  0  0  0
   11.0642  -16.8514   23.0522 C   0  0  1  0  0  0  0  0  0  0  0  0
   12.4398  -16.8980   22.4476 C   0  0  0  0  0  0  0  0  0  0  0  0
   13.4780  -17.3553   23.3746 C   0  0  0  0  0  0  0  0  0  0  0  0
   14.6146  -16.8363   23.4924 O   0  0  0  0  0  0  0  0  0  0  0  0
   11.0327  -16.0115   24.2879 C   0  0  0  0  0  0  0  0  0  0  0  0
   11.3495  -14.8164   24.1881 O   0  0  0  0  0  0  0  0  0  0  0  0
   13.1889  -18.4437   24.1861 O   0  0  0  0  0  0  0  0  0  0  0  0
    9.6460  -12.2750   27.7996 C   0  0  0  0  0  0  0  0  0  0  0  0
   10.3236  -13.6153   27.9075 C   0  0  0  0  0  0  0  0  0  0  0  0
   10.0807  -14.4836   26.7083 C   0  0  2  0  0  0  0  0  0  0  0  0
    8.5874  -14.6143   26.5196 C   0  0  0  0  0  0  0  0  0  0  0  0
   10.7796  -15.7954   26.7938 C   0  0  2  0  0  0  0  0  0  0  0  0
   10.6542  -16.5485   25.5446 N   0  0  0  0  0  0  0  0  0  0  0  0
   10.3849  -16.6349   27.9454 C   0  0  0  0  0  0  0  0  0  0  0  0
    9.7891  -17.8467   27.8092 O   0  0  0  0  0  0  0  0  0  0  0  0
   10.6113  -16.2039   29.1172 O   0  0  0  0  0  0  0  0  0  0  0  0
  2  1  1  1
  2  3  1  0
  2 10  1  0
  3  4  1  0
  4  9  2  0
  5  6  2  0
  5  4  1  0
  6  7  1  0
  7  8  2  0
  9  8  1  0
 10 12  1  0
 10 11  2  0
 12 13  1  0
 13 14  1  6
 15 14  1  0
 15 19  1  0
 16 15  2  0
 17 13  1  0
 17 18  2  0
 20 21  1  0
 22 24  1  0
 22 21  1  0
 22 23  1  1
 24 25  1  6
 25 17  1  0
 26 24  1  0
 27 26  1  0
 28 26  2  0
M  END
$$$$
