FDI.pdb
     RDKit          3D

 28 28  0  0  1  0  0  0  0  0999 V2000
    7.0332  -16.3255   19.7331 N   0  0  0  0  0  0  0  0  0  0  0  0
    7.5590  -15.6915   20.9164 C   0  0  1  0  0  0  0  0  0  0  0  0
    6.3784  -15.4017   21.8275 C   0  0  0  0  0  0  0  0  0  0  0  0
    6.8785  -14.5637   22.9287 C   0  0  0  0  0  0  0  0  0  0  0  0
    7.5703  -13.3983   22.7079 C   0  0  0  0  0  0  0  0  0  0  0  0
    8.0405  -12.6123   23.7454 C   0  0  0  0  0  0  0  0  0  0  0  0
    7.7854  -13.0482   25.0463 C   0  0  0  0  0  0  0  0  0  0  0  0
    7.0960  -14.2094   25.3017 C   0  0  0  0  0  0  0  0  0  0  0  0
    6.6529  -14.9498   24.2269 C   0  0  0  0  0  0  0  0  0  0  0  0
    8.4830  -16.6498   21.5755 C   0  0  0  0  0  0  0  0  0  0  0  0
    8.6556  -17.8166   21.1345 O   0  0  0  0  0  0  0  0  0  0  0  0
    9.2128  -16.2574   22.7520 N   0  0  0  0  0  0  0  0  0  0  0  0
   10.3961  -16.9319   23.1732 C   0  0  1  0  0  0  0  0  0  0  0  0
   11.4576  -17.0395   22.1142 C   0  0  0  0  0  0  0  0  0  0  0  0
   12.6092  -17.8534   22.5118 C   0  0  0  0  0  0  0  0  0  0  0  0
   12.5564  -18.8470   23.2766 O   0  0  0  0  0  0  0  0  0  0  0  0
   10.9437  -16.3800   24.4494 C   0  0  0  0  0  0  0  0  0  0  0  0
   11.8934  -15.5851   24.3803 O   0  0  0  0  0  0  0  0  0  0  0  0
   13.8546  -17.5043   22.0081 O   0  0  0  0  0  0  0  0  0  0  0  0
    9.7085  -13.3950   29.2659 C   0  0  0  0  0  0  0  0  0  0  0  0
   10.6424  -14.4292   28.6953 C   0  0  0  0  0  0  0  0  0  0  0  0
   10.1411  -15.0120   27.4068 C   0  0  2  0  0  0  0  0  0  0  0  0
    8.6634  -15.2864   27.5606 C   0  0  0  0  0  0  0  0  0  0  0  0
   10.9184  -16.2047   26.9711 C   0  0  2  0  0  0  0  0  0  0  0  0
   10.4057  -16.7435   25.7101 N   0  0  0  0  0  0  0  0  0  0  0  0
   11.0300  -17.2764   27.9838 C   0  0  0  0  0  0  0  0  0  0  0  0
   10.4887  -18.5100   27.8198 O   0  0  0  0  0  0  0  0  0  0  0  0
   11.6599  -17.0336   29.0584 O   0  0  0  0  0  0  0  0  0  0  0  0
  2  1  1  6
  2  3  1  0
  2 10  1  0
  3  4  1  0
  4  9  2  0
  5  6  2  0
  5  4  1  0
  6  7  1  0
  7  8  2  0
  9  8  1  0
 10 12  1  0
 10 11  2  0
 12 13  1  0
 13 14  1  6
 15 14  1  0
 15 19  1  0
 16 15  2  0
 17 13  1  0
 17 18  2  0
 20 21  1  0
 22 24  1  0
 22 21  1  0
 22 23  1  1
 24 25  1  6
 25 17  1  0
 26 24  1  0
 27 26  1  0
 28 26  2  0
M  END
$$$$
