FDI.pdb
     RDKit          3D

 28 28  0  0  1  0  0  0  0  0999 V2000
    6.2469  -18.0955   21.4342 N   0  0  0  0  0  0  0  0  0  0  0  0
    7.0766  -16.9206   21.5332 C   0  0  1  0  0  0  0  0  0  0  0  0
    6.1543  -15.7475   21.8179 C   0  0  0  0  0  0  0  0  0  0  0  0
    6.8785  -14.5258   21.4330 C   0  0  0  0  0  0  0  0  0  0  0  0
    7.1359  -14.2077   20.1223 C   0  0  0  0  0  0  0  0  0  0  0  0
    7.8181  -13.0585   19.7630 C   0  0  0  0  0  0  0  0  0  0  0  0
    8.2440  -12.2176   20.7921 C   0  0  0  0  0  0  0  0  0  0  0  0
    8.0026  -12.5067   22.1138 C   0  0  0  0  0  0  0  0  0  0  0  0
    7.3182  -13.6661   22.4091 C   0  0  0  0  0  0  0  0  0  0  0  0
    8.0114  -17.1165   22.6708 C   0  0  0  0  0  0  0  0  0  0  0  0
    7.6128  -17.5125   23.7977 O   0  0  0  0  0  0  0  0  0  0  0  0
    9.4164  -16.8532   22.5055 N   0  0  0  0  0  0  0  0  0  0  0  0
   10.3534  -17.0307   23.5653 C   0  0  1  0  0  0  0  0  0  0  0  0
   11.7552  -17.3255   23.1094 C   0  0  0  0  0  0  0  0  0  0  0  0
   11.8232  -18.1780   21.9198 C   0  0  0  0  0  0  0  0  0  0  0  0
   11.4744  -19.3829   21.8790 O   0  0  0  0  0  0  0  0  0  0  0  0
   10.3182  -15.9087   24.5516 C   0  0  0  0  0  0  0  0  0  0  0  0
   10.9956  -14.8983   24.3090 O   0  0  0  0  0  0  0  0  0  0  0  0
   12.3089  -17.6167   20.7469 O   0  0  0  0  0  0  0  0  0  0  0  0
    6.9050  -12.6744   25.9814 C   0  0  0  0  0  0  0  0  0  0  0  0
    8.2037  -13.4221   25.8346 C   0  0  0  0  0  0  0  0  0  0  0  0
    8.5745  -14.1843   27.0727 C   0  0  2  0  0  0  0  0  0  0  0  0
    8.7698  -13.1903   28.1935 C   0  0  0  0  0  0  0  0  0  0  0  0
    9.7462  -15.0802   26.8704 C   0  0  2  0  0  0  0  0  0  0  0  0
    9.5393  -15.9802   25.7345 N   0  0  0  0  0  0  0  0  0  0  0  0
   10.1566  -15.8449   28.0677 C   0  0  0  0  0  0  0  0  0  0  0  0
   10.0423  -17.1940   28.1603 O   0  0  0  0  0  0  0  0  0  0  0  0
   10.6373  -15.2123   29.0573 O   0  0  0  0  0  0  0  0  0  0  0  0
  2  1  1  1
  2  3  1  0
  2 10  1  0
  3  4  1  0
  4  9  2  0
  5  6  2  0
  5  4  1  0
  6  7  1  0
  7  8  2  0
  9  8  1  0
 10 12  1  0
 10 11  2  0
 12 13  1  0
 13 14  1  6
 15 14  1  0
 15 19  1  0
 16 15  2  0
 17 13  1  0
 17 18  2  0
 20 21  1  0
 22 24  1  0
 22 21  1  0
 22 23  1  1
 24 25  1  6
 25 17  1  0
 26 24  1  0
 27 26  1  0
 28 26  2  0
M  END
$$$$
