FDI.pdb
     RDKit          3D

 28 28  0  0  1  0  0  0  0  0999 V2000
    6.0514  -17.9346   23.4961 N   0  0  0  0  0  0  0  0  0  0  0  0
    6.9589  -16.9664   24.0596 C   0  0  1  0  0  0  0  0  0  0  0  0
    6.3831  -16.5450   25.4008 C   0  0  0  0  0  0  0  0  0  0  0  0
    6.8653  -15.1808   25.6682 C   0  0  0  0  0  0  0  0  0  0  0  0
    6.0444  -14.0833   25.5858 C   0  0  0  0  0  0  0  0  0  0  0  0
    6.5006  -12.8011   25.8369 C   0  0  0  0  0  0  0  0  0  0  0  0
    7.8447  -12.6551   26.1826 C   0  0  0  0  0  0  0  0  0  0  0  0
    8.6929  -13.7327   26.2738 C   0  0  0  0  0  0  0  0  0  0  0  0
    8.1801  -14.9850   26.0122 C   0  0  0  0  0  0  0  0  0  0  0  0
    8.2710  -17.6332   24.2598 C   0  0  0  0  0  0  0  0  0  0  0  0
    8.3895  -18.6676   24.9680 O   0  0  0  0  0  0  0  0  0  0  0  0
    9.4545  -17.1015   23.6374 N   0  0  0  0  0  0  0  0  0  0  0  0
   10.7607  -17.5735   23.9592 C   0  0  1  0  0  0  0  0  0  0  0  0
   11.7276  -17.5526   22.8083 C   0  0  0  0  0  0  0  0  0  0  0  0
   11.8480  -16.2438   22.1610 C   0  0  0  0  0  0  0  0  0  0  0  0
   12.7768  -15.4247   22.3648 O   0  0  0  0  0  0  0  0  0  0  0  0
   11.3276  -16.9035   25.1686 C   0  0  0  0  0  0  0  0  0  0  0  0
   12.5607  -16.7965   25.2511 O   0  0  0  0  0  0  0  0  0  0  0  0
   10.8643  -15.8765   21.2532 O   0  0  0  0  0  0  0  0  0  0  0  0
    9.6505  -12.4033   27.4154 C   0  0  0  0  0  0  0  0  0  0  0  0
   10.4893  -13.5910   27.0244 C   0  0  0  0  0  0  0  0  0  0  0  0
   10.3466  -14.7388   27.9801 C   0  0  2  0  0  0  0  0  0  0  0  0
   10.8327  -14.2824   29.3358 C   0  0  0  0  0  0  0  0  0  0  0  0
   11.0196  -15.9771   27.5004 C   0  0  2  0  0  0  0  0  0  0  0  0
   10.4955  -16.3992   26.2003 N   0  0  0  0  0  0  0  0  0  0  0  0
   10.9990  -17.1048   28.4569 C   0  0  0  0  0  0  0  0  0  0  0  0
   12.0184  -17.3690   29.3128 O   0  0  0  0  0  0  0  0  0  0  0  0
    9.9822  -17.8636   28.4795 O   0  0  0  0  0  0  0  0  0  0  0  0
  2  1  1  1
  2  3  1  0
  2 10  1  0
  3  4  1  0
  4  9  2  0
  5  6  2  0
  5  4  1  0
  6  7  1  0
  7  8  2  0
  9  8  1  0
 10 12  1  0
 10 11  2  0
 12 13  1  0
 13 14  1  6
 15 14  1  0
 15 19  1  0
 16 15  2  0
 17 13  1  0
 17 18  2  0
 20 21  1  0
 22 24  1  0
 22 21  1  0
 22 23  1  1
 24 25  1  6
 25 17  1  0
 26 24  1  0
 27 26  1  0
 28 26  2  0
M  END
$$$$
