FDI.pdb
     RDKit          3D

 28 28  0  0  1  0  0  0  0  0999 V2000
    6.4720  -17.9685   22.8768 N   0  0  0  0  0  0  0  0  0  0  0  0
    7.1302  -16.8157   23.4393 C   0  0  1  0  0  0  0  0  0  0  0  0
    6.3371  -16.4067   24.6688 C   0  0  0  0  0  0  0  0  0  0  0  0
    6.7739  -15.0495   25.0325 C   0  0  0  0  0  0  0  0  0  0  0  0
    7.4485  -14.2364   24.1555 C   0  0  0  0  0  0  0  0  0  0  0  0
    7.8592  -12.9606   24.5002 C   0  0  0  0  0  0  0  0  0  0  0  0
    7.5612  -12.5177   25.7897 C   0  0  0  0  0  0  0  0  0  0  0  0
    6.8876  -13.3063   26.6914 C   0  0  0  0  0  0  0  0  0  0  0  0
    6.5044  -14.5679   26.2897 C   0  0  0  0  0  0  0  0  0  0  0  0
    8.5030  -17.2219   23.8353 C   0  0  0  0  0  0  0  0  0  0  0  0
    8.7088  -18.0896   24.7243 O   0  0  0  0  0  0  0  0  0  0  0  0
    9.6460  -16.6217   23.1997 N   0  0  0  0  0  0  0  0  0  0  0  0
   10.9827  -16.9691   23.5533 C   0  0  1  0  0  0  0  0  0  0  0  0
   11.9827  -16.7903   22.4452 C   0  0  0  0  0  0  0  0  0  0  0  0
   11.7333  -17.6431   21.2803 C   0  0  0  0  0  0  0  0  0  0  0  0
   11.8394  -17.2751   20.0852 O   0  0  0  0  0  0  0  0  0  0  0  0
   11.4307  -16.3033   24.8139 C   0  0  0  0  0  0  0  0  0  0  0  0
   12.4736  -15.6326   24.7795 O   0  0  0  0  0  0  0  0  0  0  0  0
   11.3508  -18.9576   21.5092 O   0  0  0  0  0  0  0  0  0  0  0  0
    9.0986  -13.0801   28.5905 C   0  0  0  0  0  0  0  0  0  0  0  0
    9.3986  -14.4102   27.9516 C   0  0  0  0  0  0  0  0  0  0  0  0
   10.8472  -14.5649   27.5928 C   0  0  2  0  0  0  0  0  0  0  0  0
   11.1484  -13.6277   26.4467 C   0  0  0  0  0  0  0  0  0  0  0  0
   11.2253  -15.9773   27.3122 C   0  0  2  0  0  0  0  0  0  0  0  0
   10.6976  -16.4240   26.0218 N   0  0  0  0  0  0  0  0  0  0  0  0
   10.8679  -16.9386   28.3776 C   0  0  0  0  0  0  0  0  0  0  0  0
   10.0058  -17.9692   28.1869 O   0  0  0  0  0  0  0  0  0  0  0  0
   11.3893  -16.7948   29.5255 O   0  0  0  0  0  0  0  0  0  0  0  0
  2  1  1  1
  2  3  1  0
  2 10  1  0
  3  4  1  0
  4  9  2  0
  5  6  2  0
  5  4  1  0
  6  7  1  0
  7  8  2  0
  9  8  1  0
 10 12  1  0
 10 11  2  0
 12 13  1  0
 13 14  1  6
 15 14  1  0
 15 19  1  0
 16 15  2  0
 17 13  1  0
 17 18  2  0
 20 21  1  0
 22 24  1  0
 22 21  1  0
 22 23  1  6
 24 25  1  6
 25 17  1  0
 26 24  1  0
 27 26  1  0
 28 26  2  0
M  END
$$$$
