FDI.pdb
     RDKit          3D

 28 28  0  0  1  0  0  0  0  0999 V2000
    6.5072  -18.8331   22.9828 N   0  0  0  0  0  0  0  0  0  0  0  0
    7.0719  -17.5105   22.8808 C   0  0  1  0  0  0  0  0  0  0  0  0
    6.1134  -16.5626   23.5813 C   0  0  0  0  0  0  0  0  0  0  0  0
    6.4946  -15.1963   23.1901 C   0  0  0  0  0  0  0  0  0  0  0  0
    6.6352  -14.1832   24.1062 C   0  0  0  0  0  0  0  0  0  0  0  0
    6.9928  -12.8987   23.7355 C   0  0  0  0  0  0  0  0  0  0  0  0
    7.2101  -12.6603   22.3778 C   0  0  0  0  0  0  0  0  0  0  0  0
    7.0779  -13.6519   21.4355 C   0  0  0  0  0  0  0  0  0  0  0  0
    6.7194  -14.9113   21.8659 C   0  0  0  0  0  0  0  0  0  0  0  0
    8.3803  -17.5174   23.5839 C   0  0  0  0  0  0  0  0  0  0  0  0
    8.5170  -18.0248   24.7283 O   0  0  0  0  0  0  0  0  0  0  0  0
    9.5389  -16.9343   22.9607 N   0  0  0  0  0  0  0  0  0  0  0  0
   10.8354  -17.0040   23.5495 C   0  0  1  0  0  0  0  0  0  0  0  0
   11.9675  -16.8220   22.5774 C   0  0  0  0  0  0  0  0  0  0  0  0
   13.2879  -17.0989   23.1487 C   0  0  0  0  0  0  0  0  0  0  0  0
   13.5341  -18.0044   23.9820 O   0  0  0  0  0  0  0  0  0  0  0  0
   10.9738  -16.1022   24.7330 C   0  0  0  0  0  0  0  0  0  0  0  0
   11.6346  -15.0612   24.5980 O   0  0  0  0  0  0  0  0  0  0  0  0
   14.3501  -16.3034   22.7418 O   0  0  0  0  0  0  0  0  0  0  0  0
    9.1196  -12.3390   26.6664 C   0  0  0  0  0  0  0  0  0  0  0  0
   10.0434  -13.5055   26.4365 C   0  0  0  0  0  0  0  0  0  0  0  0
    9.9199  -14.5583   27.4984 C   0  0  2  0  0  0  0  0  0  0  0  0
   10.2089  -13.9127   28.8334 C   0  0  0  0  0  0  0  0  0  0  0  0
   10.7652  -15.7536   27.2281 C   0  0  2  0  0  0  0  0  0  0  0  0
   10.3741  -16.4118   25.9802 N   0  0  0  0  0  0  0  0  0  0  0  0
   10.8246  -16.7344   28.3332 C   0  0  0  0  0  0  0  0  0  0  0  0
   11.6255  -16.5806   29.4180 O   0  0  0  0  0  0  0  0  0  0  0  0
   10.0946  -17.7702   28.2661 O   0  0  0  0  0  0  0  0  0  0  0  0
  2  1  1  1
  2  3  1  0
  2 10  1  0
  3  4  1  0
  4  9  2  0
  5  6  2  0
  5  4  1  0
  6  7  1  0
  7  8  2  0
  9  8  1  0
 10 12  1  0
 10 11  2  0
 12 13  1  0
 13 14  1  6
 15 14  1  0
 15 19  1  0
 16 15  2  0
 17 13  1  0
 17 18  2  0
 20 21  1  0
 22 24  1  0
 22 21  1  0
 22 23  1  1
 24 25  1  6
 25 17  1  0
 26 24  1  0
 27 26  1  0
 28 26  2  0
M  END
$$$$
