FDI.pdb
     RDKit          3D

 28 28  0  0  1  0  0  0  0  0999 V2000
    5.9902  -16.7358   24.9557 N   0  0  0  0  0  0  0  0  0  0  0  0
    6.6963  -16.6404   23.7024 C   0  0  1  0  0  0  0  0  0  0  0  0
    6.5465  -15.2091   23.2155 C   0  0  0  0  0  0  0  0  0  0  0  0
    6.8401  -14.3312   24.3592 C   0  0  0  0  0  0  0  0  0  0  0  0
    7.8594  -13.4115   24.3354 C   0  0  0  0  0  0  0  0  0  0  0  0
    8.1341  -12.5876   25.4128 C   0  0  0  0  0  0  0  0  0  0  0  0
    7.3290  -12.7225   26.5447 C   0  0  0  0  0  0  0  0  0  0  0  0
    6.3010  -13.6328   26.6010 C   0  0  0  0  0  0  0  0  0  0  0  0
    6.0761  -14.4257   25.4962 C   0  0  0  0  0  0  0  0  0  0  0  0
    8.1281  -16.9390   23.9613 C   0  0  0  0  0  0  0  0  0  0  0  0
    8.4938  -17.6433   24.9391 O   0  0  0  0  0  0  0  0  0  0  0  0
    9.1447  -16.4208   23.0845 N   0  0  0  0  0  0  0  0  0  0  0  0
   10.5172  -16.7844   23.2125 C   0  0  1  0  0  0  0  0  0  0  0  0
   11.3708  -16.4044   22.0349 C   0  0  0  0  0  0  0  0  0  0  0  0
   12.7066  -17.0058   22.0543 C   0  0  0  0  0  0  0  0  0  0  0  0
   13.0282  -18.0194   22.7209 O   0  0  0  0  0  0  0  0  0  0  0  0
   11.1136  -16.3164   24.5003 C   0  0  0  0  0  0  0  0  0  0  0  0
   11.8958  -15.3544   24.4645 O   0  0  0  0  0  0  0  0  0  0  0  0
   13.6950  -16.4149   21.2792 O   0  0  0  0  0  0  0  0  0  0  0  0
   10.1493  -13.2472   28.9474 C   0  0  0  0  0  0  0  0  0  0  0  0
   10.9686  -14.4573   28.5843 C   0  0  0  0  0  0  0  0  0  0  0  0
   10.5152  -15.0997   27.3064 C   0  0  2  0  0  0  0  0  0  0  0  0
    9.0116  -15.2382   27.3599 C   0  0  0  0  0  0  0  0  0  0  0  0
   11.2143  -16.3836   27.0253 C   0  0  2  0  0  0  0  0  0  0  0  0
   10.8055  -16.9419   25.7352 N   0  0  0  0  0  0  0  0  0  0  0  0
   11.0938  -17.4020   28.0908 C   0  0  0  0  0  0  0  0  0  0  0  0
   11.7386  -17.3088   29.2812 O   0  0  0  0  0  0  0  0  0  0  0  0
   10.3544  -18.4125   27.8844 O   0  0  0  0  0  0  0  0  0  0  0  0
  2  1  1  1
  2  3  1  0
  2 10  1  0
  3  4  1  0
  4  9  2  0
  5  6  2  0
  5  4  1  0
  6  7  1  0
  7  8  2  0
  9  8  1  0
 10 12  1  0
 10 11  2  0
 12 13  1  0
 13 14  1  6
 15 14  1  0
 15 19  1  0
 16 15  2  0
 17 13  1  0
 17 18  2  0
 20 21  1  0
 22 24  1  0
 22 21  1  0
 22 23  1  1
 24 25  1  6
 25 17  1  0
 26 24  1  0
 27 26  1  0
 28 26  2  0
M  END
$$$$
