FDI.pdb
     RDKit          3D

 28 28  0  0  1  0  0  0  0  0999 V2000
    5.9682  -17.6774   23.9602 N   0  0  0  0  0  0  0  0  0  0  0  0
    6.8611  -16.5900   24.2750 C   0  0  1  0  0  0  0  0  0  0  0  0
    6.5152  -16.1228   25.6786 C   0  0  0  0  0  0  0  0  0  0  0  0
    6.4837  -14.6520   25.6484 C   0  0  0  0  0  0  0  0  0  0  0  0
    7.2857  -13.9182   24.8096 C   0  0  0  0  0  0  0  0  0  0  0  0
    7.2550  -12.5349   24.7838 C   0  0  0  0  0  0  0  0  0  0  0  0
    6.3678  -11.8971   25.6520 C   0  0  0  0  0  0  0  0  0  0  0  0
    5.5516  -12.6019   26.5039 C   0  0  0  0  0  0  0  0  0  0  0  0
    5.6276  -13.9780   26.4838 C   0  0  0  0  0  0  0  0  0  0  0  0
    8.2497  -17.1165   24.2453 C   0  0  0  0  0  0  0  0  0  0  0  0
    8.5895  -18.1325   24.9072 O   0  0  0  0  0  0  0  0  0  0  0  0
    9.2528  -16.4651   23.4451 N   0  0  0  0  0  0  0  0  0  0  0  0
   10.6243  -16.8527   23.4809 C   0  0  1  0  0  0  0  0  0  0  0  0
   11.4001  -16.4991   22.2428 C   0  0  0  0  0  0  0  0  0  0  0  0
   12.7522  -17.0623   22.2113 C   0  0  0  0  0  0  0  0  0  0  0  0
   13.7945  -16.4133   21.9516 O   0  0  0  0  0  0  0  0  0  0  0  0
   11.3174  -16.3842   24.7192 C   0  0  0  0  0  0  0  0  0  0  0  0
   12.4086  -15.8080   24.5934 O   0  0  0  0  0  0  0  0  0  0  0  0
   12.8978  -18.4146   22.4885 O   0  0  0  0  0  0  0  0  0  0  0  0
    9.9071  -13.3025   28.7509 C   0  0  0  0  0  0  0  0  0  0  0  0
   10.0236  -14.7052   28.2159 C   0  0  0  0  0  0  0  0  0  0  0  0
   11.4183  -15.0422   27.7773 C   0  0  2  0  0  0  0  0  0  0  0  0
   11.8722  -13.9802   26.8032 C   0  0  0  0  0  0  0  0  0  0  0  0
   11.5361  -16.4245   27.2373 C   0  0  2  0  0  0  0  0  0  0  0  0
   10.7586  -16.5841   26.0071 N   0  0  0  0  0  0  0  0  0  0  0  0
   11.2060  -17.4971   28.2002 C   0  0  0  0  0  0  0  0  0  0  0  0
   11.8749  -17.6767   29.3673 O   0  0  0  0  0  0  0  0  0  0  0  0
   10.2539  -18.2894   27.9243 O   0  0  0  0  0  0  0  0  0  0  0  0
  2  1  1  1
  2  3  1  0
  2 10  1  0
  3  4  1  0
  4  9  2  0
  5  6  2  0
  5  4  1  0
  6  7  1  0
  7  8  2  0
  9  8  1  0
 10 12  1  0
 10 11  2  0
 12 13  1  0
 13 14  1  6
 15 14  1  0
 15 19  1  0
 16 15  2  0
 17 13  1  0
 17 18  2  0
 20 21  1  0
 22 24  1  0
 22 21  1  0
 22 23  1  6
 24 25  1  6
 25 17  1  0
 26 24  1  0
 27 26  1  0
 28 26  2  0
M  END
$$$$
