FDI.pdb
     RDKit          3D

 28 28  0  0  1  0  0  0  0  0999 V2000
    7.6788  -17.7913   19.2852 N   0  0  0  0  0  0  0  0  0  0  0  0
    8.0371  -16.6048   20.0217 C   0  0  1  0  0  0  0  0  0  0  0  0
    6.8013  -15.7226   20.0721 C   0  0  0  0  0  0  0  0  0  0  0  0
    7.1496  -14.5369   20.8707 C   0  0  0  0  0  0  0  0  0  0  0  0
    7.7720  -13.4416   20.3246 C   0  0  0  0  0  0  0  0  0  0  0  0
    8.0995  -12.3280   21.0782 C   0  0  0  0  0  0  0  0  0  0  0  0
    7.7719  -12.3528   22.4345 C   0  0  0  0  0  0  0  0  0  0  0  0
    7.1489  -13.4331   23.0121 C   0  0  0  0  0  0  0  0  0  0  0  0
    6.8480  -14.5129   22.2100 C   0  0  0  0  0  0  0  0  0  0  0  0
    8.4192  -17.0187   21.3961 C   0  0  0  0  0  0  0  0  0  0  0  0
    7.6839  -17.7660   22.0936 O   0  0  0  0  0  0  0  0  0  0  0  0
    9.6594  -16.5663   21.9687 N   0  0  0  0  0  0  0  0  0  0  0  0
   10.1137  -17.0085   23.2456 C   0  0  1  0  0  0  0  0  0  0  0  0
   11.3612  -17.8463   23.2029 C   0  0  0  0  0  0  0  0  0  0  0  0
   11.7346  -18.4175   24.4993 C   0  0  0  0  0  0  0  0  0  0  0  0
   11.0291  -19.2165   25.1619 O   0  0  0  0  0  0  0  0  0  0  0  0
   10.2344  -15.8885   24.2276 C   0  0  0  0  0  0  0  0  0  0  0  0
   11.2823  -15.2248   24.2283 O   0  0  0  0  0  0  0  0  0  0  0  0
   12.9592  -18.0514   25.0406 O   0  0  0  0  0  0  0  0  0  0  0  0
    8.0736  -11.8066   25.1633 C   0  0  0  0  0  0  0  0  0  0  0  0
    7.5890  -13.2234   25.3220 C   0  0  0  0  0  0  0  0  0  0  0  0
    8.1423  -13.8892   26.5474 C   0  0  2  0  0  0  0  0  0  0  0  0
    8.3306  -12.8319   27.6101 C   0  0  0  0  0  0  0  0  0  0  0  0
    9.3781  -14.6722   26.2715 C   0  0  2  0  0  0  0  0  0  0  0  0
    9.1920  -15.5800   25.1381 N   0  0  0  0  0  0  0  0  0  0  0  0
    9.9221  -15.4038   27.4358 C   0  0  0  0  0  0  0  0  0  0  0  0
   10.9097  -14.9106   28.2252 O   0  0  0  0  0  0  0  0  0  0  0  0
    9.4460  -16.5473   27.7113 O   0  0  0  0  0  0  0  0  0  0  0  0
  2  1  1  6
  2  3  1  0
  2 10  1  0
  3  4  1  0
  4  9  2  0
  5  6  2  0
  5  4  1  0
  6  7  1  0
  7  8  2  0
  9  8  1  0
 10 12  1  0
 10 11  2  0
 12 13  1  0
 13 14  1  6
 15 14  1  0
 15 19  1  0
 16 15  2  0
 17 13  1  0
 17 18  2  0
 20 21  1  0
 22 24  1  0
 22 21  1  0
 22 23  1  1
 24 25  1  6
 25 17  1  0
 26 24  1  0
 27 26  1  0
 28 26  2  0
M  END
$$$$
