FDI.pdb
     RDKit          3D

 28 28  0  0  1  0  0  0  0  0999 V2000
    6.2258  -18.1688   21.8613 N   0  0  0  0  0  0  0  0  0  0  0  0
    7.0655  -17.0042   21.7291 C   0  0  1  0  0  0  0  0  0  0  0  0
    6.1749  -15.7893   21.9258 C   0  0  0  0  0  0  0  0  0  0  0  0
    6.9443  -14.6145   21.4867 C   0  0  0  0  0  0  0  0  0  0  0  0
    7.2507  -14.3896   20.1672 C   0  0  0  0  0  0  0  0  0  0  0  0
    7.9754  -13.2843   19.7568 C   0  0  0  0  0  0  0  0  0  0  0  0
    8.3927  -12.3892   20.7428 C   0  0  0  0  0  0  0  0  0  0  0  0
    8.1028  -12.5848   22.0718 C   0  0  0  0  0  0  0  0  0  0  0  0
    7.3776  -13.7043   22.4190 C   0  0  0  0  0  0  0  0  0  0  0  0
    8.0919  -17.0576   22.8014 C   0  0  0  0  0  0  0  0  0  0  0  0
    7.8000  -17.3703   23.9858 O   0  0  0  0  0  0  0  0  0  0  0  0
    9.4653  -16.7477   22.5035 N   0  0  0  0  0  0  0  0  0  0  0  0
   10.5023  -16.8794   23.4729 C   0  0  1  0  0  0  0  0  0  0  0  0
   11.8886  -16.9296   22.8937 C   0  0  0  0  0  0  0  0  0  0  0  0
   12.0103  -17.8065   21.7264 C   0  0  0  0  0  0  0  0  0  0  0  0
   11.5847  -18.9856   21.6666 O   0  0  0  0  0  0  0  0  0  0  0  0
   10.3962  -15.8632   24.5634 C   0  0  0  0  0  0  0  0  0  0  0  0
   10.8622  -14.7330   24.3538 O   0  0  0  0  0  0  0  0  0  0  0  0
   12.6427  -17.3009   20.5989 O   0  0  0  0  0  0  0  0  0  0  0  0
    6.9489  -13.0195   26.5811 C   0  0  0  0  0  0  0  0  0  0  0  0
    8.2579  -13.6897   26.2575 C   0  0  0  0  0  0  0  0  0  0  0  0
    8.7248  -14.6040   27.3517 C   0  0  2  0  0  0  0  0  0  0  0  0
    8.8482  -13.7918   28.6196 C   0  0  0  0  0  0  0  0  0  0  0  0
    9.9717  -15.3371   26.9993 C   0  0  2  0  0  0  0  0  0  0  0  0
    9.7843  -16.1651   25.8066 N   0  0  0  0  0  0  0  0  0  0  0  0
   10.5524  -16.1379   28.0985 C   0  0  0  0  0  0  0  0  0  0  0  0
   11.2542  -15.5908   29.1231 O   0  0  0  0  0  0  0  0  0  0  0  0
   10.3896  -17.3963   28.0849 O   0  0  0  0  0  0  0  0  0  0  0  0
  2  1  1  1
  2  3  1  0
  2 10  1  0
  3  4  1  0
  4  9  2  0
  5  6  2  0
  5  4  1  0
  6  7  1  0
  7  8  2  0
  9  8  1  0
 10 12  1  0
 10 11  2  0
 12 13  1  0
 13 14  1  6
 15 14  1  0
 15 19  1  0
 16 15  2  0
 17 13  1  0
 17 18  2  0
 20 21  1  0
 22 24  1  0
 22 21  1  0
 22 23  1  1
 24 25  1  6
 25 17  1  0
 26 24  1  0
 27 26  1  0
 28 26  2  0
M  END
$$$$
