ESA.pdb
     RDKit          3D

 21 20  0  0  1  0  0  0  0  0999 V2000
   10.5303  -16.5849   17.2047 N   0  0  0  0  0  0  0  0  0  0  0  0
    9.7260  -17.3250   18.1919 C   0  0  1  0  0  0  0  0  0  0  0  0
   10.4432  -18.5858   18.5431 C   0  0  0  0  0  0  0  0  0  0  0  0
   11.6392  -18.4109   19.4148 C   0  0  0  0  0  0  0  0  0  0  0  0
   12.3071  -19.6715   19.7161 C   0  0  0  0  0  0  0  0  0  0  0  0
   12.2373  -20.2433   20.8208 O   0  0  0  0  0  0  0  0  0  0  0  0
    9.4203  -16.4720   19.3428 C   0  0  0  0  0  0  0  0  0  0  0  0
   10.2836  -15.7273   19.8390 O   0  0  0  0  0  0  0  0  0  0  0  0
   13.0773  -20.2871   18.7105 O   0  0  0  0  0  0  0  0  0  0  0  0
    5.7777  -16.7420   21.5805 O   0  0  0  0  0  0  0  0  0  0  0  0
    6.3618  -15.4962   21.3858 C   0  0  0  0  0  0  0  0  0  0  0  0
    7.8529  -15.6179   21.1139 C   0  0  2  0  0  0  0  0  0  0  0  0
    8.1177  -16.4430   19.9633 N   0  0  0  0  0  0  0  0  0  0  0  0
    8.5725  -16.1124   22.3260 C   0  0  0  0  0  0  0  0  0  0  0  0
    9.0714  -17.2660   22.3986 O   0  0  0  0  0  0  0  0  0  0  0  0
    9.4099  -14.6003   25.7180 C   0  0  0  0  0  0  0  0  0  0  0  0
    9.2735  -15.7081   24.7194 C   0  0  2  0  0  0  0  0  0  0  0  0
    8.7169  -15.2691   23.4620 N   0  0  0  0  0  0  0  0  0  0  0  0
    8.4984  -16.8056   25.3324 C   0  0  0  0  0  0  0  0  0  0  0  0
    7.3449  -17.0194   24.8793 O   0  0  0  0  0  0  0  0  0  0  0  0
    8.9683  -17.6000   26.3649 O   0  0  0  0  0  0  0  0  0  0  0  0
  2  1  1  6
  2  3  1  0
  3  4  1  0
  4  5  1  0
  5  6  2  0
  5  9  1  0
  7 13  1  0
  7  2  1  0
  8  7  2  0
 12 11  1  1
 11 10  1  0
 12 14  1  0
 12 13  1  0
 14 18  1  0
 15 14  2  0
 17 16  1  1
 18 17  1  0
 19 17  1  0
 19 21  1  0
 20 19  2  0
M  END
$$$$
