ESA.pdb
     RDKit          3D

 21 20  0  0  1  0  0  0  0  0999 V2000
    9.2517  -16.8324   20.0458 N   0  0  0  0  0  0  0  0  0  0  0  0
    9.9868  -17.1494   21.2820 C   0  0  1  0  0  0  0  0  0  0  0  0
   11.4462  -16.9652   21.0302 C   0  0  0  0  0  0  0  0  0  0  0  0
   12.0904  -18.0436   20.2283 C   0  0  0  0  0  0  0  0  0  0  0  0
   13.5069  -17.7973   19.9862 C   0  0  0  0  0  0  0  0  0  0  0  0
   14.3787  -17.8489   20.8748 O   0  0  0  0  0  0  0  0  0  0  0  0
    9.4695  -16.3571   22.4002 C   0  0  0  0  0  0  0  0  0  0  0  0
    9.3465  -15.1229   22.3115 O   0  0  0  0  0  0  0  0  0  0  0  0
   13.9258  -17.4826   18.6790 O   0  0  0  0  0  0  0  0  0  0  0  0
    7.4479  -18.0673   25.7214 O   0  0  0  0  0  0  0  0  0  0  0  0
    7.2298  -16.7759   25.2568 C   0  0  0  0  0  0  0  0  0  0  0  0
    8.5087  -16.1567   24.7153 C   0  0  2  0  0  0  0  0  0  0  0  0
    9.0761  -16.9503   23.6556 N   0  0  0  0  0  0  0  0  0  0  0  0
    9.4903  -15.9227   25.8169 C   0  0  0  0  0  0  0  0  0  0  0  0
   10.5304  -16.6172   25.9611 O   0  0  0  0  0  0  0  0  0  0  0  0
    9.7621  -13.3793   28.6349 C   0  0  0  0  0  0  0  0  0  0  0  0
   10.1367  -14.6184   27.8818 C   0  0  2  0  0  0  0  0  0  0  0  0
    9.2692  -14.8799   26.7581 N   0  0  0  0  0  0  0  0  0  0  0  0
   10.1962  -15.7492   28.8299 C   0  0  0  0  0  0  0  0  0  0  0  0
    9.3055  -16.6314   28.7311 O   0  0  0  0  0  0  0  0  0  0  0  0
   11.1672  -15.8869   29.8077 O   0  0  0  0  0  0  0  0  0  0  0  0
  2  1  1  6
  2  3  1  0
  3  4  1  0
  4  5  1  0
  5  6  2  0
  5  9  1  0
  7 13  1  0
  7  2  1  0
  8  7  2  0
 12 11  1  1
 11 10  1  0
 12 14  1  0
 12 13  1  0
 14 18  1  0
 15 14  2  0
 17 16  1  1
 18 17  1  0
 19 17  1  0
 19 21  1  0
 20 19  2  0
M  END
$$$$
