ESA.pdb
     RDKit          3D

 21 20  0  0  1  0  0  0  0  0999 V2000
    9.9391  -17.8529   17.0316 N   0  0  0  0  0  0  0  0  0  0  0  0
    9.9820  -18.4636   18.3712 C   0  0  1  0  0  0  0  0  0  0  0  0
   11.1374  -19.4065   18.4292 C   0  0  0  0  0  0  0  0  0  0  0  0
   11.9256  -19.5186   17.1695 C   0  0  0  0  0  0  0  0  0  0  0  0
   13.3223  -19.8635   17.4065 C   0  0  0  0  0  0  0  0  0  0  0  0
   14.2462  -19.0279   17.4266 O   0  0  0  0  0  0  0  0  0  0  0  0
   10.0066  -17.4253   19.4042 C   0  0  0  0  0  0  0  0  0  0  0  0
   11.0794  -16.9368   19.7999 O   0  0  0  0  0  0  0  0  0  0  0  0
   13.6586  -21.2133   17.6263 O   0  0  0  0  0  0  0  0  0  0  0  0
    7.1595  -14.5579   20.1023 O   0  0  0  0  0  0  0  0  0  0  0  0
    7.5333  -15.2274   21.2613 C   0  0  0  0  0  0  0  0  0  0  0  0
    8.8618  -15.9456   21.0844 C   0  0  2  0  0  0  0  0  0  0  0  0
    8.8055  -16.9122   20.0180 N   0  0  0  0  0  0  0  0  0  0  0  0
    9.3027  -16.5658   22.3699 C   0  0  0  0  0  0  0  0  0  0  0  0
    9.2262  -17.8028   22.5907 O   0  0  0  0  0  0  0  0  0  0  0  0
   10.7542  -15.1941   25.6123 C   0  0  0  0  0  0  0  0  0  0  0  0
   10.1806  -16.2494   24.7177 C   0  0  2  0  0  0  0  0  0  0  0  0
    9.8354  -15.7520   23.4073 N   0  0  0  0  0  0  0  0  0  0  0  0
    9.0372  -16.8829   25.4051 C   0  0  0  0  0  0  0  0  0  0  0  0
    7.8876  -16.6329   24.9611 O   0  0  0  0  0  0  0  0  0  0  0  0
    9.1630  -17.7254   26.4970 O   0  0  0  0  0  0  0  0  0  0  0  0
  2  1  1  6
  2  3  1  0
  3  4  1  0
  4  5  1  0
  5  6  2  0
  5  9  1  0
  7 13  1  0
  7  2  1  0
  8  7  2  0
 12 11  1  1
 11 10  1  0
 12 14  1  0
 12 13  1  0
 14 18  1  0
 15 14  2  0
 17 16  1  1
 18 17  1  0
 19 17  1  0
 19 21  1  0
 20 19  2  0
M  END
$$$$
