ESA.pdb
     RDKit          3D

 21 20  0  0  1  0  0  0  0  0999 V2000
    9.1664  -16.9293   19.9649 N   0  0  0  0  0  0  0  0  0  0  0  0
    9.8918  -17.2752   21.1991 C   0  0  1  0  0  0  0  0  0  0  0  0
   11.3568  -17.1523   20.9422 C   0  0  0  0  0  0  0  0  0  0  0  0
   12.2328  -17.5121   22.0928 C   0  0  0  0  0  0  0  0  0  0  0  0
   13.6412  -17.2331   21.8388 C   0  0  0  0  0  0  0  0  0  0  0  0
   14.5204  -17.2583   22.7212 O   0  0  0  0  0  0  0  0  0  0  0  0
    9.4118  -16.4606   22.3179 C   0  0  0  0  0  0  0  0  0  0  0  0
    9.2827  -15.2287   22.2078 O   0  0  0  0  0  0  0  0  0  0  0  0
   14.0428  -16.9162   20.5267 O   0  0  0  0  0  0  0  0  0  0  0  0
    7.5649  -18.1387   25.7448 O   0  0  0  0  0  0  0  0  0  0  0  0
    7.2870  -16.8601   25.2769 C   0  0  0  0  0  0  0  0  0  0  0  0
    8.5163  -16.2166   24.6549 C   0  0  2  0  0  0  0  0  0  0  0  0
    9.0639  -17.0280   23.5984 N   0  0  0  0  0  0  0  0  0  0  0  0
    9.5376  -15.9079   25.7006 C   0  0  0  0  0  0  0  0  0  0  0  0
   10.5813  -16.5943   25.8569 O   0  0  0  0  0  0  0  0  0  0  0  0
    9.9217  -13.1714   28.3162 C   0  0  0  0  0  0  0  0  0  0  0  0
   10.2434  -14.4792   27.6611 C   0  0  2  0  0  0  0  0  0  0  0  0
    9.3523  -14.7991   26.5716 N   0  0  0  0  0  0  0  0  0  0  0  0
   10.2769  -15.5319   28.6965 C   0  0  0  0  0  0  0  0  0  0  0  0
   11.1035  -15.3921   29.6338 O   0  0  0  0  0  0  0  0  0  0  0  0
    9.4578  -16.6485   28.6892 O   0  0  0  0  0  0  0  0  0  0  0  0
  2  1  1  6
  2  3  1  0
  3  4  1  0
  4  5  1  0
  5  6  2  0
  5  9  1  0
  7 13  1  0
  7  2  1  0
  8  7  2  0
 12 11  1  1
 11 10  1  0
 12 14  1  0
 12 13  1  0
 14 18  1  0
 15 14  2  0
 17 16  1  1
 18 17  1  0
 19 17  1  0
 19 21  1  0
 20 19  2  0
M  END
$$$$
