ESA.pdb
     RDKit          3D

 21 20  0  0  1  0  0  0  0  0999 V2000
   10.9574  -18.2635   16.0959 N   0  0  0  0  0  0  0  0  0  0  0  0
   10.8684  -18.9895   17.3743 C   0  0  1  0  0  0  0  0  0  0  0  0
   12.0676  -19.8677   17.5089 C   0  0  0  0  0  0  0  0  0  0  0  0
   13.2369  -19.4733   16.6735 C   0  0  0  0  0  0  0  0  0  0  0  0
   14.3240  -20.4433   16.7303 C   0  0  0  0  0  0  0  0  0  0  0  0
   14.8283  -20.8540   17.7930 O   0  0  0  0  0  0  0  0  0  0  0  0
   10.6898  -18.0493   18.4831 C   0  0  0  0  0  0  0  0  0  0  0  0
   11.6369  -17.3607   18.9016 O   0  0  0  0  0  0  0  0  0  0  0  0
   14.8416  -20.9519   15.5234 O   0  0  0  0  0  0  0  0  0  0  0  0
    7.0442  -17.7147   20.6766 O   0  0  0  0  0  0  0  0  0  0  0  0
    7.8113  -16.5749   20.4681 C   0  0  0  0  0  0  0  0  0  0  0  0
    9.2717  -16.9241   20.2285 C   0  0  2  0  0  0  0  0  0  0  0  0
    9.4228  -17.8660   19.1492 N   0  0  0  0  0  0  0  0  0  0  0  0
    9.9105  -17.4171   21.4857 C   0  0  0  0  0  0  0  0  0  0  0  0
   10.1070  -18.6391   21.7160 O   0  0  0  0  0  0  0  0  0  0  0  0
   11.3278  -15.7161   24.5834 C   0  0  0  0  0  0  0  0  0  0  0  0
   10.9108  -16.8840   23.7436 C   0  0  2  0  0  0  0  0  0  0  0  0
   10.3251  -16.4927   22.4837 N   0  0  0  0  0  0  0  0  0  0  0  0
   10.0176  -17.7470   24.5427 C   0  0  0  0  0  0  0  0  0  0  0  0
    8.7942  -17.7359   24.2520 O   0  0  0  0  0  0  0  0  0  0  0  0
   10.4504  -18.5559   25.5800 O   0  0  0  0  0  0  0  0  0  0  0  0
  2  1  1  6
  2  3  1  0
  3  4  1  0
  4  5  1  0
  5  6  2  0
  5  9  1  0
  7 13  1  0
  7  2  1  0
  8  7  2  0
 12 11  1  1
 11 10  1  0
 12 14  1  0
 12 13  1  0
 14 18  1  0
 15 14  2  0
 17 16  1  1
 18 17  1  0
 19 17  1  0
 19 21  1  0
 20 19  2  0
M  END
$$$$
