ESA.pdb
     RDKit          3D

 21 20  0  0  1  0  0  0  0  0999 V2000
    9.0476  -16.9894   20.1797 N   0  0  0  0  0  0  0  0  0  0  0  0
    9.6768  -17.5187   21.4017 C   0  0  1  0  0  0  0  0  0  0  0  0
   11.1565  -17.3652   21.2816 C   0  0  0  0  0  0  0  0  0  0  0  0
   11.7209  -17.7060   19.9451 C   0  0  0  0  0  0  0  0  0  0  0  0
   13.1661  -17.5244   19.8799 C   0  0  0  0  0  0  0  0  0  0  0  0
   13.9708  -18.4542   19.6794 O   0  0  0  0  0  0  0  0  0  0  0  0
    9.1047  -16.8781   22.5882 C   0  0  0  0  0  0  0  0  0  0  0  0
    8.7840  -15.6767   22.5790 O   0  0  0  0  0  0  0  0  0  0  0  0
   13.6945  -16.2302   20.0516 O   0  0  0  0  0  0  0  0  0  0  0  0
    6.1729  -18.1382   25.0139 O   0  0  0  0  0  0  0  0  0  0  0  0
    7.3518  -17.9046   25.7116 C   0  0  0  0  0  0  0  0  0  0  0  0
    8.2644  -16.9507   24.9571 C   0  0  2  0  0  0  0  0  0  0  0  0
    8.8809  -17.5902   23.8232 N   0  0  0  0  0  0  0  0  0  0  0  0
    9.2807  -16.3542   25.8753 C   0  0  0  0  0  0  0  0  0  0  0  0
   10.4372  -16.8320   26.0137 O   0  0  0  0  0  0  0  0  0  0  0  0
    9.3960  -13.2602   28.0778 C   0  0  0  0  0  0  0  0  0  0  0  0
    9.8454  -14.6122   27.6159 C   0  0  2  0  0  0  0  0  0  0  0  0
    8.9593  -15.1982   26.6386 N   0  0  0  0  0  0  0  0  0  0  0  0
   10.0399  -15.4761   28.7978 C   0  0  0  0  0  0  0  0  0  0  0  0
    9.2838  -16.4743   28.9126 O   0  0  0  0  0  0  0  0  0  0  0  0
   10.9973  -15.2477   29.7721 O   0  0  0  0  0  0  0  0  0  0  0  0
  2  1  1  6
  2  3  1  0
  3  4  1  0
  4  5  1  0
  5  6  2  0
  5  9  1  0
  7 13  1  0
  7  2  1  0
  8  7  2  0
 12 11  1  1
 11 10  1  0
 12 14  1  0
 12 13  1  0
 14 18  1  0
 15 14  2  0
 17 16  1  1
 18 17  1  0
 19 17  1  0
 19 21  1  0
 20 19  2  0
M  END
$$$$
