ESA.pdb
     RDKit          3D

 21 20  0  0  1  0  0  0  0  0999 V2000
   10.1627  -17.5472   15.7238 N   0  0  0  0  0  0  0  0  0  0  0  0
    9.3038  -18.1644   16.7489 C   0  0  1  0  0  0  0  0  0  0  0  0
    9.3407  -19.6460   16.5736 C   0  0  0  0  0  0  0  0  0  0  0  0
   10.6977  -20.2576   16.6468 C   0  0  0  0  0  0  0  0  0  0  0  0
   10.6786  -21.7003   16.4368 C   0  0  0  0  0  0  0  0  0  0  0  0
   11.1859  -22.5200   17.2260 O   0  0  0  0  0  0  0  0  0  0  0  0
    9.6987  -17.7115   18.0848 C   0  0  0  0  0  0  0  0  0  0  0  0
   10.8942  -17.5333   18.3764 O   0  0  0  0  0  0  0  0  0  0  0  0
   10.0547  -22.2081   15.2808 O   0  0  0  0  0  0  0  0  0  0  0  0
    8.3652  -16.0015   22.4817 O   0  0  0  0  0  0  0  0  0  0  0  0
    7.9605  -16.5827   21.2861 C   0  0  0  0  0  0  0  0  0  0  0  0
    9.1524  -16.9680   20.4240 C   0  0  2  0  0  0  0  0  0  0  0  0
    8.7394  -17.4479   19.1302 N   0  0  0  0  0  0  0  0  0  0  0  0
   10.0175  -17.9596   21.1310 C   0  0  0  0  0  0  0  0  0  0  0  0
    9.7001  -19.1711   21.2592 O   0  0  0  0  0  0  0  0  0  0  0  0
   13.5803  -18.2342   22.0849 C   0  0  0  0  0  0  0  0  0  0  0  0
   12.1352  -18.4312   22.4256 C   0  0  2  0  0  0  0  0  0  0  0  0
   11.2575  -17.5495   21.6936 N   0  0  0  0  0  0  0  0  0  0  0  0
   11.9727  -18.3099   23.8885 C   0  0  0  0  0  0  0  0  0  0  0  0
   12.5880  -19.1382   24.6072 O   0  0  0  0  0  0  0  0  0  0  0  0
   11.1896  -17.3458   24.5012 O   0  0  0  0  0  0  0  0  0  0  0  0
  2  1  1  6
  2  3  1  0
  3  4  1  0
  4  5  1  0
  5  6  2  0
  5  9  1  0
  7 13  1  0
  7  2  1  0
  8  7  2  0
 12 11  1  1
 11 10  1  0
 12 14  1  0
 12 13  1  0
 14 18  1  0
 15 14  2  0
 17 16  1  1
 18 17  1  0
 19 17  1  0
 19 21  1  0
 20 19  2  0
M  END
$$$$
