ESA.pdb
     RDKit          3D

 21 20  0  0  1  0  0  0  0  0999 V2000
   10.4350  -16.8573   17.1281 N   0  0  0  0  0  0  0  0  0  0  0  0
    9.6545  -17.5924   18.1379 C   0  0  1  0  0  0  0  0  0  0  0  0
   10.3752  -18.8561   18.4711 C   0  0  0  0  0  0  0  0  0  0  0  0
   11.5890  -18.6868   19.3190 C   0  0  0  0  0  0  0  0  0  0  0  0
   12.2755  -19.9464   19.5796 C   0  0  0  0  0  0  0  0  0  0  0  0
   13.4061  -20.2218   19.1345 O   0  0  0  0  0  0  0  0  0  0  0  0
    9.3841  -16.7366   19.2954 C   0  0  0  0  0  0  0  0  0  0  0  0
   10.2536  -15.9704   19.7461 O   0  0  0  0  0  0  0  0  0  0  0  0
   11.6352  -20.9141   20.3778 O   0  0  0  0  0  0  0  0  0  0  0  0
    5.8219  -16.9877   21.6882 O   0  0  0  0  0  0  0  0  0  0  0  0
    6.3808  -15.7474   21.4052 C   0  0  0  0  0  0  0  0  0  0  0  0
    7.8659  -15.8636   21.0999 C   0  0  2  0  0  0  0  0  0  0  0  0
    8.1110  -16.7292   19.9750 N   0  0  0  0  0  0  0  0  0  0  0  0
    8.6216  -16.3038   22.3110 C   0  0  0  0  0  0  0  0  0  0  0  0
    9.1462  -17.4440   22.4093 O   0  0  0  0  0  0  0  0  0  0  0  0
    9.5277  -14.6491   25.6184 C   0  0  0  0  0  0  0  0  0  0  0  0
    9.4382  -15.7834   24.6445 C   0  0  2  0  0  0  0  0  0  0  0  0
    8.7725  -15.4214   23.4159 N   0  0  0  0  0  0  0  0  0  0  0  0
    8.8048  -16.9358   25.3166 C   0  0  0  0  0  0  0  0  0  0  0  0
    7.6431  -17.2490   24.9508 O   0  0  0  0  0  0  0  0  0  0  0  0
    9.4141  -17.6787   26.3140 O   0  0  0  0  0  0  0  0  0  0  0  0
  2  1  1  6
  2  3  1  0
  3  4  1  0
  4  5  1  0
  5  6  2  0
  5  9  1  0
  7 13  1  0
  7  2  1  0
  8  7  2  0
 12 11  1  1
 11 10  1  0
 12 14  1  0
 12 13  1  0
 14 18  1  0
 15 14  2  0
 17 16  1  1
 18 17  1  0
 19 17  1  0
 19 21  1  0
 20 19  2  0
M  END
$$$$
