ESA.pdb
     RDKit          3D

 21 20  0  0  1  0  0  0  0  0999 V2000
    8.1536  -12.8598   17.5959 N   0  0  0  0  0  0  0  0  0  0  0  0
    7.5938  -13.9544   18.4069 C   0  0  1  0  0  0  0  0  0  0  0  0
    7.7142  -15.2278   17.6381 C   0  0  0  0  0  0  0  0  0  0  0  0
    9.0517  -15.4744   17.0289 C   0  0  0  0  0  0  0  0  0  0  0  0
    9.1192  -16.7404   16.3089 C   0  0  0  0  0  0  0  0  0  0  0  0
    9.5811  -16.8565   15.1576 O   0  0  0  0  0  0  0  0  0  0  0  0
    8.2322  -13.9903   19.7248 C   0  0  0  0  0  0  0  0  0  0  0  0
    9.4286  -13.6835   19.8686 O   0  0  0  0  0  0  0  0  0  0  0  0
    8.6385  -17.9044   16.9393 O   0  0  0  0  0  0  0  0  0  0  0  0
    7.8479  -14.0021   24.5579 O   0  0  0  0  0  0  0  0  0  0  0  0
    7.2040  -14.0499   23.3274 C   0  0  0  0  0  0  0  0  0  0  0  0
    8.1724  -14.3924   22.2063 C   0  0  2  0  0  0  0  0  0  0  0  0
    7.5234  -14.3782   20.9205 N   0  0  0  0  0  0  0  0  0  0  0  0
    8.8463  -15.6991   22.4708 C   0  0  0  0  0  0  0  0  0  0  0  0
    8.3101  -16.8074   22.2080 O   0  0  0  0  0  0  0  0  0  0  0  0
   12.3551  -16.7867   23.1904 C   0  0  0  0  0  0  0  0  0  0  0  0
   10.8719  -16.9419   23.3285 C   0  0  2  0  0  0  0  0  0  0  0  0
   10.1482  -15.7261   23.0425 N   0  0  0  0  0  0  0  0  0  0  0  0
   10.5748  -17.4781   24.6722 C   0  0  0  0  0  0  0  0  0  0  0  0
    9.8535  -16.7761   25.4261 O   0  0  0  0  0  0  0  0  0  0  0  0
   11.0421  -18.6955   25.1384 O   0  0  0  0  0  0  0  0  0  0  0  0
  2  1  1  6
  2  3  1  0
  3  4  1  0
  4  5  1  0
  5  6  2  0
  5  9  1  0
  7 13  1  0
  7  2  1  0
  8  7  2  0
 12 11  1  1
 11 10  1  0
 12 14  1  0
 12 13  1  0
 14 18  1  0
 15 14  2  0
 17 16  1  1
 18 17  1  0
 19 17  1  0
 19 21  1  0
 20 19  2  0
M  END
$$$$
