ESA.pdb
     RDKit          3D

 21 20  0  0  1  0  0  0  0  0999 V2000
    7.9440  -12.6981   17.2172 N   0  0  0  0  0  0  0  0  0  0  0  0
    7.4619  -13.9115   17.8988 C   0  0  1  0  0  0  0  0  0  0  0  0
    7.6368  -15.0757   16.9815 C   0  0  0  0  0  0  0  0  0  0  0  0
    9.0214  -15.2724   16.4668 C   0  0  0  0  0  0  0  0  0  0  0  0
    9.1253  -16.3940   15.5410 C   0  0  0  0  0  0  0  0  0  0  0  0
    8.4797  -17.4525   15.6632 O   0  0  0  0  0  0  0  0  0  0  0  0
    8.1277  -14.0671   19.1942 C   0  0  0  0  0  0  0  0  0  0  0  0
    9.3321  -13.7921   19.3356 O   0  0  0  0  0  0  0  0  0  0  0  0
   10.0010  -16.2872   14.4432 O   0  0  0  0  0  0  0  0  0  0  0  0
    7.8300  -15.0341   23.9853 O   0  0  0  0  0  0  0  0  0  0  0  0
    7.1616  -14.9458   22.7702 C   0  0  0  0  0  0  0  0  0  0  0  0
    8.1308  -14.7425   21.6164 C   0  0  2  0  0  0  0  0  0  0  0  0
    7.4381  -14.5421   20.3695 N   0  0  0  0  0  0  0  0  0  0  0  0
    9.1000  -15.8763   21.5342 C   0  0  0  0  0  0  0  0  0  0  0  0
    8.8555  -16.9368   20.9014 O   0  0  0  0  0  0  0  0  0  0  0  0
   12.5390  -16.5412   21.3519 C   0  0  0  0  0  0  0  0  0  0  0  0
   11.3379  -16.8466   22.1928 C   0  0  2  0  0  0  0  0  0  0  0  0
   10.3601  -15.7847   22.1870 N   0  0  0  0  0  0  0  0  0  0  0  0
   11.7896  -17.1965   23.5546 C   0  0  0  0  0  0  0  0  0  0  0  0
   11.2921  -16.5490   24.5109 O   0  0  0  0  0  0  0  0  0  0  0  0
   12.7188  -18.1859   23.8296 O   0  0  0  0  0  0  0  0  0  0  0  0
  2  1  1  6
  2  3  1  0
  3  4  1  0
  4  5  1  0
  5  6  2  0
  5  9  1  0
  7 13  1  0
  7  2  1  0
  8  7  2  0
 12 11  1  1
 11 10  1  0
 12 14  1  0
 12 13  1  0
 14 18  1  0
 15 14  2  0
 17 16  1  6
 18 17  1  0
 19 17  1  0
 19 21  1  0
 20 19  2  0
M  END
$$$$
