ESA.pdb
     RDKit          3D

 21 20  0  0  1  0  0  0  0  0999 V2000
   10.5736  -16.2781   20.5399 N   0  0  0  0  0  0  0  0  0  0  0  0
    9.6555  -16.8018   21.5656 C   0  0  1  0  0  0  0  0  0  0  0  0
   10.0625  -18.1976   21.9024 C   0  0  0  0  0  0  0  0  0  0  0  0
   11.4553  -18.3445   22.4119 C   0  0  0  0  0  0  0  0  0  0  0  0
   11.8248  -19.7343   22.6519 C   0  0  0  0  0  0  0  0  0  0  0  0
   11.9023  -20.2423   23.7869 O   0  0  0  0  0  0  0  0  0  0  0  0
    9.6101  -15.8989   22.7180 C   0  0  0  0  0  0  0  0  0  0  0  0
   10.5760  -15.1689   23.0018 O   0  0  0  0  0  0  0  0  0  0  0  0
   12.1125  -20.5590   21.5472 O   0  0  0  0  0  0  0  0  0  0  0  0
    6.4044  -15.8235   25.5652 O   0  0  0  0  0  0  0  0  0  0  0  0
    6.9883  -14.6312   25.1549 C   0  0  0  0  0  0  0  0  0  0  0  0
    8.4105  -14.8494   24.6629 C   0  0  2  0  0  0  0  0  0  0  0  0
    8.4591  -15.8013   23.5830 N   0  0  0  0  0  0  0  0  0  0  0  0
    9.3049  -15.2474   25.7912 C   0  0  0  0  0  0  0  0  0  0  0  0
    9.7862  -16.4053   25.9030 O   0  0  0  0  0  0  0  0  0  0  0  0
   10.5154  -13.4851   28.9407 C   0  0  0  0  0  0  0  0  0  0  0  0
   10.3960  -14.6324   27.9854 C   0  0  2  0  0  0  0  0  0  0  0  0
    9.6459  -14.3019   26.7973 N   0  0  0  0  0  0  0  0  0  0  0  0
    9.8364  -15.7932   28.7069 C   0  0  0  0  0  0  0  0  0  0  0  0
   10.5065  -16.2527   29.6668 O   0  0  0  0  0  0  0  0  0  0  0  0
    8.6302  -16.3934   28.3865 O   0  0  0  0  0  0  0  0  0  0  0  0
  2  1  1  6
  2  3  1  0
  3  4  1  0
  4  5  1  0
  5  6  2  0
  5  9  1  0
  7 13  1  0
  7  2  1  0
  8  7  2  0
 12 11  1  1
 11 10  1  0
 12 14  1  0
 12 13  1  0
 14 18  1  0
 15 14  2  0
 17 16  1  1
 18 17  1  0
 19 17  1  0
 19 21  1  0
 20 19  2  0
M  END
$$$$
