ESA.pdb
     RDKit          3D

 21 20  0  0  1  0  0  0  0  0999 V2000
    7.9315  -13.0107   17.2124 N   0  0  0  0  0  0  0  0  0  0  0  0
    7.7239  -14.3902   17.6846 C   0  0  1  0  0  0  0  0  0  0  0  0
    8.3898  -15.3262   16.7319 C   0  0  0  0  0  0  0  0  0  0  0  0
    9.8585  -15.1289   16.5744 C   0  0  0  0  0  0  0  0  0  0  0  0
   10.4746  -16.1352   15.7179 C   0  0  0  0  0  0  0  0  0  0  0  0
   11.2512  -17.0156   16.1352 O   0  0  0  0  0  0  0  0  0  0  0  0
    8.1763  -14.5279   19.0709 C   0  0  0  0  0  0  0  0  0  0  0  0
    9.2935  -14.1141   19.4272 O   0  0  0  0  0  0  0  0  0  0  0  0
   10.1833  -16.1221   14.3401 O   0  0  0  0  0  0  0  0  0  0  0  0
    6.0908  -16.7986   22.0093 O   0  0  0  0  0  0  0  0  0  0  0  0
    6.6740  -15.5995   22.4002 C   0  0  0  0  0  0  0  0  0  0  0  0
    7.8050  -15.2008   21.4652 C   0  0  2  0  0  0  0  0  0  0  0  0
    7.3661  -15.1431   20.0946 N   0  0  0  0  0  0  0  0  0  0  0  0
    8.9758  -16.1135   21.6327 C   0  0  0  0  0  0  0  0  0  0  0  0
    9.1616  -17.1235   20.9045 O   0  0  0  0  0  0  0  0  0  0  0  0
   12.3231  -16.0835   23.1767 C   0  0  0  0  0  0  0  0  0  0  0  0
   11.0052  -16.7693   22.9871 C   0  0  2  0  0  0  0  0  0  0  0  0
    9.9384  -15.8581   22.6478 N   0  0  0  0  0  0  0  0  0  0  0  0
   10.7091  -17.5681   24.1935 C   0  0  0  0  0  0  0  0  0  0  0  0
   11.5176  -18.4843   24.4907 O   0  0  0  0  0  0  0  0  0  0  0  0
    9.6039  -17.3640   25.0027 O   0  0  0  0  0  0  0  0  0  0  0  0
  2  1  1  6
  2  3  1  0
  3  4  1  0
  4  5  1  0
  5  6  2  0
  5  9  1  0
  7 13  1  0
  7  2  1  0
  8  7  2  0
 12 11  1  1
 11 10  1  0
 12 14  1  0
 12 13  1  0
 14 18  1  0
 15 14  2  0
 17 16  1  1
 18 17  1  0
 19 17  1  0
 19 21  1  0
 20 19  2  0
M  END
$$$$
