ESA.pdb
     RDKit          3D

 21 20  0  0  1  0  0  0  0  0999 V2000
   -1.9048  -26.2578   30.7362 N   0  0  0  0  0  0  0  0  0  0  0  0
   -2.7550  -26.0199   29.5573 C   0  0  1  0  0  0  0  0  0  0  0  0
   -3.6413  -27.2046   29.3610 C   0  0  0  0  0  0  0  0  0  0  0  0
   -2.9357  -28.4723   29.0206 C   0  0  0  0  0  0  0  0  0  0  0  0
   -3.8376  -29.6148   28.9356 C   0  0  0  0  0  0  0  0  0  0  0  0
   -5.0575  -29.5515   29.1806 O   0  0  0  0  0  0  0  0  0  0  0  0
   -3.4754  -24.7521   29.6959 C   0  0  0  0  0  0  0  0  0  0  0  0
   -3.8709  -24.3549   30.8059 O   0  0  0  0  0  0  0  0  0  0  0  0
   -3.3125  -30.8653   28.5563 O   0  0  0  0  0  0  0  0  0  0  0  0
   -4.0596  -22.1646   26.4263 O   0  0  0  0  0  0  0  0  0  0  0  0
   -4.1421  -21.6349   27.7084 C   0  0  0  0  0  0  0  0  0  0  0  0
   -4.5438  -22.6943   28.7226 C   0  0  2  0  0  0  0  0  0  0  0  0
   -3.7669  -23.8976   28.5701 N   0  0  0  0  0  0  0  0  0  0  0  0
   -6.0101  -22.9698   28.6466 C   0  0  0  0  0  0  0  0  0  0  0  0
   -6.5012  -23.8369   27.8773 O   0  0  0  0  0  0  0  0  0  0  0  0
   -8.9937  -21.9173   30.7270 C   0  0  0  0  0  0  0  0  0  0  0  0
   -8.3357  -22.4915   29.5103 C   0  0  2  0  0  0  0  0  0  0  0  0
   -6.9152  -22.2390   29.4645 N   0  0  0  0  0  0  0  0  0  0  0  0
   -9.0408  -21.9947   28.3114 C   0  0  0  0  0  0  0  0  0  0  0  0
   -8.5464  -20.9990   27.7235 O   0  0  0  0  0  0  0  0  0  0  0  0
  -10.2007  -22.5596   27.8083 O   0  0  0  0  0  0  0  0  0  0  0  0
  2  1  1  1
  2  3  1  0
  3  4  1  0
  4  5  1  0
  5  6  2  0
  5  9  1  0
  7 13  1  0
  7  2  1  0
  8  7  2  0
 12 11  1  6
 11 10  1  0
 12 14  1  0
 12 13  1  0
 14 18  1  0
 15 14  2  0
 17 16  1  1
 18 17  1  0
 19 17  1  0
 19 21  1  0
 20 19  2  0
M  END
$$$$
