ESA.pdb
     RDKit          3D

 21 20  0  0  1  0  0  0  0  0999 V2000
    7.6827  -12.9666   16.5693 N   0  0  0  0  0  0  0  0  0  0  0  0
    7.4528  -14.2644   17.2267 C   0  0  1  0  0  0  0  0  0  0  0  0
    7.9234  -15.3501   16.3174 C   0  0  0  0  0  0  0  0  0  0  0  0
    9.2868  -15.1520   15.7490 C   0  0  0  0  0  0  0  0  0  0  0  0
    9.6566  -16.1903   14.7945 C   0  0  0  0  0  0  0  0  0  0  0  0
   10.8328  -16.5325   14.5674 O   0  0  0  0  0  0  0  0  0  0  0  0
    8.0779  -14.2826   18.5513 C   0  0  0  0  0  0  0  0  0  0  0  0
    9.2446  -13.8858   18.7176 O   0  0  0  0  0  0  0  0  0  0  0  0
    8.6362  -16.8507   14.0831 O   0  0  0  0  0  0  0  0  0  0  0  0
    6.2768  -16.1181   21.9546 O   0  0  0  0  0  0  0  0  0  0  0  0
    7.0191  -14.9584   22.1418 C   0  0  0  0  0  0  0  0  0  0  0  0
    8.0260  -14.7560   21.0204 C   0  0  2  0  0  0  0  0  0  0  0  0
    7.3894  -14.7550   19.7283 N   0  0  0  0  0  0  0  0  0  0  0  0
    9.1161  -15.7744   21.0986 C   0  0  0  0  0  0  0  0  0  0  0  0
    9.2101  -16.7349   20.2901 O   0  0  0  0  0  0  0  0  0  0  0  0
   12.4603  -16.3114   21.8502 C   0  0  0  0  0  0  0  0  0  0  0  0
   11.1042  -16.6964   22.3558 C   0  0  2  0  0  0  0  0  0  0  0  0
   10.1042  -15.6831   22.1172 N   0  0  0  0  0  0  0  0  0  0  0  0
   11.2164  -17.0601   23.7828 C   0  0  0  0  0  0  0  0  0  0  0  0
   12.0056  -17.9932   24.0792 O   0  0  0  0  0  0  0  0  0  0  0  0
   10.5084  -16.4367   24.7966 O   0  0  0  0  0  0  0  0  0  0  0  0
  2  1  1  6
  2  3  1  0
  3  4  1  0
  4  5  1  0
  5  6  2  0
  5  9  1  0
  7 13  1  0
  7  2  1  0
  8  7  2  0
 12 11  1  1
 11 10  1  0
 12 14  1  0
 12 13  1  0
 14 18  1  0
 15 14  2  0
 17 16  1  1
 18 17  1  0
 19 17  1  0
 19 21  1  0
 20 19  2  0
M  END
$$$$
