ESA.pdb
     RDKit          3D

 21 20  0  0  1  0  0  0  0  0999 V2000
    9.4544  -18.1477   16.5926 N   0  0  0  0  0  0  0  0  0  0  0  0
    9.6067  -19.0503   17.7464 C   0  0  1  0  0  0  0  0  0  0  0  0
   10.7304  -19.9928   17.4702 C   0  0  0  0  0  0  0  0  0  0  0  0
   11.9976  -19.3508   17.0195 C   0  0  0  0  0  0  0  0  0  0  0  0
   13.0325  -20.3207   16.6817 C   0  0  0  0  0  0  0  0  0  0  0  0
   14.1961  -20.0072   16.3653 O   0  0  0  0  0  0  0  0  0  0  0  0
    9.7656  -18.2776   18.9806 C   0  0  0  0  0  0  0  0  0  0  0  0
   10.7985  -17.6209   19.2000 O   0  0  0  0  0  0  0  0  0  0  0  0
   12.7115  -21.6916   16.7112 O   0  0  0  0  0  0  0  0  0  0  0  0
    7.7715  -16.5243   23.1044 O   0  0  0  0  0  0  0  0  0  0  0  0
    7.6144  -17.3163   21.9734 C   0  0  0  0  0  0  0  0  0  0  0  0
    8.9110  -17.4247   21.1864 C   0  0  2  0  0  0  0  0  0  0  0  0
    8.7488  -18.2307   20.0036 N   0  0  0  0  0  0  0  0  0  0  0  0
   10.0153  -17.9330   22.0544 C   0  0  0  0  0  0  0  0  0  0  0  0
   10.1236  -19.1445   22.3794 O   0  0  0  0  0  0  0  0  0  0  0  0
   13.2638  -16.5333   23.3542 C   0  0  0  0  0  0  0  0  0  0  0  0
   12.0681  -17.4312   23.4392 C   0  0  2  0  0  0  0  0  0  0  0  0
   11.0013  -17.0363   22.5505 N   0  0  0  0  0  0  0  0  0  0  0  0
   11.6344  -17.5101   24.8488 C   0  0  0  0  0  0  0  0  0  0  0  0
   10.5059  -17.0328   25.1320 O   0  0  0  0  0  0  0  0  0  0  0  0
   12.3941  -18.0740   25.8600 O   0  0  0  0  0  0  0  0  0  0  0  0
  2  1  1  6
  2  3  1  0
  3  4  1  0
  4  5  1  0
  5  6  2  0
  5  9  1  0
  7 13  1  0
  7  2  1  0
  8  7  2  0
 12 11  1  1
 11 10  1  0
 12 14  1  0
 12 13  1  0
 14 18  1  0
 15 14  2  0
 17 16  1  1
 18 17  1  0
 19 17  1  0
 19 21  1  0
 20 19  2  0
M  END
$$$$
