ESA.pdb
     RDKit          3D

 21 20  0  0  1  0  0  0  0  0999 V2000
    9.4536  -16.6323   20.1773 N   0  0  0  0  0  0  0  0  0  0  0  0
    9.7606  -17.3031   21.4521 C   0  0  1  0  0  0  0  0  0  0  0  0
   11.2139  -17.6418   21.4754 C   0  0  0  0  0  0  0  0  0  0  0  0
   12.1072  -16.6385   20.8302 C   0  0  0  0  0  0  0  0  0  0  0  0
   13.5108  -17.0321   20.8580 C   0  0  0  0  0  0  0  0  0  0  0  0
   13.9232  -18.0829   21.3851 O   0  0  0  0  0  0  0  0  0  0  0  0
    9.3218  -16.4787   22.5805 C   0  0  0  0  0  0  0  0  0  0  0  0
    9.3810  -15.2376   22.5319 O   0  0  0  0  0  0  0  0  0  0  0  0
   14.4635  -16.1854   20.2588 O   0  0  0  0  0  0  0  0  0  0  0  0
    7.3760  -18.1029   26.0119 O   0  0  0  0  0  0  0  0  0  0  0  0
    7.1255  -16.8087   25.5723 C   0  0  0  0  0  0  0  0  0  0  0  0
    8.3409  -16.2117   24.8805 C   0  0  2  0  0  0  0  0  0  0  0  0
    8.8013  -17.0467   23.8008 N   0  0  0  0  0  0  0  0  0  0  0  0
    9.4278  -15.9347   25.8671 C   0  0  0  0  0  0  0  0  0  0  0  0
   10.4631  -16.6453   25.9572 O   0  0  0  0  0  0  0  0  0  0  0  0
   10.0769  -13.1835   28.4084 C   0  0  0  0  0  0  0  0  0  0  0  0
   10.2912  -14.5248   27.7776 C   0  0  2  0  0  0  0  0  0  0  0  0
    9.3184  -14.8298   26.7557 N   0  0  0  0  0  0  0  0  0  0  0  0
   10.3373  -15.5471   28.8424 C   0  0  0  0  0  0  0  0  0  0  0  0
    9.3986  -16.3832   28.8796 O   0  0  0  0  0  0  0  0  0  0  0  0
   11.3452  -15.6320   29.7883 O   0  0  0  0  0  0  0  0  0  0  0  0
  2  1  1  6
  2  3  1  0
  3  4  1  0
  4  5  1  0
  5  6  2  0
  5  9  1  0
  7 13  1  0
  7  2  1  0
  8  7  2  0
 12 11  1  1
 11 10  1  0
 12 14  1  0
 12 13  1  0
 14 18  1  0
 15 14  2  0
 17 16  1  1
 18 17  1  0
 19 17  1  0
 19 21  1  0
 20 19  2  0
M  END
$$$$
