MAY.pdb
     RDKit          3D

 26 26  0  0  1  0  0  0  0  0999 V2000
    8.4479  -12.9690   20.6089 C   0  0  0  0  0  0  0  0  0  0  0  0
    6.7433  -13.0801   21.2165 S   0  0  0  0  0  0  0  0  0  0  0  0
    6.5570  -14.7214   21.9920 C   0  0  0  0  0  0  0  0  0  0  0  0
    7.9047  -15.3391   22.2675 C   0  0  0  0  0  0  0  0  0  0  0  0
    7.6801  -16.7357   22.8058 C   0  0  2  0  0  0  0  0  0  0  0  0
    6.3808  -16.8450   23.3835 N   0  0  0  0  0  0  0  0  0  0  0  0
    8.7921  -17.1824   23.6629 C   0  0  0  0  0  0  0  0  0  0  0  0
    8.5023  -17.8590   24.6796 O   0  0  0  0  0  0  0  0  0  0  0  0
   12.5439  -17.3303   23.2677 C   0  0  0  0  0  0  0  0  0  0  0  0
   11.2587  -17.5169   24.0447 C   0  0  2  0  0  0  0  0  0  0  0  0
   10.1347  -16.8799   23.3804 N   0  0  0  0  0  0  0  0  0  0  0  0
   11.4327  -17.0580   25.4255 C   0  0  0  0  0  0  0  0  0  0  0  0
   12.3253  -17.5469   26.1307 O   0  0  0  0  0  0  0  0  0  0  0  0
    5.0528  -13.0949   26.0797 O   0  0  0  0  0  0  0  0  0  0  0  0
    6.4110  -13.2952   26.3388 C   0  0  0  0  0  0  0  0  0  0  0  0
    7.2827  -13.6126   25.3125 C   0  0  0  0  0  0  0  0  0  0  0  0
    8.6250  -13.8160   25.5329 C   0  0  0  0  0  0  0  0  0  0  0  0
    9.1582  -13.7072   26.8165 C   0  0  0  0  0  0  0  0  0  0  0  0
   10.5754  -13.9271   27.0864 C   0  0  0  0  0  0  0  0  0  0  0  0
   10.8904  -15.4097   27.1973 C   0  0  2  0  0  0  0  0  0  0  0  0
   10.5609  -16.0543   25.9175 N   0  0  0  0  0  0  0  0  0  0  0  0
   10.1342  -16.1048   28.2398 C   0  0  0  0  0  0  0  0  0  0  0  0
   10.2822  -15.7953   29.5913 O   0  0  0  0  0  0  0  0  0  0  0  0
    8.2905  -13.3915   27.8377 C   0  0  0  0  0  0  0  0  0  0  0  0
    6.9326  -13.1861   27.6113 C   0  0  0  0  0  0  0  0  0  0  0  0
    9.3143  -17.0157   27.9752 O   0  0  0  0  0  0  0  0  0  0  0  0
  2  1  1  0
  3  2  1  0
  4  3  1  0
  4  5  1  0
  5  6  1  1
  5  7  1  0
  7  8  2  0
 10  9  1  6
 11  7  1  0
 11 10  1  0
 12 10  1  0
 12 21  1  0
 13 12  2  0
 15 14  1  0
 16 15  2  0
 17 16  1  0
 18 24  1  0
 18 17  2  0
 19 18  1  0
 20 22  1  0
 20 21  1  0
 20 19  1  6
 22 23  1  0
 24 25  2  0
 25 15  1  0
 26 22  2  0
M  END
$$$$
