MAY.pdb
     RDKit          3D

 26 26  0  0  1  0  0  0  0  0999 V2000
    8.2507  -11.3524   19.1846 C   0  0  0  0  0  0  0  0  0  0  0  0
    8.3826  -12.7082   20.3812 S   0  0  0  0  0  0  0  0  0  0  0  0
    6.8885  -13.7384   20.1901 C   0  0  0  0  0  0  0  0  0  0  0  0
    6.8587  -14.8349   21.2249 C   0  0  0  0  0  0  0  0  0  0  0  0
    7.8420  -15.9054   20.8033 C   0  0  2  0  0  0  0  0  0  0  0  0
    7.3023  -16.6881   19.7403 N   0  0  0  0  0  0  0  0  0  0  0  0
    8.3529  -16.6700   21.9545 C   0  0  0  0  0  0  0  0  0  0  0  0
    7.5083  -17.1705   22.7365 O   0  0  0  0  0  0  0  0  0  0  0  0
   11.6488  -18.1037   23.0602 C   0  0  0  0  0  0  0  0  0  0  0  0
   10.2519  -17.5880   23.3302 C   0  0  2  0  0  0  0  0  0  0  0  0
    9.7253  -16.8504   22.1949 N   0  0  0  0  0  0  0  0  0  0  0  0
   10.2335  -16.8060   24.5694 C   0  0  0  0  0  0  0  0  0  0  0  0
   10.7741  -15.6927   24.6051 O   0  0  0  0  0  0  0  0  0  0  0  0
    6.5386  -11.2020   25.9146 O   0  0  0  0  0  0  0  0  0  0  0  0
    6.9610  -12.4753   26.3043 C   0  0  0  0  0  0  0  0  0  0  0  0
    8.2082  -12.6581   26.8743 C   0  0  0  0  0  0  0  0  0  0  0  0
    8.6548  -13.8976   27.2691 C   0  0  0  0  0  0  0  0  0  0  0  0
    7.8531  -15.0264   27.1052 C   0  0  0  0  0  0  0  0  0  0  0  0
    8.3006  -16.3571   27.5035 C   0  0  0  0  0  0  0  0  0  0  0  0
    9.7005  -16.6442   26.9860 C   0  0  2  0  0  0  0  0  0  0  0  0
    9.5879  -17.3569   25.7049 N   0  0  0  0  0  0  0  0  0  0  0  0
   10.5072  -17.4791   27.8770 C   0  0  0  0  0  0  0  0  0  0  0  0
   11.0172  -16.9967   29.0817 O   0  0  0  0  0  0  0  0  0  0  0  0
    6.6121  -14.8444   26.5378 C   0  0  0  0  0  0  0  0  0  0  0  0
    6.1630  -13.5887   26.1394 C   0  0  0  0  0  0  0  0  0  0  0  0
   10.7842  -18.6715   27.6056 O   0  0  0  0  0  0  0  0  0  0  0  0
  2  1  1  0
  3  2  1  0
  4  3  1  0
  4  5  1  0
  5  6  1  6
  5  7  1  0
  7  8  2  0
 10  9  1  6
 11  7  1  0
 11 10  1  0
 12 10  1  0
 12 21  1  0
 13 12  2  0
 15 14  1  0
 16 15  2  0
 17 16  1  0
 18 24  1  0
 18 17  2  0
 19 18  1  0
 20 22  1  0
 20 21  1  0
 20 19  1  1
 22 23  1  0
 24 25  2  0
 25 15  1  0
 26 22  2  0
M  END
$$$$
