MAY.pdb
     RDKit          3D

 26 26  0  0  1  0  0  0  0  0999 V2000
    9.0926  -11.5548   21.2939 C   0  0  0  0  0  0  0  0  0  0  0  0
    7.7176  -11.8877   20.1600 S   0  0  0  0  0  0  0  0  0  0  0  0
    7.6787  -13.6905   19.8801 C   0  0  0  0  0  0  0  0  0  0  0  0
    7.8768  -14.4374   21.1749 C   0  0  0  0  0  0  0  0  0  0  0  0
    7.9227  -15.9174   20.8613 C   0  0  2  0  0  0  0  0  0  0  0  0
    6.7412  -16.3179   20.1702 N   0  0  0  0  0  0  0  0  0  0  0  0
    8.2646  -16.7226   22.0468 C   0  0  0  0  0  0  0  0  0  0  0  0
    7.3181  -17.1132   22.7728 O   0  0  0  0  0  0  0  0  0  0  0  0
   11.0906  -18.7520   23.3223 C   0  0  0  0  0  0  0  0  0  0  0  0
    9.9552  -17.7855   23.5810 C   0  0  2  0  0  0  0  0  0  0  0  0
    9.5881  -17.0573   22.3788 N   0  0  0  0  0  0  0  0  0  0  0  0
   10.2922  -16.8985   24.6978 C   0  0  0  0  0  0  0  0  0  0  0  0
   11.0650  -15.9477   24.5196 O   0  0  0  0  0  0  0  0  0  0  0  0
    6.4510  -11.5354   24.7541 O   0  0  0  0  0  0  0  0  0  0  0  0
    7.0296  -12.5746   25.4870 C   0  0  0  0  0  0  0  0  0  0  0  0
    6.4815  -13.8444   25.4586 C   0  0  0  0  0  0  0  0  0  0  0  0
    7.0259  -14.8895   26.1679 C   0  0  0  0  0  0  0  0  0  0  0  0
    8.1645  -14.6999   26.9499 C   0  0  0  0  0  0  0  0  0  0  0  0
    8.7610  -15.7845   27.7229 C   0  0  0  0  0  0  0  0  0  0  0  0
   10.0524  -16.2690   27.0846 C   0  0  2  0  0  0  0  0  0  0  0  0
    9.7143  -17.1608   25.9654 N   0  0  0  0  0  0  0  0  0  0  0  0
   10.9212  -17.0212   27.9907 C   0  0  0  0  0  0  0  0  0  0  0  0
   11.6480  -16.3985   29.0048 O   0  0  0  0  0  0  0  0  0  0  0  0
    8.7097  -13.4361   26.9782 C   0  0  0  0  0  0  0  0  0  0  0  0
    8.1564  -12.3806   26.2591 C   0  0  0  0  0  0  0  0  0  0  0  0
   11.0601  -18.2643   27.9042 O   0  0  0  0  0  0  0  0  0  0  0  0
  2  1  1  0
  3  2  1  0
  4  3  1  0
  4  5  1  0
  5  6  1  1
  5  7  1  0
  7  8  2  0
 10  9  1  6
 11  7  1  0
 11 10  1  0
 12 10  1  0
 12 21  1  0
 13 12  2  0
 15 14  1  0
 16 15  2  0
 17 16  1  0
 18 24  1  0
 18 17  2  0
 19 18  1  0
 20 22  1  0
 20 21  1  0
 20 19  1  1
 22 23  1  0
 24 25  2  0
 25 15  1  0
 26 22  2  0
M  END
$$$$
