MAY.pdb
     RDKit          3D

 26 26  0  0  1  0  0  0  0  0999 V2000
    8.2770  -12.2507   18.2357 C   0  0  0  0  0  0  0  0  0  0  0  0
    7.4106  -12.5503   19.8000 S   0  0  0  0  0  0  0  0  0  0  0  0
    7.0624  -14.3396   19.8852 C   0  0  0  0  0  0  0  0  0  0  0  0
    8.3439  -15.1316   19.9500 C   0  0  0  0  0  0  0  0  0  0  0  0
    8.8307  -15.1209   21.3831 C   0  0  2  0  0  0  0  0  0  0  0  0
   10.0534  -15.8455   21.5002 N   0  0  0  0  0  0  0  0  0  0  0  0
    7.7712  -15.5125   22.3290 C   0  0  0  0  0  0  0  0  0  0  0  0
    6.6828  -14.8904   22.2675 O   0  0  0  0  0  0  0  0  0  0  0  0
    7.1769  -18.3448   24.7476 C   0  0  0  0  0  0  0  0  0  0  0  0
    6.8995  -16.9644   24.1928 C   0  0  2  0  0  0  0  0  0  0  0  0
    7.9411  -16.5378   23.2744 N   0  0  0  0  0  0  0  0  0  0  0  0
    6.6879  -16.0136   25.2877 C   0  0  0  0  0  0  0  0  0  0  0  0
    5.8560  -16.2633   26.1701 O   0  0  0  0  0  0  0  0  0  0  0  0
   11.4565  -16.9635   30.0164 O   0  0  0  0  0  0  0  0  0  0  0  0
   10.7515  -16.0604   29.2170 C   0  0  0  0  0  0  0  0  0  0  0  0
    9.9928  -15.0567   29.7922 C   0  0  0  0  0  0  0  0  0  0  0  0
    9.2870  -14.1513   29.0346 C   0  0  0  0  0  0  0  0  0  0  0  0
    9.3140  -14.2168   27.6422 C   0  0  0  0  0  0  0  0  0  0  0  0
    8.5684  -13.2787   26.8093 C   0  0  0  0  0  0  0  0  0  0  0  0
    7.2274  -13.8596   26.3920 C   0  0  2  0  0  0  0  0  0  0  0  0
    7.4535  -14.8206   25.3023 N   0  0  0  0  0  0  0  0  0  0  0  0
    6.2722  -12.8653   25.9016 C   0  0  0  0  0  0  0  0  0  0  0  0
    5.8307  -12.8536   24.5790 O   0  0  0  0  0  0  0  0  0  0  0  0
   10.0689  -15.2158   27.0701 C   0  0  0  0  0  0  0  0  0  0  0  0
   10.7821  -16.1305   27.8395 C   0  0  0  0  0  0  0  0  0  0  0  0
    5.8003  -11.9704   26.6423 O   0  0  0  0  0  0  0  0  0  0  0  0
  2  1  1  0
  3  2  1  0
  4  3  1  0
  4  5  1  0
  5  6  1  6
  5  7  1  0
  7  8  2  0
 10  9  1  1
 11  7  1  0
 11 10  1  0
 12 10  1  0
 12 21  1  0
 13 12  2  0
 15 14  1  0
 16 15  2  0
 17 16  1  0
 18 24  1  0
 18 17  2  0
 19 18  1  0
 20 22  1  0
 20 21  1  0
 20 19  1  6
 22 23  1  0
 24 25  2  0
 25 15  1  0
 26 22  2  0
M  END
$$$$
