MAY.pdb
     RDKit          3D

 26 26  0  0  1  0  0  0  0  0999 V2000
    6.3169  -11.6973   26.2246 C   0  0  0  0  0  0  0  0  0  0  0  0
    6.4435  -13.4959   26.0333 S   0  0  0  0  0  0  0  0  0  0  0  0
    6.5489  -13.8380   24.2439 C   0  0  0  0  0  0  0  0  0  0  0  0
    6.6115  -15.3223   23.9858 C   0  0  0  0  0  0  0  0  0  0  0  0
    6.7796  -15.5335   22.4965 C   0  0  2  0  0  0  0  0  0  0  0  0
    5.6000  -16.1081   21.9376 N   0  0  0  0  0  0  0  0  0  0  0  0
    8.0360  -16.2333   22.1765 C   0  0  0  0  0  0  0  0  0  0  0  0
    8.0390  -17.4853   22.2659 O   0  0  0  0  0  0  0  0  0  0  0  0
   11.3953  -15.4668   20.6880 C   0  0  0  0  0  0  0  0  0  0  0  0
   10.5028  -16.1914   21.6721 C   0  0  2  0  0  0  0  0  0  0  0  0
    9.2017  -15.5549   21.7834 N   0  0  0  0  0  0  0  0  0  0  0  0
   11.1797  -16.3228   22.9652 C   0  0  0  0  0  0  0  0  0  0  0  0
   12.2403  -16.9566   23.0454 O   0  0  0  0  0  0  0  0  0  0  0  0
   12.1383  -16.5910   31.6891 O   0  0  0  0  0  0  0  0  0  0  0  0
   11.7074  -16.2445   30.4061 C   0  0  0  0  0  0  0  0  0  0  0  0
   10.9500  -17.1271   29.6570 C   0  0  0  0  0  0  0  0  0  0  0  0
   10.5097  -16.8176   28.3913 C   0  0  0  0  0  0  0  0  0  0  0  0
   10.8170  -15.5863   27.8140 C   0  0  0  0  0  0  0  0  0  0  0  0
   10.3746  -15.2306   26.4696 C   0  0  0  0  0  0  0  0  0  0  0  0
   11.2205  -15.9204   25.4120 C   0  0  2  0  0  0  0  0  0  0  0  0
   10.5903  -15.7110   24.1001 N   0  0  0  0  0  0  0  0  0  0  0  0
   11.3543  -17.3651   25.6028 C   0  0  0  0  0  0  0  0  0  0  0  0
   12.4926  -17.9333   26.1736 O   0  0  0  0  0  0  0  0  0  0  0  0
   11.5708  -14.7082   28.5596 C   0  0  0  0  0  0  0  0  0  0  0  0
   12.0149  -15.0244   29.8403 C   0  0  0  0  0  0  0  0  0  0  0  0
   10.4547  -18.1698   25.2630 O   0  0  0  0  0  0  0  0  0  0  0  0
  2  1  1  0
  3  2  1  0
  4  3  1  0
  4  5  1  0
  5  6  1  1
  5  7  1  0
  7  8  2  0
 10  9  1  6
 11  7  1  0
 11 10  1  0
 12 10  1  0
 12 21  1  0
 13 12  2  0
 15 14  1  0
 16 15  2  0
 17 16  1  0
 18 24  1  0
 18 17  2  0
 19 18  1  0
 20 22  1  0
 20 21  1  0
 20 19  1  1
 22 23  1  0
 24 25  2  0
 25 15  1  0
 26 22  2  0
M  END
$$$$
