MAY.pdb
     RDKit          3D

 26 26  0  0  1  0  0  0  0  0999 V2000
    8.5091  -11.6949   20.8389 C   0  0  0  0  0  0  0  0  0  0  0  0
    8.4308  -12.3499   19.1500 S   0  0  0  0  0  0  0  0  0  0  0  0
    7.6508  -13.9966   19.2497 C   0  0  0  0  0  0  0  0  0  0  0  0
    7.4070  -14.3871   20.6856 C   0  0  0  0  0  0  0  0  0  0  0  0
    7.7185  -15.8610   20.8310 C   0  0  2  0  0  0  0  0  0  0  0  0
    7.0304  -16.6170   19.8365 N   0  0  0  0  0  0  0  0  0  0  0  0
    7.5396  -16.3291   22.2165 C   0  0  0  0  0  0  0  0  0  0  0  0
    6.9942  -15.5409   23.0269 O   0  0  0  0  0  0  0  0  0  0  0  0
    8.0056  -19.5653   24.1154 C   0  0  0  0  0  0  0  0  0  0  0  0
    7.8348  -18.0648   24.0170 C   0  0  2  0  0  0  0  0  0  0  0  0
    7.9521  -17.6019   22.6450 N   0  0  0  0  0  0  0  0  0  0  0  0
    8.7688  -17.3901   24.9225 C   0  0  0  0  0  0  0  0  0  0  0  0
    9.8797  -17.0322   24.5091 O   0  0  0  0  0  0  0  0  0  0  0  0
    6.3540  -11.1901   25.0738 O   0  0  0  0  0  0  0  0  0  0  0  0
    6.8660  -12.2620   25.8092 C   0  0  0  0  0  0  0  0  0  0  0  0
    8.2051  -12.3013   26.1544 C   0  0  0  0  0  0  0  0  0  0  0  0
    8.7413  -13.3412   26.8776 C   0  0  0  0  0  0  0  0  0  0  0  0
    7.9407  -14.4047   27.2921 C   0  0  0  0  0  0  0  0  0  0  0  0
    8.4799  -15.5284   28.0513 C   0  0  0  0  0  0  0  0  0  0  0  0
    9.2891  -16.4562   27.1601 C   0  0  2  0  0  0  0  0  0  0  0  0
    8.3652  -17.1652   26.2627 N   0  0  0  0  0  0  0  0  0  0  0  0
   10.0496  -17.4718   27.8894 C   0  0  0  0  0  0  0  0  0  0  0  0
   11.2075  -17.1593   28.6008 O   0  0  0  0  0  0  0  0  0  0  0  0
    6.6082  -14.3654   26.9484 C   0  0  0  0  0  0  0  0  0  0  0  0
    6.0686  -13.3116   26.2165 C   0  0  0  0  0  0  0  0  0  0  0  0
    9.7029  -18.6765   27.9133 O   0  0  0  0  0  0  0  0  0  0  0  0
  2  1  1  0
  3  2  1  0
  4  3  1  0
  4  5  1  0
  5  6  1  6
  5  7  1  0
  7  8  2  0
 10  9  1  6
 11  7  1  0
 11 10  1  0
 12 10  1  0
 12 21  1  0
 13 12  2  0
 15 14  1  0
 16 15  2  0
 17 16  1  0
 18 24  1  0
 18 17  2  0
 19 18  1  0
 20 22  1  0
 20 21  1  0
 20 19  1  1
 22 23  1  0
 24 25  2  0
 25 15  1  0
 26 22  2  0
M  END
$$$$
