MAY.pdb
     RDKit          3D

 26 26  0  0  1  0  0  0  0  0999 V2000
    7.8263  -11.9279   20.1689 C   0  0  0  0  0  0  0  0  0  0  0  0
    8.5216  -12.1536   18.5097 S   0  0  0  0  0  0  0  0  0  0  0  0
    7.9474  -13.7766   17.9046 C   0  0  0  0  0  0  0  0  0  0  0  0
    7.6229  -14.6931   19.0571 C   0  0  0  0  0  0  0  0  0  0  0  0
    8.1447  -16.0734   18.7210 C   0  0  2  0  0  0  0  0  0  0  0  0
    7.3263  -16.6881   17.7278 N   0  0  0  0  0  0  0  0  0  0  0  0
    8.3866  -16.8815   19.9289 C   0  0  0  0  0  0  0  0  0  0  0  0
    7.4303  -17.0252   20.7292 O   0  0  0  0  0  0  0  0  0  0  0  0
   10.9438  -19.2949   21.2014 C   0  0  0  0  0  0  0  0  0  0  0  0
    9.9152  -18.2081   21.4273 C   0  0  2  0  0  0  0  0  0  0  0  0
    9.6272  -17.4813   20.2029 N   0  0  0  0  0  0  0  0  0  0  0  0
   10.3418  -17.3286   22.5191 C   0  0  0  0  0  0  0  0  0  0  0  0
   11.1902  -16.4514   22.3097 O   0  0  0  0  0  0  0  0  0  0  0  0
   10.8062  -13.8508   30.6010 O   0  0  0  0  0  0  0  0  0  0  0  0
   10.3725  -14.4955   29.4399 C   0  0  0  0  0  0  0  0  0  0  0  0
   10.5172  -15.8642   29.3003 C   0  0  0  0  0  0  0  0  0  0  0  0
   10.1011  -16.5299   28.1710 C   0  0  0  0  0  0  0  0  0  0  0  0
    9.5113  -15.8365   27.1150 C   0  0  0  0  0  0  0  0  0  0  0  0
    9.0685  -16.5105   25.8988 C   0  0  0  0  0  0  0  0  0  0  0  0
   10.2050  -16.6422   24.8983 C   0  0  2  0  0  0  0  0  0  0  0  0
    9.7613  -17.5124   23.7993 N   0  0  0  0  0  0  0  0  0  0  0  0
   11.4239  -17.2323   25.4530 C   0  0  0  0  0  0  0  0  0  0  0  0
   12.5284  -16.4561   25.8021 O   0  0  0  0  0  0  0  0  0  0  0  0
    9.3675  -14.4744   27.2540 C   0  0  0  0  0  0  0  0  0  0  0  0
    9.7896  -13.8037   28.3982 C   0  0  0  0  0  0  0  0  0  0  0  0
   11.5418  -18.4660   25.6434 O   0  0  0  0  0  0  0  0  0  0  0  0
  2  1  1  0
  3  2  1  0
  4  3  1  0
  4  5  1  0
  5  6  1  6
  5  7  1  0
  7  8  2  0
 10  9  1  6
 11  7  1  0
 11 10  1  0
 12 10  1  0
 12 21  1  0
 13 12  2  0
 15 14  1  0
 16 15  2  0
 17 16  1  0
 18 24  1  0
 18 17  2  0
 19 18  1  0
 20 22  1  0
 20 21  1  0
 20 19  1  1
 22 23  1  0
 24 25  2  0
 25 15  1  0
 26 22  2  0
M  END
$$$$
