MAY.pdb
     RDKit          3D

 26 26  0  0  1  0  0  0  0  0999 V2000
    6.3415  -21.2642   20.8372 C   0  0  0  0  0  0  0  0  0  0  0  0
    7.3351  -21.6734   19.3768 S   0  0  0  0  0  0  0  0  0  0  0  0
    7.8154  -20.0952   18.5965 C   0  0  0  0  0  0  0  0  0  0  0  0
    8.0729  -19.0385   19.6410 C   0  0  0  0  0  0  0  0  0  0  0  0
    8.3036  -17.7222   18.9305 C   0  0  2  0  0  0  0  0  0  0  0  0
    9.1491  -17.9082   17.7972 N   0  0  0  0  0  0  0  0  0  0  0  0
    8.7192  -16.6581   19.8609 C   0  0  0  0  0  0  0  0  0  0  0  0
    9.9293  -16.6203   20.1923 O   0  0  0  0  0  0  0  0  0  0  0  0
    7.0759  -13.7180   21.6015 C   0  0  0  0  0  0  0  0  0  0  0  0
    8.1744  -14.7387   21.3974 C   0  0  2  0  0  0  0  0  0  0  0  0
    7.8209  -15.7077   20.3744 N   0  0  0  0  0  0  0  0  0  0  0  0
    8.5228  -15.3673   22.6745 C   0  0  0  0  0  0  0  0  0  0  0  0
    7.9979  -16.4411   22.9976 O   0  0  0  0  0  0  0  0  0  0  0  0
    5.7797  -10.6196   26.9631 O   0  0  0  0  0  0  0  0  0  0  0  0
    6.4102  -11.8129   26.6022 C   0  0  0  0  0  0  0  0  0  0  0  0
    5.6709  -12.8850   26.1355 C   0  0  0  0  0  0  0  0  0  0  0  0
    6.2599  -14.0734   25.7717 C   0  0  0  0  0  0  0  0  0  0  0  0
    7.6413  -14.2383   25.8628 C   0  0  0  0  0  0  0  0  0  0  0  0
    8.2967  -15.4893   25.4952 C   0  0  0  0  0  0  0  0  0  0  0  0
    9.6602  -15.2339   24.8742 C   0  0  2  0  0  0  0  0  0  0  0  0
    9.4636  -14.7167   23.5119 N   0  0  0  0  0  0  0  0  0  0  0  0
   10.5010  -16.4269   24.7676 C   0  0  0  0  0  0  0  0  0  0  0  0
   11.0293  -16.8527   23.5494 O   0  0  0  0  0  0  0  0  0  0  0  0
    8.3769  -13.1714   26.3275 C   0  0  0  0  0  0  0  0  0  0  0  0
    7.7778  -11.9699   26.6949 C   0  0  0  0  0  0  0  0  0  0  0  0
   10.7910  -17.1308   25.7639 O   0  0  0  0  0  0  0  0  0  0  0  0
  2  1  1  0
  3  2  1  0
  4  3  1  0
  4  5  1  0
  5  6  1  6
  5  7  1  0
  7  8  2  0
 10  9  1  1
 11  7  1  0
 11 10  1  0
 12 10  1  0
 12 21  1  0
 13 12  2  0
 15 14  1  0
 16 15  2  0
 17 16  1  0
 18 24  1  0
 18 17  2  0
 19 18  1  0
 20 22  1  0
 20 21  1  0
 20 19  1  6
 22 23  1  0
 24 25  2  0
 25 15  1  0
 26 22  2  0
M  END
$$$$
