MAY.pdb
     RDKit          3D

 26 26  0  0  1  0  0  0  0  0999 V2000
    7.8917  -11.5401   21.1195 C   0  0  0  0  0  0  0  0  0  0  0  0
    8.2301  -12.2495   19.4856 S   0  0  0  0  0  0  0  0  0  0  0  0
    7.8765  -14.0365   19.5938 C   0  0  0  0  0  0  0  0  0  0  0  0
    8.1172  -14.5458   20.9925 C   0  0  0  0  0  0  0  0  0  0  0  0
    7.7773  -16.0203   21.0205 C   0  0  2  0  0  0  0  0  0  0  0  0
    6.5493  -16.2625   20.3370 N   0  0  0  0  0  0  0  0  0  0  0  0
    7.8649  -16.5814   22.3800 C   0  0  0  0  0  0  0  0  0  0  0  0
    6.8701  -16.4342   23.1311 O   0  0  0  0  0  0  0  0  0  0  0  0
    9.8062  -19.1514   24.1880 C   0  0  0  0  0  0  0  0  0  0  0  0
    9.1198  -17.8026   24.1898 C   0  0  2  0  0  0  0  0  0  0  0  0
    9.0028  -17.2601   22.8473 N   0  0  0  0  0  0  0  0  0  0  0  0
    9.8033  -16.8898   25.1102 C   0  0  0  0  0  0  0  0  0  0  0  0
   10.7220  -16.1699   24.6970 O   0  0  0  0  0  0  0  0  0  0  0  0
    6.3183  -11.3574   25.2466 O   0  0  0  0  0  0  0  0  0  0  0  0
    6.9972  -12.3238   25.9927 C   0  0  0  0  0  0  0  0  0  0  0  0
    8.3052  -12.1131   26.3909 C   0  0  0  0  0  0  0  0  0  0  0  0
    9.0023  -13.0434   27.1261 C   0  0  0  0  0  0  0  0  0  0  0  0
    8.4043  -14.2463   27.4991 C   0  0  0  0  0  0  0  0  0  0  0  0
    9.1190  -15.2588   28.2697 C   0  0  0  0  0  0  0  0  0  0  0  0
   10.1228  -16.0018   27.4036 C   0  0  2  0  0  0  0  0  0  0  0  0
    9.3850  -16.8594   26.4644 N   0  0  0  0  0  0  0  0  0  0  0  0
   11.0352  -16.8656   28.1539 C   0  0  0  0  0  0  0  0  0  0  0  0
   12.1950  -16.3739   28.7519 O   0  0  0  0  0  0  0  0  0  0  0  0
    7.1027  -14.4559   27.1026 C   0  0  0  0  0  0  0  0  0  0  0  0
    6.4000  -13.5124   26.3588 C   0  0  0  0  0  0  0  0  0  0  0  0
   10.8250  -18.0932   28.2988 O   0  0  0  0  0  0  0  0  0  0  0  0
  2  1  1  0
  3  2  1  0
  4  3  1  0
  4  5  1  0
  5  6  1  1
  5  7  1  0
  7  8  2  0
 10  9  1  6
 11  7  1  0
 11 10  1  0
 12 10  1  0
 12 21  1  0
 13 12  2  0
 15 14  1  0
 16 15  2  0
 17 16  1  0
 18 24  1  0
 18 17  2  0
 19 18  1  0
 20 22  1  0
 20 21  1  0
 20 19  1  1
 22 23  1  0
 24 25  2  0
 25 15  1  0
 26 22  2  0
M  END
$$$$
