MAY.pdb
     RDKit          3D

 26 26  0  0  1  0  0  0  0  0999 V2000
    9.2246  -11.7382   20.7761 C   0  0  0  0  0  0  0  0  0  0  0  0
    7.9167  -12.2132   19.6137 S   0  0  0  0  0  0  0  0  0  0  0  0
    7.7511  -14.0282   19.7063 C   0  0  0  0  0  0  0  0  0  0  0  0
    7.8372  -14.5011   21.1355 C   0  0  0  0  0  0  0  0  0  0  0  0
    7.7998  -16.0141   21.1327 C   0  0  2  0  0  0  0  0  0  0  0  0
    6.6003  -16.4826   20.5198 N   0  0  0  0  0  0  0  0  0  0  0  0
    8.0905  -16.5760   22.4634 C   0  0  0  0  0  0  0  0  0  0  0  0
    7.1174  -16.7805   23.2294 O   0  0  0  0  0  0  0  0  0  0  0  0
   10.6982  -18.6350   24.0042 C   0  0  0  0  0  0  0  0  0  0  0  0
    9.6976  -17.5107   24.1619 C   0  0  2  0  0  0  0  0  0  0  0  0
    9.3943  -16.8821   22.8878 N   0  0  0  0  0  0  0  0  0  0  0  0
   10.1686  -16.5531   25.1662 C   0  0  0  0  0  0  0  0  0  0  0  0
   10.9295  -15.6344   24.8343 O   0  0  0  0  0  0  0  0  0  0  0  0
    5.9139  -11.7822   25.2069 O   0  0  0  0  0  0  0  0  0  0  0  0
    6.7173  -12.6243   25.9797 C   0  0  0  0  0  0  0  0  0  0  0  0
    6.4180  -13.9700   26.0946 C   0  0  0  0  0  0  0  0  0  0  0  0
    7.1878  -14.8264   26.8468 C   0  0  0  0  0  0  0  0  0  0  0  0
    8.3110  -14.3588   27.5277 C   0  0  0  0  0  0  0  0  0  0  0  0
    9.1428  -15.2383   28.3428 C   0  0  0  0  0  0  0  0  0  0  0  0
   10.2899  -15.8176   27.5315 C   0  0  2  0  0  0  0  0  0  0  0  0
    9.7320  -16.7111   26.5056 N   0  0  0  0  0  0  0  0  0  0  0  0
   11.2416  -16.6028   28.3186 C   0  0  0  0  0  0  0  0  0  0  0  0
   12.1276  -16.0074   29.2158 O   0  0  0  0  0  0  0  0  0  0  0  0
    8.6085  -13.0196   27.4134 C   0  0  0  0  0  0  0  0  0  0  0  0
    7.8275  -12.1555   26.6513 C   0  0  0  0  0  0  0  0  0  0  0  0
   11.3129  -17.8513   28.2287 O   0  0  0  0  0  0  0  0  0  0  0  0
  2  1  1  0
  3  2  1  0
  4  3  1  0
  4  5  1  0
  5  6  1  1
  5  7  1  0
  7  8  2  0
 10  9  1  6
 11  7  1  0
 11 10  1  0
 12 10  1  0
 12 21  1  0
 13 12  2  0
 15 14  1  0
 16 15  2  0
 17 16  1  0
 18 24  1  0
 18 17  2  0
 19 18  1  0
 20 22  1  0
 20 21  1  0
 20 19  1  1
 22 23  1  0
 24 25  2  0
 25 15  1  0
 26 22  2  0
M  END
$$$$
