MAY.pdb
     RDKit          3D

 26 26  0  0  1  0  0  0  0  0999 V2000
    7.6901  -12.0233   20.5054 C   0  0  0  0  0  0  0  0  0  0  0  0
    7.7156  -12.2665   18.7089 S   0  0  0  0  0  0  0  0  0  0  0  0
    7.6364  -14.0651   18.4108 C   0  0  0  0  0  0  0  0  0  0  0  0
    8.3520  -14.8204   19.5022 C   0  0  0  0  0  0  0  0  0  0  0  0
    8.3689  -16.2862   19.1258 C   0  0  2  0  0  0  0  0  0  0  0  0
    7.0595  -16.7252   18.7696 N   0  0  0  0  0  0  0  0  0  0  0  0
    9.0575  -17.1079   20.1365 C   0  0  0  0  0  0  0  0  0  0  0  0
    8.3573  -17.6044   21.0523 O   0  0  0  0  0  0  0  0  0  0  0  0
   12.5359  -18.4672   20.7175 C   0  0  0  0  0  0  0  0  0  0  0  0
   11.1687  -18.0063   21.1744 C   0  0  2  0  0  0  0  0  0  0  0  0
   10.4418  -17.3454   20.1042 N   0  0  0  0  0  0  0  0  0  0  0  0
   11.2918  -17.1719   22.3727 C   0  0  0  0  0  0  0  0  0  0  0  0
   10.9233  -15.9903   22.3429 O   0  0  0  0  0  0  0  0  0  0  0  0
   10.1521  -13.9533   30.1508 O   0  0  0  0  0  0  0  0  0  0  0  0
   10.2083  -14.6202   28.9245 C   0  0  0  0  0  0  0  0  0  0  0  0
   10.3581  -15.9947   28.8785 C   0  0  0  0  0  0  0  0  0  0  0  0
   10.4169  -16.6822   27.6886 C   0  0  0  0  0  0  0  0  0  0  0  0
   10.3260  -16.0060   26.4728 C   0  0  0  0  0  0  0  0  0  0  0  0
   10.3954  -16.7036   25.1929 C   0  0  0  0  0  0  0  0  0  0  0  0
   11.8366  -16.9577   24.7826 C   0  0  2  0  0  0  0  0  0  0  0  0
   11.8369  -17.7524   23.5455 N   0  0  0  0  0  0  0  0  0  0  0  0
   12.6182  -17.6984   25.7737 C   0  0  0  0  0  0  0  0  0  0  0  0
   12.4337  -19.0634   25.9906 O   0  0  0  0  0  0  0  0  0  0  0  0
   10.1771  -14.6381   26.5188 C   0  0  0  0  0  0  0  0  0  0  0  0
   10.1179  -13.9454   27.7246 C   0  0  0  0  0  0  0  0  0  0  0  0
   13.4940  -17.1469   26.4814 O   0  0  0  0  0  0  0  0  0  0  0  0
  2  1  1  0
  3  2  1  0
  4  3  1  0
  4  5  1  0
  5  6  1  1
  5  7  1  0
  7  8  2  0
 10  9  1  6
 11  7  1  0
 11 10  1  0
 12 10  1  0
 12 21  1  0
 13 12  2  0
 15 14  1  0
 16 15  2  0
 17 16  1  0
 18 24  1  0
 18 17  2  0
 19 18  1  0
 20 22  1  0
 20 21  1  0
 20 19  1  1
 22 23  1  0
 24 25  2  0
 25 15  1  0
 26 22  2  0
M  END
$$$$
