MAY.pdb
     RDKit          3D

 26 26  0  0  1  0  0  0  0  0999 V2000
    8.1680  -11.1984   19.2291 C   0  0  0  0  0  0  0  0  0  0  0  0
    7.6696  -12.7222   18.3825 S   0  0  0  0  0  0  0  0  0  0  0  0
    8.0435  -14.1079   19.5094 C   0  0  0  0  0  0  0  0  0  0  0  0
    7.5371  -13.8184   20.8999 C   0  0  0  0  0  0  0  0  0  0  0  0
    7.8269  -15.0252   21.7661 C   0  0  2  0  0  0  0  0  0  0  0  0
    7.2721  -16.2027   21.1834 N   0  0  0  0  0  0  0  0  0  0  0  0
    7.4714  -14.7905   23.1765 C   0  0  0  0  0  0  0  0  0  0  0  0
    6.5193  -14.0065   23.4098 O   0  0  0  0  0  0  0  0  0  0  0  0
    6.3247  -15.4407   25.8788 C   0  0  0  0  0  0  0  0  0  0  0  0
    7.8009  -15.2105   25.6375 C   0  0  2  0  0  0  0  0  0  0  0  0
    8.1514  -15.4052   24.2413 N   0  0  0  0  0  0  0  0  0  0  0  0
    8.5962  -16.0460   26.5413 C   0  0  0  0  0  0  0  0  0  0  0  0
    8.4447  -15.9481   27.7663 O   0  0  0  0  0  0  0  0  0  0  0  0
    4.8812  -20.8296   26.8560 O   0  0  0  0  0  0  0  0  0  0  0  0
    6.2157  -20.4189   26.8094 C   0  0  0  0  0  0  0  0  0  0  0  0
    6.7884  -20.0254   25.6131 C   0  0  0  0  0  0  0  0  0  0  0  0
    8.0988  -19.6155   25.5322 C   0  0  0  0  0  0  0  0  0  0  0  0
    8.9039  -19.5826   26.6700 C   0  0  0  0  0  0  0  0  0  0  0  0
   10.3006  -19.1631   26.6171 C   0  0  0  0  0  0  0  0  0  0  0  0
   10.4374  -17.6725   26.8802 C   0  0  2  0  0  0  0  0  0  0  0  0
    9.5276  -16.9533   25.9764 N   0  0  0  0  0  0  0  0  0  0  0  0
   11.7832  -17.1461   26.6492 C   0  0  0  0  0  0  0  0  0  0  0  0
   12.0511  -16.2161   25.6453 O   0  0  0  0  0  0  0  0  0  0  0  0
    8.3339  -19.9743   27.8603 C   0  0  0  0  0  0  0  0  0  0  0  0
    7.0074  -20.3887   27.9389 C   0  0  0  0  0  0  0  0  0  0  0  0
   12.7674  -17.5027   27.3394 O   0  0  0  0  0  0  0  0  0  0  0  0
  2  1  1  0
  3  2  1  0
  4  3  1  0
  4  5  1  0
  5  6  1  6
  5  7  1  0
  7  8  2  0
 10  9  1  6
 11  7  1  0
 11 10  1  0
 12 10  1  0
 12 21  1  0
 13 12  2  0
 15 14  1  0
 16 15  2  0
 17 16  1  0
 18 24  1  0
 18 17  2  0
 19 18  1  0
 20 22  1  0
 20 21  1  0
 20 19  1  6
 22 23  1  0
 24 25  2  0
 25 15  1  0
 26 22  2  0
M  END
$$$$
