MAY.pdb
     RDKit          3D

 26 26  0  0  1  0  0  0  0  0999 V2000
    7.7378  -13.1426   18.4928 C   0  0  0  0  0  0  0  0  0  0  0  0
    6.7361  -13.0064   19.9979 S   0  0  0  0  0  0  0  0  0  0  0  0
    6.7864  -14.6329   20.8239 C   0  0  0  0  0  0  0  0  0  0  0  0
    7.8795  -15.4942   20.2433 C   0  0  0  0  0  0  0  0  0  0  0  0
    7.9255  -16.7874   21.0282 C   0  0  2  0  0  0  0  0  0  0  0  0
    6.7923  -16.8899   21.8880 N   0  0  0  0  0  0  0  0  0  0  0  0
    9.2319  -16.9929   21.6777 C   0  0  0  0  0  0  0  0  0  0  0  0
    9.9284  -17.9591   21.2819 O   0  0  0  0  0  0  0  0  0  0  0  0
   11.9322  -15.1574   22.9701 C   0  0  0  0  0  0  0  0  0  0  0  0
   11.0141  -16.3085   23.3199 C   0  0  2  0  0  0  0  0  0  0  0  0
    9.7080  -16.1576   22.7022 N   0  0  0  0  0  0  0  0  0  0  0  0
   10.9359  -16.4675   24.7746 C   0  0  0  0  0  0  0  0  0  0  0  0
   11.9485  -16.3064   25.4686 O   0  0  0  0  0  0  0  0  0  0  0  0
    6.8535  -11.3198   25.5394 O   0  0  0  0  0  0  0  0  0  0  0  0
    7.1940  -12.6047   25.9696 C   0  0  0  0  0  0  0  0  0  0  0  0
    6.7391  -13.7181   25.2860 C   0  0  0  0  0  0  0  0  0  0  0  0
    7.0557  -14.9965   25.6823 C   0  0  0  0  0  0  0  0  0  0  0  0
    7.8570  -15.2147   26.8022 C   0  0  0  0  0  0  0  0  0  0  0  0
    8.2028  -16.5580   27.2558 C   0  0  0  0  0  0  0  0  0  0  0  0
    9.6037  -16.9448   26.8112 C   0  0  2  0  0  0  0  0  0  0  0  0
    9.6851  -16.8057   25.3497 N   0  0  0  0  0  0  0  0  0  0  0  0
    9.9747  -18.3225   27.1367 C   0  0  0  0  0  0  0  0  0  0  0  0
   10.2781  -18.7185   28.4388 O   0  0  0  0  0  0  0  0  0  0  0  0
    8.3094  -14.1066   27.4824 C   0  0  0  0  0  0  0  0  0  0  0  0
    7.9873  -12.8141   27.0787 C   0  0  0  0  0  0  0  0  0  0  0  0
   10.0411  -19.2202   26.2639 O   0  0  0  0  0  0  0  0  0  0  0  0
  2  1  1  0
  3  2  1  0
  4  3  1  0
  4  5  1  0
  5  6  1  1
  5  7  1  0
  7  8  2  0
 10  9  1  1
 11  7  1  0
 11 10  1  0
 12 10  1  0
 12 21  1  0
 13 12  2  0
 15 14  1  0
 16 15  2  0
 17 16  1  0
 18 24  1  0
 18 17  2  0
 19 18  1  0
 20 22  1  0
 20 21  1  0
 20 19  1  6
 22 23  1  0
 24 25  2  0
 25 15  1  0
 26 22  2  0
M  END
$$$$
