MAY.pdb
     RDKit          3D

 26 26  0  0  1  0  0  0  0  0999 V2000
    7.8367  -11.6135   17.8336 C   0  0  0  0  0  0  0  0  0  0  0  0
    6.9504  -13.1935   17.7594 S   0  0  0  0  0  0  0  0  0  0  0  0
    8.0956  -14.4789   18.3647 C   0  0  0  0  0  0  0  0  0  0  0  0
    9.2917  -13.8554   19.0389 C   0  0  0  0  0  0  0  0  0  0  0  0
   10.2360  -14.9672   19.4422 C   0  0  2  0  0  0  0  0  0  0  0  0
   10.5499  -15.7877   18.3187 N   0  0  0  0  0  0  0  0  0  0  0  0
    9.7629  -15.6870   20.6376 C   0  0  0  0  0  0  0  0  0  0  0  0
    9.4398  -14.9988   21.6363 O   0  0  0  0  0  0  0  0  0  0  0  0
    9.5914  -19.3061   21.7341 C   0  0  0  0  0  0  0  0  0  0  0  0
    9.3223  -17.8253   21.8925 C   0  0  2  0  0  0  0  0  0  0  0  0
    9.6654  -17.0876   20.6891 N   0  0  0  0  0  0  0  0  0  0  0  0
   10.0058  -17.3128   23.0833 C   0  0  0  0  0  0  0  0  0  0  0  0
   11.2313  -17.1378   23.0644 O   0  0  0  0  0  0  0  0  0  0  0  0
   11.2507  -14.4665   31.3219 O   0  0  0  0  0  0  0  0  0  0  0  0
   10.6717  -14.8071   30.0969 C   0  0  0  0  0  0  0  0  0  0  0  0
   10.2302  -16.0972   29.8630 C   0  0  0  0  0  0  0  0  0  0  0  0
    9.6557  -16.4658   28.6689 C   0  0  0  0  0  0  0  0  0  0  0  0
    9.4975  -15.5376   27.6408 C   0  0  0  0  0  0  0  0  0  0  0  0
    8.9019  -15.8982   26.3582 C   0  0  0  0  0  0  0  0  0  0  0  0
    9.9231  -16.5528   25.4424 C   0  0  2  0  0  0  0  0  0  0  0  0
    9.2308  -17.0294   24.2360 N   0  0  0  0  0  0  0  0  0  0  0  0
   10.6048  -17.7045   26.0344 C   0  0  0  0  0  0  0  0  0  0  0  0
   10.0164  -18.9678   26.0819 O   0  0  0  0  0  0  0  0  0  0  0  0
    9.9371  -14.2539   27.8736 C   0  0  0  0  0  0  0  0  0  0  0  0
   10.5180  -13.8840   29.0832 C   0  0  0  0  0  0  0  0  0  0  0  0
   11.7528  -17.6182   26.5313 O   0  0  0  0  0  0  0  0  0  0  0  0
  2  1  1  0
  3  2  1  0
  4  3  1  0
  4  5  1  0
  5  6  1  6
  5  7  1  0
  7  8  2  0
 10  9  1  6
 11  7  1  0
 11 10  1  0
 12 10  1  0
 12 21  1  0
 13 12  2  0
 15 14  1  0
 16 15  2  0
 17 16  1  0
 18 24  1  0
 18 17  2  0
 19 18  1  0
 20 22  1  0
 20 21  1  0
 20 19  1  1
 22 23  1  0
 24 25  2  0
 25 15  1  0
 26 22  2  0
M  END
$$$$
