MNQ.pdb
     RDKit          3D

 26 25  0  0  1  0  0  0  0  0999 V2000
    5.0786  -11.6605   26.2978 C   0  0  0  0  0  0  0  0  0  0  0  0
    6.5911  -12.6596   26.3164 S   0  0  0  0  0  0  0  0  0  0  0  0
    6.1721  -14.3696   26.8253 C   0  0  0  0  0  0  0  0  0  0  0  0
    5.5276  -15.1038   25.6793 C   0  0  0  0  0  0  0  0  0  0  0  0
    6.3069  -16.2557   25.1708 C   0  0  2  0  0  0  0  0  0  0  0  0
    7.3636  -16.5204   26.1858 N   0  0  0  0  0  0  0  0  0  0  0  0
    6.9823  -16.1243   23.8943 C   0  0  0  0  0  0  0  0  0  0  0  0
    7.0623  -17.1468   23.1214 O   0  0  0  0  0  0  0  0  0  0  0  0
    8.4954  -12.0851   19.5700 N   0  0  0  0  0  0  0  0  0  0  0  0
    8.0703  -13.3800   19.9750 C   0  0  0  0  0  0  0  0  0  0  0  0
    8.0459  -14.2726   19.1186 O   0  0  0  0  0  0  0  0  0  0  0  0
    7.6915  -13.5859   21.3556 C   0  0  0  0  0  0  0  0  0  0  0  0
    8.0928  -14.9204   21.9786 C   0  0  2  0  0  0  0  0  0  0  0  0
    7.5931  -14.9489   23.3604 N   0  0  0  0  0  0  0  0  0  0  0  0
    9.5452  -15.1573   21.9461 C   0  0  0  0  0  0  0  0  0  0  0  0
   10.3323  -14.2847   21.5067 O   0  0  0  0  0  0  0  0  0  0  0  0
   10.5033  -13.9990   26.6320 N   0  0  0  0  0  0  0  0  0  0  0  0
   10.6824  -15.4009   26.7808 C   0  0  0  0  0  0  0  0  0  0  0  0
   10.4627  -15.8834   27.9260 O   0  0  0  0  0  0  0  0  0  0  0  0
   11.1077  -16.2567   25.6441 C   0  0  0  0  0  0  0  0  0  0  0  0
   11.2775  -15.4440   24.3812 C   0  0  0  0  0  0  0  0  0  0  0  0
   11.3657  -16.3147   23.1511 C   0  0  2  0  0  0  0  0  0  0  0  0
   10.1627  -16.3552   22.3964 N   0  0  0  0  0  0  0  0  0  0  0  0
   11.8450  -17.6524   23.5753 C   0  0  0  0  0  0  0  0  0  0  0  0
   12.9571  -17.8785   24.1140 O   0  0  0  0  0  0  0  0  0  0  0  0
   11.0129  -18.7422   23.3672 O   0  0  0  0  0  0  0  0  0  0  0  0
  2  1  1  0
  3  2  1  0
  4  5  1  0
  4  3  1  0
  5  7  1  0
  5  6  1  1
  7  8  2  0
 10  9  1  0
 11 10  2  0
 13 12  1  1
 12 10  1  0
 14  7  1  0
 14 13  1  0
 15 13  1  0
 15 16  2  0
 18 17  1  0
 18 19  2  0
 20 21  1  0
 20 18  1  0
 22 21  1  1
 22 23  1  0
 22 24  1  0
 23 15  1  0
 24 25  2  0
 24 26  1  0
M  END
$$$$
