MNQ.pdb
     RDKit          3D

 26 25  0  0  1  0  0  0  0  0999 V2000
    7.9706  -11.6549   26.1491 C   0  0  0  0  0  0  0  0  0  0  0  0
    6.2236  -12.1199   26.0155 S   0  0  0  0  0  0  0  0  0  0  0  0
    6.0668  -13.5291   24.8545 C   0  0  0  0  0  0  0  0  0  0  0  0
    7.1186  -14.5637   25.1567 C   0  0  0  0  0  0  0  0  0  0  0  0
    7.0841  -15.7519   24.2737 C   0  0  2  0  0  0  0  0  0  0  0  0
    5.7748  -16.4152   24.5239 N   0  0  0  0  0  0  0  0  0  0  0  0
    8.1032  -16.7696   24.4438 C   0  0  0  0  0  0  0  0  0  0  0  0
    7.9337  -17.6814   25.3322 O   0  0  0  0  0  0  0  0  0  0  0  0
   11.0044  -20.6704   23.3660 N   0  0  0  0  0  0  0  0  0  0  0  0
   11.3563  -19.6855   22.4030 C   0  0  0  0  0  0  0  0  0  0  0  0
   11.9677  -20.0584   21.3941 O   0  0  0  0  0  0  0  0  0  0  0  0
   10.9846  -18.3096   22.6498 C   0  0  0  0  0  0  0  0  0  0  0  0
   10.2268  -18.0323   23.9455 C   0  0  2  0  0  0  0  0  0  0  0  0
    9.3238  -16.8963   23.7132 N   0  0  0  0  0  0  0  0  0  0  0  0
   11.1168  -17.7640   25.0868 C   0  0  0  0  0  0  0  0  0  0  0  0
   11.9850  -16.8602   25.0304 O   0  0  0  0  0  0  0  0  0  0  0  0
   10.8392  -13.9229   27.9969 N   0  0  0  0  0  0  0  0  0  0  0  0
   10.5807  -14.9952   28.8931 C   0  0  0  0  0  0  0  0  0  0  0  0
   10.3271  -14.6865   30.0902 O   0  0  0  0  0  0  0  0  0  0  0  0
   10.6076  -16.4101   28.4431 C   0  0  0  0  0  0  0  0  0  0  0  0
   11.9432  -16.7639   27.8307 C   0  0  0  0  0  0  0  0  0  0  0  0
   11.9911  -18.1966   27.3572 C   0  0  2  0  0  0  0  0  0  0  0  0
   11.0706  -18.4807   26.3129 N   0  0  0  0  0  0  0  0  0  0  0  0
   11.8312  -19.0722   28.5432 C   0  0  0  0  0  0  0  0  0  0  0  0
   12.6040  -19.0870   29.5335 O   0  0  0  0  0  0  0  0  0  0  0  0
   10.7526  -19.9435   28.5730 O   0  0  0  0  0  0  0  0  0  0  0  0
  2  1  1  0
  3  2  1  0
  4  5  1  0
  4  3  1  0
  5  7  1  0
  5  6  1  1
  7  8  2  0
 10  9  1  0
 11 10  2  0
 13 12  1  6
 12 10  1  0
 14  7  1  0
 14 13  1  0
 15 13  1  0
 15 16  2  0
 18 17  1  0
 18 19  2  0
 20 21  1  0
 20 18  1  0
 22 21  1  1
 22 23  1  0
 22 24  1  0
 23 15  1  0
 24 25  2  0
 24 26  1  0
M  END
$$$$
