MNQ.pdb
     RDKit          3D

 26 25  0  0  1  0  0  0  0  0999 V2000
    7.0396  -12.6015   26.4456 C   0  0  0  0  0  0  0  0  0  0  0  0
    7.7123  -12.5483   24.7632 S   0  0  0  0  0  0  0  0  0  0  0  0
    6.6590  -13.5700   23.6653 C   0  0  0  0  0  0  0  0  0  0  0  0
    7.1225  -13.4370   22.2386 C   0  0  0  0  0  0  0  0  0  0  0  0
    7.4624  -14.7191   21.5803 C   0  0  2  0  0  0  0  0  0  0  0  0
    6.1853  -15.4759   21.4647 N   0  0  0  0  0  0  0  0  0  0  0  0
    8.4094  -15.6021   22.2334 C   0  0  0  0  0  0  0  0  0  0  0  0
    7.9684  -16.5469   22.9832 O   0  0  0  0  0  0  0  0  0  0  0  0
   12.5050  -19.2614   21.0243 N   0  0  0  0  0  0  0  0  0  0  0  0
   12.6175  -18.0603   21.7766 C   0  0  0  0  0  0  0  0  0  0  0  0
   13.5098  -17.9971   22.6314 O   0  0  0  0  0  0  0  0  0  0  0  0
   11.6911  -16.9829   21.5066 C   0  0  0  0  0  0  0  0  0  0  0  0
   10.6548  -16.6905   22.5885 C   0  0  2  0  0  0  0  0  0  0  0  0
    9.8339  -15.5565   22.1412 N   0  0  0  0  0  0  0  0  0  0  0  0
   11.2572  -16.4101   23.9020 C   0  0  0  0  0  0  0  0  0  0  0  0
   11.6153  -15.2488   24.2136 O   0  0  0  0  0  0  0  0  0  0  0  0
   10.2508  -13.4122   28.9859 N   0  0  0  0  0  0  0  0  0  0  0  0
   10.0861  -14.8177   28.8558 C   0  0  0  0  0  0  0  0  0  0  0  0
    9.0021  -15.3044   29.2808 O   0  0  0  0  0  0  0  0  0  0  0  0
   11.1382  -15.6725   28.2494 C   0  0  0  0  0  0  0  0  0  0  0  0
   10.7732  -16.0703   26.8378 C   0  0  0  0  0  0  0  0  0  0  0  0
   11.7762  -17.0260   26.2380 C   0  0  2  0  0  0  0  0  0  0  0  0
   11.4769  -17.3975   24.8998 N   0  0  0  0  0  0  0  0  0  0  0  0
   11.9092  -18.1810   27.1585 C   0  0  0  0  0  0  0  0  0  0  0  0
   11.2785  -19.2620   27.0492 O   0  0  0  0  0  0  0  0  0  0  0  0
   12.7920  -18.0720   28.2225 O   0  0  0  0  0  0  0  0  0  0  0  0
  2  1  1  0
  3  2  1  0
  4  5  1  0
  4  3  1  0
  5  7  1  0
  5  6  1  1
  7  8  2  0
 10  9  1  0
 11 10  2  0
 13 12  1  6
 12 10  1  0
 14  7  1  0
 14 13  1  0
 15 13  1  0
 15 16  2  0
 18 17  1  0
 18 19  2  0
 20 21  1  0
 20 18  1  0
 22 21  1  1
 22 23  1  0
 22 24  1  0
 23 15  1  0
 24 25  2  0
 24 26  1  0
M  END
$$$$
