MNQ.pdb
     RDKit          3D

 26 25  0  0  1  0  0  0  0  0999 V2000
    7.5976  -11.3784   26.1915 C   0  0  0  0  0  0  0  0  0  0  0  0
    6.2396  -12.4633   26.7064 S   0  0  0  0  0  0  0  0  0  0  0  0
    5.9232  -13.6935   25.3853 C   0  0  0  0  0  0  0  0  0  0  0  0
    7.1533  -14.5320   25.1583 C   0  0  0  0  0  0  0  0  0  0  0  0
    7.0317  -15.5176   24.0598 C   0  0  2  0  0  0  0  0  0  0  0  0
    6.0697  -16.5499   24.5352 N   0  0  0  0  0  0  0  0  0  0  0  0
    8.2222  -16.2266   23.6320 C   0  0  0  0  0  0  0  0  0  0  0  0
    8.4246  -17.4215   24.0570 O   0  0  0  0  0  0  0  0  0  0  0  0
   12.4313  -17.6796   20.1889 N   0  0  0  0  0  0  0  0  0  0  0  0
   12.4827  -16.5194   21.0089 C   0  0  0  0  0  0  0  0  0  0  0  0
   13.5964  -16.1111   21.3607 O   0  0  0  0  0  0  0  0  0  0  0  0
   11.2410  -15.8811   21.3868 C   0  0  0  0  0  0  0  0  0  0  0  0
   10.4845  -16.5052   22.5565 C   0  0  2  0  0  0  0  0  0  0  0  0
    9.2417  -15.7463   22.7547 N   0  0  0  0  0  0  0  0  0  0  0  0
   11.2741  -16.5432   23.7982 C   0  0  0  0  0  0  0  0  0  0  0  0
   12.3597  -17.1695   23.8544 O   0  0  0  0  0  0  0  0  0  0  0  0
   11.1777  -16.0177   31.1456 N   0  0  0  0  0  0  0  0  0  0  0  0
   11.0164  -15.3632   29.8945 C   0  0  0  0  0  0  0  0  0  0  0  0
   10.2162  -14.3879   29.8626 O   0  0  0  0  0  0  0  0  0  0  0  0
   11.7534  -15.8053   28.6834 C   0  0  0  0  0  0  0  0  0  0  0  0
   10.9414  -15.5660   27.4314 C   0  0  0  0  0  0  0  0  0  0  0  0
   11.6500  -16.0541   26.1910 C   0  0  2  0  0  0  0  0  0  0  0  0
   10.8893  -15.8934   25.0019 N   0  0  0  0  0  0  0  0  0  0  0  0
   12.0812  -17.4518   26.4349 C   0  0  0  0  0  0  0  0  0  0  0  0
   11.3233  -18.4530   26.3991 O   0  0  0  0  0  0  0  0  0  0  0  0
   13.4174  -17.6835   26.7248 O   0  0  0  0  0  0  0  0  0  0  0  0
  2  1  1  0
  3  2  1  0
  4  5  1  0
  4  3  1  0
  5  7  1  0
  5  6  1  1
  7  8  2  0
 10  9  1  0
 11 10  2  0
 13 12  1  6
 12 10  1  0
 14  7  1  0
 14 13  1  0
 15 13  1  0
 15 16  2  0
 18 17  1  0
 18 19  2  0
 20 21  1  0
 20 18  1  0
 22 21  1  1
 22 23  1  0
 22 24  1  0
 23 15  1  0
 24 25  2  0
 24 26  1  0
M  END
$$$$
