MNQ.pdb
     RDKit          3D

 26 25  0  0  1  0  0  0  0  0999 V2000
    7.8911  -11.8946   27.0893 C   0  0  0  0  0  0  0  0  0  0  0  0
    6.1711  -12.4422   26.9222 S   0  0  0  0  0  0  0  0  0  0  0  0
    6.1344  -14.0256   26.0003 C   0  0  0  0  0  0  0  0  0  0  0  0
    6.7686  -13.8468   24.6461 C   0  0  0  0  0  0  0  0  0  0  0  0
    6.7381  -15.0537   23.7885 C   0  0  2  0  0  0  0  0  0  0  0  0
    6.3742  -16.1872   24.6827 N   0  0  0  0  0  0  0  0  0  0  0  0
    7.9532  -15.4433   23.0996 C   0  0  0  0  0  0  0  0  0  0  0  0
    8.5359  -14.5945   22.3319 O   0  0  0  0  0  0  0  0  0  0  0  0
    9.5832  -16.8969   18.7184 N   0  0  0  0  0  0  0  0  0  0  0  0
    8.9693  -16.7905   19.9964 C   0  0  0  0  0  0  0  0  0  0  0  0
    7.8217  -17.2350   20.1233 O   0  0  0  0  0  0  0  0  0  0  0  0
    9.7115  -16.1734   21.0736 C   0  0  0  0  0  0  0  0  0  0  0  0
    9.8190  -16.9725   22.3697 C   0  0  2  0  0  0  0  0  0  0  0  0
    8.6176  -16.7054   23.1729 N   0  0  0  0  0  0  0  0  0  0  0  0
   11.0366  -16.6637   23.1371 C   0  0  0  0  0  0  0  0  0  0  0  0
   12.1492  -16.5561   22.5674 O   0  0  0  0  0  0  0  0  0  0  0  0
   11.2228  -13.6747   28.5635 N   0  0  0  0  0  0  0  0  0  0  0  0
   11.0227  -15.0780   28.6650 C   0  0  0  0  0  0  0  0  0  0  0  0
   10.5126  -15.5030   29.7382 O   0  0  0  0  0  0  0  0  0  0  0  0
   11.3955  -15.9997   27.5619 C   0  0  0  0  0  0  0  0  0  0  0  0
   12.0580  -15.2540   26.4265 C   0  0  0  0  0  0  0  0  0  0  0  0
   12.2643  -16.1292   25.2139 C   0  0  2  0  0  0  0  0  0  0  0  0
   11.0573  -16.4652   24.5439 N   0  0  0  0  0  0  0  0  0  0  0  0
   13.0568  -17.3095   25.6356 C   0  0  0  0  0  0  0  0  0  0  0  0
   14.2435  -17.2676   26.0456 O   0  0  0  0  0  0  0  0  0  0  0  0
   12.4544  -18.5574   25.5775 O   0  0  0  0  0  0  0  0  0  0  0  0
  2  1  1  0
  3  2  1  0
  4  5  1  0
  4  3  1  0
  5  7  1  0
  5  6  1  1
  7  8  2  0
 10  9  1  0
 11 10  2  0
 13 12  1  6
 12 10  1  0
 14  7  1  0
 14 13  1  0
 15 13  1  0
 15 16  2  0
 18 17  1  0
 18 19  2  0
 20 21  1  0
 20 18  1  0
 22 21  1  1
 22 23  1  0
 22 24  1  0
 23 15  1  0
 24 25  2  0
 24 26  1  0
M  END
$$$$
