MNQ.pdb
     RDKit          3D

 26 25  0  0  1  0  0  0  0  0999 V2000
    7.9520  -11.4651   20.7717 C   0  0  0  0  0  0  0  0  0  0  0  0
    7.9575  -12.7210   19.4645 S   0  0  0  0  0  0  0  0  0  0  0  0
    6.6980  -13.9943   19.8532 C   0  0  0  0  0  0  0  0  0  0  0  0
    7.2210  -14.9284   20.9123 C   0  0  0  0  0  0  0  0  0  0  0  0
    8.2567  -15.8755   20.4400 C   0  0  2  0  0  0  0  0  0  0  0  0
    7.5415  -16.9003   19.6305 N   0  0  0  0  0  0  0  0  0  0  0  0
    9.0355  -16.5974   21.4275 C   0  0  0  0  0  0  0  0  0  0  0  0
    8.5299  -17.6395   21.9824 O   0  0  0  0  0  0  0  0  0  0  0  0
   12.7790  -19.3655   23.8438 N   0  0  0  0  0  0  0  0  0  0  0  0
   13.2856  -18.1356   23.3418 C   0  0  0  0  0  0  0  0  0  0  0  0
   14.4198  -17.7917   23.6967 O   0  0  0  0  0  0  0  0  0  0  0  0
   12.4563  -17.3560   22.4493 C   0  0  0  0  0  0  0  0  0  0  0  0
   11.0172  -17.1137   22.8969 C   0  0  2  0  0  0  0  0  0  0  0  0
   10.3545  -16.2867   21.8787 N   0  0  0  0  0  0  0  0  0  0  0  0
   10.9255  -16.4795   24.2221 C   0  0  0  0  0  0  0  0  0  0  0  0
   11.6159  -15.4707   24.5045 O   0  0  0  0  0  0  0  0  0  0  0  0
    9.1045  -13.2479   27.4676 N   0  0  0  0  0  0  0  0  0  0  0  0
    8.1987  -13.6273   26.4403 C   0  0  0  0  0  0  0  0  0  0  0  0
    7.6146  -12.6934   25.8245 O   0  0  0  0  0  0  0  0  0  0  0  0
    7.9514  -15.0533   26.1074 C   0  0  0  0  0  0  0  0  0  0  0  0
    8.6978  -15.9717   27.0474 C   0  0  0  0  0  0  0  0  0  0  0  0
   10.0776  -16.3100   26.5369 C   0  0  2  0  0  0  0  0  0  0  0  0
   10.0735  -16.9383   25.2626 N   0  0  0  0  0  0  0  0  0  0  0  0
   10.7684  -17.0994   27.5851 C   0  0  0  0  0  0  0  0  0  0  0  0
   11.2039  -18.2679   27.4331 O   0  0  0  0  0  0  0  0  0  0  0  0
   10.9534  -16.5152   28.8292 O   0  0  0  0  0  0  0  0  0  0  0  0
  2  1  1  0
  3  2  1  0
  4  5  1  0
  4  3  1  0
  5  7  1  0
  5  6  1  6
  7  8  2  0
 10  9  1  0
 11 10  2  0
 13 12  1  6
 12 10  1  0
 14  7  1  0
 14 13  1  0
 15 13  1  0
 15 16  2  0
 18 17  1  0
 18 19  2  0
 20 21  1  0
 20 18  1  0
 22 21  1  1
 22 23  1  0
 22 24  1  0
 23 15  1  0
 24 25  2  0
 24 26  1  0
M  END
$$$$
