MNQ.pdb
     RDKit          3D

 26 25  0  0  1  0  0  0  0  0999 V2000
    8.5630  -11.3801   19.2043 C   0  0  0  0  0  0  0  0  0  0  0  0
    7.0714  -12.3927   19.3933 S   0  0  0  0  0  0  0  0  0  0  0  0
    7.5621  -14.1079   19.8126 C   0  0  0  0  0  0  0  0  0  0  0  0
    8.9147  -14.1084   20.4748 C   0  0  0  0  0  0  0  0  0  0  0  0
    9.3616  -15.4342   20.9597 C   0  0  2  0  0  0  0  0  0  0  0  0
    8.7188  -16.4388   20.0683 N   0  0  0  0  0  0  0  0  0  0  0  0
    9.0361  -15.8189   22.3196 C   0  0  0  0  0  0  0  0  0  0  0  0
    9.5069  -15.1278   23.2942 O   0  0  0  0  0  0  0  0  0  0  0  0
    7.0687  -17.9657   26.6981 N   0  0  0  0  0  0  0  0  0  0  0  0
    6.5865  -18.7238   25.5963 C   0  0  0  0  0  0  0  0  0  0  0  0
    5.8088  -19.6562   25.8344 O   0  0  0  0  0  0  0  0  0  0  0  0
    7.0259  -18.3694   24.2646 C   0  0  0  0  0  0  0  0  0  0  0  0
    7.9808  -17.1834   24.1572 C   0  0  2  0  0  0  0  0  0  0  0  0
    8.2179  -16.9144   22.7320 N   0  0  0  0  0  0  0  0  0  0  0  0
    9.2534  -17.4031   24.8635 C   0  0  0  0  0  0  0  0  0  0  0  0
    9.6729  -16.5781   25.7105 O   0  0  0  0  0  0  0  0  0  0  0  0
   10.6030  -21.0323   28.9463 N   0  0  0  0  0  0  0  0  0  0  0  0
    9.7906  -19.8892   28.7166 C   0  0  0  0  0  0  0  0  0  0  0  0
    8.9038  -19.6398   29.5792 O   0  0  0  0  0  0  0  0  0  0  0  0
    9.9758  -19.0297   27.5198 C   0  0  0  0  0  0  0  0  0  0  0  0
   11.1020  -19.5387   26.6500 C   0  0  0  0  0  0  0  0  0  0  0  0
   11.2841  -18.7021   25.4066 C   0  0  2  0  0  0  0  0  0  0  0  0
   10.0898  -18.5329   24.6559 N   0  0  0  0  0  0  0  0  0  0  0  0
   12.3984  -19.2891   24.6238 C   0  0  0  0  0  0  0  0  0  0  0  0
   12.2808  -19.8063   23.4850 O   0  0  0  0  0  0  0  0  0  0  0  0
   13.6691  -19.2716   25.1793 O   0  0  0  0  0  0  0  0  0  0  0  0
  2  1  1  0
  3  2  1  0
  4  5  1  0
  4  3  1  0
  5  7  1  0
  5  6  1  6
  7  8  2  0
 10  9  1  0
 11 10  2  0
 13 12  1  6
 12 10  1  0
 14  7  1  0
 14 13  1  0
 15 13  1  0
 15 16  2  0
 18 17  1  0
 18 19  2  0
 20 21  1  0
 20 18  1  0
 22 21  1  1
 22 23  1  0
 22 24  1  0
 23 15  1  0
 24 25  2  0
 24 26  1  0
M  END
$$$$
