MNQ.pdb
     RDKit          3D

 26 25  0  0  1  0  0  0  0  0999 V2000
   59.3985   13.7019   15.7896 C   0  0  0  0  0  0  0  0  0  0  0  0
   61.1941   13.4852   15.6669 S   0  0  0  0  0  0  0  0  0  0  0  0
   61.8099   12.7117   17.2100 C   0  0  0  0  0  0  0  0  0  0  0  0
   61.8052   13.7204   18.3281 C   0  0  0  0  0  0  0  0  0  0  0  0
   62.0600   13.1510   19.6711 C   0  0  2  0  0  0  0  0  0  0  0  0
   61.7310   11.7021   19.5752 N   0  0  0  0  0  0  0  0  0  0  0  0
   61.3093   13.6725   20.7970 C   0  0  0  0  0  0  0  0  0  0  0  0
   60.0275   13.5941   20.7836 O   0  0  0  0  0  0  0  0  0  0  0  0
   66.2515   13.2354   20.2786 N   0  0  0  0  0  0  0  0  0  0  0  0
   65.3874   13.2020   21.4071 C   0  0  0  0  0  0  0  0  0  0  0  0
   65.8932   12.9784   22.5139 O   0  0  0  0  0  0  0  0  0  0  0  0
   63.9733   13.4291   21.2054 C   0  0  0  0  0  0  0  0  0  0  0  0
   63.2878   14.3674   22.1952 C   0  0  2  0  0  0  0  0  0  0  0  0
   61.8372   14.2851   21.9742 N   0  0  0  0  0  0  0  0  0  0  0  0
   63.7523   15.7598   22.0849 C   0  0  0  0  0  0  0  0  0  0  0  0
   64.8800   16.1006   22.5165 O   0  0  0  0  0  0  0  0  0  0  0  0
   64.9927   20.8642   20.1938 N   0  0  0  0  0  0  0  0  0  0  0  0
   63.9380   21.0318   21.1314 C   0  0  0  0  0  0  0  0  0  0  0  0
   63.2994   22.1191   21.0797 O   0  0  0  0  0  0  0  0  0  0  0  0
   63.6034   19.9791   22.1239 C   0  0  0  0  0  0  0  0  0  0  0  0
   62.3994   19.1774   21.6859 C   0  0  0  0  0  0  0  0  0  0  0  0
   62.3763   17.8004   22.3043 C   0  0  2  0  0  0  0  0  0  0  0  0
   62.9899   16.8051   21.4974 N   0  0  0  0  0  0  0  0  0  0  0  0
   60.9723   17.4885   22.6655 C   0  0  0  0  0  0  0  0  0  0  0  0
   60.3883   16.4068   22.4069 O   0  0  0  0  0  0  0  0  0  0  0  0
   60.2395   18.4544   23.3389 O   0  0  0  0  0  0  0  0  0  0  0  0
  2  1  1  0
  3  2  1  0
  4  5  1  0
  4  3  1  0
  5  7  1  0
  5  6  1  6
  7  8  2  0
 10  9  1  0
 11 10  2  0
 13 12  1  6
 12 10  1  0
 14  7  1  0
 14 13  1  0
 15 13  1  0
 15 16  2  0
 18 17  1  0
 18 19  2  0
 20 21  1  0
 20 18  1  0
 22 21  1  6
 22 23  1  0
 22 24  1  0
 23 15  1  0
 24 25  2  0
 24 26  1  0
M  END
$$$$
