MNQ.pdb
     RDKit          3D

 26 25  0  0  1  0  0  0  0  0999 V2000
    7.6355  -11.4966   26.9364 C   0  0  0  0  0  0  0  0  0  0  0  0
    5.8927  -11.9434   26.7141 S   0  0  0  0  0  0  0  0  0  0  0  0
    5.7677  -13.2418   25.4269 C   0  0  0  0  0  0  0  0  0  0  0  0
    6.5185  -14.4722   25.8632 C   0  0  0  0  0  0  0  0  0  0  0  0
    6.3218  -15.6538   24.9925 C   0  0  2  0  0  0  0  0  0  0  0  0
    6.6378  -16.8427   25.8313 N   0  0  0  0  0  0  0  0  0  0  0  0
    7.1259  -15.7689   23.7911 C   0  0  0  0  0  0  0  0  0  0  0  0
    6.5416  -15.7894   22.6477 O   0  0  0  0  0  0  0  0  0  0  0  0
    7.3913  -12.8997   20.5862 N   0  0  0  0  0  0  0  0  0  0  0  0
    7.9084  -14.1854   20.9036 C   0  0  0  0  0  0  0  0  0  0  0  0
    7.4430  -15.1593   20.2988 O   0  0  0  0  0  0  0  0  0  0  0  0
    8.9433  -14.2885   21.9087 C   0  0  0  0  0  0  0  0  0  0  0  0
    9.2463  -15.6905   22.4309 C   0  0  2  0  0  0  0  0  0  0  0  0
    8.5489  -15.8617   23.7132 N   0  0  0  0  0  0  0  0  0  0  0  0
   10.6873  -15.9488   22.5843 C   0  0  0  0  0  0  0  0  0  0  0  0
   11.5095  -15.5543   21.7227 O   0  0  0  0  0  0  0  0  0  0  0  0
   11.9711  -16.6071   28.6133 N   0  0  0  0  0  0  0  0  0  0  0  0
   11.0474  -15.7743   27.9256 C   0  0  0  0  0  0  0  0  0  0  0  0
   10.1790  -15.1874   28.6286 O   0  0  0  0  0  0  0  0  0  0  0  0
   11.1011  -15.6029   26.4515 C   0  0  0  0  0  0  0  0  0  0  0  0
   12.3181  -16.2811   25.8660 C   0  0  0  0  0  0  0  0  0  0  0  0
   12.3901  -16.1262   24.3661 C   0  0  2  0  0  0  0  0  0  0  0  0
   11.2547  -16.6433   23.6864 N   0  0  0  0  0  0  0  0  0  0  0  0
   13.6729  -16.7143   23.9101 C   0  0  0  0  0  0  0  0  0  0  0  0
   14.8068  -16.3791   24.3344 O   0  0  0  0  0  0  0  0  0  0  0  0
   13.6306  -17.7086   22.9442 O   0  0  0  0  0  0  0  0  0  0  0  0
  2  1  1  0
  3  2  1  0
  4  5  1  0
  4  3  1  0
  5  7  1  0
  5  6  1  1
  7  8  2  0
 10  9  1  0
 11 10  2  0
 13 12  1  1
 12 10  1  0
 14  7  1  0
 14 13  1  0
 15 13  1  0
 15 16  2  0
 18 17  1  0
 18 19  2  0
 20 21  1  0
 20 18  1  0
 22 21  1  1
 22 23  1  0
 22 24  1  0
 23 15  1  0
 24 25  2  0
 24 26  1  0
M  END
$$$$
