MNQ.pdb
     RDKit          3D

 26 25  0  0  1  0  0  0  0  0999 V2000
    7.1164  -11.1678   26.2914 C   0  0  0  0  0  0  0  0  0  0  0  0
    6.2659  -12.4657   27.2285 S   0  0  0  0  0  0  0  0  0  0  0  0
    5.7379  -13.7880   26.0746 C   0  0  0  0  0  0  0  0  0  0  0  0
    6.9431  -14.5178   25.5429 C   0  0  0  0  0  0  0  0  0  0  0  0
    6.6404  -15.5331   24.5083 C   0  0  2  0  0  0  0  0  0  0  0  0
    5.9159  -16.6310   25.2060 N   0  0  0  0  0  0  0  0  0  0  0  0
    7.7456  -16.1503   23.8008 C   0  0  0  0  0  0  0  0  0  0  0  0
    8.2861  -17.2087   24.2876 O   0  0  0  0  0  0  0  0  0  0  0  0
   10.4457  -17.7619   18.9922 N   0  0  0  0  0  0  0  0  0  0  0  0
   10.6958  -16.6099   19.7870 C   0  0  0  0  0  0  0  0  0  0  0  0
   11.8486  -16.1611   19.8048 O   0  0  0  0  0  0  0  0  0  0  0  0
    9.5991  -16.0265   20.5278 C   0  0  0  0  0  0  0  0  0  0  0  0
    9.4860  -16.4212   21.9980 C   0  0  2  0  0  0  0  0  0  0  0  0
    8.3330  -15.7149   22.5740 N   0  0  0  0  0  0  0  0  0  0  0  0
   10.7082  -16.1346   22.7667 C   0  0  0  0  0  0  0  0  0  0  0  0
   11.0128  -14.9587   23.0808 O   0  0  0  0  0  0  0  0  0  0  0  0
   12.2504  -17.4724   28.1731 N   0  0  0  0  0  0  0  0  0  0  0  0
   11.6244  -18.3588   27.2555 C   0  0  0  0  0  0  0  0  0  0  0  0
   10.9785  -19.3243   27.7489 O   0  0  0  0  0  0  0  0  0  0  0  0
   11.7252  -18.1592   25.7874 C   0  0  0  0  0  0  0  0  0  0  0  0
   12.5803  -16.9577   25.4564 C   0  0  0  0  0  0  0  0  0  0  0  0
   12.7672  -16.7843   23.9684 C   0  0  2  0  0  0  0  0  0  0  0  0
   11.6191  -17.1321   23.2073 N   0  0  0  0  0  0  0  0  0  0  0  0
   13.9877  -17.5287   23.5745 C   0  0  0  0  0  0  0  0  0  0  0  0
   14.0125  -18.4887   22.7646 O   0  0  0  0  0  0  0  0  0  0  0  0
   15.1973  -17.1461   24.1347 O   0  0  0  0  0  0  0  0  0  0  0  0
  2  1  1  0
  3  2  1  0
  4  5  1  0
  4  3  1  0
  5  7  1  0
  5  6  1  1
  7  8  2  0
 10  9  1  0
 11 10  2  0
 13 12  1  6
 12 10  1  0
 14  7  1  0
 14 13  1  0
 15 13  1  0
 15 16  2  0
 18 17  1  0
 18 19  2  0
 20 21  1  0
 20 18  1  0
 22 21  1  1
 22 23  1  0
 22 24  1  0
 23 15  1  0
 24 25  2  0
 24 26  1  0
M  END
$$$$
