MNQ.pdb
     RDKit          3D

 26 25  0  0  1  0  0  0  0  0999 V2000
    8.7597  -11.8970   20.0897 C   0  0  0  0  0  0  0  0  0  0  0  0
    7.8005  -12.7036   18.7799 S   0  0  0  0  0  0  0  0  0  0  0  0
    8.8097  -14.0407   18.0366 C   0  0  0  0  0  0  0  0  0  0  0  0
    9.5917  -14.7516   19.1094 C   0  0  0  0  0  0  0  0  0  0  0  0
    9.7356  -16.2106   18.9011 C   0  0  2  0  0  0  0  0  0  0  0  0
    8.3827  -16.7110   18.5321 N   0  0  0  0  0  0  0  0  0  0  0  0
   10.1905  -17.0260   20.0107 C   0  0  0  0  0  0  0  0  0  0  0  0
    9.3427  -17.7627   20.6335 O   0  0  0  0  0  0  0  0  0  0  0  0
   12.9697  -19.8308   23.4770 N   0  0  0  0  0  0  0  0  0  0  0  0
   13.7602  -19.5430   22.3309 C   0  0  0  0  0  0  0  0  0  0  0  0
   14.8531  -20.1135   22.2264 O   0  0  0  0  0  0  0  0  0  0  0  0
   13.2507  -18.6061   21.3538 C   0  0  0  0  0  0  0  0  0  0  0  0
   11.8478  -18.0589   21.6040 C   0  0  2  0  0  0  0  0  0  0  0  0
   11.5216  -17.1228   20.5191 N   0  0  0  0  0  0  0  0  0  0  0  0
   11.7108  -17.4036   22.9149 C   0  0  0  0  0  0  0  0  0  0  0  0
   11.9898  -16.1893   23.0623 O   0  0  0  0  0  0  0  0  0  0  0  0
    7.6915  -14.6239   24.1398 N   0  0  0  0  0  0  0  0  0  0  0  0
    7.4083  -16.0158   24.1837 C   0  0  0  0  0  0  0  0  0  0  0  0
    6.2299  -16.3651   23.8975 O   0  0  0  0  0  0  0  0  0  0  0  0
    8.4483  -17.0111   24.5485 C   0  0  0  0  0  0  0  0  0  0  0  0
    9.7450  -16.3335   24.9272 C   0  0  0  0  0  0  0  0  0  0  0  0
   10.8410  -17.3275   25.2265 C   0  0  2  0  0  0  0  0  0  0  0  0
   11.2635  -18.0668   24.0893 N   0  0  0  0  0  0  0  0  0  0  0  0
   10.3862  -18.1792   26.3521 C   0  0  0  0  0  0  0  0  0  0  0  0
   10.0768  -17.7550   27.4934 O   0  0  0  0  0  0  0  0  0  0  0  0
   10.2913  -19.5467   26.1415 O   0  0  0  0  0  0  0  0  0  0  0  0
  2  1  1  0
  3  2  1  0
  4  5  1  0
  4  3  1  0
  5  7  1  0
  5  6  1  1
  7  8  2  0
 10  9  1  0
 11 10  2  0
 13 12  1  6
 12 10  1  0
 14  7  1  0
 14 13  1  0
 15 13  1  0
 15 16  2  0
 18 17  1  0
 18 19  2  0
 20 21  1  0
 20 18  1  0
 22 21  1  6
 22 23  1  0
 22 24  1  0
 23 15  1  0
 24 25  2  0
 24 26  1  0
M  END
$$$$
