MNQ.pdb
     RDKit          3D

 26 25  0  0  1  0  0  0  0  0999 V2000
    7.9206  -11.4847   21.0245 C   0  0  0  0  0  0  0  0  0  0  0  0
    6.5010  -12.3489   20.3008 S   0  0  0  0  0  0  0  0  0  0  0  0
    6.9937  -14.0644   19.8848 C   0  0  0  0  0  0  0  0  0  0  0  0
    7.6546  -14.7119   21.0730 C   0  0  0  0  0  0  0  0  0  0  0  0
    8.1403  -16.0898   20.8315 C   0  0  2  0  0  0  0  0  0  0  0  0
    6.9395  -16.9680   20.8922 N   0  0  0  0  0  0  0  0  0  0  0  0
    9.1113  -16.6517   21.7503 C   0  0  0  0  0  0  0  0  0  0  0  0
    8.8644  -17.7831   22.3056 O   0  0  0  0  0  0  0  0  0  0  0  0
   12.6827  -17.9194   20.9374 N   0  0  0  0  0  0  0  0  0  0  0  0
   13.3717  -16.9401   21.7037 C   0  0  0  0  0  0  0  0  0  0  0  0
   14.5353  -16.6698   21.3815 O   0  0  0  0  0  0  0  0  0  0  0  0
   12.6831  -16.3149   22.8114 C   0  0  0  0  0  0  0  0  0  0  0  0
   11.2531  -16.7806   23.0726 C   0  0  2  0  0  0  0  0  0  0  0  0
   10.3659  -16.0847   22.1300 N   0  0  0  0  0  0  0  0  0  0  0  0
   10.8181  -16.5533   24.4604 C   0  0  0  0  0  0  0  0  0  0  0  0
   11.5033  -16.9645   25.4276 O   0  0  0  0  0  0  0  0  0  0  0  0
    5.5164  -13.6147   26.4459 N   0  0  0  0  0  0  0  0  0  0  0  0
    6.6546  -12.9459   25.9196 C   0  0  0  0  0  0  0  0  0  0  0  0
    6.4973  -11.7421   25.5751 O   0  0  0  0  0  0  0  0  0  0  0  0
    7.9653  -13.6302   25.7815 C   0  0  0  0  0  0  0  0  0  0  0  0
    7.9173  -15.0257   26.3596 C   0  0  0  0  0  0  0  0  0  0  0  0
    9.2202  -15.7649   26.1724 C   0  0  2  0  0  0  0  0  0  0  0  0
    9.6240  -15.8692   24.8143 N   0  0  0  0  0  0  0  0  0  0  0  0
    9.1017  -17.0745   26.8581 C   0  0  0  0  0  0  0  0  0  0  0  0
    9.0045  -18.1832   26.2755 O   0  0  0  0  0  0  0  0  0  0  0  0
    9.0966  -17.0892   28.2448 O   0  0  0  0  0  0  0  0  0  0  0  0
  2  1  1  0
  3  2  1  0
  4  5  1  0
  4  3  1  0
  5  7  1  0
  5  6  1  1
  7  8  2  0
 10  9  1  0
 11 10  2  0
 13 12  1  1
 12 10  1  0
 14  7  1  0
 14 13  1  0
 15 13  1  0
 15 16  2  0
 18 17  1  0
 18 19  2  0
 20 21  1  0
 20 18  1  0
 22 21  1  6
 22 23  1  0
 22 24  1  0
 23 15  1  0
 24 25  2  0
 24 26  1  0
M  END
$$$$
