MNQ.pdb
     RDKit          3D

 26 25  0  0  1  0  0  0  0  0999 V2000
    6.2070  -11.5847   26.6674 C   0  0  0  0  0  0  0  0  0  0  0  0
    6.9605  -11.7329   25.0254 S   0  0  0  0  0  0  0  0  0  0  0  0
    6.0356  -12.9811   24.0533 C   0  0  0  0  0  0  0  0  0  0  0  0
    6.7379  -14.3114   24.1242 C   0  0  0  0  0  0  0  0  0  0  0  0
    8.1714  -14.2705   23.7554 C   0  0  2  0  0  0  0  0  0  0  0  0
    8.2206  -13.8240   22.3358 N   0  0  0  0  0  0  0  0  0  0  0  0
    8.9400  -15.4980   23.8303 C   0  0  0  0  0  0  0  0  0  0  0  0
    8.8210  -16.2476   24.8663 O   0  0  0  0  0  0  0  0  0  0  0  0
    9.9654  -19.0080   20.5213 N   0  0  0  0  0  0  0  0  0  0  0  0
   10.7031  -17.7978   20.6335 C   0  0  0  0  0  0  0  0  0  0  0  0
   10.6790  -17.0170   19.6741 O   0  0  0  0  0  0  0  0  0  0  0  0
   11.4376  -17.5433   21.8533 C   0  0  0  0  0  0  0  0  0  0  0  0
   10.6058  -17.2416   23.0971 C   0  0  2  0  0  0  0  0  0  0  0  0
    9.8497  -16.0052   22.8531 N   0  0  0  0  0  0  0  0  0  0  0  0
   11.4189  -17.1212   24.3182 C   0  0  0  0  0  0  0  0  0  0  0  0
   12.3010  -16.2352   24.4221 O   0  0  0  0  0  0  0  0  0  0  0  0
   10.8063  -16.8716   31.2373 N   0  0  0  0  0  0  0  0  0  0  0  0
   11.0847  -16.1741   30.0308 C   0  0  0  0  0  0  0  0  0  0  0  0
   10.5655  -15.0311   29.9025 O   0  0  0  0  0  0  0  0  0  0  0  0
   11.9448  -16.7616   28.9723 C   0  0  0  0  0  0  0  0  0  0  0  0
   11.1467  -17.0660   27.7255 C   0  0  0  0  0  0  0  0  0  0  0  0
   11.9919  -17.7047   26.6500 C   0  0  2  0  0  0  0  0  0  0  0  0
   11.2792  -17.9692   25.4498 N   0  0  0  0  0  0  0  0  0  0  0  0
   12.6375  -18.9055   27.2333 C   0  0  0  0  0  0  0  0  0  0  0  0
   12.1858  -20.0747   27.1501 O   0  0  0  0  0  0  0  0  0  0  0  0
   13.8285  -18.7381   27.9238 O   0  0  0  0  0  0  0  0  0  0  0  0
  2  1  1  0
  3  2  1  0
  4  5  1  0
  4  3  1  0
  5  7  1  0
  5  6  1  6
  7  8  2  0
 10  9  1  0
 11 10  2  0
 13 12  1  6
 12 10  1  0
 14  7  1  0
 14 13  1  0
 15 13  1  0
 15 16  2  0
 18 17  1  0
 18 19  2  0
 20 21  1  0
 20 18  1  0
 22 21  1  1
 22 23  1  0
 22 24  1  0
 23 15  1  0
 24 25  2  0
 24 26  1  0
M  END
$$$$
