QFS.pdb
     RDKit          3D

 27 27  0  0  1  0  0  0  0  0999 V2000
   25.1052  -17.9047  -18.5467 N   0  0  0  0  0  0  0  0  0  0  0  0
   24.8420  -19.2192  -19.0639 C   0  0  0  0  0  0  0  0  0  0  0  0
   23.6534  -19.4908  -19.2766 O   0  0  0  0  0  0  0  0  0  0  0  0
   26.0155  -20.0777  -19.2801 C   0  0  0  0  0  0  0  0  0  0  0  0
   27.3145  -19.4849  -18.8686 C   0  0  0  0  0  0  0  0  0  0  0  0
   28.2033  -20.3610  -18.0650 C   0  0  2  0  0  0  0  0  0  0  0  0
   28.8606  -21.4294  -18.7601 N   0  0  0  0  0  0  0  0  0  0  0  0
   27.5154  -20.9089  -16.8609 C   0  0  0  0  0  0  0  0  0  0  0  0
   27.0710  -22.0906  -16.8262 O   0  0  0  0  0  0  0  0  0  0  0  0
   27.3283  -20.1373  -15.7082 N   0  0  0  0  0  0  0  0  0  0  0  0
   26.7457  -20.6383  -14.4645 C   0  0  1  0  0  0  0  0  0  0  0  0
   27.2018  -19.8882  -13.2883 C   0  0  0  0  0  0  0  0  0  0  0  0
   26.6309  -20.2988  -12.0076 C   0  0  0  0  0  0  0  0  0  0  0  0
   25.5056  -19.6121  -11.5203 C   0  0  0  0  0  0  0  0  0  0  0  0
   24.8820  -19.9702  -10.3394 C   0  0  0  0  0  0  0  0  0  0  0  0
   25.3428  -21.0137   -9.5994 C   0  0  0  0  0  0  0  0  0  0  0  0
   26.4329  -21.7069  -10.0373 C   0  0  0  0  0  0  0  0  0  0  0  0
   27.0420  -21.3416  -11.2099 C   0  0  0  0  0  0  0  0  0  0  0  0
   25.2989  -20.5905  -14.6843 C   0  0  0  0  0  0  0  0  0  0  0  0
   24.7955  -19.5224  -15.2120 O   0  0  0  0  0  0  0  0  0  0  0  0
   22.8483  -23.7139  -14.3369 O   0  0  0  0  0  0  0  0  0  0  0  0
   22.2840  -22.6890  -15.1299 C   0  0  0  0  0  0  0  0  0  0  0  0
   22.9371  -21.4055  -14.6115 C   0  0  2  0  0  0  0  0  0  0  0  0
   24.3464  -21.5982  -14.3911 N   0  0  0  0  0  0  0  0  0  0  0  0
   22.2028  -21.0081  -13.4174 C   0  0  0  0  0  0  0  0  0  0  0  0
   20.8675  -20.7124  -13.4563 O   0  0  0  0  0  0  0  0  0  0  0  0
   22.8144  -20.9355  -12.3257 O   0  0  0  0  0  0  0  0  0  0  0  0
  2  1  1  0
  3  2  2  0
  4  2  1  0
  5  4  1  0
  6  8  1  0
  6  5  1  0
  6  7  1  6
  8 10  1  0
  9  8  2  0
 10 11  1  0
 11 12  1  1
 12 13  1  0
 13 18  2  0
 14 15  2  0
 14 13  1  0
 15 16  1  0
 16 17  2  0
 18 17  1  0
 19 20  2  0
 19 11  1  0
 21 22  1  0
 23 22  1  1
 23 25  1  0
 23 24  1  0
 24 19  1  0
 25 26  1  0
 27 25  2  0
M  END
$$$$
