QFS.pdb
     RDKit          3D

 27 27  0  0  1  0  0  0  0  0999 V2000
   17.1405  -11.5018  -18.0826 N   0  0  0  0  0  0  0  0  0  0  0  0
   17.9664  -12.6162  -18.4574 C   0  0  0  0  0  0  0  0  0  0  0  0
   17.4130  -13.5034  -19.1196 O   0  0  0  0  0  0  0  0  0  0  0  0
   19.3664  -12.5644  -18.0121 C   0  0  0  0  0  0  0  0  0  0  0  0
   19.7362  -11.3527  -17.2354 C   0  0  0  0  0  0  0  0  0  0  0  0
   21.1644  -11.2409  -16.8464 C   0  0  2  0  0  0  0  0  0  0  0  0
   21.7169  -12.3273  -16.0907 N   0  0  0  0  0  0  0  0  0  0  0  0
   21.4591   -9.9572  -16.1476 C   0  0  0  0  0  0  0  0  0  0  0  0
   21.2996   -9.8236  -14.9019 O   0  0  0  0  0  0  0  0  0  0  0  0
   21.9277   -8.8352  -16.8411 N   0  0  0  0  0  0  0  0  0  0  0  0
   22.3977   -7.6068  -16.2030 C   0  0  1  0  0  0  0  0  0  0  0  0
   23.8244   -7.3595  -16.4429 C   0  0  0  0  0  0  0  0  0  0  0  0
   24.7388   -8.4068  -15.9941 C   0  0  0  0  0  0  0  0  0  0  0  0
   25.7184   -8.8743  -16.8870 C   0  0  0  0  0  0  0  0  0  0  0  0
   26.6476   -9.8308  -16.5218 C   0  0  0  0  0  0  0  0  0  0  0  0
   26.6452  -10.3587  -15.2687 C   0  0  0  0  0  0  0  0  0  0  0  0
   25.7108   -9.9319  -14.3712 C   0  0  0  0  0  0  0  0  0  0  0  0
   24.7951   -8.9830  -14.7460 C   0  0  0  0  0  0  0  0  0  0  0  0
   21.5116   -6.5586  -16.7129 C   0  0  0  0  0  0  0  0  0  0  0  0
   21.3804   -6.4386  -17.9940 O   0  0  0  0  0  0  0  0  0  0  0  0
   18.8468   -4.5222  -14.5293 O   0  0  0  0  0  0  0  0  0  0  0  0
   18.5518   -4.5519  -15.9112 C   0  0  0  0  0  0  0  0  0  0  0  0
   19.9214   -4.6341  -16.5895 C   0  0  2  0  0  0  0  0  0  0  0  0
   20.7476   -5.6314  -15.9612 N   0  0  0  0  0  0  0  0  0  0  0  0
   20.4908   -3.2933  -16.5599 C   0  0  0  0  0  0  0  0  0  0  0  0
   19.8786   -2.2355  -17.1750 O   0  0  0  0  0  0  0  0  0  0  0  0
   21.5721   -3.1069  -15.9538 O   0  0  0  0  0  0  0  0  0  0  0  0
  2  1  1  0
  3  2  2  0
  4  2  1  0
  5  4  1  0
  6  8  1  0
  6  5  1  0
  6  7  1  1
  8 10  1  0
  9  8  2  0
 10 11  1  0
 11 12  1  6
 12 13  1  0
 13 18  2  0
 14 15  2  0
 14 13  1  0
 15 16  1  0
 16 17  2  0
 18 17  1  0
 19 20  2  0
 19 11  1  0
 21 22  1  0
 23 22  1  1
 23 25  1  0
 23 24  1  0
 24 19  1  0
 25 26  1  0
 27 25  2  0
M  END
$$$$
