QFS.pdb
     RDKit          3D

 27 27  0  0  1  0  0  0  0  0999 V2000
   16.4078  -14.7369  -16.2811 N   0  0  0  0  0  0  0  0  0  0  0  0
   16.9649  -15.2699  -17.4936 C   0  0  0  0  0  0  0  0  0  0  0  0
   16.5631  -16.3917  -17.8282 O   0  0  0  0  0  0  0  0  0  0  0  0
   17.9399  -14.4173  -18.1887 C   0  0  0  0  0  0  0  0  0  0  0  0
   18.1262  -13.0650  -17.6014 C   0  0  0  0  0  0  0  0  0  0  0  0
   19.5154  -12.7084  -17.2187 C   0  0  2  0  0  0  0  0  0  0  0  0
   20.3626  -13.7802  -16.7827 N   0  0  0  0  0  0  0  0  0  0  0  0
   19.5579  -11.6088  -16.2126 C   0  0  0  0  0  0  0  0  0  0  0  0
   19.0953  -11.7532  -15.0463 O   0  0  0  0  0  0  0  0  0  0  0  0
   20.1140  -10.3600  -16.5137 N   0  0  0  0  0  0  0  0  0  0  0  0
   20.2962   -9.2816  -15.5437 C   0  0  1  0  0  0  0  0  0  0  0  0
   21.7089   -8.9350  -15.3478 C   0  0  0  0  0  0  0  0  0  0  0  0
   21.9677   -7.6872  -14.6333 C   0  0  0  0  0  0  0  0  0  0  0  0
   22.4094   -6.5710  -15.3644 C   0  0  0  0  0  0  0  0  0  0  0  0
   22.6325   -5.3442  -14.7672 C   0  0  0  0  0  0  0  0  0  0  0  0
   22.4291   -5.1736  -13.4336 C   0  0  0  0  0  0  0  0  0  0  0  0
   22.0002   -6.2320  -12.6876 C   0  0  0  0  0  0  0  0  0  0  0  0
   21.7827   -7.4432  -13.2920 C   0  0  0  0  0  0  0  0  0  0  0  0
   19.4717   -8.1820  -16.0485 C   0  0  0  0  0  0  0  0  0  0  0  0
   19.5796   -7.8599  -17.2965 O   0  0  0  0  0  0  0  0  0  0  0  0
   15.9566   -4.9957  -16.1229 O   0  0  0  0  0  0  0  0  0  0  0  0
   16.4878   -6.0605  -15.3603 C   0  0  0  0  0  0  0  0  0  0  0  0
   17.9118   -6.2351  -15.8934 C   0  0  2  0  0  0  0  0  0  0  0  0
   18.5340   -7.4027  -15.3261 N   0  0  0  0  0  0  0  0  0  0  0  0
   18.6238   -4.9945  -15.6161 C   0  0  0  0  0  0  0  0  0  0  0  0
   18.9035   -4.0872  -16.6012 O   0  0  0  0  0  0  0  0  0  0  0  0
   18.9895   -4.7549  -14.4413 O   0  0  0  0  0  0  0  0  0  0  0  0
  2  1  1  0
  3  2  2  0
  4  2  1  0
  5  4  1  0
  6  8  1  0
  6  5  1  0
  6  7  1  1
  8 10  1  0
  9  8  2  0
 10 11  1  0
 11 12  1  6
 12 13  1  0
 13 18  2  0
 14 15  2  0
 14 13  1  0
 15 16  1  0
 16 17  2  0
 18 17  1  0
 19 20  2  0
 19 11  1  0
 21 22  1  0
 23 22  1  1
 23 25  1  0
 23 24  1  0
 24 19  1  0
 25 26  1  0
 27 25  2  0
M  END
$$$$
