QFS.pdb
     RDKit          3D

 27 27  0  0  1  0  0  0  0  0999 V2000
   25.2058  -25.5961  -15.7649 N   0  0  0  0  0  0  0  0  0  0  0  0
   25.2583  -25.8920  -17.1699 C   0  0  0  0  0  0  0  0  0  0  0  0
   25.5823  -27.0484  -17.4692 O   0  0  0  0  0  0  0  0  0  0  0  0
   24.9179  -24.7875  -18.0782 C   0  0  0  0  0  0  0  0  0  0  0  0
   24.4137  -23.5576  -17.4138 C   0  0  0  0  0  0  0  0  0  0  0  0
   25.4479  -22.6004  -16.9473 C   0  0  2  0  0  0  0  0  0  0  0  0
   26.6218  -23.1592  -16.3421 N   0  0  0  0  0  0  0  0  0  0  0  0
   24.8825  -21.5544  -16.0477 C   0  0  0  0  0  0  0  0  0  0  0  0
   24.6217  -21.7878  -14.8342 O   0  0  0  0  0  0  0  0  0  0  0  0
   24.6126  -20.2598  -16.5066 N   0  0  0  0  0  0  0  0  0  0  0  0
   24.1514  -19.1622  -15.6583 C   0  0  1  0  0  0  0  0  0  0  0  0
   25.1454  -18.0890  -15.5385 C   0  0  0  0  0  0  0  0  0  0  0  0
   26.4358  -18.4735  -14.9714 C   0  0  0  0  0  0  0  0  0  0  0  0
   26.5537  -18.5787  -13.5748 C   0  0  0  0  0  0  0  0  0  0  0  0
   27.7282  -18.9802  -12.9657 C   0  0  0  0  0  0  0  0  0  0  0  0
   28.8242  -19.2914  -13.7079 C   0  0  0  0  0  0  0  0  0  0  0  0
   28.7517  -19.2026  -15.0671 C   0  0  0  0  0  0  0  0  0  0  0  0
   27.5812  -18.8032  -15.6585 C   0  0  0  0  0  0  0  0  0  0  0  0
   22.8803  -18.7413  -16.2506 C   0  0  0  0  0  0  0  0  0  0  0  0
   22.7190  -18.8944  -17.5247 O   0  0  0  0  0  0  0  0  0  0  0  0
   18.8544  -20.3036  -15.8947 O   0  0  0  0  0  0  0  0  0  0  0  0
   20.1559  -20.0139  -15.4257 C   0  0  0  0  0  0  0  0  0  0  0  0
   20.4132  -18.5767  -15.8850 C   0  0  2  0  0  0  0  0  0  0  0  0
   21.7631  -18.1754  -15.5873 N   0  0  0  0  0  0  0  0  0  0  0  0
   19.3979  -17.7421  -15.2561 C   0  0  0  0  0  0  0  0  0  0  0  0
   19.7195  -16.7927  -14.3248 O   0  0  0  0  0  0  0  0  0  0  0  0
   18.1972  -17.9011  -15.5788 O   0  0  0  0  0  0  0  0  0  0  0  0
  2  1  1  0
  3  2  2  0
  4  2  1  0
  5  4  1  0
  6  8  1  0
  6  5  1  0
  6  7  1  1
  8 10  1  0
  9  8  2  0
 10 11  1  0
 11 12  1  6
 12 13  1  0
 13 18  2  0
 14 15  2  0
 14 13  1  0
 15 16  1  0
 16 17  2  0
 18 17  1  0
 19 20  2  0
 19 11  1  0
 21 22  1  0
 23 22  1  1
 23 25  1  0
 23 24  1  0
 24 19  1  0
 25 26  1  0
 27 25  2  0
M  END
$$$$
