QFS.pdb
     RDKit          3D

 27 27  0  0  1  0  0  0  0  0999 V2000
   27.1631  -16.3748  -14.2951 N   0  0  0  0  0  0  0  0  0  0  0  0
   28.0955  -16.8172  -15.2949 C   0  0  0  0  0  0  0  0  0  0  0  0
   28.8736  -15.9582  -15.7291 O   0  0  0  0  0  0  0  0  0  0  0  0
   28.0133  -18.2344  -15.6763 C   0  0  0  0  0  0  0  0  0  0  0  0
   27.0870  -19.0556  -14.8542 C   0  0  0  0  0  0  0  0  0  0  0  0
   27.7203  -19.9068  -13.8160 C   0  0  2  0  0  0  0  0  0  0  0  0
   28.8517  -20.6892  -14.2214 N   0  0  0  0  0  0  0  0  0  0  0  0
   26.7326  -20.7898  -13.1320 C   0  0  0  0  0  0  0  0  0  0  0  0
   26.4486  -21.9393  -13.5715 O   0  0  0  0  0  0  0  0  0  0  0  0
   26.0709  -20.3858  -11.9666 N   0  0  0  0  0  0  0  0  0  0  0  0
   25.0172  -21.1545  -11.3064 C   0  0  1  0  0  0  0  0  0  0  0  0
   24.9531  -20.8954   -9.8632 C   0  0  0  0  0  0  0  0  0  0  0  0
   26.2183  -20.5507   -9.2189 C   0  0  0  0  0  0  0  0  0  0  0  0
   27.2627  -21.4912   -9.2386 C   0  0  0  0  0  0  0  0  0  0  0  0
   28.5030  -21.2218   -8.6902 C   0  0  0  0  0  0  0  0  0  0  0  0
   28.7579  -20.0210   -8.1053 C   0  0  0  0  0  0  0  0  0  0  0  0
   27.7710  -19.0801   -8.0654 C   0  0  0  0  0  0  0  0  0  0  0  0
   26.5456  -19.3598   -8.6128 C   0  0  0  0  0  0  0  0  0  0  0  0
   23.7935  -20.8121  -12.0338 C   0  0  0  0  0  0  0  0  0  0  0  0
   23.6349  -19.5885  -12.4217 O   0  0  0  0  0  0  0  0  0  0  0  0
   20.0255  -21.7905  -14.7923 O   0  0  0  0  0  0  0  0  0  0  0  0
   21.1157  -22.3607  -14.0967 C   0  0  0  0  0  0  0  0  0  0  0  0
   21.6185  -21.2340  -13.1910 C   0  0  2  0  0  0  0  0  0  0  0  0
   22.7273  -21.6765  -12.3867 N   0  0  0  0  0  0  0  0  0  0  0  0
   20.4754  -20.7711  -12.4151 C   0  0  0  0  0  0  0  0  0  0  0  0
   19.5653  -19.8875  -12.9278 O   0  0  0  0  0  0  0  0  0  0  0  0
   20.3246  -21.1957  -11.2454 O   0  0  0  0  0  0  0  0  0  0  0  0
  2  1  1  0
  3  2  2  0
  4  2  1  0
  5  4  1  0
  6  8  1  0
  6  5  1  0
  6  7  1  6
  8 10  1  0
  9  8  2  0
 10 11  1  0
 11 12  1  1
 12 13  1  0
 13 18  2  0
 14 15  2  0
 14 13  1  0
 15 16  1  0
 16 17  2  0
 18 17  1  0
 19 20  2  0
 19 11  1  0
 21 22  1  0
 23 22  1  1
 23 25  1  0
 23 24  1  0
 24 19  1  0
 25 26  1  0
 27 25  2  0
M  END
$$$$
