QFS.pdb
     RDKit          3D

 27 27  0  0  1  0  0  0  0  0999 V2000
   26.6789  -23.8780  -20.2762 N   0  0  0  0  0  0  0  0  0  0  0  0
   27.1469  -22.5873  -20.7000 C   0  0  0  0  0  0  0  0  0  0  0  0
   27.6226  -22.5303  -21.8411 O   0  0  0  0  0  0  0  0  0  0  0  0
   27.0003  -21.4936  -19.7288 C   0  0  0  0  0  0  0  0  0  0  0  0
   26.4872  -21.8999  -18.3946 C   0  0  0  0  0  0  0  0  0  0  0  0
   27.3267  -21.5182  -17.2315 C   0  0  2  0  0  0  0  0  0  0  0  0
   28.6733  -22.0114  -17.2149 N   0  0  0  0  0  0  0  0  0  0  0  0
   26.6698  -21.8408  -15.9325 C   0  0  0  0  0  0  0  0  0  0  0  0
   26.4106  -23.0293  -15.5928 O   0  0  0  0  0  0  0  0  0  0  0  0
   26.3075  -20.8388  -15.0248 N   0  0  0  0  0  0  0  0  0  0  0  0
   25.7074  -21.0883  -13.7153 C   0  0  1  0  0  0  0  0  0  0  0  0
   26.2916  -20.2509  -12.6609 C   0  0  0  0  0  0  0  0  0  0  0  0
   25.7103  -20.4023  -11.3290 C   0  0  0  0  0  0  0  0  0  0  0  0
   24.5357  -19.6941  -11.0219 C   0  0  0  0  0  0  0  0  0  0  0  0
   23.9016  -19.8197   -9.7997 C   0  0  0  0  0  0  0  0  0  0  0  0
   24.3999  -20.6443   -8.8402 C   0  0  0  0  0  0  0  0  0  0  0  0
   25.5384  -21.3500   -9.0982 C   0  0  0  0  0  0  0  0  0  0  0  0
   26.1574  -21.2165  -10.3142 C   0  0  0  0  0  0  0  0  0  0  0  0
   24.2716  -20.8856  -13.9179 C   0  0  0  0  0  0  0  0  0  0  0  0
   23.8846  -19.8039  -14.5120 O   0  0  0  0  0  0  0  0  0  0  0  0
   21.2699  -23.3909  -14.7755 O   0  0  0  0  0  0  0  0  0  0  0  0
   20.9321  -22.6291  -13.6338 C   0  0  0  0  0  0  0  0  0  0  0  0
   21.8323  -21.3944  -13.7220 C   0  0  2  0  0  0  0  0  0  0  0  0
   23.2149  -21.7520  -13.5418 N   0  0  0  0  0  0  0  0  0  0  0  0
   21.3381  -20.4381  -12.7401 C   0  0  0  0  0  0  0  0  0  0  0  0
   20.0660  -19.9376  -12.7968 O   0  0  0  0  0  0  0  0  0  0  0  0
   22.1023  -20.0649  -11.8192 O   0  0  0  0  0  0  0  0  0  0  0  0
  2  1  1  0
  3  2  2  0
  4  2  1  0
  5  4  1  0
  6  8  1  0
  6  5  1  0
  6  7  1  6
  8 10  1  0
  9  8  2  0
 10 11  1  0
 11 12  1  1
 12 13  1  0
 13 18  2  0
 14 15  2  0
 14 13  1  0
 15 16  1  0
 16 17  2  0
 18 17  1  0
 19 20  2  0
 19 11  1  0
 21 22  1  0
 23 22  1  1
 23 25  1  0
 23 24  1  0
 24 19  1  0
 25 26  1  0
 27 25  2  0
M  END
$$$$
