QFS.pdb
     RDKit          3D

 27 27  0  0  1  0  0  0  0  0999 V2000
   18.0661  -20.2117  -13.0988 N   0  0  0  0  0  0  0  0  0  0  0  0
   18.6488  -21.2040  -13.9593 C   0  0  0  0  0  0  0  0  0  0  0  0
   17.8547  -21.8666  -14.6392 O   0  0  0  0  0  0  0  0  0  0  0  0
   20.1148  -21.3080  -13.9292 C   0  0  0  0  0  0  0  0  0  0  0  0
   20.7919  -20.3953  -12.9716 C   0  0  0  0  0  0  0  0  0  0  0  0
   21.5542  -21.0493  -11.8787 C   0  0  2  0  0  0  0  0  0  0  0  0
   20.9157  -21.1210  -10.5965 N   0  0  0  0  0  0  0  0  0  0  0  0
   22.9174  -20.4676  -11.7162 C   0  0  0  0  0  0  0  0  0  0  0  0
   23.1000  -19.3291  -11.2009 O   0  0  0  0  0  0  0  0  0  0  0  0
   24.0634  -21.1575  -12.1287 N   0  0  0  0  0  0  0  0  0  0  0  0
   25.4321  -20.7224  -11.8562 C   0  0  1  0  0  0  0  0  0  0  0  0
   26.1535  -21.6532  -10.9802 C   0  0  0  0  0  0  0  0  0  0  0  0
   26.7666  -21.0665   -9.7909 C   0  0  0  0  0  0  0  0  0  0  0  0
   25.9580  -20.3259   -8.9116 C   0  0  0  0  0  0  0  0  0  0  0  0
   26.4548  -19.7780   -7.7434 C   0  0  0  0  0  0  0  0  0  0  0  0
   27.7607  -19.9396   -7.4009 C   0  0  0  0  0  0  0  0  0  0  0  0
   28.5796  -20.6522   -8.2270 C   0  0  0  0  0  0  0  0  0  0  0  0
   28.0745  -21.1902   -9.3824 C   0  0  0  0  0  0  0  0  0  0  0  0
   26.0384  -20.5477  -13.1774 C   0  0  0  0  0  0  0  0  0  0  0  0
   25.8259  -21.4566  -14.0727 O   0  0  0  0  0  0  0  0  0  0  0  0
   27.2705  -17.0749  -14.8231 O   0  0  0  0  0  0  0  0  0  0  0  0
   28.1566  -18.1158  -15.1822 C   0  0  0  0  0  0  0  0  0  0  0  0
   27.3440  -19.3954  -14.9706 C   0  0  2  0  0  0  0  0  0  0  0  0
   26.8494  -19.4734  -13.6210 N   0  0  0  0  0  0  0  0  0  0  0  0
   28.2020  -20.5105  -15.3491 C   0  0  0  0  0  0  0  0  0  0  0  0
   28.5881  -20.7163  -16.6454 O   0  0  0  0  0  0  0  0  0  0  0  0
   28.5952  -21.3019  -14.4602 O   0  0  0  0  0  0  0  0  0  0  0  0
  2  1  1  0
  3  2  2  0
  4  2  1  0
  5  4  1  0
  6  8  1  0
  6  5  1  0
  6  7  1  1
  8 10  1  0
  9  8  2  0
 10 11  1  0
 11 12  1  1
 12 13  1  0
 13 18  2  0
 14 15  2  0
 14 13  1  0
 15 16  1  0
 16 17  2  0
 18 17  1  0
 19 20  2  0
 19 11  1  0
 21 22  1  0
 23 22  1  1
 23 25  1  0
 23 24  1  0
 24 19  1  0
 25 26  1  0
 27 25  2  0
M  END
$$$$
