QFS.pdb
     RDKit          3D

 27 27  0  0  1  0  0  0  0  0999 V2000
   20.1951  -11.7150  -20.7961 N   0  0  0  0  0  0  0  0  0  0  0  0
   20.2892  -13.1203  -20.5121 C   0  0  0  0  0  0  0  0  0  0  0  0
   20.0627  -13.8821  -21.4609 O   0  0  0  0  0  0  0  0  0  0  0  0
   20.6459  -13.4804  -19.1322 C   0  0  0  0  0  0  0  0  0  0  0  0
   20.8736  -12.3301  -18.2195 C   0  0  0  0  0  0  0  0  0  0  0  0
   22.2919  -11.9967  -17.9354 C   0  0  2  0  0  0  0  0  0  0  0  0
   23.1535  -13.0850  -17.5749 N   0  0  0  0  0  0  0  0  0  0  0  0
   22.4233  -10.9104  -16.9225 C   0  0  0  0  0  0  0  0  0  0  0  0
   22.3071  -11.1343  -15.6850 O   0  0  0  0  0  0  0  0  0  0  0  0
   22.6823   -9.5865  -17.2960 N   0  0  0  0  0  0  0  0  0  0  0  0
   22.9374   -8.4976  -16.3545 C   0  0  1  0  0  0  0  0  0  0  0  0
   24.3032   -7.9710  -16.4614 C   0  0  0  0  0  0  0  0  0  0  0  0
   25.3772   -8.9136  -16.1569 C   0  0  0  0  0  0  0  0  0  0  0  0
   26.1432   -9.4278  -17.2172 C   0  0  0  0  0  0  0  0  0  0  0  0
   27.2042  -10.2888  -17.0057 C   0  0  0  0  0  0  0  0  0  0  0  0
   27.5472  -10.6723  -15.7471 C   0  0  0  0  0  0  0  0  0  0  0  0
   26.8291  -10.1957  -14.6898 C   0  0  0  0  0  0  0  0  0  0  0  0
   25.7794   -9.3426  -14.9131 C   0  0  0  0  0  0  0  0  0  0  0  0
   21.8898   -7.5126  -16.6303 C   0  0  0  0  0  0  0  0  0  0  0  0
   21.8530   -6.9715  -17.8045 O   0  0  0  0  0  0  0  0  0  0  0  0
   18.6739   -6.7980  -14.3364 O   0  0  0  0  0  0  0  0  0  0  0  0
   18.5284   -6.3639  -15.6736 C   0  0  0  0  0  0  0  0  0  0  0  0
   19.9522   -6.0193  -16.1173 C   0  0  2  0  0  0  0  0  0  0  0  0
   20.8721   -7.0643  -15.7517 N   0  0  0  0  0  0  0  0  0  0  0  0
   20.2745   -4.7215  -15.5386 C   0  0  0  0  0  0  0  0  0  0  0  0
   21.3135   -4.5595  -14.6634 O   0  0  0  0  0  0  0  0  0  0  0  0
   19.5782   -3.7277  -15.8530 O   0  0  0  0  0  0  0  0  0  0  0  0
  2  1  1  0
  3  2  2  0
  4  2  1  0
  5  4  1  0
  6  8  1  0
  6  5  1  0
  6  7  1  1
  8 10  1  0
  9  8  2  0
 10 11  1  0
 11 12  1  6
 12 13  1  0
 13 18  2  0
 14 15  2  0
 14 13  1  0
 15 16  1  0
 16 17  2  0
 18 17  1  0
 19 20  2  0
 19 11  1  0
 21 22  1  0
 23 22  1  1
 23 25  1  0
 23 24  1  0
 24 19  1  0
 25 26  1  0
 27 25  2  0
M  END
$$$$
