QFS.pdb
     RDKit          3D

 27 27  0  0  1  0  0  0  0  0999 V2000
   15.5854  -12.6625  -20.0214 N   0  0  0  0  0  0  0  0  0  0  0  0
   16.7267  -12.7153  -19.1500 C   0  0  0  0  0  0  0  0  0  0  0  0
   17.8073  -12.3773  -19.6499 O   0  0  0  0  0  0  0  0  0  0  0  0
   16.4706  -13.1603  -17.7726 C   0  0  0  0  0  0  0  0  0  0  0  0
   16.7975  -12.1659  -16.7179 C   0  0  0  0  0  0  0  0  0  0  0  0
   18.2345  -12.0372  -16.3688 C   0  0  2  0  0  0  0  0  0  0  0  0
   18.8775  -13.2015  -15.8324 N   0  0  0  0  0  0  0  0  0  0  0  0
   18.4943  -10.8755  -15.4710 C   0  0  0  0  0  0  0  0  0  0  0  0
   18.2513  -10.9219  -14.2325 O   0  0  0  0  0  0  0  0  0  0  0  0
   19.0214   -9.6743  -15.9594 N   0  0  0  0  0  0  0  0  0  0  0  0
   19.3667   -8.5244  -15.1255 C   0  0  1  0  0  0  0  0  0  0  0  0
   20.7679   -8.1169  -15.2829 C   0  0  0  0  0  0  0  0  0  0  0  0
   21.7641   -9.0190  -14.7098 C   0  0  0  0  0  0  0  0  0  0  0  0
   21.8636   -9.1119  -13.3109 C   0  0  0  0  0  0  0  0  0  0  0  0
   22.7498   -9.9754  -12.6941 C   0  0  0  0  0  0  0  0  0  0  0  0
   23.5664  -10.7754  -13.4304 C   0  0  0  0  0  0  0  0  0  0  0  0
   23.5011  -10.7161  -14.7917 C   0  0  0  0  0  0  0  0  0  0  0  0
   22.6180   -9.8556  -15.3908 C   0  0  0  0  0  0  0  0  0  0  0  0
   18.3954   -7.4920  -15.4923 C   0  0  0  0  0  0  0  0  0  0  0  0
   18.4038   -7.0486  -16.7073 O   0  0  0  0  0  0  0  0  0  0  0  0
   15.7079   -5.9445  -12.9680 O   0  0  0  0  0  0  0  0  0  0  0  0
   15.2549   -5.7979  -14.2987 C   0  0  0  0  0  0  0  0  0  0  0  0
   16.5298   -5.8657  -15.1429 C   0  0  2  0  0  0  0  0  0  0  0  0
   17.4092   -6.9000  -14.6644 N   0  0  0  0  0  0  0  0  0  0  0  0
   17.1216   -4.5343  -15.1254 C   0  0  0  0  0  0  0  0  0  0  0  0
   18.3691   -4.3058  -14.6124 O   0  0  0  0  0  0  0  0  0  0  0  0
   16.4667   -3.5735  -15.5935 O   0  0  0  0  0  0  0  0  0  0  0  0
  2  1  1  0
  3  2  2  0
  4  2  1  0
  5  4  1  0
  6  8  1  0
  6  5  1  0
  6  7  1  1
  8 10  1  0
  9  8  2  0
 10 11  1  0
 11 12  1  6
 12 13  1  0
 13 18  2  0
 14 15  2  0
 14 13  1  0
 15 16  1  0
 16 17  2  0
 18 17  1  0
 19 20  2  0
 19 11  1  0
 21 22  1  0
 23 22  1  1
 23 25  1  0
 23 24  1  0
 24 19  1  0
 25 26  1  0
 27 25  2  0
M  END
$$$$
