QFS.pdb
     RDKit          3D

 27 27  0  0  1  0  0  0  0  0999 V2000
   18.8209  -11.7983  -18.7623 N   0  0  0  0  0  0  0  0  0  0  0  0
   18.9888  -13.2252  -18.7844 C   0  0  0  0  0  0  0  0  0  0  0  0
   18.3538  -13.8329  -19.6559 O   0  0  0  0  0  0  0  0  0  0  0  0
   19.8954  -13.7871  -17.7729 C   0  0  0  0  0  0  0  0  0  0  0  0
   20.5675  -12.7866  -16.9036 C   0  0  0  0  0  0  0  0  0  0  0  0
   21.9237  -12.3607  -17.3313 C   0  0  2  0  0  0  0  0  0  0  0  0
   22.8868  -13.3985  -17.5590 N   0  0  0  0  0  0  0  0  0  0  0  0
   22.5088  -11.3405  -16.4148 C   0  0  0  0  0  0  0  0  0  0  0  0
   22.6364  -11.5512  -15.1761 O   0  0  0  0  0  0  0  0  0  0  0  0
   22.9458  -10.0966  -16.8849 N   0  0  0  0  0  0  0  0  0  0  0  0
   23.5861   -9.0782  -16.0542 C   0  0  1  0  0  0  0  0  0  0  0  0
   24.9713   -8.8119  -16.4598 C   0  0  0  0  0  0  0  0  0  0  0  0
   25.9239   -9.8957  -16.2304 C   0  0  0  0  0  0  0  0  0  0  0  0
   26.4131  -10.6087  -17.3385 C   0  0  0  0  0  0  0  0  0  0  0  0
   27.3499  -11.6170  -17.2068 C   0  0  0  0  0  0  0  0  0  0  0  0
   27.8366  -11.9574  -15.9836 C   0  0  0  0  0  0  0  0  0  0  0  0
   27.3879  -11.2896  -14.8821 C   0  0  0  0  0  0  0  0  0  0  0  0
   26.4589  -10.2918  -15.0264 C   0  0  0  0  0  0  0  0  0  0  0  0
   22.7004   -7.9155  -16.1397 C   0  0  0  0  0  0  0  0  0  0  0  0
   22.4114   -7.4519  -17.3121 O   0  0  0  0  0  0  0  0  0  0  0  0
   19.9581   -6.9631  -13.5694 O   0  0  0  0  0  0  0  0  0  0  0  0
   19.8097   -6.3593  -14.8387 C   0  0  0  0  0  0  0  0  0  0  0  0
   21.2431   -6.0706  -15.2911 C   0  0  2  0  0  0  0  0  0  0  0  0
   22.0919   -7.2120  -15.0704 N   0  0  0  0  0  0  0  0  0  0  0  0
   21.6759   -4.8697  -14.5887 C   0  0  0  0  0  0  0  0  0  0  0  0
   21.0173   -3.6780  -14.7231 O   0  0  0  0  0  0  0  0  0  0  0  0
   22.6804   -4.9331  -13.8416 O   0  0  0  0  0  0  0  0  0  0  0  0
  2  1  1  0
  3  2  2  0
  4  2  1  0
  5  4  1  0
  6  8  1  0
  6  5  1  0
  6  7  1  1
  8 10  1  0
  9  8  2  0
 10 11  1  0
 11 12  1  6
 12 13  1  0
 13 18  2  0
 14 15  2  0
 14 13  1  0
 15 16  1  0
 16 17  2  0
 18 17  1  0
 19 20  2  0
 19 11  1  0
 21 22  1  0
 23 22  1  1
 23 25  1  0
 23 24  1  0
 24 19  1  0
 25 26  1  0
 27 25  2  0
M  END
$$$$
