QFS.pdb
     RDKit          3D

 27 27  0  0  1  0  0  0  0  0999 V2000
   14.1877  -20.7189    4.1301 N   0  0  0  0  0  0  0  0  0  0  0  0
   13.2963  -19.6669    3.7261 C   0  0  0  0  0  0  0  0  0  0  0  0
   12.2210  -20.0272    3.2302 O   0  0  0  0  0  0  0  0  0  0  0  0
   13.7685  -18.2937    3.9541 C   0  0  0  0  0  0  0  0  0  0  0  0
   15.1705  -18.1808    4.4336 C   0  0  0  0  0  0  0  0  0  0  0  0
   16.1415  -17.6009    3.4722 C   0  0  2  0  0  0  0  0  0  0  0  0
   16.7295  -18.5010    2.5231 N   0  0  0  0  0  0  0  0  0  0  0  0
   17.2221  -16.8343    4.1562 C   0  0  0  0  0  0  0  0  0  0  0  0
   18.3154  -17.3729    4.4874 O   0  0  0  0  0  0  0  0  0  0  0  0
   17.0759  -15.4769    4.4651 N   0  0  0  0  0  0  0  0  0  0  0  0
   18.1031  -14.6615    5.1109 C   0  0  1  0  0  0  0  0  0  0  0  0
   17.9802  -13.2371    4.7794 C   0  0  0  0  0  0  0  0  0  0  0  0
   18.9754  -12.3527    5.3813 C   0  0  0  0  0  0  0  0  0  0  0  0
   18.5710  -11.4840    6.4095 C   0  0  0  0  0  0  0  0  0  0  0  0
   19.4626  -10.6499    7.0585 C   0  0  0  0  0  0  0  0  0  0  0  0
   20.7792  -10.6419    6.7190 C   0  0  0  0  0  0  0  0  0  0  0  0
   21.2130  -11.4704    5.7259 C   0  0  0  0  0  0  0  0  0  0  0  0
   20.3187  -12.2925    5.0905 C   0  0  0  0  0  0  0  0  0  0  0  0
   17.9740  -14.9601    6.5384 C   0  0  0  0  0  0  0  0  0  0  0  0
   16.7854  -15.1009    7.0286 O   0  0  0  0  0  0  0  0  0  0  0  0
   20.4280  -16.8846    8.3132 O   0  0  0  0  0  0  0  0  0  0  0  0
   19.5671  -16.5643    9.3873 C   0  0  0  0  0  0  0  0  0  0  0  0
   18.7520  -15.3733    8.8776 C   0  0  2  0  0  0  0  0  0  0  0  0
   19.0162  -15.1277    7.4841 N   0  0  0  0  0  0  0  0  0  0  0  0
   19.0631  -14.2441    9.7443 C   0  0  0  0  0  0  0  0  0  0  0  0
   18.7974  -14.2696   11.0862 O   0  0  0  0  0  0  0  0  0  0  0  0
   19.5882  -13.2220    9.2435 O   0  0  0  0  0  0  0  0  0  0  0  0
  2  1  1  0
  3  2  2  0
  4  2  1  0
  5  4  1  0
  6  8  1  0
  6  5  1  0
  6  7  1  1
  8 10  1  0
  9  8  2  0
 10 11  1  0
 11 12  1  1
 12 13  1  0
 13 18  2  0
 14 15  2  0
 14 13  1  0
 15 16  1  0
 16 17  2  0
 18 17  1  0
 19 20  2  0
 19 11  1  0
 21 22  1  0
 23 22  1  1
 23 25  1  0
 23 24  1  0
 24 19  1  0
 25 26  1  0
 27 25  2  0
M  END
$$$$
