QFS.pdb
     RDKit          3D

 27 27  0  0  1  0  0  0  0  0999 V2000
   24.0607  -24.3909  -15.1038 N   0  0  0  0  0  0  0  0  0  0  0  0
   25.2428  -24.7180  -14.3552 C   0  0  0  0  0  0  0  0  0  0  0  0
   25.6142  -25.8972  -14.4154 O   0  0  0  0  0  0  0  0  0  0  0  0
   25.8671  -23.6130  -13.6136 C   0  0  0  0  0  0  0  0  0  0  0  0
   25.1857  -22.2993  -13.7484 C   0  0  0  0  0  0  0  0  0  0  0  0
   25.3354  -21.6210  -15.0602 C   0  0  2  0  0  0  0  0  0  0  0  0
   26.6734  -21.3620  -15.5066 N   0  0  0  0  0  0  0  0  0  0  0  0
   24.5399  -20.3622  -15.1376 C   0  0  0  0  0  0  0  0  0  0  0  0
   24.9464  -19.2833  -14.6221 O   0  0  0  0  0  0  0  0  0  0  0  0
   23.3008  -20.3162  -15.7870 N   0  0  0  0  0  0  0  0  0  0  0  0
   22.4923  -19.1077  -15.9387 C   0  0  1  0  0  0  0  0  0  0  0  0
   22.4334  -18.6422  -17.3294 C   0  0  0  0  0  0  0  0  0  0  0  0
   23.6814  -18.1216  -17.8825 C   0  0  0  0  0  0  0  0  0  0  0  0
   23.9043  -16.7341  -17.8536 C   0  0  0  0  0  0  0  0  0  0  0  0
   25.0787  -16.1699  -18.3164 C   0  0  0  0  0  0  0  0  0  0  0  0
   26.0715  -16.9492  -18.8221 C   0  0  0  0  0  0  0  0  0  0  0  0
   25.8952  -18.3010  -18.8680 C   0  0  0  0  0  0  0  0  0  0  0  0
   24.7261  -18.8479  -18.4058 C   0  0  0  0  0  0  0  0  0  0  0  0
   21.1907  -19.4549  -15.3651 C   0  0  0  0  0  0  0  0  0  0  0  0
   20.6408  -20.5684  -15.7262 O   0  0  0  0  0  0  0  0  0  0  0  0
   19.5704  -17.6765  -12.2311 O   0  0  0  0  0  0  0  0  0  0  0  0
   18.9645  -18.9284  -12.4829 C   0  0  0  0  0  0  0  0  0  0  0  0
   19.1279  -19.1322  -13.9910 C   0  0  2  0  0  0  0  0  0  0  0  0
   20.4320  -18.7087  -14.4291 N   0  0  0  0  0  0  0  0  0  0  0  0
   18.0305  -18.4234  -14.6362 C   0  0  0  0  0  0  0  0  0  0  0  0
   16.7236  -18.7640  -14.4173 O   0  0  0  0  0  0  0  0  0  0  0  0
   18.2944  -17.4761  -15.4135 O   0  0  0  0  0  0  0  0  0  0  0  0
  2  1  1  0
  3  2  2  0
  4  2  1  0
  5  4  1  0
  6  8  1  0
  6  5  1  0
  6  7  1  1
  8 10  1  0
  9  8  2  0
 10 11  1  0
 11 12  1  6
 12 13  1  0
 13 18  2  0
 14 15  2  0
 14 13  1  0
 15 16  1  0
 16 17  2  0
 18 17  1  0
 19 20  2  0
 19 11  1  0
 21 22  1  0
 23 22  1  1
 23 25  1  0
 23 24  1  0
 24 19  1  0
 25 26  1  0
 27 25  2  0
M  END
$$$$
