AYL.pdb
     RDKit          3D

 26 26  0  0  1  0  0  0  0  0999 V2000
    6.1074  -18.8740   23.7914 C   0  0  0  0  0  0  0  0  0  0  0  0
    6.5219  -18.4466   22.3970 C   0  0  2  0  0  0  0  0  0  0  0  0
    6.8831  -19.6339   21.6652 N   0  0  0  0  0  0  0  0  0  0  0  0
    7.6682  -17.4941   22.4556 C   0  0  0  0  0  0  0  0  0  0  0  0
    8.8579  -17.8872   22.4833 O   0  0  0  0  0  0  0  0  0  0  0  0
    8.6049  -14.0039   16.2170 O   0  0  0  0  0  0  0  0  0  0  0  0
    8.4825  -13.9820   17.6131 C   0  0  0  0  0  0  0  0  0  0  0  0
    7.5661  -13.1717   18.2484 C   0  0  0  0  0  0  0  0  0  0  0  0
    7.4396  -13.1447   19.6257 C   0  0  0  0  0  0  0  0  0  0  0  0
    8.2498  -13.9503   20.4189 C   0  0  0  0  0  0  0  0  0  0  0  0
    8.1418  -13.8930   21.8801 C   0  0  0  0  0  0  0  0  0  0  0  0
    8.5214  -15.1074   22.6215 C   0  0  2  0  0  0  0  0  0  0  0  0
    7.4331  -16.1089   22.4814 N   0  0  0  0  0  0  0  0  0  0  0  0
    8.9403  -15.0169   24.0061 C   0  0  0  0  0  0  0  0  0  0  0  0
   10.1362  -14.5768   24.2055 O   0  0  0  0  0  0  0  0  0  0  0  0
    9.1562  -14.7499   19.7625 C   0  0  0  0  0  0  0  0  0  0  0  0
    9.2841  -14.7787   18.3938 C   0  0  0  0  0  0  0  0  0  0  0  0
    8.2101  -11.8413   26.5929 C   0  0  0  0  0  0  0  0  0  0  0  0
    7.1752  -12.9694   26.5617 C   0  0  2  0  0  0  0  0  0  0  0  0
    5.8262  -12.4807   26.9073 C   0  0  0  0  0  0  0  0  0  0  0  0
    7.6638  -14.2140   27.1775 C   0  0  0  0  0  0  0  0  0  0  0  0
    8.7488  -14.9776   26.5109 C   0  0  2  0  0  0  0  0  0  0  0  0
    8.2328  -15.3326   25.1716 N   0  0  0  0  0  0  0  0  0  0  0  0
    9.2076  -16.1957   27.1553 C   0  0  0  0  0  0  0  0  0  0  0  0
    9.1912  -17.4573   26.5630 O   0  0  0  0  0  0  0  0  0  0  0  0
    9.6619  -16.1729   28.3378 O   0  0  0  0  0  0  0  0  0  0  0  0
  2  1  1  1
  3  2  1  0
  4 13  1  0
  4  2  1  0
  5  4  2  0
  7  6  1  0
  8  7  2  0
  9  8  1  0
 10 16  1  0
 10  9  2  0
 11 10  1  0
 12 11  1  1
 12 13  1  0
 14 23  1  0
 14 12  1  0
 15 14  2  0
 16 17  2  0
 17  7  1  0
 19 18  1  1
 19 21  1  0
 20 19  1  0
 22 21  1  1
 22 23  1  0
 22 24  1  0
 24 25  1  0
 26 24  2  0
M  END
$$$$
