AYL.pdb
     RDKit          3D

 26 26  0  0  1  0  0  0  0  0999 V2000
    7.9872  -12.3162   19.8704 C   0  0  0  0  0  0  0  0  0  0  0  0
    8.2148  -13.7515   19.4381 C   0  0  2  0  0  0  0  0  0  0  0  0
    7.1916  -14.0873   18.4811 N   0  0  0  0  0  0  0  0  0  0  0  0
    8.1617  -14.6710   20.6114 C   0  0  0  0  0  0  0  0  0  0  0  0
    7.0930  -15.2066   20.9878 O   0  0  0  0  0  0  0  0  0  0  0  0
   11.0015  -21.0292   26.0775 O   0  0  0  0  0  0  0  0  0  0  0  0
   10.8572  -20.0280   25.1073 C   0  0  0  0  0  0  0  0  0  0  0  0
   11.8035  -19.0401   24.9380 C   0  0  0  0  0  0  0  0  0  0  0  0
   11.6678  -18.0488   23.9826 C   0  0  0  0  0  0  0  0  0  0  0  0
   10.5516  -18.0241   23.1532 C   0  0  0  0  0  0  0  0  0  0  0  0
   10.3896  -16.9513   22.1669 C   0  0  0  0  0  0  0  0  0  0  0  0
    9.3677  -15.9316   22.4574 C   0  0  2  0  0  0  0  0  0  0  0  0
    9.3320  -14.9613   21.3330 N   0  0  0  0  0  0  0  0  0  0  0  0
    9.3786  -15.2267   23.7239 C   0  0  0  0  0  0  0  0  0  0  0  0
   10.4074  -14.4809   23.9449 O   0  0  0  0  0  0  0  0  0  0  0  0
    9.6215  -19.0198   23.3410 C   0  0  0  0  0  0  0  0  0  0  0  0
    9.7537  -20.0063   24.2897 C   0  0  0  0  0  0  0  0  0  0  0  0
    8.1590  -11.6156   25.6049 C   0  0  0  0  0  0  0  0  0  0  0  0
    7.0599  -12.6802   25.6625 C   0  0  2  0  0  0  0  0  0  0  0  0
    5.7332  -12.0810   25.9047 C   0  0  0  0  0  0  0  0  0  0  0  0
    7.4559  -13.8732   26.4289 C   0  0  0  0  0  0  0  0  0  0  0  0
    8.6994  -14.5952   26.0589 C   0  0  2  0  0  0  0  0  0  0  0  0
    8.4280  -15.2291   24.7510 N   0  0  0  0  0  0  0  0  0  0  0  0
    9.1763  -15.6224   26.9681 C   0  0  0  0  0  0  0  0  0  0  0  0
    9.1293  -16.9910   26.7086 O   0  0  0  0  0  0  0  0  0  0  0  0
    9.6772  -15.3142   28.0903 O   0  0  0  0  0  0  0  0  0  0  0  0
  2  1  1  1
  3  2  1  0
  4 13  1  0
  4  2  1  0
  5  4  2  0
  7  6  1  0
  8  7  2  0
  9  8  1  0
 10 16  1  0
 10  9  2  0
 11 10  1  0
 12 11  1  6
 12 13  1  0
 14 23  1  0
 14 12  1  0
 15 14  2  0
 16 17  2  0
 17  7  1  0
 19 18  1  1
 19 21  1  0
 20 19  1  0
 22 21  1  1
 22 23  1  0
 22 24  1  0
 24 25  1  0
 26 24  2  0
M  END
$$$$
