AYL.pdb
     RDKit          3D

 26 26  0  0  1  0  0  0  0  0999 V2000
    7.5639  -14.3644   19.9954 C   0  0  0  0  0  0  0  0  0  0  0  0
    7.2973  -15.8175   20.3363 C   0  0  2  0  0  0  0  0  0  0  0  0
    6.1031  -16.2185   19.6371 N   0  0  0  0  0  0  0  0  0  0  0  0
    7.1305  -15.9925   21.8081 C   0  0  0  0  0  0  0  0  0  0  0  0
    6.1225  -15.5650   22.4180 O   0  0  0  0  0  0  0  0  0  0  0  0
    8.4752  -20.0576   29.6836 O   0  0  0  0  0  0  0  0  0  0  0  0
    8.4648  -19.6137   28.3542 C   0  0  0  0  0  0  0  0  0  0  0  0
    7.2888  -19.4410   27.6561 C   0  0  0  0  0  0  0  0  0  0  0  0
    7.2708  -19.0033   26.3439 C   0  0  0  0  0  0  0  0  0  0  0  0
    8.4621  -18.7213   25.6837 C   0  0  0  0  0  0  0  0  0  0  0  0
    8.4444  -18.2943   24.2811 C   0  0  0  0  0  0  0  0  0  0  0  0
    7.9883  -16.9203   24.0115 C   0  0  2  0  0  0  0  0  0  0  0  0
    8.1198  -16.6533   22.5560 N   0  0  0  0  0  0  0  0  0  0  0  0
    8.5255  -15.8098   24.7726 C   0  0  0  0  0  0  0  0  0  0  0  0
    9.7091  -15.4195   24.4408 O   0  0  0  0  0  0  0  0  0  0  0  0
    9.6221  -18.9012   26.4006 C   0  0  0  0  0  0  0  0  0  0  0  0
    9.6429  -19.3360   27.7048 C   0  0  0  0  0  0  0  0  0  0  0  0
    7.6434  -11.6583   24.9351 C   0  0  0  0  0  0  0  0  0  0  0  0
    6.8327  -12.3720   26.0205 C   0  0  2  0  0  0  0  0  0  0  0  0
    5.7061  -11.5436   26.4922 C   0  0  0  0  0  0  0  0  0  0  0  0
    7.6784  -13.0586   27.0107 C   0  0  0  0  0  0  0  0  0  0  0  0
    8.6931  -14.0377   26.5457 C   0  0  2  0  0  0  0  0  0  0  0  0
    7.9444  -15.0860   25.8200 N   0  0  0  0  0  0  0  0  0  0  0  0
    9.5141  -14.6853   27.5537 C   0  0  0  0  0  0  0  0  0  0  0  0
    9.4365  -16.0363   27.8874 O   0  0  0  0  0  0  0  0  0  0  0  0
   10.3758  -14.0276   28.2095 O   0  0  0  0  0  0  0  0  0  0  0  0
  2  1  1  1
  3  2  1  0
  4 13  1  0
  4  2  1  0
  5  4  2  0
  7  6  1  0
  8  7  2  0
  9  8  1  0
 10 16  1  0
 10  9  2  0
 11 10  1  0
 12 11  1  1
 12 13  1  0
 14 23  1  0
 14 12  1  0
 15 14  2  0
 16 17  2  0
 17  7  1  0
 19 18  1  1
 19 21  1  0
 20 19  1  0
 22 21  1  1
 22 23  1  0
 22 24  1  0
 24 25  1  0
 26 24  2  0
M  END
$$$$
