AYL.pdb
     RDKit          3D

 26 26  0  0  1  0  0  0  0  0999 V2000
    6.4264  -16.4313   19.3693 C   0  0  0  0  0  0  0  0  0  0  0  0
    7.6692  -16.2270   20.2135 C   0  0  2  0  0  0  0  0  0  0  0  0
    8.6187  -17.2469   19.8476 N   0  0  0  0  0  0  0  0  0  0  0  0
    7.3402  -16.3094   21.6660 C   0  0  0  0  0  0  0  0  0  0  0  0
    6.4739  -15.5733   22.1937 O   0  0  0  0  0  0  0  0  0  0  0  0
    8.1892  -19.8645   29.9253 O   0  0  0  0  0  0  0  0  0  0  0  0
    8.1388  -19.5783   28.5542 C   0  0  0  0  0  0  0  0  0  0  0  0
    6.9464  -19.3339   27.9074 C   0  0  0  0  0  0  0  0  0  0  0  0
    6.8890  -19.0507   26.5545 C   0  0  0  0  0  0  0  0  0  0  0  0
    8.0557  -19.0049   25.7988 C   0  0  0  0  0  0  0  0  0  0  0  0
    7.9909  -18.7427   24.3577 C   0  0  0  0  0  0  0  0  0  0  0  0
    7.7489  -17.3494   23.9470 C   0  0  2  0  0  0  0  0  0  0  0  0
    8.0079  -17.2323   22.4888 N   0  0  0  0  0  0  0  0  0  0  0  0
    8.3868  -16.2577   24.6558 C   0  0  0  0  0  0  0  0  0  0  0  0
    9.5693  -15.9383   24.2519 O   0  0  0  0  0  0  0  0  0  0  0  0
    9.2328  -19.2521   26.4661 C   0  0  0  0  0  0  0  0  0  0  0  0
    9.2929  -19.5337   27.8106 C   0  0  0  0  0  0  0  0  0  0  0  0
    7.2455  -12.0522   25.0262 C   0  0  0  0  0  0  0  0  0  0  0  0
    6.6928  -12.8358   26.2200 C   0  0  2  0  0  0  0  0  0  0  0  0
    5.6428  -12.0792   26.9292 C   0  0  0  0  0  0  0  0  0  0  0  0
    7.7439  -13.5054   27.0036 C   0  0  0  0  0  0  0  0  0  0  0  0
    8.7096  -14.3965   26.3123 C   0  0  2  0  0  0  0  0  0  0  0  0
    7.9051  -15.4862   25.7194 N   0  0  0  0  0  0  0  0  0  0  0  0
    9.7624  -14.9968   27.1127 C   0  0  0  0  0  0  0  0  0  0  0  0
   10.9346  -14.3455   27.4929 O   0  0  0  0  0  0  0  0  0  0  0  0
    9.6662  -16.1926   27.5202 O   0  0  0  0  0  0  0  0  0  0  0  0
  2  1  1  6
  3  2  1  0
  4 13  1  0
  4  2  1  0
  5  4  2  0
  7  6  1  0
  8  7  2  0
  9  8  1  0
 10 16  1  0
 10  9  2  0
 11 10  1  0
 12 11  1  1
 12 13  1  0
 14 23  1  0
 14 12  1  0
 15 14  2  0
 16 17  2  0
 17  7  1  0
 19 18  1  6
 19 21  1  0
 20 19  1  0
 22 21  1  1
 22 23  1  0
 22 24  1  0
 24 25  1  0
 26 24  2  0
M  END
$$$$
