AYL.pdb
     RDKit          3D

 26 26  0  0  1  0  0  0  0  0999 V2000
    6.6234  -15.1511   19.0966 C   0  0  0  0  0  0  0  0  0  0  0  0
    7.8766  -15.2066   19.9481 C   0  0  2  0  0  0  0  0  0  0  0  0
    8.7072  -16.2660   19.4348 N   0  0  0  0  0  0  0  0  0  0  0  0
    7.5326  -15.4521   21.3785 C   0  0  0  0  0  0  0  0  0  0  0  0
    6.7815  -14.6829   22.0226 O   0  0  0  0  0  0  0  0  0  0  0  0
    8.1317  -20.2381   29.0219 O   0  0  0  0  0  0  0  0  0  0  0  0
    8.0754  -19.7606   27.7054 C   0  0  0  0  0  0  0  0  0  0  0  0
    6.8773  -19.4626   27.0922 C   0  0  0  0  0  0  0  0  0  0  0  0
    6.8141  -18.9910   25.7933 C   0  0  0  0  0  0  0  0  0  0  0  0
    7.9805  -18.8021   25.0596 C   0  0  0  0  0  0  0  0  0  0  0  0
    7.9106  -18.3387   23.6702 C   0  0  0  0  0  0  0  0  0  0  0  0
    7.7323  -16.8920   23.4615 C   0  0  2  0  0  0  0  0  0  0  0  0
    8.0539  -16.5732   22.0466 N   0  0  0  0  0  0  0  0  0  0  0  0
    8.3772  -15.9415   24.3456 C   0  0  0  0  0  0  0  0  0  0  0  0
    9.6283  -15.7225   24.1214 O   0  0  0  0  0  0  0  0  0  0  0  0
    9.1633  -19.1061   25.6925 C   0  0  0  0  0  0  0  0  0  0  0  0
    9.2291  -19.5750   26.9833 C   0  0  0  0  0  0  0  0  0  0  0  0
    7.8809  -11.7354   24.6540 C   0  0  0  0  0  0  0  0  0  0  0  0
    6.9687  -12.3903   25.6950 C   0  0  2  0  0  0  0  0  0  0  0  0
    5.9386  -11.4531   26.1834 C   0  0  0  0  0  0  0  0  0  0  0  0
    7.7061  -13.2124   26.6685 C   0  0  0  0  0  0  0  0  0  0  0  0
    8.6535  -14.2451   26.1781 C   0  0  2  0  0  0  0  0  0  0  0  0
    7.8393  -15.2135   25.4130 N   0  0  0  0  0  0  0  0  0  0  0  0
    9.4176  -14.9816   27.1696 C   0  0  0  0  0  0  0  0  0  0  0  0
    9.0607  -16.2310   27.6739 O   0  0  0  0  0  0  0  0  0  0  0  0
   10.4897  -14.5052   27.6479 O   0  0  0  0  0  0  0  0  0  0  0  0
  2  1  1  6
  3  2  1  0
  4 13  1  0
  4  2  1  0
  5  4  2  0
  7  6  1  0
  8  7  2  0
  9  8  1  0
 10 16  1  0
 10  9  2  0
 11 10  1  0
 12 11  1  1
 12 13  1  0
 14 23  1  0
 14 12  1  0
 15 14  2  0
 16 17  2  0
 17  7  1  0
 19 18  1  1
 19 21  1  0
 20 19  1  0
 22 21  1  1
 22 23  1  0
 22 24  1  0
 24 25  1  0
 26 24  2  0
M  END
$$$$
