AYL.pdb
     RDKit          3D

 26 26  0  0  1  0  0  0  0  0999 V2000
   11.8377  -16.9648   19.3422 C   0  0  0  0  0  0  0  0  0  0  0  0
   11.6559  -17.6560   20.6794 C   0  0  2  0  0  0  0  0  0  0  0  0
   10.6457  -18.6698   20.5135 N   0  0  0  0  0  0  0  0  0  0  0  0
   11.2527  -16.6766   21.7296 C   0  0  0  0  0  0  0  0  0  0  0  0
   11.9646  -15.6883   22.0246 O   0  0  0  0  0  0  0  0  0  0  0  0
    7.2793  -12.9177   18.1442 O   0  0  0  0  0  0  0  0  0  0  0  0
    7.4837  -13.5615   19.3723 C   0  0  0  0  0  0  0  0  0  0  0  0
    8.0690  -12.9167   20.4408 C   0  0  0  0  0  0  0  0  0  0  0  0
    8.2740  -13.5457   21.6558 C   0  0  0  0  0  0  0  0  0  0  0  0
    7.8870  -14.8699   21.8326 C   0  0  0  0  0  0  0  0  0  0  0  0
    8.1393  -15.5477   23.1080 C   0  0  0  0  0  0  0  0  0  0  0  0
    9.5418  -15.8673   23.4235 C   0  0  2  0  0  0  0  0  0  0  0  0
   10.0425  -16.8452   22.4235 N   0  0  0  0  0  0  0  0  0  0  0  0
    9.9124  -16.2873   24.7603 C   0  0  0  0  0  0  0  0  0  0  0  0
   10.6914  -17.3127   24.8332 O   0  0  0  0  0  0  0  0  0  0  0  0
    7.3054  -15.4920   20.7524 C   0  0  0  0  0  0  0  0  0  0  0  0
    7.1005  -14.8693   19.5437 C   0  0  0  0  0  0  0  0  0  0  0  0
   11.4641  -13.5143   28.3063 C   0  0  0  0  0  0  0  0  0  0  0  0
    9.9920  -13.8749   28.0883 C   0  0  2  0  0  0  0  0  0  0  0  0
    9.0908  -12.8641   28.6750 C   0  0  0  0  0  0  0  0  0  0  0  0
    9.7105  -15.3017   28.3167 C   0  0  0  0  0  0  0  0  0  0  0  0
   10.0679  -16.2901   27.2679 C   0  0  2  0  0  0  0  0  0  0  0  0
    9.5532  -15.7382   25.9965 N   0  0  0  0  0  0  0  0  0  0  0  0
    9.5549  -17.6410   27.4142 C   0  0  0  0  0  0  0  0  0  0  0  0
   10.0961  -18.6039   28.2642 O   0  0  0  0  0  0  0  0  0  0  0  0
    8.5500  -18.0293   26.7474 O   0  0  0  0  0  0  0  0  0  0  0  0
  2  1  1  6
  3  2  1  0
  4 13  1  0
  4  2  1  0
  5  4  2  0
  7  6  1  0
  8  7  2  0
  9  8  1  0
 10 16  1  0
 10  9  2  0
 11 10  1  0
 12 11  1  1
 12 13  1  0
 14 23  1  0
 14 12  1  0
 15 14  2  0
 16 17  2  0
 17  7  1  0
 19 18  1  1
 19 21  1  0
 20 19  1  0
 22 21  1  1
 22 23  1  0
 22 24  1  0
 24 25  1  0
 26 24  2  0
M  END
$$$$
