AYL.pdb
     RDKit          3D

 26 26  0  0  1  0  0  0  0  0999 V2000
    8.3506  -18.9016   19.6054 C   0  0  0  0  0  0  0  0  0  0  0  0
    8.2494  -18.6601   21.0989 C   0  0  2  0  0  0  0  0  0  0  0  0
    6.8517  -18.6629   21.4484 N   0  0  0  0  0  0  0  0  0  0  0  0
    8.8826  -17.3610   21.4677 C   0  0  0  0  0  0  0  0  0  0  0  0
   10.1107  -17.1561   21.3242 O   0  0  0  0  0  0  0  0  0  0  0  0
    7.6893  -13.7775   16.1348 O   0  0  0  0  0  0  0  0  0  0  0  0
    7.7223  -13.8089   17.5356 C   0  0  0  0  0  0  0  0  0  0  0  0
    8.4763  -12.9138   18.2638 C   0  0  0  0  0  0  0  0  0  0  0  0
    8.5138  -12.9388   19.6465 C   0  0  0  0  0  0  0  0  0  0  0  0
    7.7773  -13.8862   20.3497 C   0  0  0  0  0  0  0  0  0  0  0  0
    7.8475  -13.9366   21.8134 C   0  0  0  0  0  0  0  0  0  0  0  0
    8.6680  -15.0087   22.4017 C   0  0  2  0  0  0  0  0  0  0  0  0
    8.0998  -16.3195   21.9941 N   0  0  0  0  0  0  0  0  0  0  0  0
    8.9577  -15.0109   23.8219 C   0  0  0  0  0  0  0  0  0  0  0  0
    9.8835  -14.2009   24.2094 O   0  0  0  0  0  0  0  0  0  0  0  0
    7.0330  -14.7683   19.6015 C   0  0  0  0  0  0  0  0  0  0  0  0
    6.9939  -14.7458   18.2272 C   0  0  0  0  0  0  0  0  0  0  0  0
    8.5321  -12.4691   27.0568 C   0  0  0  0  0  0  0  0  0  0  0  0
    7.3786  -13.3005   26.4883 C   0  0  2  0  0  0  0  0  0  0  0  0
    6.0769  -12.6346   26.6883 C   0  0  0  0  0  0  0  0  0  0  0  0
    7.5013  -14.7358   26.7921 C   0  0  0  0  0  0  0  0  0  0  0  0
    8.6678  -15.4920   26.2707 C   0  0  2  0  0  0  0  0  0  0  0  0
    8.3736  -15.7632   24.8473 N   0  0  0  0  0  0  0  0  0  0  0  0
    8.9927  -16.7536   26.9128 C   0  0  0  0  0  0  0  0  0  0  0  0
    9.5679  -16.8717   28.1769 O   0  0  0  0  0  0  0  0  0  0  0  0
    8.7629  -17.8557   26.3316 O   0  0  0  0  0  0  0  0  0  0  0  0
  2  1  1  6
  3  2  1  0
  4 13  1  0
  4  2  1  0
  5  4  2  0
  7  6  1  0
  8  7  2  0
  9  8  1  0
 10 16  1  0
 10  9  2  0
 11 10  1  0
 12 11  1  1
 12 13  1  0
 14 23  1  0
 14 12  1  0
 15 14  2  0
 16 17  2  0
 17  7  1  0
 19 18  1  1
 19 21  1  0
 20 19  1  0
 22 21  1  1
 22 23  1  0
 22 24  1  0
 24 25  1  0
 26 24  2  0
M  END
$$$$
