AYL.pdb
     RDKit          3D

 26 26  0  0  1  0  0  0  0  0999 V2000
    8.5455  -20.8847   21.5837 C   0  0  0  0  0  0  0  0  0  0  0  0
    8.5292  -20.1224   22.8943 C   0  0  2  0  0  0  0  0  0  0  0  0
    7.1897  -20.1869   23.4208 N   0  0  0  0  0  0  0  0  0  0  0  0
    8.9463  -18.7055   22.6862 C   0  0  0  0  0  0  0  0  0  0  0  0
   10.1223  -18.3971   22.3821 O   0  0  0  0  0  0  0  0  0  0  0  0
    8.4989  -11.8881   17.8254 O   0  0  0  0  0  0  0  0  0  0  0  0
    8.1994  -12.7942   18.8519 C   0  0  0  0  0  0  0  0  0  0  0  0
    8.0741  -14.1459   18.6127 C   0  0  0  0  0  0  0  0  0  0  0  0
    7.7787  -15.0461   19.6207 C   0  0  0  0  0  0  0  0  0  0  0  0
    7.5974  -14.6009   20.9258 C   0  0  0  0  0  0  0  0  0  0  0  0
    7.2466  -15.5504   21.9867 C   0  0  0  0  0  0  0  0  0  0  0  0
    8.3631  -16.2335   22.6615 C   0  0  2  0  0  0  0  0  0  0  0  0
    8.0107  -17.6669   22.8296 N   0  0  0  0  0  0  0  0  0  0  0  0
    8.9027  -15.7044   23.8983 C   0  0  0  0  0  0  0  0  0  0  0  0
    9.7671  -14.7551   23.7755 O   0  0  0  0  0  0  0  0  0  0  0  0
    7.7275  -13.2484   21.1397 C   0  0  0  0  0  0  0  0  0  0  0  0
    8.0210  -12.3514   20.1398 C   0  0  0  0  0  0  0  0  0  0  0  0
    8.9702  -12.2052   26.2316 C   0  0  0  0  0  0  0  0  0  0  0  0
    7.7372  -13.1084   26.1382 C   0  0  2  0  0  0  0  0  0  0  0  0
    6.4935  -12.3622   26.4106 C   0  0  0  0  0  0  0  0  0  0  0  0
    7.9372  -14.4206   26.7748 C   0  0  0  0  0  0  0  0  0  0  0  0
    9.0912  -15.2596   26.3639 C   0  0  2  0  0  0  0  0  0  0  0  0
    8.6192  -16.0683   25.2196 N   0  0  0  0  0  0  0  0  0  0  0  0
    9.6525  -16.1623   27.3536 C   0  0  0  0  0  0  0  0  0  0  0  0
    9.7898  -17.5384   27.1801 O   0  0  0  0  0  0  0  0  0  0  0  0
   10.0600  -15.7273   28.4716 O   0  0  0  0  0  0  0  0  0  0  0  0
  2  1  1  6
  3  2  1  0
  4 13  1  0
  4  2  1  0
  5  4  2  0
  7  6  1  0
  8  7  2  0
  9  8  1  0
 10 16  1  0
 10  9  2  0
 11 10  1  0
 12 11  1  1
 12 13  1  0
 14 23  1  0
 14 12  1  0
 15 14  2  0
 16 17  2  0
 17  7  1  0
 19 18  1  1
 19 21  1  0
 20 19  1  0
 22 21  1  1
 22 23  1  0
 22 24  1  0
 24 25  1  0
 26 24  2  0
M  END
$$$$
