FAF.pdb
     RDKit          3D

 28 29  0  0  1  0  0  0  0  0999 V2000
   29.4352  -23.2839  -17.5573 N   0  0  0  0  0  0  0  0  0  0  0  0
   28.4082  -22.2722  -17.5133 C   0  0  1  0  0  0  0  0  0  0  0  0
   27.0966  -22.9392  -17.9347 C   0  0  0  0  0  0  0  0  0  0  0  0
   26.8632  -22.8013  -19.3943 C   0  0  0  0  0  0  0  0  0  0  0  0
   26.5190  -21.5833  -19.9605 C   0  0  0  0  0  0  0  0  0  0  0  0
   26.3151  -21.5185  -21.3216 C   0  0  0  0  0  0  0  0  0  0  0  0
   26.4475  -22.6393  -22.1234 C   0  0  0  0  0  0  0  0  0  0  0  0
   26.7884  -23.8453  -21.5616 C   0  0  0  0  0  0  0  0  0  0  0  0
   26.9906  -23.8984  -20.1942 C   0  0  0  0  0  0  0  0  0  0  0  0
   28.2030  -21.7562  -16.1352 C   0  0  0  0  0  0  0  0  0  0  0  0
   28.3539  -22.5613  -15.1893 O   0  0  0  0  0  0  0  0  0  0  0  0
   27.5794  -18.3722  -14.5539 C   0  0  0  0  0  0  0  0  0  0  0  0
   27.7427  -19.8947  -14.5268 C   0  0  2  0  0  0  0  0  0  0  0  0
   27.8514  -20.4186  -15.8621 N   0  0  0  0  0  0  0  0  0  0  0  0
   26.5887  -20.4333  -13.7902 C   0  0  0  0  0  0  0  0  0  0  0  0
   25.5568  -20.7320  -14.4384 O   0  0  0  0  0  0  0  0  0  0  0  0
   26.5248  -20.6518  -12.4009 N   0  0  0  0  0  0  0  0  0  0  0  0
   25.4246  -21.2408  -11.7200 C   0  0  1  0  0  0  0  0  0  0  0  0
   25.6317  -21.8447  -10.4139 C   0  0  0  0  0  0  0  0  0  0  0  0
   26.4943  -21.0233   -9.4990 C   0  0  0  0  0  0  0  0  0  0  0  0
   26.0168  -19.9692   -8.7523 C   0  0  0  0  0  0  0  0  0  0  0  0
   26.8144  -19.2185   -7.9218 C   0  0  0  0  0  0  0  0  0  0  0  0
   28.1504  -19.5007   -7.8039 C   0  0  0  0  0  0  0  0  0  0  0  0
   28.6373  -20.5541   -8.5472 C   0  0  0  0  0  0  0  0  0  0  0  0
   27.8522  -21.3127   -9.3812 C   0  0  0  0  0  0  0  0  0  0  0  0
   24.3299  -20.2431  -11.6203 C   0  0  0  0  0  0  0  0  0  0  0  0
   24.5455  -18.9997  -11.7303 O   0  0  0  0  0  0  0  0  0  0  0  0
   22.9948  -20.5877  -11.4025 O   0  0  0  0  0  0  0  0  0  0  0  0
  2  1  1  1
  2 10  1  0
  3  2  1  0
  3  4  1  0
  4  9  1  0
  5  4  2  0
  5  6  1  0
  6  7  2  0
  7  8  1  0
  9  8  2  0
 10 14  1  0
 10 11  2  0
 13 12  1  6
 13 15  1  0
 14 13  1  0
 15 16  2  0
 17 18  1  0
 17 15  1  0
 18 19  1  1
 20 19  1  0
 21 20  2  0
 22 21  1  0
 23 24  1  0
 23 22  2  0
 24 25  2  0
 25 20  1  0
 26 18  1  0
 26 28  1  0
 27 26  2  0
M  END
$$$$
