FAF.pdb
     RDKit          3D

 28 29  0  0  1  0  0  0  0  0999 V2000
   25.1536  -17.9782  -15.4008 N   0  0  0  0  0  0  0  0  0  0  0  0
   26.2168  -18.4703  -14.5598 C   0  0  1  0  0  0  0  0  0  0  0  0
   27.1530  -17.2928  -14.2772 C   0  0  0  0  0  0  0  0  0  0  0  0
   27.9923  -16.9721  -15.4590 C   0  0  0  0  0  0  0  0  0  0  0  0
   27.8142  -15.7990  -16.1764 C   0  0  0  0  0  0  0  0  0  0  0  0
   28.6244  -15.5573  -17.2644 C   0  0  0  0  0  0  0  0  0  0  0  0
   29.6028  -16.4586  -17.6474 C   0  0  0  0  0  0  0  0  0  0  0  0
   29.7784  -17.6203  -16.9361 C   0  0  0  0  0  0  0  0  0  0  0  0
   28.9593  -17.8523  -15.8458 C   0  0  0  0  0  0  0  0  0  0  0  0
   25.7067  -18.9372  -13.2449 C   0  0  0  0  0  0  0  0  0  0  0  0
   24.8881  -18.2017  -12.6494 O   0  0  0  0  0  0  0  0  0  0  0  0
   24.9669  -22.0220  -11.5646 C   0  0  0  0  0  0  0  0  0  0  0  0
   25.5802  -20.6280  -11.4037 C   0  0  2  0  0  0  0  0  0  0  0  0
   26.1048  -20.1552  -12.6570 N   0  0  0  0  0  0  0  0  0  0  0  0
   26.6058  -20.7330  -10.3542 C   0  0  0  0  0  0  0  0  0  0  0  0
   27.7764  -21.0295  -10.6949 O   0  0  0  0  0  0  0  0  0  0  0  0
   26.4011  -20.5297   -8.9763 N   0  0  0  0  0  0  0  0  0  0  0  0
   26.9728  -21.3217   -7.9435 C   0  0  1  0  0  0  0  0  0  0  0  0
   28.3285  -21.0454   -7.4971 C   0  0  0  0  0  0  0  0  0  0  0  0
   28.3947  -20.2621   -6.2173 C   0  0  0  0  0  0  0  0  0  0  0  0
   28.8286  -20.7963   -5.0244 C   0  0  0  0  0  0  0  0  0  0  0  0
   28.8804  -20.0741   -3.8560 C   0  0  0  0  0  0  0  0  0  0  0  0
   28.4916  -18.7600   -3.8364 C   0  0  0  0  0  0  0  0  0  0  0  0
   28.0561  -18.2167   -5.0257 C   0  0  0  0  0  0  0  0  0  0  0  0
   27.9988  -18.9263   -6.2007 C   0  0  0  0  0  0  0  0  0  0  0  0
   26.0670  -21.3067   -6.7676 C   0  0  0  0  0  0  0  0  0  0  0  0
   24.9775  -20.6605   -6.7703 O   0  0  0  0  0  0  0  0  0  0  0  0
   26.3362  -21.9934   -5.5824 O   0  0  0  0  0  0  0  0  0  0  0  0
  2  1  1  6
  2 10  1  0
  3  2  1  0
  3  4  1  0
  4  9  1  0
  5  4  2  0
  5  6  1  0
  6  7  2  0
  7  8  1  0
  9  8  2  0
 10 14  1  0
 10 11  2  0
 13 12  1  6
 13 15  1  0
 14 13  1  0
 15 16  2  0
 17 18  1  0
 17 15  1  0
 18 19  1  1
 20 19  1  0
 21 20  2  0
 22 21  1  0
 23 24  1  0
 23 22  2  0
 24 25  2  0
 25 20  1  0
 26 18  1  0
 26 28  1  0
 27 26  2  0
M  END
$$$$
