FAF.pdb
     RDKit          3D

 28 29  0  0  1  0  0  0  0  0999 V2000
   22.3373   -9.9746  -21.4286 N   0  0  0  0  0  0  0  0  0  0  0  0
   22.3102  -10.4533  -20.0684 C   0  0  1  0  0  0  0  0  0  0  0  0
   23.7555  -10.7552  -19.6653 C   0  0  0  0  0  0  0  0  0  0  0  0
   24.2873  -11.9327  -20.3965 C   0  0  0  0  0  0  0  0  0  0  0  0
   23.9123  -13.2242  -20.0591 C   0  0  0  0  0  0  0  0  0  0  0  0
   24.4400  -14.2766  -20.7749 C   0  0  0  0  0  0  0  0  0  0  0  0
   25.3294  -14.0658  -21.8146 C   0  0  0  0  0  0  0  0  0  0  0  0
   25.7003  -12.7861  -22.1480 C   0  0  0  0  0  0  0  0  0  0  0  0
   25.1641  -11.7374  -21.4225 C   0  0  0  0  0  0  0  0  0  0  0  0
   21.8115   -9.4152  -19.1298 C   0  0  0  0  0  0  0  0  0  0  0  0
   22.2780   -8.2599  -19.2465 O   0  0  0  0  0  0  0  0  0  0  0  0
   19.1265   -9.2024  -16.4684 C   0  0  0  0  0  0  0  0  0  0  0  0
   20.3119   -8.6614  -17.2731 C   0  0  2  0  0  0  0  0  0  0  0  0
   20.8509   -9.6811  -18.1329 N   0  0  0  0  0  0  0  0  0  0  0  0
   21.2909   -8.1538  -16.2994 C   0  0  0  0  0  0  0  0  0  0  0  0
   22.1153   -8.9626  -15.8089 O   0  0  0  0  0  0  0  0  0  0  0  0
   21.3979   -6.8229  -15.8533 N   0  0  0  0  0  0  0  0  0  0  0  0
   22.4505   -6.3194  -15.0412 C   0  0  1  0  0  0  0  0  0  0  0  0
   23.6618   -5.8179  -15.6695 C   0  0  0  0  0  0  0  0  0  0  0  0
   23.4149   -4.7243  -16.6690 C   0  0  0  0  0  0  0  0  0  0  0  0
   23.2150   -4.9568  -18.0117 C   0  0  0  0  0  0  0  0  0  0  0  0
   22.9956   -3.9495  -18.9209 C   0  0  0  0  0  0  0  0  0  0  0  0
   22.9670   -2.6417  -18.5120 C   0  0  0  0  0  0  0  0  0  0  0  0
   23.1658   -2.3993  -17.1700 C   0  0  0  0  0  0  0  0  0  0  0  0
   23.3863   -3.3957  -16.2502 C   0  0  0  0  0  0  0  0  0  0  0  0
   21.9059   -5.2714  -14.1420 C   0  0  0  0  0  0  0  0  0  0  0  0
   22.5854   -4.7885  -13.1883 O   0  0  0  0  0  0  0  0  0  0  0  0
   20.6218   -4.7395  -14.2725 O   0  0  0  0  0  0  0  0  0  0  0  0
  2  1  1  6
  2 10  1  0
  3  2  1  0
  3  4  1  0
  4  9  1  0
  5  4  2  0
  5  6  1  0
  6  7  2  0
  7  8  1  0
  9  8  2  0
 10 14  1  0
 10 11  2  0
 13 12  1  1
 13 15  1  0
 14 13  1  0
 15 16  2  0
 17 18  1  0
 17 15  1  0
 18 19  1  6
 20 19  1  0
 21 20  2  0
 22 21  1  0
 23 24  1  0
 23 22  2  0
 24 25  2  0
 25 20  1  0
 26 18  1  0
 26 28  1  0
 27 26  2  0
M  END
$$$$
