FAF.pdb
     RDKit          3D

 28 29  0  0  1  0  0  0  0  0999 V2000
   25.3099  -21.5391  -15.6051 N   0  0  0  0  0  0  0  0  0  0  0  0
   25.7680  -22.3916  -16.6744 C   0  0  1  0  0  0  0  0  0  0  0  0
   26.4808  -21.4982  -17.6925 C   0  0  0  0  0  0  0  0  0  0  0  0
   25.5649  -21.0843  -18.7852 C   0  0  0  0  0  0  0  0  0  0  0  0
   24.9471  -19.8431  -18.7806 C   0  0  0  0  0  0  0  0  0  0  0  0
   24.1073  -19.5162  -19.8230 C   0  0  0  0  0  0  0  0  0  0  0  0
   23.8741  -20.3993  -20.8633 C   0  0  0  0  0  0  0  0  0  0  0  0
   24.4866  -21.6285  -20.8669 C   0  0  0  0  0  0  0  0  0  0  0  0
   25.3275  -21.9458  -19.8153 C   0  0  0  0  0  0  0  0  0  0  0  0
   26.7684  -23.3815  -16.1986 C   0  0  0  0  0  0  0  0  0  0  0  0
   27.5379  -23.0271  -15.2777 O   0  0  0  0  0  0  0  0  0  0  0  0
   27.4322  -27.0596  -16.6914 C   0  0  0  0  0  0  0  0  0  0  0  0
   27.8350  -25.6448  -16.2656 C   0  0  2  0  0  0  0  0  0  0  0  0
   26.8784  -24.6796  -16.7376 N   0  0  0  0  0  0  0  0  0  0  0  0
   29.1908  -25.4131  -16.7877 C   0  0  0  0  0  0  0  0  0  0  0  0
   29.3106  -24.8298  -17.8921 O   0  0  0  0  0  0  0  0  0  0  0  0
   30.3931  -25.7884  -16.1588 N   0  0  0  0  0  0  0  0  0  0  0  0
   31.6902  -25.6133  -16.7135 C   0  0  1  0  0  0  0  0  0  0  0  0
   32.8561  -25.7037  -15.8497 C   0  0  0  0  0  0  0  0  0  0  0  0
   34.1573  -25.4841  -16.5670 C   0  0  0  0  0  0  0  0  0  0  0  0
   34.4692  -24.3175  -17.2292 C   0  0  0  0  0  0  0  0  0  0  0  0
   35.6603  -24.1269  -17.8884 C   0  0  0  0  0  0  0  0  0  0  0  0
   36.6059  -25.1186  -17.9105 C   0  0  0  0  0  0  0  0  0  0  0  0
   36.3026  -26.2898  -17.2503 C   0  0  0  0  0  0  0  0  0  0  0  0
   35.1167  -26.4943  -16.5876 C   0  0  0  0  0  0  0  0  0  0  0  0
   31.8593  -26.5541  -17.8493 C   0  0  0  0  0  0  0  0  0  0  0  0
   31.5304  -27.7743  -17.7624 O   0  0  0  0  0  0  0  0  0  0  0  0
   32.3845  -26.1772  -19.0866 O   0  0  0  0  0  0  0  0  0  0  0  0
  2  1  1  1
  2 10  1  0
  3  2  1  0
  3  4  1  0
  4  9  1  0
  5  4  2  0
  5  6  1  0
  6  7  2  0
  7  8  1  0
  9  8  2  0
 10 14  1  0
 10 11  2  0
 13 12  1  6
 13 15  1  0
 14 13  1  0
 15 16  2  0
 17 18  1  0
 17 15  1  0
 18 19  1  1
 20 19  1  0
 21 20  2  0
 22 21  1  0
 23 24  1  0
 23 22  2  0
 24 25  2  0
 25 20  1  0
 26 18  1  0
 26 28  1  0
 27 26  2  0
M  END
$$$$
