FAF.pdb
     RDKit          3D

 28 29  0  0  1  0  0  0  0  0999 V2000
   29.2127  -27.3450  -16.5732 N   0  0  0  0  0  0  0  0  0  0  0  0
   27.9827  -27.0918  -17.2826 C   0  0  1  0  0  0  0  0  0  0  0  0
   27.1701  -28.3887  -17.2578 C   0  0  0  0  0  0  0  0  0  0  0  0
   27.5447  -29.2843  -18.3810 C   0  0  0  0  0  0  0  0  0  0  0  0
   28.2846  -30.4380  -18.1709 C   0  0  0  0  0  0  0  0  0  0  0  0
   28.6015  -31.2291  -19.2536 C   0  0  0  0  0  0  0  0  0  0  0  0
   28.1964  -30.8927  -20.5339 C   0  0  0  0  0  0  0  0  0  0  0  0
   27.4636  -29.7497  -20.7409 C   0  0  0  0  0  0  0  0  0  0  0  0
   27.1514  -28.9632  -19.6465 C   0  0  0  0  0  0  0  0  0  0  0  0
   27.1596  -26.0574  -16.6045 C   0  0  0  0  0  0  0  0  0  0  0  0
   27.3655  -25.8641  -15.3854 O   0  0  0  0  0  0  0  0  0  0  0  0
   24.9679  -23.2065  -17.6276 C   0  0  0  0  0  0  0  0  0  0  0  0
   25.3968  -24.2807  -16.6240 C   0  0  2  0  0  0  0  0  0  0  0  0
   26.1750  -25.3018  -17.2730 N   0  0  0  0  0  0  0  0  0  0  0  0
   24.1672  -24.8008  -16.0060 C   0  0  0  0  0  0  0  0  0  0  0  0
   23.6260  -25.8104  -16.5178 O   0  0  0  0  0  0  0  0  0  0  0  0
   23.5231  -24.2677  -14.8734 N   0  0  0  0  0  0  0  0  0  0  0  0
   22.3321  -24.7861  -14.2957 C   0  0  1  0  0  0  0  0  0  0  0  0
   21.9638  -24.3965  -12.9444 C   0  0  0  0  0  0  0  0  0  0  0  0
   20.6916  -25.0304  -12.4591 C   0  0  0  0  0  0  0  0  0  0  0  0
   19.4658  -24.4049  -12.5124 C   0  0  0  0  0  0  0  0  0  0  0  0
   18.3069  -24.9899  -12.0605 C   0  0  0  0  0  0  0  0  0  0  0  0
   18.3310  -26.2517  -11.5261 C   0  0  0  0  0  0  0  0  0  0  0  0
   19.5533  -26.8857  -11.4687 C   0  0  0  0  0  0  0  0  0  0  0  0
   20.7193  -26.3135  -11.9164 C   0  0  0  0  0  0  0  0  0  0  0  0
   21.1933  -24.5033  -15.2049 C   0  0  0  0  0  0  0  0  0  0  0  0
   21.0365  -23.3702  -15.7490 O   0  0  0  0  0  0  0  0  0  0  0  0
   20.2185  -25.4479  -15.5310 O   0  0  0  0  0  0  0  0  0  0  0  0
  2  1  1  1
  2 10  1  0
  3  2  1  0
  3  4  1  0
  4  9  1  0
  5  4  2  0
  5  6  1  0
  6  7  2  0
  7  8  1  0
  9  8  2  0
 10 14  1  0
 10 11  2  0
 13 12  1  6
 13 15  1  0
 14 13  1  0
 15 16  2  0
 17 18  1  0
 17 15  1  0
 18 19  1  1
 20 19  1  0
 21 20  2  0
 22 21  1  0
 23 24  1  0
 23 22  2  0
 24 25  2  0
 25 20  1  0
 26 18  1  0
 26 28  1  0
 27 26  2  0
M  END
$$$$
