FAF.pdb
     RDKit          3D

 28 29  0  0  1  0  0  0  0  0999 V2000
   22.9190   -7.2723  -13.7045 N   0  0  0  0  0  0  0  0  0  0  0  0
   21.5024   -7.4070  -13.9395 C   0  0  1  0  0  0  0  0  0  0  0  0
   21.0786   -8.7693  -13.3851 C   0  0  0  0  0  0  0  0  0  0  0  0
   21.5710   -9.8790  -14.2395 C   0  0  0  0  0  0  0  0  0  0  0  0
   21.1375  -10.0326  -15.5475 C   0  0  0  0  0  0  0  0  0  0  0  0
   21.6307  -11.0827  -16.2909 C   0  0  0  0  0  0  0  0  0  0  0  0
   22.5427  -11.9768  -15.7567 C   0  0  0  0  0  0  0  0  0  0  0  0
   22.9714  -11.8238  -14.4609 C   0  0  0  0  0  0  0  0  0  0  0  0
   22.4695  -10.7660  -13.7242 C   0  0  0  0  0  0  0  0  0  0  0  0
   20.7222   -6.3818  -13.1997 C   0  0  0  0  0  0  0  0  0  0  0  0
   21.0597   -6.1407  -12.0192 O   0  0  0  0  0  0  0  0  0  0  0  0
   18.0173   -3.8716  -14.0135 C   0  0  0  0  0  0  0  0  0  0  0  0
   18.8761   -4.6982  -13.0520 C   0  0  2  0  0  0  0  0  0  0  0  0
   19.6371   -5.6855  -13.7700 N   0  0  0  0  0  0  0  0  0  0  0  0
   17.9603   -5.2864  -12.0622 C   0  0  0  0  0  0  0  0  0  0  0  0
   17.2742   -6.2797  -12.4041 O   0  0  0  0  0  0  0  0  0  0  0  0
   17.7725   -4.8368  -10.7414 N   0  0  0  0  0  0  0  0  0  0  0  0
   16.9267   -5.4589   -9.7830 C   0  0  1  0  0  0  0  0  0  0  0  0
   17.0112   -5.0593   -8.3877 C   0  0  0  0  0  0  0  0  0  0  0  0
   16.5520   -3.6519   -8.1341 C   0  0  0  0  0  0  0  0  0  0  0  0
   15.3147   -3.3411   -7.6153 C   0  0  0  0  0  0  0  0  0  0  0  0
   14.9000   -2.0498   -7.3917 C   0  0  0  0  0  0  0  0  0  0  0  0
   15.7263   -0.9966   -7.6852 C   0  0  0  0  0  0  0  0  0  0  0  0
   16.9668   -1.2979   -8.2046 C   0  0  0  0  0  0  0  0  0  0  0  0
   17.3945   -2.5832   -8.4333 C   0  0  0  0  0  0  0  0  0  0  0  0
   15.5175   -5.3374  -10.2335 C   0  0  0  0  0  0  0  0  0  0  0  0
   15.1451   -4.4236  -11.0277 O   0  0  0  0  0  0  0  0  0  0  0  0
   14.5040   -6.2069   -9.8267 O   0  0  0  0  0  0  0  0  0  0  0  0
  2  1  1  1
  2 10  1  0
  3  2  1  0
  3  4  1  0
  4  9  1  0
  5  4  2  0
  5  6  1  0
  6  7  2  0
  7  8  1  0
  9  8  2  0
 10 14  1  0
 10 11  2  0
 13 12  1  6
 13 15  1  0
 14 13  1  0
 15 16  2  0
 17 18  1  0
 17 15  1  0
 18 19  1  1
 20 19  1  0
 21 20  2  0
 22 21  1  0
 23 24  1  0
 23 22  2  0
 24 25  2  0
 25 20  1  0
 26 18  1  0
 26 28  1  0
 27 26  2  0
M  END
$$$$
