FAF.pdb
     RDKit          3D

 28 29  0  0  1  0  0  0  0  0999 V2000
   28.0135  -18.8207  -16.3653 N   0  0  0  0  0  0  0  0  0  0  0  0
   27.3959  -19.5808  -15.3065 C   0  0  1  0  0  0  0  0  0  0  0  0
   27.7428  -18.8855  -13.9878 C   0  0  0  0  0  0  0  0  0  0  0  0
   27.1713  -19.6115  -12.8257 C   0  0  0  0  0  0  0  0  0  0  0  0
   26.0243  -19.1659  -12.1867 C   0  0  0  0  0  0  0  0  0  0  0  0
   25.5420  -19.8826  -11.1133 C   0  0  0  0  0  0  0  0  0  0  0  0
   26.1789  -21.0285  -10.6684 C   0  0  0  0  0  0  0  0  0  0  0  0
   27.3150  -21.4690  -11.3020 C   0  0  0  0  0  0  0  0  0  0  0  0
   27.7900  -20.7415  -12.3785 C   0  0  0  0  0  0  0  0  0  0  0  0
   25.9143  -19.5749  -15.4171 C   0  0  0  0  0  0  0  0  0  0  0  0
   25.3413  -18.4626  -15.4309 O   0  0  0  0  0  0  0  0  0  0  0  0
   23.2599  -21.7127  -16.7266 C   0  0  0  0  0  0  0  0  0  0  0  0
   23.7142  -20.7496  -15.6259 C   0  0  2  0  0  0  0  0  0  0  0  0
   25.1477  -20.7546  -15.5053 N   0  0  0  0  0  0  0  0  0  0  0  0
   23.0319  -21.1637  -14.3901 C   0  0  0  0  0  0  0  0  0  0  0  0
   23.4794  -22.1576  -13.7686 O   0  0  0  0  0  0  0  0  0  0  0  0
   21.9028  -20.5432  -13.8226 N   0  0  0  0  0  0  0  0  0  0  0  0
   21.3099  -20.9098  -12.5837 C   0  0  1  0  0  0  0  0  0  0  0  0
   21.0337  -19.8840  -11.5912 C   0  0  0  0  0  0  0  0  0  0  0  0
   20.1102  -18.8048  -12.0794 C   0  0  0  0  0  0  0  0  0  0  0  0
   18.7642  -18.7721  -11.7901 C   0  0  0  0  0  0  0  0  0  0  0  0
   17.9246  -17.7838  -12.2459 C   0  0  0  0  0  0  0  0  0  0  0  0
   18.4111  -16.7674  -13.0262 C   0  0  0  0  0  0  0  0  0  0  0  0
   19.7572  -16.7917  -13.3209 C   0  0  0  0  0  0  0  0  0  0  0  0
   20.6078  -17.7728  -12.8724 C   0  0  0  0  0  0  0  0  0  0  0  0
   20.0618  -21.6671  -12.8525 C   0  0  0  0  0  0  0  0  0  0  0  0
   19.4645  -21.5989  -13.9675 O   0  0  0  0  0  0  0  0  0  0  0  0
   19.4547  -22.5041  -11.9146 O   0  0  0  0  0  0  0  0  0  0  0  0
  2  1  1  6
  2 10  1  0
  3  2  1  0
  3  4  1  0
  4  9  1  0
  5  4  2  0
  5  6  1  0
  6  7  2  0
  7  8  1  0
  9  8  2  0
 10 14  1  0
 10 11  2  0
 13 12  1  6
 13 15  1  0
 14 13  1  0
 15 16  2  0
 17 18  1  0
 17 15  1  0
 18 19  1  1
 20 19  1  0
 21 20  2  0
 22 21  1  0
 23 24  1  0
 23 22  2  0
 24 25  2  0
 25 20  1  0
 26 18  1  0
 26 28  1  0
 27 26  2  0
M  END
$$$$
