FAF.pdb
     RDKit          3D

 28 29  0  0  1  0  0  0  0  0999 V2000
   26.6362  -17.8653  -14.8778 N   0  0  0  0  0  0  0  0  0  0  0  0
   25.7434  -17.7115  -13.7555 C   0  0  1  0  0  0  0  0  0  0  0  0
   24.3640  -17.3607  -14.3187 C   0  0  0  0  0  0  0  0  0  0  0  0
   24.4385  -16.2159  -15.2609 C   0  0  0  0  0  0  0  0  0  0  0  0
   24.0777  -16.3500  -16.5929 C   0  0  0  0  0  0  0  0  0  0  0  0
   24.1686  -15.2508  -17.4187 C   0  0  0  0  0  0  0  0  0  0  0  0
   24.6100  -14.0279  -16.9432 C   0  0  0  0  0  0  0  0  0  0  0  0
   24.9672  -13.8961  -15.6236 C   0  0  0  0  0  0  0  0  0  0  0  0
   24.8719  -15.0063  -14.8039 C   0  0  0  0  0  0  0  0  0  0  0  0
   25.5873  -18.9805  -12.9990 C   0  0  0  0  0  0  0  0  0  0  0  0
   24.5727  -19.1003  -12.2765 O   0  0  0  0  0  0  0  0  0  0  0  0
   27.3246  -22.3257  -12.7962 C   0  0  0  0  0  0  0  0  0  0  0  0
   26.4430  -21.2055  -12.2365 C   0  0  2  0  0  0  0  0  0  0  0  0
   26.5233  -20.0326  -13.0655 N   0  0  0  0  0  0  0  0  0  0  0  0
   26.8873  -20.9645  -10.8549 C   0  0  0  0  0  0  0  0  0  0  0  0
   27.8274  -20.1554  -10.6656 O   0  0  0  0  0  0  0  0  0  0  0  0
   26.3517  -21.5636   -9.6990 N   0  0  0  0  0  0  0  0  0  0  0  0
   26.6537  -21.1727   -8.3659 C   0  0  1  0  0  0  0  0  0  0  0  0
   27.3780  -19.9345   -8.1300 C   0  0  0  0  0  0  0  0  0  0  0  0
   27.9311  -19.8144   -6.7387 C   0  0  0  0  0  0  0  0  0  0  0  0
   28.0954  -20.8896   -5.8940 C   0  0  0  0  0  0  0  0  0  0  0  0
   28.5968  -20.7702   -4.6197 C   0  0  0  0  0  0  0  0  0  0  0  0
   28.9613  -19.5427   -4.1312 C   0  0  0  0  0  0  0  0  0  0  0  0
   28.8006  -18.4607   -4.9696 C   0  0  0  0  0  0  0  0  0  0  0  0
   28.3008  -18.5650   -6.2451 C   0  0  0  0  0  0  0  0  0  0  0  0
   25.3985  -21.1539   -7.5736 C   0  0  0  0  0  0  0  0  0  0  0  0
   24.3219  -20.6732   -8.0366 O   0  0  0  0  0  0  0  0  0  0  0  0
   25.3028  -21.6576   -6.2752 O   0  0  0  0  0  0  0  0  0  0  0  0
  2  1  1  6
  2 10  1  0
  3  2  1  0
  3  4  1  0
  4  9  1  0
  5  4  2  0
  5  6  1  0
  6  7  2  0
  7  8  1  0
  9  8  2  0
 10 14  1  0
 10 11  2  0
 13 12  1  6
 13 15  1  0
 14 13  1  0
 15 16  2  0
 17 18  1  0
 17 15  1  0
 18 19  1  6
 20 19  1  0
 21 20  2  0
 22 21  1  0
 23 24  1  0
 23 22  2  0
 24 25  2  0
 25 20  1  0
 26 18  1  0
 26 28  1  0
 27 26  2  0
M  END
$$$$
