FAF.pdb
     RDKit          3D

 28 29  0  0  1  0  0  0  0  0999 V2000
   24.5874  -34.8297   -4.9823 N   0  0  0  0  0  0  0  0  0  0  0  0
   25.9127  -34.7054   -4.4271 C   0  0  1  0  0  0  0  0  0  0  0  0
   26.2997  -33.2266   -4.5047 C   0  0  0  0  0  0  0  0  0  0  0  0
   26.4425  -32.7770   -5.9124 C   0  0  0  0  0  0  0  0  0  0  0  0
   27.6107  -32.9947   -6.6268 C   0  0  0  0  0  0  0  0  0  0  0  0
   27.6831  -32.5540   -7.9302 C   0  0  0  0  0  0  0  0  0  0  0  0
   26.6182  -31.9041   -8.5304 C   0  0  0  0  0  0  0  0  0  0  0  0
   25.4615  -31.6890   -7.8219 C   0  0  0  0  0  0  0  0  0  0  0  0
   25.4002  -32.1358   -6.5142 C   0  0  0  0  0  0  0  0  0  0  0  0
   25.9447  -35.0818   -2.9903 C   0  0  0  0  0  0  0  0  0  0  0  0
   25.0377  -34.6312   -2.2555 O   0  0  0  0  0  0  0  0  0  0  0  0
   27.9783  -37.3981   -0.7977 C   0  0  0  0  0  0  0  0  0  0  0  0
   26.9879  -36.2557   -1.0414 C   0  0  2  0  0  0  0  0  0  0  0  0
   26.9411  -35.9119   -2.4375 N   0  0  0  0  0  0  0  0  0  0  0  0
   27.4121  -35.1354   -0.1874 C   0  0  0  0  0  0  0  0  0  0  0  0
   28.3350  -34.3914   -0.5983 O   0  0  0  0  0  0  0  0  0  0  0  0
   26.8747  -34.8075    1.0718 N   0  0  0  0  0  0  0  0  0  0  0  0
   27.2923  -33.7104    1.8736 C   0  0  1  0  0  0  0  0  0  0  0  0
   26.2997  -32.7808    2.3874 C   0  0  0  0  0  0  0  0  0  0  0  0
   25.4345  -32.1716    1.3215 C   0  0  0  0  0  0  0  0  0  0  0  0
   25.7921  -31.0512    0.6049 C   0  0  0  0  0  0  0  0  0  0  0  0
   24.9915  -30.4964   -0.3650 C   0  0  0  0  0  0  0  0  0  0  0  0
   23.7754  -31.0543   -0.6617 C   0  0  0  0  0  0  0  0  0  0  0  0
   23.4091  -32.1760    0.0503 C   0  0  0  0  0  0  0  0  0  0  0  0
   24.1986  -32.7412    1.0222 C   0  0  0  0  0  0  0  0  0  0  0  0
   28.1028  -34.2231    3.0067 C   0  0  0  0  0  0  0  0  0  0  0  0
   28.1531  -35.4569    3.2894 O   0  0  0  0  0  0  0  0  0  0  0  0
   28.8650  -33.4014    3.8389 O   0  0  0  0  0  0  0  0  0  0  0  0
  2  1  1  1
  2 10  1  0
  3  2  1  0
  3  4  1  0
  4  9  1  0
  5  4  2  0
  5  6  1  0
  6  7  2  0
  7  8  1  0
  9  8  2  0
 10 14  1  0
 10 11  2  0
 13 12  1  6
 13 15  1  0
 14 13  1  0
 15 16  2  0
 17 18  1  0
 17 15  1  0
 18 19  1  1
 20 19  1  0
 21 20  2  0
 22 21  1  0
 23 24  1  0
 23 22  2  0
 24 25  2  0
 25 20  1  0
 26 18  1  0
 26 28  1  0
 27 26  2  0
M  END
$$$$
