FAF.pdb
     RDKit          3D

 28 29  0  0  1  0  0  0  0  0999 V2000
   23.7104  -19.5384  -15.5732 N   0  0  0  0  0  0  0  0  0  0  0  0
   23.1187  -19.0037  -14.3715 C   0  0  1  0  0  0  0  0  0  0  0  0
   21.5995  -19.0881  -14.5381 C   0  0  0  0  0  0  0  0  0  0  0  0
   21.1324  -18.2587  -15.6774 C   0  0  0  0  0  0  0  0  0  0  0  0
   21.2832  -16.8804  -15.6791 C   0  0  0  0  0  0  0  0  0  0  0  0
   20.8294  -16.1648  -16.7655 C   0  0  0  0  0  0  0  0  0  0  0  0
   20.2317  -16.7948  -17.8436 C   0  0  0  0  0  0  0  0  0  0  0  0
   20.0828  -18.1601  -17.8410 C   0  0  0  0  0  0  0  0  0  0  0  0
   20.5421  -18.8682  -16.7450 C   0  0  0  0  0  0  0  0  0  0  0  0
   23.4648  -19.8184  -13.1783 C   0  0  0  0  0  0  0  0  0  0  0  0
   22.7490  -19.6843  -12.1607 O   0  0  0  0  0  0  0  0  0  0  0  0
   25.6890  -22.7351  -12.3730 C   0  0  0  0  0  0  0  0  0  0  0  0
   24.9144  -21.4726  -11.9838 C   0  0  2  0  0  0  0  0  0  0  0  0
   24.5492  -20.7189  -13.1534 N   0  0  0  0  0  0  0  0  0  0  0  0
   25.7710  -20.7166  -11.0571 C   0  0  0  0  0  0  0  0  0  0  0  0
   26.6186  -19.9279  -11.5407 O   0  0  0  0  0  0  0  0  0  0  0  0
   25.7343  -20.7909   -9.6517 N   0  0  0  0  0  0  0  0  0  0  0  0
   26.7294  -20.2652   -8.7832 C   0  0  1  0  0  0  0  0  0  0  0  0
   26.4537  -20.1601   -7.3597 C   0  0  0  0  0  0  0  0  0  0  0  0
   27.6162  -19.6521   -6.5556 C   0  0  0  0  0  0  0  0  0  0  0  0
   28.5663  -20.4762   -5.9944 C   0  0  0  0  0  0  0  0  0  0  0  0
   29.6240  -20.0034   -5.2547 C   0  0  0  0  0  0  0  0  0  0  0  0
   29.7749  -18.6576   -5.0438 C   0  0  0  0  0  0  0  0  0  0  0  0
   28.8289  -17.8251   -5.6019 C   0  0  0  0  0  0  0  0  0  0  0  0
   27.7669  -18.2833   -6.3431 C   0  0  0  0  0  0  0  0  0  0  0  0
   27.9877  -21.0293   -8.9741 C   0  0  0  0  0  0  0  0  0  0  0  0
   29.1192  -20.4602   -8.9985 O   0  0  0  0  0  0  0  0  0  0  0  0
   28.0269  -22.4150   -9.1382 O   0  0  0  0  0  0  0  0  0  0  0  0
  2  1  1  6
  2 10  1  0
  3  2  1  0
  3  4  1  0
  4  9  1  0
  5  4  2  0
  5  6  1  0
  6  7  2  0
  7  8  1  0
  9  8  2  0
 10 14  1  0
 10 11  2  0
 13 12  1  6
 13 15  1  0
 14 13  1  0
 15 16  2  0
 17 18  1  0
 17 15  1  0
 18 19  1  1
 20 19  1  0
 21 20  2  0
 22 21  1  0
 23 24  1  0
 23 22  2  0
 24 25  2  0
 25 20  1  0
 26 18  1  0
 26 28  1  0
 27 26  2  0
M  END
$$$$
