FAF.pdb
     RDKit          3D

 28 29  0  0  1  0  0  0  0  0999 V2000
   28.2687  -21.4201   -8.9229 N   0  0  0  0  0  0  0  0  0  0  0  0
   26.9511  -20.9688   -8.5481 C   0  0  1  0  0  0  0  0  0  0  0  0
   27.1004  -19.5543   -7.9826 C   0  0  0  0  0  0  0  0  0  0  0  0
   27.6927  -19.5747   -6.6214 C   0  0  0  0  0  0  0  0  0  0  0  0
   26.9595  -19.9865   -5.5191 C   0  0  0  0  0  0  0  0  0  0  0  0
   27.5645  -19.9834   -4.2811 C   0  0  0  0  0  0  0  0  0  0  0  0
   28.8793  -19.5794   -4.1237 C   0  0  0  0  0  0  0  0  0  0  0  0
   29.6047  -19.1717   -5.2162 C   0  0  0  0  0  0  0  0  0  0  0  0
   28.9870  -19.1790   -6.4540 C   0  0  0  0  0  0  0  0  0  0  0  0
   26.0492  -20.8669   -9.7243 C   0  0  0  0  0  0  0  0  0  0  0  0
   26.5768  -20.6563  -10.8392 O   0  0  0  0  0  0  0  0  0  0  0  0
   22.3691  -21.5654  -10.3031 C   0  0  0  0  0  0  0  0  0  0  0  0
   23.8173  -21.3464  -10.7505 C   0  0  2  0  0  0  0  0  0  0  0  0
   24.6487  -20.9968   -9.6297 N   0  0  0  0  0  0  0  0  0  0  0  0
   23.7886  -20.3071  -11.7912 C   0  0  0  0  0  0  0  0  0  0  0  0
   23.8829  -19.1075  -11.4359 O   0  0  0  0  0  0  0  0  0  0  0  0
   23.6631  -20.5284  -13.1759 N   0  0  0  0  0  0  0  0  0  0  0  0
   23.6407  -19.5066  -14.1641 C   0  0  1  0  0  0  0  0  0  0  0  0
   24.5429  -19.5908  -15.3010 C   0  0  0  0  0  0  0  0  0  0  0  0
   24.3627  -18.4819  -16.2979 C   0  0  0  0  0  0  0  0  0  0  0  0
   25.0107  -17.2701  -16.2078 C   0  0  0  0  0  0  0  0  0  0  0  0
   24.8355  -16.2581  -17.1214 C   0  0  0  0  0  0  0  0  0  0  0  0
   23.9862  -16.4241  -18.1841 C   0  0  0  0  0  0  0  0  0  0  0  0
   23.3333  -17.6338  -18.2828 C   0  0  0  0  0  0  0  0  0  0  0  0
   23.4985  -18.6538  -17.3773 C   0  0  0  0  0  0  0  0  0  0  0  0
   22.2515  -19.3498  -14.6632 C   0  0  0  0  0  0  0  0  0  0  0  0
   21.5095  -20.3482  -14.9021 O   0  0  0  0  0  0  0  0  0  0  0  0
   21.6581  -18.1095  -14.9047 O   0  0  0  0  0  0  0  0  0  0  0  0
  2  1  1  6
  2 10  1  0
  3  2  1  0
  3  4  1  0
  4  9  1  0
  5  4  2  0
  5  6  1  0
  6  7  2  0
  7  8  1  0
  9  8  2  0
 10 14  1  0
 10 11  2  0
 13 12  1  1
 13 15  1  0
 14 13  1  0
 15 16  2  0
 17 18  1  0
 17 15  1  0
 18 19  1  6
 20 19  1  0
 21 20  2  0
 22 21  1  0
 23 24  1  0
 23 22  2  0
 24 25  2  0
 25 20  1  0
 26 18  1  0
 26 28  1  0
 27 26  2  0
M  END
$$$$
