FAF.pdb
     RDKit          3D

 28 29  0  0  1  0  0  0  0  0999 V2000
   29.4144  -19.6054  -12.7947 N   0  0  0  0  0  0  0  0  0  0  0  0
   28.4647  -20.6847  -12.9098 C   0  0  1  0  0  0  0  0  0  0  0  0
   28.2218  -21.2268  -11.4992 C   0  0  0  0  0  0  0  0  0  0  0  0
   29.4722  -21.7568  -10.8995 C   0  0  0  0  0  0  0  0  0  0  0  0
   29.8597  -21.4144   -9.6130 C   0  0  0  0  0  0  0  0  0  0  0  0
   31.0311  -21.9384   -9.1114 C   0  0  0  0  0  0  0  0  0  0  0  0
   31.8182  -22.7924   -9.8649 C   0  0  0  0  0  0  0  0  0  0  0  0
   31.4335  -23.1310  -11.1391 C   0  0  0  0  0  0  0  0  0  0  0  0
   30.2556  -22.5988  -11.6322 C   0  0  0  0  0  0  0  0  0  0  0  0
   27.1519  -20.2104  -13.4185 C   0  0  0  0  0  0  0  0  0  0  0  0
   26.7104  -19.1333  -12.9597 O   0  0  0  0  0  0  0  0  0  0  0  0
   24.7732  -21.1197  -16.1913 C   0  0  0  0  0  0  0  0  0  0  0  0
   25.1099  -20.4828  -14.8399 C   0  0  2  0  0  0  0  0  0  0  0  0
   26.4020  -20.9174  -14.3804 N   0  0  0  0  0  0  0  0  0  0  0  0
   24.0213  -20.8414  -13.9175 C   0  0  0  0  0  0  0  0  0  0  0  0
   24.0415  -21.9787  -13.3881 O   0  0  0  0  0  0  0  0  0  0  0  0
   22.9359  -20.0185  -13.5617 N   0  0  0  0  0  0  0  0  0  0  0  0
   21.8992  -20.3843  -12.6604 C   0  0  1  0  0  0  0  0  0  0  0  0
   21.3977  -19.4043  -11.7108 C   0  0  0  0  0  0  0  0  0  0  0  0
   20.3531  -19.9472  -10.7781 C   0  0  0  0  0  0  0  0  0  0  0  0
   20.6531  -20.6090   -9.6081 C   0  0  0  0  0  0  0  0  0  0  0  0
   19.6909  -21.1081   -8.7629 C   0  0  0  0  0  0  0  0  0  0  0  0
   18.3618  -20.9605   -9.0628 C   0  0  0  0  0  0  0  0  0  0  0  0
   18.0518  -20.2994  -10.2317 C   0  0  0  0  0  0  0  0  0  0  0  0
   19.0026  -19.7955  -11.0858 C   0  0  0  0  0  0  0  0  0  0  0  0
   20.7573  -20.9304  -13.4359 C   0  0  0  0  0  0  0  0  0  0  0  0
   20.4145  -20.4446  -14.5544 O   0  0  0  0  0  0  0  0  0  0  0  0
   19.9813  -22.0075  -13.0042 O   0  0  0  0  0  0  0  0  0  0  0  0
  2  1  1  1
  2 10  1  0
  3  2  1  0
  3  4  1  0
  4  9  1  0
  5  4  2  0
  5  6  1  0
  6  7  2  0
  7  8  1  0
  9  8  2  0
 10 14  1  0
 10 11  2  0
 13 12  1  6
 13 15  1  0
 14 13  1  0
 15 16  2  0
 17 18  1  0
 17 15  1  0
 18 19  1  6
 20 19  1  0
 21 20  2  0
 22 21  1  0
 23 24  1  0
 23 22  2  0
 24 25  2  0
 25 20  1  0
 26 18  1  0
 26 28  1  0
 27 26  2  0
M  END
$$$$
