HSF.pdb
     RDKit          3D

 28 29  0  0  1  0  0  0  0  0999 V2000
    5.5063  -19.5234   20.6325 N   0  0  0  0  0  0  0  0  0  0  0  0
    5.6406  -18.2009   21.1539 C   0  0  1  0  0  0  0  0  0  0  0  0
    4.5610  -17.9634   22.1826 C   0  0  0  0  0  0  0  0  0  0  0  0
    3.2300  -18.2848   21.6122 C   0  0  0  0  0  0  0  0  0  0  0  0
    2.6930  -17.9093   20.4000 C   0  0  0  0  0  0  0  0  0  0  0  0
    1.4592  -18.4351   20.3141 N   0  0  0  0  0  0  0  0  0  0  0  0
    1.2320  -19.1194   21.4407 C   0  0  0  0  0  0  0  0  0  0  0  0
    2.3020  -19.0277   22.2233 N   0  0  0  0  0  0  0  0  0  0  0  0
    6.9818  -17.9627   21.7639 C   0  0  0  0  0  0  0  0  0  0  0  0
    7.5631  -18.8393   22.4242 O   0  0  0  0  0  0  0  0  0  0  0  0
    8.9005  -14.6139   20.5264 O   0  0  0  0  0  0  0  0  0  0  0  0
    9.7512  -15.5739   21.0988 C   0  0  0  0  0  0  0  0  0  0  0  0
    8.9317  -16.3828   22.0529 C   0  0  2  0  0  0  0  0  0  0  0  0
    7.6301  -16.7173   21.6019 N   0  0  0  0  0  0  0  0  0  0  0  0
    8.8519  -15.7743   23.4023 C   0  0  0  0  0  0  0  0  0  0  0  0
    8.2680  -14.6875   23.5445 O   0  0  0  0  0  0  0  0  0  0  0  0
    9.4281  -16.4068   24.5341 N   0  0  0  0  0  0  0  0  0  0  0  0
    9.2217  -15.8967   25.8790 C   0  0  1  0  0  0  0  0  0  0  0  0
    7.7514  -15.7287   26.1423 C   0  0  0  0  0  0  0  0  0  0  0  0
    7.3077  -14.3437   26.2987 C   0  0  0  0  0  0  0  0  0  0  0  0
    5.9845  -14.0545   26.5325 C   0  0  0  0  0  0  0  0  0  0  0  0
    5.5772  -12.7503   26.6828 C   0  0  0  0  0  0  0  0  0  0  0  0
    6.5208  -11.7226   26.5955 C   0  0  0  0  0  0  0  0  0  0  0  0
    7.8563  -12.0294   26.3586 C   0  0  0  0  0  0  0  0  0  0  0  0
    8.2662  -13.3352   26.2079 C   0  0  0  0  0  0  0  0  0  0  0  0
    9.8966  -16.7846   26.8452 C   0  0  0  0  0  0  0  0  0  0  0  0
   10.0162  -18.0295   26.5954 O   0  0  0  0  0  0  0  0  0  0  0  0
   10.4265  -16.3452   28.0426 O   0  0  0  0  0  0  0  0  0  0  0  0
  2  9  1  0
  2  1  1  1
  3  2  1  0
  4  3  1  0
  5  4  2  0
  6  7  1  0
  6  5  1  0
  7  8  2  0
  8  4  1  0
  9 10  2  0
 12 11  1  0
 13 12  1  6
 14 13  1  0
 14  9  1  0
 15 13  1  0
 16 15  2  0
 17 15  1  0
 18 17  1  0
 18 19  1  1
 20 19  1  0
 21 20  2  0
 22 21  1  0
 23 24  1  0
 23 22  2  0
 24 25  2  0
 25 20  1  0
 26 18  1  0
 26 28  1  0
 27 26  2  0
M  END
$$$$
