HSF.pdb
     RDKit          3D

 28 29  0  0  1  0  0  0  0  0999 V2000
    8.3384  -16.8218   19.7731 N   0  0  0  0  0  0  0  0  0  0  0  0
    8.5825  -15.8866   20.8241 C   0  0  1  0  0  0  0  0  0  0  0  0
    7.6446  -14.7134   20.6691 C   0  0  0  0  0  0  0  0  0  0  0  0
    7.8803  -14.0369   19.3702 C   0  0  0  0  0  0  0  0  0  0  0  0
    8.6588  -12.9334   19.0965 C   0  0  0  0  0  0  0  0  0  0  0  0
    8.5692  -12.6809   17.7795 N   0  0  0  0  0  0  0  0  0  0  0  0
    7.7576  -13.6006   17.2459 C   0  0  0  0  0  0  0  0  0  0  0  0
    7.3426  -14.4185   18.2075 N   0  0  0  0  0  0  0  0  0  0  0  0
    8.4140  -16.4936   22.1772 C   0  0  0  0  0  0  0  0  0  0  0  0
    7.3530  -17.0412   22.5190 O   0  0  0  0  0  0  0  0  0  0  0  0
   11.4782  -18.2612   23.8067 O   0  0  0  0  0  0  0  0  0  0  0  0
   10.1999  -18.4559   24.3553 C   0  0  0  0  0  0  0  0  0  0  0  0
    9.5115  -17.1283   24.3622 C   0  0  2  0  0  0  0  0  0  0  0  0
    9.4723  -16.4589   23.1132 N   0  0  0  0  0  0  0  0  0  0  0  0
   10.0366  -16.2131   25.4034 C   0  0  0  0  0  0  0  0  0  0  0  0
   10.9392  -15.4126   25.1088 O   0  0  0  0  0  0  0  0  0  0  0  0
    9.5302  -16.2323   26.7286 N   0  0  0  0  0  0  0  0  0  0  0  0
   10.0279  -15.3233   27.7473 C   0  0  1  0  0  0  0  0  0  0  0  0
    8.8860  -14.5491   28.3441 C   0  0  0  0  0  0  0  0  0  0  0  0
    8.1727  -13.6821   27.4066 C   0  0  0  0  0  0  0  0  0  0  0  0
    6.9660  -14.0690   26.8744 C   0  0  0  0  0  0  0  0  0  0  0  0
    6.3003  -13.2458   25.9976 C   0  0  0  0  0  0  0  0  0  0  0  0
    6.8623  -12.0130   25.6532 C   0  0  0  0  0  0  0  0  0  0  0  0
    8.0839  -11.6340   26.1991 C   0  0  0  0  0  0  0  0  0  0  0  0
    8.7520  -12.4572   27.0775 C   0  0  0  0  0  0  0  0  0  0  0  0
   10.8072  -16.0861   28.7415 C   0  0  0  0  0  0  0  0  0  0  0  0
   10.7925  -17.3612   28.7248 O   0  0  0  0  0  0  0  0  0  0  0  0
   11.5784  -15.4939   29.7224 O   0  0  0  0  0  0  0  0  0  0  0  0
  2  9  1  0
  2  1  1  6
  3  2  1  0
  4  3  1  0
  5  4  2  0
  6  7  1  0
  6  5  1  0
  7  8  2  0
  8  4  1  0
  9 10  2  0
 12 11  1  0
 13 12  1  6
 14 13  1  0
 14  9  1  0
 15 13  1  0
 16 15  2  0
 17 15  1  0
 18 17  1  0
 18 19  1  1
 20 19  1  0
 21 20  2  0
 22 21  1  0
 23 24  1  0
 23 22  2  0
 24 25  2  0
 25 20  1  0
 26 18  1  0
 26 28  1  0
 27 26  2  0
M  END
$$$$
