HSF.pdb
     RDKit          3D

 28 29  0  0  1  0  0  0  0  0999 V2000
    8.3831  -16.7107   19.4868 N   0  0  0  0  0  0  0  0  0  0  0  0
    8.4715  -15.7837   20.5693 C   0  0  1  0  0  0  0  0  0  0  0  0
    7.3938  -14.7376   20.4131 C   0  0  0  0  0  0  0  0  0  0  0  0
    7.6037  -13.9684   19.1622 C   0  0  0  0  0  0  0  0  0  0  0  0
    8.1771  -12.7267   18.9942 C   0  0  0  0  0  0  0  0  0  0  0  0
    8.1513  -12.4337   17.6829 N   0  0  0  0  0  0  0  0  0  0  0  0
    7.5780  -13.4632   17.0499 C   0  0  0  0  0  0  0  0  0  0  0  0
    7.2480  -14.3888   17.9443 N   0  0  0  0  0  0  0  0  0  0  0  0
    8.3428  -16.4479   21.8997 C   0  0  0  0  0  0  0  0  0  0  0  0
    7.2677  -16.9372   22.2832 O   0  0  0  0  0  0  0  0  0  0  0  0
   11.5568  -18.2307   23.4496 O   0  0  0  0  0  0  0  0  0  0  0  0
   10.2824  -18.5220   23.9634 C   0  0  0  0  0  0  0  0  0  0  0  0
    9.5113  -17.2410   23.9943 C   0  0  2  0  0  0  0  0  0  0  0  0
    9.4564  -16.5364   22.7654 N   0  0  0  0  0  0  0  0  0  0  0  0
    9.9552  -16.3279   25.0743 C   0  0  0  0  0  0  0  0  0  0  0  0
   10.8624  -15.5115   24.8444 O   0  0  0  0  0  0  0  0  0  0  0  0
    9.3660  -16.3669   26.3644 N   0  0  0  0  0  0  0  0  0  0  0  0
    9.8874  -15.5727   27.4641 C   0  0  1  0  0  0  0  0  0  0  0  0
    8.7623  -14.8538   28.1544 C   0  0  0  0  0  0  0  0  0  0  0  0
    8.1593  -13.7677   27.3823 C   0  0  0  0  0  0  0  0  0  0  0  0
    6.9109  -13.9132   26.8259 C   0  0  0  0  0  0  0  0  0  0  0  0
    6.3500  -12.8856   26.1057 C   0  0  0  0  0  0  0  0  0  0  0  0
    7.0610  -11.6927   25.9450 C   0  0  0  0  0  0  0  0  0  0  0  0
    8.3231  -11.5590   26.5132 C   0  0  0  0  0  0  0  0  0  0  0  0
    8.8865  -12.5872   27.2350 C   0  0  0  0  0  0  0  0  0  0  0  0
   10.6720  -16.4414   28.3626 C   0  0  0  0  0  0  0  0  0  0  0  0
   10.6054  -17.7097   28.2459 O   0  0  0  0  0  0  0  0  0  0  0  0
   11.5027  -15.9591   29.3551 O   0  0  0  0  0  0  0  0  0  0  0  0
  2  9  1  0
  2  1  1  6
  3  2  1  0
  4  3  1  0
  5  4  2  0
  6  7  1  0
  6  5  1  0
  7  8  2  0
  8  4  1  0
  9 10  2  0
 12 11  1  0
 13 12  1  6
 14 13  1  0
 14  9  1  0
 15 13  1  0
 16 15  2  0
 17 15  1  0
 18 17  1  0
 18 19  1  1
 20 19  1  0
 21 20  2  0
 22 21  1  0
 23 24  1  0
 23 22  2  0
 24 25  2  0
 25 20  1  0
 26 18  1  0
 26 28  1  0
 27 26  2  0
M  END
$$$$
