HSF.pdb
     RDKit          3D

 28 29  0  0  1  0  0  0  0  0999 V2000
    8.3860  -16.5498   19.8175 N   0  0  0  0  0  0  0  0  0  0  0  0
    8.5452  -15.5634   20.8377 C   0  0  1  0  0  0  0  0  0  0  0  0
    7.5734  -14.4346   20.5894 C   0  0  0  0  0  0  0  0  0  0  0  0
    7.8687  -13.7803   19.2914 C   0  0  0  0  0  0  0  0  0  0  0  0
    8.5260  -12.5939   19.0486 C   0  0  0  0  0  0  0  0  0  0  0  0
    8.5570  -12.4033   17.7186 N   0  0  0  0  0  0  0  0  0  0  0  0
    7.9365  -13.4414   17.1470 C   0  0  0  0  0  0  0  0  0  0  0  0
    7.5216  -14.2717   18.0978 N   0  0  0  0  0  0  0  0  0  0  0  0
    8.3348  -16.1204   22.2063 C   0  0  0  0  0  0  0  0  0  0  0  0
    7.2081  -16.4537   22.6087 O   0  0  0  0  0  0  0  0  0  0  0  0
   11.3613  -18.1267   23.8626 O   0  0  0  0  0  0  0  0  0  0  0  0
   10.0615  -18.2867   24.3705 C   0  0  0  0  0  0  0  0  0  0  0  0
    9.4038  -16.9440   24.3418 C   0  0  2  0  0  0  0  0  0  0  0  0
    9.4275  -16.2837   23.0876 N   0  0  0  0  0  0  0  0  0  0  0  0
    9.9096  -16.0328   25.3959 C   0  0  0  0  0  0  0  0  0  0  0  0
   10.7903  -15.2047   25.1111 O   0  0  0  0  0  0  0  0  0  0  0  0
    9.4093  -16.0864   26.7225 N   0  0  0  0  0  0  0  0  0  0  0  0
    9.9574  -15.2508   27.7775 C   0  0  1  0  0  0  0  0  0  0  0  0
    8.8625  -14.4325   28.4027 C   0  0  0  0  0  0  0  0  0  0  0  0
    8.1279  -13.5739   27.4739 C   0  0  0  0  0  0  0  0  0  0  0  0
    6.9645  -14.0113   26.8869 C   0  0  0  0  0  0  0  0  0  0  0  0
    6.2783  -13.1960   26.0188 C   0  0  0  0  0  0  0  0  0  0  0  0
    6.7747  -11.9194   25.7393 C   0  0  0  0  0  0  0  0  0  0  0  0
    7.9528  -11.4895   26.3402 C   0  0  0  0  0  0  0  0  0  0  0  0
    8.6415  -12.3048   27.2101 C   0  0  0  0  0  0  0  0  0  0  0  0
   10.6844  -16.0988   28.7419 C   0  0  0  0  0  0  0  0  0  0  0  0
   10.6078  -17.3693   28.6620 O   0  0  0  0  0  0  0  0  0  0  0  0
   11.4697  -15.5940   29.7598 O   0  0  0  0  0  0  0  0  0  0  0  0
  2  9  1  0
  2  1  1  6
  3  2  1  0
  4  3  1  0
  5  4  2  0
  6  7  1  0
  6  5  1  0
  7  8  2  0
  8  4  1  0
  9 10  2  0
 12 11  1  0
 13 12  1  6
 14 13  1  0
 14  9  1  0
 15 13  1  0
 16 15  2  0
 17 15  1  0
 18 17  1  0
 18 19  1  1
 20 19  1  0
 21 20  2  0
 22 21  1  0
 23 24  1  0
 23 22  2  0
 24 25  2  0
 25 20  1  0
 26 18  1  0
 26 28  1  0
 27 26  2  0
M  END
$$$$
