HSF.pdb
     RDKit          3D

 28 29  0  0  1  0  0  0  0  0999 V2000
    7.2963  -16.9319   20.2518 N   0  0  0  0  0  0  0  0  0  0  0  0
    7.9906  -16.0742   21.1579 C   0  0  1  0  0  0  0  0  0  0  0  0
    7.3296  -14.7166   21.1578 C   0  0  0  0  0  0  0  0  0  0  0  0
    7.7645  -13.9348   19.9746 C   0  0  0  0  0  0  0  0  0  0  0  0
    8.6277  -14.2997   18.9643 C   0  0  0  0  0  0  0  0  0  0  0  0
    8.7208  -13.2683   18.1078 N   0  0  0  0  0  0  0  0  0  0  0  0
    7.9380  -12.2871   18.5700 C   0  0  0  0  0  0  0  0  0  0  0  0
    7.3615  -12.6910   19.6970 N   0  0  0  0  0  0  0  0  0  0  0  0
    8.0243  -16.6204   22.5465 C   0  0  0  0  0  0  0  0  0  0  0  0
    6.9853  -16.9391   23.1475 O   0  0  0  0  0  0  0  0  0  0  0  0
   11.4195  -18.4447   23.7971 O   0  0  0  0  0  0  0  0  0  0  0  0
   10.2084  -18.6858   24.4665 C   0  0  0  0  0  0  0  0  0  0  0  0
    9.4457  -17.3997   24.4841 C   0  0  2  0  0  0  0  0  0  0  0  0
    9.2560  -16.7896   23.2186 N   0  0  0  0  0  0  0  0  0  0  0  0
   10.0058  -16.4113   25.4363 C   0  0  0  0  0  0  0  0  0  0  0  0
   10.8851  -15.6250   25.0479 O   0  0  0  0  0  0  0  0  0  0  0  0
    9.5590  -16.3446   26.7813 N   0  0  0  0  0  0  0  0  0  0  0  0
   10.2359  -15.5210   27.7687 C   0  0  1  0  0  0  0  0  0  0  0  0
    9.2374  -14.6536   28.4827 C   0  0  0  0  0  0  0  0  0  0  0  0
    8.4395  -13.7889   27.6135 C   0  0  0  0  0  0  0  0  0  0  0  0
    8.9666  -12.6234   27.1107 C   0  0  0  0  0  0  0  0  0  0  0  0
    8.2111  -11.8192   26.2910 C   0  0  0  0  0  0  0  0  0  0  0  0
    6.9033  -12.1982   25.9743 C   0  0  0  0  0  0  0  0  0  0  0  0
    6.3826  -13.3801   26.4899 C   0  0  0  0  0  0  0  0  0  0  0  0
    7.1379  -14.1868   27.3111 C   0  0  0  0  0  0  0  0  0  0  0  0
   11.0173  -16.3877   28.6721 C   0  0  0  0  0  0  0  0  0  0  0  0
   10.9047  -17.6559   28.5985 O   0  0  0  0  0  0  0  0  0  0  0  0
   11.8928  -15.9033   29.6243 O   0  0  0  0  0  0  0  0  0  0  0  0
  2  9  1  0
  2  1  1  6
  3  2  1  0
  4  3  1  0
  5  4  2  0
  6  7  1  0
  6  5  1  0
  7  8  2  0
  8  4  1  0
  9 10  2  0
 12 11  1  0
 13 12  1  6
 14 13  1  0
 14  9  1  0
 15 13  1  0
 16 15  2  0
 17 15  1  0
 18 17  1  0
 18 19  1  1
 20 19  1  0
 21 20  2  0
 22 21  1  0
 23 24  1  0
 23 22  2  0
 24 25  2  0
 25 20  1  0
 26 18  1  0
 26 28  1  0
 27 26  2  0
M  END
$$$$
