HSF.pdb
     RDKit          3D

 28 29  0  0  1  0  0  0  0  0999 V2000
    9.8931  -15.6697   17.6499 N   0  0  0  0  0  0  0  0  0  0  0  0
    8.6859  -15.2010   18.2516 C   0  0  1  0  0  0  0  0  0  0  0  0
    7.5205  -15.5483   17.3563 C   0  0  0  0  0  0  0  0  0  0  0  0
    7.6754  -14.8915   16.0354 C   0  0  0  0  0  0  0  0  0  0  0  0
    8.1033  -13.6136   15.7478 C   0  0  0  0  0  0  0  0  0  0  0  0
    8.0821  -13.4615   14.4127 N   0  0  0  0  0  0  0  0  0  0  0  0
    7.6531  -14.6117   13.8815 C   0  0  0  0  0  0  0  0  0  0  0  0
    7.4080  -15.4739   14.8625 N   0  0  0  0  0  0  0  0  0  0  0  0
    8.4675  -15.7749   19.6119 C   0  0  0  0  0  0  0  0  0  0  0  0
    7.4418  -15.5280   20.2671 O   0  0  0  0  0  0  0  0  0  0  0  0
   11.6833  -17.6152   21.5745 O   0  0  0  0  0  0  0  0  0  0  0  0
   10.4318  -18.2172   21.7844 C   0  0  0  0  0  0  0  0  0  0  0  0
    9.3877  -17.1867   21.4939 C   0  0  2  0  0  0  0  0  0  0  0  0
    9.4360  -16.6241   20.1936 N   0  0  0  0  0  0  0  0  0  0  0  0
    9.3504  -16.1040   22.5057 C   0  0  0  0  0  0  0  0  0  0  0  0
    9.8623  -15.0048   22.2376 O   0  0  0  0  0  0  0  0  0  0  0  0
    8.7427  -16.2969   23.7732 N   0  0  0  0  0  0  0  0  0  0  0  0
    8.6726  -15.2276   24.7547 C   0  0  1  0  0  0  0  0  0  0  0  0
    7.5256  -14.3113   24.4320 C   0  0  0  0  0  0  0  0  0  0  0  0
    7.2793  -13.2608   25.4196 C   0  0  0  0  0  0  0  0  0  0  0  0
    6.2166  -13.3501   26.2866 C   0  0  0  0  0  0  0  0  0  0  0  0
    5.9954  -12.3604   27.2146 C   0  0  0  0  0  0  0  0  0  0  0  0
    6.8609  -11.2639   27.2674 C   0  0  0  0  0  0  0  0  0  0  0  0
    7.9322  -11.1863   26.3842 C   0  0  0  0  0  0  0  0  0  0  0  0
    8.1554  -12.1767   25.4541 C   0  0  0  0  0  0  0  0  0  0  0  0
    8.5979  -15.8128   26.1074 C   0  0  0  0  0  0  0  0  0  0  0  0
    9.2040  -15.2545   27.0807 O   0  0  0  0  0  0  0  0  0  0  0  0
    7.8920  -16.9627   26.4022 O   0  0  0  0  0  0  0  0  0  0  0  0
  2  9  1  0
  2  1  1  6
  3  2  1  0
  4  3  1  0
  5  4  2  0
  6  7  1  0
  6  5  1  0
  7  8  2  0
  8  4  1  0
  9 10  2  0
 12 11  1  0
 13 12  1  1
 14 13  1  0
 14  9  1  0
 15 13  1  0
 16 15  2  0
 17 15  1  0
 18 17  1  0
 18 19  1  6
 20 19  1  0
 21 20  2  0
 22 21  1  0
 23 24  1  0
 23 22  2  0
 24 25  2  0
 25 20  1  0
 26 18  1  0
 26 28  1  0
 27 26  2  0
M  END
$$$$
