HSF.pdb
     RDKit          3D

 28 29  0  0  1  0  0  0  0  0999 V2000
    6.1056  -16.1298   19.3714 N   0  0  0  0  0  0  0  0  0  0  0  0
    7.0903  -15.7167   20.3194 C   0  0  1  0  0  0  0  0  0  0  0  0
    7.0713  -14.2107   20.4270 C   0  0  0  0  0  0  0  0  0  0  0  0
    7.7403  -13.6043   19.2502 C   0  0  0  0  0  0  0  0  0  0  0  0
    7.1851  -13.1680   18.0669 C   0  0  0  0  0  0  0  0  0  0  0  0
    8.1774  -12.6923   17.2956 N   0  0  0  0  0  0  0  0  0  0  0  0
    9.3200  -12.8275   17.9778 C   0  0  0  0  0  0  0  0  0  0  0  0
    9.0544  -13.3782   19.1576 N   0  0  0  0  0  0  0  0  0  0  0  0
    6.8740  -16.3229   21.6660 C   0  0  0  0  0  0  0  0  0  0  0  0
    5.8987  -16.0155   22.3707 O   0  0  0  0  0  0  0  0  0  0  0  0
    9.6388  -19.2185   23.2212 O   0  0  0  0  0  0  0  0  0  0  0  0
    8.2927  -19.2011   23.6221 C   0  0  0  0  0  0  0  0  0  0  0  0
    7.8088  -17.7918   23.4964 C   0  0  2  0  0  0  0  0  0  0  0  0
    7.7864  -17.2736   22.1771 N   0  0  0  0  0  0  0  0  0  0  0  0
    8.5299  -16.8538   24.3895 C   0  0  0  0  0  0  0  0  0  0  0  0
    8.7274  -15.6872   24.0123 O   0  0  0  0  0  0  0  0  0  0  0  0
    8.9991  -17.2603   25.6653 N   0  0  0  0  0  0  0  0  0  0  0  0
    8.8495  -16.4139   26.8369 C   0  0  1  0  0  0  0  0  0  0  0  0
    7.4299  -15.9312   26.9415 C   0  0  0  0  0  0  0  0  0  0  0  0
    7.2713  -14.4772   26.9333 C   0  0  0  0  0  0  0  0  0  0  0  0
    8.3705  -13.6531   26.8906 C   0  0  0  0  0  0  0  0  0  0  0  0
    8.2118  -12.2877   26.8785 C   0  0  0  0  0  0  0  0  0  0  0  0
    6.9232  -11.7466   26.9101 C   0  0  0  0  0  0  0  0  0  0  0  0
    5.8199  -12.5920   26.9531 C   0  0  0  0  0  0  0  0  0  0  0  0
    5.9769  -13.9598   26.9651 C   0  0  0  0  0  0  0  0  0  0  0  0
    9.3126  -17.1484   28.0302 C   0  0  0  0  0  0  0  0  0  0  0  0
    9.8916  -16.5255   28.9805 O   0  0  0  0  0  0  0  0  0  0  0  0
    9.1562  -18.5108   28.1947 O   0  0  0  0  0  0  0  0  0  0  0  0
  2  9  1  0
  2  1  1  6
  3  2  1  0
  4  3  1  0
  5  4  2  0
  6  7  1  0
  6  5  1  0
  7  8  2  0
  8  4  1  0
  9 10  2  0
 12 11  1  0
 13 12  1  6
 14 13  1  0
 14  9  1  0
 15 13  1  0
 16 15  2  0
 17 15  1  0
 18 17  1  0
 18 19  1  1
 20 19  1  0
 21 20  2  0
 22 21  1  0
 23 24  1  0
 23 22  2  0
 24 25  2  0
 25 20  1  0
 26 18  1  0
 26 28  1  0
 27 26  2  0
M  END
$$$$
