HSF.pdb
     RDKit          3D

 28 29  0  0  1  0  0  0  0  0999 V2000
   10.0607  -15.8783   18.4899 N   0  0  0  0  0  0  0  0  0  0  0  0
   10.6260  -15.7401   19.7939 C   0  0  1  0  0  0  0  0  0  0  0  0
   11.2333  -14.3639   19.9257 C   0  0  0  0  0  0  0  0  0  0  0  0
   12.6422  -14.3789   19.4623 C   0  0  0  0  0  0  0  0  0  0  0  0
   13.1491  -14.0669   18.2195 C   0  0  0  0  0  0  0  0  0  0  0  0
   14.4830  -14.2242   18.2660 N   0  0  0  0  0  0  0  0  0  0  0  0
   14.8002  -14.6232   19.5027 C   0  0  0  0  0  0  0  0  0  0  0  0
   13.6878  -14.7161   20.2236 N   0  0  0  0  0  0  0  0  0  0  0  0
    9.6209  -15.9554   20.8761 C   0  0  0  0  0  0  0  0  0  0  0  0
    8.5073  -15.4060   20.8508 O   0  0  0  0  0  0  0  0  0  0  0  0
   10.0075  -19.3183   23.2681 O   0  0  0  0  0  0  0  0  0  0  0  0
    8.7682  -18.7004   23.0328 C   0  0  0  0  0  0  0  0  0  0  0  0
    9.0102  -17.2259   22.9724 C   0  0  2  0  0  0  0  0  0  0  0  0
    9.9171  -16.8007   21.9692 N   0  0  0  0  0  0  0  0  0  0  0  0
    9.4081  -16.6538   24.2807 C   0  0  0  0  0  0  0  0  0  0  0  0
   10.5887  -16.3128   24.4603 O   0  0  0  0  0  0  0  0  0  0  0  0
    8.4694  -16.4878   25.3316 N   0  0  0  0  0  0  0  0  0  0  0  0
    8.8765  -16.0404   26.6528 C   0  0  1  0  0  0  0  0  0  0  0  0
    7.7199  -15.3782   27.3477 C   0  0  0  0  0  0  0  0  0  0  0  0
    7.3511  -14.0663   26.8163 C   0  0  0  0  0  0  0  0  0  0  0  0
    6.0300  -13.7144   26.6744 C   0  0  0  0  0  0  0  0  0  0  0  0
    5.6926  -12.4776   26.1784 C   0  0  0  0  0  0  0  0  0  0  0  0
    6.7051  -11.5827   25.8204 C   0  0  0  0  0  0  0  0  0  0  0  0
    8.0375  -11.9516   25.9692 C   0  0  0  0  0  0  0  0  0  0  0  0
    8.3774  -13.1900   26.4659 C   0  0  0  0  0  0  0  0  0  0  0  0
    9.4397  -17.1811   27.4008 C   0  0  0  0  0  0  0  0  0  0  0  0
    9.9502  -17.0002   28.5553 O   0  0  0  0  0  0  0  0  0  0  0  0
    9.4519  -18.4760   26.9202 O   0  0  0  0  0  0  0  0  0  0  0  0
  2  9  1  0
  2  1  1  6
  3  2  1  0
  4  3  1  0
  5  4  2  0
  6  7  1  0
  6  5  1  0
  7  8  2  0
  8  4  1  0
  9 10  2  0
 12 11  1  0
 13 12  1  1
 14 13  1  0
 14  9  1  0
 15 13  1  0
 16 15  2  0
 17 15  1  0
 18 17  1  0
 18 19  1  1
 20 19  1  0
 21 20  2  0
 22 21  1  0
 23 24  1  0
 23 22  2  0
 24 25  2  0
 25 20  1  0
 26 18  1  0
 26 28  1  0
 27 26  2  0
M  END
$$$$
