HSF.pdb
     RDKit          3D

 28 29  0  0  1  0  0  0  0  0999 V2000
    9.4787  -17.9851   16.8263 N   0  0  0  0  0  0  0  0  0  0  0  0
    9.3653  -16.8707   17.7119 C   0  0  1  0  0  0  0  0  0  0  0  0
    8.3955  -15.8718   17.1272 C   0  0  0  0  0  0  0  0  0  0  0  0
    8.4047  -14.6213   17.9248 C   0  0  0  0  0  0  0  0  0  0  0  0
    9.2586  -14.2467   18.9394 C   0  0  0  0  0  0  0  0  0  0  0  0
    8.8837  -13.0288   19.3664 N   0  0  0  0  0  0  0  0  0  0  0  0
    7.8258  -12.6534   18.6391 C   0  0  0  0  0  0  0  0  0  0  0  0
    7.5379  -13.6158   17.7693 N   0  0  0  0  0  0  0  0  0  0  0  0
    8.9166  -17.2719   19.0776 C   0  0  0  0  0  0  0  0  0  0  0  0
    7.7953  -17.7674   19.2764 O   0  0  0  0  0  0  0  0  0  0  0  0
   11.7429  -18.2092   21.8731 O   0  0  0  0  0  0  0  0  0  0  0  0
   10.4170  -18.6613   21.9759 C   0  0  0  0  0  0  0  0  0  0  0  0
    9.5304  -17.5499   21.5123 C   0  0  2  0  0  0  0  0  0  0  0  0
    9.7688  -17.0948   20.1911 N   0  0  0  0  0  0  0  0  0  0  0  0
    9.5184  -16.3967   22.4435 C   0  0  0  0  0  0  0  0  0  0  0  0
   10.3473  -15.4846   22.2909 O   0  0  0  0  0  0  0  0  0  0  0  0
    8.5805  -16.3127   23.5048 N   0  0  0  0  0  0  0  0  0  0  0  0
    8.6684  -15.2753   24.5186 C   0  0  1  0  0  0  0  0  0  0  0  0
    7.2897  -14.8110   24.8963 C   0  0  0  0  0  0  0  0  0  0  0  0
    7.2500  -13.7643   25.9173 C   0  0  0  0  0  0  0  0  0  0  0  0
    7.0581  -12.4496   25.5652 C   0  0  0  0  0  0  0  0  0  0  0  0
    7.0177  -11.4731   26.5318 C   0  0  0  0  0  0  0  0  0  0  0  0
    7.1735  -11.8301   27.8744 C   0  0  0  0  0  0  0  0  0  0  0  0
    7.3670  -13.1640   28.2165 C   0  0  0  0  0  0  0  0  0  0  0  0
    7.4077  -14.1435   27.2497 C   0  0  0  0  0  0  0  0  0  0  0  0
    9.4559  -15.7770   25.6613 C   0  0  0  0  0  0  0  0  0  0  0  0
    9.3847  -17.0050   25.9979 O   0  0  0  0  0  0  0  0  0  0  0  0
   10.2941  -14.9809   26.4172 O   0  0  0  0  0  0  0  0  0  0  0  0
  2  9  1  0
  2  1  1  6
  3  2  1  0
  4  3  1  0
  5  4  2  0
  6  7  1  0
  6  5  1  0
  7  8  2  0
  8  4  1  0
  9 10  2  0
 12 11  1  0
 13 12  1  1
 14 13  1  0
 14  9  1  0
 15 13  1  0
 16 15  2  0
 17 15  1  0
 18 17  1  0
 18 19  1  1
 20 19  1  0
 21 20  2  0
 22 21  1  0
 23 24  1  0
 23 22  2  0
 24 25  2  0
 25 20  1  0
 26 18  1  0
 26 28  1  0
 27 26  2  0
M  END
$$$$
