HSF.pdb
     RDKit          3D

 28 29  0  0  1  0  0  0  0  0999 V2000
    8.0623  -16.8297   19.5566 N   0  0  0  0  0  0  0  0  0  0  0  0
    8.3186  -15.8767   20.5887 C   0  0  1  0  0  0  0  0  0  0  0  0
    7.4426  -14.6661   20.3718 C   0  0  0  0  0  0  0  0  0  0  0  0
    7.8350  -13.9664   19.1241 C   0  0  0  0  0  0  0  0  0  0  0  0
    8.3775  -12.7092   18.9693 C   0  0  0  0  0  0  0  0  0  0  0  0
    8.5680  -12.5003   17.6555 N   0  0  0  0  0  0  0  0  0  0  0  0
    8.1562  -13.5960   17.0081 C   0  0  0  0  0  0  0  0  0  0  0  0
    7.7140  -14.4801   17.8960 N   0  0  0  0  0  0  0  0  0  0  0  0
    8.0805  -16.4358   21.9519 C   0  0  0  0  0  0  0  0  0  0  0  0
    6.9711  -16.8798   22.2902 O   0  0  0  0  0  0  0  0  0  0  0  0
   10.9195  -18.4712   23.6681 O   0  0  0  0  0  0  0  0  0  0  0  0
    9.6197  -18.5064   24.1993 C   0  0  0  0  0  0  0  0  0  0  0  0
    9.0881  -17.1090   24.1685 C   0  0  2  0  0  0  0  0  0  0  0  0
    9.1262  -16.4734   22.9019 N   0  0  0  0  0  0  0  0  0  0  0  0
    9.7145  -16.2323   25.1866 C   0  0  0  0  0  0  0  0  0  0  0  0
   10.7171  -15.5666   24.8802 O   0  0  0  0  0  0  0  0  0  0  0  0
    9.1932  -16.1377   26.5027 N   0  0  0  0  0  0  0  0  0  0  0  0
    9.8354  -15.3219   27.5194 C   0  0  1  0  0  0  0  0  0  0  0  0
    8.8096  -14.4745   28.2186 C   0  0  0  0  0  0  0  0  0  0  0  0
    8.0795  -13.5499   27.3516 C   0  0  0  0  0  0  0  0  0  0  0  0
    6.8907  -13.9242   26.7721 C   0  0  0  0  0  0  0  0  0  0  0  0
    6.2091  -13.0471   25.9623 C   0  0  0  0  0  0  0  0  0  0  0  0
    6.7364  -11.7726   25.7346 C   0  0  0  0  0  0  0  0  0  0  0  0
    7.9400  -11.4070   26.3273 C   0  0  0  0  0  0  0  0  0  0  0  0
    8.6241  -12.2842   27.1387 C   0  0  0  0  0  0  0  0  0  0  0  0
   10.6012  -16.1938   28.4310 C   0  0  0  0  0  0  0  0  0  0  0  0
   10.4113  -17.4548   28.4207 O   0  0  0  0  0  0  0  0  0  0  0  0
   11.5424  -15.7220   29.3250 O   0  0  0  0  0  0  0  0  0  0  0  0
  2  9  1  0
  2  1  1  6
  3  2  1  0
  4  3  1  0
  5  4  2  0
  6  7  1  0
  6  5  1  0
  7  8  2  0
  8  4  1  0
  9 10  2  0
 12 11  1  0
 13 12  1  6
 14 13  1  0
 14  9  1  0
 15 13  1  0
 16 15  2  0
 17 15  1  0
 18 17  1  0
 18 19  1  1
 20 19  1  0
 21 20  2  0
 22 21  1  0
 23 24  1  0
 23 22  2  0
 24 25  2  0
 25 20  1  0
 26 18  1  0
 26 28  1  0
 27 26  2  0
M  END
$$$$
