HSF.pdb
     RDKit          3D

 28 29  0  0  1  0  0  0  0  0999 V2000
    7.6892  -16.7265   19.4627 N   0  0  0  0  0  0  0  0  0  0  0  0
    7.8948  -15.7589   20.4925 C   0  0  1  0  0  0  0  0  0  0  0  0
    7.0569  -14.5378   20.1974 C   0  0  0  0  0  0  0  0  0  0  0  0
    7.5871  -13.8276   19.0080 C   0  0  0  0  0  0  0  0  0  0  0  0
    8.4285  -12.7377   18.9531 C   0  0  0  0  0  0  0  0  0  0  0  0
    8.6371  -12.4416   17.6589 N   0  0  0  0  0  0  0  0  0  0  0  0
    7.9457  -13.3216   16.9263 C   0  0  0  0  0  0  0  0  0  0  0  0
    7.3124  -14.1576   17.7422 N   0  0  0  0  0  0  0  0  0  0  0  0
    7.5582  -16.2883   21.8467 C   0  0  0  0  0  0  0  0  0  0  0  0
    6.3815  -16.4251   22.2197 O   0  0  0  0  0  0  0  0  0  0  0  0
   10.0156  -18.9108   23.6295 O   0  0  0  0  0  0  0  0  0  0  0  0
    8.6956  -18.7236   24.0715 C   0  0  0  0  0  0  0  0  0  0  0  0
    8.4121  -17.2562   24.0183 C   0  0  2  0  0  0  0  0  0  0  0  0
    8.5846  -16.6509   22.7481 N   0  0  0  0  0  0  0  0  0  0  0  0
    9.1583  -16.4883   25.0434 C   0  0  0  0  0  0  0  0  0  0  0  0
   10.2053  -15.9034   24.7207 O   0  0  0  0  0  0  0  0  0  0  0  0
    8.7022  -16.4075   26.3844 N   0  0  0  0  0  0  0  0  0  0  0  0
    9.4479  -15.6837   27.4001 C   0  0  1  0  0  0  0  0  0  0  0  0
    8.5185  -14.8017   28.1858 C   0  0  0  0  0  0  0  0  0  0  0  0
    7.8955  -13.7238   27.4178 C   0  0  0  0  0  0  0  0  0  0  0  0
    6.6184  -13.8604   26.9284 C   0  0  0  0  0  0  0  0  0  0  0  0
    6.0392  -12.8406   26.2115 C   0  0  0  0  0  0  0  0  0  0  0  0
    6.7610  -11.6648   25.9858 C   0  0  0  0  0  0  0  0  0  0  0  0
    8.0522  -11.5400   26.4868 C   0  0  0  0  0  0  0  0  0  0  0  0
    8.6340  -12.5605   27.2050 C   0  0  0  0  0  0  0  0  0  0  0  0
   10.1943  -16.6456   28.2339 C   0  0  0  0  0  0  0  0  0  0  0  0
    9.9383  -17.8926   28.1574 O   0  0  0  0  0  0  0  0  0  0  0  0
   11.1856  -16.2759   29.1218 O   0  0  0  0  0  0  0  0  0  0  0  0
  2  9  1  0
  2  1  1  6
  3  2  1  0
  4  3  1  0
  5  4  2  0
  6  7  1  0
  6  5  1  0
  7  8  2  0
  8  4  1  0
  9 10  2  0
 12 11  1  0
 13 12  1  6
 14 13  1  0
 14  9  1  0
 15 13  1  0
 16 15  2  0
 17 15  1  0
 18 17  1  0
 18 19  1  1
 20 19  1  0
 21 20  2  0
 22 21  1  0
 23 24  1  0
 23 22  2  0
 24 25  2  0
 25 20  1  0
 26 18  1  0
 26 28  1  0
 27 26  2  0
M  END
$$$$
