HSF.pdb
     RDKit          3D

 28 29  0  0  1  0  0  0  0  0999 V2000
    8.5272  -16.7038   19.2893 N   0  0  0  0  0  0  0  0  0  0  0  0
    8.5309  -15.7154   20.3199 C   0  0  1  0  0  0  0  0  0  0  0  0
    7.5044  -14.6573   19.9932 C   0  0  0  0  0  0  0  0  0  0  0  0
    7.8550  -13.9782   18.7219 C   0  0  0  0  0  0  0  0  0  0  0  0
    8.8186  -13.0215   18.4875 C   0  0  0  0  0  0  0  0  0  0  0  0
    8.7729  -12.6999   17.1835 N   0  0  0  0  0  0  0  0  0  0  0  0
    7.8080  -13.4349   16.6194 C   0  0  0  0  0  0  0  0  0  0  0  0
    7.2549  -14.2060   17.5495 N   0  0  0  0  0  0  0  0  0  0  0  0
    8.2492  -16.2952   21.6660 C   0  0  0  0  0  0  0  0  0  0  0  0
    7.1032  -16.6350   22.0031 O   0  0  0  0  0  0  0  0  0  0  0  0
   11.1164  -18.4122   23.3723 O   0  0  0  0  0  0  0  0  0  0  0  0
    9.8059  -18.5222   23.8656 C   0  0  0  0  0  0  0  0  0  0  0  0
    9.2047  -17.1531   23.8415 C   0  0  2  0  0  0  0  0  0  0  0  0
    9.2942  -16.4732   22.6008 N   0  0  0  0  0  0  0  0  0  0  0  0
    9.7143  -16.2815   24.9268 C   0  0  0  0  0  0  0  0  0  0  0  0
   10.6473  -15.4975   24.6881 O   0  0  0  0  0  0  0  0  0  0  0  0
    9.1590  -16.3240   26.2318 N   0  0  0  0  0  0  0  0  0  0  0  0
    9.7413  -15.5742   27.3320 C   0  0  1  0  0  0  0  0  0  0  0  0
    8.6598  -14.8602   28.0934 C   0  0  0  0  0  0  0  0  0  0  0  0
    7.9437  -13.8364   27.3327 C   0  0  0  0  0  0  0  0  0  0  0  0
    6.7844  -14.1451   26.6620 C   0  0  0  0  0  0  0  0  0  0  0  0
    6.1156  -13.1756   25.9534 C   0  0  0  0  0  0  0  0  0  0  0  0
    6.6256  -11.8744   25.9218 C   0  0  0  0  0  0  0  0  0  0  0  0
    7.7994  -11.5758   26.6050 C   0  0  0  0  0  0  0  0  0  0  0  0
    8.4707  -12.5456   27.3153 C   0  0  0  0  0  0  0  0  0  0  0  0
   10.5491  -16.4838   28.1673 C   0  0  0  0  0  0  0  0  0  0  0  0
   11.2046  -16.0272   29.1614 O   0  0  0  0  0  0  0  0  0  0  0  0
   10.6471  -17.8424   27.9391 O   0  0  0  0  0  0  0  0  0  0  0  0
  2  9  1  0
  2  1  1  6
  3  2  1  0
  4  3  1  0
  5  4  2  0
  6  7  1  0
  6  5  1  0
  7  8  2  0
  8  4  1  0
  9 10  2  0
 12 11  1  0
 13 12  1  6
 14 13  1  0
 14  9  1  0
 15 13  1  0
 16 15  2  0
 17 15  1  0
 18 17  1  0
 18 19  1  1
 20 19  1  0
 21 20  2  0
 22 21  1  0
 23 24  1  0
 23 22  2  0
 24 25  2  0
 25 20  1  0
 26 18  1  0
 26 28  1  0
 27 26  2  0
M  END
$$$$
