HSF.pdb
     RDKit          3D

 28 29  0  0  1  0  0  0  0  0999 V2000
    7.8340  -17.5694   19.3757 N   0  0  0  0  0  0  0  0  0  0  0  0
    8.1400  -16.5733   20.3520 C   0  0  1  0  0  0  0  0  0  0  0  0
    7.3783  -15.3111   20.0255 C   0  0  0  0  0  0  0  0  0  0  0  0
    8.1453  -14.4841   19.0623 C   0  0  0  0  0  0  0  0  0  0  0  0
    9.3556  -14.7529   18.4607 C   0  0  0  0  0  0  0  0  0  0  0  0
    9.6605  -13.7147   17.6637 N   0  0  0  0  0  0  0  0  0  0  0  0
    8.6688  -12.8227   17.7647 C   0  0  0  0  0  0  0  0  0  0  0  0
    7.7549  -13.2887   18.6094 N   0  0  0  0  0  0  0  0  0  0  0  0
    7.8139  -17.0165   21.7394 C   0  0  0  0  0  0  0  0  0  0  0  0
    6.7555  -17.6105   22.0026 O   0  0  0  0  0  0  0  0  0  0  0  0
   10.0964  -19.0285   23.8165 O   0  0  0  0  0  0  0  0  0  0  0  0
    8.8060  -18.7293   24.2836 C   0  0  0  0  0  0  0  0  0  0  0  0
    8.6060  -17.2557   24.1263 C   0  0  2  0  0  0  0  0  0  0  0  0
    8.7143  -16.7671   22.7999 N   0  0  0  0  0  0  0  0  0  0  0  0
    9.4739  -16.4579   25.0250 C   0  0  0  0  0  0  0  0  0  0  0  0
   10.5625  -16.0366   24.6010 O   0  0  0  0  0  0  0  0  0  0  0  0
    9.0875  -16.1656   26.3585 N   0  0  0  0  0  0  0  0  0  0  0  0
    9.8886  -15.3047   27.2122 C   0  0  1  0  0  0  0  0  0  0  0  0
    8.9930  -14.5011   28.1130 C   0  0  0  0  0  0  0  0  0  0  0  0
    8.0475  -13.6259   27.4205 C   0  0  0  0  0  0  0  0  0  0  0  0
    8.4948  -12.6645   26.5460 C   0  0  0  0  0  0  0  0  0  0  0  0
    7.5988  -11.8494   25.8961 C   0  0  0  0  0  0  0  0  0  0  0  0
    6.2303  -12.0079   26.1331 C   0  0  0  0  0  0  0  0  0  0  0  0
    5.7916  -12.9847   27.0204 C   0  0  0  0  0  0  0  0  0  0  0  0
    6.6875  -13.8021   27.6722 C   0  0  0  0  0  0  0  0  0  0  0  0
   10.8762  -16.1244   27.9405 C   0  0  0  0  0  0  0  0  0  0  0  0
   10.7817  -17.3962   27.9343 O   0  0  0  0  0  0  0  0  0  0  0  0
   11.9325  -15.5908   28.6527 O   0  0  0  0  0  0  0  0  0  0  0  0
  2  9  1  0
  2  1  1  6
  3  2  1  0
  4  3  1  0
  5  4  2  0
  6  7  1  0
  6  5  1  0
  7  8  2  0
  8  4  1  0
  9 10  2  0
 12 11  1  0
 13 12  1  6
 14 13  1  0
 14  9  1  0
 15 13  1  0
 16 15  2  0
 17 15  1  0
 18 17  1  0
 18 19  1  1
 20 19  1  0
 21 20  2  0
 22 21  1  0
 23 24  1  0
 23 22  2  0
 24 25  2  0
 25 20  1  0
 26 18  1  0
 26 28  1  0
 27 26  2  0
M  END
$$$$
