HSF.pdb
     RDKit          3D

 28 29  0  0  1  0  0  0  0  0999 V2000
    8.9316  -17.0103   17.4668 N   0  0  0  0  0  0  0  0  0  0  0  0
    8.9965  -16.0919   18.5583 C   0  0  1  0  0  0  0  0  0  0  0  0
    7.8447  -15.1208   18.4559 C   0  0  0  0  0  0  0  0  0  0  0  0
    7.9619  -14.3156   17.2156 C   0  0  0  0  0  0  0  0  0  0  0  0
    8.5760  -13.0963   17.0287 C   0  0  0  0  0  0  0  0  0  0  0  0
    8.4291  -12.7534   15.7376 N   0  0  0  0  0  0  0  0  0  0  0  0
    7.7427  -13.7308   15.1352 C   0  0  0  0  0  0  0  0  0  0  0  0
    7.4615  -14.6732   16.0289 N   0  0  0  0  0  0  0  0  0  0  0  0
    8.9631  -16.7785   19.8831 C   0  0  0  0  0  0  0  0  0  0  0  0
    7.8919  -17.0627   20.4437 O   0  0  0  0  0  0  0  0  0  0  0  0
   12.4531  -18.5519   21.2218 O   0  0  0  0  0  0  0  0  0  0  0  0
   11.2190  -19.0268   21.6953 C   0  0  0  0  0  0  0  0  0  0  0  0
   10.2829  -17.8616   21.7450 C   0  0  2  0  0  0  0  0  0  0  0  0
   10.1658  -17.1258   20.5389 N   0  0  0  0  0  0  0  0  0  0  0  0
   10.5726  -16.9381   22.8677 C   0  0  0  0  0  0  0  0  0  0  0  0
   11.2561  -15.9227   22.6575 O   0  0  0  0  0  0  0  0  0  0  0  0
   10.0859  -17.1894   24.1765 N   0  0  0  0  0  0  0  0  0  0  0  0
   10.4529  -16.3448   25.3006 C   0  0  1  0  0  0  0  0  0  0  0  0
    9.2627  -16.1381   26.1951 C   0  0  0  0  0  0  0  0  0  0  0  0
    9.5286  -15.3590   27.4042 C   0  0  0  0  0  0  0  0  0  0  0  0
   10.1717  -15.9288   28.4770 C   0  0  0  0  0  0  0  0  0  0  0  0
   10.4215  -15.1878   29.6075 C   0  0  0  0  0  0  0  0  0  0  0  0
   10.0153  -13.8510   29.6551 C   0  0  0  0  0  0  0  0  0  0  0  0
    9.3656  -13.2872   28.5625 C   0  0  0  0  0  0  0  0  0  0  0  0
    9.1146  -14.0278   27.4293 C   0  0  0  0  0  0  0  0  0  0  0  0
   11.6159  -16.9336   25.9924 C   0  0  0  0  0  0  0  0  0  0  0  0
   12.5545  -16.1829   26.4189 O   0  0  0  0  0  0  0  0  0  0  0  0
   11.7627  -18.2883   26.2181 O   0  0  0  0  0  0  0  0  0  0  0  0
  2  9  1  0
  2  1  1  6
  3  2  1  0
  4  3  1  0
  5  4  2  0
  6  7  1  0
  6  5  1  0
  7  8  2  0
  8  4  1  0
  9 10  2  0
 12 11  1  0
 13 12  1  6
 14 13  1  0
 14  9  1  0
 15 13  1  0
 16 15  2  0
 17 15  1  0
 18 17  1  0
 18 19  1  1
 20 19  1  0
 21 20  2  0
 22 21  1  0
 23 24  1  0
 23 22  2  0
 24 25  2  0
 25 20  1  0
 26 18  1  0
 26 28  1  0
 27 26  2  0
M  END
$$$$
