HSF.pdb
     RDKit          3D

 28 29  0  0  1  0  0  0  0  0999 V2000
    7.3482  -17.0183   20.0751 N   0  0  0  0  0  0  0  0  0  0  0  0
    8.0143  -16.1642   21.0055 C   0  0  1  0  0  0  0  0  0  0  0  0
    7.4143  -14.7810   20.9234 C   0  0  0  0  0  0  0  0  0  0  0  0
    7.8071  -14.1266   19.6515 C   0  0  0  0  0  0  0  0  0  0  0  0
    7.0096  -13.7174   18.6050 C   0  0  0  0  0  0  0  0  0  0  0  0
    7.8048  -13.1762   17.6665 N   0  0  0  0  0  0  0  0  0  0  0  0
    9.0634  -13.2455   18.1142 C   0  0  0  0  0  0  0  0  0  0  0  0
    9.0631  -13.8195   19.3126 N   0  0  0  0  0  0  0  0  0  0  0  0
    7.9276  -16.6710   22.4067 C   0  0  0  0  0  0  0  0  0  0  0  0
    6.8608  -17.0920   22.8832 O   0  0  0  0  0  0  0  0  0  0  0  0
   11.0640  -18.4917   23.9777 O   0  0  0  0  0  0  0  0  0  0  0  0
    9.8088  -18.5957   24.5993 C   0  0  0  0  0  0  0  0  0  0  0  0
    9.1655  -17.2474   24.5321 C   0  0  2  0  0  0  0  0  0  0  0  0
    9.0729  -16.6836   23.2347 N   0  0  0  0  0  0  0  0  0  0  0  0
    9.7817  -16.2688   25.4594 C   0  0  0  0  0  0  0  0  0  0  0  0
   10.8316  -15.6950   25.1264 O   0  0  0  0  0  0  0  0  0  0  0  0
    9.1980  -15.9739   26.7184 N   0  0  0  0  0  0  0  0  0  0  0  0
    9.8401  -15.0767   27.6642 C   0  0  1  0  0  0  0  0  0  0  0  0
    8.8155  -14.1680   28.2838 C   0  0  0  0  0  0  0  0  0  0  0  0
    8.0799  -13.3316   27.3357 C   0  0  0  0  0  0  0  0  0  0  0  0
    8.6342  -12.9923   26.1245 C   0  0  0  0  0  0  0  0  0  0  0  0
    7.9338  -12.2097   25.2378 C   0  0  0  0  0  0  0  0  0  0  0  0
    6.6540  -11.7630   25.5796 C   0  0  0  0  0  0  0  0  0  0  0  0
    6.1052  -12.1138   26.8082 C   0  0  0  0  0  0  0  0  0  0  0  0
    6.8053  -12.8977   27.6977 C   0  0  0  0  0  0  0  0  0  0  0  0
   10.5983  -15.8705   28.6504 C   0  0  0  0  0  0  0  0  0  0  0  0
   11.2747  -15.2851   29.5593 O   0  0  0  0  0  0  0  0  0  0  0  0
   10.6264  -17.2514   28.6574 O   0  0  0  0  0  0  0  0  0  0  0  0
  2  9  1  0
  2  1  1  6
  3  2  1  0
  4  3  1  0
  5  4  2  0
  6  7  1  0
  6  5  1  0
  7  8  2  0
  8  4  1  0
  9 10  2  0
 12 11  1  0
 13 12  1  6
 14 13  1  0
 14  9  1  0
 15 13  1  0
 16 15  2  0
 17 15  1  0
 18 17  1  0
 18 19  1  1
 20 19  1  0
 21 20  2  0
 22 21  1  0
 23 24  1  0
 23 22  2  0
 24 25  2  0
 25 20  1  0
 26 18  1  0
 26 28  1  0
 27 26  2  0
M  END
$$$$
