WWK.pdb
     RDKit          3D

 38 41  0  0  1  0  0  0  0  0999 V2000
   29.0422  -20.6999  -15.8097 N   0  0  0  0  0  0  0  0  0  0  0  0
   27.9928  -20.1566  -14.9654 C   0  0  1  0  0  0  0  0  0  0  0  0
   27.0042  -19.5016  -15.9277 C   0  0  0  0  0  0  0  0  0  0  0  0
   27.5589  -18.2504  -16.4645 C   0  0  0  0  0  0  0  0  0  0  0  0
   28.0536  -18.0188  -17.7550 C   0  0  0  0  0  0  0  0  0  0  0  0
   28.4661  -16.7614  -17.8552 N   0  0  0  0  0  0  0  0  0  0  0  0
   28.2498  -16.1768  -16.6622 C   0  0  0  0  0  0  0  0  0  0  0  0
   28.4913  -14.9039  -16.2287 C   0  0  0  0  0  0  0  0  0  0  0  0
   28.1785  -14.5302  -14.9354 C   0  0  0  0  0  0  0  0  0  0  0  0
   27.6164  -15.4062  -14.0309 C   0  0  0  0  0  0  0  0  0  0  0  0
   27.3755  -16.7034  -14.4882 C   0  0  0  0  0  0  0  0  0  0  0  0
   27.6867  -17.0718  -15.7714 C   0  0  0  0  0  0  0  0  0  0  0  0
   27.3629  -21.2671  -14.2371 C   0  0  0  0  0  0  0  0  0  0  0  0
   27.2271  -22.3786  -14.8064 O   0  0  0  0  0  0  0  0  0  0  0  0
   26.8785  -21.2066  -12.9175 N   0  0  0  0  0  0  0  0  0  0  0  0
   25.9513  -22.1636  -12.3614 C   0  0  1  0  0  0  0  0  0  0  0  0
   26.1294  -22.4478  -10.9253 C   0  0  0  0  0  0  0  0  0  0  0  0
   26.0992  -21.1763  -10.1683 C   0  0  0  0  0  0  0  0  0  0  0  0
   25.1438  -20.2038  -10.0349 C   0  0  0  0  0  0  0  0  0  0  0  0
   25.6195  -19.2315   -9.2350 N   0  0  0  0  0  0  0  0  0  0  0  0
   26.8653  -19.5291   -8.8316 C   0  0  0  0  0  0  0  0  0  0  0  0
   27.8017  -18.8955   -8.0207 C   0  0  0  0  0  0  0  0  0  0  0  0
   29.0453  -19.4341   -7.7641 C   0  0  0  0  0  0  0  0  0  0  0  0
   29.3553  -20.6433   -8.3391 C   0  0  0  0  0  0  0  0  0  0  0  0
   28.4134  -21.2805   -9.1548 C   0  0  0  0  0  0  0  0  0  0  0  0
   27.1750  -20.7250   -9.3987 C   0  0  0  0  0  0  0  0  0  0  0  0
   24.5918  -21.6143  -12.5847 C   0  0  0  0  0  0  0  0  0  0  0  0
   24.4355  -20.3730  -12.5594 O   0  0  0  0  0  0  0  0  0  0  0  0
   23.4994  -22.4680  -12.8204 N   0  0  0  0  0  0  0  0  0  0  0  0
   22.1219  -21.9359  -13.1237 C   0  0  1  0  0  0  0  0  0  0  0  0
   21.6853  -22.5292  -14.3967 C   0  0  0  0  0  0  0  0  0  0  0  0
   21.7670  -23.9282  -14.7504 C   0  0  0  0  0  0  0  0  0  0  0  0
   22.1771  -24.4422  -16.0613 C   0  0  0  0  0  0  0  0  0  0  0  0
   20.8950  -25.1643  -16.6234 C   0  0  0  0  0  0  0  0  0  0  0  0
   21.2742  -25.5759  -17.9618 N   0  0  0  0  0  0  0  0  0  0  0  0
   21.2804  -22.3434  -11.9801 C   0  0  0  0  0  0  0  0  0  0  0  0
   21.6091  -23.0597  -11.0189 O   0  0  0  0  0  0  0  0  0  0  0  0
   19.9414  -21.8864  -11.9369 O   0  0  0  0  0  0  0  0  0  0  0  0
  2  1  1  6
  2  3  1  0
  3  4  1  0
  4  5  2  0
  6  5  1  0
  7  6  1  0
  8  7  2  0
  9  8  1  0
 10  9  2  0
 10 11  1  0
 11 12  2  0
 12  7  1  0
 12  4  1  0
 13  2  1  0
 13 15  1  0
 14 13  2  0
 16 15  1  0
 16 17  1  1
 18 17  1  0
 18 26  1  0
 19 18  2  0
 20 19  1  0
 20 21  1  0
 21 22  1  0
 21 26  2  0
 22 23  2  0
 23 24  1  0
 25 24  2  0
 26 25  1  0
 27 16  1  0
 28 27  2  0
 29 27  1  0
 30 31  1  6
 30 29  1  0
 32 31  1  0
 33 32  1  0
 34 33  1  0
 35 34  1  0
 36 38  1  0
 36 30  1  0
 37 36  2  0
M  END
$$$$
