WWK.pdb
     RDKit          3D

 38 41  0  0  1  0  0  0  0  0999 V2000
   25.5186  -17.8850  -18.1666 N   0  0  0  0  0  0  0  0  0  0  0  0
   25.6151  -17.3349  -16.8260 C   0  0  1  0  0  0  0  0  0  0  0  0
   24.2773  -16.6400  -16.5817 C   0  0  0  0  0  0  0  0  0  0  0  0
   24.2720  -15.3022  -17.1916 C   0  0  0  0  0  0  0  0  0  0  0  0
   23.4146  -14.8214  -18.1903 C   0  0  0  0  0  0  0  0  0  0  0  0
   23.7249  -13.5631  -18.4762 N   0  0  0  0  0  0  0  0  0  0  0  0
   24.7603  -13.2209  -17.6872 C   0  0  0  0  0  0  0  0  0  0  0  0
   25.4591  -12.0518  -17.5788 C   0  0  0  0  0  0  0  0  0  0  0  0
   26.5025  -11.9370  -16.6798 C   0  0  0  0  0  0  0  0  0  0  0  0
   26.8865  -12.9771  -15.8599 C   0  0  0  0  0  0  0  0  0  0  0  0
   26.1633  -14.1654  -15.9820 C   0  0  0  0  0  0  0  0  0  0  0  0
   25.1287  -14.2770  -16.8744 C   0  0  0  0  0  0  0  0  0  0  0  0
   25.8127  -18.4450  -15.8830 C   0  0  0  0  0  0  0  0  0  0  0  0
   25.5570  -19.6185  -16.2509 O   0  0  0  0  0  0  0  0  0  0  0  0
   26.2762  -18.3191  -14.5605 N   0  0  0  0  0  0  0  0  0  0  0  0
   26.3919  -19.4293  -13.6447 C   0  0  1  0  0  0  0  0  0  0  0  0
   27.1528  -19.1494  -12.4128 C   0  0  0  0  0  0  0  0  0  0  0  0
   27.2863  -20.3966  -11.6271 C   0  0  0  0  0  0  0  0  0  0  0  0
   27.8481  -21.6126  -11.9137 C   0  0  0  0  0  0  0  0  0  0  0  0
   27.6942  -22.4255  -10.8522 N   0  0  0  0  0  0  0  0  0  0  0  0
   27.0454  -21.7851   -9.8661 C   0  0  0  0  0  0  0  0  0  0  0  0
   26.6305  -22.1385   -8.5860 C   0  0  0  0  0  0  0  0  0  0  0  0
   25.9606  -21.2639   -7.7560 C   0  0  0  0  0  0  0  0  0  0  0  0
   25.7010  -19.9991   -8.2270 C   0  0  0  0  0  0  0  0  0  0  0  0
   26.1184  -19.6437   -9.5147 C   0  0  0  0  0  0  0  0  0  0  0  0
   26.7872  -20.5333  -10.3289 C   0  0  0  0  0  0  0  0  0  0  0  0
   25.0089  -19.8258  -13.2839 C   0  0  0  0  0  0  0  0  0  0  0  0
   24.1973  -18.9334  -12.9512 O   0  0  0  0  0  0  0  0  0  0  0  0
   24.6151  -21.1755  -13.3144 N   0  0  0  0  0  0  0  0  0  0  0  0
   23.1742  -21.5899  -13.1571 C   0  0  1  0  0  0  0  0  0  0  0  0
   22.9801  -22.8283  -13.9264 C   0  0  0  0  0  0  0  0  0  0  0  0
   22.5408  -24.0970  -13.3912 C   0  0  0  0  0  0  0  0  0  0  0  0
   22.3925  -25.3320  -14.1680 C   0  0  0  0  0  0  0  0  0  0  0  0
   21.8179  -26.3799  -13.1419 C   0  0  0  0  0  0  0  0  0  0  0  0
   21.6149  -27.5797  -13.9317 N   0  0  0  0  0  0  0  0  0  0  0  0
   22.9729  -21.7763  -11.7057 C   0  0  0  0  0  0  0  0  0  0  0  0
   21.9129  -21.6508  -11.0687 O   0  0  0  0  0  0  0  0  0  0  0  0
   24.0896  -22.1401  -10.9155 O   0  0  0  0  0  0  0  0  0  0  0  0
  2  1  1  6
  2  3  1  0
  3  4  1  0
  4  5  2  0
  6  5  1  0
  7  6  1  0
  8  7  2  0
  9  8  1  0
 10  9  2  0
 10 11  1  0
 11 12  2  0
 12  7  1  0
 12  4  1  0
 13  2  1  0
 13 15  1  0
 14 13  2  0
 16 15  1  0
 16 17  1  1
 18 17  1  0
 18 26  1  0
 19 18  2  0
 20 19  1  0
 20 21  1  0
 21 22  1  0
 21 26  2  0
 22 23  2  0
 23 24  1  0
 25 24  2  0
 26 25  1  0
 27 16  1  0
 28 27  2  0
 29 27  1  0
 30 31  1  6
 30 29  1  0
 32 31  1  0
 33 32  1  0
 34 33  1  0
 35 34  1  0
 36 38  1  0
 36 30  1  0
 37 36  2  0
M  END
$$$$
