WWK.pdb
     RDKit          3D

 38 41  0  0  1  0  0  0  0  0999 V2000
   28.4107  -17.8598  -14.7703 N   0  0  0  0  0  0  0  0  0  0  0  0
   27.0382  -18.3206  -14.6565 C   0  0  1  0  0  0  0  0  0  0  0  0
   26.5233  -18.4018  -16.0920 C   0  0  0  0  0  0  0  0  0  0  0  0
   26.2768  -17.0554  -16.6286 C   0  0  0  0  0  0  0  0  0  0  0  0
   26.8718  -16.4593  -17.7486 C   0  0  0  0  0  0  0  0  0  0  0  0
   26.3877  -15.2344  -17.9115 N   0  0  0  0  0  0  0  0  0  0  0  0
   25.4960  -15.0260  -16.9251 C   0  0  0  0  0  0  0  0  0  0  0  0
   24.7181  -13.9417  -16.6316 C   0  0  0  0  0  0  0  0  0  0  0  0
   23.8628  -13.9630  -15.5462 C   0  0  0  0  0  0  0  0  0  0  0  0
   23.7512  -15.0594  -14.7175 C   0  0  0  0  0  0  0  0  0  0  0  0
   24.5522  -16.1597  -15.0298 C   0  0  0  0  0  0  0  0  0  0  0  0
   25.3999  -16.1363  -16.1069 C   0  0  0  0  0  0  0  0  0  0  0  0
   27.0459  -19.6470  -14.0231 C   0  0  0  0  0  0  0  0  0  0  0  0
   27.6652  -20.5897  -14.5759 O   0  0  0  0  0  0  0  0  0  0  0  0
   26.4045  -19.9779  -12.8154 N   0  0  0  0  0  0  0  0  0  0  0  0
   25.8278  -21.2737  -12.5453 C   0  0  1  0  0  0  0  0  0  0  0  0
   26.3916  -21.9806  -11.3803 C   0  0  0  0  0  0  0  0  0  0  0  0
   26.3148  -21.1020  -10.1916 C   0  0  0  0  0  0  0  0  0  0  0  0
   25.3149  -20.3100   -9.6922 C   0  0  0  0  0  0  0  0  0  0  0  0
   25.7592  -19.6957   -8.5801 N   0  0  0  0  0  0  0  0  0  0  0  0
   27.0272  -20.0564   -8.3245 C   0  0  0  0  0  0  0  0  0  0  0  0
   27.9487  -19.7330   -7.3336 C   0  0  0  0  0  0  0  0  0  0  0  0
   29.2234  -20.2594   -7.3063 C   0  0  0  0  0  0  0  0  0  0  0  0
   29.5806  -21.1352   -8.3035 C   0  0  0  0  0  0  0  0  0  0  0  0
   28.6537  -21.4604   -9.3003 C   0  0  0  0  0  0  0  0  0  0  0  0
   27.3837  -20.9230   -9.3093 C   0  0  0  0  0  0  0  0  0  0  0  0
   24.3773  -21.0539  -12.3270 C   0  0  0  0  0  0  0  0  0  0  0  0
   23.9690  -19.8850  -12.1459 O   0  0  0  0  0  0  0  0  0  0  0  0
   23.4773  -22.1345  -12.3233 N   0  0  0  0  0  0  0  0  0  0  0  0
   22.0293  -21.9681  -12.7087 C   0  0  1  0  0  0  0  0  0  0  0  0
   21.7282  -22.9623  -13.7498 C   0  0  0  0  0  0  0  0  0  0  0  0
   20.4332  -23.1961  -14.3475 C   0  0  0  0  0  0  0  0  0  0  0  0
   20.1689  -24.1353  -15.4423 C   0  0  0  0  0  0  0  0  0  0  0  0
   18.6199  -24.0160  -15.7026 C   0  0  0  0  0  0  0  0  0  0  0  0
   18.5203  -23.6285  -17.0970 N   0  0  0  0  0  0  0  0  0  0  0  0
   21.2620  -22.1861  -11.4654 C   0  0  0  0  0  0  0  0  0  0  0  0
   20.3394  -21.4850  -11.0154 O   0  0  0  0  0  0  0  0  0  0  0  0
   21.5833  -23.3107  -10.6681 O   0  0  0  0  0  0  0  0  0  0  0  0
  2  1  1  6
  2  3  1  0
  3  4  1  0
  4  5  2  0
  6  5  1  0
  7  6  1  0
  8  7  2  0
  9  8  1  0
 10  9  2  0
 10 11  1  0
 11 12  2  0
 12  7  1  0
 12  4  1  0
 13  2  1  0
 13 15  1  0
 14 13  2  0
 16 15  1  0
 16 17  1  1
 18 17  1  0
 18 26  1  0
 19 18  2  0
 20 19  1  0
 20 21  1  0
 21 22  1  0
 21 26  2  0
 22 23  2  0
 23 24  1  0
 25 24  2  0
 26 25  1  0
 27 16  1  0
 28 27  2  0
 29 27  1  0
 30 31  1  6
 30 29  1  0
 32 31  1  0
 33 32  1  0
 34 33  1  0
 35 34  1  0
 36 38  1  0
 36 30  1  0
 37 36  2  0
M  END
$$$$
