WWK.pdb
     RDKit          3D

 38 41  0  0  1  0  0  0  0  0999 V2000
   27.4880  -19.8382  -11.3515 N   0  0  0  0  0  0  0  0  0  0  0  0
   26.5762  -20.9667  -11.2865 C   0  0  1  0  0  0  0  0  0  0  0  0
   26.0391  -20.9652   -9.8569 C   0  0  0  0  0  0  0  0  0  0  0  0
   27.1429  -20.8590   -8.8914 C   0  0  0  0  0  0  0  0  0  0  0  0
   27.1899  -20.0774   -7.7293 C   0  0  0  0  0  0  0  0  0  0  0  0
   28.3568  -20.2519   -7.1217 N   0  0  0  0  0  0  0  0  0  0  0  0
   29.0628  -21.1261   -7.8626 C   0  0  0  0  0  0  0  0  0  0  0  0
   30.3148  -21.6451   -7.6892 C   0  0  0  0  0  0  0  0  0  0  0  0
   30.8362  -22.5433   -8.6010 C   0  0  0  0  0  0  0  0  0  0  0  0
   30.1334  -22.9556   -9.7135 C   0  0  0  0  0  0  0  0  0  0  0  0
   28.8556  -22.4167   -9.8774 C   0  0  0  0  0  0  0  0  0  0  0  0
   28.3405  -21.5259   -8.9717 C   0  0  0  0  0  0  0  0  0  0  0  0
   25.4943  -20.7444  -12.2565 C   0  0  0  0  0  0  0  0  0  0  0  0
   24.7516  -19.7391  -12.1309 O   0  0  0  0  0  0  0  0  0  0  0  0
   25.1967  -21.5764  -13.3513 N   0  0  0  0  0  0  0  0  0  0  0  0
   24.0790  -21.3601  -14.2394 C   0  0  1  0  0  0  0  0  0  0  0  0
   24.4317  -21.1868  -15.6608 C   0  0  0  0  0  0  0  0  0  0  0  0
   24.8533  -19.7871  -15.8925 C   0  0  0  0  0  0  0  0  0  0  0  0
   24.2050  -18.7037  -16.4237 C   0  0  0  0  0  0  0  0  0  0  0  0
   25.0434  -17.6508  -16.4247 N   0  0  0  0  0  0  0  0  0  0  0  0
   26.2324  -18.0025  -15.9090 C   0  0  0  0  0  0  0  0  0  0  0  0
   27.4291  -17.3310  -15.6793 C   0  0  0  0  0  0  0  0  0  0  0  0
   28.5300  -17.9476  -15.1223 C   0  0  0  0  0  0  0  0  0  0  0  0
   28.4239  -19.2763  -14.7871 C   0  0  0  0  0  0  0  0  0  0  0  0
   27.2201  -19.9517  -15.0182 C   0  0  0  0  0  0  0  0  0  0  0  0
   26.1307  -19.3166  -15.5763 C   0  0  0  0  0  0  0  0  0  0  0  0
   23.1916  -22.5401  -14.0977 C   0  0  0  0  0  0  0  0  0  0  0  0
   23.7128  -23.6636  -13.9187 O   0  0  0  0  0  0  0  0  0  0  0  0
   21.7936  -22.4023  -14.1624 N   0  0  0  0  0  0  0  0  0  0  0  0
   20.8630  -23.5326  -13.8029 C   0  0  1  0  0  0  0  0  0  0  0  0
   20.2718  -23.2233  -12.4921 C   0  0  0  0  0  0  0  0  0  0  0  0
   19.3249  -24.0470  -11.7753 C   0  0  0  0  0  0  0  0  0  0  0  0
   18.6974  -23.6911  -10.4985 C   0  0  0  0  0  0  0  0  0  0  0  0
   18.8504  -24.9811   -9.6077 C   0  0  0  0  0  0  0  0  0  0  0  0
   18.3122  -24.5912   -8.3181 N   0  0  0  0  0  0  0  0  0  0  0  0
   19.8626  -23.5812  -14.8886 C   0  0  0  0  0  0  0  0  0  0  0  0
   19.1979  -24.5642  -15.2586 O   0  0  0  0  0  0  0  0  0  0  0  0
   19.6022  -22.3936  -15.6136 O   0  0  0  0  0  0  0  0  0  0  0  0
  2  1  1  1
  2  3  1  0
  3  4  1  0
  4  5  2  0
  6  5  1  0
  7  6  1  0
  8  7  2  0
  9  8  1  0
 10  9  2  0
 10 11  1  0
 11 12  2  0
 12  7  1  0
 12  4  1  0
 13  2  1  0
 13 15  1  0
 14 13  2  0
 16 15  1  0
 16 17  1  6
 18 17  1  0
 18 26  1  0
 19 18  2  0
 20 19  1  0
 20 21  1  0
 21 22  1  0
 21 26  2  0
 22 23  2  0
 23 24  1  0
 25 24  2  0
 26 25  1  0
 27 16  1  0
 28 27  2  0
 29 27  1  0
 30 31  1  1
 30 29  1  0
 32 31  1  0
 33 32  1  0
 34 33  1  0
 35 34  1  0
 36 38  1  0
 36 30  1  0
 37 36  2  0
M  END
$$$$
