WWK.pdb
     RDKit          3D

 38 41  0  0  1  0  0  0  0  0999 V2000
   27.9416  -23.3436  -17.2862 N   0  0  0  0  0  0  0  0  0  0  0  0
   27.4258  -22.0262  -16.9587 C   0  0  1  0  0  0  0  0  0  0  0  0
   26.2538  -21.8070  -17.9130 C   0  0  0  0  0  0  0  0  0  0  0  0
   26.7247  -21.2467  -19.1881 C   0  0  0  0  0  0  0  0  0  0  0  0
   27.1681  -21.9473  -20.3179 C   0  0  0  0  0  0  0  0  0  0  0  0
   27.5096  -21.0877  -21.2697 N   0  0  0  0  0  0  0  0  0  0  0  0
   27.2976  -19.8513  -20.7820 C   0  0  0  0  0  0  0  0  0  0  0  0
   27.4834  -18.6198  -21.3441 C   0  0  0  0  0  0  0  0  0  0  0  0
   27.1893  -17.4711  -20.6341 C   0  0  0  0  0  0  0  0  0  0  0  0
   26.7017  -17.5064  -19.3447 C   0  0  0  0  0  0  0  0  0  0  0  0
   26.5172  -18.7717  -18.7836 C   0  0  0  0  0  0  0  0  0  0  0  0
   26.8096  -19.9097  -19.4897 C   0  0  0  0  0  0  0  0  0  0  0  0
   26.9719  -22.0408  -15.5607 C   0  0  0  0  0  0  0  0  0  0  0  0
   26.1081  -22.8796  -15.2025 O   0  0  0  0  0  0  0  0  0  0  0  0
   27.4248  -21.1767  -14.5470 N   0  0  0  0  0  0  0  0  0  0  0  0
   26.7644  -21.0243  -13.2721 C   0  0  1  0  0  0  0  0  0  0  0  0
   27.3917  -20.0570  -12.3525 C   0  0  0  0  0  0  0  0  0  0  0  0
   26.6604  -20.0612  -11.0657 C   0  0  0  0  0  0  0  0  0  0  0  0
   25.3694  -19.7428  -10.7366 C   0  0  0  0  0  0  0  0  0  0  0  0
   25.2049  -19.9033   -9.4104 N   0  0  0  0  0  0  0  0  0  0  0  0
   26.3504  -20.3197   -8.8467 C   0  0  0  0  0  0  0  0  0  0  0  0
   26.7366  -20.6319   -7.5471 C   0  0  0  0  0  0  0  0  0  0  0  0
   28.0144  -21.0453   -7.2326 C   0  0  0  0  0  0  0  0  0  0  0  0
   28.9287  -21.1472   -8.2537 C   0  0  0  0  0  0  0  0  0  0  0  0
   28.5401  -20.8331   -9.5610 C   0  0  0  0  0  0  0  0  0  0  0  0
   27.2570  -20.4217   -9.8544 C   0  0  0  0  0  0  0  0  0  0  0  0
   25.3766  -20.5900  -13.5639 C   0  0  0  0  0  0  0  0  0  0  0  0
   25.2031  -19.5335  -14.2117 O   0  0  0  0  0  0  0  0  0  0  0  0
   24.2768  -21.3477  -13.1235 N   0  0  0  0  0  0  0  0  0  0  0  0
   22.8558  -20.9238  -13.3953 C   0  0  1  0  0  0  0  0  0  0  0  0
   22.1416  -22.0858  -13.9455 C   0  0  0  0  0  0  0  0  0  0  0  0
   21.2211  -22.9337  -13.2223 C   0  0  0  0  0  0  0  0  0  0  0  0
   20.4833  -24.0610  -13.8013 C   0  0  0  0  0  0  0  0  0  0  0  0
   19.5769  -24.5880  -12.6258 C   0  0  0  0  0  0  0  0  0  0  0  0
   18.7898  -25.6473  -13.2283 N   0  0  0  0  0  0  0  0  0  0  0  0
   22.3189  -20.4825  -12.0918 C   0  0  0  0  0  0  0  0  0  0  0  0
   22.8538  -20.6018  -10.9761 O   0  0  0  0  0  0  0  0  0  0  0  0
   21.0545  -19.8466  -12.0684 O   0  0  0  0  0  0  0  0  0  0  0  0
  2  1  1  6
  2  3  1  0
  3  4  1  0
  4  5  2  0
  6  5  1  0
  7  6  1  0
  8  7  2  0
  9  8  1  0
 10  9  2  0
 10 11  1  0
 11 12  2  0
 12  7  1  0
 12  4  1  0
 13  2  1  0
 13 15  1  0
 14 13  2  0
 16 15  1  0
 16 17  1  1
 18 17  1  0
 18 26  1  0
 19 18  2  0
 20 19  1  0
 20 21  1  0
 21 22  1  0
 21 26  2  0
 22 23  2  0
 23 24  1  0
 25 24  2  0
 26 25  1  0
 27 16  1  0
 28 27  2  0
 29 27  1  0
 30 31  1  1
 30 29  1  0
 32 31  1  0
 33 32  1  0
 34 33  1  0
 35 34  1  0
 36 38  1  0
 36 30  1  0
 37 36  2  0
M  END
$$$$
