WWK.pdb
     RDKit          3D

 38 41  0  0  1  0  0  0  0  0999 V2000
   21.4090  -19.9240  -11.2052 N   0  0  0  0  0  0  0  0  0  0  0  0
   22.2775  -20.8734  -11.8785 C   0  0  1  0  0  0  0  0  0  0  0  0
   21.8603  -20.8254  -13.3469 C   0  0  0  0  0  0  0  0  0  0  0  0
   20.5029  -21.3644  -13.5153 C   0  0  0  0  0  0  0  0  0  0  0  0
   19.3158  -20.6457  -13.7106 C   0  0  0  0  0  0  0  0  0  0  0  0
   18.2970  -21.4892  -13.8196 N   0  0  0  0  0  0  0  0  0  0  0  0
   18.7973  -22.7329  -13.6996 C   0  0  0  0  0  0  0  0  0  0  0  0
   18.1862  -23.9544  -13.7362 C   0  0  0  0  0  0  0  0  0  0  0  0
   18.9229  -25.1141  -13.5863 C   0  0  0  0  0  0  0  0  0  0  0  0
   20.2885  -25.1000  -13.3953 C   0  0  0  0  0  0  0  0  0  0  0  0
   20.8989  -23.8446  -13.3600 C   0  0  0  0  0  0  0  0  0  0  0  0
   20.1662  -22.6957  -13.5089 C   0  0  0  0  0  0  0  0  0  0  0  0
   23.6684  -20.4286  -11.7107 C   0  0  0  0  0  0  0  0  0  0  0  0
   24.0032  -19.2875  -12.1156 O   0  0  0  0  0  0  0  0  0  0  0  0
   24.7001  -21.1816  -11.1206 N   0  0  0  0  0  0  0  0  0  0  0  0
   26.0730  -20.7401  -11.0509 C   0  0  1  0  0  0  0  0  0  0  0  0
   26.8795  -21.3650   -9.9860 C   0  0  0  0  0  0  0  0  0  0  0  0
   26.8679  -20.4938   -8.7895 C   0  0  0  0  0  0  0  0  0  0  0  0
   26.2352  -19.3102   -8.5155 C   0  0  0  0  0  0  0  0  0  0  0  0
   26.5674  -18.9154   -7.2724 N   0  0  0  0  0  0  0  0  0  0  0  0
   27.4039  -19.8031   -6.7105 C   0  0  0  0  0  0  0  0  0  0  0  0
   28.0436  -19.8903   -5.4780 C   0  0  0  0  0  0  0  0  0  0  0  0
   28.8767  -20.9389   -5.1479 C   0  0  0  0  0  0  0  0  0  0  0  0
   29.0716  -21.9267   -6.0835 C   0  0  0  0  0  0  0  0  0  0  0  0
   28.4281  -21.8388   -7.3231 C   0  0  0  0  0  0  0  0  0  0  0  0
   27.5986  -20.7817   -7.6335 C   0  0  0  0  0  0  0  0  0  0  0  0
   26.6831  -21.0463  -12.3677 C   0  0  0  0  0  0  0  0  0  0  0  0
   26.4078  -22.1367  -12.9165 O   0  0  0  0  0  0  0  0  0  0  0  0
   27.5528  -20.1323  -12.9889 N   0  0  0  0  0  0  0  0  0  0  0  0
   27.8475  -20.1894  -14.4663 C   0  0  1  0  0  0  0  0  0  0  0  0
   28.4502  -18.9039  -14.8505 C   0  0  0  0  0  0  0  0  0  0  0  0
   28.9557  -18.5643  -16.1613 C   0  0  0  0  0  0  0  0  0  0  0  0
   29.5785  -17.2854  -16.5176 C   0  0  0  0  0  0  0  0  0  0  0  0
   29.9171  -17.4220  -18.0499 C   0  0  0  0  0  0  0  0  0  0  0  0
   30.6284  -16.1987  -18.3695 N   0  0  0  0  0  0  0  0  0  0  0  0
   28.7674  -21.3317  -14.6418 C   0  0  0  0  0  0  0  0  0  0  0  0
   29.0402  -21.9251  -15.6995 O   0  0  0  0  0  0  0  0  0  0  0  0
   29.4337  -21.8372  -13.4998 O   0  0  0  0  0  0  0  0  0  0  0  0
  2  1  1  1
  2  3  1  0
  3  4  1  0
  4  5  2  0
  6  5  1  0
  7  6  1  0
  8  7  2  0
  9  8  1  0
 10  9  2  0
 10 11  1  0
 11 12  2  0
 12  7  1  0
 12  4  1  0
 13  2  1  0
 13 15  1  0
 14 13  2  0
 16 15  1  0
 16 17  1  1
 18 17  1  0
 18 26  1  0
 19 18  2  0
 20 19  1  0
 20 21  1  0
 21 22  1  0
 21 26  2  0
 22 23  2  0
 23 24  1  0
 25 24  2  0
 26 25  1  0
 27 16  1  0
 28 27  2  0
 29 27  1  0
 30 31  1  1
 30 29  1  0
 32 31  1  0
 33 32  1  0
 34 33  1  0
 35 34  1  0
 36 38  1  0
 36 30  1  0
 37 36  2  0
M  END
$$$$
