WWK.pdb
     RDKit          3D

 38 41  0  0  1  0  0  0  0  0999 V2000
   26.4440  -20.2519  -16.2024 N   0  0  0  0  0  0  0  0  0  0  0  0
   25.3007  -19.7367  -15.4699 C   0  0  1  0  0  0  0  0  0  0  0  0
   24.1282  -19.8260  -16.4443 C   0  0  0  0  0  0  0  0  0  0  0  0
   24.0813  -18.6353  -17.3055 C   0  0  0  0  0  0  0  0  0  0  0  0
   24.6059  -18.4932  -18.5971 C   0  0  0  0  0  0  0  0  0  0  0  0
   24.3618  -17.2679  -19.0450 N   0  0  0  0  0  0  0  0  0  0  0  0
   23.6932  -16.6171  -18.0749 C   0  0  0  0  0  0  0  0  0  0  0  0
   23.2066  -15.3415  -18.0197 C   0  0  0  0  0  0  0  0  0  0  0  0
   22.5418  -14.8905  -16.8952 C   0  0  0  0  0  0  0  0  0  0  0  0
   22.3382  -15.6893  -15.7897 C   0  0  0  0  0  0  0  0  0  0  0  0
   22.8411  -16.9901  -15.8607 C   0  0  0  0  0  0  0  0  0  0  0  0
   23.5002  -17.4352  -16.9772 C   0  0  0  0  0  0  0  0  0  0  0  0
   25.0779  -20.5937  -14.2967 C   0  0  0  0  0  0  0  0  0  0  0  0
   25.1066  -21.8423  -14.4317 O   0  0  0  0  0  0  0  0  0  0  0  0
   24.8258  -20.1379  -12.9897 N   0  0  0  0  0  0  0  0  0  0  0  0
   24.4795  -21.0093  -11.8918 C   0  0  1  0  0  0  0  0  0  0  0  0
   24.8646  -20.5181  -10.5557 C   0  0  0  0  0  0  0  0  0  0  0  0
   26.3208  -20.7048  -10.3675 C   0  0  0  0  0  0  0  0  0  0  0  0
   27.2659  -21.3815  -11.0922 C   0  0  0  0  0  0  0  0  0  0  0  0
   28.4587  -21.2520  -10.4823 N   0  0  0  0  0  0  0  0  0  0  0  0
   28.3347  -20.5078   -9.3713 C   0  0  0  0  0  0  0  0  0  0  0  0
   29.2190  -20.0722   -8.3896 C   0  0  0  0  0  0  0  0  0  0  0  0
   28.8179  -19.2968   -7.3217 C   0  0  0  0  0  0  0  0  0  0  0  0
   27.4905  -18.9501   -7.2395 C   0  0  0  0  0  0  0  0  0  0  0  0
   26.6009  -19.3883   -8.2270 C   0  0  0  0  0  0  0  0  0  0  0  0
   27.0225  -20.1631   -9.2871 C   0  0  0  0  0  0  0  0  0  0  0  0
   23.0077  -21.1866  -11.9405 C   0  0  0  0  0  0  0  0  0  0  0  0
   22.2852  -20.1706  -12.0481 O   0  0  0  0  0  0  0  0  0  0  0  0
   22.4335  -22.4682  -11.8677 N   0  0  0  0  0  0  0  0  0  0  0  0
   20.9403  -22.6724  -11.8291 C   0  0  1  0  0  0  0  0  0  0  0  0
   20.6867  -24.1197  -11.8934 C   0  0  0  0  0  0  0  0  0  0  0  0
   19.3986  -24.7602  -11.7526 C   0  0  0  0  0  0  0  0  0  0  0  0
   19.1745  -26.2095  -11.7572 C   0  0  0  0  0  0  0  0  0  0  0  0
   17.6110  -26.3698  -11.6535 C   0  0  0  0  0  0  0  0  0  0  0  0
   17.3990  -27.8048  -11.6334 N   0  0  0  0  0  0  0  0  0  0  0  0
   20.4911  -22.0650  -10.5598 C   0  0  0  0  0  0  0  0  0  0  0  0
   21.1527  -21.9188   -9.5177 O   0  0  0  0  0  0  0  0  0  0  0  0
   19.1629  -21.5820  -10.4811 O   0  0  0  0  0  0  0  0  0  0  0  0
  2  1  1  6
  2  3  1  0
  3  4  1  0
  4  5  2  0
  6  5  1  0
  7  6  1  0
  8  7  2  0
  9  8  1  0
 10  9  2  0
 10 11  1  0
 11 12  2  0
 12  7  1  0
 12  4  1  0
 13  2  1  0
 13 15  1  0
 14 13  2  0
 16 15  1  0
 16 17  1  1
 18 17  1  0
 18 26  1  0
 19 18  2  0
 20 19  1  0
 20 21  1  0
 21 22  1  0
 21 26  2  0
 22 23  2  0
 23 24  1  0
 25 24  2  0
 26 25  1  0
 27 16  1  0
 28 27  2  0
 29 27  1  0
 30 31  1  1
 30 29  1  0
 32 31  1  0
 33 32  1  0
 34 33  1  0
 35 34  1  0
 36 38  1  0
 36 30  1  0
 37 36  2  0
M  END
$$$$
