WWK.pdb
     RDKit          3D

 38 41  0  0  1  0  0  0  0  0999 V2000
   27.4047  -20.0831  -15.7118 N   0  0  0  0  0  0  0  0  0  0  0  0
   25.9741  -19.8615  -15.5966 C   0  0  1  0  0  0  0  0  0  0  0  0
   25.3909  -20.3095  -16.9351 C   0  0  0  0  0  0  0  0  0  0  0  0
   25.7904  -19.3859  -18.0069 C   0  0  0  0  0  0  0  0  0  0  0  0
   26.7504  -19.5989  -19.0053 C   0  0  0  0  0  0  0  0  0  0  0  0
   26.8248  -18.5292  -19.7874 N   0  0  0  0  0  0  0  0  0  0  0  0
   25.9373  -17.6326  -19.3185 C   0  0  0  0  0  0  0  0  0  0  0  0
   25.6147  -16.3773  -19.7510 C   0  0  0  0  0  0  0  0  0  0  0  0
   24.6526  -15.6330  -19.0948 C   0  0  0  0  0  0  0  0  0  0  0  0
   23.9799  -16.1091  -17.9892 C   0  0  0  0  0  0  0  0  0  0  0  0
   24.3203  -17.3933  -17.5589 C   0  0  0  0  0  0  0  0  0  0  0  0
   25.2749  -18.1296  -18.2114 C   0  0  0  0  0  0  0  0  0  0  0  0
   25.4641  -20.6905  -14.4952 C   0  0  0  0  0  0  0  0  0  0  0  0
   25.1934  -21.8986  -14.7080 O   0  0  0  0  0  0  0  0  0  0  0  0
   25.2404  -20.2493  -13.1781 N   0  0  0  0  0  0  0  0  0  0  0  0
   24.6654  -21.0771  -12.1443 C   0  0  1  0  0  0  0  0  0  0  0  0
   25.0115  -20.6882  -10.7645 C   0  0  0  0  0  0  0  0  0  0  0  0
   26.4559  -20.9200  -10.5393 C   0  0  0  0  0  0  0  0  0  0  0  0
   27.4273  -21.5064  -11.3067 C   0  0  0  0  0  0  0  0  0  0  0  0
   28.5921  -21.4780  -10.6329 N   0  0  0  0  0  0  0  0  0  0  0  0
   28.4237  -20.8890   -9.4378 C   0  0  0  0  0  0  0  0  0  0  0  0
   29.2660  -20.6032   -8.3679 C   0  0  0  0  0  0  0  0  0  0  0  0
   28.8231  -19.9734   -7.2235 C   0  0  0  0  0  0  0  0  0  0  0  0
   27.4964  -19.6216   -7.1536 C   0  0  0  0  0  0  0  0  0  0  0  0
   26.6492  -19.9092   -8.2297 C   0  0  0  0  0  0  0  0  0  0  0  0
   27.1121  -20.5397   -9.3655 C   0  0  0  0  0  0  0  0  0  0  0  0
   23.1938  -21.0069  -12.3159 C   0  0  0  0  0  0  0  0  0  0  0  0
   22.6508  -19.8812  -12.3777 O   0  0  0  0  0  0  0  0  0  0  0  0
   22.4223  -22.1791  -12.4078 N   0  0  0  0  0  0  0  0  0  0  0  0
   20.9409  -22.1395  -12.6848 C   0  0  1  0  0  0  0  0  0  0  0  0
   20.5027  -23.5157  -12.9630 C   0  0  0  0  0  0  0  0  0  0  0  0
   21.2438  -24.5046  -13.7125 C   0  0  0  0  0  0  0  0  0  0  0  0
   20.8474  -25.9069  -13.8771 C   0  0  0  0  0  0  0  0  0  0  0  0
   21.8967  -26.4998  -14.8911 C   0  0  0  0  0  0  0  0  0  0  0  0
   21.4823  -27.8786  -15.0695 N   0  0  0  0  0  0  0  0  0  0  0  0
   20.3261  -21.5749  -11.4662 C   0  0  0  0  0  0  0  0  0  0  0  0
   20.8264  -21.5080  -10.3302 O   0  0  0  0  0  0  0  0  0  0  0  0
   19.0196  -21.0385  -11.5615 O   0  0  0  0  0  0  0  0  0  0  0  0
  2  1  1  6
  2  3  1  0
  3  4  1  0
  4  5  2  0
  6  5  1  0
  7  6  1  0
  8  7  2  0
  9  8  1  0
 10  9  2  0
 10 11  1  0
 11 12  2  0
 12  7  1  0
 12  4  1  0
 13  2  1  0
 13 15  1  0
 14 13  2  0
 16 15  1  0
 16 17  1  1
 18 17  1  0
 18 26  1  0
 19 18  2  0
 20 19  1  0
 20 21  1  0
 21 22  1  0
 21 26  2  0
 22 23  2  0
 23 24  1  0
 25 24  2  0
 26 25  1  0
 27 16  1  0
 28 27  2  0
 29 27  1  0
 30 31  1  1
 30 29  1  0
 32 31  1  0
 33 32  1  0
 34 33  1  0
 35 34  1  0
 36 38  1  0
 36 30  1  0
 37 36  2  0
M  END
$$$$
