WWK.pdb
     RDKit          3D

 38 41  0  0  1  0  0  0  0  0999 V2000
   25.6849  -19.6684  -16.3946 N   0  0  0  0  0  0  0  0  0  0  0  0
   26.0726  -19.7880  -15.0002 C   0  0  1  0  0  0  0  0  0  0  0  0
   26.9575  -18.5739  -14.7256 C   0  0  0  0  0  0  0  0  0  0  0  0
   28.3673  -18.8916  -14.9957 C   0  0  0  0  0  0  0  0  0  0  0  0
   29.2003  -18.3235  -15.9689 C   0  0  0  0  0  0  0  0  0  0  0  0
   30.4061  -18.8736  -15.8997 N   0  0  0  0  0  0  0  0  0  0  0  0
   30.3713  -19.7816  -14.9067 C   0  0  0  0  0  0  0  0  0  0  0  0
   31.3350  -20.6201  -14.4220 C   0  0  0  0  0  0  0  0  0  0  0  0
   31.0579  -21.4799  -13.3761 C   0  0  0  0  0  0  0  0  0  0  0  0
   29.8169  -21.5359  -12.7774 C   0  0  0  0  0  0  0  0  0  0  0  0
   28.8423  -20.6734  -13.2834 C   0  0  0  0  0  0  0  0  0  0  0  0
   29.1195  -19.8214  -14.3210 C   0  0  0  0  0  0  0  0  0  0  0  0
   24.8559  -19.7509  -14.1763 C   0  0  0  0  0  0  0  0  0  0  0  0
   24.1255  -18.7292  -14.2022 O   0  0  0  0  0  0  0  0  0  0  0  0
   24.4120  -20.7835  -13.3300 N   0  0  0  0  0  0  0  0  0  0  0  0
   23.5192  -20.5750  -12.2146 C   0  0  1  0  0  0  0  0  0  0  0  0
   22.1853  -21.1880  -12.3559 C   0  0  0  0  0  0  0  0  0  0  0  0
   21.3878  -20.4043  -13.3256 C   0  0  0  0  0  0  0  0  0  0  0  0
   21.1698  -20.5469  -14.6704 C   0  0  0  0  0  0  0  0  0  0  0  0
   20.3675  -19.5511  -15.0904 N   0  0  0  0  0  0  0  0  0  0  0  0
   20.0450  -18.7489  -14.0628 C   0  0  0  0  0  0  0  0  0  0  0  0
   19.2687  -17.6018  -13.9319 C   0  0  0  0  0  0  0  0  0  0  0  0
   19.1001  -16.9545  -12.7257 C   0  0  0  0  0  0  0  0  0  0  0  0
   19.7299  -17.4757  -11.6208 C   0  0  0  0  0  0  0  0  0  0  0  0
   20.5108  -18.6295  -11.7526 C   0  0  0  0  0  0  0  0  0  0  0  0
   20.6665  -19.2619  -12.9681 C   0  0  0  0  0  0  0  0  0  0  0  0
   24.1929  -21.1433  -11.0217 C   0  0  0  0  0  0  0  0  0  0  0  0
   24.6493  -22.3066  -11.0886 O   0  0  0  0  0  0  0  0  0  0  0  0
   24.3179  -20.3930   -9.8389 N   0  0  0  0  0  0  0  0  0  0  0  0
   24.8951  -20.9827   -8.5771 C   0  0  1  0  0  0  0  0  0  0  0  0
   25.8611  -20.0155   -8.0345 C   0  0  0  0  0  0  0  0  0  0  0  0
   26.5097  -20.0996   -6.7455 C   0  0  0  0  0  0  0  0  0  0  0  0
   27.4324  -19.0983   -6.2009 C   0  0  0  0  0  0  0  0  0  0  0  0
   27.8976  -19.6966   -4.8201 C   0  0  0  0  0  0  0  0  0  0  0  0
   28.7801  -18.6845   -4.2709 N   0  0  0  0  0  0  0  0  0  0  0  0
   23.7414  -21.2077   -7.6826 C   0  0  0  0  0  0  0  0  0  0  0  0
   23.7378  -21.8022   -6.5909 O   0  0  0  0  0  0  0  0  0  0  0  0
   22.4789  -20.7040   -8.0775 O   0  0  0  0  0  0  0  0  0  0  0  0
  2  1  1  6
  2  3  1  0
  3  4  1  0
  4  5  2  0
  6  5  1  0
  7  6  1  0
  8  7  2  0
  9  8  1  0
 10  9  2  0
 10 11  1  0
 11 12  2  0
 12  7  1  0
 12  4  1  0
 13  2  1  0
 13 15  1  0
 14 13  2  0
 16 15  1  0
 16 17  1  6
 18 17  1  0
 18 26  1  0
 19 18  2  0
 20 19  1  0
 20 21  1  0
 21 22  1  0
 21 26  2  0
 22 23  2  0
 23 24  1  0
 25 24  2  0
 26 25  1  0
 27 16  1  0
 28 27  2  0
 29 27  1  0
 30 31  1  1
 30 29  1  0
 32 31  1  0
 33 32  1  0
 34 33  1  0
 35 34  1  0
 36 38  1  0
 36 30  1  0
 37 36  2  0
M  END
$$$$
