WWK.pdb
     RDKit          3D

 38 41  0  0  1  0  0  0  0  0999 V2000
   26.8214  -21.6200  -10.8856 N   0  0  0  0  0  0  0  0  0  0  0  0
   25.8977  -20.9550   -9.9836 C   0  0  1  0  0  0  0  0  0  0  0  0
   26.6288  -19.6977   -9.5178 C   0  0  0  0  0  0  0  0  0  0  0  0
   27.8022  -20.0540   -8.7069 C   0  0  0  0  0  0  0  0  0  0  0  0
   29.0860  -20.3857   -9.1604 C   0  0  0  0  0  0  0  0  0  0  0  0
   29.8719  -20.6454   -8.1229 N   0  0  0  0  0  0  0  0  0  0  0  0
   29.1272  -20.4894   -7.0126 C   0  0  0  0  0  0  0  0  0  0  0  0
   29.4437  -20.6330   -5.6912 C   0  0  0  0  0  0  0  0  0  0  0  0
   28.4926  -20.4151   -4.7125 C   0  0  0  0  0  0  0  0  0  0  0  0
   27.1976  -20.0480   -5.0124 C   0  0  0  0  0  0  0  0  0  0  0  0
   26.8890  -19.9052   -6.3667 C   0  0  0  0  0  0  0  0  0  0  0  0
   27.8341  -20.1220   -7.3357 C   0  0  0  0  0  0  0  0  0  0  0  0
   24.6828  -20.6105  -10.7360 C   0  0  0  0  0  0  0  0  0  0  0  0
   23.7856  -19.9303  -10.1789 O   0  0  0  0  0  0  0  0  0  0  0  0
   24.4149  -20.9808  -12.0666 N   0  0  0  0  0  0  0  0  0  0  0  0
   23.2405  -20.5590  -12.7930 C   0  0  1  0  0  0  0  0  0  0  0  0
   23.4755  -20.1781  -14.1982 C   0  0  0  0  0  0  0  0  0  0  0  0
   22.2489  -19.5586  -14.7481 C   0  0  0  0  0  0  0  0  0  0  0  0
   21.5870  -18.3974  -14.4481 C   0  0  0  0  0  0  0  0  0  0  0  0
   20.5017  -18.2973  -15.2378 N   0  0  0  0  0  0  0  0  0  0  0  0
   20.4219  -19.3596  -16.0555 C   0  0  0  0  0  0  0  0  0  0  0  0
   19.5292  -19.7596  -17.0448 C   0  0  0  0  0  0  0  0  0  0  0  0
   19.6842  -20.9333  -17.7527 C   0  0  0  0  0  0  0  0  0  0  0  0
   20.7672  -21.7262  -17.4569 C   0  0  0  0  0  0  0  0  0  0  0  0
   21.6650  -21.3238  -16.4616 C   0  0  0  0  0  0  0  0  0  0  0  0
   21.4920  -20.1461  -15.7654 C   0  0  0  0  0  0  0  0  0  0  0  0
   22.2857  -21.6931  -12.7486 C   0  0  0  0  0  0  0  0  0  0  0  0
   22.6852  -22.8267  -13.0969 O   0  0  0  0  0  0  0  0  0  0  0  0
   20.9588  -21.5017  -12.3240 N   0  0  0  0  0  0  0  0  0  0  0  0
   20.0118  -22.6569  -12.1202 C   0  0  1  0  0  0  0  0  0  0  0  0
   19.4280  -22.5228  -10.7769 C   0  0  0  0  0  0  0  0  0  0  0  0
   19.4136  -23.5445   -9.7546 C   0  0  0  0  0  0  0  0  0  0  0  0
   18.8673  -23.3759   -8.4042 C   0  0  0  0  0  0  0  0  0  0  0  0
   19.1418  -24.7528   -7.6901 C   0  0  0  0  0  0  0  0  0  0  0  0
   18.6334  -24.5655   -6.3443 N   0  0  0  0  0  0  0  0  0  0  0  0
   19.0086  -22.5403  -13.1981 C   0  0  0  0  0  0  0  0  0  0  0  0
   18.7941  -23.3465  -14.1196 O   0  0  0  0  0  0  0  0  0  0  0  0
   18.1770  -21.3950  -13.2187 O   0  0  0  0  0  0  0  0  0  0  0  0
  2  1  1  6
  2  3  1  0
  3  4  1  0
  4  5  2  0
  6  5  1  0
  7  6  1  0
  8  7  2  0
  9  8  1  0
 10  9  2  0
 10 11  1  0
 11 12  2  0
 12  7  1  0
 12  4  1  0
 13  2  1  0
 13 15  1  0
 14 13  2  0
 16 15  1  0
 16 17  1  6
 18 17  1  0
 18 26  1  0
 19 18  2  0
 20 19  1  0
 20 21  1  0
 21 22  1  0
 21 26  2  0
 22 23  2  0
 23 24  1  0
 25 24  2  0
 26 25  1  0
 27 16  1  0
 28 27  2  0
 29 27  1  0
 30 31  1  1
 30 29  1  0
 32 31  1  0
 33 32  1  0
 34 33  1  0
 35 34  1  0
 36 38  1  0
 36 30  1  0
 37 36  2  0
M  END
$$$$
