WWK.pdb
     RDKit          3D

 38 41  0  0  1  0  0  0  0  0999 V2000
   28.3662  -20.8373  -15.1783 N   0  0  0  0  0  0  0  0  0  0  0  0
   27.6984  -19.9388  -14.2531 C   0  0  1  0  0  0  0  0  0  0  0  0
   26.4311  -19.4889  -14.9769 C   0  0  0  0  0  0  0  0  0  0  0  0
   26.7629  -18.5663  -16.0725 C   0  0  0  0  0  0  0  0  0  0  0  0
   26.5816  -18.7709  -17.4469 C   0  0  0  0  0  0  0  0  0  0  0  0
   27.0041  -17.7052  -18.1157 N   0  0  0  0  0  0  0  0  0  0  0  0
   27.4530  -16.8193  -17.2073 C   0  0  0  0  0  0  0  0  0  0  0  0
   27.9897  -15.5719  -17.3581 C   0  0  0  0  0  0  0  0  0  0  0  0
   28.3849  -14.8383  -16.2554 C   0  0  0  0  0  0  0  0  0  0  0  0
   28.2606  -15.3177  -14.9685 C   0  0  0  0  0  0  0  0  0  0  0  0
   27.7105  -16.5938  -14.8301 C   0  0  0  0  0  0  0  0  0  0  0  0
   27.3193  -17.3195  -15.9253 C   0  0  0  0  0  0  0  0  0  0  0  0
   27.3703  -20.6902  -13.0331 C   0  0  0  0  0  0  0  0  0  0  0  0
   26.6169  -21.6924  -13.1110 O   0  0  0  0  0  0  0  0  0  0  0  0
   27.8326  -20.3871  -11.7393 N   0  0  0  0  0  0  0  0  0  0  0  0
   27.2910  -20.9773  -10.5381 C   0  0  1  0  0  0  0  0  0  0  0  0
   28.0987  -20.7751   -9.3208 C   0  0  0  0  0  0  0  0  0  0  0  0
   27.2067  -20.7586   -8.1398 C   0  0  0  0  0  0  0  0  0  0  0  0
   25.8973  -21.1217   -7.9668 C   0  0  0  0  0  0  0  0  0  0  0  0
   25.5477  -20.8976   -6.6865 N   0  0  0  0  0  0  0  0  0  0  0  0
   26.5879  -20.3953   -6.0016 C   0  0  0  0  0  0  0  0  0  0  0  0
   26.7798  -19.9908   -4.6843 C   0  0  0  0  0  0  0  0  0  0  0  0
   27.9838  -19.4951   -4.2290 C   0  0  0  0  0  0  0  0  0  0  0  0
   29.0230  -19.4038   -5.1237 C   0  0  0  0  0  0  0  0  0  0  0  0
   28.8299  -19.8105   -6.4488 C   0  0  0  0  0  0  0  0  0  0  0  0
   27.6178  -20.3037   -6.8840 C   0  0  0  0  0  0  0  0  0  0  0  0
   25.9500  -20.3756  -10.3388 C   0  0  0  0  0  0  0  0  0  0  0  0
   25.8702  -19.1433  -10.1367 O   0  0  0  0  0  0  0  0  0  0  0  0
   24.7908  -21.1708  -10.3757 N   0  0  0  0  0  0  0  0  0  0  0  0
   23.4655  -20.6279  -10.8467 C   0  0  1  0  0  0  0  0  0  0  0  0
   23.2074  -21.1813  -12.1847 C   0  0  0  0  0  0  0  0  0  0  0  0
   23.0318  -22.5803  -12.5025 C   0  0  0  0  0  0  0  0  0  0  0  0
   22.7632  -23.1115  -13.8427 C   0  0  0  0  0  0  0  0  0  0  0  0
   22.7165  -24.6739  -13.6485 C   0  0  0  0  0  0  0  0  0  0  0  0
   22.3519  -25.1861  -14.9560 N   0  0  0  0  0  0  0  0  0  0  0  0
   22.4779  -21.0693   -9.8408 C   0  0  0  0  0  0  0  0  0  0  0  0
   22.6410  -21.9132   -8.9429 O   0  0  0  0  0  0  0  0  0  0  0  0
   21.1873  -20.4885   -9.8690 O   0  0  0  0  0  0  0  0  0  0  0  0
  2  1  1  6
  2  3  1  0
  3  4  1  0
  4  5  2  0
  6  5  1  0
  7  6  1  0
  8  7  2  0
  9  8  1  0
 10  9  2  0
 10 11  1  0
 11 12  2  0
 12  7  1  0
 12  4  1  0
 13  2  1  0
 13 15  1  0
 14 13  2  0
 16 15  1  0
 16 17  1  1
 18 17  1  0
 18 26  1  0
 19 18  2  0
 20 19  1  0
 20 21  1  0
 21 22  1  0
 21 26  2  0
 22 23  2  0
 23 24  1  0
 25 24  2  0
 26 25  1  0
 27 16  1  0
 28 27  2  0
 29 27  1  0
 30 31  1  6
 30 29  1  0
 32 31  1  0
 33 32  1  0
 34 33  1  0
 35 34  1  0
 36 38  1  0
 36 30  1  0
 37 36  2  0
M  END
$$$$
