WWK.pdb
     RDKit          3D

 38 41  0  0  1  0  0  0  0  0999 V2000
   27.7369  -21.0657  -15.0412 N   0  0  0  0  0  0  0  0  0  0  0  0
   26.7660  -20.1643  -14.4462 C   0  0  1  0  0  0  0  0  0  0  0  0
   25.5160  -20.2935  -15.3140 C   0  0  0  0  0  0  0  0  0  0  0  0
   25.6850  -19.5565  -16.5748 C   0  0  0  0  0  0  0  0  0  0  0  0
   26.7086  -19.7037  -17.5206 C   0  0  0  0  0  0  0  0  0  0  0  0
   26.5123  -18.8587  -18.5250 N   0  0  0  0  0  0  0  0  0  0  0  0
   25.3884  -18.1708  -18.2505 C   0  0  0  0  0  0  0  0  0  0  0  0
   24.7440  -17.1879  -18.9473 C   0  0  0  0  0  0  0  0  0  0  0  0
   23.5835  -16.6217  -18.4545 C   0  0  0  0  0  0  0  0  0  0  0  0
   23.0250  -17.0117  -17.2556 C   0  0  0  0  0  0  0  0  0  0  0  0
   23.6947  -18.0169  -16.5548 C   0  0  0  0  0  0  0  0  0  0  0  0
   24.8456  -18.5770  -17.0456 C   0  0  0  0  0  0  0  0  0  0  0  0
   26.5016  -20.6107  -13.0709 C   0  0  0  0  0  0  0  0  0  0  0  0
   26.3035  -21.8307  -12.8468 O   0  0  0  0  0  0  0  0  0  0  0  0
   26.4457  -19.7767  -11.9391 N   0  0  0  0  0  0  0  0  0  0  0  0
   26.0821  -20.2407  -10.6211 C   0  0  1  0  0  0  0  0  0  0  0  0
   26.6061  -19.4319   -9.5048 C   0  0  0  0  0  0  0  0  0  0  0  0
   26.3351  -20.1287   -8.2274 C   0  0  0  0  0  0  0  0  0  0  0  0
   25.4076  -21.0706   -7.8684 C   0  0  0  0  0  0  0  0  0  0  0  0
   25.5742  -21.3735   -6.5676 N   0  0  0  0  0  0  0  0  0  0  0  0
   26.5870  -20.6595   -6.0498 C   0  0  0  0  0  0  0  0  0  0  0  0
   27.1730  -20.5758   -4.7907 C   0  0  0  0  0  0  0  0  0  0  0  0
   28.2313  -19.7336   -4.5202 C   0  0  0  0  0  0  0  0  0  0  0  0
   28.7132  -18.9543   -5.5446 C   0  0  0  0  0  0  0  0  0  0  0  0
   28.1237  -19.0386   -6.8111 C   0  0  0  0  0  0  0  0  0  0  0  0
   27.0660  -19.8875   -7.0609 C   0  0  0  0  0  0  0  0  0  0  0  0
   24.5998  -20.2430  -10.5676 C   0  0  0  0  0  0  0  0  0  0  0  0
   23.9988  -19.1455  -10.5618 O   0  0  0  0  0  0  0  0  0  0  0  0
   23.8823  -21.4517  -10.5243 N   0  0  0  0  0  0  0  0  0  0  0  0
   22.3780  -21.4902  -10.6170 C   0  0  1  0  0  0  0  0  0  0  0  0
   22.0051  -22.7428  -11.2916 C   0  0  0  0  0  0  0  0  0  0  0  0
   22.6785  -23.3231  -12.4313 C   0  0  0  0  0  0  0  0  0  0  0  0
   22.3107  -24.5908  -13.0703 C   0  0  0  0  0  0  0  0  0  0  0  0
   23.2171  -24.6647  -14.3564 C   0  0  0  0  0  0  0  0  0  0  0  0
   22.8222  -25.9027  -15.0017 N   0  0  0  0  0  0  0  0  0  0  0  0
   21.8944  -21.4212   -9.2230 C   0  0  0  0  0  0  0  0  0  0  0  0
   22.1001  -22.2409   -8.3115 O   0  0  0  0  0  0  0  0  0  0  0  0
   21.1041  -20.3103   -8.8421 O   0  0  0  0  0  0  0  0  0  0  0  0
  2  1  1  6
  2  3  1  0
  3  4  1  0
  4  5  2  0
  6  5  1  0
  7  6  1  0
  8  7  2  0
  9  8  1  0
 10  9  2  0
 10 11  1  0
 11 12  2  0
 12  7  1  0
 12  4  1  0
 13  2  1  0
 13 15  1  0
 14 13  2  0
 16 15  1  0
 16 17  1  1
 18 17  1  0
 18 26  1  0
 19 18  2  0
 20 19  1  0
 20 21  1  0
 21 22  1  0
 21 26  2  0
 22 23  2  0
 23 24  1  0
 25 24  2  0
 26 25  1  0
 27 16  1  0
 28 27  2  0
 29 27  1  0
 30 31  1  1
 30 29  1  0
 32 31  1  0
 33 32  1  0
 34 33  1  0
 35 34  1  0
 36 38  1  0
 36 30  1  0
 37 36  2  0
M  END
$$$$
