WWK.pdb
     RDKit          3D

 38 41  0  0  1  0  0  0  0  0999 V2000
   26.9025  -22.8183  -15.3633 N   0  0  0  0  0  0  0  0  0  0  0  0
   25.7584  -21.9403  -15.1920 C   0  0  1  0  0  0  0  0  0  0  0  0
   24.7069  -22.4578  -16.1712 C   0  0  0  0  0  0  0  0  0  0  0  0
   25.0585  -22.0862  -17.5496 C   0  0  0  0  0  0  0  0  0  0  0  0
   25.6648  -22.8906  -18.5237 C   0  0  0  0  0  0  0  0  0  0  0  0
   25.8182  -22.1952  -19.6437 N   0  0  0  0  0  0  0  0  0  0  0  0
   25.3261  -20.9633  -19.4160 C   0  0  0  0  0  0  0  0  0  0  0  0
   25.2382  -19.8671  -20.2268 C   0  0  0  0  0  0  0  0  0  0  0  0
   24.6826  -18.6905  -19.7609 C   0  0  0  0  0  0  0  0  0  0  0  0
   24.1965  -18.5631  -18.4768 C   0  0  0  0  0  0  0  0  0  0  0  0
   24.2932  -19.6915  -17.6599 C   0  0  0  0  0  0  0  0  0  0  0  0
   24.8447  -20.8574  -18.1242 C   0  0  0  0  0  0  0  0  0  0  0  0
   25.2890  -22.0567  -13.8039 C   0  0  0  0  0  0  0  0  0  0  0  0
   24.8255  -23.1523  -13.4004 O   0  0  0  0  0  0  0  0  0  0  0  0
   25.3072  -21.0250  -12.8475 N   0  0  0  0  0  0  0  0  0  0  0  0
   24.6155  -21.0955  -11.5821 C   0  0  1  0  0  0  0  0  0  0  0  0
   25.1559  -20.2236  -10.5225 C   0  0  0  0  0  0  0  0  0  0  0  0
   26.5284  -20.6612  -10.1825 C   0  0  0  0  0  0  0  0  0  0  0  0
   27.4689  -21.3740  -10.8780 C   0  0  0  0  0  0  0  0  0  0  0  0
   28.5640  -21.5179  -10.1089 N   0  0  0  0  0  0  0  0  0  0  0  0
   28.3794  -20.9208   -8.9203 C   0  0  0  0  0  0  0  0  0  0  0  0
   29.1591  -20.7670   -7.7783 C   0  0  0  0  0  0  0  0  0  0  0  0
   28.7138  -20.0899   -6.6622 C   0  0  0  0  0  0  0  0  0  0  0  0
   27.4492  -19.5527   -6.6961 C   0  0  0  0  0  0  0  0  0  0  0  0
   26.6648  -19.7074   -7.8448 C   0  0  0  0  0  0  0  0  0  0  0  0
   27.1291  -20.3882   -8.9506 C   0  0  0  0  0  0  0  0  0  0  0  0
   23.2054  -20.7212  -11.8494 C   0  0  0  0  0  0  0  0  0  0  0  0
   22.9613  -19.5695  -12.2734 O   0  0  0  0  0  0  0  0  0  0  0  0
   22.1625  -21.6392  -11.6319 N   0  0  0  0  0  0  0  0  0  0  0  0
   20.7246  -21.2986  -11.9303 C   0  0  1  0  0  0  0  0  0  0  0  0
   19.9557  -22.5522  -11.9078 C   0  0  0  0  0  0  0  0  0  0  0  0
   20.1369  -23.6722  -12.8033 C   0  0  0  0  0  0  0  0  0  0  0  0
   20.3268  -25.0640  -12.3823 C   0  0  0  0  0  0  0  0  0  0  0  0
   19.3874  -25.8980  -13.3326 C   0  0  0  0  0  0  0  0  0  0  0  0
   20.2987  -26.7260  -14.0997 N   0  0  0  0  0  0  0  0  0  0  0  0
   20.3149  -20.3530  -10.8721 C   0  0  0  0  0  0  0  0  0  0  0  0
   20.9960  -19.9536   -9.9120 O   0  0  0  0  0  0  0  0  0  0  0  0
   19.0053  -19.8179  -10.9217 O   0  0  0  0  0  0  0  0  0  0  0  0
  2  1  1  1
  2  3  1  0
  3  4  1  0
  4  5  2  0
  6  5  1  0
  7  6  1  0
  8  7  2  0
  9  8  1  0
 10  9  2  0
 10 11  1  0
 11 12  2  0
 12  7  1  0
 12  4  1  0
 13  2  1  0
 13 15  1  0
 14 13  2  0
 16 15  1  0
 16 17  1  1
 18 17  1  0
 18 26  1  0
 19 18  2  0
 20 19  1  0
 20 21  1  0
 21 22  1  0
 21 26  2  0
 22 23  2  0
 23 24  1  0
 25 24  2  0
 26 25  1  0
 27 16  1  0
 28 27  2  0
 29 27  1  0
 30 31  1  1
 30 29  1  0
 32 31  1  0
 33 32  1  0
 34 33  1  0
 35 34  1  0
 36 38  1  0
 36 30  1  0
 37 36  2  0
M  END
$$$$
