FIN.pdb
     RDKit          3D

 28 28  0  0  1  0  0  0  0  0999 V2000
    5.9099  -18.0006   25.4234 N   0  0  0  0  0  0  0  0  0  0  0  0
    6.3235  -16.6279   25.2359 C   0  0  1  0  0  0  0  0  0  0  0  0
    6.8450  -15.9937   26.5050 C   0  0  0  0  0  0  0  0  0  0  0  0
    6.6670  -14.5272   26.5290 C   0  0  0  0  0  0  0  0  0  0  0  0
    7.7970  -13.7511   26.7780 C   0  0  0  0  0  0  0  0  0  0  0  0
    7.7596  -12.3733   26.8244 C   0  0  0  0  0  0  0  0  0  0  0  0
    6.5197  -11.7761   26.6075 C   0  0  0  0  0  0  0  0  0  0  0  0
    5.4018  -12.5290   26.3619 C   0  0  0  0  0  0  0  0  0  0  0  0
    5.4603  -13.9177   26.3196 C   0  0  0  0  0  0  0  0  0  0  0  0
    7.4099  -16.6014   24.2197 C   0  0  0  0  0  0  0  0  0  0  0  0
    8.1438  -17.6143   24.0526 O   0  0  0  0  0  0  0  0  0  0  0  0
    7.1793  -12.7130   20.2960 C   0  0  0  0  0  0  0  0  0  0  0  0
    7.2757  -14.1206   20.8309 C   0  0  0  0  0  0  0  0  0  0  0  0
    8.6327  -14.3094   21.4760 C   0  0  2  0  0  0  0  0  0  0  0  0
    9.6961  -14.5077   20.4035 C   0  0  0  0  0  0  0  0  0  0  0  0
    8.6530  -15.5430   22.3588 C   0  0  2  0  0  0  0  0  0  0  0  0
    7.6810  -15.4761   23.4040 N   0  0  0  0  0  0  0  0  0  0  0  0
   10.0468  -15.6751   22.9222 C   0  0  0  0  0  0  0  0  0  0  0  0
   10.5439  -14.8039   23.6793 O   0  0  0  0  0  0  0  0  0  0  0  0
   11.1390  -20.0597   24.2218 N   0  0  0  0  0  0  0  0  0  0  0  0
   12.1299  -19.0523   24.2781 C   0  0  0  0  0  0  0  0  0  0  0  0
   12.5616  -18.6846   25.3924 O   0  0  0  0  0  0  0  0  0  0  0  0
   12.6771  -18.4184   23.0585 C   0  0  0  0  0  0  0  0  0  0  0  0
   12.2229  -16.9750   23.0702 C   0  0  2  0  0  0  0  0  0  0  0  0
   10.8694  -16.7947   22.6243 N   0  0  0  0  0  0  0  0  0  0  0  0
   13.1941  -16.2164   22.2387 C   0  0  0  0  0  0  0  0  0  0  0  0
   14.2205  -15.4619   22.7893 O   0  0  0  0  0  0  0  0  0  0  0  0
   13.0613  -16.2736   20.9782 O   0  0  0  0  0  0  0  0  0  0  0  0
  2  1  1  1
  2  3  1  0
  4  3  1  0
  4  9  2  0
  5  4  1  0
  6  5  2  0
  6  7  1  0
  7  8  2  0
  8  9  1  0
 10  2  1  0
 11 10  2  0
 13 12  1  0
 14 13  1  0
 14 16  1  0
 14 15  1  6
 16 17  1  1
 17 10  1  0
 18 25  1  0
 18 16  1  0
 19 18  2  0
 21 22  2  0
 21 20  1  0
 23 21  1  0
 24 26  1  0
 24 23  1  6
 24 25  1  0
 26 27  1  0
 28 26  2  0
M  END
$$$$
