FIN.pdb
     RDKit          3D

 28 28  0  0  1  0  0  0  0  0999 V2000
    5.7748  -17.9518   25.3527 N   0  0  0  0  0  0  0  0  0  0  0  0
    6.2040  -16.5741   25.2609 C   0  0  1  0  0  0  0  0  0  0  0  0
    6.7552  -16.0432   26.5643 C   0  0  0  0  0  0  0  0  0  0  0  0
    6.9160  -14.5746   26.5638 C   0  0  0  0  0  0  0  0  0  0  0  0
    8.2082  -14.0739   26.7084 C   0  0  0  0  0  0  0  0  0  0  0  0
    8.4872  -12.7234   26.7221 C   0  0  0  0  0  0  0  0  0  0  0  0
    7.4016  -11.8615   26.5823 C   0  0  0  0  0  0  0  0  0  0  0  0
    6.1267  -12.3423   26.4396 C   0  0  0  0  0  0  0  0  0  0  0  0
    5.8659  -13.7082   26.4287 C   0  0  0  0  0  0  0  0  0  0  0  0
    7.2735  -16.4850   24.2304 C   0  0  0  0  0  0  0  0  0  0  0  0
    8.0953  -17.4321   24.0891 O   0  0  0  0  0  0  0  0  0  0  0  0
    6.8459  -13.0088   19.8851 C   0  0  0  0  0  0  0  0  0  0  0  0
    7.0083  -14.2354   20.7489 C   0  0  0  0  0  0  0  0  0  0  0  0
    8.3498  -14.1699   21.4483 C   0  0  2  0  0  0  0  0  0  0  0  0
    9.4750  -14.2973   20.4296 C   0  0  0  0  0  0  0  0  0  0  0  0
    8.5094  -15.3107   22.4354 C   0  0  2  0  0  0  0  0  0  0  0  0
    7.4325  -15.3696   23.3728 N   0  0  0  0  0  0  0  0  0  0  0  0
    9.8309  -15.1204   23.1391 C   0  0  0  0  0  0  0  0  0  0  0  0
    9.9148  -14.5446   24.2529 O   0  0  0  0  0  0  0  0  0  0  0  0
   13.2879  -19.5012   24.2166 N   0  0  0  0  0  0  0  0  0  0  0  0
   12.7048  -18.2579   24.5543 C   0  0  0  0  0  0  0  0  0  0  0  0
   13.1429  -17.6281   25.5416 O   0  0  0  0  0  0  0  0  0  0  0  0
   11.5917  -17.6736   23.7743 C   0  0  0  0  0  0  0  0  0  0  0  0
   12.0623  -16.3239   23.2776 C   0  0  2  0  0  0  0  0  0  0  0  0
   11.0500  -15.5847   22.5761 N   0  0  0  0  0  0  0  0  0  0  0  0
   13.2607  -16.5750   22.4344 C   0  0  0  0  0  0  0  0  0  0  0  0
   13.1763  -17.1017   21.1533 O   0  0  0  0  0  0  0  0  0  0  0  0
   14.3959  -16.2905   22.9244 O   0  0  0  0  0  0  0  0  0  0  0  0
  2  1  1  1
  2  3  1  0
  4  3  1  0
  4  9  2  0
  5  4  1  0
  6  5  2  0
  6  7  1  0
  7  8  2  0
  8  9  1  0
 10  2  1  0
 11 10  2  0
 13 12  1  0
 14 13  1  0
 14 16  1  0
 14 15  1  6
 16 17  1  1
 17 10  1  0
 18 25  1  0
 18 16  1  0
 19 18  2  0
 21 22  2  0
 21 20  1  0
 23 21  1  0
 24 26  1  0
 24 23  1  6
 24 25  1  0
 26 27  1  0
 28 26  2  0
M  END
$$$$
