FIN.pdb
     RDKit          3D

 28 28  0  0  1  0  0  0  0  0999 V2000
    5.3731  -17.7063   25.1173 N   0  0  0  0  0  0  0  0  0  0  0  0
    6.0132  -16.4102   25.0864 C   0  0  1  0  0  0  0  0  0  0  0  0
    6.6694  -16.0484   26.3990 C   0  0  0  0  0  0  0  0  0  0  0  0
    6.8513  -14.5919   26.5676 C   0  0  0  0  0  0  0  0  0  0  0  0
    8.1576  -14.1209   26.6823 C   0  0  0  0  0  0  0  0  0  0  0  0
    8.4567  -12.7842   26.8422 C   0  0  0  0  0  0  0  0  0  0  0  0
    7.3767  -11.9050   26.8854 C   0  0  0  0  0  0  0  0  0  0  0  0
    6.0881  -12.3566   26.7738 C   0  0  0  0  0  0  0  0  0  0  0  0
    5.8073  -13.7091   26.6135 C   0  0  0  0  0  0  0  0  0  0  0  0
    7.0610  -16.4310   24.0302 C   0  0  0  0  0  0  0  0  0  0  0  0
    7.7490  -17.4722   23.8431 O   0  0  0  0  0  0  0  0  0  0  0  0
    7.1146  -12.4775   20.1224 C   0  0  0  0  0  0  0  0  0  0  0  0
    7.0893  -13.8495   20.7499 C   0  0  0  0  0  0  0  0  0  0  0  0
    8.4444  -14.1349   21.3627 C   0  0  2  0  0  0  0  0  0  0  0  0
    9.4677  -14.3960   20.2650 C   0  0  0  0  0  0  0  0  0  0  0  0
    8.4005  -15.3741   22.2366 C   0  0  2  0  0  0  0  0  0  0  0  0
    7.3438  -15.3216   23.1970 N   0  0  0  0  0  0  0  0  0  0  0  0
    9.7433  -15.4993   22.9142 C   0  0  0  0  0  0  0  0  0  0  0  0
   10.1449  -14.6572   23.7561 O   0  0  0  0  0  0  0  0  0  0  0  0
   10.2759  -19.3445   24.5797 N   0  0  0  0  0  0  0  0  0  0  0  0
   11.3340  -18.4183   24.7292 C   0  0  0  0  0  0  0  0  0  0  0  0
   11.4822  -17.8349   25.8251 O   0  0  0  0  0  0  0  0  0  0  0  0
   12.2769  -18.1173   23.6296 C   0  0  0  0  0  0  0  0  0  0  0  0
   11.9579  -16.7195   23.1456 C   0  0  2  0  0  0  0  0  0  0  0  0
   10.6231  -16.5792   22.6337 N   0  0  0  0  0  0  0  0  0  0  0  0
   12.9881  -16.3751   22.1306 C   0  0  0  0  0  0  0  0  0  0  0  0
   12.6810  -16.1742   20.7922 O   0  0  0  0  0  0  0  0  0  0  0  0
   14.1894  -16.2662   22.5240 O   0  0  0  0  0  0  0  0  0  0  0  0
  2  1  1  1
  2  3  1  0
  4  3  1  0
  4  9  2  0
  5  4  1  0
  6  5  2  0
  6  7  1  0
  7  8  2  0
  8  9  1  0
 10  2  1  0
 11 10  2  0
 13 12  1  0
 14 13  1  0
 14 16  1  0
 14 15  1  6
 16 17  1  1
 17 10  1  0
 18 25  1  0
 18 16  1  0
 19 18  2  0
 21 22  2  0
 21 20  1  0
 23 21  1  0
 24 26  1  0
 24 23  1  6
 24 25  1  0
 26 27  1  0
 28 26  2  0
M  END
$$$$
