FIN.pdb
     RDKit          3D

 28 28  0  0  1  0  0  0  0  0999 V2000
    9.8952  -15.3017   20.9789 N   0  0  0  0  0  0  0  0  0  0  0  0
    8.8577  -14.6480   21.7450 C   0  0  1  0  0  0  0  0  0  0  0  0
    7.4666  -15.0193   21.2852 C   0  0  0  0  0  0  0  0  0  0  0  0
    7.1342  -14.4654   19.9564 C   0  0  0  0  0  0  0  0  0  0  0  0
    7.0279  -13.0801   19.8509 C   0  0  0  0  0  0  0  0  0  0  0  0
    6.7241  -12.4440   18.6655 C   0  0  0  0  0  0  0  0  0  0  0  0
    6.5237  -13.2599   17.5542 C   0  0  0  0  0  0  0  0  0  0  0  0
    6.6255  -14.6231   17.6461 C   0  0  0  0  0  0  0  0  0  0  0  0
    6.9324  -15.2457   18.8511 C   0  0  0  0  0  0  0  0  0  0  0  0
    9.0026  -15.0526   23.1694 C   0  0  0  0  0  0  0  0  0  0  0  0
    9.9561  -15.8012   23.5198 O   0  0  0  0  0  0  0  0  0  0  0  0
    6.3880  -11.7028   26.6781 C   0  0  0  0  0  0  0  0  0  0  0  0
    7.4433  -12.4357   25.8869 C   0  0  0  0  0  0  0  0  0  0  0  0
    7.5858  -13.8386   26.4391 C   0  0  2  0  0  0  0  0  0  0  0  0
    8.2171  -13.7912   27.8245 C   0  0  0  0  0  0  0  0  0  0  0  0
    8.4926  -14.6826   25.5634 C   0  0  2  0  0  0  0  0  0  0  0  0
    8.1098  -14.6385   24.1875 N   0  0  0  0  0  0  0  0  0  0  0  0
    8.4488  -16.0950   26.0934 C   0  0  0  0  0  0  0  0  0  0  0  0
    7.3661  -16.7128   26.2526 O   0  0  0  0  0  0  0  0  0  0  0  0
   11.4121  -18.4697   23.9856 N   0  0  0  0  0  0  0  0  0  0  0  0
   10.4651  -18.9849   24.9007 C   0  0  0  0  0  0  0  0  0  0  0  0
    9.3805  -19.4315   24.4676 O   0  0  0  0  0  0  0  0  0  0  0  0
   10.7162  -19.0161   26.3584 C   0  0  0  0  0  0  0  0  0  0  0  0
    9.6815  -18.1198   27.0032 C   0  0  2  0  0  0  0  0  0  0  0  0
    9.6333  -16.7995   26.4393 N   0  0  0  0  0  0  0  0  0  0  0  0
    9.9846  -18.0984   28.4586 C   0  0  0  0  0  0  0  0  0  0  0  0
   10.2812  -16.9284   29.1433 O   0  0  0  0  0  0  0  0  0  0  0  0
    9.9669  -19.2043   29.0802 O   0  0  0  0  0  0  0  0  0  0  0  0
  2  1  1  6
  2  3  1  0
  4  3  1  0
  4  9  2  0
  5  4  1  0
  6  5  2  0
  6  7  1  0
  7  8  2  0
  8  9  1  0
 10  2  1  0
 11 10  2  0
 13 12  1  0
 14 13  1  0
 14 16  1  0
 14 15  1  1
 16 17  1  6
 17 10  1  0
 18 25  1  0
 18 16  1  0
 19 18  2  0
 21 22  2  0
 21 20  1  0
 23 21  1  0
 24 26  1  0
 24 23  1  6
 24 25  1  0
 26 27  1  0
 28 26  2  0
M  END
$$$$
