FIN.pdb
     RDKit          3D

 28 28  0  0  1  0  0  0  0  0999 V2000
    6.2563  -18.0928   25.8701 N   0  0  0  0  0  0  0  0  0  0  0  0
    6.6445  -16.7419   25.5312 C   0  0  1  0  0  0  0  0  0  0  0  0
    7.5630  -16.1204   26.5582 C   0  0  0  0  0  0  0  0  0  0  0  0
    7.4697  -14.6463   26.5944 C   0  0  0  0  0  0  0  0  0  0  0  0
    8.6641  -13.9330   26.6722 C   0  0  0  0  0  0  0  0  0  0  0  0
    8.7082  -12.5551   26.7113 C   0  0  0  0  0  0  0  0  0  0  0  0
    7.4841  -11.8911   26.6687 C   0  0  0  0  0  0  0  0  0  0  0  0
    6.3035  -12.5820   26.5923 C   0  0  0  0  0  0  0  0  0  0  0  0
    6.2802  -13.9719   26.5544 C   0  0  0  0  0  0  0  0  0  0  0  0
    7.3570  -16.7735   24.2254 C   0  0  0  0  0  0  0  0  0  0  0  0
    7.6001  -17.8776   23.6648 O   0  0  0  0  0  0  0  0  0  0  0  0
    7.4262  -12.1156   21.0720 C   0  0  0  0  0  0  0  0  0  0  0  0
    7.1443  -13.5351   21.4992 C   0  0  0  0  0  0  0  0  0  0  0  0
    8.4548  -14.2870   21.6015 C   0  0  2  0  0  0  0  0  0  0  0  0
    9.0520  -14.4837   20.2141 C   0  0  0  0  0  0  0  0  0  0  0  0
    8.2499  -15.6661   22.1994 C   0  0  2  0  0  0  0  0  0  0  0  0
    7.7937  -15.6069   23.5522 N   0  0  0  0  0  0  0  0  0  0  0  0
    9.5636  -16.4026   22.1021 C   0  0  0  0  0  0  0  0  0  0  0  0
   10.0082  -16.8284   21.0065 O   0  0  0  0  0  0  0  0  0  0  0  0
   14.6754  -15.8286   21.9547 N   0  0  0  0  0  0  0  0  0  0  0  0
   13.8767  -15.4486   23.0581 C   0  0  0  0  0  0  0  0  0  0  0  0
   14.4252  -15.2298   24.1601 O   0  0  0  0  0  0  0  0  0  0  0  0
   12.4088  -15.2978   22.9514 C   0  0  0  0  0  0  0  0  0  0  0  0
   11.8025  -16.6461   23.2747 C   0  0  2  0  0  0  0  0  0  0  0  0
   10.3664  -16.6518   23.2477 N   0  0  0  0  0  0  0  0  0  0  0  0
   12.3412  -17.0480   24.6008 C   0  0  0  0  0  0  0  0  0  0  0  0
   11.5234  -17.3231   25.6877 O   0  0  0  0  0  0  0  0  0  0  0  0
   13.6010  -17.1361   24.7227 O   0  0  0  0  0  0  0  0  0  0  0  0
  2  1  1  1
  2  3  1  0
  4  3  1  0
  4  9  2  0
  5  4  1  0
  6  5  2  0
  6  7  1  0
  7  8  2  0
  8  9  1  0
 10  2  1  0
 11 10  2  0
 13 12  1  0
 14 13  1  0
 14 16  1  0
 14 15  1  6
 16 17  1  1
 17 10  1  0
 18 25  1  0
 18 16  1  0
 19 18  2  0
 21 22  2  0
 21 20  1  0
 23 21  1  0
 24 26  1  0
 24 23  1  1
 24 25  1  0
 26 27  1  0
 28 26  2  0
M  END
$$$$
