FIN.pdb
     RDKit          3D

 28 28  0  0  1  0  0  0  0  0999 V2000
    5.4807  -17.8696   25.0752 N   0  0  0  0  0  0  0  0  0  0  0  0
    5.9983  -16.5195   25.0824 C   0  0  1  0  0  0  0  0  0  0  0  0
    6.5174  -16.0975   26.4377 C   0  0  0  0  0  0  0  0  0  0  0  0
    6.7672  -14.6442   26.5297 C   0  0  0  0  0  0  0  0  0  0  0  0
    5.6576  -13.8023   26.4931 C   0  0  0  0  0  0  0  0  0  0  0  0
    5.7608  -12.4293   26.5716 C   0  0  0  0  0  0  0  0  0  0  0  0
    7.0468  -11.9070   26.6916 C   0  0  0  0  0  0  0  0  0  0  0  0
    8.1452  -12.7251   26.7284 C   0  0  0  0  0  0  0  0  0  0  0  0
    8.0201  -14.1077   26.6474 C   0  0  0  0  0  0  0  0  0  0  0  0
    7.1200  -16.4435   24.1079 C   0  0  0  0  0  0  0  0  0  0  0  0
    7.9198  -17.4122   23.9881 O   0  0  0  0  0  0  0  0  0  0  0  0
    7.0643  -12.4609   20.1898 C   0  0  0  0  0  0  0  0  0  0  0  0
    7.0791  -13.8331   20.8172 C   0  0  0  0  0  0  0  0  0  0  0  0
    8.4230  -14.0569   21.4784 C   0  0  2  0  0  0  0  0  0  0  0  0
    9.5017  -14.2357   20.4179 C   0  0  0  0  0  0  0  0  0  0  0  0
    8.4146  -15.3162   22.3242 C   0  0  2  0  0  0  0  0  0  0  0  0
    7.3543  -15.3174   23.2821 N   0  0  0  0  0  0  0  0  0  0  0  0
    9.7587  -15.4157   23.0033 C   0  0  0  0  0  0  0  0  0  0  0  0
   10.1414  -14.5686   23.8490 O   0  0  0  0  0  0  0  0  0  0  0  0
   10.4954  -19.4445   24.6301 N   0  0  0  0  0  0  0  0  0  0  0  0
   11.5554  -18.5148   24.7390 C   0  0  0  0  0  0  0  0  0  0  0  0
   11.8430  -18.0484   25.8628 O   0  0  0  0  0  0  0  0  0  0  0  0
   12.3404  -18.0760   23.5643 C   0  0  0  0  0  0  0  0  0  0  0  0
   11.9669  -16.6340   23.2981 C   0  0  2  0  0  0  0  0  0  0  0  0
   10.6615  -16.4757   22.7199 N   0  0  0  0  0  0  0  0  0  0  0  0
   13.0366  -16.0698   22.4335 C   0  0  0  0  0  0  0  0  0  0  0  0
   14.2388  -15.5993   22.9425 O   0  0  0  0  0  0  0  0  0  0  0  0
   12.8216  -16.0251   21.1839 O   0  0  0  0  0  0  0  0  0  0  0  0
  2  1  1  1
  2  3  1  0
  4  3  1  0
  4  9  2  0
  5  4  1  0
  6  5  2  0
  6  7  1  0
  7  8  2  0
  8  9  1  0
 10  2  1  0
 11 10  2  0
 13 12  1  0
 14 13  1  0
 14 16  1  0
 14 15  1  6
 16 17  1  1
 17 10  1  0
 18 25  1  0
 18 16  1  0
 19 18  2  0
 21 22  2  0
 21 20  1  0
 23 21  1  0
 24 26  1  0
 24 23  1  6
 24 25  1  0
 26 27  1  0
 28 26  2  0
M  END
$$$$
