FIN.pdb
     RDKit          3D

 28 28  0  0  1  0  0  0  0  0999 V2000
    6.2555  -17.8903   25.9607 N   0  0  0  0  0  0  0  0  0  0  0  0
    6.6996  -16.5574   25.6192 C   0  0  1  0  0  0  0  0  0  0  0  0
    7.5501  -15.9278   26.6985 C   0  0  0  0  0  0  0  0  0  0  0  0
    7.3605  -14.4660   26.7991 C   0  0  0  0  0  0  0  0  0  0  0  0
    8.4648  -13.7036   27.1740 C   0  0  0  0  0  0  0  0  0  0  0  0
    8.4146  -12.3313   27.3014 C   0  0  0  0  0  0  0  0  0  0  0  0
    7.1888  -11.7252   27.0343 C   0  0  0  0  0  0  0  0  0  0  0  0
    6.0962  -12.4648   26.6651 C   0  0  0  0  0  0  0  0  0  0  0  0
    6.1673  -13.8482   26.5426 C   0  0  0  0  0  0  0  0  0  0  0  0
    7.5098  -16.6390   24.3739 C   0  0  0  0  0  0  0  0  0  0  0  0
    7.7616  -17.7620   23.8564 O   0  0  0  0  0  0  0  0  0  0  0  0
    7.2808  -12.5429   20.4913 C   0  0  0  0  0  0  0  0  0  0  0  0
    7.2152  -13.9046   21.1381 C   0  0  0  0  0  0  0  0  0  0  0  0
    8.5844  -14.2576   21.6802 C   0  0  2  0  0  0  0  0  0  0  0  0
    9.5839  -14.3714   20.5364 C   0  0  0  0  0  0  0  0  0  0  0  0
    8.5636  -15.5980   22.3905 C   0  0  2  0  0  0  0  0  0  0  0  0
    8.0329  -15.5009   23.7136 N   0  0  0  0  0  0  0  0  0  0  0  0
    9.9785  -16.1227   22.4110 C   0  0  0  0  0  0  0  0  0  0  0  0
   10.6084  -16.3794   21.3543 O   0  0  0  0  0  0  0  0  0  0  0  0
   13.8139  -19.3691   24.5986 N   0  0  0  0  0  0  0  0  0  0  0  0
   13.3935  -18.8664   23.3454 C   0  0  0  0  0  0  0  0  0  0  0  0
   14.2023  -18.8543   22.3920 O   0  0  0  0  0  0  0  0  0  0  0  0
   12.0232  -18.3552   23.1227 C   0  0  0  0  0  0  0  0  0  0  0  0
   11.9587  -16.9794   23.7495 C   0  0  2  0  0  0  0  0  0  0  0  0
   10.6716  -16.3530   23.6298 N   0  0  0  0  0  0  0  0  0  0  0  0
   13.0368  -16.1733   23.1185 C   0  0  0  0  0  0  0  0  0  0  0  0
   12.8810  -15.5487   21.8891 O   0  0  0  0  0  0  0  0  0  0  0  0
   14.1350  -16.0654   23.7446 O   0  0  0  0  0  0  0  0  0  0  0  0
  2  1  1  1
  2  3  1  0
  4  3  1  0
  4  9  2  0
  5  4  1  0
  6  5  2  0
  6  7  1  0
  7  8  2  0
  8  9  1  0
 10  2  1  0
 11 10  2  0
 13 12  1  0
 14 13  1  0
 14 16  1  0
 14 15  1  6
 16 17  1  1
 17 10  1  0
 18 25  1  0
 18 16  1  0
 19 18  2  0
 21 22  2  0
 21 20  1  0
 23 21  1  0
 24 26  1  0
 24 23  1  6
 24 25  1  0
 26 27  1  0
 28 26  2  0
M  END
$$$$
