FIN.pdb
     RDKit          3D

 28 28  0  0  1  0  0  0  0  0999 V2000
    6.1503  -18.1271   25.4387 N   0  0  0  0  0  0  0  0  0  0  0  0
    6.5205  -16.7362   25.3007 C   0  0  1  0  0  0  0  0  0  0  0  0
    7.1948  -16.1834   26.5353 C   0  0  0  0  0  0  0  0  0  0  0  0
    7.2458  -14.7069   26.5490 C   0  0  0  0  0  0  0  0  0  0  0  0
    8.5030  -14.1124   26.6355 C   0  0  0  0  0  0  0  0  0  0  0  0
    8.6812  -12.7450   26.6556 C   0  0  0  0  0  0  0  0  0  0  0  0
    7.5287  -11.9654   26.5843 C   0  0  0  0  0  0  0  0  0  0  0  0
    6.2873  -12.5388   26.4992 C   0  0  0  0  0  0  0  0  0  0  0  0
    6.1286  -13.9202   26.4807 C   0  0  0  0  0  0  0  0  0  0  0  0
    7.4657  -16.6150   24.1580 C   0  0  0  0  0  0  0  0  0  0  0  0
    8.2936  -17.5377   23.9221 O   0  0  0  0  0  0  0  0  0  0  0  0
    6.6643  -12.6744   20.2167 C   0  0  0  0  0  0  0  0  0  0  0  0
    6.8053  -14.0135   20.8978 C   0  0  0  0  0  0  0  0  0  0  0  0
    8.2352  -14.1774   21.3684 C   0  0  2  0  0  0  0  0  0  0  0  0
    9.1679  -14.2938   20.1697 C   0  0  0  0  0  0  0  0  0  0  0  0
    8.4006  -15.4434   22.1879 C   0  0  2  0  0  0  0  0  0  0  0  0
    7.4963  -15.4944   23.2930 N   0  0  0  0  0  0  0  0  0  0  0  0
    9.8340  -15.4960   22.6574 C   0  0  0  0  0  0  0  0  0  0  0  0
   10.3903  -14.5128   23.2080 O   0  0  0  0  0  0  0  0  0  0  0  0
   14.4072  -15.6255   23.2246 N   0  0  0  0  0  0  0  0  0  0  0  0
   13.6298  -15.8546   24.3835 C   0  0  0  0  0  0  0  0  0  0  0  0
   14.0892  -15.5271   25.4993 O   0  0  0  0  0  0  0  0  0  0  0  0
   12.2852  -16.4683   24.3199 C   0  0  0  0  0  0  0  0  0  0  0  0
   12.0127  -16.7831   22.8650 C   0  0  2  0  0  0  0  0  0  0  0  0
   10.6285  -16.6635   22.5006 N   0  0  0  0  0  0  0  0  0  0  0  0
   12.5424  -18.1503   22.6190 C   0  0  0  0  0  0  0  0  0  0  0  0
   11.9134  -19.2924   23.0941 O   0  0  0  0  0  0  0  0  0  0  0  0
   13.6133  -18.2550   21.9468 O   0  0  0  0  0  0  0  0  0  0  0  0
  2  1  1  1
  2  3  1  0
  4  3  1  0
  4  9  2  0
  5  4  1  0
  6  5  2  0
  6  7  1  0
  7  8  2  0
  8  9  1  0
 10  2  1  0
 11 10  2  0
 13 12  1  0
 14 13  1  0
 14 16  1  0
 14 15  1  6
 16 17  1  1
 17 10  1  0
 18 25  1  0
 18 16  1  0
 19 18  2  0
 21 22  2  0
 21 20  1  0
 23 21  1  0
 24 26  1  0
 24 23  1  1
 24 25  1  0
 26 27  1  0
 28 26  2  0
M  END
$$$$
