FIN.pdb
     RDKit          3D

 28 28  0  0  1  0  0  0  0  0999 V2000
    6.0345  -17.4211   24.8714 N   0  0  0  0  0  0  0  0  0  0  0  0
    6.6863  -16.1489   24.6540 C   0  0  1  0  0  0  0  0  0  0  0  0
    7.5431  -15.7214   25.8235 C   0  0  0  0  0  0  0  0  0  0  0  0
    7.4153  -14.2824   26.1329 C   0  0  0  0  0  0  0  0  0  0  0  0
    6.1262  -13.7623   26.2294 C   0  0  0  0  0  0  0  0  0  0  0  0
    5.8769  -12.4361   26.5142 C   0  0  0  0  0  0  0  0  0  0  0  0
    6.9897  -11.6201   26.7055 C   0  0  0  0  0  0  0  0  0  0  0  0
    8.2618  -12.1203   26.6129 C   0  0  0  0  0  0  0  0  0  0  0  0
    8.4924  -13.4609   26.3243 C   0  0  0  0  0  0  0  0  0  0  0  0
    7.5589  -16.2693   23.4549 C   0  0  0  0  0  0  0  0  0  0  0  0
    7.9008  -17.4087   23.0340 O   0  0  0  0  0  0  0  0  0  0  0  0
    7.3109  -11.9505   20.0124 C   0  0  0  0  0  0  0  0  0  0  0  0
    7.1854  -13.3524   20.5560 C   0  0  0  0  0  0  0  0  0  0  0  0
    8.5665  -13.9648   20.6601 C   0  0  2  0  0  0  0  0  0  0  0  0
    9.1197  -14.2415   19.2681 C   0  0  0  0  0  0  0  0  0  0  0  0
    8.5239  -15.2908   21.3959 C   0  0  2  0  0  0  0  0  0  0  0  0
    8.0454  -15.1512   22.7350 N   0  0  0  0  0  0  0  0  0  0  0  0
    9.9191  -15.8659   21.3758 C   0  0  0  0  0  0  0  0  0  0  0  0
   10.3947  -16.4227   20.3546 O   0  0  0  0  0  0  0  0  0  0  0  0
   13.3009  -13.8039   20.2262 N   0  0  0  0  0  0  0  0  0  0  0  0
   13.4258  -15.0205   20.9361 C   0  0  0  0  0  0  0  0  0  0  0  0
   13.7958  -16.0467   20.3252 O   0  0  0  0  0  0  0  0  0  0  0  0
   13.1352  -15.1199   22.3834 C   0  0  0  0  0  0  0  0  0  0  0  0
   12.1354  -16.2426   22.5561 C   0  0  2  0  0  0  0  0  0  0  0  0
   10.7677  -15.8058   22.5139 N   0  0  0  0  0  0  0  0  0  0  0  0
   12.4705  -16.9175   23.8377 C   0  0  0  0  0  0  0  0  0  0  0  0
   13.7341  -17.4236   24.1080 O   0  0  0  0  0  0  0  0  0  0  0  0
   11.5505  -17.0255   24.7046 O   0  0  0  0  0  0  0  0  0  0  0  0
  2  1  1  1
  2  3  1  0
  4  3  1  0
  4  9  2  0
  5  4  1  0
  6  5  2  0
  6  7  1  0
  7  8  2  0
  8  9  1  0
 10  2  1  0
 11 10  2  0
 13 12  1  0
 14 13  1  0
 14 16  1  0
 14 15  1  6
 16 17  1  1
 17 10  1  0
 18 25  1  0
 18 16  1  0
 19 18  2  0
 21 22  2  0
 21 20  1  0
 23 21  1  0
 24 26  1  0
 24 23  1  1
 24 25  1  0
 26 27  1  0
 28 26  2  0
M  END
$$$$
