FIN.pdb
     RDKit          3D

 28 28  0  0  1  0  0  0  0  0999 V2000
    7.8910  -19.0187   27.0312 N   0  0  0  0  0  0  0  0  0  0  0  0
    8.3146  -17.6454   27.1910 C   0  0  1  0  0  0  0  0  0  0  0  0
    9.8132  -17.5061   27.3296 C   0  0  0  0  0  0  0  0  0  0  0  0
   10.2060  -16.4225   28.2539 C   0  0  0  0  0  0  0  0  0  0  0  0
   10.4207  -15.1606   27.7036 C   0  0  0  0  0  0  0  0  0  0  0  0
   10.7892  -14.0694   28.4622 C   0  0  0  0  0  0  0  0  0  0  0  0
   10.9413  -14.2845   29.8303 C   0  0  0  0  0  0  0  0  0  0  0  0
   10.7331  -15.5209   30.3825 C   0  0  0  0  0  0  0  0  0  0  0  0
   10.3622  -16.6091   29.6001 C   0  0  0  0  0  0  0  0  0  0  0  0
    7.8831  -16.8801   25.9903 C   0  0  0  0  0  0  0  0  0  0  0  0
    7.1844  -17.4404   25.1013 O   0  0  0  0  0  0  0  0  0  0  0  0
    6.1691  -11.8878   26.5657 C   0  0  0  0  0  0  0  0  0  0  0  0
    6.2750  -13.3050   26.0586 C   0  0  0  0  0  0  0  0  0  0  0  0
    7.3547  -13.3685   24.9986 C   0  0  2  0  0  0  0  0  0  0  0  0
    6.8667  -12.7038   23.7178 C   0  0  0  0  0  0  0  0  0  0  0  0
    7.6998  -14.8048   24.6532 C   0  0  2  0  0  0  0  0  0  0  0  0
    8.2184  -15.5213   25.7754 N   0  0  0  0  0  0  0  0  0  0  0  0
    8.6985  -14.7722   23.5221 C   0  0  0  0  0  0  0  0  0  0  0  0
    9.6334  -13.9334   23.4840 O   0  0  0  0  0  0  0  0  0  0  0  0
   12.2305  -18.7900   21.7208 N   0  0  0  0  0  0  0  0  0  0  0  0
   11.8564  -17.4302   21.8251 C   0  0  0  0  0  0  0  0  0  0  0  0
   12.5034  -16.5703   21.1885 O   0  0  0  0  0  0  0  0  0  0  0  0
   10.7194  -16.9894   22.6628 C   0  0  0  0  0  0  0  0  0  0  0  0
    9.7620  -16.2507   21.7530 C   0  0  2  0  0  0  0  0  0  0  0  0
    8.6317  -15.6914   22.4407 N   0  0  0  0  0  0  0  0  0  0  0  0
    9.3561  -17.2106   20.6928 C   0  0  0  0  0  0  0  0  0  0  0  0
   10.2312  -17.6545   19.7115 O   0  0  0  0  0  0  0  0  0  0  0  0
    8.1579  -17.6274   20.7029 O   0  0  0  0  0  0  0  0  0  0  0  0
  2  1  1  6
  2  3  1  0
  4  3  1  0
  4  9  2  0
  5  4  1  0
  6  5  2  0
  6  7  1  0
  7  8  2  0
  8  9  1  0
 10  2  1  0
 11 10  2  0
 13 12  1  0
 14 13  1  0
 14 16  1  0
 14 15  1  6
 16 17  1  1
 17 10  1  0
 18 25  1  0
 18 16  1  0
 19 18  2  0
 21 22  2  0
 21 20  1  0
 23 21  1  0
 24 26  1  0
 24 23  1  1
 24 25  1  0
 26 27  1  0
 28 26  2  0
M  END
$$$$
