FIN.pdb
     RDKit          3D

 28 28  0  0  1  0  0  0  0  0999 V2000
   11.0187  -16.2888   21.3236 N   0  0  0  0  0  0  0  0  0  0  0  0
    9.9127  -15.4590   21.7468 C   0  0  1  0  0  0  0  0  0  0  0  0
    8.6090  -15.8346   21.0806 C   0  0  0  0  0  0  0  0  0  0  0  0
    7.8440  -14.6601   20.6133 C   0  0  0  0  0  0  0  0  0  0  0  0
    8.5056  -13.7557   19.7853 C   0  0  0  0  0  0  0  0  0  0  0  0
    7.8994  -12.6230   19.2838 C   0  0  0  0  0  0  0  0  0  0  0  0
    6.5703  -12.4152   19.6464 C   0  0  0  0  0  0  0  0  0  0  0  0
    5.9098  -13.2975   20.4601 C   0  0  0  0  0  0  0  0  0  0  0  0
    6.5390  -14.4341   20.9560 C   0  0  0  0  0  0  0  0  0  0  0  0
    9.7477  -15.6139   23.2173 C   0  0  0  0  0  0  0  0  0  0  0  0
   10.4490  -16.4530   23.8470 O   0  0  0  0  0  0  0  0  0  0  0  0
    6.5148  -11.9173   25.9983 C   0  0  0  0  0  0  0  0  0  0  0  0
    7.7113  -12.6493   25.4421 C   0  0  0  0  0  0  0  0  0  0  0  0
    7.7423  -14.0495   26.0180 C   0  0  2  0  0  0  0  0  0  0  0  0
    7.9979  -13.9899   27.5184 C   0  0  0  0  0  0  0  0  0  0  0  0
    8.8626  -14.8690   25.4060 C   0  0  2  0  0  0  0  0  0  0  0  0
    8.8240  -14.8565   23.9777 N   0  0  0  0  0  0  0  0  0  0  0  0
    8.7396  -16.2755   25.9393 C   0  0  0  0  0  0  0  0  0  0  0  0
    7.6377  -16.8783   25.9785 O   0  0  0  0  0  0  0  0  0  0  0  0
   12.2790  -18.7656   24.6273 N   0  0  0  0  0  0  0  0  0  0  0  0
   11.1325  -19.2253   25.3158 C   0  0  0  0  0  0  0  0  0  0  0  0
   10.1868  -19.7177   24.6627 O   0  0  0  0  0  0  0  0  0  0  0  0
   11.0150  -19.1457   26.7884 C   0  0  0  0  0  0  0  0  0  0  0  0
    9.8221  -18.2642   27.0884 C   0  0  2  0  0  0  0  0  0  0  0  0
    9.8671  -16.9909   26.4249 N   0  0  0  0  0  0  0  0  0  0  0  0
    9.7567  -18.1253   28.5671 C   0  0  0  0  0  0  0  0  0  0  0  0
    9.5463  -19.2067   29.4109 O   0  0  0  0  0  0  0  0  0  0  0  0
    9.9005  -16.9636   29.0566 O   0  0  0  0  0  0  0  0  0  0  0  0
  2  1  1  6
  2  3  1  0
  4  3  1  0
  4  9  2  0
  5  4  1  0
  6  5  2  0
  6  7  1  0
  7  8  2  0
  8  9  1  0
 10  2  1  0
 11 10  2  0
 13 12  1  0
 14 13  1  0
 14 16  1  0
 14 15  1  1
 16 17  1  6
 17 10  1  0
 18 25  1  0
 18 16  1  0
 19 18  2  0
 21 22  2  0
 21 20  1  0
 23 21  1  0
 24 26  1  0
 24 23  1  1
 24 25  1  0
 26 27  1  0
 28 26  2  0
M  END
$$$$
