FIN.pdb
     RDKit          3D

 28 28  0  0  1  0  0  0  0  0999 V2000
    5.8954  -17.8200   25.5463 N   0  0  0  0  0  0  0  0  0  0  0  0
    6.4584  -16.5106   25.3029 C   0  0  1  0  0  0  0  0  0  0  0  0
    7.3531  -16.0388   26.4260 C   0  0  0  0  0  0  0  0  0  0  0  0
    7.3245  -14.5726   26.6053 C   0  0  0  0  0  0  0  0  0  0  0  0
    6.1384  -13.9138   26.2883 C   0  0  0  0  0  0  0  0  0  0  0  0
    5.9872  -12.5488   26.4143 C   0  0  0  0  0  0  0  0  0  0  0  0
    7.0920  -11.8401   26.8814 C   0  0  0  0  0  0  0  0  0  0  0  0
    8.2634  -12.4771   27.1960 C   0  0  0  0  0  0  0  0  0  0  0  0
    8.3960  -13.8548   27.0616 C   0  0  0  0  0  0  0  0  0  0  0  0
    7.2676  -16.5738   24.0559 C   0  0  0  0  0  0  0  0  0  0  0  0
    7.7210  -17.6801   23.6522 O   0  0  0  0  0  0  0  0  0  0  0  0
    7.6359  -12.0246   20.7239 C   0  0  0  0  0  0  0  0  0  0  0  0
    7.2635  -13.4201   21.1606 C   0  0  0  0  0  0  0  0  0  0  0  0
    8.5298  -14.2226   21.3746 C   0  0  2  0  0  0  0  0  0  0  0  0
    9.2041  -14.4980   20.0368 C   0  0  0  0  0  0  0  0  0  0  0  0
    8.2259  -15.5675   22.0072 C   0  0  2  0  0  0  0  0  0  0  0  0
    7.5710  -15.4356   23.2703 N   0  0  0  0  0  0  0  0  0  0  0  0
    9.5332  -16.3081   22.1490 C   0  0  0  0  0  0  0  0  0  0  0  0
    9.9162  -17.1508   21.2991 O   0  0  0  0  0  0  0  0  0  0  0  0
   13.1253  -16.3607   21.2420 N   0  0  0  0  0  0  0  0  0  0  0  0
   13.5485  -15.6803   22.4073 C   0  0  0  0  0  0  0  0  0  0  0  0
   14.5786  -14.9732   22.3592 O   0  0  0  0  0  0  0  0  0  0  0  0
   12.8094  -15.7749   23.6853 C   0  0  0  0  0  0  0  0  0  0  0  0
   11.6637  -16.7379   23.4617 C   0  0  2  0  0  0  0  0  0  0  0  0
   10.3994  -16.0886   23.2538 N   0  0  0  0  0  0  0  0  0  0  0  0
   11.6402  -17.6511   24.6346 C   0  0  0  0  0  0  0  0  0  0  0  0
   12.6542  -18.5627   24.8927 O   0  0  0  0  0  0  0  0  0  0  0  0
   10.6446  -17.5788   25.4176 O   0  0  0  0  0  0  0  0  0  0  0  0
  2  1  1  1
  2  3  1  0
  4  3  1  0
  4  9  2  0
  5  4  1  0
  6  5  2  0
  6  7  1  0
  7  8  2  0
  8  9  1  0
 10  2  1  0
 11 10  2  0
 13 12  1  0
 14 13  1  0
 14 16  1  0
 14 15  1  6
 16 17  1  1
 17 10  1  0
 18 25  1  0
 18 16  1  0
 19 18  2  0
 21 22  2  0
 21 20  1  0
 23 21  1  0
 24 26  1  0
 24 23  1  1
 24 25  1  0
 26 27  1  0
 28 26  2  0
M  END
$$$$
