FIN.pdb
     RDKit          3D

 28 28  0  0  1  0  0  0  0  0999 V2000
    7.0169  -18.8443   27.8298 N   0  0  0  0  0  0  0  0  0  0  0  0
    7.8268  -17.6531   27.7043 C   0  0  1  0  0  0  0  0  0  0  0  0
    9.3054  -17.9310   27.8486 C   0  0  0  0  0  0  0  0  0  0  0  0
   10.0909  -16.7168   28.1512 C   0  0  0  0  0  0  0  0  0  0  0  0
   10.4455  -15.9021   27.0779 C   0  0  0  0  0  0  0  0  0  0  0  0
   11.1760  -14.7425   27.2318 C   0  0  0  0  0  0  0  0  0  0  0  0
   11.5529  -14.4114   28.5315 C   0  0  0  0  0  0  0  0  0  0  0  0
   11.2102  -15.2049   29.5945 C   0  0  0  0  0  0  0  0  0  0  0  0
   10.4733  -16.3710   29.4184 C   0  0  0  0  0  0  0  0  0  0  0  0
    7.5907  -17.0668   26.3574 C   0  0  0  0  0  0  0  0  0  0  0  0
    7.0054  -17.7434   25.4674 O   0  0  0  0  0  0  0  0  0  0  0  0
    6.1895  -11.8604   25.8442 C   0  0  0  0  0  0  0  0  0  0  0  0
    6.2279  -13.3541   25.6334 C   0  0  0  0  0  0  0  0  0  0  0  0
    7.4411  -13.7013   24.7963 C   0  0  2  0  0  0  0  0  0  0  0  0
    7.2453  -13.2116   23.3673 C   0  0  0  0  0  0  0  0  0  0  0  0
    7.6493  -15.2025   24.7297 C   0  0  2  0  0  0  0  0  0  0  0  0
    7.9949  -15.7576   26.0002 N   0  0  0  0  0  0  0  0  0  0  0  0
    8.7310  -15.4658   23.7107 C   0  0  0  0  0  0  0  0  0  0  0  0
    8.5606  -15.2408   22.4861 O   0  0  0  0  0  0  0  0  0  0  0  0
   13.1359  -14.5081   25.1746 N   0  0  0  0  0  0  0  0  0  0  0  0
   12.8152  -15.0683   23.9164 C   0  0  0  0  0  0  0  0  0  0  0  0
   12.8887  -14.3518   22.8944 O   0  0  0  0  0  0  0  0  0  0  0  0
   12.3970  -16.4795   23.7674 C   0  0  0  0  0  0  0  0  0  0  0  0
   11.0031  -16.4664   23.1785 C   0  0  2  0  0  0  0  0  0  0  0  0
   10.0003  -15.9823   24.0860 N   0  0  0  0  0  0  0  0  0  0  0  0
   10.7225  -17.8519   22.7181 C   0  0  0  0  0  0  0  0  0  0  0  0
    9.6408  -18.5884   23.1799 O   0  0  0  0  0  0  0  0  0  0  0  0
   11.5159  -18.3628   21.8700 O   0  0  0  0  0  0  0  0  0  0  0  0
  2  1  1  6
  2  3  1  0
  4  3  1  0
  4  9  2  0
  5  4  1  0
  6  5  2  0
  6  7  1  0
  7  8  2  0
  8  9  1  0
 10  2  1  0
 11 10  2  0
 13 12  1  0
 14 13  1  0
 14 16  1  0
 14 15  1  6
 16 17  1  1
 17 10  1  0
 18 25  1  0
 18 16  1  0
 19 18  2  0
 21 22  2  0
 21 20  1  0
 23 21  1  0
 24 26  1  0
 24 23  1  1
 24 25  1  0
 26 27  1  0
 28 26  2  0
M  END
$$$$
