RPY.pdb
     RDKit          3D

 31 32  0  0  1  0  0  0  0  0999 V2000
   25.2206  -25.4240  -16.4160 N   0  0  0  0  0  0  0  0  0  0  0  0
   24.3747  -24.3077  -16.4978 C   0  0  0  0  0  0  0  0  0  0  0  0
   23.1586  -24.3947  -16.1173 N   0  0  0  0  0  0  0  0  0  0  0  0
   24.8522  -23.0702  -17.0021 N   0  0  0  0  0  0  0  0  0  0  0  0
   26.2538  -22.8903  -17.3893 C   0  0  0  0  0  0  0  0  0  0  0  0
   27.0745  -23.2974  -16.2159 C   0  0  0  0  0  0  0  0  0  0  0  0
   28.4351  -22.7246  -16.1094 C   0  0  0  0  0  0  0  0  0  0  0  0
   28.5505  -21.2432  -16.3529 C   0  0  2  0  0  0  0  0  0  0  0  0
   29.8361  -20.8666  -16.8627 N   0  0  0  0  0  0  0  0  0  0  0  0
   28.0507  -20.4429  -15.2362 C   0  0  0  0  0  0  0  0  0  0  0  0
   28.3933  -20.7918  -14.0775 O   0  0  0  0  0  0  0  0  0  0  0  0
   22.5303  -23.5924  -16.1913 N   0  0  0  0  0  0  0  0  0  0  0  0
   27.1973  -19.2859  -15.3465 C   0  0  0  0  0  0  0  0  0  0  0  0
   27.0822  -18.5010  -16.5434 C   0  0  0  0  0  0  0  0  0  0  0  0
   26.3342  -17.2425  -16.1040 C   0  0  0  0  0  0  0  0  0  0  0  0
   25.4666  -17.7381  -14.9746 C   0  0  2  0  0  0  0  0  0  0  0  0
   26.3680  -18.7348  -14.3156 C   0  0  0  0  0  0  0  0  0  0  0  0
   25.4779  -19.7618  -13.6976 O   0  0  0  0  0  0  0  0  0  0  0  0
   25.1073  -20.7222  -14.4028 O   0  0  0  0  0  0  0  0  0  0  0  0
   29.4077  -21.0134   -7.8033 C   0  0  0  0  0  0  0  0  0  0  0  0
   28.1684  -20.8668   -8.4122 C   0  0  0  0  0  0  0  0  0  0  0  0
   27.3686  -19.7964   -8.0793 C   0  0  0  0  0  0  0  0  0  0  0  0
   26.1246  -19.6133   -8.6636 C   0  0  0  0  0  0  0  0  0  0  0  0
   25.6289  -20.4929   -9.6043 C   0  0  0  0  0  0  0  0  0  0  0  0
   24.2995  -20.2844  -10.2059 C   0  0  2  0  0  0  0  0  0  0  0  0
   24.2318  -20.6090  -11.6799 N   0  0  0  0  0  0  0  0  0  0  0  0
   25.0898  -19.6096  -12.3439 C   0  0  0  0  0  0  0  0  0  0  0  0
   22.8313  -20.4350  -12.1400 O   0  0  0  0  0  0  0  0  0  0  0  0
   22.4285  -19.4524  -12.7804 C   0  0  0  0  0  0  0  0  0  0  0  0
   26.4333  -21.5732   -9.9419 C   0  0  0  0  0  0  0  0  0  0  0  0
   27.6660  -21.7399   -9.3523 O   0  0  0  0  0  0  0  0  0  0  0  0
  2  1  1  0
  3  2  2  0
  4  2  1  0
  5  4  1  0
  6  5  1  0
  7  6  1  0
  8  7  1  0
  8  9  1  1
 10  8  1  0
 11 10  2  0
 12 10  1  0
 12 16  1  0
 13 14  1  0
 13 12  1  0
 14 15  1  0
 15 16  1  0
 16 17  1  6
 17 18  2  0
 19 20  1  0
 20 30  2  0
 21 20  1  0
 21 22  2  0
 22 23  1  0
 23 29  2  0
 23 24  1  0
 25 24  1  1
 25 27  1  0
 26 17  1  0
 26 25  1  0
 27 28  2  0
 27 31  1  0
 30 29  1  0
M  END
$$$$
