RPY.pdb
     RDKit          3D

 31 32  0  0  1  0  0  0  0  0999 V2000
   29.7031  -22.2952  -17.5650 N   0  0  0  0  0  0  0  0  0  0  0  0
   29.6917  -20.9770  -18.0452 C   0  0  0  0  0  0  0  0  0  0  0  0
   29.9155  -20.7418  -19.2803 N   0  0  0  0  0  0  0  0  0  0  0  0
   29.4334  -19.8885  -17.1721 N   0  0  0  0  0  0  0  0  0  0  0  0
   29.2024  -20.0933  -15.7399 C   0  0  0  0  0  0  0  0  0  0  0  0
   28.2198  -19.0585  -15.3157 C   0  0  0  0  0  0  0  0  0  0  0  0
   26.8815  -19.5282  -14.8925 C   0  0  0  0  0  0  0  0  0  0  0  0
   26.7825  -20.9786  -14.5003 C   0  0  2  0  0  0  0  0  0  0  0  0
   27.0456  -21.8653  -15.5953 N   0  0  0  0  0  0  0  0  0  0  0  0
   25.5843  -21.2749  -13.7167 C   0  0  0  0  0  0  0  0  0  0  0  0
   24.5686  -21.6716  -14.3434 O   0  0  0  0  0  0  0  0  0  0  0  0
   29.8921  -19.7865  -19.6420 N   0  0  0  0  0  0  0  0  0  0  0  0
   25.4642  -21.1522  -12.2851 C   0  0  0  0  0  0  0  0  0  0  0  0
   26.5873  -20.9521  -11.4129 C   0  0  0  0  0  0  0  0  0  0  0  0
   26.0283  -21.1901  -10.0103 C   0  0  0  0  0  0  0  0  0  0  0  0
   24.5896  -20.7571  -10.1385 C   0  0  2  0  0  0  0  0  0  0  0  0
   24.2545  -21.2255  -11.5199 C   0  0  0  0  0  0  0  0  0  0  0  0
   23.2039  -20.2980  -12.0346 O   0  0  0  0  0  0  0  0  0  0  0  0
   23.5484  -19.1490  -12.3780 O   0  0  0  0  0  0  0  0  0  0  0  0
   17.2858  -17.0523  -17.3092 C   0  0  0  0  0  0  0  0  0  0  0  0
   18.2066  -17.7716  -16.5589 C   0  0  0  0  0  0  0  0  0  0  0  0
   19.1484  -17.1005  -15.8114 C   0  0  0  0  0  0  0  0  0  0  0  0
   20.0855  -17.7804  -15.0487 C   0  0  0  0  0  0  0  0  0  0  0  0
   20.1199  -19.1592  -15.0021 C   0  0  0  0  0  0  0  0  0  0  0  0
   21.1309  -19.8621  -14.1919 C   0  0  1  0  0  0  0  0  0  0  0  0
   20.8099  -19.9166  -12.7165 N   0  0  0  0  0  0  0  0  0  0  0  0
   21.8648  -20.7530  -12.1138 C   0  0  0  0  0  0  0  0  0  0  0  0
   19.4958  -20.5844  -12.5415 O   0  0  0  0  0  0  0  0  0  0  0  0
   18.4356  -19.9814  -12.3177 C   0  0  0  0  0  0  0  0  0  0  0  0
   19.1712  -19.8386  -15.7549 C   0  0  0  0  0  0  0  0  0  0  0  0
   18.2476  -19.1479  -16.5065 O   0  0  0  0  0  0  0  0  0  0  0  0
  2  1  1  0
  3  2  2  0
  4  2  1  0
  5  4  1  0
  6  5  1  0
  7  6  1  0
  8  7  1  0
  8  9  1  6
 10  8  1  0
 11 10  2  0
 12 10  1  0
 12 16  1  0
 13 14  1  0
 13 12  1  0
 14 15  1  0
 15 16  1  0
 16 17  1  1
 17 18  2  0
 19 20  1  0
 20 30  2  0
 21 20  1  0
 21 22  2  0
 22 23  1  0
 23 29  2  0
 23 24  1  0
 25 24  1  1
 25 27  1  0
 26 17  1  0
 26 25  1  0
 27 28  2  0
 27 31  1  0
 30 29  1  0
M  END
$$$$
