RPY.pdb
     RDKit          3D

 31 32  0  0  1  0  0  0  0  0999 V2000
   24.0112  -15.5691  -15.1117 N   0  0  0  0  0  0  0  0  0  0  0  0
   24.0682  -14.3131  -15.7343 C   0  0  0  0  0  0  0  0  0  0  0  0
   23.7115  -13.2647  -15.0983 N   0  0  0  0  0  0  0  0  0  0  0  0
   24.5199  -14.1865  -17.0736 N   0  0  0  0  0  0  0  0  0  0  0  0
   24.8489  -15.3610  -17.8854 C   0  0  0  0  0  0  0  0  0  0  0  0
   23.5807  -16.1182  -18.0710 C   0  0  0  0  0  0  0  0  0  0  0  0
   23.5799  -17.5451  -17.6777 C   0  0  0  0  0  0  0  0  0  0  0  0
   24.7622  -18.3582  -18.1343 C   0  0  2  0  0  0  0  0  0  0  0  0
   24.5099  -19.0585  -19.3591 N   0  0  0  0  0  0  0  0  0  0  0  0
   25.3553  -19.1519  -17.0593 C   0  0  0  0  0  0  0  0  0  0  0  0
   24.8492  -20.2798  -16.8282 O   0  0  0  0  0  0  0  0  0  0  0  0
   23.8473  -12.3369  -15.5041 N   0  0  0  0  0  0  0  0  0  0  0  0
   26.4722  -18.7545  -16.2385 C   0  0  0  0  0  0  0  0  0  0  0  0
   27.2611  -17.5819  -16.4930 C   0  0  0  0  0  0  0  0  0  0  0  0
   28.4797  -17.7372  -15.5833 C   0  0  0  0  0  0  0  0  0  0  0  0
   27.9346  -18.5158  -14.4127 C   0  0  2  0  0  0  0  0  0  0  0  0
   26.9753  -19.4454  -15.0880 C   0  0  0  0  0  0  0  0  0  0  0  0
   25.9027  -19.7385  -14.0917 O   0  0  0  0  0  0  0  0  0  0  0  0
   25.1279  -18.8148  -13.7704 O   0  0  0  0  0  0  0  0  0  0  0  0
   22.1360  -21.1462   -6.6207 C   0  0  0  0  0  0  0  0  0  0  0  0
   22.9445  -21.0000   -7.7401 C   0  0  0  0  0  0  0  0  0  0  0  0
   22.4260  -20.4390   -8.8859 C   0  0  0  0  0  0  0  0  0  0  0  0
   23.1990  -20.2751  -10.0251 C   0  0  0  0  0  0  0  0  0  0  0  0
   24.5220  -20.6656  -10.0660 C   0  0  0  0  0  0  0  0  0  0  0  0
   25.3231  -20.4908  -11.2908 C   0  0  2  0  0  0  0  0  0  0  0  0
   24.8704  -21.3462  -12.4511 N   0  0  0  0  0  0  0  0  0  0  0  0
   25.8048  -21.0444  -13.5520 C   0  0  0  0  0  0  0  0  0  0  0  0
   23.5011  -20.9279  -12.8427 O   0  0  0  0  0  0  0  0  0  0  0  0
   23.2382  -19.8562  -13.4085 C   0  0  0  0  0  0  0  0  0  0  0  0
   25.0475  -21.2316   -8.9119 C   0  0  0  0  0  0  0  0  0  0  0  0
   24.2660  -21.3868   -7.7893 O   0  0  0  0  0  0  0  0  0  0  0  0
  2  1  1  0
  3  2  2  0
  4  2  1  0
  5  4  1  0
  6  5  1  0
  7  6  1  0
  8  7  1  0
  8  9  1  6
 10  8  1  0
 11 10  2  0
 12 10  1  0
 12 16  1  0
 13 14  1  0
 13 12  1  0
 14 15  1  0
 15 16  1  0
 16 17  1  1
 17 18  2  0
 19 20  1  0
 20 30  2  0
 21 20  1  0
 21 22  2  0
 22 23  1  0
 23 29  2  0
 23 24  1  0
 25 24  1  1
 25 27  1  0
 26 17  1  0
 26 25  1  0
 27 28  2  0
 27 31  1  0
 30 29  1  0
M  END
$$$$
