RPY.pdb
     RDKit          3D

 31 32  0  0  1  0  0  0  0  0999 V2000
   22.6483  -18.5777  -17.8256 N   0  0  0  0  0  0  0  0  0  0  0  0
   23.1560  -19.6975  -17.1499 C   0  0  0  0  0  0  0  0  0  0  0  0
   22.7927  -19.9425  -15.9503 N   0  0  0  0  0  0  0  0  0  0  0  0
   24.0769  -20.5718  -17.7834 N   0  0  0  0  0  0  0  0  0  0  0  0
   24.3334  -20.5012  -19.2242 C   0  0  0  0  0  0  0  0  0  0  0  0
   25.4413  -21.4548  -19.5058 C   0  0  0  0  0  0  0  0  0  0  0  0
   25.7813  -22.4303  -18.4459 C   0  0  0  0  0  0  0  0  0  0  0  0
   27.2025  -22.4000  -17.9495 C   0  0  2  0  0  0  0  0  0  0  0  0
   27.9160  -23.6074  -18.2454 N   0  0  0  0  0  0  0  0  0  0  0  0
   27.3139  -21.9171  -16.5741 C   0  0  0  0  0  0  0  0  0  0  0  0
   27.2440  -22.7725  -15.6548 O   0  0  0  0  0  0  0  0  0  0  0  0
   23.2109  -20.7131  -15.4257 N   0  0  0  0  0  0  0  0  0  0  0  0
   27.4975  -20.5429  -16.1776 C   0  0  0  0  0  0  0  0  0  0  0  0
   27.7356  -19.4773  -17.1102 C   0  0  0  0  0  0  0  0  0  0  0  0
   28.1659  -18.2971  -16.2392 C   0  0  0  0  0  0  0  0  0  0  0  0
   27.4292  -18.5409  -14.9463 C   0  0  2  0  0  0  0  0  0  0  0  0
   27.4927  -20.0324  -14.8384 C   0  0  0  0  0  0  0  0  0  0  0  0
   26.2773  -20.4507  -14.0790 O   0  0  0  0  0  0  0  0  0  0  0  0
   25.2788  -20.8276  -14.7254 O   0  0  0  0  0  0  0  0  0  0  0  0
   21.1779  -21.2512   -6.7691 C   0  0  0  0  0  0  0  0  0  0  0  0
   22.1967  -21.0113   -7.6816 C   0  0  0  0  0  0  0  0  0  0  0  0
   23.2628  -21.8797   -7.7557 C   0  0  0  0  0  0  0  0  0  0  0  0
   24.3005  -21.6767   -8.6524 C   0  0  0  0  0  0  0  0  0  0  0  0
   24.3154  -20.5969   -9.5117 C   0  0  0  0  0  0  0  0  0  0  0  0
   25.4334  -20.3949  -10.4507 C   0  0  1  0  0  0  0  0  0  0  0  0
   25.1362  -20.8307  -11.8665 N   0  0  0  0  0  0  0  0  0  0  0  0
   26.3020  -20.4047  -12.6635 C   0  0  0  0  0  0  0  0  0  0  0  0
   23.9288  -20.1093  -12.3411 O   0  0  0  0  0  0  0  0  0  0  0  0
   23.9482  -18.9677  -12.8249 C   0  0  0  0  0  0  0  0  0  0  0  0
   23.2415  -19.7195   -9.4392 C   0  0  0  0  0  0  0  0  0  0  0  0
   22.2192  -19.9362   -8.5431 O   0  0  0  0  0  0  0  0  0  0  0  0
  2  1  1  0
  3  2  2  0
  4  2  1  0
  5  4  1  0
  6  5  1  0
  7  6  1  0
  8  7  1  0
  8  9  1  1
 10  8  1  0
 11 10  2  0
 12 10  1  0
 12 16  1  0
 13 14  1  0
 13 12  1  0
 14 15  1  0
 15 16  1  0
 16 17  1  6
 17 18  2  0
 19 20  1  0
 20 30  2  0
 21 20  1  0
 21 22  2  0
 22 23  1  0
 23 29  2  0
 23 24  1  0
 25 24  1  1
 25 27  1  0
 26 17  1  0
 26 25  1  0
 27 28  2  0
 27 31  1  0
 30 29  1  0
M  END
$$$$
