RPY.pdb
     RDKit          3D

 31 32  0  0  1  0  0  0  0  0999 V2000
   16.4295  -17.6151  -14.1237 N   0  0  0  0  0  0  0  0  0  0  0  0
   16.0708  -18.8437  -13.5490 C   0  0  0  0  0  0  0  0  0  0  0  0
   15.2173  -18.8835  -12.5998 N   0  0  0  0  0  0  0  0  0  0  0  0
   16.6471  -20.0562  -14.0089 N   0  0  0  0  0  0  0  0  0  0  0  0
   17.4360  -20.1101  -15.2424 C   0  0  0  0  0  0  0  0  0  0  0  0
   18.8373  -20.4082  -14.8378 C   0  0  0  0  0  0  0  0  0  0  0  0
   19.1241  -21.7740  -14.3449 C   0  0  0  0  0  0  0  0  0  0  0  0
   20.5264  -22.0200  -13.8548 C   0  0  2  0  0  0  0  0  0  0  0  0
   21.3153  -22.7647  -14.7915 N   0  0  0  0  0  0  0  0  0  0  0  0
   20.5706  -22.4907  -12.4714 C   0  0  0  0  0  0  0  0  0  0  0  0
   20.4423  -23.7268  -12.2781 O   0  0  0  0  0  0  0  0  0  0  0  0
   14.9300  -19.7759  -12.1937 N   0  0  0  0  0  0  0  0  0  0  0  0
   20.7487  -21.6605  -11.3060 C   0  0  0  0  0  0  0  0  0  0  0  0
   21.0403  -20.2561  -11.3743 C   0  0  0  0  0  0  0  0  0  0  0  0
   21.4409  -19.8798   -9.9480 C   0  0  0  0  0  0  0  0  0  0  0  0
   20.6424  -20.8414   -9.1045 C   0  0  2  0  0  0  0  0  0  0  0  0
   20.6864  -22.0837   -9.9381 C   0  0  0  0  0  0  0  0  0  0  0  0
   19.4328  -22.8364   -9.6365 O   0  0  0  0  0  0  0  0  0  0  0  0
   18.3659  -22.4314  -10.1410 O   0  0  0  0  0  0  0  0  0  0  0  0
   19.8406  -27.8938  -13.9402 C   0  0  0  0  0  0  0  0  0  0  0  0
   19.5293  -27.4791  -12.6521 C   0  0  0  0  0  0  0  0  0  0  0  0
   20.5340  -27.3359  -11.7213 C   0  0  0  0  0  0  0  0  0  0  0  0
   20.2659  -26.9244  -10.4248 C   0  0  0  0  0  0  0  0  0  0  0  0
   18.9825  -26.6393  -10.0052 C   0  0  0  0  0  0  0  0  0  0  0  0
   18.7189  -26.2123   -8.6193 C   0  0  2  0  0  0  0  0  0  0  0  0
   18.2952  -24.7679   -8.4890 N   0  0  0  0  0  0  0  0  0  0  0  0
   19.5002  -23.9741   -8.7954 C   0  0  0  0  0  0  0  0  0  0  0  0
   17.8887  -24.5179   -7.0834 O   0  0  0  0  0  0  0  0  0  0  0  0
   16.7745  -24.8064   -6.6218 C   0  0  0  0  0  0  0  0  0  0  0  0
   17.9674  -26.7827  -10.9418 C   0  0  0  0  0  0  0  0  0  0  0  0
   18.2510  -27.1922  -12.2251 O   0  0  0  0  0  0  0  0  0  0  0  0
  2  1  1  0
  3  2  2  0
  4  2  1  0
  5  4  1  0
  6  5  1  0
  7  6  1  0
  8  7  1  0
  8  9  1  6
 10  8  1  0
 11 10  2  0
 12 10  1  0
 12 16  1  0
 13 14  1  0
 13 12  1  0
 14 15  1  0
 15 16  1  0
 16 17  1  1
 17 18  2  0
 19 20  1  0
 20 30  2  0
 21 20  1  0
 21 22  2  0
 22 23  1  0
 23 29  2  0
 23 24  1  0
 25 24  1  6
 25 27  1  0
 26 17  1  0
 26 25  1  0
 27 28  2  0
 27 31  1  0
 30 29  1  0
M  END
$$$$
