RPY.pdb
     RDKit          3D

 31 32  0  0  1  0  0  0  0  0999 V2000
   27.4048  -28.6186  -17.8540 N   0  0  0  0  0  0  0  0  0  0  0  0
   28.6224  -28.5770  -17.1582 C   0  0  0  0  0  0  0  0  0  0  0  0
   29.4451  -29.5499  -17.2456 N   0  0  0  0  0  0  0  0  0  0  0  0
   28.9589  -27.4603  -16.3498 N   0  0  0  0  0  0  0  0  0  0  0  0
   28.0875  -26.2855  -16.2651 C   0  0  0  0  0  0  0  0  0  0  0  0
   28.9763  -25.0925  -16.3187 C   0  0  0  0  0  0  0  0  0  0  0  0
   28.3275  -23.7625  -16.2862 C   0  0  0  0  0  0  0  0  0  0  0  0
   27.9686  -23.1682  -17.6223 C   0  0  2  0  0  0  0  0  0  0  0  0
   29.0445  -22.4170  -18.1988 N   0  0  0  0  0  0  0  0  0  0  0  0
   26.6637  -22.5088  -17.6189 C   0  0  0  0  0  0  0  0  0  0  0  0
   26.5784  -21.4014  -17.0291 O   0  0  0  0  0  0  0  0  0  0  0  0
   30.3572  -29.5045  -16.7873 N   0  0  0  0  0  0  0  0  0  0  0  0
   25.4629  -23.0177  -18.2339 C   0  0  0  0  0  0  0  0  0  0  0  0
   25.4431  -24.1654  -19.0967 C   0  0  0  0  0  0  0  0  0  0  0  0
   24.0554  -24.1375  -19.7370 C   0  0  0  0  0  0  0  0  0  0  0  0
   23.2023  -23.4918  -18.6744 C   0  0  2  0  0  0  0  0  0  0  0  0
   24.1426  -22.4742  -18.1084 C   0  0  0  0  0  0  0  0  0  0  0  0
   23.7445  -22.2817  -16.6825 O   0  0  0  0  0  0  0  0  0  0  0  0
   24.2316  -23.0469  -15.8257 O   0  0  0  0  0  0  0  0  0  0  0  0
   21.0402  -15.5853  -18.1843 C   0  0  0  0  0  0  0  0  0  0  0  0
   21.4709  -16.5598  -17.2937 C   0  0  0  0  0  0  0  0  0  0  0  0
   22.6452  -17.2357  -17.5395 C   0  0  0  0  0  0  0  0  0  0  0  0
   23.1104  -18.2156  -16.6760 C   0  0  0  0  0  0  0  0  0  0  0  0
   22.4207  -18.5604  -15.5315 C   0  0  0  0  0  0  0  0  0  0  0  0
   22.9288  -19.6119  -14.6322 C   0  0  1  0  0  0  0  0  0  0  0  0
   22.4283  -20.9992  -14.9607 N   0  0  0  0  0  0  0  0  0  0  0  0
   22.8356  -21.2453  -16.3569 C   0  0  0  0  0  0  0  0  0  0  0  0
   20.9464  -21.0013  -14.8753 O   0  0  0  0  0  0  0  0  0  0  0  0
   20.1947  -20.9617  -15.8607 C   0  0  0  0  0  0  0  0  0  0  0  0
   21.2362  -17.8804  -15.2811 C   0  0  0  0  0  0  0  0  0  0  0  0
   20.7887  -16.9099  -16.1489 O   0  0  0  0  0  0  0  0  0  0  0  0
  2  1  1  0
  3  2  2  0
  4  2  1  0
  5  4  1  0
  6  5  1  0
  7  6  1  0
  8  7  1  0
  8  9  1  1
 10  8  1  0
 11 10  2  0
 12 10  1  0
 12 16  1  0
 13 14  1  0
 13 12  1  0
 14 15  1  0
 15 16  1  0
 16 17  1  6
 17 18  2  0
 19 20  1  0
 20 30  2  0
 21 20  1  0
 21 22  2  0
 22 23  1  0
 23 29  2  0
 23 24  1  0
 25 24  1  1
 25 27  1  0
 26 17  1  0
 26 25  1  0
 27 28  2  0
 27 31  1  0
 30 29  1  0
M  END
$$$$
