RPY.pdb
     RDKit          3D

 31 32  0  0  1  0  0  0  0  0999 V2000
   17.1909  -20.6734    2.0563 N   0  0  0  0  0  0  0  0  0  0  0  0
   17.1407  -19.2819    1.8840 C   0  0  0  0  0  0  0  0  0  0  0  0
   17.3504  -18.7697    0.7331 N   0  0  0  0  0  0  0  0  0  0  0  0
   16.8584  -18.4245    2.9789 N   0  0  0  0  0  0  0  0  0  0  0  0
   16.3355  -18.9451    4.2448 C   0  0  0  0  0  0  0  0  0  0  0  0
   16.0091  -17.7627    5.0882 C   0  0  0  0  0  0  0  0  0  0  0  0
   15.4995  -18.0240    6.4530 C   0  0  0  0  0  0  0  0  0  0  0  0
   15.2999  -16.8149    7.3279 C   0  0  2  0  0  0  0  0  0  0  0  0
   14.5874  -15.7642    6.6624 N   0  0  0  0  0  0  0  0  0  0  0  0
   16.5189  -16.4119    8.0272 C   0  0  0  0  0  0  0  0  0  0  0  0
   17.2335  -15.5328    7.4812 O   0  0  0  0  0  0  0  0  0  0  0  0
   17.3279  -17.7568    0.6010 N   0  0  0  0  0  0  0  0  0  0  0  0
   16.9752  -16.9350    9.2911 C   0  0  0  0  0  0  0  0  0  0  0  0
   16.2193  -17.8682   10.0784 C   0  0  0  0  0  0  0  0  0  0  0  0
   16.9312  -17.8908   11.4309 C   0  0  0  0  0  0  0  0  0  0  0  0
   18.3655  -17.6016   11.0663 C   0  0  2  0  0  0  0  0  0  0  0  0
   18.2018  -16.6100    9.9573 C   0  0  0  0  0  0  0  0  0  0  0  0
   19.3889  -16.7757    9.0671 O   0  0  0  0  0  0  0  0  0  0  0  0
   19.2727  -17.5006    8.0582 O   0  0  0  0  0  0  0  0  0  0  0  0
   18.9973  -11.1106    5.6731 C   0  0  0  0  0  0  0  0  0  0  0  0
   19.8231  -11.9748    6.3797 C   0  0  0  0  0  0  0  0  0  0  0  0
   19.9185  -13.2932    5.9938 C   0  0  0  0  0  0  0  0  0  0  0  0
   20.7311  -14.1887    6.6720 C   0  0  0  0  0  0  0  0  0  0  0  0
   21.4816  -13.8032    7.7640 C   0  0  0  0  0  0  0  0  0  0  0  0
   22.3318  -14.7740    8.4763 C   0  0  2  0  0  0  0  0  0  0  0  0
   21.7707  -16.1764    8.5108 N   0  0  0  0  0  0  0  0  0  0  0  0
   20.5940  -16.1090    9.3978 C   0  0  0  0  0  0  0  0  0  0  0  0
   22.7852  -17.0785    9.1110 O   0  0  0  0  0  0  0  0  0  0  0  0
   22.9529  -17.2191   10.3317 C   0  0  0  0  0  0  0  0  0  0  0  0
   21.3874  -12.4742    8.1554 C   0  0  0  0  0  0  0  0  0  0  0  0
   20.5758  -11.5981    7.4707 O   0  0  0  0  0  0  0  0  0  0  0  0
  2  1  1  0
  3  2  2  0
  4  2  1  0
  5  4  1  0
  6  5  1  0
  7  6  1  0
  8  7  1  0
  8  9  1  6
 10  8  1  0
 11 10  2  0
 12 10  1  0
 12 16  1  0
 13 14  1  0
 13 12  1  0
 14 15  1  0
 15 16  1  0
 16 17  1  6
 17 18  2  0
 19 20  1  0
 20 30  2  0
 21 20  1  0
 21 22  2  0
 22 23  1  0
 23 29  2  0
 23 24  1  0
 25 24  1  6
 25 27  1  0
 26 17  1  0
 26 25  1  0
 27 28  2  0
 27 31  1  0
 30 29  1  0
M  END
$$$$
