RPY.pdb
     RDKit          3D

 31 32  0  0  1  0  0  0  0  0999 V2000
   31.1895  -22.4925  -20.3153 N   0  0  0  0  0  0  0  0  0  0  0  0
   30.7015  -23.7511  -19.9329 C   0  0  0  0  0  0  0  0  0  0  0  0
   31.0802  -24.8017  -20.5524 N   0  0  0  0  0  0  0  0  0  0  0  0
   29.7837  -23.8780  -18.8581 N   0  0  0  0  0  0  0  0  0  0  0  0
   29.3439  -22.7139  -18.0847 C   0  0  0  0  0  0  0  0  0  0  0  0
   28.2620  -22.0635  -18.8737 C   0  0  0  0  0  0  0  0  0  0  0  0
   26.9259  -21.9710  -18.2434 C   0  0  0  0  0  0  0  0  0  0  0  0
   26.8987  -21.4870  -16.8179 C   0  0  2  0  0  0  0  0  0  0  0  0
   26.3374  -22.4517  -15.9185 N   0  0  0  0  0  0  0  0  0  0  0  0
   26.3840  -20.1245  -16.6900 C   0  0  0  0  0  0  0  0  0  0  0  0
   25.2638  -19.9805  -16.1368 O   0  0  0  0  0  0  0  0  0  0  0  0
   30.7035  -25.7183  -20.3037 N   0  0  0  0  0  0  0  0  0  0  0  0
   27.0495  -18.9284  -17.1433 C   0  0  0  0  0  0  0  0  0  0  0  0
   28.3930  -18.9162  -17.6502 C   0  0  0  0  0  0  0  0  0  0  0  0
   28.7656  -17.4349  -17.7078 C   0  0  0  0  0  0  0  0  0  0  0  0
   27.4417  -16.7597  -17.9632 C   0  0  2  0  0  0  0  0  0  0  0  0
   26.5108  -17.6002  -17.1463 C   0  0  0  0  0  0  0  0  0  0  0  0
   25.1811  -17.5317  -17.8216 O   0  0  0  0  0  0  0  0  0  0  0  0
   24.9575  -18.3175  -18.7647 O   0  0  0  0  0  0  0  0  0  0  0  0
   16.5642  -15.4580  -18.6554 C   0  0  0  0  0  0  0  0  0  0  0  0
   17.8833  -15.5663  -18.2354 C   0  0  0  0  0  0  0  0  0  0  0  0
   18.4361  -16.8125  -18.0417 C   0  0  0  0  0  0  0  0  0  0  0  0
   19.7490  -16.9646  -17.6229 C   0  0  0  0  0  0  0  0  0  0  0  0
   20.5632  -15.8771  -17.3801 C   0  0  0  0  0  0  0  0  0  0  0  0
   21.9534  -16.0615  -16.9263 C   0  0  1  0  0  0  0  0  0  0  0  0
   22.9136  -16.4553  -18.0244 N   0  0  0  0  0  0  0  0  0  0  0  0
   24.2294  -16.5847  -17.3703 C   0  0  0  0  0  0  0  0  0  0  0  0
   22.9687  -15.3577  -19.0222 O   0  0  0  0  0  0  0  0  0  0  0  0
   23.6752  -14.3457  -18.9019 C   0  0  0  0  0  0  0  0  0  0  0  0
   20.0084  -14.6191  -17.5748 C   0  0  0  0  0  0  0  0  0  0  0  0
   18.7030  -14.4860  -17.9912 O   0  0  0  0  0  0  0  0  0  0  0  0
  2  1  1  0
  3  2  2  0
  4  2  1  0
  5  4  1  0
  6  5  1  0
  7  6  1  0
  8  7  1  0
  8  9  1  1
 10  8  1  0
 11 10  2  0
 12 10  1  0
 12 16  1  0
 13 14  1  0
 13 12  1  0
 14 15  1  0
 15 16  1  0
 16 17  1  6
 17 18  2  0
 19 20  1  0
 20 30  2  0
 21 20  1  0
 21 22  2  0
 22 23  1  0
 23 29  2  0
 23 24  1  0
 25 24  1  1
 25 27  1  0
 26 17  1  0
 26 25  1  0
 27 28  2  0
 27 31  1  0
 30 29  1  0
M  END
$$$$
