RPY.pdb
     RDKit          3D

 31 32  0  0  1  0  0  0  0  0999 V2000
   19.9724  -30.9053  -13.1565 N   0  0  0  0  0  0  0  0  0  0  0  0
   21.1069  -30.2961  -12.5996 C   0  0  0  0  0  0  0  0  0  0  0  0
   22.2696  -30.5707  -13.0508 N   0  0  0  0  0  0  0  0  0  0  0  0
   20.9831  -29.3702  -11.5313 N   0  0  0  0  0  0  0  0  0  0  0  0
   19.6738  -28.9899  -10.9949 C   0  0  0  0  0  0  0  0  0  0  0  0
   19.6068  -27.5038  -11.0511 C   0  0  0  0  0  0  0  0  0  0  0  0
   19.2783  -26.7926   -9.7953 C   0  0  0  0  0  0  0  0  0  0  0  0
   17.9379  -26.1079   -9.7536 C   0  0  2  0  0  0  0  0  0  0  0  0
   17.9657  -24.8042  -10.3485 N   0  0  0  0  0  0  0  0  0  0  0  0
   17.2961  -26.1944   -8.4428 C   0  0  0  0  0  0  0  0  0  0  0  0
   17.7419  -25.4507   -7.5319 O   0  0  0  0  0  0  0  0  0  0  0  0
   23.1059  -30.1897  -12.6042 N   0  0  0  0  0  0  0  0  0  0  0  0
   16.1942  -27.0596   -8.1016 C   0  0  0  0  0  0  0  0  0  0  0  0
   15.4310  -27.7876   -9.0760 C   0  0  0  0  0  0  0  0  0  0  0  0
   14.2153  -28.2994   -8.3037 C   0  0  0  0  0  0  0  0  0  0  0  0
   14.7500  -28.4779   -6.9051 C   0  0  2  0  0  0  0  0  0  0  0  0
   15.6829  -27.3135   -6.7869 C   0  0  0  0  0  0  0  0  0  0  0  0
   16.7550  -27.7293   -5.8348 O   0  0  0  0  0  0  0  0  0  0  0  0
   17.6557  -28.4842   -6.2539 O   0  0  0  0  0  0  0  0  0  0  0  0
   13.8900  -23.1351   -0.9353 C   0  0  0  0  0  0  0  0  0  0  0  0
   14.9504  -23.9032   -1.3975 C   0  0  0  0  0  0  0  0  0  0  0  0
   15.3661  -23.7741   -2.7039 C   0  0  0  0  0  0  0  0  0  0  0  0
   16.4205  -24.5221   -3.2051 C   0  0  0  0  0  0  0  0  0  0  0  0
   17.1024  -25.4301   -2.4209 C   0  0  0  0  0  0  0  0  0  0  0  0
   18.2145  -26.2219   -2.9767 C   0  0  1  0  0  0  0  0  0  0  0  0
   17.7961  -27.5564   -3.5483 N   0  0  0  0  0  0  0  0  0  0  0  0
   16.7109  -27.2550   -4.5008 C   0  0  0  0  0  0  0  0  0  0  0  0
   17.2621  -28.3973   -2.4478 O   0  0  0  0  0  0  0  0  0  0  0  0
   16.0544  -28.6025   -2.2550 C   0  0  0  0  0  0  0  0  0  0  0  0
   16.6855  -25.5623   -1.1030 C   0  0  0  0  0  0  0  0  0  0  0  0
   15.6368  -24.8116   -0.6215 O   0  0  0  0  0  0  0  0  0  0  0  0
  2  1  1  0
  3  2  2  0
  4  2  1  0
  5  4  1  0
  6  5  1  0
  7  6  1  0
  8  7  1  0
  8  9  1  1
 10  8  1  0
 11 10  2  0
 12 10  1  0
 12 16  1  0
 13 14  1  0
 13 12  1  0
 14 15  1  0
 15 16  1  0
 16 17  1  6
 17 18  2  0
 19 20  1  0
 20 30  2  0
 21 20  1  0
 21 22  2  0
 22 23  1  0
 23 29  2  0
 23 24  1  0
 25 24  1  6
 25 27  1  0
 26 17  1  0
 26 25  1  0
 27 28  2  0
 27 31  1  0
 30 29  1  0
M  END
$$$$
