RPY.pdb
     RDKit          3D

 31 32  0  0  1  0  0  0  0  0999 V2000
   32.7203  -25.7696  -15.3670 N   0  0  0  0  0  0  0  0  0  0  0  0
   32.7872  -25.4248  -16.7253 C   0  0  0  0  0  0  0  0  0  0  0  0
   33.4719  -26.1363  -17.5352 N   0  0  0  0  0  0  0  0  0  0  0  0
   32.1002  -24.2859  -17.2199 N   0  0  0  0  0  0  0  0  0  0  0  0
   31.2074  -23.4987  -16.3655 C   0  0  0  0  0  0  0  0  0  0  0  0
   29.8522  -24.1003  -16.4985 C   0  0  0  0  0  0  0  0  0  0  0  0
   28.7580  -23.4847  -15.7146 C   0  0  0  0  0  0  0  0  0  0  0  0
   28.0130  -22.3618  -16.3864 C   0  0  2  0  0  0  0  0  0  0  0  0
   28.8507  -21.5839  -17.2511 N   0  0  0  0  0  0  0  0  0  0  0  0
   27.1757  -21.6011  -15.4603 C   0  0  0  0  0  0  0  0  0  0  0  0
   27.7429  -20.7305  -14.7517 O   0  0  0  0  0  0  0  0  0  0  0  0
   33.6424  -25.8199  -18.4916 N   0  0  0  0  0  0  0  0  0  0  0  0
   25.7532  -21.7616  -15.2872 C   0  0  0  0  0  0  0  0  0  0  0  0
   24.9220  -22.4823  -16.2101 C   0  0  0  0  0  0  0  0  0  0  0  0
   23.4943  -22.1282  -15.7943 C   0  0  0  0  0  0  0  0  0  0  0  0
   23.6190  -21.8965  -14.3095 C   0  0  2  0  0  0  0  0  0  0  0  0
   24.9579  -21.2338  -14.2181 C   0  0  0  0  0  0  0  0  0  0  0  0
   25.5101  -21.5860  -12.8765 O   0  0  0  0  0  0  0  0  0  0  0  0
   25.9317  -22.7468  -12.6985 O   0  0  0  0  0  0  0  0  0  0  0  0
   28.7307  -19.9929   -4.7315 C   0  0  0  0  0  0  0  0  0  0  0  0
   28.3494  -19.9886   -6.0667 C   0  0  0  0  0  0  0  0  0  0  0  0
   27.2500  -19.2577   -6.4584 C   0  0  0  0  0  0  0  0  0  0  0  0
   26.8357  -19.2266   -7.7812 C   0  0  0  0  0  0  0  0  0  0  0  0
   27.5031  -19.9251   -8.7666 C   0  0  0  0  0  0  0  0  0  0  0  0
   27.0398  -19.8856  -10.1653 C   0  0  1  0  0  0  0  0  0  0  0  0
   25.9873  -20.9180  -10.4958 N   0  0  0  0  0  0  0  0  0  0  0  0
   25.5352  -20.5971  -11.8627 C   0  0  0  0  0  0  0  0  0  0  0  0
   24.8517  -20.7558   -9.5538 O   0  0  0  0  0  0  0  0  0  0  0  0
   23.8909  -19.9967   -9.7496 C   0  0  0  0  0  0  0  0  0  0  0  0
   28.6122  -20.6629   -8.3744 C   0  0  0  0  0  0  0  0  0  0  0  0
   29.0101  -20.6827   -7.0568 O   0  0  0  0  0  0  0  0  0  0  0  0
  2  1  1  0
  3  2  2  0
  4  2  1  0
  5  4  1  0
  6  5  1  0
  7  6  1  0
  8  7  1  0
  8  9  1  1
 10  8  1  0
 11 10  2  0
 12 10  1  0
 12 16  1  0
 13 14  1  0
 13 12  1  0
 14 15  1  0
 15 16  1  0
 16 17  1  1
 17 18  2  0
 19 20  1  0
 20 30  2  0
 21 20  1  0
 21 22  2  0
 22 23  1  0
 23 29  2  0
 23 24  1  0
 25 24  1  6
 25 27  1  0
 26 17  1  0
 26 25  1  0
 27 28  2  0
 27 31  1  0
 30 29  1  0
M  END
$$$$
