RPY.pdb
     RDKit          3D

 31 32  0  0  1  0  0  0  0  0999 V2000
   31.4540  -25.1560  -16.9214 N   0  0  0  0  0  0  0  0  0  0  0  0
   31.4436  -25.3875  -18.3051 C   0  0  0  0  0  0  0  0  0  0  0  0
   31.7957  -26.5243  -18.7683 N   0  0  0  0  0  0  0  0  0  0  0  0
   31.0449  -24.3686  -19.2087 N   0  0  0  0  0  0  0  0  0  0  0  0
   30.5376  -23.0788  -18.7336 C   0  0  0  0  0  0  0  0  0  0  0  0
   29.1056  -23.0113  -19.1351 C   0  0  0  0  0  0  0  0  0  0  0  0
   28.0959  -23.0629  -18.0541 C   0  0  0  0  0  0  0  0  0  0  0  0
   28.5761  -22.6748  -16.6808 C   0  0  2  0  0  0  0  0  0  0  0  0
   29.1514  -23.7759  -15.9660 N   0  0  0  0  0  0  0  0  0  0  0  0
   27.5984  -21.8785  -15.9408 C   0  0  0  0  0  0  0  0  0  0  0  0
   26.7102  -22.5011  -15.3044 O   0  0  0  0  0  0  0  0  0  0  0  0
   31.8583  -26.6803  -19.7761 N   0  0  0  0  0  0  0  0  0  0  0  0
   27.5626  -20.4385  -15.8764 C   0  0  0  0  0  0  0  0  0  0  0  0
   28.4979  -19.5939  -16.5650 C   0  0  0  0  0  0  0  0  0  0  0  0
   28.2698  -18.2056  -15.9676 C   0  0  0  0  0  0  0  0  0  0  0  0
   26.8079  -18.2289  -15.5987 C   0  0  2  0  0  0  0  0  0  0  0  0
   26.6369  -19.6396  -15.1287 C   0  0  0  0  0  0  0  0  0  0  0  0
   25.2177  -20.0072  -15.4110 O   0  0  0  0  0  0  0  0  0  0  0  0
   24.9176  -20.3521  -16.5720 O   0  0  0  0  0  0  0  0  0  0  0  0
   23.8627  -20.4530   -8.1711 C   0  0  0  0  0  0  0  0  0  0  0  0
   23.6171  -20.7369   -9.5079 C   0  0  0  0  0  0  0  0  0  0  0  0
   22.3583  -20.5323  -10.0272 C   0  0  0  0  0  0  0  0  0  0  0  0
   22.0711  -20.8030  -11.3563 C   0  0  0  0  0  0  0  0  0  0  0  0
   23.0303  -21.2897  -12.2208 C   0  0  0  0  0  0  0  0  0  0  0  0
   22.7008  -21.5797  -13.6280 C   0  0  1  0  0  0  0  0  0  0  0  0
   22.8814  -20.4032  -14.5587 N   0  0  0  0  0  0  0  0  0  0  0  0
   24.2712  -19.9514  -14.3587 C   0  0  0  0  0  0  0  0  0  0  0  0
   21.9511  -19.3234  -14.1441 O   0  0  0  0  0  0  0  0  0  0  0  0
   20.7186  -19.3847  -14.2665 C   0  0  0  0  0  0  0  0  0  0  0  0
   24.3007  -21.4969  -11.6999 C   0  0  0  0  0  0  0  0  0  0  0  0
   24.5689  -21.2226  -10.3778 O   0  0  0  0  0  0  0  0  0  0  0  0
  2  1  1  0
  3  2  2  0
  4  2  1  0
  5  4  1  0
  6  5  1  0
  7  6  1  0
  8  7  1  0
  8  9  1  1
 10  8  1  0
 11 10  2  0
 12 10  1  0
 12 16  1  0
 13 14  1  0
 13 12  1  0
 14 15  1  0
 15 16  1  0
 16 17  1  6
 17 18  2  0
 19 20  1  0
 20 30  2  0
 21 20  1  0
 21 22  2  0
 22 23  1  0
 23 29  2  0
 23 24  1  0
 25 24  1  6
 25 27  1  0
 26 17  1  0
 26 25  1  0
 27 28  2  0
 27 31  1  0
 30 29  1  0
M  END
$$$$
