RPY.pdb
     RDKit          3D

 31 32  0  0  1  0  0  0  0  0999 V2000
   19.5284  -18.3608  -16.3926 N   0  0  0  0  0  0  0  0  0  0  0  0
   19.8152  -16.9875  -16.3939 C   0  0  0  0  0  0  0  0  0  0  0  0
   19.0261  -16.1675  -16.9735 N   0  0  0  0  0  0  0  0  0  0  0  0
   20.9803  -16.4885  -15.7556 N   0  0  0  0  0  0  0  0  0  0  0  0
   22.0284  -17.3864  -15.2635 C   0  0  0  0  0  0  0  0  0  0  0  0
   21.4589  -18.1003  -14.0879 C   0  0  0  0  0  0  0  0  0  0  0  0
   22.3514  -19.0336  -13.3646 C   0  0  0  0  0  0  0  0  0  0  0  0
   22.8316  -20.2286  -14.1446 C   0  0  2  0  0  0  0  0  0  0  0  0
   21.8039  -21.2082  -14.3414 N   0  0  0  0  0  0  0  0  0  0  0  0
   24.1146  -20.7413  -13.6664 C   0  0  0  0  0  0  0  0  0  0  0  0
   24.1125  -21.3830  -12.5848 O   0  0  0  0  0  0  0  0  0  0  0  0
   19.2018  -15.1616  -16.9390 N   0  0  0  0  0  0  0  0  0  0  0  0
   25.3854  -20.5756  -14.3274 C   0  0  0  0  0  0  0  0  0  0  0  0
   25.5306  -19.9575  -15.6153 C   0  0  0  0  0  0  0  0  0  0  0  0
   26.9653  -20.2794  -16.0333 C   0  0  0  0  0  0  0  0  0  0  0  0
   27.6944  -20.3605  -14.7159 C   0  0  2  0  0  0  0  0  0  0  0  0
   26.6641  -21.0001  -13.8387 C   0  0  0  0  0  0  0  0  0  0  0  0
   26.9299  -20.5110  -12.4534 O   0  0  0  0  0  0  0  0  0  0  0  0
   26.2442  -19.5624  -12.0212 O   0  0  0  0  0  0  0  0  0  0  0  0
   28.2052  -19.0115   -4.1443 C   0  0  0  0  0  0  0  0  0  0  0  0
   27.9360  -19.4743   -5.4255 C   0  0  0  0  0  0  0  0  0  0  0  0
   28.5714  -18.9007   -6.5042 C   0  0  0  0  0  0  0  0  0  0  0  0
   28.3310  -19.3329   -7.7994 C   0  0  0  0  0  0  0  0  0  0  0  0
   27.4453  -20.3561   -8.0696 C   0  0  0  0  0  0  0  0  0  0  0  0
   27.1976  -20.7936   -9.4552 C   0  0  1  0  0  0  0  0  0  0  0  0
   28.3678  -20.5824  -10.3873 N   0  0  0  0  0  0  0  0  0  0  0  0
   27.9428  -21.1371  -11.6863 C   0  0  0  0  0  0  0  0  0  0  0  0
   29.5256  -21.3596   -9.8784 O   0  0  0  0  0  0  0  0  0  0  0  0
   29.6113  -22.5953   -9.9370 C   0  0  0  0  0  0  0  0  0  0  0  0
   26.8032  -20.9365   -6.9838 C   0  0  0  0  0  0  0  0  0  0  0  0
   27.0537  -20.4953   -5.7041 O   0  0  0  0  0  0  0  0  0  0  0  0
  2  1  1  0
  3  2  2  0
  4  2  1  0
  5  4  1  0
  6  5  1  0
  7  6  1  0
  8  7  1  0
  8  9  1  1
 10  8  1  0
 11 10  2  0
 12 10  1  0
 12 16  1  0
 13 14  1  0
 13 12  1  0
 14 15  1  0
 15 16  1  0
 16 17  1  6
 17 18  2  0
 19 20  1  0
 20 30  2  0
 21 20  1  0
 21 22  2  0
 22 23  1  0
 23 29  2  0
 23 24  1  0
 25 24  1  6
 25 27  1  0
 26 17  1  0
 26 25  1  0
 27 28  2  0
 27 31  1  0
 30 29  1  0
M  END
$$$$
