RPY.pdb
     RDKit          3D

 31 32  0  0  1  0  0  0  0  0999 V2000
   26.0986  -28.3349  -18.2149 N   0  0  0  0  0  0  0  0  0  0  0  0
   27.0162  -27.7196  -19.0797 C   0  0  0  0  0  0  0  0  0  0  0  0
   27.8530  -28.4266  -19.7362 N   0  0  0  0  0  0  0  0  0  0  0  0
   27.0310  -26.3096  -19.2386 N   0  0  0  0  0  0  0  0  0  0  0  0
   26.1846  -25.4374  -18.4203 C   0  0  0  0  0  0  0  0  0  0  0  0
   26.5122  -25.7384  -16.9996 C   0  0  0  0  0  0  0  0  0  0  0  0
   26.7566  -24.5871  -16.1022 C   0  0  0  0  0  0  0  0  0  0  0  0
   27.2416  -23.3240  -16.7630 C   0  0  2  0  0  0  0  0  0  0  0  0
   28.6485  -23.3494  -17.0357 N   0  0  0  0  0  0  0  0  0  0  0  0
   26.7425  -22.1140  -16.1116 C   0  0  0  0  0  0  0  0  0  0  0  0
   27.2969  -21.7664  -15.0376 O   0  0  0  0  0  0  0  0  0  0  0  0
   28.5412  -27.9853  -20.3490 N   0  0  0  0  0  0  0  0  0  0  0  0
   25.6678  -21.2820  -16.5933 C   0  0  0  0  0  0  0  0  0  0  0  0
   25.1520  -21.3548  -17.9315 C   0  0  0  0  0  0  0  0  0  0  0  0
   24.2708  -20.1133  -18.0687 C   0  0  0  0  0  0  0  0  0  0  0  0
   23.7732  -19.8910  -16.6628 C   0  0  2  0  0  0  0  0  0  0  0  0
   24.9741  -20.2693  -15.8534 C   0  0  0  0  0  0  0  0  0  0  0  0
   24.4577  -20.7777  -14.5481 O   0  0  0  0  0  0  0  0  0  0  0  0
   24.0594  -21.9588  -14.4912 O   0  0  0  0  0  0  0  0  0  0  0  0
   30.2287  -21.5532  -11.4627 C   0  0  0  0  0  0  0  0  0  0  0  0
   28.9236  -21.0836  -11.3980 C   0  0  0  0  0  0  0  0  0  0  0  0
   28.0275  -21.6793  -10.5386 C   0  0  0  0  0  0  0  0  0  0  0  0
   26.7155  -21.2413  -10.4435 C   0  0  0  0  0  0  0  0  0  0  0  0
   26.2452  -20.1900  -11.2038 C   0  0  0  0  0  0  0  0  0  0  0  0
   24.8438  -19.7466  -11.0938 C   0  0  2  0  0  0  0  0  0  0  0  0
   23.9216  -20.3554  -12.1241 N   0  0  0  0  0  0  0  0  0  0  0  0
   24.4392  -19.9074  -13.4308 C   0  0  0  0  0  0  0  0  0  0  0  0
   22.5575  -19.8056  -11.9233 O   0  0  0  0  0  0  0  0  0  0  0  0
   21.7751  -20.1951  -11.0435 C   0  0  0  0  0  0  0  0  0  0  0  0
   27.1467  -19.5873  -12.0713 C   0  0  0  0  0  0  0  0  0  0  0  0
   28.4460  -20.0347  -12.1531 O   0  0  0  0  0  0  0  0  0  0  0  0
  2  1  1  0
  3  2  2  0
  4  2  1  0
  5  4  1  0
  6  5  1  0
  7  6  1  0
  8  7  1  0
  8  9  1  1
 10  8  1  0
 11 10  2  0
 12 10  1  0
 12 16  1  0
 13 14  1  0
 13 12  1  0
 14 15  1  0
 15 16  1  0
 16 17  1  6
 17 18  2  0
 19 20  1  0
 20 30  2  0
 21 20  1  0
 21 22  2  0
 22 23  1  0
 23 29  2  0
 23 24  1  0
 25 24  1  6
 25 27  1  0
 26 17  1  0
 26 25  1  0
 27 28  2  0
 27 31  1  0
 30 29  1  0
M  END
$$$$
