NHE.pdb
     RDKit          3D

 28 28  0  0  1  0  0  0  0  0999 V2000
   20.4977  -14.0320  -19.3302 N   0  0  0  0  0  0  0  0  0  0  0  0
   21.4372  -14.5868  -18.3795 C   0  0  0  0  0  0  0  0  0  0  0  0
   21.3561  -15.8224  -18.1582 O   0  0  0  0  0  0  0  0  0  0  0  0
   22.4242  -13.7242  -17.7210 C   0  0  0  0  0  0  0  0  0  0  0  0
   22.2985  -12.2888  -18.1332 C   0  0  2  0  0  0  0  0  0  0  0  0
   23.2043  -12.0917  -19.2718 N   0  0  0  0  0  0  0  0  0  0  0  0
   22.7888  -11.3509  -17.0655 C   0  0  0  0  0  0  0  0  0  0  0  0
   22.1898  -11.2732  -15.9666 O   0  0  0  0  0  0  0  0  0  0  0  0
   23.9284  -10.5349  -17.2635 N   0  0  0  0  0  0  0  0  0  0  0  0
   24.4174   -9.5800  -16.3338 C   0  0  1  0  0  0  0  0  0  0  0  0
   25.9184   -9.4157  -16.3242 C   0  0  0  0  0  0  0  0  0  0  0  0
   26.5993  -10.7246  -16.0736 C   0  0  0  0  0  0  0  0  0  0  0  0
   26.0259  -11.9420  -15.7844 C   0  0  0  0  0  0  0  0  0  0  0  0
   27.0272  -12.8492  -15.6371 N   0  0  0  0  0  0  0  0  0  0  0  0
   28.2040  -12.2407  -15.8241 C   0  0  0  0  0  0  0  0  0  0  0  0
   27.9319  -10.9447  -16.0899 N   0  0  0  0  0  0  0  0  0  0  0  0
   23.7786   -8.2241  -16.4361 C   0  0  0  0  0  0  0  0  0  0  0  0
   23.6760   -7.6662  -17.5558 O   0  0  0  0  0  0  0  0  0  0  0  0
   23.2829   -7.5404  -15.3244 N   0  0  0  0  0  0  0  0  0  0  0  0
   22.4577   -6.3035  -15.4226 C   0  0  1  0  0  0  0  0  0  0  0  0
   21.2391   -6.7110  -16.1773 C   0  0  0  0  0  0  0  0  0  0  0  0
   19.9422   -6.8121  -15.5055 C   0  0  0  0  0  0  0  0  0  0  0  0
   18.7739   -7.2362  -16.2515 C   0  0  0  0  0  0  0  0  0  0  0  0
   18.0854   -6.5332  -17.0197 O   0  0  0  0  0  0  0  0  0  0  0  0
   22.2079   -5.8266  -14.0826 C   0  0  0  0  0  0  0  0  0  0  0  0
   22.4202   -6.5035  -13.0280 O   0  0  0  0  0  0  0  0  0  0  0  0
   18.3581   -8.5768  -16.1059 O   0  0  0  0  0  0  0  0  0  0  0  0
   21.7038   -4.5534  -13.8749 O   0  0  0  0  0  0  0  0  0  0  0  0
  2  1  1  0
  2  3  2  0
  4  2  1  0
  5  4  1  0
  5  6  1  6
  7  5  1  0
  7  8  2  0
  9  7  1  0
 10 17  1  0
 10  9  1  0
 10 11  1  6
 12 11  1  0
 12 16  1  0
 13 14  1  0
 13 12  2  0
 14 15  1  0
 15 16  2  0
 17 19  1  0
 18 17  2  0
 19 20  1  0
 20 25  1  0
 20 21  1  1
 22 21  1  0
 23 22  1  0
 24 23  2  0
 25 26  2  0
 25 28  1  0
 27 23  1  0
M  END
$$$$
