NHE.pdb
     RDKit          3D

 28 28  0  0  1  0  0  0  0  0999 V2000
   18.9968  -13.5167  -17.6966 N   0  0  0  0  0  0  0  0  0  0  0  0
   19.0912  -13.3654  -16.2604 C   0  0  0  0  0  0  0  0  0  0  0  0
   18.2413  -13.9830  -15.5687 O   0  0  0  0  0  0  0  0  0  0  0  0
   20.1379  -12.5246  -15.6695 C   0  0  0  0  0  0  0  0  0  0  0  0
   21.0034  -11.8722  -16.7045 C   0  0  2  0  0  0  0  0  0  0  0  0
   21.8528  -12.9254  -17.2748 N   0  0  0  0  0  0  0  0  0  0  0  0
   21.9534  -10.8770  -16.0988 C   0  0  0  0  0  0  0  0  0  0  0  0
   22.1210  -10.8358  -14.8568 O   0  0  0  0  0  0  0  0  0  0  0  0
   22.6805   -9.9649  -16.9009 N   0  0  0  0  0  0  0  0  0  0  0  0
   23.5583   -8.9654  -16.4053 C   0  0  1  0  0  0  0  0  0  0  0  0
   24.9412   -8.9790  -17.0116 C   0  0  0  0  0  0  0  0  0  0  0  0
   25.6815  -10.2225  -16.6304 C   0  0  0  0  0  0  0  0  0  0  0  0
   25.7782  -11.4048  -17.3287 C   0  0  0  0  0  0  0  0  0  0  0  0
   26.5522  -12.2544  -16.6033 N   0  0  0  0  0  0  0  0  0  0  0  0
   26.9413  -11.6440  -15.4781 C   0  0  0  0  0  0  0  0  0  0  0  0
   26.4048  -10.4048  -15.5043 N   0  0  0  0  0  0  0  0  0  0  0  0
   23.0120   -7.5673  -16.4670 C   0  0  0  0  0  0  0  0  0  0  0  0
   22.6501   -7.0875  -17.5690 O   0  0  0  0  0  0  0  0  0  0  0  0
   22.8839   -6.7592  -15.3358 N   0  0  0  0  0  0  0  0  0  0  0  0
   22.1852   -5.4431  -15.3425 C   0  0  1  0  0  0  0  0  0  0  0  0
   20.7917   -5.7476  -15.7740 C   0  0  0  0  0  0  0  0  0  0  0  0
   19.7514   -4.7186  -15.7240 C   0  0  0  0  0  0  0  0  0  0  0  0
   18.3979   -5.0399  -16.1311 C   0  0  0  0  0  0  0  0  0  0  0  0
   17.9929   -6.1361  -16.5703 O   0  0  0  0  0  0  0  0  0  0  0  0
   22.2980   -4.8716  -14.0211 C   0  0  0  0  0  0  0  0  0  0  0  0
   22.5155   -5.5432  -12.9643 O   0  0  0  0  0  0  0  0  0  0  0  0
   17.4263   -4.0218  -16.0277 O   0  0  0  0  0  0  0  0  0  0  0  0
   22.1692   -3.5051  -13.8357 O   0  0  0  0  0  0  0  0  0  0  0  0
  2  1  1  0
  2  3  2  0
  4  2  1  0
  5  4  1  0
  5  6  1  1
  7  5  1  0
  7  8  2  0
  9  7  1  0
 10 17  1  0
 10  9  1  0
 10 11  1  6
 12 11  1  0
 12 16  1  0
 13 14  1  0
 13 12  2  0
 14 15  1  0
 15 16  2  0
 17 19  1  0
 18 17  2  0
 19 20  1  0
 20 25  1  0
 20 21  1  1
 22 21  1  0
 23 22  1  0
 24 23  2  0
 25 26  2  0
 25 28  1  0
 27 23  1  0
M  END
$$$$
