NHE.pdb
     RDKit          3D

 28 28  0  0  1  0  0  0  0  0999 V2000
   26.4943  -21.7262   -8.7426 N   0  0  0  0  0  0  0  0  0  0  0  0
   25.8046  -21.8071  -10.0123 C   0  0  0  0  0  0  0  0  0  0  0  0
   25.6171  -22.9586  -10.4826 O   0  0  0  0  0  0  0  0  0  0  0  0
   25.3589  -20.5873  -10.6944 C   0  0  0  0  0  0  0  0  0  0  0  0
   25.1135  -20.8039  -12.1569 C   0  0  2  0  0  0  0  0  0  0  0  0
   26.3671  -21.3115  -12.7285 N   0  0  0  0  0  0  0  0  0  0  0  0
   24.8384  -19.5144  -12.8791 C   0  0  0  0  0  0  0  0  0  0  0  0
   23.8847  -18.7810  -12.5252 O   0  0  0  0  0  0  0  0  0  0  0  0
   25.6366  -19.0916  -13.9689 N   0  0  0  0  0  0  0  0  0  0  0  0
   25.3461  -17.9854  -14.8100 C   0  0  1  0  0  0  0  0  0  0  0  0
   26.5277  -17.4481  -15.5813 C   0  0  0  0  0  0  0  0  0  0  0  0
   26.1553  -16.2139  -16.3415 C   0  0  0  0  0  0  0  0  0  0  0  0
   26.1089  -14.9151  -15.8880 C   0  0  0  0  0  0  0  0  0  0  0  0
   25.7209  -14.1261  -16.9244 N   0  0  0  0  0  0  0  0  0  0  0  0
   25.5239  -14.8866  -18.0074 C   0  0  0  0  0  0  0  0  0  0  0  0
   25.7917  -16.1588  -17.6412 N   0  0  0  0  0  0  0  0  0  0  0  0
   24.2027  -18.2055  -15.7593 C   0  0  0  0  0  0  0  0  0  0  0  0
   24.2044  -19.2072  -16.5156 O   0  0  0  0  0  0  0  0  0  0  0  0
   23.1159  -17.3331  -15.8428 N   0  0  0  0  0  0  0  0  0  0  0  0
   21.9628  -17.5446  -16.7626 C   0  0  1  0  0  0  0  0  0  0  0  0
   20.9867  -18.3531  -15.9789 C   0  0  0  0  0  0  0  0  0  0  0  0
   20.4145  -17.8350  -14.7348 C   0  0  0  0  0  0  0  0  0  0  0  0
   19.3675  -18.5750  -14.0586 C   0  0  0  0  0  0  0  0  0  0  0  0
   19.2932  -19.8149  -13.9346 O   0  0  0  0  0  0  0  0  0  0  0  0
   21.4796  -16.2484  -17.1773 C   0  0  0  0  0  0  0  0  0  0  0  0
   20.5771  -16.0648  -18.0530 O   0  0  0  0  0  0  0  0  0  0  0  0
   18.3173  -17.8344  -13.4756 O   0  0  0  0  0  0  0  0  0  0  0  0
   21.9998  -15.0944  -16.6150 O   0  0  0  0  0  0  0  0  0  0  0  0
  2  1  1  0
  2  3  2  0
  4  2  1  0
  5  4  1  0
  5  6  1  6
  7  5  1  0
  7  8  2  0
  9  7  1  0
 10 17  1  0
 10  9  1  0
 10 11  1  6
 12 11  1  0
 12 16  1  0
 13 14  1  0
 13 12  2  0
 14 15  1  0
 15 16  2  0
 17 19  1  0
 18 17  2  0
 19 20  1  0
 20 25  1  0
 20 21  1  1
 22 21  1  0
 23 22  1  0
 24 23  2  0
 25 26  2  0
 25 28  1  0
 27 23  1  0
M  END
$$$$
