NHE.pdb
     RDKit          3D

 28 28  0  0  1  0  0  0  0  0999 V2000
   19.2143  -33.5598  -10.9355 N   0  0  0  0  0  0  0  0  0  0  0  0
   20.1420  -34.0751  -11.9195 C   0  0  0  0  0  0  0  0  0  0  0  0
   19.6511  -34.7438  -12.8651 O   0  0  0  0  0  0  0  0  0  0  0  0
   21.5800  -33.8143  -11.7927 C   0  0  0  0  0  0  0  0  0  0  0  0
   21.9184  -33.0559  -10.5452 C   0  0  2  0  0  0  0  0  0  0  0  0
   22.0786  -31.6487  -10.9325 N   0  0  0  0  0  0  0  0  0  0  0  0
   23.2483  -33.4682   -9.9784 C   0  0  0  0  0  0  0  0  0  0  0  0
   23.3896  -34.5968   -9.4504 O   0  0  0  0  0  0  0  0  0  0  0  0
   24.3704  -32.6064  -10.0213 N   0  0  0  0  0  0  0  0  0  0  0  0
   25.6496  -32.9079   -9.4843 C   0  0  1  0  0  0  0  0  0  0  0  0
   26.8081  -32.2615  -10.2054 C   0  0  0  0  0  0  0  0  0  0  0  0
   26.9188  -32.7721  -11.6078 C   0  0  0  0  0  0  0  0  0  0  0  0
   26.2659  -33.8403  -12.1800 C   0  0  0  0  0  0  0  0  0  0  0  0
   26.6730  -33.9326  -13.4734 N   0  0  0  0  0  0  0  0  0  0  0  0
   27.5560  -32.9603  -13.7278 C   0  0  0  0  0  0  0  0  0  0  0  0
   27.6990  -32.2578  -12.5831 N   0  0  0  0  0  0  0  0  0  0  0  0
   25.7858  -32.6485   -8.0108 C   0  0  0  0  0  0  0  0  0  0  0  0
   25.3794  -31.5631   -7.5287 O   0  0  0  0  0  0  0  0  0  0  0  0
   26.3532  -33.5744   -7.1334 N   0  0  0  0  0  0  0  0  0  0  0  0
   26.4237  -33.3711   -5.6589 C   0  0  1  0  0  0  0  0  0  0  0  0
   25.0044  -33.3108   -5.2089 C   0  0  0  0  0  0  0  0  0  0  0  0
   24.6753  -33.1666   -3.7895 C   0  0  0  0  0  0  0  0  0  0  0  0
   23.2884  -33.1001   -3.3731 C   0  0  0  0  0  0  0  0  0  0  0  0
   22.8598  -33.1471   -2.2017 O   0  0  0  0  0  0  0  0  0  0  0  0
   27.1913  -34.4568   -5.0954 C   0  0  0  0  0  0  0  0  0  0  0  0
   27.4867  -35.5256   -5.7163 O   0  0  0  0  0  0  0  0  0  0  0  0
   22.3100  -32.9692   -4.3815 O   0  0  0  0  0  0  0  0  0  0  0  0
   27.6624  -34.3803   -3.7952 O   0  0  0  0  0  0  0  0  0  0  0  0
  2  1  1  0
  2  3  2  0
  4  2  1  0
  5  4  1  0
  5  6  1  6
  7  5  1  0
  7  8  2  0
  9  7  1  0
 10 17  1  0
 10  9  1  0
 10 11  1  6
 12 11  1  0
 12 16  1  0
 13 14  1  0
 13 12  2  0
 14 15  1  0
 15 16  2  0
 17 19  1  0
 18 17  2  0
 19 20  1  0
 20 25  1  0
 20 21  1  1
 22 21  1  0
 23 22  1  0
 24 23  2  0
 25 26  2  0
 25 28  1  0
 27 23  1  0
M  END
$$$$
