NHE.pdb
     RDKit          3D

 28 28  0  0  1  0  0  0  0  0999 V2000
   32.0606  -29.7201  -18.5851 N   0  0  0  0  0  0  0  0  0  0  0  0
   31.7473  -28.3517  -18.2334 C   0  0  0  0  0  0  0  0  0  0  0  0
   32.6976  -27.5280  -18.2614 O   0  0  0  0  0  0  0  0  0  0  0  0
   30.3784  -27.9742  -17.8656 C   0  0  0  0  0  0  0  0  0  0  0  0
   29.4325  -29.1361  -17.9026 C   0  0  2  0  0  0  0  0  0  0  0  0
   29.0753  -29.3498  -19.3107 N   0  0  0  0  0  0  0  0  0  0  0  0
   28.1370  -28.8306  -17.2038 C   0  0  0  0  0  0  0  0  0  0  0  0
   28.1120  -28.6609  -15.9616 O   0  0  0  0  0  0  0  0  0  0  0  0
   26.9184  -28.7261  -17.9163 N   0  0  0  0  0  0  0  0  0  0  0  0
   25.6556  -28.4435  -17.3325 C   0  0  1  0  0  0  0  0  0  0  0  0
   25.0176  -27.1554  -17.7947 C   0  0  0  0  0  0  0  0  0  0  0  0
   25.8085  -25.9706  -17.3360 C   0  0  0  0  0  0  0  0  0  0  0  0
   26.0847  -25.5778  -16.0460 C   0  0  0  0  0  0  0  0  0  0  0  0
   26.8358  -24.4467  -16.1071 N   0  0  0  0  0  0  0  0  0  0  0  0
   27.0376  -24.1206  -17.3889 C   0  0  0  0  0  0  0  0  0  0  0  0
   26.4068  -25.0568  -18.1306 N   0  0  0  0  0  0  0  0  0  0  0  0
   24.6510  -29.5546  -17.4476 C   0  0  0  0  0  0  0  0  0  0  0  0
   24.6710  -30.3118  -18.4486 O   0  0  0  0  0  0  0  0  0  0  0  0
   23.6769  -29.7916  -16.4761 N   0  0  0  0  0  0  0  0  0  0  0  0
   22.7042  -30.9182  -16.5471 C   0  0  1  0  0  0  0  0  0  0  0  0
   22.3415  -31.2054  -15.1305 C   0  0  0  0  0  0  0  0  0  0  0  0
   21.3459  -32.2287  -14.8060 C   0  0  0  0  0  0  0  0  0  0  0  0
   20.9741  -32.4618  -13.4245 C   0  0  0  0  0  0  0  0  0  0  0  0
   21.3997  -31.8468  -12.4250 O   0  0  0  0  0  0  0  0  0  0  0  0
   21.6012  -30.5029  -17.3816 C   0  0  0  0  0  0  0  0  0  0  0  0
   21.0063  -31.2573  -18.2136 O   0  0  0  0  0  0  0  0  0  0  0  0
   20.0374  -33.4847  -13.1646 O   0  0  0  0  0  0  0  0  0  0  0  0
   21.1187  -29.2066  -17.3107 O   0  0  0  0  0  0  0  0  0  0  0  0
  2  1  1  0
  2  3  2  0
  4  2  1  0
  5  4  1  0
  5  6  1  6
  7  5  1  0
  7  8  2  0
  9  7  1  0
 10 17  1  0
 10  9  1  0
 10 11  1  6
 12 11  1  0
 12 16  1  0
 13 14  1  0
 13 12  2  0
 14 15  1  0
 15 16  2  0
 17 19  1  0
 18 17  2  0
 19 20  1  0
 20 25  1  0
 20 21  1  1
 22 21  1  0
 23 22  1  0
 24 23  2  0
 25 26  2  0
 25 28  1  0
 27 23  1  0
M  END
$$$$
