NHE.pdb
     RDKit          3D

 28 28  0  0  1  0  0  0  0  0999 V2000
   29.7865  -30.6412  -23.6199 N   0  0  0  0  0  0  0  0  0  0  0  0
   28.5477  -30.6677  -22.8722 C   0  0  0  0  0  0  0  0  0  0  0  0
   27.7269  -29.7430  -23.1032 O   0  0  0  0  0  0  0  0  0  0  0  0
   28.2909  -31.7340  -21.8981 C   0  0  0  0  0  0  0  0  0  0  0  0
   27.7224  -31.2134  -20.6129 C   0  0  2  0  0  0  0  0  0  0  0  0
   28.1339  -29.8083  -20.5035 N   0  0  0  0  0  0  0  0  0  0  0  0
   28.3181  -31.8987  -19.4147 C   0  0  0  0  0  0  0  0  0  0  0  0
   29.5585  -32.0620  -19.3298 O   0  0  0  0  0  0  0  0  0  0  0  0
   27.5081  -32.3763  -18.3567 N   0  0  0  0  0  0  0  0  0  0  0  0
   27.9860  -33.0761  -17.2176 C   0  0  1  0  0  0  0  0  0  0  0  0
   28.8635  -32.2630  -16.2962 C   0  0  0  0  0  0  0  0  0  0  0  0
   30.1918  -31.9858  -16.9274 C   0  0  0  0  0  0  0  0  0  0  0  0
   30.6460  -32.3799  -18.1655 C   0  0  0  0  0  0  0  0  0  0  0  0
   31.9085  -31.9002  -18.3177 N   0  0  0  0  0  0  0  0  0  0  0  0
   32.2574  -31.2213  -17.2188 C   0  0  0  0  0  0  0  0  0  0  0  0
   31.2029  -31.2795  -16.3767 N   0  0  0  0  0  0  0  0  0  0  0  0
   26.9176  -33.7507  -16.4048 C   0  0  0  0  0  0  0  0  0  0  0  0
   25.7848  -33.2201  -16.3012 O   0  0  0  0  0  0  0  0  0  0  0  0
   27.1269  -34.9638  -15.7463 N   0  0  0  0  0  0  0  0  0  0  0  0
   26.0708  -35.6654  -14.9635 C   0  0  1  0  0  0  0  0  0  0  0  0
   25.4478  -34.6068  -14.1198 C   0  0  0  0  0  0  0  0  0  0  0  0
   24.1130  -34.0916  -14.4307 C   0  0  0  0  0  0  0  0  0  0  0  0
   23.4836  -33.1346  -13.5424 C   0  0  0  0  0  0  0  0  0  0  0  0
   23.9571  -32.6818  -12.4799 O   0  0  0  0  0  0  0  0  0  0  0  0
   25.1718  -36.3013  -15.8978 C   0  0  0  0  0  0  0  0  0  0  0  0
   25.3151  -36.2800  -17.1604 O   0  0  0  0  0  0  0  0  0  0  0  0
   22.2050  -32.6560  -13.8993 O   0  0  0  0  0  0  0  0  0  0  0  0
   24.0632  -36.9949  -15.4414 O   0  0  0  0  0  0  0  0  0  0  0  0
  2  1  1  0
  2  3  2  0
  4  2  1  0
  5  4  1  0
  5  6  1  1
  7  5  1  0
  7  8  2  0
  9  7  1  0
 10 17  1  0
 10  9  1  0
 10 11  1  1
 12 11  1  0
 12 16  1  0
 13 14  1  0
 13 12  2  0
 14 15  1  0
 15 16  2  0
 17 19  1  0
 18 17  2  0
 19 20  1  0
 20 25  1  0
 20 21  1  6
 22 21  1  0
 23 22  1  0
 24 23  2  0
 25 26  2  0
 25 28  1  0
 27 23  1  0
M  END
$$$$
