NHE.pdb
     RDKit          3D

 28 28  0  0  1  0  0  0  0  0999 V2000
   21.6979  -12.3707  -21.2346 N   0  0  0  0  0  0  0  0  0  0  0  0
   20.2943  -12.3391  -20.8839 C   0  0  0  0  0  0  0  0  0  0  0  0
   19.5135  -13.0045  -21.6118 O   0  0  0  0  0  0  0  0  0  0  0  0
   19.8345  -11.5587  -19.7300 C   0  0  0  0  0  0  0  0  0  0  0  0
   20.9416  -10.7827  -19.0834 C   0  0  2  0  0  0  0  0  0  0  0  0
   21.7921  -11.7551  -18.3854 N   0  0  0  0  0  0  0  0  0  0  0  0
   20.4314   -9.8578  -18.0137 C   0  0  0  0  0  0  0  0  0  0  0  0
   19.6361   -8.9324  -18.3028 O   0  0  0  0  0  0  0  0  0  0  0  0
   20.8274   -9.9995  -16.6621 N   0  0  0  0  0  0  0  0  0  0  0  0
   20.4168   -9.1514  -15.6002 C   0  0  1  0  0  0  0  0  0  0  0  0
   19.8350   -9.8681  -14.4053 C   0  0  0  0  0  0  0  0  0  0  0  0
   18.4532  -10.3630  -14.6976 C   0  0  0  0  0  0  0  0  0  0  0  0
   17.7224  -10.2166  -15.8549 C   0  0  0  0  0  0  0  0  0  0  0  0
   16.5224  -10.8273  -15.6694 N   0  0  0  0  0  0  0  0  0  0  0  0
   16.4793  -11.3490  -14.4381 C   0  0  0  0  0  0  0  0  0  0  0  0
   17.6621  -11.0603  -13.8535 N   0  0  0  0  0  0  0  0  0  0  0  0
   21.4683   -8.1882  -15.1273 C   0  0  0  0  0  0  0  0  0  0  0  0
   22.6339   -8.5976  -14.9049 O   0  0  0  0  0  0  0  0  0  0  0  0
   21.2077   -6.8325  -14.9194 N   0  0  0  0  0  0  0  0  0  0  0  0
   22.2650   -5.8340  -14.5947 C   0  0  1  0  0  0  0  0  0  0  0  0
   22.0014   -4.6827  -15.5034 C   0  0  0  0  0  0  0  0  0  0  0  0
   20.8290   -3.8279  -15.3068 C   0  0  0  0  0  0  0  0  0  0  0  0
   20.6252   -2.6745  -16.1608 C   0  0  0  0  0  0  0  0  0  0  0  0
   21.3315   -1.6461  -16.2041 O   0  0  0  0  0  0  0  0  0  0  0  0
   22.1712   -5.5271  -13.1867 C   0  0  0  0  0  0  0  0  0  0  0  0
   21.2607   -5.9645  -12.4154 O   0  0  0  0  0  0  0  0  0  0  0  0
   19.5206   -2.6997  -17.0385 O   0  0  0  0  0  0  0  0  0  0  0  0
   23.1104   -4.7063  -12.5847 O   0  0  0  0  0  0  0  0  0  0  0  0
  2  1  1  0
  2  3  2  0
  4  2  1  0
  5  4  1  0
  5  6  1  1
  7  5  1  0
  7  8  2  0
  9  7  1  0
 10 17  1  0
 10  9  1  0
 10 11  1  1
 12 11  1  0
 12 16  1  0
 13 14  1  0
 13 12  2  0
 14 15  1  0
 15 16  2  0
 17 19  1  0
 18 17  2  0
 19 20  1  0
 20 25  1  0
 20 21  1  6
 22 21  1  0
 23 22  1  0
 24 23  2  0
 25 26  2  0
 25 28  1  0
 27 23  1  0
M  END
$$$$
