NHE.pdb
     RDKit          3D

 28 28  0  0  1  0  0  0  0  0999 V2000
   17.4177  -12.2873  -16.0668 N   0  0  0  0  0  0  0  0  0  0  0  0
   18.4962  -12.3996  -15.1084 C   0  0  0  0  0  0  0  0  0  0  0  0
   18.4924  -13.4165  -14.3681 O   0  0  0  0  0  0  0  0  0  0  0  0
   19.5288  -11.3608  -15.0272 C   0  0  0  0  0  0  0  0  0  0  0  0
   19.3010  -10.2469  -16.0036 C   0  0  2  0  0  0  0  0  0  0  0  0
   19.8879  -10.6729  -17.2802 N   0  0  0  0  0  0  0  0  0  0  0  0
   20.0453   -8.9989  -15.6182 C   0  0  0  0  0  0  0  0  0  0  0  0
   19.7626   -8.3950  -14.5562 O   0  0  0  0  0  0  0  0  0  0  0  0
   21.0765   -8.4712  -16.4318 N   0  0  0  0  0  0  0  0  0  0  0  0
   21.8465   -7.3187  -16.1248 C   0  0  1  0  0  0  0  0  0  0  0  0
   23.3293   -7.4631  -16.3706 C   0  0  0  0  0  0  0  0  0  0  0  0
   23.8920   -8.6124  -15.5946 C   0  0  0  0  0  0  0  0  0  0  0  0
   23.2481   -9.4278  -14.6917 C   0  0  0  0  0  0  0  0  0  0  0  0
   24.1498  -10.3363  -14.2348 N   0  0  0  0  0  0  0  0  0  0  0  0
   25.3324  -10.1163  -14.8205 C   0  0  0  0  0  0  0  0  0  0  0  0
   25.1644   -9.0624  -15.6484 N   0  0  0  0  0  0  0  0  0  0  0  0
   21.3647   -6.0534  -16.7758 C   0  0  0  0  0  0  0  0  0  0  0  0
   20.9537   -6.0798  -17.9615 O   0  0  0  0  0  0  0  0  0  0  0  0
   21.3508   -4.8247  -16.1131 N   0  0  0  0  0  0  0  0  0  0  0  0
   20.7903   -3.5783  -16.7072 C   0  0  1  0  0  0  0  0  0  0  0  0
   20.3192   -2.7741  -15.5445 C   0  0  0  0  0  0  0  0  0  0  0  0
   19.7560   -1.4367  -15.7391 C   0  0  0  0  0  0  0  0  0  0  0  0
   19.3018   -0.6711  -14.5951 C   0  0  0  0  0  0  0  0  0  0  0  0
   18.2427   -0.8430  -13.9572 O   0  0  0  0  0  0  0  0  0  0  0  0
   21.8277   -2.9538  -17.4941 C   0  0  0  0  0  0  0  0  0  0  0  0
   23.0608   -2.9538  -17.1866 O   0  0  0  0  0  0  0  0  0  0  0  0
   20.1285    0.3796  -14.1434 O   0  0  0  0  0  0  0  0  0  0  0  0
   21.5135   -2.2972  -18.6725 O   0  0  0  0  0  0  0  0  0  0  0  0
  2  1  1  0
  2  3  2  0
  4  2  1  0
  5  4  1  0
  5  6  1  6
  7  5  1  0
  7  8  2  0
  9  7  1  0
 10 17  1  0
 10  9  1  0
 10 11  1  6
 12 11  1  0
 12 16  1  0
 13 14  1  0
 13 12  2  0
 14 15  1  0
 15 16  2  0
 17 19  1  0
 18 17  2  0
 19 20  1  0
 20 25  1  0
 20 21  1  1
 22 21  1  0
 23 22  1  0
 24 23  2  0
 25 26  2  0
 25 28  1  0
 27 23  1  0
M  END
$$$$
