RID.pdb
     RDKit          3D

 28 27  0  0  1  0  0  0  0  0999 V2000
    7.4663  -12.9037   16.9126 N   0  0  0  0  0  0  0  0  0  0  0  0
    7.3611  -14.1415   16.2064 C   0  0  0  0  0  0  0  0  0  0  0  0
    7.6514  -14.2065   14.9488 N   0  0  0  0  0  0  0  0  0  0  0  0
    6.9433  -15.3511   16.8201 N   0  0  0  0  0  0  0  0  0  0  0  0
    6.8667  -15.4712   18.2620 C   0  0  0  0  0  0  0  0  0  0  0  0
    8.2087  -15.5215   18.9281 C   0  0  0  0  0  0  0  0  0  0  0  0
    8.1298  -15.6038   20.4297 C   0  0  0  0  0  0  0  0  0  0  0  0
    8.0276  -14.2403   21.0711 C   0  0  2  0  0  0  0  0  0  0  0  0
    8.4195  -13.1529   20.2452 N   0  0  0  0  0  0  0  0  0  0  0  0
    8.5090  -14.2111   22.4647 C   0  0  0  0  0  0  0  0  0  0  0  0
    9.7315  -14.1155   22.6607 O   0  0  0  0  0  0  0  0  0  0  0  0
    7.6169  -15.1259   14.4790 C   0  0  0  0  0  0  0  0  0  0  0  0
    6.0554  -11.3685   26.2048 C   0  0  0  0  0  0  0  0  0  0  0  0
    7.1136  -12.0163   25.3065 C   0  0  2  0  0  0  0  0  0  0  0  0
    7.3584  -13.4003   25.7876 C   0  0  0  0  0  0  0  0  0  0  0  0
    7.6405  -13.4682   27.2816 C   0  0  2  0  0  0  0  0  0  0  0  0
    8.2090  -14.2794   24.9813 N   0  0  0  0  0  0  0  0  0  0  0  0
    7.6393  -14.2921   23.6145 C   0  0  0  0  0  0  0  0  0  0  0  0
    8.6129  -15.5971   25.4020 O   0  0  0  0  0  0  0  0  0  0  0  0
    7.7142  -16.5189   25.3933 N   0  0  0  0  0  0  0  0  0  0  0  0
    9.8808  -16.0392   25.8254 C   0  0  1  0  0  0  0  0  0  0  0  0
   10.1643  -17.4140   26.1868 C   0  0  0  0  0  0  0  0  0  0  0  0
   11.3918  -17.9218   25.4510 C   0  0  0  0  0  0  0  0  0  0  0  0
   11.6798  -19.2861   25.9428 O   0  0  0  0  0  0  0  0  0  0  0  0
   10.7779  -20.1026   26.2614 C   0  0  0  0  0  0  0  0  0  0  0  0
   10.2942  -17.6220   27.6360 O   0  0  0  0  0  0  0  0  0  0  0  0
   10.5232  -16.6683   28.4399 O   0  0  0  0  0  0  0  0  0  0  0  0
   13.0044  -19.6732   26.0532 O   0  0  0  0  0  0  0  0  0  0  0  0
  2  1  1  0
  3  2  2  0
  4  2  1  0
  5  4  1  0
  6  5  1  0
  7  6  1  0
  8 10  1  0
  8  7  1  0
  8  9  1  6
 10 11  2  0
 13 14  1  0
 13 12  1  0
 14 16  1  0
 14 15  1  6
 16 17  1  6
 17 10  1  0
 18 16  1  0
 19 18  2  0
 20 18  1  0
 21 22  1  1
 21 20  1  0
 23 24  2  0
 23 22  1  0
 25 28  1  0
 25 21  1  0
 26 25  2  0
 27 23  1  0
M  END
$$$$
