RID.pdb
     RDKit          3D

 28 27  0  0  1  0  0  0  0  0999 V2000
    9.5581  -14.3993   17.8517 N   0  0  0  0  0  0  0  0  0  0  0  0
    8.4802  -13.7280   17.1963 C   0  0  0  0  0  0  0  0  0  0  0  0
    8.5860  -13.3680   15.9597 N   0  0  0  0  0  0  0  0  0  0  0  0
    7.2531  -13.4201   17.8396 N   0  0  0  0  0  0  0  0  0  0  0  0
    7.0348  -13.7516   19.2331 C   0  0  0  0  0  0  0  0  0  0  0  0
    7.1424  -15.2188   19.5207 C   0  0  0  0  0  0  0  0  0  0  0  0
    7.8614  -15.5263   20.8077 C   0  0  0  0  0  0  0  0  0  0  0  0
    6.9350  -15.4955   22.0000 C   0  0  2  0  0  0  0  0  0  0  0  0
    5.6051  -15.0806   21.7217 N   0  0  0  0  0  0  0  0  0  0  0  0
    7.5578  -14.9298   23.2111 C   0  0  0  0  0  0  0  0  0  0  0  0
    7.4679  -13.7057   23.3992 O   0  0  0  0  0  0  0  0  0  0  0  0
    7.7882  -12.8865   15.5136 C   0  0  0  0  0  0  0  0  0  0  0  0
    6.0377  -12.4654   25.8110 C   0  0  0  0  0  0  0  0  0  0  0  0
    7.1546  -13.1885   25.0521 C   0  0  2  0  0  0  0  0  0  0  0  0
    7.7375  -14.2242   25.9434 C   0  0  0  0  0  0  0  0  0  0  0  0
    7.9971  -13.7155   27.3540 C   0  0  2  0  0  0  0  0  0  0  0  0
    8.8018  -15.0813   25.4151 N   0  0  0  0  0  0  0  0  0  0  0  0
    8.2704  -15.7184   24.1884 C   0  0  0  0  0  0  0  0  0  0  0  0
    9.5420  -16.0169   26.2231 O   0  0  0  0  0  0  0  0  0  0  0  0
    8.9994  -17.1638   26.4415 N   0  0  0  0  0  0  0  0  0  0  0  0
   10.8081  -15.8610   26.8191 C   0  0  2  0  0  0  0  0  0  0  0  0
   11.5906  -16.9704   27.3267 C   0  0  0  0  0  0  0  0  0  0  0  0
   10.7116  -17.9429   28.0934 C   0  0  0  0  0  0  0  0  0  0  0  0
   10.5982  -17.4490   29.4824 O   0  0  0  0  0  0  0  0  0  0  0  0
   11.0616  -16.3403   29.8538 C   0  0  0  0  0  0  0  0  0  0  0  0
   12.3629  -17.6646   26.2865 O   0  0  0  0  0  0  0  0  0  0  0  0
   12.0000  -17.6832   25.0716 O   0  0  0  0  0  0  0  0  0  0  0  0
    9.9504  -18.2491   30.4080 O   0  0  0  0  0  0  0  0  0  0  0  0
  2  1  1  0
  3  2  2  0
  4  2  1  0
  5  4  1  0
  6  5  1  0
  7  6  1  0
  8 10  1  0
  8  7  1  0
  8  9  1  6
 10 11  2  0
 13 14  1  0
 13 12  1  0
 14 16  1  0
 14 15  1  1
 16 17  1  6
 17 10  1  0
 18 16  1  0
 19 18  2  0
 20 18  1  0
 21 22  1  1
 21 20  1  0
 23 24  2  0
 23 22  1  0
 25 28  1  0
 25 21  1  0
 26 25  2  0
 27 23  1  0
M  END
$$$$
