RID.pdb
     RDKit          3D

 28 27  0  0  1  0  0  0  0  0999 V2000
    7.4118  -12.9383   16.7720 N   0  0  0  0  0  0  0  0  0  0  0  0
    7.6080  -14.1685   16.0719 C   0  0  0  0  0  0  0  0  0  0  0  0
    7.4095  -14.2370   14.7967 N   0  0  0  0  0  0  0  0  0  0  0  0
    8.0237  -15.3660   16.7103 N   0  0  0  0  0  0  0  0  0  0  0  0
    8.5113  -15.3565   18.0746 C   0  0  0  0  0  0  0  0  0  0  0  0
    7.4169  -15.3737   19.0989 C   0  0  0  0  0  0  0  0  0  0  0  0
    7.9231  -15.4352   20.5159 C   0  0  0  0  0  0  0  0  0  0  0  0
    7.9926  -14.0693   21.1565 C   0  0  2  0  0  0  0  0  0  0  0  0
    8.5036  -13.0370   20.3251 N   0  0  0  0  0  0  0  0  0  0  0  0
    8.4889  -14.0982   22.5448 C   0  0  0  0  0  0  0  0  0  0  0  0
    9.7162  -14.0572   22.7296 O   0  0  0  0  0  0  0  0  0  0  0  0
    7.6080  -15.1271   14.3113 C   0  0  0  0  0  0  0  0  0  0  0  0
    5.9962  -11.3709   26.3530 C   0  0  0  0  0  0  0  0  0  0  0  0
    7.0959  -11.9603   25.4644 C   0  0  2  0  0  0  0  0  0  0  0  0
    7.3620  -13.3541   25.9040 C   0  0  0  0  0  0  0  0  0  0  0  0
    7.6645  -13.4598   27.3917 C   0  0  2  0  0  0  0  0  0  0  0  0
    8.2113  -14.2013   25.0629 N   0  0  0  0  0  0  0  0  0  0  0  0
    7.6284  -14.1763   23.7017 C   0  0  0  0  0  0  0  0  0  0  0  0
    8.6292  -15.5280   25.4387 O   0  0  0  0  0  0  0  0  0  0  0  0
    7.7276  -16.4468   25.4539 N   0  0  0  0  0  0  0  0  0  0  0  0
    9.9137  -15.9821   25.7942 C   0  0  2  0  0  0  0  0  0  0  0  0
   10.2230  -17.3750   26.0492 C   0  0  0  0  0  0  0  0  0  0  0  0
   11.4911  -17.7865   25.3220 C   0  0  0  0  0  0  0  0  0  0  0  0
   11.7553  -19.2051   25.6445 O   0  0  0  0  0  0  0  0  0  0  0  0
   11.8018  -19.6411   26.8232 C   0  0  0  0  0  0  0  0  0  0  0  0
   10.3049  -17.7028   27.4795 O   0  0  0  0  0  0  0  0  0  0  0  0
   10.2175  -18.8930   27.9084 O   0  0  0  0  0  0  0  0  0  0  0  0
   11.9583  -20.0852   24.5954 O   0  0  0  0  0  0  0  0  0  0  0  0
  2  1  1  0
  3  2  2  0
  4  2  1  0
  5  4  1  0
  6  5  1  0
  7  6  1  0
  8 10  1  0
  8  7  1  0
  8  9  1  6
 10 11  2  0
 13 14  1  0
 13 12  1  0
 14 16  1  0
 14 15  1  6
 16 17  1  6
 17 10  1  0
 18 16  1  0
 19 18  2  0
 20 18  1  0
 21 22  1  1
 21 20  1  0
 23 24  2  0
 23 22  1  0
 25 28  1  0
 25 21  1  0
 26 25  2  0
 27 23  1  0
M  END
$$$$
