RID.pdb
     RDKit          3D

 28 27  0  0  1  0  0  0  0  0999 V2000
    9.1526  -13.5637   15.9894 N   0  0  0  0  0  0  0  0  0  0  0  0
    7.9534  -14.3405   15.9620 C   0  0  0  0  0  0  0  0  0  0  0  0
    7.6039  -14.9709   14.8894 N   0  0  0  0  0  0  0  0  0  0  0  0
    7.0885  -14.4707   17.0797 N   0  0  0  0  0  0  0  0  0  0  0  0
    7.6150  -14.5725   18.4257 C   0  0  0  0  0  0  0  0  0  0  0  0
    8.2041  -13.2911   18.9338 C   0  0  0  0  0  0  0  0  0  0  0  0
    8.1306  -13.1499   20.4313 C   0  0  0  0  0  0  0  0  0  0  0  0
    8.2765  -14.4770   21.1372 C   0  0  2  0  0  0  0  0  0  0  0  0
    7.2131  -15.3947   20.9250 N   0  0  0  0  0  0  0  0  0  0  0  0
    8.7680  -14.3528   22.5220 C   0  0  0  0  0  0  0  0  0  0  0  0
    9.8987  -13.8719   22.7018 O   0  0  0  0  0  0  0  0  0  0  0  0
    6.7712  -15.5814   14.9223 C   0  0  0  0  0  0  0  0  0  0  0  0
    5.7709  -12.1744   26.1172 C   0  0  0  0  0  0  0  0  0  0  0  0
    6.9216  -12.6300   25.2146 C   0  0  2  0  0  0  0  0  0  0  0  0
    7.5351  -13.8454   25.8088 C   0  0  0  0  0  0  0  0  0  0  0  0
    7.8728  -13.6796   27.2834 C   0  0  2  0  0  0  0  0  0  0  0  0
    8.5597  -14.5571   25.0406 N   0  0  0  0  0  0  0  0  0  0  0  0
    8.0105  -14.7632   23.6808 C   0  0  0  0  0  0  0  0  0  0  0  0
    9.2408  -15.7316   25.5233 O   0  0  0  0  0  0  0  0  0  0  0  0
    9.6579  -15.7111   26.7411 N   0  0  0  0  0  0  0  0  0  0  0  0
    9.5185  -16.9334   24.8443 C   0  0  1  0  0  0  0  0  0  0  0  0
   10.2527  -18.0323   25.4396 C   0  0  0  0  0  0  0  0  0  0  0  0
   10.8168  -18.9467   24.3664 C   0  0  0  0  0  0  0  0  0  0  0  0
    9.7046  -19.3303   23.4710 O   0  0  0  0  0  0  0  0  0  0  0  0
    8.5115  -18.9910   23.6786 C   0  0  0  0  0  0  0  0  0  0  0  0
   11.3053  -17.5964   26.3682 O   0  0  0  0  0  0  0  0  0  0  0  0
   12.0343  -16.5842   26.1397 O   0  0  0  0  0  0  0  0  0  0  0  0
    9.9998  -20.0962   22.3561 O   0  0  0  0  0  0  0  0  0  0  0  0
  2  1  1  0
  3  2  2  0
  4  2  1  0
  5  4  1  0
  6  5  1  0
  7  6  1  0
  8 10  1  0
  8  7  1  0
  8  9  1  1
 10 11  2  0
 13 14  1  0
 13 12  1  0
 14 16  1  0
 14 15  1  6
 16 17  1  6
 17 10  1  0
 18 16  1  0
 19 18  2  0
 20 18  1  0
 21 22  1  1
 21 20  1  0
 23 24  2  0
 23 22  1  0
 25 28  1  0
 25 21  1  0
 26 25  2  0
 27 23  1  0
M  END
$$$$
