RID.pdb
     RDKit          3D

 28 27  0  0  1  0  0  0  0  0999 V2000
    6.7618  -14.6030   17.0992 N   0  0  0  0  0  0  0  0  0  0  0  0
    7.7255  -13.5478   17.0932 C   0  0  0  0  0  0  0  0  0  0  0  0
    8.1659  -13.0674   15.9773 N   0  0  0  0  0  0  0  0  0  0  0  0
    8.2498  -12.9701   18.2788 N   0  0  0  0  0  0  0  0  0  0  0  0
    7.9987  -13.5651   19.5758 C   0  0  0  0  0  0  0  0  0  0  0  0
    6.5689  -13.9659   19.7810 C   0  0  0  0  0  0  0  0  0  0  0  0
    6.3012  -14.5569   21.1400 C   0  0  0  0  0  0  0  0  0  0  0  0
    7.3917  -15.5075   21.5735 C   0  0  2  0  0  0  0  0  0  0  0  0
    7.0444  -16.8844   21.5340 N   0  0  0  0  0  0  0  0  0  0  0  0
    8.1257  -15.0511   22.7683 C   0  0  0  0  0  0  0  0  0  0  0  0
    9.1245  -14.3319   22.6036 O   0  0  0  0  0  0  0  0  0  0  0  0
    8.8739  -12.3157   16.0064 C   0  0  0  0  0  0  0  0  0  0  0  0
    6.2805  -12.1653   26.3030 C   0  0  0  0  0  0  0  0  0  0  0  0
    7.2237  -12.8810   25.3312 C   0  0  2  0  0  0  0  0  0  0  0  0
    7.8567  -14.0219   26.0414 C   0  0  0  0  0  0  0  0  0  0  0  0
    8.5397  -13.6092   27.3373 C   0  0  2  0  0  0  0  0  0  0  0  0
    8.6134  -15.0001   25.2559 N   0  0  0  0  0  0  0  0  0  0  0  0
    7.7511  -15.3970   24.1193 C   0  0  0  0  0  0  0  0  0  0  0  0
    9.2854  -16.1350   25.8361 O   0  0  0  0  0  0  0  0  0  0  0  0
    8.5495  -17.1101   26.2423 N   0  0  0  0  0  0  0  0  0  0  0  0
   10.6652  -16.3441   26.0227 C   0  0  1  0  0  0  0  0  0  0  0  0
   11.2101  -17.5088   26.6918 C   0  0  0  0  0  0  0  0  0  0  0  0
   12.6424  -17.7599   26.2542 C   0  0  0  0  0  0  0  0  0  0  0  0
   12.6514  -17.8641   24.7794 O   0  0  0  0  0  0  0  0  0  0  0  0
   11.8289  -18.5674   24.1386 C   0  0  0  0  0  0  0  0  0  0  0  0
   11.1100  -17.4410   28.1566 O   0  0  0  0  0  0  0  0  0  0  0  0
   10.7777  -16.3791   28.7650 O   0  0  0  0  0  0  0  0  0  0  0  0
   13.6111  -17.1512   24.0813 O   0  0  0  0  0  0  0  0  0  0  0  0
  2  1  1  0
  3  2  2  0
  4  2  1  0
  5  4  1  0
  6  5  1  0
  7  6  1  0
  8 10  1  0
  8  7  1  0
  8  9  1  1
 10 11  2  0
 13 14  1  0
 13 12  1  0
 14 16  1  0
 14 15  1  1
 16 17  1  6
 17 10  1  0
 18 16  1  0
 19 18  2  0
 20 18  1  0
 21 22  1  1
 21 20  1  0
 23 24  2  0
 23 22  1  0
 25 28  1  0
 25 21  1  0
 26 25  2  0
 27 23  1  0
M  END
$$$$
