RID.pdb
     RDKit          3D

 28 27  0  0  1  0  0  0  0  0999 V2000
    7.4624  -15.3222   15.5179 N   0  0  0  0  0  0  0  0  0  0  0  0
    7.5426  -14.3279   16.5411 C   0  0  0  0  0  0  0  0  0  0  0  0
    8.1617  -13.2140   16.3270 N   0  0  0  0  0  0  0  0  0  0  0  0
    6.9633  -14.4901   17.8266 N   0  0  0  0  0  0  0  0  0  0  0  0
    7.7287  -15.0359   18.9291 C   0  0  0  0  0  0  0  0  0  0  0  0
    8.7361  -14.0768   19.4880 C   0  0  0  0  0  0  0  0  0  0  0  0
    8.5030  -13.7396   20.9371 C   0  0  0  0  0  0  0  0  0  0  0  0
    8.3540  -14.9748   21.7933 C   0  0  2  0  0  0  0  0  0  0  0  0
    7.1109  -15.6509   21.6679 N   0  0  0  0  0  0  0  0  0  0  0  0
    8.8711  -14.8033   23.1637 C   0  0  0  0  0  0  0  0  0  0  0  0
   10.0492  -14.4368   23.3041 O   0  0  0  0  0  0  0  0  0  0  0  0
    8.2755  -12.5515   17.1115 C   0  0  0  0  0  0  0  0  0  0  0  0
    5.8024  -12.2050   26.1694 C   0  0  0  0  0  0  0  0  0  0  0  0
    7.0747  -12.7053   25.4785 C   0  0  2  0  0  0  0  0  0  0  0  0
    7.6718  -13.7814   26.3105 C   0  0  0  0  0  0  0  0  0  0  0  0
    8.0887  -13.3008   27.6930 C   0  0  2  0  0  0  0  0  0  0  0  0
    8.6298  -14.6968   25.6853 N   0  0  0  0  0  0  0  0  0  0  0  0
    8.0860  -15.0420   24.3518 C   0  0  0  0  0  0  0  0  0  0  0  0
    9.1760  -15.8512   26.3526 O   0  0  0  0  0  0  0  0  0  0  0  0
    9.6640  -15.6739   27.5307 N   0  0  0  0  0  0  0  0  0  0  0  0
    9.2504  -17.1816   25.8977 C   0  0  2  0  0  0  0  0  0  0  0  0
    9.7802  -18.2678   26.6979 C   0  0  0  0  0  0  0  0  0  0  0  0
    9.4875  -19.6083   26.0472 C   0  0  0  0  0  0  0  0  0  0  0  0
    9.9736  -19.5477   24.6521 O   0  0  0  0  0  0  0  0  0  0  0  0
   10.7002  -18.6160   24.2211 C   0  0  0  0  0  0  0  0  0  0  0  0
   11.2124  -18.1280   26.9972 O   0  0  0  0  0  0  0  0  0  0  0  0
   11.9557  -17.3032   26.3845 O   0  0  0  0  0  0  0  0  0  0  0  0
    9.6081  -20.5669   23.7896 O   0  0  0  0  0  0  0  0  0  0  0  0
  2  1  1  0
  3  2  2  0
  4  2  1  0
  5  4  1  0
  6  5  1  0
  7  6  1  0
  8 10  1  0
  8  7  1  0
  8  9  1  1
 10 11  2  0
 13 14  1  0
 13 12  1  0
 14 16  1  0
 14 15  1  6
 16 17  1  6
 17 10  1  0
 18 16  1  0
 19 18  2  0
 20 18  1  0
 21 22  1  6
 21 20  1  0
 23 24  2  0
 23 22  1  0
 25 28  1  0
 25 21  1  0
 26 25  2  0
 27 23  1  0
M  END
$$$$
