RID.pdb
     RDKit          3D

 28 27  0  0  1  0  0  0  0  0999 V2000
    8.9523  -14.8632   15.4615 N   0  0  0  0  0  0  0  0  0  0  0  0
    8.4065  -13.6389   15.9567 C   0  0  0  0  0  0  0  0  0  0  0  0
    7.8939  -12.7731   15.1457 N   0  0  0  0  0  0  0  0  0  0  0  0
    8.3891  -13.2992   17.3347 N   0  0  0  0  0  0  0  0  0  0  0  0
    8.3467  -14.3243   18.3577 C   0  0  0  0  0  0  0  0  0  0  0  0
    7.1287  -14.2477   19.2282 C   0  0  0  0  0  0  0  0  0  0  0  0
    7.4356  -13.8892   20.6583 C   0  0  0  0  0  0  0  0  0  0  0  0
    8.0241  -15.0506   21.4237 C   0  0  2  0  0  0  0  0  0  0  0  0
    7.4194  -16.3107   21.1696 N   0  0  0  0  0  0  0  0  0  0  0  0
    8.3132  -14.7354   22.8350 C   0  0  0  0  0  0  0  0  0  0  0  0
    8.5349  -13.5517   23.1378 O   0  0  0  0  0  0  0  0  0  0  0  0
    7.5173  -11.8929   15.5337 C   0  0  0  0  0  0  0  0  0  0  0  0
    6.7968  -11.8991   25.2533 C   0  0  0  0  0  0  0  0  0  0  0  0
    7.8226  -12.9311   24.7748 C   0  0  2  0  0  0  0  0  0  0  0  0
    7.6048  -14.1956   25.5234 C   0  0  0  0  0  0  0  0  0  0  0  0
    7.2633  -13.9668   26.9886 C   0  0  2  0  0  0  0  0  0  0  0  0
    8.5283  -15.3099   25.2951 N   0  0  0  0  0  0  0  0  0  0  0  0
    8.3577  -15.7264   23.8843 C   0  0  0  0  0  0  0  0  0  0  0  0
    8.6355  -16.4450   26.1761 O   0  0  0  0  0  0  0  0  0  0  0  0
    7.9197  -17.4776   25.8953 N   0  0  0  0  0  0  0  0  0  0  0  0
    9.4344  -16.5990   27.3253 C   0  0  1  0  0  0  0  0  0  0  0  0
   10.3867  -17.6787   27.4936 C   0  0  0  0  0  0  0  0  0  0  0  0
   11.5092  -17.5696   26.4766 C   0  0  0  0  0  0  0  0  0  0  0  0
   11.2621  -18.5767   25.4228 O   0  0  0  0  0  0  0  0  0  0  0  0
   10.2584  -19.3346   25.4232 C   0  0  0  0  0  0  0  0  0  0  0  0
   10.9201  -17.7794   28.8594 O   0  0  0  0  0  0  0  0  0  0  0  0
   11.0162  -16.7735   29.6256 O   0  0  0  0  0  0  0  0  0  0  0  0
   12.1816  -18.6822   24.3933 O   0  0  0  0  0  0  0  0  0  0  0  0
  2  1  1  0
  3  2  2  0
  4  2  1  0
  5  4  1  0
  6  5  1  0
  7  6  1  0
  8 10  1  0
  8  7  1  0
  8  9  1  1
 10 11  2  0
 13 14  1  0
 13 12  1  0
 14 16  1  0
 14 15  1  6
 16 17  1  1
 17 10  1  0
 18 16  1  0
 19 18  2  0
 20 18  1  0
 21 22  1  1
 21 20  1  0
 23 24  2  0
 23 22  1  0
 25 28  1  0
 25 21  1  0
 26 25  2  0
 27 23  1  0
M  END
$$$$
