RID.pdb
     RDKit          3D

 28 27  0  0  1  0  0  0  0  0999 V2000
    9.3422  -14.1085   17.3735 N   0  0  0  0  0  0  0  0  0  0  0  0
    8.3832  -13.1501   17.8251 C   0  0  0  0  0  0  0  0  0  0  0  0
    8.5907  -11.8854   17.6592 N   0  0  0  0  0  0  0  0  0  0  0  0
    7.1702  -13.5108   18.4677 N   0  0  0  0  0  0  0  0  0  0  0  0
    6.8672  -14.8946   18.7720 C   0  0  0  0  0  0  0  0  0  0  0  0
    7.7561  -15.4815   19.8267 C   0  0  0  0  0  0  0  0  0  0  0  0
    7.3509  -15.1078   21.2282 C   0  0  0  0  0  0  0  0  0  0  0  0
    7.6673  -16.1988   22.2234 C   0  0  2  0  0  0  0  0  0  0  0  0
    6.6165  -17.1251   22.4595 N   0  0  0  0  0  0  0  0  0  0  0  0
    8.3930  -15.7144   23.4123 C   0  0  0  0  0  0  0  0  0  0  0  0
    9.5630  -15.3247   23.2666 O   0  0  0  0  0  0  0  0  0  0  0  0
    7.9027  -11.2160   18.0409 C   0  0  0  0  0  0  0  0  0  0  0  0
    6.1862  -12.2533   26.3978 C   0  0  0  0  0  0  0  0  0  0  0  0
    7.1828  -13.0775   25.5770 C   0  0  2  0  0  0  0  0  0  0  0  0
    7.8304  -14.0672   26.4759 C   0  0  0  0  0  0  0  0  0  0  0  0
    8.4919  -13.4255   27.6870 C   0  0  2  0  0  0  0  0  0  0  0  0
    8.6138  -15.1491   25.8740 N   0  0  0  0  0  0  0  0  0  0  0  0
    7.8212  -15.6719   24.7376 C   0  0  0  0  0  0  0  0  0  0  0  0
    9.2157  -16.2127   26.6373 O   0  0  0  0  0  0  0  0  0  0  0  0
    8.4229  -17.0736   27.1738 N   0  0  0  0  0  0  0  0  0  0  0  0
   10.5796  -16.4608   26.8838 C   0  0  1  0  0  0  0  0  0  0  0  0
   11.0548  -17.5790   27.6742 C   0  0  0  0  0  0  0  0  0  0  0  0
   12.3879  -18.0818   27.1484 C   0  0  0  0  0  0  0  0  0  0  0  0
   12.2286  -18.3547   25.7041 O   0  0  0  0  0  0  0  0  0  0  0  0
   12.7779  -17.6587   24.8121 C   0  0  0  0  0  0  0  0  0  0  0  0
   11.1312  -17.2869   29.1126 O   0  0  0  0  0  0  0  0  0  0  0  0
   11.0206  -16.1101   29.5722 O   0  0  0  0  0  0  0  0  0  0  0  0
   11.4385  -19.4270   25.3265 O   0  0  0  0  0  0  0  0  0  0  0  0
  2  1  1  0
  3  2  2  0
  4  2  1  0
  5  4  1  0
  6  5  1  0
  7  6  1  0
  8 10  1  0
  8  7  1  0
  8  9  1  1
 10 11  2  0
 13 14  1  0
 13 12  1  0
 14 16  1  0
 14 15  1  1
 16 17  1  6
 17 10  1  0
 18 16  1  0
 19 18  2  0
 20 18  1  0
 21 22  1  1
 21 20  1  0
 23 24  2  0
 23 22  1  0
 25 28  1  0
 25 21  1  0
 26 25  2  0
 27 23  1  0
M  END
$$$$
