RID.pdb
     RDKit          3D

 28 27  0  0  1  0  0  0  0  0999 V2000
    7.0670  -20.5705   18.9029 N   0  0  0  0  0  0  0  0  0  0  0  0
    7.5656  -19.5909   17.9898 C   0  0  0  0  0  0  0  0  0  0  0  0
    7.5125  -19.7948   16.7148 N   0  0  0  0  0  0  0  0  0  0  0  0
    8.1363  -18.3606   18.4081 N   0  0  0  0  0  0  0  0  0  0  0  0
    7.8955  -17.8375   19.7376 C   0  0  0  0  0  0  0  0  0  0  0  0
    6.7194  -16.9108   19.8096 C   0  0  0  0  0  0  0  0  0  0  0  0
    6.4255  -16.4224   21.2035 C   0  0  0  0  0  0  0  0  0  0  0  0
    6.6782  -14.9411   21.3540 C   0  0  2  0  0  0  0  0  0  0  0  0
    6.9448  -14.2472   20.1434 N   0  0  0  0  0  0  0  0  0  0  0  0
    7.5400  -14.6079   22.5034 C   0  0  0  0  0  0  0  0  0  0  0  0
    8.7057  -14.2450   22.2763 O   0  0  0  0  0  0  0  0  0  0  0  0
    7.8710  -19.0625   16.0804 C   0  0  0  0  0  0  0  0  0  0  0  0
    5.9844  -11.3712   26.1655 C   0  0  0  0  0  0  0  0  0  0  0  0
    6.8685  -12.1170   25.1612 C   0  0  2  0  0  0  0  0  0  0  0  0
    7.3861  -13.3485   25.8110 C   0  0  0  0  0  0  0  0  0  0  0  0
    8.1032  -13.0702   27.1242 C   0  0  2  0  0  0  0  0  0  0  0  0
    8.0457  -14.3546   24.9749 N   0  0  0  0  0  0  0  0  0  0  0  0
    7.1063  -14.6841   23.8785 C   0  0  0  0  0  0  0  0  0  0  0  0
    8.6805  -15.5346   25.5048 O   0  0  0  0  0  0  0  0  0  0  0  0
    7.9153  -16.5142   25.8399 N   0  0  0  0  0  0  0  0  0  0  0  0
   10.0510  -15.7844   25.7089 C   0  0  1  0  0  0  0  0  0  0  0  0
   10.5651  -17.0471   26.2010 C   0  0  0  0  0  0  0  0  0  0  0  0
   12.0323  -17.2071   25.8433 C   0  0  0  0  0  0  0  0  0  0  0  0
   12.1570  -17.0622   24.3772 O   0  0  0  0  0  0  0  0  0  0  0  0
   11.2315  -17.3601   23.5794 C   0  0  0  0  0  0  0  0  0  0  0  0
   10.3486  -17.2444   27.6413 O   0  0  0  0  0  0  0  0  0  0  0  0
    9.9054  -16.3238   28.3926 O   0  0  0  0  0  0  0  0  0  0  0  0
   13.3493  -16.5751   23.8693 O   0  0  0  0  0  0  0  0  0  0  0  0
  2  1  1  0
  3  2  2  0
  4  2  1  0
  5  4  1  0
  6  5  1  0
  7  6  1  0
  8 10  1  0
  8  7  1  0
  8  9  1  6
 10 11  2  0
 13 14  1  0
 13 12  1  0
 14 16  1  0
 14 15  1  1
 16 17  1  6
 17 10  1  0
 18 16  1  0
 19 18  2  0
 20 18  1  0
 21 22  1  1
 21 20  1  0
 23 24  2  0
 23 22  1  0
 25 28  1  0
 25 21  1  0
 26 25  2  0
 27 23  1  0
M  END
$$$$
