RID.pdb
     RDKit          3D

 28 27  0  0  1  0  0  0  0  0999 V2000
    7.9310  -12.4753   18.6974 N   0  0  0  0  0  0  0  0  0  0  0  0
    8.2108  -13.4511   17.6916 C   0  0  0  0  0  0  0  0  0  0  0  0
    8.0374  -13.1736   16.4414 N   0  0  0  0  0  0  0  0  0  0  0  0
    8.6862  -14.7552   17.9877 N   0  0  0  0  0  0  0  0  0  0  0  0
    8.1748  -15.4988   19.1212 C   0  0  0  0  0  0  0  0  0  0  0  0
    6.8220  -15.0390   19.5745 C   0  0  0  0  0  0  0  0  0  0  0  0
    6.7790  -14.6431   21.0269 C   0  0  0  0  0  0  0  0  0  0  0  0
    7.5993  -15.5678   21.8946 C   0  0  2  0  0  0  0  0  0  0  0  0
    7.0584  -16.8694   22.0711 N   0  0  0  0  0  0  0  0  0  0  0  0
    8.1387  -14.9134   23.1011 C   0  0  0  0  0  0  0  0  0  0  0  0
    8.1928  -13.6730   23.1207 O   0  0  0  0  0  0  0  0  0  0  0  0
    8.2618  -13.8957   15.7376 C   0  0  0  0  0  0  0  0  0  0  0  0
    6.2816  -12.1352   25.3669 C   0  0  0  0  0  0  0  0  0  0  0  0
    7.4682  -12.9415   24.8300 C   0  0  2  0  0  0  0  0  0  0  0  0
    7.7659  -14.0379   25.7871 C   0  0  0  0  0  0  0  0  0  0  0  0
    7.6504  -13.6042   27.2412 C   0  0  2  0  0  0  0  0  0  0  0  0
    8.9118  -14.9095   25.5157 N   0  0  0  0  0  0  0  0  0  0  0  0
    8.6119  -15.6340   24.2595 C   0  0  0  0  0  0  0  0  0  0  0  0
    9.5000  -15.7779   26.5037 O   0  0  0  0  0  0  0  0  0  0  0  0
   10.1043  -15.2189   27.4935 N   0  0  0  0  0  0  0  0  0  0  0  0
    9.5054  -17.1851   26.5520 C   0  0  1  0  0  0  0  0  0  0  0  0
   10.7196  -17.9767   26.5502 C   0  0  0  0  0  0  0  0  0  0  0  0
   10.4545  -19.3676   26.0013 C   0  0  0  0  0  0  0  0  0  0  0  0
    9.2677  -19.9084   26.6979 O   0  0  0  0  0  0  0  0  0  0  0  0
    8.9451  -19.5670   27.8645 C   0  0  0  0  0  0  0  0  0  0  0  0
   11.8351  -17.3336   25.8416 O   0  0  0  0  0  0  0  0  0  0  0  0
   11.7214  -16.8900   24.6590 O   0  0  0  0  0  0  0  0  0  0  0  0
    8.4821  -20.8303   26.0275 O   0  0  0  0  0  0  0  0  0  0  0  0
  2  1  1  0
  3  2  2  0
  4  2  1  0
  5  4  1  0
  6  5  1  0
  7  6  1  0
  8 10  1  0
  8  7  1  0
  8  9  1  1
 10 11  2  0
 13 14  1  0
 13 12  1  0
 14 16  1  0
 14 15  1  6
 16 17  1  1
 17 10  1  0
 18 16  1  0
 19 18  2  0
 20 18  1  0
 21 22  1  6
 21 20  1  0
 23 24  2  0
 23 22  1  0
 25 28  1  0
 25 21  1  0
 26 25  2  0
 27 23  1  0
M  END
$$$$
