RID.pdb
     RDKit          3D

 28 27  0  0  1  0  0  0  0  0999 V2000
   13.3295  -18.3549   13.2935 N   0  0  0  0  0  0  0  0  0  0  0  0
   12.6733  -19.6198   13.4018 C   0  0  0  0  0  0  0  0  0  0  0  0
   12.4797  -20.3507   12.3538 N   0  0  0  0  0  0  0  0  0  0  0  0
   12.2033  -20.1464   14.6331 N   0  0  0  0  0  0  0  0  0  0  0  0
   12.1774  -19.3347   15.8330 C   0  0  0  0  0  0  0  0  0  0  0  0
   11.3488  -18.0932   15.6951 C   0  0  0  0  0  0  0  0  0  0  0  0
   11.4641  -17.1616   16.8727 C   0  0  0  0  0  0  0  0  0  0  0  0
   10.4304  -17.4537   17.9343 C   0  0  2  0  0  0  0  0  0  0  0  0
    9.1341  -17.7679   17.4456 N   0  0  0  0  0  0  0  0  0  0  0  0
   10.4917  -16.5290   19.0814 C   0  0  0  0  0  0  0  0  0  0  0  0
   11.6097  -16.1933   19.5047 O   0  0  0  0  0  0  0  0  0  0  0  0
   11.9665  -21.2411   12.4585 C   0  0  0  0  0  0  0  0  0  0  0  0
    6.9083  -12.4351   19.7085 C   0  0  0  0  0  0  0  0  0  0  0  0
    8.2689  -13.1374   19.6673 C   0  0  2  0  0  0  0  0  0  0  0  0
    8.3284  -14.1176   20.7820 C   0  0  0  0  0  0  0  0  0  0  0  0
    7.9333  -13.5162   22.1230 C   0  0  2  0  0  0  0  0  0  0  0  0
    9.4759  -15.0258   20.8525 N   0  0  0  0  0  0  0  0  0  0  0  0
    9.3246  -15.9953   19.7434 C   0  0  0  0  0  0  0  0  0  0  0  0
    9.9046  -15.6701   22.0680 O   0  0  0  0  0  0  0  0  0  0  0  0
   10.2540  -14.9090   23.0458 N   0  0  0  0  0  0  0  0  0  0  0  0
    9.9933  -17.0457   22.3548 C   0  0  2  0  0  0  0  0  0  0  0  0
   10.4960  -17.5659   23.6108 C   0  0  0  0  0  0  0  0  0  0  0  0
   12.0005  -17.7625   23.5483 C   0  0  0  0  0  0  0  0  0  0  0  0
   12.2786  -18.7889   22.5211 O   0  0  0  0  0  0  0  0  0  0  0  0
   11.3722  -19.4457   21.9478 C   0  0  0  0  0  0  0  0  0  0  0  0
   10.1183  -16.7504   24.7737 O   0  0  0  0  0  0  0  0  0  0  0  0
    9.4803  -15.6604   24.6589 O   0  0  0  0  0  0  0  0  0  0  0  0
   13.5988  -19.0300   22.1811 O   0  0  0  0  0  0  0  0  0  0  0  0
  2  1  1  0
  3  2  2  0
  4  2  1  0
  5  4  1  0
  6  5  1  0
  7  6  1  0
  8 10  1  0
  8  7  1  0
  8  9  1  6
 10 11  2  0
 13 14  1  0
 13 12  1  0
 14 16  1  0
 14 15  1  6
 16 17  1  1
 17 10  1  0
 18 16  1  0
 19 18  2  0
 20 18  1  0
 21 22  1  6
 21 20  1  0
 23 24  2  0
 23 22  1  0
 25 28  1  0
 25 21  1  0
 26 25  2  0
 27 23  1  0
M  END
$$$$
