RID.pdb
     RDKit          3D

 28 27  0  0  1  0  0  0  0  0999 V2000
    8.3616  -12.5019   14.8485 N   0  0  0  0  0  0  0  0  0  0  0  0
    8.0016  -13.7282   15.4878 C   0  0  0  0  0  0  0  0  0  0  0  0
    8.2744  -14.8627   14.9325 N   0  0  0  0  0  0  0  0  0  0  0  0
    7.3393  -13.7833   16.7419 N   0  0  0  0  0  0  0  0  0  0  0  0
    8.0873  -13.8201   17.9823 C   0  0  0  0  0  0  0  0  0  0  0  0
    8.2682  -15.2043   18.5283 C   0  0  0  0  0  0  0  0  0  0  0  0
    8.8520  -15.2296   19.9163 C   0  0  0  0  0  0  0  0  0  0  0  0
    7.7853  -15.1863   20.9845 C   0  0  2  0  0  0  0  0  0  0  0  0
    6.5593  -14.5863   20.5907 N   0  0  0  0  0  0  0  0  0  0  0  0
    8.3021  -14.8091   22.3132 C   0  0  0  0  0  0  0  0  0  0  0  0
    9.4461  -14.3315   22.3832 O   0  0  0  0  0  0  0  0  0  0  0  0
    8.0309  -15.7318   15.4351 C   0  0  0  0  0  0  0  0  0  0  0  0
    7.3904  -11.5116   26.8382 C   0  0  0  0  0  0  0  0  0  0  0  0
    8.1939  -12.7766   26.5215 C   0  0  2  0  0  0  0  0  0  0  0  0
    7.5711  -13.4517   25.3539 C   0  0  0  0  0  0  0  0  0  0  0  0
    6.0538  -13.5212   25.4483 C   0  0  2  0  0  0  0  0  0  0  0  0
    8.1918  -14.6764   24.8427 N   0  0  0  0  0  0  0  0  0  0  0  0
    7.5544  -14.9682   23.5383 C   0  0  0  0  0  0  0  0  0  0  0  0
    8.3600  -15.8701   25.6320 O   0  0  0  0  0  0  0  0  0  0  0  0
    7.6172  -16.8796   25.3377 N   0  0  0  0  0  0  0  0  0  0  0  0
    9.2454  -16.1046   26.7014 C   0  0  1  0  0  0  0  0  0  0  0  0
    9.7967  -17.4100   27.0063 C   0  0  0  0  0  0  0  0  0  0  0  0
   10.4792  -18.0042   25.7869 C   0  0  0  0  0  0  0  0  0  0  0  0
   11.0652  -19.3017   26.1859 O   0  0  0  0  0  0  0  0  0  0  0  0
   10.4076  -20.3737   26.1995 C   0  0  0  0  0  0  0  0  0  0  0  0
   10.6988  -17.4064   28.1666 O   0  0  0  0  0  0  0  0  0  0  0  0
   10.6289  -18.2809   29.0824 O   0  0  0  0  0  0  0  0  0  0  0  0
   12.3982  -19.3279   26.5586 O   0  0  0  0  0  0  0  0  0  0  0  0
  2  1  1  0
  3  2  2  0
  4  2  1  0
  5  4  1  0
  6  5  1  0
  7  6  1  0
  8 10  1  0
  8  7  1  0
  8  9  1  6
 10 11  2  0
 13 14  1  0
 13 12  1  0
 14 16  1  0
 14 15  1  6
 16 17  1  1
 17 10  1  0
 18 16  1  0
 19 18  2  0
 20 18  1  0
 21 22  1  1
 21 20  1  0
 23 24  2  0
 23 22  1  0
 25 28  1  0
 25 21  1  0
 26 25  2  0
 27 23  1  0
M  END
$$$$
