RID.pdb
     RDKit          3D

 28 27  0  0  1  0  0  0  0  0999 V2000
    8.0231  -12.2735   17.8521 N   0  0  0  0  0  0  0  0  0  0  0  0
    8.4895  -13.6216   17.9367 C   0  0  0  0  0  0  0  0  0  0  0  0
    9.7296  -13.9029   17.7063 N   0  0  0  0  0  0  0  0  0  0  0  0
    7.6471  -14.7138   18.2713 N   0  0  0  0  0  0  0  0  0  0  0  0
    8.2004  -16.0086   18.6128 C   0  0  0  0  0  0  0  0  0  0  0  0
    7.7169  -16.5347   19.9306 C   0  0  0  0  0  0  0  0  0  0  0  0
    7.8944  -15.5616   21.0661 C   0  0  0  0  0  0  0  0  0  0  0  0
    7.5218  -16.1664   22.3989 C   0  0  2  0  0  0  0  0  0  0  0  0
    6.2126  -16.7132   22.4699 N   0  0  0  0  0  0  0  0  0  0  0  0
    7.9567  -15.3560   23.5517 C   0  0  0  0  0  0  0  0  0  0  0  0
    7.8460  -14.1216   23.4755 O   0  0  0  0  0  0  0  0  0  0  0  0
   10.0067  -14.8951   17.6294 C   0  0  0  0  0  0  0  0  0  0  0  0
    6.0808  -12.4826   25.5691 C   0  0  0  0  0  0  0  0  0  0  0  0
    7.2815  -13.2792   25.0494 C   0  0  2  0  0  0  0  0  0  0  0  0
    7.7889  -14.1398   26.1488 C   0  0  0  0  0  0  0  0  0  0  0  0
    7.8884  -13.4068   27.4788 C   0  0  2  0  0  0  0  0  0  0  0  0
    8.9204  -15.0290   25.8739 N   0  0  0  0  0  0  0  0  0  0  0  0
    8.5082  -15.9168   24.7627 C   0  0  0  0  0  0  0  0  0  0  0  0
    9.6284  -15.7528   26.8991 O   0  0  0  0  0  0  0  0  0  0  0  0
    8.9365  -16.1989   27.8890 N   0  0  0  0  0  0  0  0  0  0  0  0
   11.0004  -16.0591   26.9769 C   0  0  2  0  0  0  0  0  0  0  0  0
   11.5052  -17.3999   27.1969 C   0  0  0  0  0  0  0  0  0  0  0  0
   10.3619  -18.3798   27.3939 C   0  0  0  0  0  0  0  0  0  0  0  0
   10.3315  -18.7553   28.8236 O   0  0  0  0  0  0  0  0  0  0  0  0
   11.1569  -18.3145   29.6640 C   0  0  0  0  0  0  0  0  0  0  0  0
   12.4189  -17.8604   26.1418 O   0  0  0  0  0  0  0  0  0  0  0  0
   13.2883  -18.7613   26.3435 O   0  0  0  0  0  0  0  0  0  0  0  0
    9.3463  -19.6309   29.2469 O   0  0  0  0  0  0  0  0  0  0  0  0
  2  1  1  0
  3  2  2  0
  4  2  1  0
  5  4  1  0
  6  5  1  0
  7  6  1  0
  8 10  1  0
  8  7  1  0
  8  9  1  6
 10 11  2  0
 13 14  1  0
 13 12  1  0
 14 16  1  0
 14 15  1  1
 16 17  1  6
 17 10  1  0
 18 16  1  0
 19 18  2  0
 20 18  1  0
 21 22  1  1
 21 20  1  0
 23 24  2  0
 23 22  1  0
 25 28  1  0
 25 21  1  0
 26 25  2  0
 27 23  1  0
M  END
$$$$
