RID.pdb
     RDKit          3D

 28 27  0  0  1  0  0  0  0  0999 V2000
    8.6477  -13.1154   15.9717 N   0  0  0  0  0  0  0  0  0  0  0  0
    8.2597  -12.9992   17.3421 C   0  0  0  0  0  0  0  0  0  0  0  0
    9.0480  -12.4444   18.2028 N   0  0  0  0  0  0  0  0  0  0  0  0
    7.0164  -13.4707   17.8384 N   0  0  0  0  0  0  0  0  0  0  0  0
    6.7121  -13.4309   19.2544 C   0  0  0  0  0  0  0  0  0  0  0  0
    7.1153  -14.6756   19.9860 C   0  0  0  0  0  0  0  0  0  0  0  0
    6.5330  -14.7719   21.3714 C   0  0  0  0  0  0  0  0  0  0  0  0
    7.2813  -15.7573   22.2374 C   0  0  2  0  0  0  0  0  0  0  0  0
    6.6322  -17.0059   22.4317 N   0  0  0  0  0  0  0  0  0  0  0  0
    7.8905  -15.1429   23.4316 C   0  0  0  0  0  0  0  0  0  0  0  0
    7.9251  -13.9035   23.5001 O   0  0  0  0  0  0  0  0  0  0  0  0
    8.7625  -12.4242   19.1954 C   0  0  0  0  0  0  0  0  0  0  0  0
    6.5180  -12.2647   25.6570 C   0  0  0  0  0  0  0  0  0  0  0  0
    7.5873  -13.1847   25.0599 C   0  0  2  0  0  0  0  0  0  0  0  0
    7.9713  -14.1896   26.0843 C   0  0  0  0  0  0  0  0  0  0  0  0
    8.1782  -13.5816   27.4640 C   0  0  2  0  0  0  0  0  0  0  0  0
    8.9643  -15.2059   25.7274 N   0  0  0  0  0  0  0  0  0  0  0  0
    8.4533  -15.9012   24.5239 C   0  0  0  0  0  0  0  0  0  0  0  0
    9.5298  -16.1308   26.6767 O   0  0  0  0  0  0  0  0  0  0  0  0
    8.7122  -16.8976   27.3099 N   0  0  0  0  0  0  0  0  0  0  0  0
   10.8811  -16.3306   27.0179 C   0  0  1  0  0  0  0  0  0  0  0  0
   11.3173  -17.2930   28.0102 C   0  0  0  0  0  0  0  0  0  0  0  0
   12.7983  -17.5914   27.8559 C   0  0  0  0  0  0  0  0  0  0  0  0
   13.0366  -17.9745   26.4480 O   0  0  0  0  0  0  0  0  0  0  0  0
   12.1342  -18.4346   25.7024 C   0  0  0  0  0  0  0  0  0  0  0  0
   11.0001  -16.8949   29.3890 O   0  0  0  0  0  0  0  0  0  0  0  0
   11.1462  -17.6820   30.3725 O   0  0  0  0  0  0  0  0  0  0  0  0
   14.3129  -17.8152   25.9360 O   0  0  0  0  0  0  0  0  0  0  0  0
  2  1  1  0
  3  2  2  0
  4  2  1  0
  5  4  1  0
  6  5  1  0
  7  6  1  0
  8 10  1  0
  8  7  1  0
  8  9  1  1
 10 11  2  0
 13 14  1  0
 13 12  1  0
 14 16  1  0
 14 15  1  1
 16 17  1  6
 17 10  1  0
 18 16  1  0
 19 18  2  0
 20 18  1  0
 21 22  1  1
 21 20  1  0
 23 24  2  0
 23 22  1  0
 25 28  1  0
 25 21  1  0
 26 25  2  0
 27 23  1  0
M  END
$$$$
