RID.pdb
     RDKit          3D

 28 27  0  0  1  0  0  0  0  0999 V2000
   10.7869  -18.9557   20.1461 N   0  0  0  0  0  0  0  0  0  0  0  0
    9.8993  -19.6004   21.0619 C   0  0  0  0  0  0  0  0  0  0  0  0
   10.3535  -20.4305   21.9421 N   0  0  0  0  0  0  0  0  0  0  0  0
    8.4974  -19.3789   21.0688 N   0  0  0  0  0  0  0  0  0  0  0  0
    7.8841  -18.4366   20.1550 C   0  0  0  0  0  0  0  0  0  0  0  0
    8.2277  -17.0081   20.4522 C   0  0  0  0  0  0  0  0  0  0  0  0
    7.0391  -16.1778   20.8593 C   0  0  0  0  0  0  0  0  0  0  0  0
    7.4212  -14.7512   21.1751 C   0  0  2  0  0  0  0  0  0  0  0  0
    8.0354  -14.0399   20.1099 N   0  0  0  0  0  0  0  0  0  0  0  0
    8.0311  -14.5898   22.5081 C   0  0  0  0  0  0  0  0  0  0  0  0
    9.2700  -14.5570   22.5858 O   0  0  0  0  0  0  0  0  0  0  0  0
    9.6846  -20.8913   22.5803 C   0  0  0  0  0  0  0  0  0  0  0  0
    5.6294  -11.6572   26.1817 C   0  0  0  0  0  0  0  0  0  0  0  0
    6.7193  -12.2376   25.2753 C   0  0  2  0  0  0  0  0  0  0  0  0
    7.2182  -13.4975   25.8839 C   0  0  0  0  0  0  0  0  0  0  0  0
    7.8317  -13.2894   27.2609 C   0  0  2  0  0  0  0  0  0  0  0  0
    7.9605  -14.4354   25.0378 N   0  0  0  0  0  0  0  0  0  0  0  0
    7.2689  -14.4723   23.7289 C   0  0  0  0  0  0  0  0  0  0  0  0
    8.3545  -15.7525   25.4691 O   0  0  0  0  0  0  0  0  0  0  0  0
    8.2131  -16.7148   24.6255 N   0  0  0  0  0  0  0  0  0  0  0  0
    8.8924  -16.1526   26.7072 C   0  0  1  0  0  0  0  0  0  0  0  0
   10.1865  -16.7911   26.8435 C   0  0  0  0  0  0  0  0  0  0  0  0
   11.2229  -16.0974   25.9771 C   0  0  0  0  0  0  0  0  0  0  0  0
   11.7127  -17.0796   24.9865 O   0  0  0  0  0  0  0  0  0  0  0  0
   10.9438  -17.8064   24.3065 C   0  0  0  0  0  0  0  0  0  0  0  0
   10.6447  -16.8910   28.2364 O   0  0  0  0  0  0  0  0  0  0  0  0
   10.7347  -15.8786   28.9948 O   0  0  0  0  0  0  0  0  0  0  0  0
   13.0802  -17.1968   24.8058 O   0  0  0  0  0  0  0  0  0  0  0  0
  2  1  1  0
  3  2  2  0
  4  2  1  0
  5  4  1  0
  6  5  1  0
  7  6  1  0
  8 10  1  0
  8  7  1  0
  8  9  1  6
 10 11  2  0
 13 14  1  0
 13 12  1  0
 14 16  1  0
 14 15  1  6
 16 17  1  6
 17 10  1  0
 18 16  1  0
 19 18  2  0
 20 18  1  0
 21 22  1  1
 21 20  1  0
 23 24  2  0
 23 22  1  0
 25 28  1  0
 25 21  1  0
 26 25  2  0
 27 23  1  0
M  END
$$$$
