RID.pdb
     RDKit          3D

 28 27  0  0  1  0  0  0  0  0999 V2000
    7.0208  -14.0791   15.9077 N   0  0  0  0  0  0  0  0  0  0  0  0
    8.4072  -14.1219   16.2513 C   0  0  0  0  0  0  0  0  0  0  0  0
    9.2824  -14.5414   15.3980 N   0  0  0  0  0  0  0  0  0  0  0  0
    8.9049  -13.7169   17.5173 N   0  0  0  0  0  0  0  0  0  0  0  0
    8.0108  -13.2590   18.5614 C   0  0  0  0  0  0  0  0  0  0  0  0
    7.3308  -14.3750   19.2958 C   0  0  0  0  0  0  0  0  0  0  0  0
    7.1168  -14.0873   20.7584 C   0  0  0  0  0  0  0  0  0  0  0  0
    7.4015  -15.2916   21.6241 C   0  0  2  0  0  0  0  0  0  0  0  0
    6.3080  -16.1810   21.8012 N   0  0  0  0  0  0  0  0  0  0  0  0
    8.1887  -14.9731   22.8298 C   0  0  0  0  0  0  0  0  0  0  0  0
    9.3585  -14.5844   22.6803 O   0  0  0  0  0  0  0  0  0  0  0  0
   10.2775  -14.5558   15.6751 C   0  0  0  0  0  0  0  0  0  0  0  0
    6.2203  -11.8221   26.2758 C   0  0  0  0  0  0  0  0  0  0  0  0
    7.1564  -12.5795   25.3290 C   0  0  2  0  0  0  0  0  0  0  0  0
    7.7870  -13.6948   26.0807 C   0  0  0  0  0  0  0  0  0  0  0  0
    8.4902  -13.2332   27.3489 C   0  0  2  0  0  0  0  0  0  0  0  0
    8.5241  -14.7141   25.3295 N   0  0  0  0  0  0  0  0  0  0  0  0
    7.6774  -15.0923   24.1749 C   0  0  0  0  0  0  0  0  0  0  0  0
    9.1333  -15.8667   25.9432 O   0  0  0  0  0  0  0  0  0  0  0  0
    8.3455  -16.7387   26.4690 N   0  0  0  0  0  0  0  0  0  0  0  0
   10.4988  -16.1929   26.0493 C   0  0  1  0  0  0  0  0  0  0  0  0
   10.9812  -17.3991   26.6922 C   0  0  0  0  0  0  0  0  0  0  0  0
   12.4506  -17.6240   26.3813 C   0  0  0  0  0  0  0  0  0  0  0  0
   12.5517  -18.0564   24.9710 O   0  0  0  0  0  0  0  0  0  0  0  0
   11.5490  -18.1947   24.2246 C   0  0  0  0  0  0  0  0  0  0  0  0
   10.7385  -17.4256   28.1415 O   0  0  0  0  0  0  0  0  0  0  0  0
   10.6472  -16.3665   28.8330 O   0  0  0  0  0  0  0  0  0  0  0  0
   13.8108  -18.3175   24.4579 O   0  0  0  0  0  0  0  0  0  0  0  0
  2  1  1  0
  3  2  2  0
  4  2  1  0
  5  4  1  0
  6  5  1  0
  7  6  1  0
  8 10  1  0
  8  7  1  0
  8  9  1  1
 10 11  2  0
 13 14  1  0
 13 12  1  0
 14 16  1  0
 14 15  1  1
 16 17  1  6
 17 10  1  0
 18 16  1  0
 19 18  2  0
 20 18  1  0
 21 22  1  1
 21 20  1  0
 23 24  2  0
 23 22  1  0
 25 28  1  0
 25 21  1  0
 26 25  2  0
 27 23  1  0
M  END
$$$$
