IFQ.pdb
     RDKit          3D

 29 29  0  0  1  0  0  0  0  0999 V2000
    9.0631  -20.4507   19.0481 C   0  0  0  0  0  0  0  0  0  0  0  0
    8.7255  -18.9809   18.9922 C   0  0  0  0  0  0  0  0  0  0  0  0
    9.0408  -18.2803   20.2876 C   0  0  2  0  0  0  0  0  0  0  0  0
    8.2285  -18.8209   21.4363 C   0  0  0  0  0  0  0  0  0  0  0  0
    8.7069  -16.8069   20.0847 C   0  0  2  0  0  0  0  0  0  0  0  0
    9.4010  -16.2368   18.9715 N   0  0  0  0  0  0  0  0  0  0  0  0
    8.8937  -15.9995   21.3019 C   0  0  0  0  0  0  0  0  0  0  0  0
   10.0584  -15.7808   21.7207 O   0  0  0  0  0  0  0  0  0  0  0  0
    7.8119  -15.4386   22.0544 N   0  0  0  0  0  0  0  0  0  0  0  0
    8.1233  -14.6941   23.2889 C   0  0  1  0  0  0  0  0  0  0  0  0
    6.8710  -13.9920   23.6861 C   0  0  0  0  0  0  0  0  0  0  0  0
    6.9065  -13.3492   25.0121 C   0  0  0  0  0  0  0  0  0  0  0  0
    7.7443  -12.2798   25.2282 C   0  0  0  0  0  0  0  0  0  0  0  0
    7.8499  -11.6187   26.4384 C   0  0  0  0  0  0  0  0  0  0  0  0
    7.0705  -12.0451   27.5151 C   0  0  0  0  0  0  0  0  0  0  0  0
    6.2269  -13.1140   27.3089 C   0  0  0  0  0  0  0  0  0  0  0  0
    6.1460  -13.7513   26.0921 C   0  0  0  0  0  0  0  0  0  0  0  0
    8.4621  -15.6786   24.3575 C   0  0  0  0  0  0  0  0  0  0  0  0
    7.6207  -16.5536   24.6280 O   0  0  0  0  0  0  0  0  0  0  0  0
   12.8764  -19.6200   23.6548 N   0  0  0  0  0  0  0  0  0  0  0  0
   12.6960  -19.2336   25.0169 C   0  0  0  0  0  0  0  0  0  0  0  0
   13.5613  -19.2949   25.8795 O   0  0  0  0  0  0  0  0  0  0  0  0
   11.3148  -18.7208   25.3636 C   0  0  0  0  0  0  0  0  0  0  0  0
   11.4527  -17.2554   25.7189 C   0  0  0  0  0  0  0  0  0  0  0  0
   10.1932  -16.5337   26.0008 C   0  0  2  0  0  0  0  0  0  0  0  0
    9.6704  -15.6335   25.0408 N   0  0  0  0  0  0  0  0  0  0  0  0
   10.2646  -15.9668   27.3942 C   0  0  0  0  0  0  0  0  0  0  0  0
   10.1020  -14.7620   27.5500 O   0  0  0  0  0  0  0  0  0  0  0  0
   10.5175  -16.8677   28.4179 O   0  0  0  0  0  0  0  0  0  0  0  0
  2  1  1  0
  3  2  1  0
  3  4  1  1
  5  3  1  0
  5  6  1  6
  7  5  1  0
  7  8  2  0
  9  7  1  0
 10  9  1  0
 11 12  1  0
 10 11  1  1
 12 13  2  0
 13 14  1  0
 15 14  2  0
 16 15  1  0
 17 12  1  0
 17 16  2  0
 18 10  1  0
 19 18  2  0
 20 21  1  0
 21 22  2  0
 21 23  1  0
 23 24  1  0
 25 24  1  6
 25 26  1  0
 25 27  1  0
 26 18  1  0
 27 29  1  0
 28 27  2  0
M  END
$$$$
