IFQ.pdb
     RDKit          3D

 29 29  0  0  1  0  0  0  0  0999 V2000
    7.7086  -12.3016   18.6179 C   0  0  0  0  0  0  0  0  0  0  0  0
    7.8155  -13.5111   19.5142 C   0  0  0  0  0  0  0  0  0  0  0  0
    8.8476  -14.4899   19.0194 C   0  0  2  0  0  0  0  0  0  0  0  0
    8.5404  -14.9827   17.6286 C   0  0  0  0  0  0  0  0  0  0  0  0
    8.8356  -15.6692   19.9852 C   0  0  2  0  0  0  0  0  0  0  0  0
    7.6888  -16.5063   19.8122 N   0  0  0  0  0  0  0  0  0  0  0  0
    8.9955  -15.2651   21.3922 C   0  0  0  0  0  0  0  0  0  0  0  0
   10.1165  -14.8600   21.7907 O   0  0  0  0  0  0  0  0  0  0  0  0
    7.9353  -15.3071   22.3540 N   0  0  0  0  0  0  0  0  0  0  0  0
    8.2222  -14.8870   23.7383 C   0  0  1  0  0  0  0  0  0  0  0  0
    6.9272  -14.4357   24.3199 C   0  0  0  0  0  0  0  0  0  0  0  0
    7.0202  -13.8249   25.6582 C   0  0  0  0  0  0  0  0  0  0  0  0
    7.4007  -12.5088   25.7812 C   0  0  0  0  0  0  0  0  0  0  0  0
    7.5218  -11.8540   26.9933 C   0  0  0  0  0  0  0  0  0  0  0  0
    7.2468  -12.5503   28.1715 C   0  0  0  0  0  0  0  0  0  0  0  0
    6.8632  -13.8683   28.0594 C   0  0  0  0  0  0  0  0  0  0  0  0
    6.7533  -14.4915   26.8377 C   0  0  0  0  0  0  0  0  0  0  0  0
    8.6839  -16.0810   24.5047 C   0  0  0  0  0  0  0  0  0  0  0  0
    8.1085  -17.1633   24.2942 O   0  0  0  0  0  0  0  0  0  0  0  0
   13.9726  -18.7767   24.9671 N   0  0  0  0  0  0  0  0  0  0  0  0
   13.3866  -17.8462   24.0570 C   0  0  0  0  0  0  0  0  0  0  0  0
   13.9920  -17.2678   23.1652 O   0  0  0  0  0  0  0  0  0  0  0  0
   11.9079  -17.5933   24.2574 C   0  0  0  0  0  0  0  0  0  0  0  0
   11.6529  -17.5607   25.7495 C   0  0  0  0  0  0  0  0  0  0  0  0
   10.3350  -17.0403   26.1726 C   0  0  2  0  0  0  0  0  0  0  0  0
    9.7178  -16.0052   25.4289 N   0  0  0  0  0  0  0  0  0  0  0  0
   10.3708  -16.7879   27.6567 C   0  0  0  0  0  0  0  0  0  0  0  0
   10.8269  -17.6560   28.3920 O   0  0  0  0  0  0  0  0  0  0  0  0
    9.8715  -15.5689   28.0907 O   0  0  0  0  0  0  0  0  0  0  0  0
  2  1  1  0
  3  2  1  0
  3  4  1  6
  5  3  1  0
  5  6  1  1
  7  5  1  0
  7  8  2  0
  9  7  1  0
 10  9  1  0
 11 12  1  0
 10 11  1  1
 12 13  2  0
 13 14  1  0
 15 14  2  0
 16 15  1  0
 17 12  1  0
 17 16  2  0
 18 10  1  0
 19 18  2  0
 20 21  1  0
 21 22  2  0
 21 23  1  0
 23 24  1  0
 25 24  1  6
 25 26  1  0
 25 27  1  0
 26 18  1  0
 27 29  1  0
 28 27  2  0
M  END
$$$$
