IFQ.pdb
     RDKit          3D

 29 29  0  0  1  0  0  0  0  0999 V2000
    8.7818  -20.3364   18.5539 C   0  0  0  0  0  0  0  0  0  0  0  0
    8.6249  -18.8361   18.5960 C   0  0  0  0  0  0  0  0  0  0  0  0
    8.9699  -18.2709   19.9487 C   0  0  2  0  0  0  0  0  0  0  0  0
    7.9863  -18.6966   21.0083 C   0  0  0  0  0  0  0  0  0  0  0  0
    8.9381  -16.7528   19.8134 C   0  0  2  0  0  0  0  0  0  0  0  0
    9.8373  -16.2740   18.8095 N   0  0  0  0  0  0  0  0  0  0  0  0
    9.1443  -16.0546   21.0934 C   0  0  0  0  0  0  0  0  0  0  0  0
   10.3136  -15.9045   21.5292 O   0  0  0  0  0  0  0  0  0  0  0  0
    8.0768  -15.5274   21.8894 N   0  0  0  0  0  0  0  0  0  0  0  0
    8.4085  -14.8692   23.1668 C   0  0  1  0  0  0  0  0  0  0  0  0
    7.2512  -13.9941   23.5042 C   0  0  0  0  0  0  0  0  0  0  0  0
    7.3377  -13.3167   24.8106 C   0  0  0  0  0  0  0  0  0  0  0  0
    6.4299  -13.6226   25.7977 C   0  0  0  0  0  0  0  0  0  0  0  0
    6.4289  -13.0350   27.0496 C   0  0  0  0  0  0  0  0  0  0  0  0
    7.3959  -12.0739   27.3491 C   0  0  0  0  0  0  0  0  0  0  0  0
    8.3108  -11.7615   26.3683 C   0  0  0  0  0  0  0  0  0  0  0  0
    8.2841  -12.3639   25.1315 C   0  0  0  0  0  0  0  0  0  0  0  0
    8.5187  -15.9195   24.2208 C   0  0  0  0  0  0  0  0  0  0  0  0
    7.5147  -16.6159   24.4529 O   0  0  0  0  0  0  0  0  0  0  0  0
   11.1207  -19.0611   23.0012 N   0  0  0  0  0  0  0  0  0  0  0  0
   12.2651  -18.7981   23.8126 C   0  0  0  0  0  0  0  0  0  0  0  0
   13.2948  -19.4583   23.8006 O   0  0  0  0  0  0  0  0  0  0  0  0
   12.1393  -17.6063   24.7369 C   0  0  0  0  0  0  0  0  0  0  0  0
   11.1374  -17.9716   25.8118 C   0  0  0  0  0  0  0  0  0  0  0  0
    9.9738  -17.0696   25.9495 C   0  0  2  0  0  0  0  0  0  0  0  0
    9.6937  -16.1253   24.9319 N   0  0  0  0  0  0  0  0  0  0  0  0
    9.9773  -16.4875   27.3383 C   0  0  0  0  0  0  0  0  0  0  0  0
    9.8293  -15.2781   27.4716 O   0  0  0  0  0  0  0  0  0  0  0  0
   10.1549  -17.3806   28.3845 O   0  0  0  0  0  0  0  0  0  0  0  0
  2  1  1  0
  3  2  1  0
  3  4  1  1
  5  3  1  0
  5  6  1  6
  7  5  1  0
  7  8  2  0
  9  7  1  0
 10  9  1  0
 11 12  1  0
 10 11  1  1
 12 13  2  0
 13 14  1  0
 15 14  2  0
 16 15  1  0
 17 12  1  0
 17 16  2  0
 18 10  1  0
 19 18  2  0
 20 21  1  0
 21 22  2  0
 21 23  1  0
 23 24  1  0
 25 24  1  6
 25 26  1  0
 25 27  1  0
 26 18  1  0
 27 29  1  0
 28 27  2  0
M  END
$$$$
