IFQ.pdb
     RDKit          3D

 29 29  0  0  1  0  0  0  0  0999 V2000
    8.2527  -19.9340   18.5102 C   0  0  0  0  0  0  0  0  0  0  0  0
    8.5559  -18.4565   18.5604 C   0  0  0  0  0  0  0  0  0  0  0  0
    8.7232  -17.9630   19.9734 C   0  0  2  0  0  0  0  0  0  0  0  0
    7.4893  -18.1995   20.8060 C   0  0  0  0  0  0  0  0  0  0  0  0
    8.9932  -16.4651   19.8883 C   0  0  2  0  0  0  0  0  0  0  0  0
   10.1268  -16.1590   19.0716 N   0  0  0  0  0  0  0  0  0  0  0  0
    9.0953  -15.8208   21.2085 C   0  0  0  0  0  0  0  0  0  0  0  0
   10.1912  -15.8510   21.8231 O   0  0  0  0  0  0  0  0  0  0  0  0
    8.0039  -15.1509   21.8498 N   0  0  0  0  0  0  0  0  0  0  0  0
    8.2156  -14.5880   23.1964 C   0  0  1  0  0  0  0  0  0  0  0  0
    7.0972  -13.6338   23.4361 C   0  0  0  0  0  0  0  0  0  0  0  0
    7.0017  -13.1129   24.8117 C   0  0  0  0  0  0  0  0  0  0  0  0
    7.8127  -12.0734   25.2041 C   0  0  0  0  0  0  0  0  0  0  0  0
    7.7983  -11.5244   26.4733 C   0  0  0  0  0  0  0  0  0  0  0  0
    6.9178  -12.0400   27.4260 C   0  0  0  0  0  0  0  0  0  0  0  0
    6.1000  -13.0799   27.0429 C   0  0  0  0  0  0  0  0  0  0  0  0
    6.1396  -13.6047   25.7716 C   0  0  0  0  0  0  0  0  0  0  0  0
    8.1022  -15.6948   24.1905 C   0  0  0  0  0  0  0  0  0  0  0  0
    7.1203  -16.4534   24.1044 O   0  0  0  0  0  0  0  0  0  0  0  0
   10.6619  -20.3224   23.8266 N   0  0  0  0  0  0  0  0  0  0  0  0
   11.6270  -19.2757   23.7255 C   0  0  0  0  0  0  0  0  0  0  0  0
   12.6550  -19.3367   23.0654 O   0  0  0  0  0  0  0  0  0  0  0  0
   11.3053  -18.0245   24.5140 C   0  0  0  0  0  0  0  0  0  0  0  0
    9.9421  -18.2239   25.1422 C   0  0  0  0  0  0  0  0  0  0  0  0
    9.3935  -17.0691   25.8852 C   0  0  2  0  0  0  0  0  0  0  0  0
    9.0496  -15.8855   25.1880 N   0  0  0  0  0  0  0  0  0  0  0  0
   10.2439  -16.8337   27.1055 C   0  0  0  0  0  0  0  0  0  0  0  0
   10.4787  -17.7770   27.8520 O   0  0  0  0  0  0  0  0  0  0  0  0
   10.7047  -15.5400   27.3001 O   0  0  0  0  0  0  0  0  0  0  0  0
  2  1  1  0
  3  2  1  0
  3  4  1  1
  5  3  1  0
  5  6  1  1
  7  5  1  0
  7  8  2  0
  9  7  1  0
 10  9  1  0
 11 12  1  0
 10 11  1  1
 12 13  2  0
 13 14  1  0
 15 14  2  0
 16 15  1  0
 17 12  1  0
 17 16  2  0
 18 10  1  0
 19 18  2  0
 20 21  1  0
 21 22  2  0
 21 23  1  0
 23 24  1  0
 25 24  1  6
 25 26  1  0
 25 27  1  0
 26 18  1  0
 27 29  1  0
 28 27  2  0
M  END
$$$$
