IFQ.pdb
     RDKit          3D

 29 29  0  0  1  0  0  0  0  0999 V2000
    7.3210  -12.5727   18.6855 C   0  0  0  0  0  0  0  0  0  0  0  0
    7.5484  -14.0524   18.4952 C   0  0  0  0  0  0  0  0  0  0  0  0
    8.8543  -14.5037   19.0943 C   0  0  2  0  0  0  0  0  0  0  0  0
    9.8177  -14.9984   18.0460 C   0  0  0  0  0  0  0  0  0  0  0  0
    8.5288  -15.6413   20.0554 C   0  0  2  0  0  0  0  0  0  0  0  0
    7.2004  -16.1418   19.8807 N   0  0  0  0  0  0  0  0  0  0  0  0
    8.7911  -15.3003   21.4637 C   0  0  0  0  0  0  0  0  0  0  0  0
    9.9468  -14.9418   21.8034 O   0  0  0  0  0  0  0  0  0  0  0  0
    7.7945  -15.3543   22.4909 N   0  0  0  0  0  0  0  0  0  0  0  0
    8.1699  -14.9520   23.8592 C   0  0  1  0  0  0  0  0  0  0  0  0
    6.9429  -14.3835   24.4840 C   0  0  0  0  0  0  0  0  0  0  0  0
    7.1528  -13.7121   25.7794 C   0  0  0  0  0  0  0  0  0  0  0  0
    7.2501  -12.3408   25.8278 C   0  0  0  0  0  0  0  0  0  0  0  0
    7.4529  -11.6257   26.9940 C   0  0  0  0  0  0  0  0  0  0  0  0
    7.5684  -12.3155   28.2020 C   0  0  0  0  0  0  0  0  0  0  0  0
    7.4707  -13.6888   28.1649 C   0  0  0  0  0  0  0  0  0  0  0  0
    7.2696  -14.3712   26.9871 C   0  0  0  0  0  0  0  0  0  0  0  0
    8.5529  -16.1770   24.6199 C   0  0  0  0  0  0  0  0  0  0  0  0
    7.7144  -17.0914   24.7072 O   0  0  0  0  0  0  0  0  0  0  0  0
   13.9576  -19.0316   25.3026 N   0  0  0  0  0  0  0  0  0  0  0  0
   13.4210  -18.5225   24.0819 C   0  0  0  0  0  0  0  0  0  0  0  0
   13.9816  -18.5806   22.9961 O   0  0  0  0  0  0  0  0  0  0  0  0
   12.0592  -17.8725   24.1983 C   0  0  0  0  0  0  0  0  0  0  0  0
   11.6518  -17.9343   25.6553 C   0  0  0  0  0  0  0  0  0  0  0  0
   10.3189  -17.3833   25.9816 C   0  0  2  0  0  0  0  0  0  0  0  0
    9.7984  -16.3088   25.2201 N   0  0  0  0  0  0  0  0  0  0  0  0
   10.2359  -17.1732   27.4704 C   0  0  0  0  0  0  0  0  0  0  0  0
    9.8987  -16.0733   27.8931 O   0  0  0  0  0  0  0  0  0  0  0  0
   10.5573  -18.2606   28.2690 O   0  0  0  0  0  0  0  0  0  0  0  0
  2  1  1  0
  3  2  1  0
  3  4  1  6
  5  3  1  0
  5  6  1  1
  7  5  1  0
  7  8  2  0
  9  7  1  0
 10  9  1  0
 11 12  1  0
 10 11  1  1
 12 13  2  0
 13 14  1  0
 15 14  2  0
 16 15  1  0
 17 12  1  0
 17 16  2  0
 18 10  1  0
 19 18  2  0
 20 21  1  0
 21 22  2  0
 21 23  1  0
 23 24  1  0
 25 24  1  6
 25 26  1  0
 25 27  1  0
 26 18  1  0
 27 29  1  0
 28 27  2  0
M  END
$$$$
