IFQ.pdb
     RDKit          3D

 29 29  0  0  1  0  0  0  0  0999 V2000
    2.5051  -17.9169   20.6241 C   0  0  0  0  0  0  0  0  0  0  0  0
    3.7095  -18.3094   21.4443 C   0  0  0  0  0  0  0  0  0  0  0  0
    4.9872  -18.2091   20.6534 C   0  0  2  0  0  0  0  0  0  0  0  0
    4.9888  -19.1299   19.4602 C   0  0  0  0  0  0  0  0  0  0  0  0
    6.1202  -18.6028   21.5942 C   0  0  2  0  0  0  0  0  0  0  0  0
    5.7347  -19.6251   22.5172 N   0  0  0  0  0  0  0  0  0  0  0  0
    6.7190  -17.4516   22.2904 C   0  0  0  0  0  0  0  0  0  0  0  0
    7.3641  -16.6010   21.6273 O   0  0  0  0  0  0  0  0  0  0  0  0
    6.6127  -17.2367   23.7024 N   0  0  0  0  0  0  0  0  0  0  0  0
    7.3524  -16.1104   24.3018 C   0  0  1  0  0  0  0  0  0  0  0  0
    6.5120  -15.6010   25.4212 C   0  0  0  0  0  0  0  0  0  0  0  0
    7.0261  -14.3928   26.0912 C   0  0  0  0  0  0  0  0  0  0  0  0
    6.5243  -13.1586   25.7488 C   0  0  0  0  0  0  0  0  0  0  0  0
    6.9491  -11.9718   26.3175 C   0  0  0  0  0  0  0  0  0  0  0  0
    7.9431  -12.0059   27.2970 C   0  0  0  0  0  0  0  0  0  0  0  0
    8.4511  -13.2368   27.6485 C   0  0  0  0  0  0  0  0  0  0  0  0
    8.0075  -14.4000   27.0625 C   0  0  0  0  0  0  0  0  0  0  0  0
    8.6233  -16.6379   24.8785 C   0  0  0  0  0  0  0  0  0  0  0  0
    8.5511  -17.6149   25.6447 O   0  0  0  0  0  0  0  0  0  0  0  0
   13.2821  -17.3828   21.1902 N   0  0  0  0  0  0  0  0  0  0  0  0
   13.2431  -16.0715   21.7525 C   0  0  0  0  0  0  0  0  0  0  0  0
   14.1275  -15.2349   21.6326 O   0  0  0  0  0  0  0  0  0  0  0  0
   11.9956  -15.7476   22.5459 C   0  0  0  0  0  0  0  0  0  0  0  0
   12.2890  -16.0616   23.9978 C   0  0  0  0  0  0  0  0  0  0  0  0
   11.1567  -16.5863   24.7910 C   0  0  2  0  0  0  0  0  0  0  0  0
    9.8551  -16.0681   24.5839 N   0  0  0  0  0  0  0  0  0  0  0  0
   11.5681  -16.6431   26.2385 C   0  0  0  0  0  0  0  0  0  0  0  0
   10.8314  -16.1439   27.0812 O   0  0  0  0  0  0  0  0  0  0  0  0
   12.7762  -17.2653   26.5158 O   0  0  0  0  0  0  0  0  0  0  0  0
  2  1  1  0
  3  2  1  0
  3  4  1  6
  5  3  1  0
  5  6  1  1
  7  5  1  0
  7  8  2  0
  9  7  1  0
 10  9  1  0
 11 12  1  0
 10 11  1  1
 12 13  2  0
 13 14  1  0
 15 14  2  0
 16 15  1  0
 17 12  1  0
 17 16  2  0
 18 10  1  0
 19 18  2  0
 20 21  1  0
 21 22  2  0
 21 23  1  0
 23 24  1  0
 25 24  1  6
 25 26  1  0
 25 27  1  0
 26 18  1  0
 27 29  1  0
 28 27  2  0
M  END
$$$$
