IFQ.pdb
     RDKit          3D

 29 29  0  0  1  0  0  0  0  0999 V2000
    7.6459  -13.2690   16.4299 C   0  0  0  0  0  0  0  0  0  0  0  0
    7.9823  -14.3692   17.4065 C   0  0  0  0  0  0  0  0  0  0  0  0
    8.1659  -13.8441   18.8061 C   0  0  2  0  0  0  0  0  0  0  0  0
    9.2862  -12.8396   18.8919 C   0  0  0  0  0  0  0  0  0  0  0  0
    8.4967  -15.0433   19.6871 C   0  0  2  0  0  0  0  0  0  0  0  0
    7.5513  -16.1066   19.5415 N   0  0  0  0  0  0  0  0  0  0  0  0
    8.6851  -14.6851   21.1030 C   0  0  0  0  0  0  0  0  0  0  0  0
    9.6393  -13.9328   21.4241 O   0  0  0  0  0  0  0  0  0  0  0  0
    7.8352  -15.1501   22.1578 N   0  0  0  0  0  0  0  0  0  0  0  0
    8.1114  -14.7015   23.5353 C   0  0  1  0  0  0  0  0  0  0  0  0
    6.7985  -14.3192   24.1264 C   0  0  0  0  0  0  0  0  0  0  0  0
    6.8696  -13.6955   25.4601 C   0  0  0  0  0  0  0  0  0  0  0  0
    6.3452  -14.3534   26.5483 C   0  0  0  0  0  0  0  0  0  0  0  0
    6.3601  -13.8447   27.8342 C   0  0  0  0  0  0  0  0  0  0  0  0
    6.9354  -12.5935   28.0627 C   0  0  0  0  0  0  0  0  0  0  0  0
    7.4650  -11.9271   26.9801 C   0  0  0  0  0  0  0  0  0  0  0  0
    7.4333  -12.4604   25.7121 C   0  0  0  0  0  0  0  0  0  0  0  0
    8.6479  -15.8601   24.3072 C   0  0  0  0  0  0  0  0  0  0  0  0
    7.9696  -16.9022   24.3356 O   0  0  0  0  0  0  0  0  0  0  0  0
   14.1254  -15.6222   24.3452 N   0  0  0  0  0  0  0  0  0  0  0  0
   13.4206  -16.3390   23.3320 C   0  0  0  0  0  0  0  0  0  0  0  0
   13.5842  -16.1878   22.1291 O   0  0  0  0  0  0  0  0  0  0  0  0
   12.4088  -17.3438   23.8391 C   0  0  0  0  0  0  0  0  0  0  0  0
   12.0606  -16.9565   25.2609 C   0  0  0  0  0  0  0  0  0  0  0  0
   10.6190  -16.8371   25.5676 C   0  0  2  0  0  0  0  0  0  0  0  0
    9.8608  -15.7949   24.9807 N   0  0  0  0  0  0  0  0  0  0  0  0
   10.4312  -16.9650   27.0563 C   0  0  0  0  0  0  0  0  0  0  0  0
   10.8986  -16.0987   27.7865 O   0  0  0  0  0  0  0  0  0  0  0  0
    9.7322  -18.0778   27.4998 O   0  0  0  0  0  0  0  0  0  0  0  0
  2  1  1  0
  3  2  1  0
  3  4  1  6
  5  3  1  0
  5  6  1  1
  7  5  1  0
  7  8  2  0
  9  7  1  0
 10  9  1  0
 11 12  1  0
 10 11  1  1
 12 13  2  0
 13 14  1  0
 15 14  2  0
 16 15  1  0
 17 12  1  0
 17 16  2  0
 18 10  1  0
 19 18  2  0
 20 21  1  0
 21 22  2  0
 21 23  1  0
 23 24  1  0
 25 24  1  1
 25 26  1  0
 25 27  1  0
 26 18  1  0
 27 29  1  0
 28 27  2  0
M  END
$$$$
