IFQ.pdb
     RDKit          3D

 29 29  0  0  1  0  0  0  0  0999 V2000
    8.7257  -17.8767   16.9791 C   0  0  0  0  0  0  0  0  0  0  0  0
    8.1918  -16.5455   17.4484 C   0  0  0  0  0  0  0  0  0  0  0  0
    8.6966  -16.1880   18.8215 C   0  0  2  0  0  0  0  0  0  0  0  0
    8.4055  -17.2683   19.8313 C   0  0  0  0  0  0  0  0  0  0  0  0
    7.9810  -14.9070   19.2347 C   0  0  2  0  0  0  0  0  0  0  0  0
    8.2062  -13.8338   18.3164 N   0  0  0  0  0  0  0  0  0  0  0  0
    8.2796  -14.4991   20.6178 C   0  0  0  0  0  0  0  0  0  0  0  0
    9.4031  -14.0018   20.8821 O   0  0  0  0  0  0  0  0  0  0  0  0
    7.3541  -14.6377   21.7020 N   0  0  0  0  0  0  0  0  0  0  0  0
    7.7932  -14.2550   23.0570 C   0  0  1  0  0  0  0  0  0  0  0  0
    6.5672  -13.8496   23.7996 C   0  0  0  0  0  0  0  0  0  0  0  0
    6.7949  -13.3893   25.1813 C   0  0  0  0  0  0  0  0  0  0  0  0
    7.2772  -12.1208   25.4058 C   0  0  0  0  0  0  0  0  0  0  0  0
    7.5274  -11.6054   26.6645 C   0  0  0  0  0  0  0  0  0  0  0  0
    7.2835  -12.4016   27.7848 C   0  0  0  0  0  0  0  0  0  0  0  0
    6.7988  -13.6730   27.5713 C   0  0  0  0  0  0  0  0  0  0  0  0
    6.5612  -14.1567   26.3053 C   0  0  0  0  0  0  0  0  0  0  0  0
    8.3619  -15.4622   23.7242 C   0  0  0  0  0  0  0  0  0  0  0  0
    7.7033  -16.5162   23.6755 O   0  0  0  0  0  0  0  0  0  0  0  0
   14.3052  -16.6279   24.5812 N   0  0  0  0  0  0  0  0  0  0  0  0
   13.6837  -16.5317   23.2999 C   0  0  0  0  0  0  0  0  0  0  0  0
   14.2851  -16.4555   22.2374 O   0  0  0  0  0  0  0  0  0  0  0  0
   12.1704  -16.5257   23.3168 C   0  0  0  0  0  0  0  0  0  0  0  0
   11.7338  -16.6531   24.7611 C   0  0  0  0  0  0  0  0  0  0  0  0
   10.2886  -16.4791   25.0211 C   0  0  2  0  0  0  0  0  0  0  0  0
    9.5828  -15.4288   24.3853 N   0  0  0  0  0  0  0  0  0  0  0  0
   10.0532  -16.5616   26.5062 C   0  0  0  0  0  0  0  0  0  0  0  0
    9.4641  -15.6417   27.0622 O   0  0  0  0  0  0  0  0  0  0  0  0
   10.5332  -17.6934   27.1482 O   0  0  0  0  0  0  0  0  0  0  0  0
  2  1  1  0
  3  2  1  0
  3  4  1  1
  5  3  1  0
  5  6  1  6
  7  5  1  0
  7  8  2  0
  9  7  1  0
 10  9  1  0
 11 12  1  0
 10 11  1  1
 12 13  2  0
 13 14  1  0
 15 14  2  0
 16 15  1  0
 17 12  1  0
 17 16  2  0
 18 10  1  0
 19 18  2  0
 20 21  1  0
 21 22  2  0
 21 23  1  0
 23 24  1  0
 25 24  1  1
 25 26  1  0
 25 27  1  0
 26 18  1  0
 27 29  1  0
 28 27  2  0
M  END
$$$$
