IFQ.pdb
     RDKit          3D

 29 29  0  0  1  0  0  0  0  0999 V2000
    8.2995  -20.1300   18.5244 C   0  0  0  0  0  0  0  0  0  0  0  0
    8.4284  -18.6265   18.5350 C   0  0  0  0  0  0  0  0  0  0  0  0
    8.6244  -18.0872   19.9275 C   0  0  2  0  0  0  0  0  0  0  0  0
    7.4687  -18.4255   20.8339 C   0  0  0  0  0  0  0  0  0  0  0  0
    8.7385  -16.5723   19.8017 C   0  0  2  0  0  0  0  0  0  0  0  0
    9.7558  -16.1751   18.8781 N   0  0  0  0  0  0  0  0  0  0  0  0
    8.9005  -15.8957   21.0995 C   0  0  0  0  0  0  0  0  0  0  0  0
   10.0001  -15.9794   21.7023 O   0  0  0  0  0  0  0  0  0  0  0  0
    7.8642  -15.1354   21.7314 N   0  0  0  0  0  0  0  0  0  0  0  0
    8.1107  -14.5928   23.0805 C   0  0  1  0  0  0  0  0  0  0  0  0
    7.0393  -13.5895   23.3345 C   0  0  0  0  0  0  0  0  0  0  0  0
    7.0453  -12.9942   24.6830 C   0  0  0  0  0  0  0  0  0  0  0  0
    6.2077  -13.4953   25.6523 C   0  0  0  0  0  0  0  0  0  0  0  0
    6.1395  -12.9979   26.9409 C   0  0  0  0  0  0  0  0  0  0  0  0
    6.9590  -11.9261   27.2991 C   0  0  0  0  0  0  0  0  0  0  0  0
    7.8027  -11.4179   26.3365 C   0  0  0  0  0  0  0  0  0  0  0  0
    7.8459  -11.9350   25.0621 C   0  0  0  0  0  0  0  0  0  0  0  0
    7.9526  -15.7003   24.0676 C   0  0  0  0  0  0  0  0  0  0  0  0
    7.0136  -16.4982   23.8987 O   0  0  0  0  0  0  0  0  0  0  0  0
   11.3977  -21.0718   23.8343 N   0  0  0  0  0  0  0  0  0  0  0  0
   11.7166  -19.6994   24.0626 C   0  0  0  0  0  0  0  0  0  0  0  0
   12.5343  -19.0572   23.4181 O   0  0  0  0  0  0  0  0  0  0  0  0
   10.9604  -19.0424   25.1971 C   0  0  0  0  0  0  0  0  0  0  0  0
   10.2960  -17.8016   24.6389 C   0  0  0  0  0  0  0  0  0  0  0  0
    9.4989  -17.0047   25.5960 C   0  0  2  0  0  0  0  0  0  0  0  0
    8.8133  -15.8496   25.1473 N   0  0  0  0  0  0  0  0  0  0  0  0
   10.3195  -16.7832   26.8391 C   0  0  0  0  0  0  0  0  0  0  0  0
   10.8643  -17.7465   27.3658 O   0  0  0  0  0  0  0  0  0  0  0  0
   10.3965  -15.4800   27.3073 O   0  0  0  0  0  0  0  0  0  0  0  0
  2  1  1  0
  3  2  1  0
  3  4  1  1
  5  3  1  0
  5  6  1  6
  7  5  1  0
  7  8  2  0
  9  7  1  0
 10  9  1  0
 11 12  1  0
 10 11  1  1
 12 13  2  0
 13 14  1  0
 15 14  2  0
 16 15  1  0
 17 12  1  0
 17 16  2  0
 18 10  1  0
 19 18  2  0
 20 21  1  0
 21 22  2  0
 21 23  1  0
 23 24  1  0
 25 24  1  6
 25 26  1  0
 25 27  1  0
 26 18  1  0
 27 29  1  0
 28 27  2  0
M  END
$$$$
