IFQ.pdb
     RDKit          3D

 29 29  0  0  1  0  0  0  0  0999 V2000
    9.1191  -19.6476   18.3345 C   0  0  0  0  0  0  0  0  0  0  0  0
    8.9553  -18.1489   18.4008 C   0  0  0  0  0  0  0  0  0  0  0  0
    9.1441  -17.6224   19.7991 C   0  0  2  0  0  0  0  0  0  0  0  0
    8.1571  -18.2213   20.7681 C   0  0  0  0  0  0  0  0  0  0  0  0
    8.9339  -16.1140   19.7345 C   0  0  2  0  0  0  0  0  0  0  0  0
    9.7779  -15.4849   18.7662 N   0  0  0  0  0  0  0  0  0  0  0  0
    9.0461  -15.4585   21.0484 C   0  0  0  0  0  0  0  0  0  0  0  0
   10.1837  -15.2925   21.5563 O   0  0  0  0  0  0  0  0  0  0  0  0
    7.9198  -14.9912   21.7995 N   0  0  0  0  0  0  0  0  0  0  0  0
    8.1507  -14.4437   23.1493 C   0  0  1  0  0  0  0  0  0  0  0  0
    6.9425  -13.6428   23.4927 C   0  0  0  0  0  0  0  0  0  0  0  0
    6.9160  -13.1058   24.8653 C   0  0  0  0  0  0  0  0  0  0  0  0
    7.6136  -11.9578   25.1610 C   0  0  0  0  0  0  0  0  0  0  0  0
    7.6524  -11.3848   26.4190 C   0  0  0  0  0  0  0  0  0  0  0  0
    6.9503  -11.9902   27.4626 C   0  0  0  0  0  0  0  0  0  0  0  0
    6.2469  -13.1392   27.1769 C   0  0  0  0  0  0  0  0  0  0  0  0
    6.2294  -13.6851   25.9140 C   0  0  0  0  0  0  0  0  0  0  0  0
    8.2401  -15.5829   24.1086 C   0  0  0  0  0  0  0  0  0  0  0  0
    7.5669  -16.6000   23.8655 O   0  0  0  0  0  0  0  0  0  0  0  0
   13.6247  -16.6163   23.7323 N   0  0  0  0  0  0  0  0  0  0  0  0
   13.3761  -17.7844   24.5139 C   0  0  0  0  0  0  0  0  0  0  0  0
   14.0164  -18.8239   24.4371 O   0  0  0  0  0  0  0  0  0  0  0  0
   12.2245  -17.6736   25.4897 C   0  0  0  0  0  0  0  0  0  0  0  0
   11.2428  -16.6721   24.9186 C   0  0  0  0  0  0  0  0  0  0  0  0
   10.0096  -16.4505   25.7038 C   0  0  2  0  0  0  0  0  0  0  0  0
    9.0404  -15.5268   25.2422 N   0  0  0  0  0  0  0  0  0  0  0  0
   10.3859  -16.2687   27.1506 C   0  0  0  0  0  0  0  0  0  0  0  0
   10.0779  -15.2245   27.7136 O   0  0  0  0  0  0  0  0  0  0  0  0
   11.0701  -17.3159   27.7496 O   0  0  0  0  0  0  0  0  0  0  0  0
  2  1  1  0
  3  2  1  0
  3  4  1  1
  5  3  1  0
  5  6  1  6
  7  5  1  0
  7  8  2  0
  9  7  1  0
 10  9  1  0
 11 12  1  0
 10 11  1  1
 12 13  2  0
 13 14  1  0
 15 14  2  0
 16 15  1  0
 17 12  1  0
 17 16  2  0
 18 10  1  0
 19 18  2  0
 20 21  1  0
 21 22  2  0
 21 23  1  0
 23 24  1  0
 25 24  1  6
 25 26  1  0
 25 27  1  0
 26 18  1  0
 27 29  1  0
 28 27  2  0
M  END
$$$$
