IFQ.pdb
     RDKit          3D

 29 29  0  0  1  0  0  0  0  0999 V2000
    9.0214  -19.6667   18.2397 C   0  0  0  0  0  0  0  0  0  0  0  0
    9.2641  -18.1859   18.3996 C   0  0  0  0  0  0  0  0  0  0  0  0
    9.2954  -17.7729   19.8476 C   0  0  2  0  0  0  0  0  0  0  0  0
    8.0297  -18.1526   20.5725 C   0  0  0  0  0  0  0  0  0  0  0  0
    9.4528  -16.2568   19.8704 C   0  0  2  0  0  0  0  0  0  0  0  0
   10.5854  -15.8130   19.1180 N   0  0  0  0  0  0  0  0  0  0  0  0
    9.4631  -15.6977   21.2327 C   0  0  0  0  0  0  0  0  0  0  0  0
   10.5235  -15.7410   21.9059 O   0  0  0  0  0  0  0  0  0  0  0  0
    8.3192  -15.0983   21.8518 N   0  0  0  0  0  0  0  0  0  0  0  0
    8.4427  -14.6100   23.2380 C   0  0  1  0  0  0  0  0  0  0  0  0
    7.3037  -13.6760   23.4599 C   0  0  0  0  0  0  0  0  0  0  0  0
    7.1713  -13.1651   24.8363 C   0  0  0  0  0  0  0  0  0  0  0  0
    6.1705  -13.6465   25.6480 C   0  0  0  0  0  0  0  0  0  0  0  0
    5.9653  -13.2228   26.9483 C   0  0  0  0  0  0  0  0  0  0  0  0
    6.8109  -12.2517   27.4873 C   0  0  0  0  0  0  0  0  0  0  0  0
    7.8174  -11.7643   26.6835 C   0  0  0  0  0  0  0  0  0  0  0  0
    7.9944  -12.2061   25.3926 C   0  0  0  0  0  0  0  0  0  0  0  0
    8.2773  -15.7709   24.1606 C   0  0  0  0  0  0  0  0  0  0  0  0
    7.5406  -16.7032   23.7934 O   0  0  0  0  0  0  0  0  0  0  0  0
   11.3953  -20.0385   22.5933 N   0  0  0  0  0  0  0  0  0  0  0  0
   11.0459  -19.6377   23.9178 C   0  0  0  0  0  0  0  0  0  0  0  0
   11.3927  -20.2193   24.9366 O   0  0  0  0  0  0  0  0  0  0  0  0
   10.1810  -18.3991   24.0090 C   0  0  0  0  0  0  0  0  0  0  0  0
   10.6858  -17.5802   25.1783 C   0  0  0  0  0  0  0  0  0  0  0  0
    9.6551  -16.8818   25.9760 C   0  0  2  0  0  0  0  0  0  0  0  0
    8.9140  -15.8249   25.3937 N   0  0  0  0  0  0  0  0  0  0  0  0
   10.2339  -16.5501   27.3261 C   0  0  0  0  0  0  0  0  0  0  0  0
   10.0404  -17.3234   28.2571 O   0  0  0  0  0  0  0  0  0  0  0  0
   10.9544  -15.3686   27.4186 O   0  0  0  0  0  0  0  0  0  0  0  0
  2  1  1  0
  3  2  1  0
  3  4  1  6
  5  3  1  0
  5  6  1  1
  7  5  1  0
  7  8  2  0
  9  7  1  0
 10  9  1  0
 11 12  1  0
 10 11  1  1
 12 13  2  0
 13 14  1  0
 15 14  2  0
 16 15  1  0
 17 12  1  0
 17 16  2  0
 18 10  1  0
 19 18  2  0
 20 21  1  0
 21 22  2  0
 21 23  1  0
 23 24  1  0
 25 24  1  6
 25 26  1  0
 25 27  1  0
 26 18  1  0
 27 29  1  0
 28 27  2  0
M  END
$$$$
