IFQ.pdb
     RDKit          3D

 29 29  0  0  1  0  0  0  0  0999 V2000
    8.4732  -19.7262   18.0822 C   0  0  0  0  0  0  0  0  0  0  0  0
    8.6673  -18.2333   18.1881 C   0  0  0  0  0  0  0  0  0  0  0  0
    8.8609  -17.7898   19.6143 C   0  0  2  0  0  0  0  0  0  0  0  0
    7.7083  -18.1972   20.4958 C   0  0  0  0  0  0  0  0  0  0  0  0
    8.9649  -16.2691   19.5928 C   0  0  2  0  0  0  0  0  0  0  0  0
    9.9784  -15.8025   18.6979 N   0  0  0  0  0  0  0  0  0  0  0  0
    9.1239  -15.6822   20.9340 C   0  0  0  0  0  0  0  0  0  0  0  0
   10.2142  -15.8273   21.5421 O   0  0  0  0  0  0  0  0  0  0  0  0
    8.0949  -14.9441   21.6030 N   0  0  0  0  0  0  0  0  0  0  0  0
    8.3527  -14.4564   22.9707 C   0  0  1  0  0  0  0  0  0  0  0  0
    7.1934  -13.5961   23.3381 C   0  0  0  0  0  0  0  0  0  0  0  0
    7.1670  -13.1458   24.7414 C   0  0  0  0  0  0  0  0  0  0  0  0
    8.0517  -12.1808   25.1637 C   0  0  0  0  0  0  0  0  0  0  0  0
    8.1051  -11.7017   26.4599 C   0  0  0  0  0  0  0  0  0  0  0  0
    7.2194  -12.2134   27.4098 C   0  0  0  0  0  0  0  0  0  0  0  0
    6.3282  -13.1789   26.9969 C   0  0  0  0  0  0  0  0  0  0  0  0
    6.3013  -13.6354   25.6992 C   0  0  0  0  0  0  0  0  0  0  0  0
    8.3697  -15.6301   23.8917 C   0  0  0  0  0  0  0  0  0  0  0  0
    7.4047  -16.4136   23.8507 O   0  0  0  0  0  0  0  0  0  0  0  0
   11.9887  -21.2189   24.3235 N   0  0  0  0  0  0  0  0  0  0  0  0
   12.2871  -19.8757   24.7027 C   0  0  0  0  0  0  0  0  0  0  0  0
   13.3224  -19.2864   24.4248 O   0  0  0  0  0  0  0  0  0  0  0  0
   11.2108  -19.1792   25.5072 C   0  0  0  0  0  0  0  0  0  0  0  0
   10.9058  -17.8679   24.8145 C   0  0  0  0  0  0  0  0  0  0  0  0
    9.8184  -17.0583   25.4050 C   0  0  2  0  0  0  0  0  0  0  0  0
    9.4179  -15.8550   24.7747 N   0  0  0  0  0  0  0  0  0  0  0  0
   10.0701  -16.9188   26.8831 C   0  0  0  0  0  0  0  0  0  0  0  0
   10.3580  -17.9195   27.5296 O   0  0  0  0  0  0  0  0  0  0  0  0
    9.9514  -15.6433   27.4147 O   0  0  0  0  0  0  0  0  0  0  0  0
  2  1  1  0
  3  2  1  0
  3  4  1  1
  5  3  1  0
  5  6  1  6
  7  5  1  0
  7  8  2  0
  9  7  1  0
 10  9  1  0
 11 12  1  0
 10 11  1  1
 12 13  2  0
 13 14  1  0
 15 14  2  0
 16 15  1  0
 17 12  1  0
 17 16  2  0
 18 10  1  0
 19 18  2  0
 20 21  1  0
 21 22  2  0
 21 23  1  0
 23 24  1  0
 25 24  1  6
 25 26  1  0
 25 27  1  0
 26 18  1  0
 27 29  1  0
 28 27  2  0
M  END
$$$$
