IFQ.pdb
     RDKit          3D

 29 29  0  0  1  0  0  0  0  0999 V2000
    8.3375  -19.6589   17.9169 C   0  0  0  0  0  0  0  0  0  0  0  0
    8.5179  -18.1633   18.0062 C   0  0  0  0  0  0  0  0  0  0  0  0
    8.7639  -17.7086   19.4207 C   0  0  2  0  0  0  0  0  0  0  0  0
    7.6605  -18.1371   20.3537 C   0  0  0  0  0  0  0  0  0  0  0  0
    8.8328  -16.1861   19.3888 C   0  0  2  0  0  0  0  0  0  0  0  0
    9.8030  -15.7017   18.4560 N   0  0  0  0  0  0  0  0  0  0  0  0
    9.0266  -15.5887   20.7207 C   0  0  0  0  0  0  0  0  0  0  0  0
   10.1659  -15.6253   21.2500 O   0  0  0  0  0  0  0  0  0  0  0  0
    7.9788  -14.9585   21.4664 N   0  0  0  0  0  0  0  0  0  0  0  0
    8.2706  -14.4891   22.8338 C   0  0  1  0  0  0  0  0  0  0  0  0
    7.1299  -13.6187   23.2342 C   0  0  0  0  0  0  0  0  0  0  0  0
    7.1302  -13.1955   24.6462 C   0  0  0  0  0  0  0  0  0  0  0  0
    7.8740  -12.1038   25.0297 C   0  0  0  0  0  0  0  0  0  0  0  0
    7.9405  -11.6378   26.3301 C   0  0  0  0  0  0  0  0  0  0  0  0
    7.2191  -12.2988   27.3258 C   0  0  0  0  0  0  0  0  0  0  0  0
    6.4696  -13.3921   26.9521 C   0  0  0  0  0  0  0  0  0  0  0  0
    6.4254  -13.8314   25.6489 C   0  0  0  0  0  0  0  0  0  0  0  0
    8.2919  -15.6729   23.7415 C   0  0  0  0  0  0  0  0  0  0  0  0
    7.3487  -16.4799   23.6645 O   0  0  0  0  0  0  0  0  0  0  0  0
   11.5793  -20.1137   23.7638 N   0  0  0  0  0  0  0  0  0  0  0  0
   12.5075  -19.1134   24.1819 C   0  0  0  0  0  0  0  0  0  0  0  0
   13.7192  -19.1781   24.0266 O   0  0  0  0  0  0  0  0  0  0  0  0
   11.8936  -17.9091   24.8628 C   0  0  0  0  0  0  0  0  0  0  0  0
   10.3960  -18.1283   24.9050 C   0  0  0  0  0  0  0  0  0  0  0  0
    9.5915  -17.0160   25.4548 C   0  0  2  0  0  0  0  0  0  0  0  0
    9.3204  -15.8820   24.6511 N   0  0  0  0  0  0  0  0  0  0  0  0
   10.1087  -16.6810   26.8289 C   0  0  0  0  0  0  0  0  0  0  0  0
   10.3937  -15.5166   27.0843 O   0  0  0  0  0  0  0  0  0  0  0  0
   10.2300  -17.7367   27.7203 O   0  0  0  0  0  0  0  0  0  0  0  0
  2  1  1  0
  3  2  1  0
  3  4  1  1
  5  3  1  0
  5  6  1  6
  7  5  1  0
  7  8  2  0
  9  7  1  0
 10  9  1  0
 11 12  1  0
 10 11  1  1
 12 13  2  0
 13 14  1  0
 15 14  2  0
 16 15  1  0
 17 12  1  0
 17 16  2  0
 18 10  1  0
 19 18  2  0
 20 21  1  0
 21 22  2  0
 21 23  1  0
 23 24  1  0
 25 24  1  6
 25 26  1  0
 25 27  1  0
 26 18  1  0
 27 29  1  0
 28 27  2  0
M  END
$$$$
