HKL.pdb
     RDKit          3D

 28 28  0  0  1  0  0  0  0  0999 V2000
    9.5340  -16.2055   19.2721 N   0  0  0  0  0  0  0  0  0  0  0  0
    8.2928  -15.4261   19.5176 C   0  0  1  0  0  0  0  0  0  0  0  0
    7.3886  -15.5924   18.3459 C   0  0  0  0  0  0  0  0  0  0  0  0
    7.7818  -14.8748   17.1260 C   0  0  0  0  0  0  0  0  0  0  0  0
    8.8885  -14.0571   16.9498 C   0  0  0  0  0  0  0  0  0  0  0  0
    8.8763  -13.6006   15.6899 N   0  0  0  0  0  0  0  0  0  0  0  0
    7.8090  -14.0918   15.0537 C   0  0  0  0  0  0  0  0  0  0  0  0
    7.1560  -14.8695   15.9581 N   0  0  0  0  0  0  0  0  0  0  0  0
    7.6988  -15.9252   20.8089 C   0  0  0  0  0  0  0  0  0  0  0  0
    6.6151  -15.5188   21.2784 O   0  0  0  0  0  0  0  0  0  0  0  0
    8.3720  -16.9193   21.5793 N   0  0  0  0  0  0  0  0  0  0  0  0
    7.8469  -17.3661   22.8868 C   0  0  1  0  0  0  0  0  0  0  0  0
    8.3535  -18.7214   23.2208 C   0  0  0  0  0  0  0  0  0  0  0  0
    8.0173  -19.1106   24.6306 C   0  0  0  0  0  0  0  0  0  0  0  0
    7.2261  -20.3996   24.7195 C   0  0  0  0  0  0  0  0  0  0  0  0
    6.9832  -20.7156   26.1842 C   0  0  0  0  0  0  0  0  0  0  0  0
    6.4027  -22.0297   26.3354 N   0  0  0  0  0  0  0  0  0  0  0  0
    8.2671  -16.3035   23.8385 C   0  0  0  0  0  0  0  0  0  0  0  0
    9.4326  -15.7840   23.7974 O   0  0  0  0  0  0  0  0  0  0  0  0
    5.7715  -12.0736   27.5896 C   0  0  0  0  0  0  0  0  0  0  0  0
    7.0206  -12.6982   26.9939 C   0  0  2  0  0  0  0  0  0  0  0  0
    8.0454  -11.6869   26.6709 C   0  0  0  0  0  0  0  0  0  0  0  0
    6.7618  -13.7948   26.0456 C   0  0  0  0  0  0  0  0  0  0  0  0
    7.8726  -14.7536   25.7722 C   0  0  2  0  0  0  0  0  0  0  0  0
    7.4196  -15.7952   24.8471 N   0  0  0  0  0  0  0  0  0  0  0  0
    8.5156  -15.3363   26.9454 C   0  0  0  0  0  0  0  0  0  0  0  0
    8.1208  -16.2998   27.6367 O   0  0  0  0  0  0  0  0  0  0  0  0
    9.7414  -14.7664   27.3864 O   0  0  0  0  0  0  0  0  0  0  0  0
  2  1  1  6
  3  2  1  0
  4  5  2  0
  4  3  1  0
  6  5  1  0
  7  8  2  0
  7  6  1  0
  8  4  1  0
  9 11  1  0
  9  2  1  0
 10  9  2  0
 12 11  1  0
 12 13  1  1
 13 14  1  0
 14 15  1  0
 15 16  1  0
 17 16  1  0
 18 12  1  0
 19 18  2  0
 21 23  1  0
 21 20  1  6
 22 21  1  0
 24 23  1  1
 24 26  1  0
 24 25  1  0
 25 18  1  0
 26 28  1  0
 27 26  2  0
M  END
$$$$
