HKL.pdb
     RDKit          3D

 28 28  0  0  1  0  0  0  0  0999 V2000
    6.1221  -16.8777   19.1625 N   0  0  0  0  0  0  0  0  0  0  0  0
    7.1820  -16.4254   20.1008 C   0  0  1  0  0  0  0  0  0  0  0  0
    7.4199  -14.9715   19.8826 C   0  0  0  0  0  0  0  0  0  0  0  0
    8.0332  -14.6082   18.5983 C   0  0  0  0  0  0  0  0  0  0  0  0
    7.4648  -13.8648   17.5741 C   0  0  0  0  0  0  0  0  0  0  0  0
    8.3600  -13.7647   16.5819 N   0  0  0  0  0  0  0  0  0  0  0  0
    9.4760  -14.4123   16.9285 C   0  0  0  0  0  0  0  0  0  0  0  0
    9.2475  -14.9196   18.1693 N   0  0  0  0  0  0  0  0  0  0  0  0
    6.7155  -16.7540   21.4950 C   0  0  0  0  0  0  0  0  0  0  0  0
    5.5888  -16.4506   21.9405 O   0  0  0  0  0  0  0  0  0  0  0  0
    7.5705  -17.4508   22.3996 N   0  0  0  0  0  0  0  0  0  0  0  0
    7.1900  -17.6593   23.8125 C   0  0  1  0  0  0  0  0  0  0  0  0
    7.6486  -18.9887   24.2893 C   0  0  0  0  0  0  0  0  0  0  0  0
    7.3878  -19.1758   25.7553 C   0  0  0  0  0  0  0  0  0  0  0  0
    7.9108  -20.4936   26.2894 C   0  0  0  0  0  0  0  0  0  0  0  0
    7.4761  -20.6331   27.7371 C   0  0  0  0  0  0  0  0  0  0  0  0
    8.0499  -21.8176   28.3323 N   0  0  0  0  0  0  0  0  0  0  0  0
    7.7947  -16.5080   24.5338 C   0  0  0  0  0  0  0  0  0  0  0  0
    8.9731  -16.0922   24.2721 O   0  0  0  0  0  0  0  0  0  0  0  0
    5.9097  -11.6821   27.9529 C   0  0  0  0  0  0  0  0  0  0  0  0
    7.0339  -12.3993   27.2269 C   0  0  2  0  0  0  0  0  0  0  0  0
    7.9270  -11.4592   26.5228 C   0  0  0  0  0  0  0  0  0  0  0  0
    6.6310  -13.6503   26.5623 C   0  0  0  0  0  0  0  0  0  0  0  0
    7.7079  -14.6055   26.1677 C   0  0  2  0  0  0  0  0  0  0  0  0
    7.1200  -15.7965   25.5499 N   0  0  0  0  0  0  0  0  0  0  0  0
    8.6530  -14.9705   27.2179 C   0  0  0  0  0  0  0  0  0  0  0  0
    9.5660  -14.2696   27.7051 O   0  0  0  0  0  0  0  0  0  0  0  0
    8.5553  -16.2729   27.7801 O   0  0  0  0  0  0  0  0  0  0  0  0
  2  1  1  6
  3  2  1  0
  4  5  2  0
  4  3  1  0
  6  5  1  0
  7  8  2  0
  7  6  1  0
  8  4  1  0
  9 11  1  0
  9  2  1  0
 10  9  2  0
 12 11  1  0
 12 13  1  1
 13 14  1  0
 14 15  1  0
 15 16  1  0
 17 16  1  0
 18 12  1  0
 19 18  2  0
 21 23  1  0
 21 20  1  6
 22 21  1  0
 24 23  1  1
 24 26  1  0
 24 25  1  0
 25 18  1  0
 26 28  1  0
 27 26  2  0
M  END
$$$$
