HKL.pdb
     RDKit          3D

 28 28  0  0  1  0  0  0  0  0999 V2000
    6.1562  -16.7118   19.0247 N   0  0  0  0  0  0  0  0  0  0  0  0
    7.2612  -16.3168   19.9365 C   0  0  1  0  0  0  0  0  0  0  0  0
    7.5963  -14.8877   19.6845 C   0  0  0  0  0  0  0  0  0  0  0  0
    8.1868  -14.5896   18.3729 C   0  0  0  0  0  0  0  0  0  0  0  0
    7.5691  -13.9811   17.2900 C   0  0  0  0  0  0  0  0  0  0  0  0
    8.4591  -13.8984   16.2916 N   0  0  0  0  0  0  0  0  0  0  0  0
    9.6190  -14.4281   16.6904 C   0  0  0  0  0  0  0  0  0  0  0  0
    9.4232  -14.8440   17.9703 N   0  0  0  0  0  0  0  0  0  0  0  0
    6.7970  -16.5844   21.3444 C   0  0  0  0  0  0  0  0  0  0  0  0
    5.7204  -16.1597   21.8139 O   0  0  0  0  0  0  0  0  0  0  0  0
    7.5952  -17.3624   22.2347 N   0  0  0  0  0  0  0  0  0  0  0  0
    7.1847  -17.5912   23.6361 C   0  0  1  0  0  0  0  0  0  0  0  0
    7.6493  -18.9199   24.1093 C   0  0  0  0  0  0  0  0  0  0  0  0
    7.3650  -19.1228   25.5687 C   0  0  0  0  0  0  0  0  0  0  0  0
    7.9364  -20.4165   26.1121 C   0  0  0  0  0  0  0  0  0  0  0  0
    7.5947  -20.5117   27.5880 C   0  0  0  0  0  0  0  0  0  0  0  0
    8.0220  -21.7797   28.1320 N   0  0  0  0  0  0  0  0  0  0  0  0
    7.7576  -16.4403   24.3836 C   0  0  0  0  0  0  0  0  0  0  0  0
    8.9327  -16.0007   24.1473 O   0  0  0  0  0  0  0  0  0  0  0  0
    5.6723  -11.6511   27.7230 C   0  0  0  0  0  0  0  0  0  0  0  0
    6.8446  -12.3610   27.0695 C   0  0  2  0  0  0  0  0  0  0  0  0
    7.7781  -11.4146   26.4292 C   0  0  0  0  0  0  0  0  0  0  0  0
    6.4910  -13.6106   26.3749 C   0  0  0  0  0  0  0  0  0  0  0  0
    7.5987  -14.5473   26.0231 C   0  0  2  0  0  0  0  0  0  0  0  0
    7.0542  -15.7553   25.3985 N   0  0  0  0  0  0  0  0  0  0  0  0
    8.5174  -14.8839   27.1057 C   0  0  0  0  0  0  0  0  0  0  0  0
    9.3564  -14.1402   27.6582 O   0  0  0  0  0  0  0  0  0  0  0  0
    8.4843  -16.2086   27.6212 O   0  0  0  0  0  0  0  0  0  0  0  0
  2  1  1  6
  3  2  1  0
  4  5  2  0
  4  3  1  0
  6  5  1  0
  7  8  2  0
  7  6  1  0
  8  4  1  0
  9 11  1  0
  9  2  1  0
 10  9  2  0
 12 11  1  0
 12 13  1  1
 13 14  1  0
 14 15  1  0
 15 16  1  0
 17 16  1  0
 18 12  1  0
 19 18  2  0
 21 23  1  0
 21 20  1  6
 22 21  1  0
 24 23  1  1
 24 26  1  0
 24 25  1  0
 25 18  1  0
 26 28  1  0
 27 26  2  0
M  END
$$$$
