HKL.pdb
     RDKit          3D

 28 28  0  0  1  0  0  0  0  0999 V2000
    8.0889  -17.0750   19.6321 N   0  0  0  0  0  0  0  0  0  0  0  0
    8.2510  -15.8314   20.4295 C   0  0  1  0  0  0  0  0  0  0  0  0
    7.3916  -14.7707   19.8342 C   0  0  0  0  0  0  0  0  0  0  0  0
    7.7820  -14.3052   18.4968 C   0  0  0  0  0  0  0  0  0  0  0  0
    8.6255  -13.2487   18.1859 C   0  0  0  0  0  0  0  0  0  0  0  0
    8.7152  -13.1623   16.8516 N   0  0  0  0  0  0  0  0  0  0  0  0
    7.9650  -14.1186   16.2968 C   0  0  0  0  0  0  0  0  0  0  0  0
    7.4045  -14.8041   17.3288 N   0  0  0  0  0  0  0  0  0  0  0  0
    7.8927  -16.1637   21.8545 C   0  0  0  0  0  0  0  0  0  0  0  0
    6.7593  -15.9821   22.3467 O   0  0  0  0  0  0  0  0  0  0  0  0
    8.8671  -16.7200   22.7355 N   0  0  0  0  0  0  0  0  0  0  0  0
    8.5099  -17.1548   24.1023 C   0  0  1  0  0  0  0  0  0  0  0  0
    9.0861  -18.4916   24.3957 C   0  0  0  0  0  0  0  0  0  0  0  0
    8.7868  -18.9322   25.7986 C   0  0  0  0  0  0  0  0  0  0  0  0
    9.4010  -20.2731   26.1451 C   0  0  0  0  0  0  0  0  0  0  0  0
    9.0153  -20.6258   27.5702 C   0  0  0  0  0  0  0  0  0  0  0  0
    7.6420  -21.0690   27.6346 N   0  0  0  0  0  0  0  0  0  0  0  0
    9.0115  -16.0654   24.9816 C   0  0  0  0  0  0  0  0  0  0  0  0
   10.2244  -15.6693   24.9392 O   0  0  0  0  0  0  0  0  0  0  0  0
    8.0167  -11.7917   25.3160 C   0  0  0  0  0  0  0  0  0  0  0  0
    7.0380  -12.6037   26.1457 C   0  0  2  0  0  0  0  0  0  0  0  0
    5.8033  -11.8510   26.4394 C   0  0  0  0  0  0  0  0  0  0  0  0
    7.6619  -13.4132   27.2061 C   0  0  0  0  0  0  0  0  0  0  0  0
    8.7388  -14.3674   26.8089 C   0  0  2  0  0  0  0  0  0  0  0  0
    8.1945  -15.3951   25.9182 N   0  0  0  0  0  0  0  0  0  0  0  0
    9.4949  -14.9673   27.9033 C   0  0  0  0  0  0  0  0  0  0  0  0
    9.4332  -16.1428   28.3237 O   0  0  0  0  0  0  0  0  0  0  0  0
   10.4244  -14.1474   28.6002 O   0  0  0  0  0  0  0  0  0  0  0  0
  2  1  1  6
  3  2  1  0
  4  5  2  0
  4  3  1  0
  6  5  1  0
  7  8  2  0
  7  6  1  0
  8  4  1  0
  9 11  1  0
  9  2  1  0
 10  9  2  0
 12 11  1  0
 12 13  1  1
 13 14  1  0
 14 15  1  0
 15 16  1  0
 17 16  1  0
 18 12  1  0
 19 18  2  0
 21 23  1  0
 21 20  1  1
 22 21  1  0
 24 23  1  1
 24 26  1  0
 24 25  1  0
 25 18  1  0
 26 28  1  0
 27 26  2  0
M  END
$$$$
