HKL.pdb
     RDKit          3D

 28 28  0  0  1  0  0  0  0  0999 V2000
   13.1803  -16.6344   21.4636 N   0  0  0  0  0  0  0  0  0  0  0  0
   12.2670  -15.4630   21.4183 C   0  0  1  0  0  0  0  0  0  0  0  0
   12.1102  -15.0383   19.9995 C   0  0  0  0  0  0  0  0  0  0  0  0
   13.3571  -14.8003   19.2603 C   0  0  0  0  0  0  0  0  0  0  0  0
   14.3307  -13.8510   19.5349 C   0  0  0  0  0  0  0  0  0  0  0  0
   15.3023  -13.9699   18.6196 N   0  0  0  0  0  0  0  0  0  0  0  0
   14.9910  -14.9546   17.7720 C   0  0  0  0  0  0  0  0  0  0  0  0
   13.7934  -15.4459   18.1886 N   0  0  0  0  0  0  0  0  0  0  0  0
   10.9723  -15.8794   22.0660 C   0  0  0  0  0  0  0  0  0  0  0  0
    9.9179  -15.2128   22.0037 O   0  0  0  0  0  0  0  0  0  0  0  0
   10.8909  -17.0969   22.8051 N   0  0  0  0  0  0  0  0  0  0  0  0
    9.6625  -17.4727   23.5363 C   0  0  1  0  0  0  0  0  0  0  0  0
    9.4221  -18.9351   23.4426 C   0  0  0  0  0  0  0  0  0  0  0  0
    8.2080  -19.3517   24.2201 C   0  0  0  0  0  0  0  0  0  0  0  0
    7.3048  -20.2953   23.4527 C   0  0  0  0  0  0  0  0  0  0  0  0
    6.1133  -20.6398   24.3278 C   0  0  0  0  0  0  0  0  0  0  0  0
    5.1793  -21.4795   23.6142 N   0  0  0  0  0  0  0  0  0  0  0  0
    9.8874  -16.9765   24.9200 C   0  0  0  0  0  0  0  0  0  0  0  0
   11.0344  -17.0316   25.4779 O   0  0  0  0  0  0  0  0  0  0  0  0
    9.0711  -12.9344   27.2140 C   0  0  0  0  0  0  0  0  0  0  0  0
    7.8396  -13.8052   27.0400 C   0  0  2  0  0  0  0  0  0  0  0  0
    6.5916  -13.0510   27.2653 C   0  0  0  0  0  0  0  0  0  0  0  0
    7.9719  -15.1659   27.5878 C   0  0  0  0  0  0  0  0  0  0  0  0
    9.1046  -16.0051   27.0973 C   0  0  2  0  0  0  0  0  0  0  0  0
    8.8623  -16.4140   25.7116 N   0  0  0  0  0  0  0  0  0  0  0  0
    9.4565  -17.1511   27.9294 C   0  0  0  0  0  0  0  0  0  0  0  0
   10.2147  -17.1731   28.9227 O   0  0  0  0  0  0  0  0  0  0  0  0
    8.8879  -18.4127   27.6023 O   0  0  0  0  0  0  0  0  0  0  0  0
  2  1  1  6
  3  2  1  0
  4  5  2  0
  4  3  1  0
  6  5  1  0
  7  8  2  0
  7  6  1  0
  8  4  1  0
  9 11  1  0
  9  2  1  0
 10  9  2  0
 12 11  1  0
 12 13  1  1
 13 14  1  0
 14 15  1  0
 15 16  1  0
 17 16  1  0
 18 12  1  0
 19 18  2  0
 21 23  1  0
 21 20  1  1
 22 21  1  0
 24 23  1  1
 24 26  1  0
 24 25  1  0
 25 18  1  0
 26 28  1  0
 27 26  2  0
M  END
$$$$
