HKL.pdb
     RDKit          3D

 28 28  0  0  1  0  0  0  0  0999 V2000
    6.6500  -17.3590   19.3176 N   0  0  0  0  0  0  0  0  0  0  0  0
    7.3863  -16.3752   20.1534 C   0  0  1  0  0  0  0  0  0  0  0  0
    7.0537  -15.0043   19.6760 C   0  0  0  0  0  0  0  0  0  0  0  0
    7.6595  -14.6059   18.3985 C   0  0  0  0  0  0  0  0  0  0  0  0
    8.4989  -15.3614   17.5928 C   0  0  0  0  0  0  0  0  0  0  0  0
    8.8248  -14.6262   16.5208 N   0  0  0  0  0  0  0  0  0  0  0  0
    8.2293  -13.4333   16.6073 C   0  0  0  0  0  0  0  0  0  0  0  0
    7.5214  -13.4486   17.7683 N   0  0  0  0  0  0  0  0  0  0  0  0
    6.9937  -16.6228   21.5865 C   0  0  0  0  0  0  0  0  0  0  0  0
    5.8385  -16.4529   22.0300 O   0  0  0  0  0  0  0  0  0  0  0  0
    7.9584  -17.0784   22.5335 N   0  0  0  0  0  0  0  0  0  0  0  0
    7.5830  -17.3770   23.9316 C   0  0  1  0  0  0  0  0  0  0  0  0
    7.9903  -18.7563   24.3015 C   0  0  0  0  0  0  0  0  0  0  0  0
    6.8035  -19.6415   24.5462 C   0  0  0  0  0  0  0  0  0  0  0  0
    6.9861  -21.0449   24.0053 C   0  0  0  0  0  0  0  0  0  0  0  0
    5.7383  -21.8492   24.3217 C   0  0  0  0  0  0  0  0  0  0  0  0
    5.7490  -23.1100   23.6167 N   0  0  0  0  0  0  0  0  0  0  0  0
    8.2423  -16.3092   24.7294 C   0  0  0  0  0  0  0  0  0  0  0  0
    9.4413  -15.9371   24.4973 O   0  0  0  0  0  0  0  0  0  0  0  0
    6.0707  -11.7227   27.5934 C   0  0  0  0  0  0  0  0  0  0  0  0
    7.2624  -12.4565   27.0046 C   0  0  2  0  0  0  0  0  0  0  0  0
    7.4860  -12.1037   25.5894 C   0  0  0  0  0  0  0  0  0  0  0  0
    7.3839  -13.8618   27.4282 C   0  0  0  0  0  0  0  0  0  0  0  0
    8.3371  -14.7330   26.6797 C   0  0  2  0  0  0  0  0  0  0  0  0
    7.6001  -15.6343   25.7905 N   0  0  0  0  0  0  0  0  0  0  0  0
    9.3013  -15.4683   27.4914 C   0  0  0  0  0  0  0  0  0  0  0  0
   10.4460  -15.1055   27.8384 O   0  0  0  0  0  0  0  0  0  0  0  0
    8.9305  -16.7573   27.9637 O   0  0  0  0  0  0  0  0  0  0  0  0
  2  1  1  6
  3  2  1  0
  4  5  2  0
  4  3  1  0
  6  5  1  0
  7  8  2  0
  7  6  1  0
  8  4  1  0
  9 11  1  0
  9  2  1  0
 10  9  2  0
 12 11  1  0
 12 13  1  1
 13 14  1  0
 14 15  1  0
 15 16  1  0
 17 16  1  0
 18 12  1  0
 19 18  2  0
 21 23  1  0
 21 20  1  6
 22 21  1  0
 24 23  1  1
 24 26  1  0
 24 25  1  0
 25 18  1  0
 26 28  1  0
 27 26  2  0
M  END
$$$$
