HKL.pdb
     RDKit          3D

 28 28  0  0  1  0  0  0  0  0999 V2000
    7.7592  -17.0870   19.5519 N   0  0  0  0  0  0  0  0  0  0  0  0
    7.8349  -15.8460   20.3660 C   0  0  1  0  0  0  0  0  0  0  0  0
    7.0945  -14.7667   19.6555 C   0  0  0  0  0  0  0  0  0  0  0  0
    7.6592  -14.3430   18.3674 C   0  0  0  0  0  0  0  0  0  0  0  0
    8.5910  -13.3394   18.1457 C   0  0  0  0  0  0  0  0  0  0  0  0
    8.8355  -13.2775   16.8295 N   0  0  0  0  0  0  0  0  0  0  0  0
    8.0997  -14.1987   16.2010 C   0  0  0  0  0  0  0  0  0  0  0  0
    7.3883  -14.8371   17.1681 N   0  0  0  0  0  0  0  0  0  0  0  0
    7.2692  -16.1670   21.7248 C   0  0  0  0  0  0  0  0  0  0  0  0
    6.1183  -15.8489   22.0913 O   0  0  0  0  0  0  0  0  0  0  0  0
    8.0509  -16.8733   22.6865 N   0  0  0  0  0  0  0  0  0  0  0  0
    7.5034  -17.2277   24.0130 C   0  0  1  0  0  0  0  0  0  0  0  0
    7.7071  -18.6710   24.2967 C   0  0  0  0  0  0  0  0  0  0  0  0
    6.4690  -19.4734   24.0223 C   0  0  0  0  0  0  0  0  0  0  0  0
    6.6241  -20.9418   24.3613 C   0  0  0  0  0  0  0  0  0  0  0  0
    5.3864  -21.6797   23.8841 C   0  0  0  0  0  0  0  0  0  0  0  0
    5.4991  -23.0949   24.1506 N   0  0  0  0  0  0  0  0  0  0  0  0
    8.1986  -16.3138   24.9579 C   0  0  0  0  0  0  0  0  0  0  0  0
    9.4690  -16.1872   24.9618 O   0  0  0  0  0  0  0  0  0  0  0  0
    6.1061  -11.4990   27.3275 C   0  0  0  0  0  0  0  0  0  0  0  0
    7.2877  -12.3497   26.8968 C   0  0  2  0  0  0  0  0  0  0  0  0
    7.6007  -12.1785   25.4650 C   0  0  0  0  0  0  0  0  0  0  0  0
    7.3161  -13.6984   27.4876 C   0  0  0  0  0  0  0  0  0  0  0  0
    8.2389  -14.7030   26.8816 C   0  0  2  0  0  0  0  0  0  0  0  0
    7.5150  -15.5268   25.9104 N   0  0  0  0  0  0  0  0  0  0  0  0
    8.9849  -15.5328   27.8220 C   0  0  0  0  0  0  0  0  0  0  0  0
   10.0578  -15.2592   28.4017 O   0  0  0  0  0  0  0  0  0  0  0  0
    8.4597  -16.8146   28.1428 O   0  0  0  0  0  0  0  0  0  0  0  0
  2  1  1  6
  3  2  1  0
  4  5  2  0
  4  3  1  0
  6  5  1  0
  7  8  2  0
  7  6  1  0
  8  4  1  0
  9 11  1  0
  9  2  1  0
 10  9  2  0
 12 11  1  0
 12 13  1  1
 13 14  1  0
 14 15  1  0
 15 16  1  0
 17 16  1  0
 18 12  1  0
 19 18  2  0
 21 23  1  0
 21 20  1  6
 22 21  1  0
 24 23  1  1
 24 26  1  0
 24 25  1  0
 25 18  1  0
 26 28  1  0
 27 26  2  0
M  END
$$$$
