HKL.pdb
     RDKit          3D

 28 28  0  0  1  0  0  0  0  0999 V2000
    6.9033  -17.0508   18.8863 N   0  0  0  0  0  0  0  0  0  0  0  0
    7.6150  -16.1362   19.8166 C   0  0  1  0  0  0  0  0  0  0  0  0
    7.4060  -14.7351   19.3569 C   0  0  0  0  0  0  0  0  0  0  0  0
    7.9678  -14.4017   18.0414 C   0  0  0  0  0  0  0  0  0  0  0  0
    7.2879  -13.9160   16.9339 C   0  0  0  0  0  0  0  0  0  0  0  0
    8.1715  -13.7457   15.9408 N   0  0  0  0  0  0  0  0  0  0  0  0
    9.3868  -14.1019   16.3665 C   0  0  0  0  0  0  0  0  0  0  0  0
    9.2323  -14.4999   17.6576 N   0  0  0  0  0  0  0  0  0  0  0  0
    7.0798  -16.3995   21.1999 C   0  0  0  0  0  0  0  0  0  0  0  0
    5.9825  -15.9702   21.6140 O   0  0  0  0  0  0  0  0  0  0  0  0
    7.8295  -17.1786   22.1305 N   0  0  0  0  0  0  0  0  0  0  0  0
    7.3611  -17.3819   23.5176 C   0  0  1  0  0  0  0  0  0  0  0  0
    7.7971  -18.7055   24.0305 C   0  0  0  0  0  0  0  0  0  0  0  0
    6.6318  -19.5501   24.4560 C   0  0  0  0  0  0  0  0  0  0  0  0
    6.8008  -21.0153   24.1096 C   0  0  0  0  0  0  0  0  0  0  0  0
    5.5309  -21.7512   24.4965 C   0  0  0  0  0  0  0  0  0  0  0  0
    5.6106  -23.1435   24.1198 N   0  0  0  0  0  0  0  0  0  0  0  0
    7.9111  -16.2225   24.2691 C   0  0  0  0  0  0  0  0  0  0  0  0
    9.1495  -15.9154   24.2229 O   0  0  0  0  0  0  0  0  0  0  0  0
    5.9119  -11.2700   27.5036 C   0  0  0  0  0  0  0  0  0  0  0  0
    7.0655  -12.1405   27.0379 C   0  0  2  0  0  0  0  0  0  0  0  0
    8.2499  -11.3406   26.6711 C   0  0  0  0  0  0  0  0  0  0  0  0
    6.6687  -13.2770   26.1895 C   0  0  0  0  0  0  0  0  0  0  0  0
    7.7065  -14.3011   25.8700 C   0  0  2  0  0  0  0  0  0  0  0  0
    7.1155  -15.3842   25.0803 N   0  0  0  0  0  0  0  0  0  0  0  0
    8.4545  -14.8276   27.0070 C   0  0  0  0  0  0  0  0  0  0  0  0
    9.5409  -14.4150   27.4671 O   0  0  0  0  0  0  0  0  0  0  0  0
    7.9143  -15.9446   27.7014 O   0  0  0  0  0  0  0  0  0  0  0  0
  2  1  1  6
  3  2  1  0
  4  5  2  0
  4  3  1  0
  6  5  1  0
  7  8  2  0
  7  6  1  0
  8  4  1  0
  9 11  1  0
  9  2  1  0
 10  9  2  0
 12 11  1  0
 12 13  1  1
 13 14  1  0
 14 15  1  0
 15 16  1  0
 17 16  1  0
 18 12  1  0
 19 18  2  0
 21 23  1  0
 21 20  1  6
 22 21  1  0
 24 23  1  1
 24 26  1  0
 24 25  1  0
 25 18  1  0
 26 28  1  0
 27 26  2  0
M  END
$$$$
