HKL.pdb
     RDKit          3D

 28 28  0  0  1  0  0  0  0  0999 V2000
    8.2910  -16.9039   18.6650 N   0  0  0  0  0  0  0  0  0  0  0  0
    8.5615  -15.8909   19.7181 C   0  0  1  0  0  0  0  0  0  0  0  0
    7.5914  -14.7719   19.5604 C   0  0  0  0  0  0  0  0  0  0  0  0
    7.6943  -14.0059   18.3112 C   0  0  0  0  0  0  0  0  0  0  0  0
    8.3377  -12.7920   18.1184 C   0  0  0  0  0  0  0  0  0  0  0  0
    8.1938  -12.4406   16.8332 N   0  0  0  0  0  0  0  0  0  0  0  0
    7.4859  -13.3781   16.1968 C   0  0  0  0  0  0  0  0  0  0  0  0
    7.1931  -14.3257   17.1271 N   0  0  0  0  0  0  0  0  0  0  0  0
    8.4590  -16.5901   21.0485 C   0  0  0  0  0  0  0  0  0  0  0  0
    7.3835  -16.9871   21.5441 O   0  0  0  0  0  0  0  0  0  0  0  0
    9.6275  -16.8382   21.8283 N   0  0  0  0  0  0  0  0  0  0  0  0
    9.5457  -17.4952   23.1498 C   0  0  1  0  0  0  0  0  0  0  0  0
   10.6243  -18.5046   23.3022 C   0  0  0  0  0  0  0  0  0  0  0  0
   10.3183  -19.7657   22.5487 C   0  0  0  0  0  0  0  0  0  0  0  0
    9.1193  -20.5113   23.0982 C   0  0  0  0  0  0  0  0  0  0  0  0
    8.9716  -21.8151   22.3350 C   0  0  0  0  0  0  0  0  0  0  0  0
    7.8377  -22.5670   22.8200 N   0  0  0  0  0  0  0  0  0  0  0  0
    9.6126  -16.3755   24.1261 C   0  0  0  0  0  0  0  0  0  0  0  0
   10.6376  -15.6196   24.2159 O   0  0  0  0  0  0  0  0  0  0  0  0
    6.0632  -12.3536   27.0695 C   0  0  0  0  0  0  0  0  0  0  0  0
    7.4348  -12.9858   26.9132 C   0  0  2  0  0  0  0  0  0  0  0  0
    8.5088  -11.9750   26.8698 C   0  0  0  0  0  0  0  0  0  0  0  0
    7.4779  -14.1281   25.9846 C   0  0  0  0  0  0  0  0  0  0  0  0
    8.6900  -14.9990   26.0105 C   0  0  2  0  0  0  0  0  0  0  0  0
    8.5609  -16.0673   25.0165 N   0  0  0  0  0  0  0  0  0  0  0  0
    9.0611  -15.5371   27.3151 C   0  0  0  0  0  0  0  0  0  0  0  0
    8.4950  -16.4471   27.9582 O   0  0  0  0  0  0  0  0  0  0  0  0
   10.1989  -14.9852   27.9652 O   0  0  0  0  0  0  0  0  0  0  0  0
  2  1  1  6
  3  2  1  0
  4  5  2  0
  4  3  1  0
  6  5  1  0
  7  8  2  0
  7  6  1  0
  8  4  1  0
  9 11  1  0
  9  2  1  0
 10  9  2  0
 12 11  1  0
 12 13  1  1
 13 14  1  0
 14 15  1  0
 15 16  1  0
 17 16  1  0
 18 12  1  0
 19 18  2  0
 21 23  1  0
 21 20  1  6
 22 21  1  0
 24 23  1  1
 24 26  1  0
 24 25  1  0
 25 18  1  0
 26 28  1  0
 27 26  2  0
M  END
$$$$
