HKL.pdb
     RDKit          3D

 28 28  0  0  1  0  0  0  0  0999 V2000
    6.5289  -16.6992   19.6974 N   0  0  0  0  0  0  0  0  0  0  0  0
    7.6084  -16.0639   20.4970 C   0  0  1  0  0  0  0  0  0  0  0  0
    7.6797  -14.6208   20.1359 C   0  0  0  0  0  0  0  0  0  0  0  0
    8.1176  -14.3241   18.7655 C   0  0  0  0  0  0  0  0  0  0  0  0
    7.4327  -13.5993   17.8010 C   0  0  0  0  0  0  0  0  0  0  0  0
    8.1831  -13.5644   16.6912 N   0  0  0  0  0  0  0  0  0  0  0  0
    9.3181  -14.2358   16.9056 C   0  0  0  0  0  0  0  0  0  0  0  0
    9.2510  -14.6907   18.1853 N   0  0  0  0  0  0  0  0  0  0  0  0
    7.2893  -16.3033   21.9497 C   0  0  0  0  0  0  0  0  0  0  0  0
    6.1565  -16.1376   22.4490 O   0  0  0  0  0  0  0  0  0  0  0  0
    8.3031  -16.7454   22.8507 N   0  0  0  0  0  0  0  0  0  0  0  0
    7.9879  -17.0972   24.2513 C   0  0  1  0  0  0  0  0  0  0  0  0
    8.4764  -18.4623   24.5726 C   0  0  0  0  0  0  0  0  0  0  0  0
    8.1894  -18.8363   25.9973 C   0  0  0  0  0  0  0  0  0  0  0  0
    8.7991  -20.1639   26.3985 C   0  0  0  0  0  0  0  0  0  0  0  0
    8.3449  -20.4961   27.8083 C   0  0  0  0  0  0  0  0  0  0  0  0
    8.7828  -21.8189   28.1893 N   0  0  0  0  0  0  0  0  0  0  0  0
    8.6169  -16.0165   25.0562 C   0  0  0  0  0  0  0  0  0  0  0  0
    9.8486  -15.7075   24.9244 O   0  0  0  0  0  0  0  0  0  0  0  0
    7.9210  -11.7547   25.1707 C   0  0  0  0  0  0  0  0  0  0  0  0
    6.9608  -12.4269   26.1359 C   0  0  2  0  0  0  0  0  0  0  0  0
    5.7966  -11.5740   26.4431 C   0  0  0  0  0  0  0  0  0  0  0  0
    7.6133  -13.1792   27.2209 C   0  0  0  0  0  0  0  0  0  0  0  0
    8.5789  -14.2516   26.8396 C   0  0  2  0  0  0  0  0  0  0  0  0
    7.9085  -15.2599   26.0152 N   0  0  0  0  0  0  0  0  0  0  0  0
    9.3090  -14.8732   27.9397 C   0  0  0  0  0  0  0  0  0  0  0  0
   10.1347  -14.3385   28.7107 O   0  0  0  0  0  0  0  0  0  0  0  0
    9.0804  -16.2528   28.1969 O   0  0  0  0  0  0  0  0  0  0  0  0
  2  1  1  6
  3  2  1  0
  4  5  2  0
  4  3  1  0
  6  5  1  0
  7  8  2  0
  7  6  1  0
  8  4  1  0
  9 11  1  0
  9  2  1  0
 10  9  2  0
 12 11  1  0
 12 13  1  1
 13 14  1  0
 14 15  1  0
 15 16  1  0
 17 16  1  0
 18 12  1  0
 19 18  2  0
 21 23  1  0
 21 20  1  1
 22 21  1  0
 24 23  1  1
 24 26  1  0
 24 25  1  0
 25 18  1  0
 26 28  1  0
 27 26  2  0
M  END
$$$$
