HKL.pdb
     RDKit          3D

 28 28  0  0  1  0  0  0  0  0999 V2000
    7.7703  -16.9479   19.5661 N   0  0  0  0  0  0  0  0  0  0  0  0
    7.8221  -15.7107   20.3878 C   0  0  1  0  0  0  0  0  0  0  0  0
    7.0684  -14.6390   19.6798 C   0  0  0  0  0  0  0  0  0  0  0  0
    7.6583  -14.1655   18.4206 C   0  0  0  0  0  0  0  0  0  0  0  0
    8.6764  -13.2362   18.2647 C   0  0  0  0  0  0  0  0  0  0  0  0
    8.9140  -13.0904   16.9539 N   0  0  0  0  0  0  0  0  0  0  0  0
    8.0912  -13.8869   16.2658 C   0  0  0  0  0  0  0  0  0  0  0  0
    7.3326  -14.5342   17.1903 N   0  0  0  0  0  0  0  0  0  0  0  0
    7.2544  -16.0486   21.7417 C   0  0  0  0  0  0  0  0  0  0  0  0
    6.1024  -15.7368   22.1099 O   0  0  0  0  0  0  0  0  0  0  0  0
    8.0357  -16.7648   22.6965 N   0  0  0  0  0  0  0  0  0  0  0  0
    7.5056  -17.0876   24.0380 C   0  0  1  0  0  0  0  0  0  0  0  0
    7.6990  -18.5272   24.3467 C   0  0  0  0  0  0  0  0  0  0  0  0
    6.4827  -19.3384   24.0081 C   0  0  0  0  0  0  0  0  0  0  0  0
    6.6010  -20.0637   22.6832 C   0  0  0  0  0  0  0  0  0  0  0  0
    5.3299  -20.8617   22.4558 C   0  0  0  0  0  0  0  0  0  0  0  0
    5.3766  -21.5487   21.1860 N   0  0  0  0  0  0  0  0  0  0  0  0
    8.2250  -16.1630   24.9540 C   0  0  0  0  0  0  0  0  0  0  0  0
    9.4990  -16.0808   24.9650 O   0  0  0  0  0  0  0  0  0  0  0  0
    7.6636  -11.9615   25.3489 C   0  0  0  0  0  0  0  0  0  0  0  0
    6.7545  -12.5663   26.4039 C   0  0  2  0  0  0  0  0  0  0  0  0
    5.7355  -11.6075   26.8726 C   0  0  0  0  0  0  0  0  0  0  0  0
    7.4422  -13.4271   27.3812 C   0  0  0  0  0  0  0  0  0  0  0  0
    8.3042  -14.5256   26.8539 C   0  0  2  0  0  0  0  0  0  0  0  0
    7.5619  -15.3166   25.8693 N   0  0  0  0  0  0  0  0  0  0  0  0
    8.9272  -15.3844   27.8558 C   0  0  0  0  0  0  0  0  0  0  0  0
    9.8426  -15.0909   28.6546 O   0  0  0  0  0  0  0  0  0  0  0  0
    8.4640  -16.7241   27.9673 O   0  0  0  0  0  0  0  0  0  0  0  0
  2  1  1  6
  3  2  1  0
  4  5  2  0
  4  3  1  0
  6  5  1  0
  7  8  2  0
  7  6  1  0
  8  4  1  0
  9 11  1  0
  9  2  1  0
 10  9  2  0
 12 11  1  0
 12 13  1  1
 13 14  1  0
 14 15  1  0
 15 16  1  0
 17 16  1  0
 18 12  1  0
 19 18  2  0
 21 23  1  0
 21 20  1  1
 22 21  1  0
 24 23  1  1
 24 26  1  0
 24 25  1  0
 25 18  1  0
 26 28  1  0
 27 26  2  0
M  END
$$$$
