HKL.pdb
     RDKit          3D

 28 28  0  0  1  0  0  0  0  0999 V2000
    5.9351  -16.4781   19.3999 N   0  0  0  0  0  0  0  0  0  0  0  0
    7.1520  -16.1600   20.1914 C   0  0  1  0  0  0  0  0  0  0  0  0
    7.5176  -14.7369   19.9479 C   0  0  0  0  0  0  0  0  0  0  0  0
    7.9619  -14.4135   18.5857 C   0  0  0  0  0  0  0  0  0  0  0  0
    7.5368  -13.3602   17.7891 C   0  0  0  0  0  0  0  0  0  0  0  0
    8.1908  -13.4272   16.6213 N   0  0  0  0  0  0  0  0  0  0  0  0
    9.0155  -14.4782   16.6378 C   0  0  0  0  0  0  0  0  0  0  0  0
    8.8545  -15.0646   17.8542 N   0  0  0  0  0  0  0  0  0  0  0  0
    6.8387  -16.4600   21.6341 C   0  0  0  0  0  0  0  0  0  0  0  0
    5.8216  -16.0416   22.2260 O   0  0  0  0  0  0  0  0  0  0  0  0
    7.7213  -17.2639   22.4149 N   0  0  0  0  0  0  0  0  0  0  0  0
    7.4505  -17.5416   23.8412 C   0  0  1  0  0  0  0  0  0  0  0  0
    8.0093  -18.8599   24.2349 C   0  0  0  0  0  0  0  0  0  0  0  0
    7.7607  -19.1607   25.6840 C   0  0  0  0  0  0  0  0  0  0  0  0
    8.2953  -20.5122   26.1115 C   0  0  0  0  0  0  0  0  0  0  0  0
    7.9044  -20.7490   27.5590 C   0  0  0  0  0  0  0  0  0  0  0  0
    8.3511  -22.0485   28.0043 N   0  0  0  0  0  0  0  0  0  0  0  0
    8.0431  -16.3849   24.5639 C   0  0  0  0  0  0  0  0  0  0  0  0
    8.6671  -15.4549   23.9509 O   0  0  0  0  0  0  0  0  0  0  0  0
    5.9166  -11.8819   26.9613 C   0  0  0  0  0  0  0  0  0  0  0  0
    7.2394  -12.6219   26.8731 C   0  0  2  0  0  0  0  0  0  0  0  0
    8.3456  -11.7327   26.4697 C   0  0  0  0  0  0  0  0  0  0  0  0
    7.1461  -13.9713   26.2905 C   0  0  0  0  0  0  0  0  0  0  0  0
    8.2349  -14.9418   26.6078 C   0  0  2  0  0  0  0  0  0  0  0  0
    7.9616  -16.2295   25.9650 N   0  0  0  0  0  0  0  0  0  0  0  0
    8.5414  -15.1160   28.0238 C   0  0  0  0  0  0  0  0  0  0  0  0
    8.0586  -15.9543   28.8152 O   0  0  0  0  0  0  0  0  0  0  0  0
    9.5006  -14.2457   28.6107 O   0  0  0  0  0  0  0  0  0  0  0  0
  2  1  1  6
  3  2  1  0
  4  5  2  0
  4  3  1  0
  6  5  1  0
  7  8  2  0
  7  6  1  0
  8  4  1  0
  9 11  1  0
  9  2  1  0
 10  9  2  0
 12 11  1  0
 12 13  1  1
 13 14  1  0
 14 15  1  0
 15 16  1  0
 17 16  1  0
 18 12  1  0
 19 18  2  0
 21 23  1  0
 21 20  1  6
 22 21  1  0
 24 23  1  1
 24 26  1  0
 24 25  1  0
 25 18  1  0
 26 28  1  0
 27 26  2  0
M  END
$$$$
