HKL.pdb
     RDKit          3D

 28 28  0  0  1  0  0  0  0  0999 V2000
    7.8347  -17.2868   19.0646 N   0  0  0  0  0  0  0  0  0  0  0  0
    8.3369  -16.1601   19.8934 C   0  0  1  0  0  0  0  0  0  0  0  0
    7.5894  -14.9271   19.5208 C   0  0  0  0  0  0  0  0  0  0  0  0
    7.9003  -14.3635   18.2005 C   0  0  0  0  0  0  0  0  0  0  0  0
    8.5658  -13.1774   17.9267 C   0  0  0  0  0  0  0  0  0  0  0  0
    8.6398  -13.0356   16.5962 N   0  0  0  0  0  0  0  0  0  0  0  0
    8.0500  -14.0804   16.0083 C   0  0  0  0  0  0  0  0  0  0  0  0
    7.6057  -14.8784   17.0157 N   0  0  0  0  0  0  0  0  0  0  0  0
    8.1625  -16.5539   21.3369 C   0  0  0  0  0  0  0  0  0  0  0  0
    7.0547  -16.6225   21.9097 O   0  0  0  0  0  0  0  0  0  0  0  0
    9.2952  -16.8771   22.1415 N   0  0  0  0  0  0  0  0  0  0  0  0
    9.1509  -17.2172   23.5727 C   0  0  1  0  0  0  0  0  0  0  0  0
   10.2168  -18.1592   23.9988 C   0  0  0  0  0  0  0  0  0  0  0  0
   10.1092  -18.5008   25.4562 C   0  0  0  0  0  0  0  0  0  0  0  0
   11.1546  -19.4979   25.9125 C   0  0  0  0  0  0  0  0  0  0  0  0
   10.9252  -19.7975   27.3828 C   0  0  0  0  0  0  0  0  0  0  0  0
   11.7747  -20.8793   27.8238 N   0  0  0  0  0  0  0  0  0  0  0  0
    9.1787  -15.9045   24.2710 C   0  0  0  0  0  0  0  0  0  0  0  0
   10.1200  -15.0622   24.0857 O   0  0  0  0  0  0  0  0  0  0  0  0
    7.9683  -11.4381   26.5313 C   0  0  0  0  0  0  0  0  0  0  0  0
    6.6781  -12.2166   26.3449 C   0  0  2  0  0  0  0  0  0  0  0  0
    5.7632  -12.0551   27.4912 C   0  0  0  0  0  0  0  0  0  0  0  0
    6.8507  -13.5476   25.7385 C   0  0  0  0  0  0  0  0  0  0  0  0
    8.2066  -14.1685   25.8001 C   0  0  2  0  0  0  0  0  0  0  0  0
    8.1789  -15.4956   25.1804 N   0  0  0  0  0  0  0  0  0  0  0  0
    8.8263  -14.2179   27.1203 C   0  0  0  0  0  0  0  0  0  0  0  0
    9.5173  -13.3372   27.6762 O   0  0  0  0  0  0  0  0  0  0  0  0
    8.6446  -15.3937   27.8990 O   0  0  0  0  0  0  0  0  0  0  0  0
  2  1  1  6
  3  2  1  0
  4  5  2  0
  4  3  1  0
  6  5  1  0
  7  8  2  0
  7  6  1  0
  8  4  1  0
  9 11  1  0
  9  2  1  0
 10  9  2  0
 12 11  1  0
 12 13  1  1
 13 14  1  0
 14 15  1  0
 15 16  1  0
 17 16  1  0
 18 12  1  0
 19 18  2  0
 21 23  1  0
 21 20  1  1
 22 21  1  0
 24 23  1  1
 24 26  1  0
 24 25  1  0
 25 18  1  0
 26 28  1  0
 27 26  2  0
M  END
$$$$
