HKL.pdb
     RDKit          3D

 28 28  0  0  1  0  0  0  0  0999 V2000
    8.3901  -17.0868   18.7237 N   0  0  0  0  0  0  0  0  0  0  0  0
    8.5053  -15.8986   19.6087 C   0  0  1  0  0  0  0  0  0  0  0  0
    7.5650  -14.8514   19.1217 C   0  0  0  0  0  0  0  0  0  0  0  0
    7.8600  -14.2916   17.7961 C   0  0  0  0  0  0  0  0  0  0  0  0
    8.6881  -13.2185   17.5004 C   0  0  0  0  0  0  0  0  0  0  0  0
    8.6800  -13.0359   16.1729 N   0  0  0  0  0  0  0  0  0  0  0  0
    7.8822  -13.9465   15.6078 C   0  0  0  0  0  0  0  0  0  0  0  0
    7.3929  -14.7030   16.6263 N   0  0  0  0  0  0  0  0  0  0  0  0
    8.2158  -16.3576   21.0141 C   0  0  0  0  0  0  0  0  0  0  0  0
    7.0639  -16.4959   21.4767 O   0  0  0  0  0  0  0  0  0  0  0  0
    9.2825  -16.6652   21.9098 N   0  0  0  0  0  0  0  0  0  0  0  0
    9.0203  -17.1469   23.2824 C   0  0  1  0  0  0  0  0  0  0  0  0
    9.9726  -18.2249   23.6516 C   0  0  0  0  0  0  0  0  0  0  0  0
    9.8129  -18.6435   25.0839 C   0  0  0  0  0  0  0  0  0  0  0  0
   10.8660  -19.6348   25.5351 C   0  0  0  0  0  0  0  0  0  0  0  0
   10.5650  -20.0391   26.9668 C   0  0  0  0  0  0  0  0  0  0  0  0
   11.4075  -21.1386   27.3767 N   0  0  0  0  0  0  0  0  0  0  0  0
    9.1173  -15.9279   24.1286 C   0  0  0  0  0  0  0  0  0  0  0  0
   10.1246  -15.1456   24.0711 O   0  0  0  0  0  0  0  0  0  0  0  0
    5.6929  -11.9043   27.2304 C   0  0  0  0  0  0  0  0  0  0  0  0
    7.0794  -12.3553   26.8066 C   0  0  2  0  0  0  0  0  0  0  0  0
    7.9671  -11.2140   26.5121 C   0  0  0  0  0  0  0  0  0  0  0  0
    7.0942  -13.5313   25.9202 C   0  0  0  0  0  0  0  0  0  0  0  0
    8.3000  -14.4105   25.9525 C   0  0  2  0  0  0  0  0  0  0  0  0
    8.1153  -15.5481   25.0482 N   0  0  0  0  0  0  0  0  0  0  0  0
    8.7306  -14.8544   27.2742 C   0  0  0  0  0  0  0  0  0  0  0  0
    8.2244  -15.7492   27.9849 O   0  0  0  0  0  0  0  0  0  0  0  0
    9.8592  -14.2157   27.8575 O   0  0  0  0  0  0  0  0  0  0  0  0
  2  1  1  6
  3  2  1  0
  4  5  2  0
  4  3  1  0
  6  5  1  0
  7  8  2  0
  7  6  1  0
  8  4  1  0
  9 11  1  0
  9  2  1  0
 10  9  2  0
 12 11  1  0
 12 13  1  1
 13 14  1  0
 14 15  1  0
 15 16  1  0
 17 16  1  0
 18 12  1  0
 19 18  2  0
 21 23  1  0
 21 20  1  6
 22 21  1  0
 24 23  1  1
 24 26  1  0
 24 25  1  0
 25 18  1  0
 26 28  1  0
 27 26  2  0
M  END
$$$$
