HKL.pdb
     RDKit          3D

 28 28  0  0  1  0  0  0  0  0999 V2000
    9.4975  -15.7064   18.9209 N   0  0  0  0  0  0  0  0  0  0  0  0
    8.4443  -14.8678   19.5501 C   0  0  1  0  0  0  0  0  0  0  0  0
    7.2758  -14.8033   18.6289 C   0  0  0  0  0  0  0  0  0  0  0  0
    7.5718  -14.4097   17.2450 C   0  0  0  0  0  0  0  0  0  0  0  0
    7.9654  -13.1593   16.7910 C   0  0  0  0  0  0  0  0  0  0  0  0
    8.1315  -13.2285   15.4631 N   0  0  0  0  0  0  0  0  0  0  0  0
    7.8608  -14.4697   15.0493 C   0  0  0  0  0  0  0  0  0  0  0  0
    7.5205  -15.1724   16.1627 N   0  0  0  0  0  0  0  0  0  0  0  0
    8.1209  -15.4835   20.8864 C   0  0  0  0  0  0  0  0  0  0  0  0
    7.0836  -15.2317   21.5350 O   0  0  0  0  0  0  0  0  0  0  0  0
    9.0171  -16.4142   21.4911 N   0  0  0  0  0  0  0  0  0  0  0  0
    8.7061  -17.0505   22.7885 C   0  0  1  0  0  0  0  0  0  0  0  0
    9.5597  -18.2462   23.0050 C   0  0  0  0  0  0  0  0  0  0  0  0
    8.8631  -19.5104   22.5946 C   0  0  0  0  0  0  0  0  0  0  0  0
    9.7026  -20.7517   22.8173 C   0  0  0  0  0  0  0  0  0  0  0  0
    8.8936  -21.9632   22.3909 C   0  0  0  0  0  0  0  0  0  0  0  0
    9.6273  -23.1825   22.6392 N   0  0  0  0  0  0  0  0  0  0  0  0
    8.9026  -15.9684   23.7895 C   0  0  0  0  0  0  0  0  0  0  0  0
    9.9400  -15.2243   23.7830 O   0  0  0  0  0  0  0  0  0  0  0  0
    5.8146  -12.0905   27.3837 C   0  0  0  0  0  0  0  0  0  0  0  0
    7.1416  -12.7574   27.0675 C   0  0  2  0  0  0  0  0  0  0  0  0
    8.2604  -11.7954   27.0742 C   0  0  0  0  0  0  0  0  0  0  0  0
    7.0735  -13.7811   26.0110 C   0  0  0  0  0  0  0  0  0  0  0  0
    8.2475  -14.6880   25.8457 C   0  0  2  0  0  0  0  0  0  0  0  0
    7.9685  -15.6856   24.8099 N   0  0  0  0  0  0  0  0  0  0  0  0
    8.7418  -15.3201   27.0645 C   0  0  0  0  0  0  0  0  0  0  0  0
    8.2890  -16.3325   27.6408 O   0  0  0  0  0  0  0  0  0  0  0  0
    9.8740  -14.7438   27.7030 O   0  0  0  0  0  0  0  0  0  0  0  0
  2  1  1  6
  3  2  1  0
  4  5  2  0
  4  3  1  0
  6  5  1  0
  7  8  2  0
  7  6  1  0
  8  4  1  0
  9 11  1  0
  9  2  1  0
 10  9  2  0
 12 11  1  0
 12 13  1  1
 13 14  1  0
 14 15  1  0
 15 16  1  0
 17 16  1  0
 18 12  1  0
 19 18  2  0
 21 23  1  0
 21 20  1  6
 22 21  1  0
 24 23  1  1
 24 26  1  0
 24 25  1  0
 25 18  1  0
 26 28  1  0
 27 26  2  0
M  END
$$$$
