CHN.pdb
     RDKit          3D

 25 25  0  0  1  0  0  0  0  0999 V2000
    7.7015  -14.9142   15.8443 N   0  0  0  0  0  0  0  0  0  0  0  0
    8.7912  -14.8144   16.7662 C   0  0  1  0  0  0  0  0  0  0  0  0
    9.1011  -13.4229   17.2295 C   0  0  0  0  0  0  0  0  0  0  0  0
    7.7575  -12.6293   18.1088 S   0  0  0  0  0  0  0  0  0  0  0  0
    8.5456  -15.7596   17.9133 C   0  0  0  0  0  0  0  0  0  0  0  0
    7.3830  -16.1119   18.2289 O   0  0  0  0  0  0  0  0  0  0  0  0
    9.6113  -16.2866   18.6793 N   0  0  0  0  0  0  0  0  0  0  0  0
    9.3751  -17.2161   19.7319 C   0  0  1  0  0  0  0  0  0  0  0  0
    9.6498  -18.6155   19.2896 C   0  0  0  0  0  0  0  0  0  0  0  0
    9.4072  -19.6413   20.3303 C   0  0  0  0  0  0  0  0  0  0  0  0
   10.3037  -20.2244   21.1988 C   0  0  0  0  0  0  0  0  0  0  0  0
    9.6851  -21.1146   21.9911 N   0  0  0  0  0  0  0  0  0  0  0  0
    8.3849  -21.1080   21.6347 C   0  0  0  0  0  0  0  0  0  0  0  0
    8.2232  -20.2213   20.6367 N   0  0  0  0  0  0  0  0  0  0  0  0
   10.0110  -16.8539   21.0025 C   0  0  0  0  0  0  0  0  0  0  0  0
   11.1918  -16.4571   21.0065 O   0  0  0  0  0  0  0  0  0  0  0  0
    7.1415  -14.0454   23.4853 N   0  0  0  0  0  0  0  0  0  0  0  0
    8.4975  -14.4688   23.5853 C   0  0  0  0  0  0  0  0  0  0  0  0
    9.3666  -13.7381   23.0482 O   0  0  0  0  0  0  0  0  0  0  0  0
    8.9057  -15.7029   24.2798 C   0  0  0  0  0  0  0  0  0  0  0  0
    9.9020  -16.5110   23.4981 C   0  0  2  0  0  0  0  0  0  0  0  0
    9.3052  -16.9485   22.2177 N   0  0  0  0  0  0  0  0  0  0  0  0
   10.3388  -17.7184   24.2588 C   0  0  0  0  0  0  0  0  0  0  0  0
   11.1114  -17.6793   25.4026 O   0  0  0  0  0  0  0  0  0  0  0  0
   10.0052  -18.8892   23.8700 O   0  0  0  0  0  0  0  0  0  0  0  0
  2  1  1  6
  3  2  1  0
  4  3  1  0
  5  2  1  0
  5  6  2  0
  7  5  1  0
  8  7  1  0
  8  9  1  6
 10  9  1  0
 10 14  1  0
 11 12  1  0
 11 10  2  0
 12 13  1  0
 13 14  2  0
 15  8  1  0
 16 15  2  0
 18 17  1  0
 19 18  2  0
 20 18  1  0
 21 20  1  1
 21 22  1  0
 22 15  1  0
 23 24  1  0
 23 21  1  0
 25 23  2  0
M  END
$$$$
