CHN.pdb
     RDKit          3D

 25 25  0  0  1  0  0  0  0  0999 V2000
    5.2728  -17.5907   22.1924 N   0  0  0  0  0  0  0  0  0  0  0  0
    6.1227  -18.1718   21.1987 C   0  0  1  0  0  0  0  0  0  0  0  0
    5.5620  -18.1698   19.8085 C   0  0  0  0  0  0  0  0  0  0  0  0
    3.8059  -18.5128   19.7284 S   0  0  0  0  0  0  0  0  0  0  0  0
    7.4764  -17.5147   21.2723 C   0  0  0  0  0  0  0  0  0  0  0  0
    8.4483  -17.9503   20.6082 O   0  0  0  0  0  0  0  0  0  0  0  0
    7.7068  -16.3842   22.0901 N   0  0  0  0  0  0  0  0  0  0  0  0
    8.9843  -15.7570   22.1401 C   0  0  1  0  0  0  0  0  0  0  0  0
    8.8727  -14.2840   21.9223 C   0  0  0  0  0  0  0  0  0  0  0  0
    8.3494  -13.9040   20.5896 C   0  0  0  0  0  0  0  0  0  0  0  0
    7.2242  -13.1734   20.2760 C   0  0  0  0  0  0  0  0  0  0  0  0
    7.0967  -13.0479   18.9452 N   0  0  0  0  0  0  0  0  0  0  0  0
    8.1418  -13.6988   18.3959 C   0  0  0  0  0  0  0  0  0  0  0  0
    8.8913  -14.2112   19.3880 N   0  0  0  0  0  0  0  0  0  0  0  0
    9.7878  -16.1304   23.3084 C   0  0  0  0  0  0  0  0  0  0  0  0
   10.8586  -15.5347   23.5324 O   0  0  0  0  0  0  0  0  0  0  0  0
   11.1006  -17.9764   28.2941 N   0  0  0  0  0  0  0  0  0  0  0  0
   10.1477  -18.7022   27.5240 C   0  0  0  0  0  0  0  0  0  0  0  0
    9.9858  -19.9149   27.8085 O   0  0  0  0  0  0  0  0  0  0  0  0
    9.3647  -18.0951   26.4330 C   0  0  0  0  0  0  0  0  0  0  0  0
   10.2198  -17.6297   25.2890 C   0  0  2  0  0  0  0  0  0  0  0  0
    9.3654  -17.1529   24.1801 N   0  0  0  0  0  0  0  0  0  0  0  0
   11.0926  -18.7286   24.7810 C   0  0  0  0  0  0  0  0  0  0  0  0
   10.6909  -19.6801   23.8645 O   0  0  0  0  0  0  0  0  0  0  0  0
   12.2985  -18.8439   25.1884 O   0  0  0  0  0  0  0  0  0  0  0  0
  2  1  1  1
  3  2  1  0
  4  3  1  0
  5  2  1  0
  5  6  2  0
  7  5  1  0
  8  7  1  0
  8  9  1  1
 10  9  1  0
 10 14  1  0
 11 12  1  0
 11 10  2  0
 12 13  1  0
 13 14  2  0
 15  8  1  0
 16 15  2  0
 18 17  1  0
 19 18  2  0
 20 18  1  0
 21 20  1  1
 21 22  1  0
 22 15  1  0
 23 24  1  0
 23 21  1  0
 25 23  2  0
M  END
$$$$
