CHN.pdb
     RDKit          3D

 25 25  0  0  1  0  0  0  0  0999 V2000
    9.2007  -15.0426   19.1987 N   0  0  0  0  0  0  0  0  0  0  0  0
    8.8234  -13.9499   20.0419 C   0  0  1  0  0  0  0  0  0  0  0  0
    7.7722  -13.0459   19.4718 C   0  0  0  0  0  0  0  0  0  0  0  0
    7.3607  -13.3905   17.7631 S   0  0  0  0  0  0  0  0  0  0  0  0
    8.4428  -14.4896   21.3960 C   0  0  0  0  0  0  0  0  0  0  0  0
    7.9644  -13.7422   22.2836 O   0  0  0  0  0  0  0  0  0  0  0  0
    8.6090  -15.8558   21.7216 N   0  0  0  0  0  0  0  0  0  0  0  0
    8.2116  -16.3662   22.9903 C   0  0  1  0  0  0  0  0  0  0  0  0
    7.8515  -17.8126   22.9028 C   0  0  0  0  0  0  0  0  0  0  0  0
    7.4351  -18.4149   24.1904 C   0  0  0  0  0  0  0  0  0  0  0  0
    6.6539  -17.8742   25.1882 C   0  0  0  0  0  0  0  0  0  0  0  0
    6.5088  -18.7446   26.2002 N   0  0  0  0  0  0  0  0  0  0  0  0
    7.1976  -19.8516   25.8569 C   0  0  0  0  0  0  0  0  0  0  0  0
    7.7521  -19.6484   24.6488 N   0  0  0  0  0  0  0  0  0  0  0  0
    9.1382  -16.0446   24.0803 C   0  0  0  0  0  0  0  0  0  0  0  0
   10.3621  -16.0017   23.8526 O   0  0  0  0  0  0  0  0  0  0  0  0
   11.1177  -13.7004   28.4249 N   0  0  0  0  0  0  0  0  0  0  0  0
    9.7435  -14.0525   28.5497 C   0  0  0  0  0  0  0  0  0  0  0  0
    9.2492  -14.0298   29.7042 O   0  0  0  0  0  0  0  0  0  0  0  0
    8.9029  -14.4325   27.4003 C   0  0  0  0  0  0  0  0  0  0  0  0
    9.5780  -15.4095   26.4804 C   0  0  2  0  0  0  0  0  0  0  0  0
    8.6632  -15.7835   25.3803 N   0  0  0  0  0  0  0  0  0  0  0  0
    9.9834  -16.6486   27.2067 C   0  0  0  0  0  0  0  0  0  0  0  0
    9.4479  -17.8992   26.9698 O   0  0  0  0  0  0  0  0  0  0  0  0
   10.8790  -16.6064   28.1175 O   0  0  0  0  0  0  0  0  0  0  0  0
  2  1  1  6
  3  2  1  0
  4  3  1  0
  5  2  1  0
  5  6  2  0
  7  5  1  0
  8  7  1  0
  8  9  1  6
 10  9  1  0
 10 14  1  0
 11 12  1  0
 11 10  2  0
 12 13  1  0
 13 14  2  0
 15  8  1  0
 16 15  2  0
 18 17  1  0
 19 18  2  0
 20 18  1  0
 21 20  1  1
 21 22  1  0
 22 15  1  0
 23 24  1  0
 23 21  1  0
 25 23  2  0
M  END
$$$$
