CHN.pdb
     RDKit          3D

 25 25  0  0  1  0  0  0  0  0999 V2000
    8.7840  -14.6183   17.3953 N   0  0  0  0  0  0  0  0  0  0  0  0
    9.5216  -13.8470   18.3483 C   0  0  1  0  0  0  0  0  0  0  0  0
    8.7176  -13.3372   19.5063 C   0  0  0  0  0  0  0  0  0  0  0  0
    7.6297  -11.9745   19.0969 S   0  0  0  0  0  0  0  0  0  0  0  0
   10.7239  -14.6402   18.7897 C   0  0  0  0  0  0  0  0  0  0  0  0
   10.6608  -15.8837   18.9483 O   0  0  0  0  0  0  0  0  0  0  0  0
   11.9686  -14.0183   19.0432 N   0  0  0  0  0  0  0  0  0  0  0  0
   13.1244  -14.7845   19.3671 C   0  0  1  0  0  0  0  0  0  0  0  0
   14.3734  -14.0852   18.9421 C   0  0  0  0  0  0  0  0  0  0  0  0
   14.9147  -14.5433   17.6416 C   0  0  0  0  0  0  0  0  0  0  0  0
   14.4779  -15.5705   16.8340 C   0  0  0  0  0  0  0  0  0  0  0  0
   15.2418  -15.6657   15.7338 N   0  0  0  0  0  0  0  0  0  0  0  0
   16.1755  -14.6978   15.8293 C   0  0  0  0  0  0  0  0  0  0  0  0
   15.9746  -14.0265   16.9771 N   0  0  0  0  0  0  0  0  0  0  0  0
   13.1509  -15.2698   20.7505 C   0  0  0  0  0  0  0  0  0  0  0  0
   12.8337  -14.4998   21.6770 O   0  0  0  0  0  0  0  0  0  0  0  0
   11.9981  -19.3162   24.4855 N   0  0  0  0  0  0  0  0  0  0  0  0
   13.1627  -19.2759   23.6669 C   0  0  0  0  0  0  0  0  0  0  0  0
   14.2010  -19.8175   24.1213 O   0  0  0  0  0  0  0  0  0  0  0  0
   13.1909  -18.6374   22.3390 C   0  0  0  0  0  0  0  0  0  0  0  0
   13.4027  -17.1518   22.4093 C   0  0  2  0  0  0  0  0  0  0  0  0
   13.5296  -16.5939   21.0456 N   0  0  0  0  0  0  0  0  0  0  0  0
   14.6355  -16.8147   23.1800 C   0  0  0  0  0  0  0  0  0  0  0  0
   15.8103  -16.3655   22.6101 O   0  0  0  0  0  0  0  0  0  0  0  0
   14.6609  -16.9323   24.4524 O   0  0  0  0  0  0  0  0  0  0  0  0
  2  1  1  6
  3  2  1  0
  4  3  1  0
  5  2  1  0
  5  6  2  0
  7  5  1  0
  8  7  1  0
  8  9  1  1
 10  9  1  0
 10 14  1  0
 11 12  1  0
 11 10  2  0
 12 13  1  0
 13 14  2  0
 15  8  1  0
 16 15  2  0
 18 17  1  0
 19 18  2  0
 20 18  1  0
 21 20  1  6
 21 22  1  0
 22 15  1  0
 23 24  1  0
 23 21  1  0
 25 23  2  0
M  END
$$$$
