CHN.pdb
     RDKit          3D

 25 25  0  0  1  0  0  0  0  0999 V2000
   11.7414  -17.9837   16.8002 N   0  0  0  0  0  0  0  0  0  0  0  0
   10.8792  -18.3509   17.8813 C   0  0  1  0  0  0  0  0  0  0  0  0
   11.0079  -19.7733   18.3368 C   0  0  0  0  0  0  0  0  0  0  0  0
   12.4650  -20.0941   19.3277 S   0  0  0  0  0  0  0  0  0  0  0  0
   11.0668  -17.3686   19.0080 C   0  0  0  0  0  0  0  0  0  0  0  0
   12.1401  -16.7323   19.1448 O   0  0  0  0  0  0  0  0  0  0  0  0
   10.0451  -17.1243   19.9548 N   0  0  0  0  0  0  0  0  0  0  0  0
   10.2518  -16.2417   21.0531 C   0  0  1  0  0  0  0  0  0  0  0  0
    8.9775  -15.5795   21.4622 C   0  0  0  0  0  0  0  0  0  0  0  0
    8.4452  -14.6184   20.4687 C   0  0  0  0  0  0  0  0  0  0  0  0
    8.9817  -14.2353   19.2589 C   0  0  0  0  0  0  0  0  0  0  0  0
    8.1894  -13.3367   18.6527 N   0  0  0  0  0  0  0  0  0  0  0  0
    7.1373  -13.1373   19.4718 C   0  0  0  0  0  0  0  0  0  0  0  0
    7.2958  -13.9096   20.5613 N   0  0  0  0  0  0  0  0  0  0  0  0
   11.0013  -16.8363   22.1643 C   0  0  0  0  0  0  0  0  0  0  0  0
   10.8093  -18.0299   22.4647 O   0  0  0  0  0  0  0  0  0  0  0  0
   14.9727  -17.0258   22.3475 N   0  0  0  0  0  0  0  0  0  0  0  0
   15.0176  -16.0446   23.3786 C   0  0  0  0  0  0  0  0  0  0  0  0
   16.0667  -15.3602   23.4724 O   0  0  0  0  0  0  0  0  0  0  0  0
   13.9041  -15.8102   24.3151 C   0  0  0  0  0  0  0  0  0  0  0  0
   12.7017  -16.6602   24.0177 C   0  0  2  0  0  0  0  0  0  0  0  0
   11.9347  -16.0766   22.8959 N   0  0  0  0  0  0  0  0  0  0  0  0
   11.8044  -16.7668   25.2055 C   0  0  0  0  0  0  0  0  0  0  0  0
   12.0117  -17.6322   26.2613 O   0  0  0  0  0  0  0  0  0  0  0  0
   10.7620  -16.0339   25.3023 O   0  0  0  0  0  0  0  0  0  0  0  0
  2  1  1  6
  3  2  1  0
  4  3  1  0
  5  2  1  0
  5  6  2  0
  7  5  1  0
  8  7  1  0
  8  9  1  1
 10  9  1  0
 10 14  1  0
 11 12  1  0
 11 10  2  0
 12 13  1  0
 13 14  2  0
 15  8  1  0
 16 15  2  0
 18 17  1  0
 19 18  2  0
 20 18  1  0
 21 20  1  1
 21 22  1  0
 22 15  1  0
 23 24  1  0
 23 21  1  0
 25 23  2  0
M  END
$$$$
