CHN.pdb
     RDKit          3D

 25 25  0  0  1  0  0  0  0  0999 V2000
    6.9172  -14.6363   19.2154 N   0  0  0  0  0  0  0  0  0  0  0  0
    8.2918  -14.2500   19.3076 C   0  0  1  0  0  0  0  0  0  0  0  0
    8.5544  -12.7913   19.0832 C   0  0  0  0  0  0  0  0  0  0  0  0
    8.2922  -12.2530   17.3951 S   0  0  0  0  0  0  0  0  0  0  0  0
    8.8467  -14.7374   20.6207 C   0  0  0  0  0  0  0  0  0  0  0  0
    8.2745  -14.4752   21.7066 O   0  0  0  0  0  0  0  0  0  0  0  0
   10.0314  -15.5072   20.6834 N   0  0  0  0  0  0  0  0  0  0  0  0
   10.5858  -15.9089   21.9321 C   0  0  1  0  0  0  0  0  0  0  0  0
    9.7834  -17.0045   22.5528 C   0  0  0  0  0  0  0  0  0  0  0  0
    9.4189  -18.0955   21.6194 C   0  0  0  0  0  0  0  0  0  0  0  0
    9.6764  -18.2047   20.2704 C   0  0  0  0  0  0  0  0  0  0  0  0
    9.1759  -19.3518   19.7840 N   0  0  0  0  0  0  0  0  0  0  0  0
    8.5929  -19.9869   20.8206 C   0  0  0  0  0  0  0  0  0  0  0  0
    8.7417  -19.2280   21.9208 N   0  0  0  0  0  0  0  0  0  0  0  0
   12.0274  -16.1733   21.8883 C   0  0  0  0  0  0  0  0  0  0  0  0
   12.5778  -16.3928   20.7926 O   0  0  0  0  0  0  0  0  0  0  0  0
   17.2028  -16.0337   22.0641 N   0  0  0  0  0  0  0  0  0  0  0  0
   16.4956  -15.4569   23.1573 C   0  0  0  0  0  0  0  0  0  0  0  0
   17.1665  -15.1438   24.1720 O   0  0  0  0  0  0  0  0  0  0  0  0
   15.0410  -15.2206   23.1395 C   0  0  0  0  0  0  0  0  0  0  0  0
   14.2438  -16.4905   23.0476 C   0  0  2  0  0  0  0  0  0  0  0  0
   12.7975  -16.1824   23.0675 N   0  0  0  0  0  0  0  0  0  0  0  0
   14.5522  -17.4090   24.1828 C   0  0  0  0  0  0  0  0  0  0  0  0
   13.6798  -17.6882   25.2162 O   0  0  0  0  0  0  0  0  0  0  0  0
   15.6826  -18.0010   24.2531 O   0  0  0  0  0  0  0  0  0  0  0  0
  2  1  1  1
  3  2  1  0
  4  3  1  0
  5  2  1  0
  5  6  2  0
  7  5  1  0
  8  7  1  0
  8  9  1  6
 10  9  1  0
 10 14  1  0
 11 12  1  0
 11 10  2  0
 12 13  1  0
 13 14  2  0
 15  8  1  0
 16 15  2  0
 18 17  1  0
 19 18  2  0
 20 18  1  0
 21 20  1  1
 21 22  1  0
 22 15  1  0
 23 24  1  0
 23 21  1  0
 25 23  2  0
M  END
$$$$
