CHN.pdb
     RDKit          3D

 25 25  0  0  1  0  0  0  0  0999 V2000
   10.1254  -17.4901   16.3795 N   0  0  0  0  0  0  0  0  0  0  0  0
    9.3364  -17.7827   17.5367 C   0  0  1  0  0  0  0  0  0  0  0  0
    9.2649  -19.2349   17.9017 C   0  0  0  0  0  0  0  0  0  0  0  0
   10.8307  -20.0962   17.7822 S   0  0  0  0  0  0  0  0  0  0  0  0
    9.8147  -16.9267   18.6804 C   0  0  0  0  0  0  0  0  0  0  0  0
   10.7254  -16.0777   18.5215 O   0  0  0  0  0  0  0  0  0  0  0  0
    9.2595  -17.0445   19.9758 N   0  0  0  0  0  0  0  0  0  0  0  0
    9.7214  -16.2364   21.0535 C   0  0  1  0  0  0  0  0  0  0  0  0
    8.5861  -15.5561   21.7447 C   0  0  0  0  0  0  0  0  0  0  0  0
    7.8479  -14.5913   20.8969 C   0  0  0  0  0  0  0  0  0  0  0  0
    6.6190  -14.7331   20.2904 C   0  0  0  0  0  0  0  0  0  0  0  0
    6.2990  -13.6246   19.6037 N   0  0  0  0  0  0  0  0  0  0  0  0
    7.3231  -12.7629   19.7659 C   0  0  0  0  0  0  0  0  0  0  0  0
    8.2510  -13.3484   20.5436 N   0  0  0  0  0  0  0  0  0  0  0  0
   10.6495  -16.9216   21.9586 C   0  0  0  0  0  0  0  0  0  0  0  0
   10.5981  -18.1615   22.0666 O   0  0  0  0  0  0  0  0  0  0  0  0
   16.0468  -16.0728   24.7269 N   0  0  0  0  0  0  0  0  0  0  0  0
   15.1101  -16.7979   23.9365 C   0  0  0  0  0  0  0  0  0  0  0  0
   15.2767  -18.0396   23.8465 O   0  0  0  0  0  0  0  0  0  0  0  0
   13.9807  -16.1580   23.2386 C   0  0  0  0  0  0  0  0  0  0  0  0
   12.6785  -16.8750   23.4547 C   0  0  2  0  0  0  0  0  0  0  0  0
   11.5976  -16.1971   22.7069 N   0  0  0  0  0  0  0  0  0  0  0  0
   12.3104  -16.9089   24.9006 C   0  0  0  0  0  0  0  0  0  0  0  0
   12.7258  -17.8836   25.7861 O   0  0  0  0  0  0  0  0  0  0  0  0
   11.5637  -16.0021   25.4042 O   0  0  0  0  0  0  0  0  0  0  0  0
  2  1  1  6
  3  2  1  0
  4  3  1  0
  5  2  1  0
  5  6  2  0
  7  5  1  0
  8  7  1  0
  8  9  1  1
 10  9  1  0
 10 14  1  0
 11 12  1  0
 11 10  2  0
 12 13  1  0
 13 14  2  0
 15  8  1  0
 16 15  2  0
 18 17  1  0
 19 18  2  0
 20 18  1  0
 21 20  1  1
 21 22  1  0
 22 15  1  0
 23 24  1  0
 23 21  1  0
 25 23  2  0
M  END
$$$$
