CHN.pdb
     RDKit          3D

 25 25  0  0  1  0  0  0  0  0999 V2000
   10.8998  -16.1973   19.9152 N   0  0  0  0  0  0  0  0  0  0  0  0
   10.3453  -17.0581   20.9146 C   0  0  1  0  0  0  0  0  0  0  0  0
   11.0715  -18.3558   21.1039 C   0  0  0  0  0  0  0  0  0  0  0  0
   10.4185  -19.3723   22.4262 S   0  0  0  0  0  0  0  0  0  0  0  0
   10.2077  -16.2849   22.2002 C   0  0  0  0  0  0  0  0  0  0  0  0
   11.2122  -15.8134   22.7869 O   0  0  0  0  0  0  0  0  0  0  0  0
    8.9455  -16.0598   22.7970 N   0  0  0  0  0  0  0  0  0  0  0  0
    8.8223  -15.3192   24.0071 C   0  0  1  0  0  0  0  0  0  0  0  0
    7.5186  -14.5938   24.0670 C   0  0  0  0  0  0  0  0  0  0  0  0
    7.3703  -13.7050   25.2427 C   0  0  0  0  0  0  0  0  0  0  0  0
    8.2883  -13.4075   26.2260 C   0  0  0  0  0  0  0  0  0  0  0  0
    7.7637  -12.5558   27.1217 N   0  0  0  0  0  0  0  0  0  0  0  0
    6.5029  -12.3012   26.7175 C   0  0  0  0  0  0  0  0  0  0  0  0
    6.2716  -12.9940   25.5883 N   0  0  0  0  0  0  0  0  0  0  0  0
    9.1342  -16.0911   25.2142 C   0  0  0  0  0  0  0  0  0  0  0  0
    8.4430  -17.0868   25.5012 O   0  0  0  0  0  0  0  0  0  0  0  0
   12.0169  -18.0151   25.2898 N   0  0  0  0  0  0  0  0  0  0  0  0
   12.7328  -17.3312   26.3134 C   0  0  0  0  0  0  0  0  0  0  0  0
   13.9865  -17.4007   26.2796 O   0  0  0  0  0  0  0  0  0  0  0  0
   12.0704  -16.5641   27.3833 C   0  0  0  0  0  0  0  0  0  0  0  0
   10.5759  -16.5269   27.2362 C   0  0  2  0  0  0  0  0  0  0  0  0
   10.2040  -15.7220   26.0526 N   0  0  0  0  0  0  0  0  0  0  0  0
    9.9260  -15.9328   28.4412 C   0  0  0  0  0  0  0  0  0  0  0  0
    9.1464  -14.7933   28.4220 O   0  0  0  0  0  0  0  0  0  0  0  0
   10.0682  -16.4727   29.5909 O   0  0  0  0  0  0  0  0  0  0  0  0
  2  1  1  6
  3  2  1  0
  4  3  1  0
  5  2  1  0
  5  6  2  0
  7  5  1  0
  8  7  1  0
  8  9  1  1
 10  9  1  0
 10 14  1  0
 11 12  1  0
 11 10  2  0
 12 13  1  0
 13 14  2  0
 15  8  1  0
 16 15  2  0
 18 17  1  0
 19 18  2  0
 20 18  1  0
 21 20  1  1
 21 22  1  0
 22 15  1  0
 23 24  1  0
 23 21  1  0
 25 23  2  0
M  END
$$$$
