CHN.pdb
     RDKit          3D

 25 25  0  0  1  0  0  0  0  0999 V2000
    8.4840  -14.4136   17.2078 N   0  0  0  0  0  0  0  0  0  0  0  0
    9.3292  -13.6562   18.0792 C   0  0  1  0  0  0  0  0  0  0  0  0
    8.6375  -13.0570   19.2664 C   0  0  0  0  0  0  0  0  0  0  0  0
    7.3248  -11.9130   18.8467 S   0  0  0  0  0  0  0  0  0  0  0  0
   10.5094  -14.5064   18.4717 C   0  0  0  0  0  0  0  0  0  0  0  0
   10.4031  -15.7511   18.5937 O   0  0  0  0  0  0  0  0  0  0  0  0
   11.7811  -13.9388   18.7184 N   0  0  0  0  0  0  0  0  0  0  0  0
   12.8897  -14.7478   19.0983 C   0  0  1  0  0  0  0  0  0  0  0  0
   14.1670  -14.2110   18.5417 C   0  0  0  0  0  0  0  0  0  0  0  0
   14.5334  -14.7638   17.2172 C   0  0  0  0  0  0  0  0  0  0  0  0
   14.0696  -15.9017   16.5941 C   0  0  0  0  0  0  0  0  0  0  0  0
   14.6535  -16.0565   15.3949 N   0  0  0  0  0  0  0  0  0  0  0  0
   15.4974  -15.0164   15.2411 C   0  0  0  0  0  0  0  0  0  0  0  0
   15.4214  -14.2428   16.3385 N   0  0  0  0  0  0  0  0  0  0  0  0
   12.9427  -15.0537   20.5314 C   0  0  0  0  0  0  0  0  0  0  0  0
   12.8727  -14.1259   21.3597 O   0  0  0  0  0  0  0  0  0  0  0  0
   12.2217  -19.5223   24.5797 N   0  0  0  0  0  0  0  0  0  0  0  0
   12.1237  -18.1627   24.1674 C   0  0  0  0  0  0  0  0  0  0  0  0
   12.0623  -17.2932   25.0717 O   0  0  0  0  0  0  0  0  0  0  0  0
   12.0931  -17.7514   22.7525 C   0  0  0  0  0  0  0  0  0  0  0  0
   13.1238  -16.7088   22.4247 C   0  0  2  0  0  0  0  0  0  0  0  0
   13.0714  -16.3814   20.9835 N   0  0  0  0  0  0  0  0  0  0  0  0
   14.4996  -17.1817   22.7574 C   0  0  0  0  0  0  0  0  0  0  0  0
   15.0131  -17.2410   24.0379 O   0  0  0  0  0  0  0  0  0  0  0  0
   15.2967  -17.5671   21.8357 O   0  0  0  0  0  0  0  0  0  0  0  0
  2  1  1  1
  3  2  1  0
  4  3  1  0
  5  2  1  0
  5  6  2  0
  7  5  1  0
  8  7  1  0
  8  9  1  1
 10  9  1  0
 10 14  1  0
 11 12  1  0
 11 10  2  0
 12 13  1  0
 13 14  2  0
 15  8  1  0
 16 15  2  0
 18 17  1  0
 19 18  2  0
 20 18  1  0
 21 20  1  6
 21 22  1  0
 22 15  1  0
 23 24  1  0
 23 21  1  0
 25 23  2  0
M  END
$$$$
