CHN.pdb
     RDKit          3D

 25 25  0  0  1  0  0  0  0  0999 V2000
   12.9161  -15.9294   13.3647 N   0  0  0  0  0  0  0  0  0  0  0  0
   11.9898  -16.5946   14.2287 C   0  0  1  0  0  0  0  0  0  0  0  0
   12.3819  -17.9866   14.6233 C   0  0  0  0  0  0  0  0  0  0  0  0
   13.8780  -18.0739   15.6043 S   0  0  0  0  0  0  0  0  0  0  0  0
   11.7197  -15.7149   15.4216 C   0  0  0  0  0  0  0  0  0  0  0  0
   12.6068  -14.9584   15.8866 O   0  0  0  0  0  0  0  0  0  0  0  0
   10.4600  -15.7057   16.0643 N   0  0  0  0  0  0  0  0  0  0  0  0
   10.2559  -14.9908   17.2789 C   0  0  1  0  0  0  0  0  0  0  0  0
    8.8054  -14.7256   17.5133 C   0  0  0  0  0  0  0  0  0  0  0  0
    8.5166  -13.9842   18.7628 C   0  0  0  0  0  0  0  0  0  0  0  0
    8.4862  -12.6234   18.9763 C   0  0  0  0  0  0  0  0  0  0  0  0
    8.1841  -12.3514   20.2560 N   0  0  0  0  0  0  0  0  0  0  0  0
    8.0185  -13.5389   20.8726 C   0  0  0  0  0  0  0  0  0  0  0  0
    8.2193  -14.5164   19.9712 N   0  0  0  0  0  0  0  0  0  0  0  0
   10.9543  -15.5639   18.4339 C   0  0  0  0  0  0  0  0  0  0  0  0
   11.0263  -16.8016   18.5550 O   0  0  0  0  0  0  0  0  0  0  0  0
   14.6255  -16.2730   22.0747 N   0  0  0  0  0  0  0  0  0  0  0  0
   14.4766  -14.8897   21.7712 C   0  0  0  0  0  0  0  0  0  0  0  0
   15.1557  -14.0786   22.4485 O   0  0  0  0  0  0  0  0  0  0  0  0
   13.5766  -14.3898   20.7167 C   0  0  0  0  0  0  0  0  0  0  0  0
   12.3931  -15.2856   20.4856 C   0  0  2  0  0  0  0  0  0  0  0  0
   11.5444  -14.7344   19.4072 N   0  0  0  0  0  0  0  0  0  0  0  0
   11.5667  -15.4235   21.7206 C   0  0  0  0  0  0  0  0  0  0  0  0
   10.2593  -14.9935   21.8334 O   0  0  0  0  0  0  0  0  0  0  0  0
   12.0511  -15.9661   22.7715 O   0  0  0  0  0  0  0  0  0  0  0  0
  2  1  1  1
  3  2  1  0
  4  3  1  0
  5  2  1  0
  5  6  2  0
  7  5  1  0
  8  7  1  0
  8  9  1  1
 10  9  1  0
 10 14  1  0
 11 12  1  0
 11 10  2  0
 12 13  1  0
 13 14  2  0
 15  8  1  0
 16 15  2  0
 18 17  1  0
 19 18  2  0
 20 18  1  0
 21 20  1  1
 21 22  1  0
 22 15  1  0
 23 24  1  0
 23 21  1  0
 25 23  2  0
M  END
$$$$
