CHN.pdb
     RDKit          3D

 25 25  0  0  1  0  0  0  0  0999 V2000
   10.8569  -17.7999   17.1570 N   0  0  0  0  0  0  0  0  0  0  0  0
   10.3387  -18.0695   18.4631 C   0  0  1  0  0  0  0  0  0  0  0  0
   10.8469  -19.3295   19.0966 C   0  0  0  0  0  0  0  0  0  0  0  0
    9.9649  -19.8087   20.5800 S   0  0  0  0  0  0  0  0  0  0  0  0
   10.5608  -16.8600   19.3334 C   0  0  0  0  0  0  0  0  0  0  0  0
   11.6263  -16.1996   19.2704 O   0  0  0  0  0  0  0  0  0  0  0  0
    9.5814  -16.4208   20.2543 N   0  0  0  0  0  0  0  0  0  0  0  0
    9.8290  -15.3247   21.1290 C   0  0  1  0  0  0  0  0  0  0  0  0
    8.6519  -14.4084   21.1947 C   0  0  0  0  0  0  0  0  0  0  0  0
    8.1579  -13.9569   19.8732 C   0  0  0  0  0  0  0  0  0  0  0  0
    8.3999  -12.7703   19.2162 C   0  0  0  0  0  0  0  0  0  0  0  0
    7.7642  -12.7455   18.0337 N   0  0  0  0  0  0  0  0  0  0  0  0
    7.1090  -13.9187   17.9248 C   0  0  0  0  0  0  0  0  0  0  0  0
    7.3488  -14.6428   19.0324 N   0  0  0  0  0  0  0  0  0  0  0  0
   10.3586  -15.7143   22.4397 C   0  0  0  0  0  0  0  0  0  0  0  0
   10.4774  -14.8548   23.3335 O   0  0  0  0  0  0  0  0  0  0  0  0
   12.3106  -18.5674   26.4134 N   0  0  0  0  0  0  0  0  0  0  0  0
   10.9675  -18.8222   26.0145 C   0  0  0  0  0  0  0  0  0  0  0  0
   10.2793  -19.5623   26.7604 O   0  0  0  0  0  0  0  0  0  0  0  0
   10.3724  -18.2616   24.7883 C   0  0  0  0  0  0  0  0  0  0  0  0
   11.3448  -17.4418   23.9889 C   0  0  2  0  0  0  0  0  0  0  0  0
   10.7343  -17.0462   22.7014 N   0  0  0  0  0  0  0  0  0  0  0  0
   12.5971  -18.2041   23.7096 C   0  0  0  0  0  0  0  0  0  0  0  0
   13.6202  -18.3793   24.6203 O   0  0  0  0  0  0  0  0  0  0  0  0
   12.7871  -18.7496   22.5696 O   0  0  0  0  0  0  0  0  0  0  0  0
  2  1  1  6
  3  2  1  0
  4  3  1  0
  5  2  1  0
  5  6  2  0
  7  5  1  0
  8  7  1  0
  8  9  1  1
 10  9  1  0
 10 14  1  0
 11 12  1  0
 11 10  2  0
 12 13  1  0
 13 14  2  0
 15  8  1  0
 16 15  2  0
 18 17  1  0
 19 18  2  0
 20 18  1  0
 21 20  1  6
 21 22  1  0
 22 15  1  0
 23 24  1  0
 23 21  1  0
 25 23  2  0
M  END
$$$$
