KEI.pdb
     RDKit          3D

 27 26  0  0  1  0  0  0  0  0999 V2000
   19.0420  -13.1757  -20.2477 N   0  0  0  0  0  0  0  0  0  0  0  0
   18.2697  -12.0714  -19.7907 C   0  0  1  0  0  0  0  0  0  0  0  0
   17.3134  -12.3899  -18.6643 C   0  0  0  0  0  0  0  0  0  0  0  0
   16.2423  -13.3411  -19.0358 C   0  0  0  0  0  0  0  0  0  0  0  0
   15.1549  -13.5921  -18.0641 C   0  0  0  0  0  0  0  0  0  0  0  0
   14.0474  -14.4799  -18.5175 C   0  0  0  0  0  0  0  0  0  0  0  0
   13.0855  -14.6951  -17.4872 N   0  0  0  0  0  0  0  0  0  0  0  0
   19.1902  -10.9769  -19.3588 C   0  0  0  0  0  0  0  0  0  0  0  0
   20.3487  -11.2813  -18.9000 O   0  0  0  0  0  0  0  0  0  0  0  0
   18.8008   -9.6367  -19.4526 N   0  0  0  0  0  0  0  0  0  0  0  0
   19.7181   -8.5154  -19.0437 C   0  0  1  0  0  0  0  0  0  0  0  0
   19.0810   -7.2922  -19.5633 C   0  0  0  0  0  0  0  0  0  0  0  0
   19.6559   -5.9625  -19.3706 C   0  0  0  0  0  0  0  0  0  0  0  0
   19.8561   -5.4600  -18.0190 C   0  0  0  0  0  0  0  0  0  0  0  0
   20.9945   -5.3158  -17.5211 O   0  0  0  0  0  0  0  0  0  0  0  0
   19.8497   -8.6128  -17.6060 C   0  0  0  0  0  0  0  0  0  0  0  0
   18.8360   -8.9649  -16.8989 O   0  0  0  0  0  0  0  0  0  0  0  0
   18.7621   -5.1225  -17.2335 O   0  0  0  0  0  0  0  0  0  0  0  0
   22.8753  -11.0933  -13.2390 C   0  0  0  0  0  0  0  0  0  0  0  0
   22.0307   -9.9214  -13.6493 C   0  0  0  0  0  0  0  0  0  0  0  0
   22.0289   -9.6894  -15.1273 C   0  0  2  0  0  0  0  0  0  0  0  0
   23.3598   -9.3325  -15.6913 C   0  0  0  0  0  0  0  0  0  0  0  0
   21.0646   -8.5267  -15.4122 C   0  0  2  0  0  0  0  0  0  0  0  0
   21.0466   -8.3612  -16.8473 N   0  0  0  0  0  0  0  0  0  0  0  0
   21.4730   -7.3201  -14.6939 C   0  0  0  0  0  0  0  0  0  0  0  0
   22.1260   -6.2818  -15.3223 O   0  0  0  0  0  0  0  0  0  0  0  0
   21.2511   -7.1649  -13.4596 O   0  0  0  0  0  0  0  0  0  0  0  0
  2  1  1  1
  3  2  1  0
  4  3  1  0
  4  5  1  0
  5  6  1  0
  7  6  1  0
  8  2  1  0
  8  9  2  0
 10  8  1  0
 11 10  1  0
 11 12  1  1
 13 12  1  0
 13 14  1  0
 14 15  2  0
 16 24  1  0
 16 11  1  0
 17 16  2  0
 18 14  1  0
 19 20  1  0
 20 21  1  0
 21 22  1  1
 23 24  1  6
 23 21  1  0
 25 23  1  0
 26 25  1  0
 27 25  2  0
M  END
$$$$
