KEI.pdb
     RDKit          3D

 27 26  0  0  1  0  0  0  0  0999 V2000
   18.2982  -14.5046  -18.8681 N   0  0  0  0  0  0  0  0  0  0  0  0
   17.6795  -13.6815  -17.8860 C   0  0  1  0  0  0  0  0  0  0  0  0
   17.4697  -14.3450  -16.5441 C   0  0  0  0  0  0  0  0  0  0  0  0
   17.8169  -15.7834  -16.5238 C   0  0  0  0  0  0  0  0  0  0  0  0
   18.4353  -16.3415  -15.3008 C   0  0  0  0  0  0  0  0  0  0  0  0
   18.8099  -17.7832  -15.3414 C   0  0  0  0  0  0  0  0  0  0  0  0
   19.3588  -18.2230  -14.1011 N   0  0  0  0  0  0  0  0  0  0  0  0
   18.4963  -12.4447  -17.7000 C   0  0  0  0  0  0  0  0  0  0  0  0
   19.7628  -12.4986  -17.8957 O   0  0  0  0  0  0  0  0  0  0  0  0
   17.8942  -11.2408  -17.3196 N   0  0  0  0  0  0  0  0  0  0  0  0
   18.6399   -9.9340  -17.3641 C   0  0  1  0  0  0  0  0  0  0  0  0
   17.5954   -8.8960  -17.3025 C   0  0  0  0  0  0  0  0  0  0  0  0
   17.9035   -7.4791  -17.1213 C   0  0  0  0  0  0  0  0  0  0  0  0
   16.8142   -6.5243  -16.9751 C   0  0  0  0  0  0  0  0  0  0  0  0
   16.8123   -5.6428  -16.0875 O   0  0  0  0  0  0  0  0  0  0  0  0
   19.5763   -9.9723  -16.2616 C   0  0  0  0  0  0  0  0  0  0  0  0
   19.2055  -10.4584  -15.1313 O   0  0  0  0  0  0  0  0  0  0  0  0
   15.7269   -6.5726  -17.8372 O   0  0  0  0  0  0  0  0  0  0  0  0
   25.2994  -10.7929  -14.4985 C   0  0  0  0  0  0  0  0  0  0  0  0
   23.9375  -10.2098  -14.2527 C   0  0  0  0  0  0  0  0  0  0  0  0
   23.1039  -10.1249  -15.4922 C   0  0  2  0  0  0  0  0  0  0  0  0
   23.6958   -9.2857  -16.5701 C   0  0  0  0  0  0  0  0  0  0  0  0
   21.7513   -9.5095  -15.0991 C   0  0  2  0  0  0  0  0  0  0  0  0
   20.9419   -9.5190  -16.2958 N   0  0  0  0  0  0  0  0  0  0  0  0
   21.9296   -8.1743  -14.5296 C   0  0  0  0  0  0  0  0  0  0  0  0
   22.0331   -7.9677  -13.1710 O   0  0  0  0  0  0  0  0  0  0  0  0
   21.9967   -7.1391  -15.2512 O   0  0  0  0  0  0  0  0  0  0  0  0
  2  1  1  6
  3  2  1  0
  4  3  1  0
  4  5  1  0
  5  6  1  0
  7  6  1  0
  8  2  1  0
  8  9  2  0
 10  8  1  0
 11 10  1  0
 11 12  1  1
 13 12  1  0
 13 14  1  0
 14 15  2  0
 16 24  1  0
 16 11  1  0
 17 16  2  0
 18 14  1  0
 19 20  1  0
 20 21  1  0
 21 22  1  6
 23 24  1  6
 23 21  1  0
 25 23  1  0
 26 25  1  0
 27 25  2  0
M  END
$$$$
