KEI.pdb
     RDKit          3D

 27 26  0  0  1  0  0  0  0  0999 V2000
   20.2230  -13.6772  -20.1198 N   0  0  0  0  0  0  0  0  0  0  0  0
   19.4056  -12.5182  -20.0044 C   0  0  1  0  0  0  0  0  0  0  0  0
   18.1091  -12.7291  -19.2566 C   0  0  0  0  0  0  0  0  0  0  0  0
   18.1976  -13.7304  -18.1704 C   0  0  0  0  0  0  0  0  0  0  0  0
   16.9646  -14.0758  -17.4286 C   0  0  0  0  0  0  0  0  0  0  0  0
   17.0762  -15.1686  -16.4219 C   0  0  0  0  0  0  0  0  0  0  0  0
   15.8193  -15.4602  -15.8150 N   0  0  0  0  0  0  0  0  0  0  0  0
   20.1868  -11.4339  -19.3368 C   0  0  0  0  0  0  0  0  0  0  0  0
   21.2000  -11.7486  -18.6160 O   0  0  0  0  0  0  0  0  0  0  0  0
   19.8247  -10.0918  -19.4932 N   0  0  0  0  0  0  0  0  0  0  0  0
   20.6539   -8.9758  -18.9165 C   0  0  1  0  0  0  0  0  0  0  0  0
   20.2210   -7.7660  -19.6384 C   0  0  0  0  0  0  0  0  0  0  0  0
   20.7472   -6.4372  -19.3340 C   0  0  0  0  0  0  0  0  0  0  0  0
   20.2287   -5.2819  -20.0524 C   0  0  0  0  0  0  0  0  0  0  0  0
   19.4076   -5.3908  -20.9897 O   0  0  0  0  0  0  0  0  0  0  0  0
   20.4120   -8.9963  -17.4900 C   0  0  0  0  0  0  0  0  0  0  0  0
   19.2204   -9.1949  -17.0517 O   0  0  0  0  0  0  0  0  0  0  0  0
   20.6445   -4.0034  -19.7057 O   0  0  0  0  0  0  0  0  0  0  0  0
   24.0609  -10.7152  -13.8326 C   0  0  0  0  0  0  0  0  0  0  0  0
   23.2222   -9.7078  -14.5653 C   0  0  0  0  0  0  0  0  0  0  0  0
   21.7535   -9.9142  -14.3689 C   0  0  2  0  0  0  0  0  0  0  0  0
   21.2353  -11.1911  -14.9326 C   0  0  0  0  0  0  0  0  0  0  0  0
   21.0255   -8.7554  -15.0689 C   0  0  2  0  0  0  0  0  0  0  0  0
   21.4040   -8.8250  -16.4614 N   0  0  0  0  0  0  0  0  0  0  0  0
   21.3539   -7.4759  -14.4414 C   0  0  0  0  0  0  0  0  0  0  0  0
   22.0477   -6.4910  -15.1106 O   0  0  0  0  0  0  0  0  0  0  0  0
   21.0211   -7.2050  -13.2528 O   0  0  0  0  0  0  0  0  0  0  0  0
  2  1  1  1
  3  2  1  0
  4  3  1  0
  4  5  1  0
  5  6  1  0
  7  6  1  0
  8  2  1  0
  8  9  2  0
 10  8  1  0
 11 10  1  0
 11 12  1  6
 13 12  1  0
 13 14  1  0
 14 15  2  0
 16 24  1  0
 16 11  1  0
 17 16  2  0
 18 14  1  0
 19 20  1  0
 20 21  1  0
 21 22  1  6
 23 24  1  6
 23 21  1  0
 25 23  1  0
 26 25  1  0
 27 25  2  0
M  END
$$$$
