KEI.pdb
     RDKit          3D

 27 26  0  0  1  0  0  0  0  0999 V2000
   22.6874  -21.1877  -13.5341 N   0  0  0  0  0  0  0  0  0  0  0  0
   22.8769  -20.4817  -12.3132 C   0  0  1  0  0  0  0  0  0  0  0  0
   21.7591  -20.6421  -11.3084 C   0  0  0  0  0  0  0  0  0  0  0  0
   20.8350  -21.7579  -11.6102 C   0  0  0  0  0  0  0  0  0  0  0  0
   19.9669  -21.6504  -12.8038 C   0  0  0  0  0  0  0  0  0  0  0  0
   18.9906  -22.7552  -13.0199 C   0  0  0  0  0  0  0  0  0  0  0  0
   18.2389  -22.5711  -14.2175 N   0  0  0  0  0  0  0  0  0  0  0  0
   24.1629  -20.9183  -11.6909 C   0  0  0  0  0  0  0  0  0  0  0  0
   24.4885  -22.1581  -11.7367 O   0  0  0  0  0  0  0  0  0  0  0  0
   25.0059  -19.9925  -11.0672 N   0  0  0  0  0  0  0  0  0  0  0  0
   26.3866  -20.3682  -10.6001 C   0  0  1  0  0  0  0  0  0  0  0  0
   27.3037  -19.6425  -11.4969 C   0  0  0  0  0  0  0  0  0  0  0  0
   28.5350  -20.2371  -12.0125 C   0  0  0  0  0  0  0  0  0  0  0  0
   28.5339  -20.8493  -13.3334 C   0  0  0  0  0  0  0  0  0  0  0  0
   28.2290  -20.2118  -14.3656 O   0  0  0  0  0  0  0  0  0  0  0  0
   26.4424  -20.0150   -9.1980 C   0  0  0  0  0  0  0  0  0  0  0  0
   25.6525  -19.1108   -8.7400 O   0  0  0  0  0  0  0  0  0  0  0  0
   28.8784  -22.1863  -13.4804 O   0  0  0  0  0  0  0  0  0  0  0  0
   29.5283  -21.0731   -3.8868 C   0  0  0  0  0  0  0  0  0  0  0  0
   28.3747  -20.5300   -4.6802 C   0  0  0  0  0  0  0  0  0  0  0  0
   28.4603  -20.8571   -6.1376 C   0  0  2  0  0  0  0  0  0  0  0  0
   29.7251  -20.4181   -6.7889 C   0  0  0  0  0  0  0  0  0  0  0  0
   27.2922  -20.1472   -6.8408 C   0  0  2  0  0  0  0  0  0  0  0  0
   27.3135  -20.5996   -8.2127 N   0  0  0  0  0  0  0  0  0  0  0  0
   27.4051  -18.6953   -6.7066 C   0  0  0  0  0  0  0  0  0  0  0  0
   28.0389  -17.9213   -7.6545 O   0  0  0  0  0  0  0  0  0  0  0  0
   26.9297  -18.0728   -5.7149 O   0  0  0  0  0  0  0  0  0  0  0  0
  2  1  1  6
  3  2  1  0
  4  3  1  0
  4  5  1  0
  5  6  1  0
  7  6  1  0
  8  2  1  0
  8  9  2  0
 10  8  1  0
 11 10  1  0
 11 12  1  6
 13 12  1  0
 13 14  1  0
 14 15  2  0
 16 24  1  0
 16 11  1  0
 17 16  2  0
 18 14  1  0
 19 20  1  0
 20 21  1  0
 21 22  1  6
 23 24  1  6
 23 21  1  0
 25 23  1  0
 26 25  1  0
 27 25  2  0
M  END
$$$$
