KEI.pdb
     RDKit          3D

 27 26  0  0  1  0  0  0  0  0999 V2000
   18.7569  -12.6764  -18.1079 N   0  0  0  0  0  0  0  0  0  0  0  0
   19.9676  -12.0922  -17.6411 C   0  0  1  0  0  0  0  0  0  0  0  0
   21.1522  -12.2670  -18.5635 C   0  0  0  0  0  0  0  0  0  0  0  0
   21.4503  -13.6773  -18.8987 C   0  0  0  0  0  0  0  0  0  0  0  0
   21.9130  -14.5756  -17.8176 C   0  0  0  0  0  0  0  0  0  0  0  0
   22.2280  -15.9792  -18.2061 C   0  0  0  0  0  0  0  0  0  0  0  0
   22.5813  -16.7748  -17.0768 N   0  0  0  0  0  0  0  0  0  0  0  0
   19.7451  -10.6352  -17.3982 C   0  0  0  0  0  0  0  0  0  0  0  0
   19.7531   -9.8285  -18.3953 O   0  0  0  0  0  0  0  0  0  0  0  0
   19.5284  -10.1511  -16.1037 N   0  0  0  0  0  0  0  0  0  0  0  0
   19.1418   -8.7189  -15.8485 C   0  0  1  0  0  0  0  0  0  0  0  0
   17.9423   -8.7934  -14.9955 C   0  0  0  0  0  0  0  0  0  0  0  0
   16.6028   -9.0099  -15.5381 C   0  0  0  0  0  0  0  0  0  0  0  0
   15.9988  -10.3312  -15.4433 C   0  0  0  0  0  0  0  0  0  0  0  0
   15.3849  -10.8558  -16.3986 O   0  0  0  0  0  0  0  0  0  0  0  0
   20.3079   -8.0894  -15.2674 C   0  0  0  0  0  0  0  0  0  0  0  0
   20.9463   -8.6848  -14.3243 O   0  0  0  0  0  0  0  0  0  0  0  0
   16.0920  -11.0552  -14.2622 O   0  0  0  0  0  0  0  0  0  0  0  0
   23.9434   -6.1003  -18.3603 C   0  0  0  0  0  0  0  0  0  0  0  0
   23.0959   -6.6282  -17.2386 C   0  0  0  0  0  0  0  0  0  0  0  0
   22.8662   -5.6230  -16.1546 C   0  0  2  0  0  0  0  0  0  0  0  0
   24.1140   -5.0726  -15.5574 C   0  0  0  0  0  0  0  0  0  0  0  0
   22.0719   -6.3197  -15.0380 C   0  0  2  0  0  0  0  0  0  0  0  0
   20.8651   -6.8202  -15.6548 N   0  0  0  0  0  0  0  0  0  0  0  0
   21.8188   -5.4040  -13.9262 C   0  0  0  0  0  0  0  0  0  0  0  0
   22.6536   -5.3356  -12.8318 O   0  0  0  0  0  0  0  0  0  0  0  0
   20.8216   -4.6280  -13.9080 O   0  0  0  0  0  0  0  0  0  0  0  0
  2  1  1  6
  3  2  1  0
  4  3  1  0
  4  5  1  0
  5  6  1  0
  7  6  1  0
  8  2  1  0
  8  9  2  0
 10  8  1  0
 11 10  1  0
 11 12  1  1
 13 12  1  0
 13 14  1  0
 14 15  2  0
 16 24  1  0
 16 11  1  0
 17 16  2  0
 18 14  1  0
 19 20  1  0
 20 21  1  0
 21 22  1  1
 23 24  1  6
 23 21  1  0
 25 23  1  0
 26 25  1  0
 27 25  2  0
M  END
$$$$
