KEI.pdb
     RDKit          3D

 27 26  0  0  1  0  0  0  0  0999 V2000
   23.9643  -26.4941  -16.1850 N   0  0  0  0  0  0  0  0  0  0  0  0
   23.4525  -25.7400  -15.0922 C   0  0  1  0  0  0  0  0  0  0  0  0
   23.0348  -26.5628  -13.8950 C   0  0  0  0  0  0  0  0  0  0  0  0
   21.7476  -27.2713  -14.0718 C   0  0  0  0  0  0  0  0  0  0  0  0
   20.5787  -26.4997  -14.5493 C   0  0  0  0  0  0  0  0  0  0  0  0
   19.2876  -27.2372  -14.6467 C   0  0  0  0  0  0  0  0  0  0  0  0
   18.2456  -26.4145  -15.1668 N   0  0  0  0  0  0  0  0  0  0  0  0
   24.4766  -24.7390  -14.6671 C   0  0  0  0  0  0  0  0  0  0  0  0
   25.6549  -25.1437  -14.3619 O   0  0  0  0  0  0  0  0  0  0  0  0
   24.1619  -23.3776  -14.6025 N   0  0  0  0  0  0  0  0  0  0  0  0
   25.1696  -22.3525  -14.1558 C   0  0  1  0  0  0  0  0  0  0  0  0
   25.0996  -21.2824  -15.1667 C   0  0  0  0  0  0  0  0  0  0  0  0
   25.8217  -20.0196  -15.0275 C   0  0  0  0  0  0  0  0  0  0  0  0
   26.8257  -19.6581  -16.0179 C   0  0  0  0  0  0  0  0  0  0  0  0
   27.8025  -18.9263  -15.7435 O   0  0  0  0  0  0  0  0  0  0  0  0
   24.7963  -21.9893  -12.8058 C   0  0  0  0  0  0  0  0  0  0  0  0
   23.5528  -21.8929  -12.4960 O   0  0  0  0  0  0  0  0  0  0  0  0
   26.7185  -20.1276  -17.3201 O   0  0  0  0  0  0  0  0  0  0  0  0
   26.9782  -19.9454   -7.4240 C   0  0  0  0  0  0  0  0  0  0  0  0
   25.9870  -19.8572   -8.5488 C   0  0  0  0  0  0  0  0  0  0  0  0
   26.4582  -20.5303   -9.7991 C   0  0  2  0  0  0  0  0  0  0  0  0
   27.1097  -19.6159  -10.7768 C   0  0  0  0  0  0  0  0  0  0  0  0
   25.2298  -21.1561  -10.4790 C   0  0  2  0  0  0  0  0  0  0  0  0
   25.7029  -21.7256  -11.7196 N   0  0  0  0  0  0  0  0  0  0  0  0
   24.1710  -20.1641  -10.6623 C   0  0  0  0  0  0  0  0  0  0  0  0
   23.2170  -19.9270   -9.6964 O   0  0  0  0  0  0  0  0  0  0  0  0
   24.0727  -19.4725  -11.7154 O   0  0  0  0  0  0  0  0  0  0  0  0
  2  1  1  6
  3  2  1  0
  4  3  1  0
  4  5  1  0
  5  6  1  0
  7  6  1  0
  8  2  1  0
  8  9  2  0
 10  8  1  0
 11 10  1  0
 11 12  1  6
 13 12  1  0
 13 14  1  0
 14 15  2  0
 16 24  1  0
 16 11  1  0
 17 16  2  0
 18 14  1  0
 19 20  1  0
 20 21  1  0
 21 22  1  6
 23 24  1  6
 23 21  1  0
 25 23  1  0
 26 25  1  0
 27 25  2  0
M  END
$$$$
