KEI.pdb
     RDKit          3D

 27 26  0  0  1  0  0  0  0  0999 V2000
   26.8940  -20.7669  -16.6667 N   0  0  0  0  0  0  0  0  0  0  0  0
   25.6766  -21.4100  -16.3072 C   0  0  1  0  0  0  0  0  0  0  0  0
   25.8239  -22.5285  -15.3012 C   0  0  0  0  0  0  0  0  0  0  0  0
   26.4364  -23.7572  -15.8536 C   0  0  0  0  0  0  0  0  0  0  0  0
   25.6177  -24.6162  -16.7377 C   0  0  0  0  0  0  0  0  0  0  0  0
   24.9921  -25.8142  -16.1104 C   0  0  0  0  0  0  0  0  0  0  0  0
   24.1802  -26.5337  -17.0358 N   0  0  0  0  0  0  0  0  0  0  0  0
   24.7250  -20.3903  -15.7721 C   0  0  0  0  0  0  0  0  0  0  0  0
   25.1772  -19.4389  -15.0403 O   0  0  0  0  0  0  0  0  0  0  0  0
   23.3588  -20.4654  -16.0630 N   0  0  0  0  0  0  0  0  0  0  0  0
   22.3761  -19.4672  -15.5118 C   0  0  1  0  0  0  0  0  0  0  0  0
   21.6774  -18.9276  -16.6919 C   0  0  0  0  0  0  0  0  0  0  0  0
   22.3774  -18.2406  -17.7752 C   0  0  0  0  0  0  0  0  0  0  0  0
   21.6176  -17.7380  -18.9108 C   0  0  0  0  0  0  0  0  0  0  0  0
   20.3801  -17.8926  -19.0084 O   0  0  0  0  0  0  0  0  0  0  0  0
   21.5647  -20.1925  -14.5581 C   0  0  0  0  0  0  0  0  0  0  0  0
   21.2600  -21.4195  -14.7883 O   0  0  0  0  0  0  0  0  0  0  0  0
   22.2649  -17.0608  -19.9356 O   0  0  0  0  0  0  0  0  0  0  0  0
   20.5114  -20.9459   -8.6348 C   0  0  0  0  0  0  0  0  0  0  0  0
   20.0729  -21.1119  -10.0614 C   0  0  0  0  0  0  0  0  0  0  0  0
   20.8482  -20.2596  -11.0157 C   0  0  2  0  0  0  0  0  0  0  0  0
   20.7622  -18.7992  -10.7390 C   0  0  0  0  0  0  0  0  0  0  0  0
   20.2846  -20.5107  -12.4236 C   0  0  2  0  0  0  0  0  0  0  0  0
   21.0495  -19.6733  -13.3186 N   0  0  0  0  0  0  0  0  0  0  0  0
   18.8471  -20.2452  -12.4668 C   0  0  0  0  0  0  0  0  0  0  0  0
   17.9165  -21.2073  -12.1390 O   0  0  0  0  0  0  0  0  0  0  0  0
   18.3810  -19.1213  -12.8081 O   0  0  0  0  0  0  0  0  0  0  0  0
  2  1  1  1
  3  2  1  0
  4  3  1  0
  4  5  1  0
  5  6  1  0
  7  6  1  0
  8  2  1  0
  8  9  2  0
 10  8  1  0
 11 10  1  0
 11 12  1  6
 13 12  1  0
 13 14  1  0
 14 15  2  0
 16 24  1  0
 16 11  1  0
 17 16  2  0
 18 14  1  0
 19 20  1  0
 20 21  1  0
 21 22  1  1
 23 24  1  6
 23 21  1  0
 25 23  1  0
 26 25  1  0
 27 25  2  0
M  END
$$$$
