KEI.pdb
     RDKit          3D

 27 26  0  0  1  0  0  0  0  0999 V2000
   19.6883  -12.8331  -16.2962 N   0  0  0  0  0  0  0  0  0  0  0  0
   20.0514  -12.1884  -17.5116 C   0  0  1  0  0  0  0  0  0  0  0  0
   19.4431  -12.7934  -18.7561 C   0  0  0  0  0  0  0  0  0  0  0  0
   19.2472  -14.2583  -18.6784 C   0  0  0  0  0  0  0  0  0  0  0  0
   20.2551  -15.1382  -19.3105 C   0  0  0  0  0  0  0  0  0  0  0  0
   20.0103  -16.6052  -19.2193 C   0  0  0  0  0  0  0  0  0  0  0  0
   21.0517  -17.3556  -19.8403 N   0  0  0  0  0  0  0  0  0  0  0  0
   19.6726  -10.7456  -17.4314 C   0  0  0  0  0  0  0  0  0  0  0  0
   19.5859  -10.0626  -18.5136 O   0  0  0  0  0  0  0  0  0  0  0  0
   19.4127  -10.1423  -16.1964 N   0  0  0  0  0  0  0  0  0  0  0  0
   19.0541   -8.6844  -16.0874 C   0  0  1  0  0  0  0  0  0  0  0  0
   17.8088   -8.6553  -15.2999 C   0  0  0  0  0  0  0  0  0  0  0  0
   16.6923   -7.7702  -15.6249 C   0  0  0  0  0  0  0  0  0  0  0  0
   15.5566   -7.6905  -14.7176 C   0  0  0  0  0  0  0  0  0  0  0  0
   15.6091   -7.0685  -13.6336 O   0  0  0  0  0  0  0  0  0  0  0  0
   20.2048   -8.0345  -15.4980 C   0  0  0  0  0  0  0  0  0  0  0  0
   20.8445   -8.6170  -14.5478 O   0  0  0  0  0  0  0  0  0  0  0  0
   14.3617   -8.3188  -15.0424 O   0  0  0  0  0  0  0  0  0  0  0  0
   25.2766   -5.3488  -17.0351 C   0  0  0  0  0  0  0  0  0  0  0  0
   24.2357   -5.5591  -15.9733 C   0  0  0  0  0  0  0  0  0  0  0  0
   22.9488   -6.0985  -16.5130 C   0  0  2  0  0  0  0  0  0  0  0  0
   22.2870   -5.2149  -17.5119 C   0  0  0  0  0  0  0  0  0  0  0  0
   21.9881   -6.2777  -15.3265 C   0  0  2  0  0  0  0  0  0  0  0  0
   20.7448   -6.7575  -15.8842 N   0  0  0  0  0  0  0  0  0  0  0  0
   21.8448   -5.0305  -14.5763 C   0  0  0  0  0  0  0  0  0  0  0  0
   20.7403   -4.2179  -14.7146 O   0  0  0  0  0  0  0  0  0  0  0  0
   22.7251   -4.6302  -13.7630 O   0  0  0  0  0  0  0  0  0  0  0  0
  2  1  1  1
  3  2  1  0
  4  3  1  0
  4  5  1  0
  5  6  1  0
  7  6  1  0
  8  2  1  0
  8  9  2  0
 10  8  1  0
 11 10  1  0
 11 12  1  1
 13 12  1  0
 13 14  1  0
 14 15  2  0
 16 24  1  0
 16 11  1  0
 17 16  2  0
 18 14  1  0
 19 20  1  0
 20 21  1  0
 21 22  1  6
 23 24  1  6
 23 21  1  0
 25 23  1  0
 26 25  1  0
 27 25  2  0
M  END
$$$$
