KEI.pdb
     RDKit          3D

 27 26  0  0  1  0  0  0  0  0999 V2000
   17.0860  -12.2440  -14.0317 N   0  0  0  0  0  0  0  0  0  0  0  0
   16.7024  -10.8917  -14.2526 C   0  0  1  0  0  0  0  0  0  0  0  0
   15.2253  -10.6841  -14.4975 C   0  0  0  0  0  0  0  0  0  0  0  0
   14.6246  -11.6708  -15.4224 C   0  0  0  0  0  0  0  0  0  0  0  0
   13.7691  -11.1747  -16.5231 C   0  0  0  0  0  0  0  0  0  0  0  0
   13.1861  -12.2033  -17.4301 C   0  0  0  0  0  0  0  0  0  0  0  0
   12.4480  -11.6116  -18.4970 N   0  0  0  0  0  0  0  0  0  0  0  0
   17.1271  -10.0660  -13.0824 C   0  0  0  0  0  0  0  0  0  0  0  0
   16.8996  -10.5005  -11.8973 O   0  0  0  0  0  0  0  0  0  0  0  0
   17.7662   -8.8359  -13.2698 N   0  0  0  0  0  0  0  0  0  0  0  0
   18.2851   -8.0287  -12.1101 C   0  0  1  0  0  0  0  0  0  0  0  0
   19.5065   -7.3765  -12.6149 C   0  0  0  0  0  0  0  0  0  0  0  0
   20.2502   -6.3881  -11.8368 C   0  0  0  0  0  0  0  0  0  0  0  0
   21.3660   -5.6857  -12.4541 C   0  0  0  0  0  0  0  0  0  0  0  0
   22.5089   -6.1875  -12.5361 O   0  0  0  0  0  0  0  0  0  0  0  0
   17.2018   -7.1530  -11.7182 C   0  0  0  0  0  0  0  0  0  0  0  0
   16.5302   -6.5321  -12.6209 O   0  0  0  0  0  0  0  0  0  0  0  0
   21.1826   -4.4126  -12.9770 O   0  0  0  0  0  0  0  0  0  0  0  0
   14.6418   -6.4622   -6.8380 C   0  0  0  0  0  0  0  0  0  0  0  0
   15.2147   -7.1397   -8.0496 C   0  0  0  0  0  0  0  0  0  0  0  0
   14.6339   -6.6350   -9.3327 C   0  0  2  0  0  0  0  0  0  0  0  0
   14.0942   -7.7016  -10.2203 C   0  0  0  0  0  0  0  0  0  0  0  0
   15.7536   -5.9057  -10.0925 C   0  0  2  0  0  0  0  0  0  0  0  0
   16.7647   -6.8995  -10.3706 N   0  0  0  0  0  0  0  0  0  0  0  0
   16.2542   -4.7683   -9.3216 C   0  0  0  0  0  0  0  0  0  0  0  0
   17.5154   -4.7609   -8.7661 O   0  0  0  0  0  0  0  0  0  0  0  0
   15.5581   -3.7327   -9.1220 O   0  0  0  0  0  0  0  0  0  0  0  0
  2  1  1  1
  3  2  1  0
  4  3  1  0
  4  5  1  0
  5  6  1  0
  7  6  1  0
  8  2  1  0
  8  9  2  0
 10  8  1  0
 11 10  1  0
 11 12  1  6
 13 12  1  0
 13 14  1  0
 14 15  2  0
 16 24  1  0
 16 11  1  0
 17 16  2  0
 18 14  1  0
 19 20  1  0
 20 21  1  0
 21 22  1  6
 23 24  1  1
 23 21  1  0
 25 23  1  0
 26 25  1  0
 27 25  2  0
M  END
$$$$
