KEI.pdb
     RDKit          3D

 27 26  0  0  1  0  0  0  0  0999 V2000
   25.1977  -20.7100  -15.7524 N   0  0  0  0  0  0  0  0  0  0  0  0
   26.2274  -20.9463  -14.7992 C   0  0  1  0  0  0  0  0  0  0  0  0
   27.5905  -20.4283  -15.1973 C   0  0  0  0  0  0  0  0  0  0  0  0
   27.9746  -20.7543  -16.5888 C   0  0  0  0  0  0  0  0  0  0  0  0
   29.3062  -20.3252  -17.0708 C   0  0  0  0  0  0  0  0  0  0  0  0
   29.6467  -20.6665  -18.4807 C   0  0  0  0  0  0  0  0  0  0  0  0
   29.7415  -22.0757  -18.6765 N   0  0  0  0  0  0  0  0  0  0  0  0
   25.8330  -20.3379  -13.4931 C   0  0  0  0  0  0  0  0  0  0  0  0
   25.5912  -19.0794  -13.4393 O   0  0  0  0  0  0  0  0  0  0  0  0
   25.7252  -21.1246  -12.3415 N   0  0  0  0  0  0  0  0  0  0  0  0
   25.1810  -20.5702  -11.0522 C   0  0  1  0  0  0  0  0  0  0  0  0
   23.7950  -21.0655  -10.9784 C   0  0  0  0  0  0  0  0  0  0  0  0
   22.8260  -20.8561  -12.0520 C   0  0  0  0  0  0  0  0  0  0  0  0
   21.8293  -19.8033  -11.9192 C   0  0  0  0  0  0  0  0  0  0  0  0
   21.5484  -19.2837  -10.8165 O   0  0  0  0  0  0  0  0  0  0  0  0
   26.0825  -21.0201  -10.0135 C   0  0  0  0  0  0  0  0  0  0  0  0
   26.3969  -22.2640   -9.9419 O   0  0  0  0  0  0  0  0  0  0  0  0
   21.1514  -19.3422  -13.0397 O   0  0  0  0  0  0  0  0  0  0  0  0
   29.5314  -19.3472   -5.1258 C   0  0  0  0  0  0  0  0  0  0  0  0
   28.6305  -20.2901   -5.8705 C   0  0  0  0  0  0  0  0  0  0  0  0
   28.0530  -19.6900   -7.1134 C   0  0  2  0  0  0  0  0  0  0  0  0
   27.2502  -18.4580   -6.8808 C   0  0  0  0  0  0  0  0  0  0  0  0
   27.1333  -20.7433   -7.7518 C   0  0  2  0  0  0  0  0  0  0  0  0
   26.7044  -20.1901   -9.0157 N   0  0  0  0  0  0  0  0  0  0  0  0
   26.0246  -21.0799   -6.8594 C   0  0  0  0  0  0  0  0  0  0  0  0
   24.7502  -20.5967   -7.0635 O   0  0  0  0  0  0  0  0  0  0  0  0
   26.1752  -21.8297   -5.8534 O   0  0  0  0  0  0  0  0  0  0  0  0
  2  1  1  6
  3  2  1  0
  4  3  1  0
  4  5  1  0
  5  6  1  0
  7  6  1  0
  8  2  1  0
  8  9  2  0
 10  8  1  0
 11 10  1  0
 11 12  1  1
 13 12  1  0
 13 14  1  0
 14 15  2  0
 16 24  1  0
 16 11  1  0
 17 16  2  0
 18 14  1  0
 19 20  1  0
 20 21  1  0
 21 22  1  1
 23 24  1  6
 23 21  1  0
 25 23  1  0
 26 25  1  0
 27 25  2  0
M  END
$$$$
