PMT.pdb
     RDKit          3D

 23 23  0  0  1  0  0  0  0  0999 V2000
    8.6409  -15.6040   19.4737 N   0  0  0  0  0  0  0  0  0  0  0  0
    8.5390  -16.6600   18.5199 C   0  0  0  0  0  0  0  0  0  0  0  0
    7.6135  -17.7078   19.0556 C   0  0  0  0  0  0  0  0  0  0  0  0
    7.0994  -17.1548   20.3554 C   0  0  0  0  0  0  0  0  0  0  0  0
    7.6387  -15.7586   20.4760 C   0  0  1  0  0  0  0  0  0  0  0  0
    8.2019  -15.6124   21.8597 C   0  0  0  0  0  0  0  0  0  0  0  0
    9.4016  -15.9021   22.0678 O   0  0  0  0  0  0  0  0  0  0  0  0
    6.8467  -10.7421   26.0185 C   0  0  0  0  0  0  0  0  0  0  0  0
    6.5114  -12.2137   27.0429 S   0  0  0  0  0  0  0  0  0  0  0  0
    7.4661  -13.6142   26.3731 C   0  0  0  0  0  0  0  0  0  0  0  0
    7.0725  -13.8819   24.9528 C   0  0  0  0  0  0  0  0  0  0  0  0
    7.8917  -14.9329   24.2820 C   0  0  2  0  0  0  0  0  0  0  0  0
    7.3987  -15.1540   22.9263 N   0  0  0  0  0  0  0  0  0  0  0  0
    7.9967  -16.1928   25.0099 C   0  0  0  0  0  0  0  0  0  0  0  0
    7.0261  -16.9528   25.2243 O   0  0  0  0  0  0  0  0  0  0  0  0
    9.8263  -19.0520   23.8860 C   0  0  0  0  0  0  0  0  0  0  0  0
   10.4226  -18.7425   25.2192 C   0  0  1  0  0  0  0  0  0  0  0  0
   11.6224  -18.0278   25.1023 O   0  0  0  0  0  0  0  0  0  0  0  0
    9.5026  -17.9028   26.0818 C   0  0  2  0  0  0  0  0  0  0  0  0
    9.2787  -16.5945   25.5139 N   0  0  0  0  0  0  0  0  0  0  0  0
   10.0481  -17.7292   27.4464 C   0  0  0  0  0  0  0  0  0  0  0  0
   10.2462  -18.8178   28.2803 O   0  0  0  0  0  0  0  0  0  0  0  0
   10.3568  -16.5890   27.9129 O   0  0  0  0  0  0  0  0  0  0  0  0
  2  3  1  0
  2  1  1  0
  4  3  1  0
  5  4  1  0
  5  6  1  1
  5  1  1  0
  6  7  2  0
  8  9  1  0
  9 10  1  0
 10 11  1  0
 12 11  1  1
 12 14  1  0
 13 12  1  0
 13  6  1  0
 14 15  2  0
 17 16  1  6
 17 19  1  0
 18 17  1  0
 19 21  1  0
 20 14  1  0
 19 20  1  6
 21 23  2  0
 21 22  1  0
M  END
$$$$
