PMT.pdb
     RDKit          3D

 23 23  0  0  1  0  0  0  0  0999 V2000
    7.3430  -14.9708   20.0732 N   0  0  0  0  0  0  0  0  0  0  0  0
    6.6646  -14.1499   19.1238 C   0  0  0  0  0  0  0  0  0  0  0  0
    7.4461  -12.8878   18.9302 C   0  0  0  0  0  0  0  0  0  0  0  0
    8.6863  -13.0583   19.7625 C   0  0  0  0  0  0  0  0  0  0  0  0
    8.6506  -14.4552   20.3121 C   0  0  1  0  0  0  0  0  0  0  0  0
    8.9605  -14.3691   21.7783 C   0  0  0  0  0  0  0  0  0  0  0  0
   10.0913  -13.9773   22.1447 O   0  0  0  0  0  0  0  0  0  0  0  0
    7.1194  -10.8458   27.1594 C   0  0  0  0  0  0  0  0  0  0  0  0
    6.1824  -12.3954   26.9408 S   0  0  0  0  0  0  0  0  0  0  0  0
    7.3178  -13.6738   26.3099 C   0  0  0  0  0  0  0  0  0  0  0  0
    7.1674  -13.8187   24.8266 C   0  0  0  0  0  0  0  0  0  0  0  0
    8.2235  -14.6559   24.1866 C   0  0  2  0  0  0  0  0  0  0  0  0
    7.9963  -14.7233   22.7466 N   0  0  0  0  0  0  0  0  0  0  0  0
    8.3805  -15.9914   24.7523 C   0  0  0  0  0  0  0  0  0  0  0  0
    7.4343  -16.7961   24.9033 O   0  0  0  0  0  0  0  0  0  0  0  0
   10.5419  -18.6746   23.3883 C   0  0  0  0  0  0  0  0  0  0  0  0
   10.9892  -18.4630   24.7968 C   0  0  1  0  0  0  0  0  0  0  0  0
   12.1485  -17.6787   24.8652 O   0  0  0  0  0  0  0  0  0  0  0  0
    9.9419  -17.7587   25.6351 C   0  0  2  0  0  0  0  0  0  0  0  0
    9.6873  -16.4184   25.1628 N   0  0  0  0  0  0  0  0  0  0  0  0
   10.3476  -17.6809   27.0560 C   0  0  0  0  0  0  0  0  0  0  0  0
   10.5008  -18.8272   27.8190 O   0  0  0  0  0  0  0  0  0  0  0  0
   10.5720  -16.5741   27.6371 O   0  0  0  0  0  0  0  0  0  0  0  0
  2  3  1  0
  2  1  1  0
  4  3  1  0
  5  4  1  0
  5  6  1  1
  5  1  1  0
  6  7  2  0
  8  9  1  0
  9 10  1  0
 10 11  1  0
 12 11  1  1
 12 14  1  0
 13 12  1  0
 13  6  1  0
 14 15  2  0
 17 16  1  6
 17 19  1  0
 18 17  1  0
 19 21  1  0
 20 14  1  0
 19 20  1  6
 21 23  2  0
 21 22  1  0
M  END
$$$$
