PMT.pdb
     RDKit          3D

 23 23  0  0  1  0  0  0  0  0999 V2000
    7.2539  -14.8979   20.1669 N   0  0  0  0  0  0  0  0  0  0  0  0
    6.5601  -14.0349   19.2674 C   0  0  0  0  0  0  0  0  0  0  0  0
    7.3783  -12.7994   19.0547 C   0  0  0  0  0  0  0  0  0  0  0  0
    8.6518  -13.0315   19.8191 C   0  0  0  0  0  0  0  0  0  0  0  0
    8.5908  -14.4361   20.3466 C   0  0  1  0  0  0  0  0  0  0  0  0
    8.9779  -14.3888   21.7961 C   0  0  0  0  0  0  0  0  0  0  0  0
   10.1355  -14.0320   22.1109 O   0  0  0  0  0  0  0  0  0  0  0  0
    5.6585  -11.4178   26.6987 C   0  0  0  0  0  0  0  0  0  0  0  0
    7.3672  -11.9946   26.9720 S   0  0  0  0  0  0  0  0  0  0  0  0
    7.4945  -13.7191   26.3963 C   0  0  0  0  0  0  0  0  0  0  0  0
    7.3474  -13.7838   24.9070 C   0  0  0  0  0  0  0  0  0  0  0  0
    8.3445  -14.6668   24.2347 C   0  0  2  0  0  0  0  0  0  0  0  0
    8.0563  -14.7404   22.8060 N   0  0  0  0  0  0  0  0  0  0  0  0
    8.4745  -16.0015   24.8092 C   0  0  0  0  0  0  0  0  0  0  0  0
    7.5134  -16.7887   24.9586 O   0  0  0  0  0  0  0  0  0  0  0  0
   10.5866  -18.6772   23.3959 C   0  0  0  0  0  0  0  0  0  0  0  0
   11.0452  -18.4992   24.8054 C   0  0  1  0  0  0  0  0  0  0  0  0
   12.2113  -17.7259   24.8824 O   0  0  0  0  0  0  0  0  0  0  0  0
   10.0094  -17.8046   25.6657 C   0  0  2  0  0  0  0  0  0  0  0  0
    9.7709  -16.4487   25.2309 N   0  0  0  0  0  0  0  0  0  0  0  0
   10.4199  -17.7707   27.0870 C   0  0  0  0  0  0  0  0  0  0  0  0
   10.6376  -18.9412   27.7957 O   0  0  0  0  0  0  0  0  0  0  0  0
   10.5902  -16.6815   27.7175 O   0  0  0  0  0  0  0  0  0  0  0  0
  2  3  1  0
  2  1  1  0
  4  3  1  0
  5  4  1  0
  5  6  1  1
  5  1  1  0
  6  7  2  0
  8  9  1  0
  9 10  1  0
 10 11  1  0
 12 11  1  1
 12 14  1  0
 13 12  1  0
 13  6  1  0
 14 15  2  0
 17 16  1  6
 17 19  1  0
 18 17  1  0
 19 21  1  0
 20 14  1  0
 19 20  1  6
 21 23  2  0
 21 22  1  0
M  END
$$$$
