PMT.pdb
     RDKit          3D

 23 23  0  0  1  0  0  0  0  0999 V2000
    7.4771  -15.2285   20.4635 N   0  0  0  0  0  0  0  0  0  0  0  0
    6.7090  -14.5361   19.4807 C   0  0  0  0  0  0  0  0  0  0  0  0
    7.2443  -13.1450   19.3406 C   0  0  0  0  0  0  0  0  0  0  0  0
    8.4452  -13.0901   20.2431 C   0  0  0  0  0  0  0  0  0  0  0  0
    8.6464  -14.4773   20.7816 C   0  0  1  0  0  0  0  0  0  0  0  0
    8.8509  -14.3585   22.2639 C   0  0  0  0  0  0  0  0  0  0  0  0
    9.8846  -13.8025   22.6983 O   0  0  0  0  0  0  0  0  0  0  0  0
    7.3353  -11.0129   27.4598 C   0  0  0  0  0  0  0  0  0  0  0  0
    6.0925  -12.0555   26.6258 S   0  0  0  0  0  0  0  0  0  0  0  0
    6.8633  -12.8116   25.1575 C   0  0  0  0  0  0  0  0  0  0  0  0
    6.9386  -14.2992   25.3158 C   0  0  0  0  0  0  0  0  0  0  0  0
    8.0964  -14.9279   24.6159 C   0  0  2  0  0  0  0  0  0  0  0  0
    7.8956  -14.8643   23.1719 N   0  0  0  0  0  0  0  0  0  0  0  0
    8.4094  -16.2886   25.0388 C   0  0  0  0  0  0  0  0  0  0  0  0
    7.5552  -17.1975   25.1387 O   0  0  0  0  0  0  0  0  0  0  0  0
   11.0610  -18.4028   23.3586 C   0  0  0  0  0  0  0  0  0  0  0  0
   11.3702  -18.3909   24.8191 C   0  0  1  0  0  0  0  0  0  0  0  0
   12.4106  -17.5037   25.1262 O   0  0  0  0  0  0  0  0  0  0  0  0
   10.1810  -17.9678   25.6572 C   0  0  2  0  0  0  0  0  0  0  0  0
    9.7685  -16.6162   25.3616 N   0  0  0  0  0  0  0  0  0  0  0  0
   10.4788  -18.0562   27.1040 C   0  0  0  0  0  0  0  0  0  0  0  0
   10.7154  -19.2789   27.7111 O   0  0  0  0  0  0  0  0  0  0  0  0
   10.5309  -17.0291   27.8492 O   0  0  0  0  0  0  0  0  0  0  0  0
  2  3  1  0
  2  1  1  0
  4  3  1  0
  5  4  1  0
  5  6  1  1
  5  1  1  0
  6  7  2  0
  8  9  1  0
  9 10  1  0
 10 11  1  0
 12 11  1  1
 12 14  1  0
 13 12  1  0
 13  6  1  0
 14 15  2  0
 17 16  1  6
 17 19  1  0
 18 17  1  0
 19 21  1  0
 20 14  1  0
 19 20  1  6
 21 23  2  0
 21 22  1  0
M  END
$$$$
