PMT.pdb
     RDKit          3D

 23 23  0  0  1  0  0  0  0  0999 V2000
    7.1150  -14.9246   20.6195 N   0  0  0  0  0  0  0  0  0  0  0  0
    6.4494  -14.0416   19.7181 C   0  0  0  0  0  0  0  0  0  0  0  0
    7.3013  -12.8278   19.5128 C   0  0  0  0  0  0  0  0  0  0  0  0
    8.5638  -13.0951   20.2839 C   0  0  0  0  0  0  0  0  0  0  0  0
    8.4626  -14.4986   20.8079 C   0  0  1  0  0  0  0  0  0  0  0  0
    8.8424  -14.4646   22.2597 C   0  0  0  0  0  0  0  0  0  0  0  0
   10.0283  -14.2227   22.5783 O   0  0  0  0  0  0  0  0  0  0  0  0
    6.9478  -11.6405   27.8328 C   0  0  0  0  0  0  0  0  0  0  0  0
    6.0100  -11.7188   26.2702 S   0  0  0  0  0  0  0  0  0  0  0  0
    7.0010  -12.6362   25.0464 C   0  0  0  0  0  0  0  0  0  0  0  0
    7.1961  -14.0535   25.4902 C   0  0  0  0  0  0  0  0  0  0  0  0
    8.2009  -14.8098   24.6876 C   0  0  2  0  0  0  0  0  0  0  0  0
    7.8827  -14.7013   23.2675 N   0  0  0  0  0  0  0  0  0  0  0  0
    8.3791  -16.2046   25.0763 C   0  0  0  0  0  0  0  0  0  0  0  0
    7.4345  -17.0155   25.2023 O   0  0  0  0  0  0  0  0  0  0  0  0
   10.3208  -18.6910   23.2055 C   0  0  0  0  0  0  0  0  0  0  0  0
   10.9118  -18.6825   24.5765 C   0  0  1  0  0  0  0  0  0  0  0  0
   12.0981  -17.9386   24.6300 O   0  0  0  0  0  0  0  0  0  0  0  0
    9.9768  -18.0780   25.6040 C   0  0  2  0  0  0  0  0  0  0  0  0
    9.7063  -16.6862   25.3319 N   0  0  0  0  0  0  0  0  0  0  0  0
   10.5327  -18.1840   26.9713 C   0  0  0  0  0  0  0  0  0  0  0  0
   10.7957  -17.0517   27.7252 O   0  0  0  0  0  0  0  0  0  0  0  0
   10.7923  -19.3033   27.5124 O   0  0  0  0  0  0  0  0  0  0  0  0
  2  3  1  0
  2  1  1  0
  4  3  1  0
  5  4  1  0
  5  6  1  1
  5  1  1  0
  6  7  2  0
  8  9  1  0
  9 10  1  0
 10 11  1  0
 12 11  1  1
 12 14  1  0
 13 12  1  0
 13  6  1  0
 14 15  2  0
 17 16  1  6
 17 19  1  0
 18 17  1  0
 19 21  1  0
 20 14  1  0
 19 20  1  6
 21 23  2  0
 21 22  1  0
M  END
$$$$
