PMT.pdb
     RDKit          3D

 23 23  0  0  1  0  0  0  0  0999 V2000
    7.2488  -15.0501   19.8037 N   0  0  0  0  0  0  0  0  0  0  0  0
    6.5547  -14.2787   18.8247 C   0  0  0  0  0  0  0  0  0  0  0  0
    7.3512  -13.0467   18.5262 C   0  0  0  0  0  0  0  0  0  0  0  0
    8.6142  -13.1875   19.3292 C   0  0  0  0  0  0  0  0  0  0  0  0
    8.5721  -14.5456   19.9685 C   0  0  1  0  0  0  0  0  0  0  0  0
    8.9300  -14.3720   21.4159 C   0  0  0  0  0  0  0  0  0  0  0  0
   10.1134  -14.1105   21.7285 O   0  0  0  0  0  0  0  0  0  0  0  0
    6.7139  -11.6929   28.3511 C   0  0  0  0  0  0  0  0  0  0  0  0
    6.3160  -12.0031   26.5982 S   0  0  0  0  0  0  0  0  0  0  0  0
    7.4518  -13.2798   25.9645 C   0  0  0  0  0  0  0  0  0  0  0  0
    7.2235  -13.5006   24.5006 C   0  0  0  0  0  0  0  0  0  0  0  0
    8.2351  -14.3860   23.8536 C   0  0  2  0  0  0  0  0  0  0  0  0
    7.9525  -14.4996   22.4264 N   0  0  0  0  0  0  0  0  0  0  0  0
    8.3822  -15.7037   24.4619 C   0  0  0  0  0  0  0  0  0  0  0  0
    7.4279  -16.4908   24.6508 O   0  0  0  0  0  0  0  0  0  0  0  0
   10.3552  -18.4670   23.1034 C   0  0  0  0  0  0  0  0  0  0  0  0
   10.9078  -18.2215   24.4684 C   0  0  1  0  0  0  0  0  0  0  0  0
   12.0834  -17.4599   24.4275 O   0  0  0  0  0  0  0  0  0  0  0  0
    9.9377  -17.4701   25.3570 C   0  0  2  0  0  0  0  0  0  0  0  0
    9.6884  -16.1335   24.8715 N   0  0  0  0  0  0  0  0  0  0  0  0
   10.4386  -17.3734   26.7461 C   0  0  0  0  0  0  0  0  0  0  0  0
   10.6572  -18.5102   27.5074 O   0  0  0  0  0  0  0  0  0  0  0  0
   10.6888  -16.2584   27.3002 O   0  0  0  0  0  0  0  0  0  0  0  0
  2  3  1  0
  2  1  1  0
  4  3  1  0
  5  4  1  0
  5  6  1  1
  5  1  1  0
  6  7  2  0
  8  9  1  0
  9 10  1  0
 10 11  1  0
 12 11  1  1
 12 14  1  0
 13 12  1  0
 13  6  1  0
 14 15  2  0
 17 16  1  6
 17 19  1  0
 18 17  1  0
 19 21  1  0
 20 14  1  0
 19 20  1  6
 21 23  2  0
 21 22  1  0
M  END
$$$$
