PMT.pdb
     RDKit          3D

 23 23  0  0  1  0  0  0  0  0999 V2000
    7.0270  -15.0015   20.4220 N   0  0  0  0  0  0  0  0  0  0  0  0
    6.3335  -14.1258   19.5346 C   0  0  0  0  0  0  0  0  0  0  0  0
    7.2064  -12.9458   19.2396 C   0  0  0  0  0  0  0  0  0  0  0  0
    8.5054  -13.2290   19.9413 C   0  0  0  0  0  0  0  0  0  0  0  0
    8.3954  -14.6122   20.5151 C   0  0  1  0  0  0  0  0  0  0  0  0
    8.8643  -14.5463   21.9395 C   0  0  0  0  0  0  0  0  0  0  0  0
   10.0512  -14.2310   22.1810 O   0  0  0  0  0  0  0  0  0  0  0  0
    7.0169  -11.3163   27.4673 C   0  0  0  0  0  0  0  0  0  0  0  0
    5.9960  -11.9439   26.0920 S   0  0  0  0  0  0  0  0  0  0  0  0
    7.0940  -12.7332   24.8702 C   0  0  0  0  0  0  0  0  0  0  0  0
    7.3344  -14.1662   25.2341 C   0  0  0  0  0  0  0  0  0  0  0  0
    8.3839  -14.8353   24.4115 C   0  0  2  0  0  0  0  0  0  0  0  0
    7.9870  -14.8345   23.0072 N   0  0  0  0  0  0  0  0  0  0  0  0
    8.7489  -16.1784   24.8489 C   0  0  0  0  0  0  0  0  0  0  0  0
    7.9399  -17.1309   24.9120 O   0  0  0  0  0  0  0  0  0  0  0  0
   12.5282  -19.3221   25.5067 C   0  0  0  0  0  0  0  0  0  0  0  0
   12.0253  -17.9604   25.1581 C   0  0  1  0  0  0  0  0  0  0  0  0
   12.1026  -17.7109   23.7813 O   0  0  0  0  0  0  0  0  0  0  0  0
   10.5757  -17.7625   25.5517 C   0  0  2  0  0  0  0  0  0  0  0  0
   10.1078  -16.4349   25.2311 N   0  0  0  0  0  0  0  0  0  0  0  0
   10.3715  -17.9895   26.9997 C   0  0  0  0  0  0  0  0  0  0  0  0
   10.2459  -19.2710   27.5111 O   0  0  0  0  0  0  0  0  0  0  0  0
   10.3022  -17.0331   27.8324 O   0  0  0  0  0  0  0  0  0  0  0  0
  2  3  1  0
  2  1  1  0
  4  3  1  0
  5  4  1  0
  5  6  1  1
  5  1  1  0
  6  7  2  0
  8  9  1  0
  9 10  1  0
 10 11  1  0
 12 11  1  1
 12 14  1  0
 13 12  1  0
 13  6  1  0
 14 15  2  0
 17 16  1  6
 17 19  1  0
 18 17  1  0
 19 21  1  0
 20 14  1  0
 19 20  1  1
 21 23  2  0
 21 22  1  0
M  END
$$$$
