PMT.pdb
     RDKit          3D

 23 23  0  0  1  0  0  0  0  0999 V2000
    7.1006  -14.6451   20.2938 N   0  0  0  0  0  0  0  0  0  0  0  0
    6.4218  -13.7033   19.4646 C   0  0  0  0  0  0  0  0  0  0  0  0
    7.3833  -12.6265   19.0685 C   0  0  0  0  0  0  0  0  0  0  0  0
    8.7068  -13.0458   19.6451 C   0  0  0  0  0  0  0  0  0  0  0  0
    8.5055  -14.4063   20.2478 C   0  0  1  0  0  0  0  0  0  0  0  0
    9.1162  -14.3852   21.6188 C   0  0  0  0  0  0  0  0  0  0  0  0
   10.3496  -14.2101   21.7387 O   0  0  0  0  0  0  0  0  0  0  0  0
    7.1091  -11.4146   27.0639 C   0  0  0  0  0  0  0  0  0  0  0  0
    6.3752  -13.0793   26.9326 S   0  0  0  0  0  0  0  0  0  0  0  0
    6.7567  -13.7509   25.2818 C   0  0  0  0  0  0  0  0  0  0  0  0
    8.1791  -13.4573   24.9153 C   0  0  0  0  0  0  0  0  0  0  0  0
    8.8425  -14.5414   24.1340 C   0  0  2  0  0  0  0  0  0  0  0  0
    8.3201  -14.5598   22.7715 N   0  0  0  0  0  0  0  0  0  0  0  0
    8.7734  -15.8683   24.7363 C   0  0  0  0  0  0  0  0  0  0  0  0
    7.7254  -16.5494   24.7952 O   0  0  0  0  0  0  0  0  0  0  0  0
   10.5754  -18.7837   23.5361 C   0  0  0  0  0  0  0  0  0  0  0  0
   10.9938  -18.6357   24.9616 C   0  0  1  0  0  0  0  0  0  0  0  0
   12.2436  -18.0126   25.0778 O   0  0  0  0  0  0  0  0  0  0  0  0
   10.0186  -17.8000   25.7653 C   0  0  2  0  0  0  0  0  0  0  0  0
    9.9663  -16.4355   25.2966 N   0  0  0  0  0  0  0  0  0  0  0  0
   10.3741  -17.7841   27.2016 C   0  0  0  0  0  0  0  0  0  0  0  0
   10.4408  -18.9583   27.9340 O   0  0  0  0  0  0  0  0  0  0  0  0
   10.6317  -16.7075   27.8242 O   0  0  0  0  0  0  0  0  0  0  0  0
  2  3  1  0
  2  1  1  0
  4  3  1  0
  5  4  1  0
  5  6  1  1
  5  1  1  0
  6  7  2  0
  8  9  1  0
  9 10  1  0
 10 11  1  0
 12 11  1  1
 12 14  1  0
 13 12  1  0
 13  6  1  0
 14 15  2  0
 17 16  1  6
 17 19  1  0
 18 17  1  0
 19 21  1  0
 20 14  1  0
 19 20  1  6
 21 23  2  0
 21 22  1  0
M  END
$$$$
