PMT.pdb
     RDKit          3D

 23 23  0  0  1  0  0  0  0  0999 V2000
    7.2092  -14.8559   20.2278 N   0  0  0  0  0  0  0  0  0  0  0  0
    6.6400  -13.9485   19.2855 C   0  0  0  0  0  0  0  0  0  0  0  0
    7.6349  -12.8691   18.9919 C   0  0  0  0  0  0  0  0  0  0  0  0
    8.8715  -13.2518   19.7563 C   0  0  0  0  0  0  0  0  0  0  0  0
    8.6045  -14.5974   20.3668 C   0  0  1  0  0  0  0  0  0  0  0  0
    9.0214  -14.5280   21.8072 C   0  0  0  0  0  0  0  0  0  0  0  0
   10.2385  -14.4626   22.0914 O   0  0  0  0  0  0  0  0  0  0  0  0
    5.2631  -11.8635   26.5434 C   0  0  0  0  0  0  0  0  0  0  0  0
    7.0149  -11.7809   27.0449 S   0  0  0  0  0  0  0  0  0  0  0  0
    7.8746  -13.2470   26.3869 C   0  0  0  0  0  0  0  0  0  0  0  0
    7.5975  -13.4007   24.9229 C   0  0  0  0  0  0  0  0  0  0  0  0
    8.3933  -14.4759   24.2624 C   0  0  2  0  0  0  0  0  0  0  0  0
    8.0617  -14.5355   22.8424 N   0  0  0  0  0  0  0  0  0  0  0  0
    8.2829  -15.7936   24.8787 C   0  0  0  0  0  0  0  0  0  0  0  0
    7.1971  -16.3932   25.0437 O   0  0  0  0  0  0  0  0  0  0  0  0
    9.3917  -19.0338   23.7954 C   0  0  0  0  0  0  0  0  0  0  0  0
   10.1223  -18.8016   25.0764 C   0  0  1  0  0  0  0  0  0  0  0  0
   11.4333  -18.3575   24.8577 O   0  0  0  0  0  0  0  0  0  0  0  0
    9.4510  -17.7547   25.9418 C   0  0  2  0  0  0  0  0  0  0  0  0
    9.4782  -16.4495   25.3255 N   0  0  0  0  0  0  0  0  0  0  0  0
   10.0962  -17.6545   27.2698 C   0  0  0  0  0  0  0  0  0  0  0  0
   10.1166  -18.7345   28.1374 O   0  0  0  0  0  0  0  0  0  0  0  0
   10.6548  -16.5876   27.6730 O   0  0  0  0  0  0  0  0  0  0  0  0
  2  3  1  0
  2  1  1  0
  4  3  1  0
  5  4  1  0
  5  6  1  1
  5  1  1  0
  6  7  2  0
  8  9  1  0
  9 10  1  0
 10 11  1  0
 12 11  1  1
 12 14  1  0
 13 12  1  0
 13  6  1  0
 14 15  2  0
 17 16  1  6
 17 19  1  0
 18 17  1  0
 19 21  1  0
 20 14  1  0
 19 20  1  6
 21 23  2  0
 21 22  1  0
M  END
$$$$
