PMT.pdb
     RDKit          3D

 23 23  0  0  1  0  0  0  0  0999 V2000
    8.5837  -15.0491   19.5505 N   0  0  0  0  0  0  0  0  0  0  0  0
    8.5310  -16.0767   18.5622 C   0  0  0  0  0  0  0  0  0  0  0  0
    7.5962  -17.1489   19.0289 C   0  0  0  0  0  0  0  0  0  0  0  0
    7.0249  -16.6403   20.3231 C   0  0  0  0  0  0  0  0  0  0  0  0
    7.5441  -15.2434   20.5067 C   0  0  1  0  0  0  0  0  0  0  0  0
    8.0503  -15.1338   21.9156 C   0  0  0  0  0  0  0  0  0  0  0  0
    9.2432  -15.4201   22.1632 O   0  0  0  0  0  0  0  0  0  0  0  0
    8.4154  -12.1987   28.6549 C   0  0  0  0  0  0  0  0  0  0  0  0
    7.9855  -12.2376   26.8827 S   0  0  0  0  0  0  0  0  0  0  0  0
    6.9086  -13.6766   26.5803 C   0  0  0  0  0  0  0  0  0  0  0  0
    6.6067  -13.8039   25.1186 C   0  0  0  0  0  0  0  0  0  0  0  0
    7.6242  -14.5805   24.3523 C   0  0  2  0  0  0  0  0  0  0  0  0
    7.2011  -14.7134   22.9620 N   0  0  0  0  0  0  0  0  0  0  0  0
    7.9651  -15.8807   24.9196 C   0  0  0  0  0  0  0  0  0  0  0  0
    7.1401  -16.8095   25.0698 O   0  0  0  0  0  0  0  0  0  0  0  0
   10.3715  -18.3388   23.5785 C   0  0  0  0  0  0  0  0  0  0  0  0
   10.8515  -17.9944   24.9495 C   0  0  1  0  0  0  0  0  0  0  0  0
   11.8836  -17.0470   24.9197 O   0  0  0  0  0  0  0  0  0  0  0  0
    9.7541  -17.4097   25.8151 C   0  0  2  0  0  0  0  0  0  0  0  0
    9.3179  -16.1208   25.3327 N   0  0  0  0  0  0  0  0  0  0  0  0
   10.1958  -17.2546   27.2189 C   0  0  0  0  0  0  0  0  0  0  0  0
   10.5566  -18.3548   27.9799 O   0  0  0  0  0  0  0  0  0  0  0  0
   10.2646  -16.1205   27.7864 O   0  0  0  0  0  0  0  0  0  0  0  0
  2  3  1  0
  2  1  1  0
  4  3  1  0
  5  4  1  0
  5  6  1  1
  5  1  1  0
  6  7  2  0
  8  9  1  0
  9 10  1  0
 10 11  1  0
 12 11  1  1
 12 14  1  0
 13 12  1  0
 13  6  1  0
 14 15  2  0
 17 16  1  6
 17 19  1  0
 18 17  1  0
 19 21  1  0
 20 14  1  0
 19 20  1  6
 21 23  2  0
 21 22  1  0
M  END
$$$$
