PMT.pdb
     RDKit          3D

 23 23  0  0  1  0  0  0  0  0999 V2000
    7.2881  -14.9668   19.8585 N   0  0  0  0  0  0  0  0  0  0  0  0
    6.5928  -14.1814   18.8915 C   0  0  0  0  0  0  0  0  0  0  0  0
    7.3748  -12.9317   18.6309 C   0  0  0  0  0  0  0  0  0  0  0  0
    8.6318  -13.0746   19.4430 C   0  0  0  0  0  0  0  0  0  0  0  0
    8.6025  -14.4482   20.0488 C   0  0  1  0  0  0  0  0  0  0  0  0
    8.9439  -14.3050   21.5035 C   0  0  0  0  0  0  0  0  0  0  0  0
   10.0968  -13.9442   21.8308 O   0  0  0  0  0  0  0  0  0  0  0  0
    6.8111  -11.5326   28.2782 C   0  0  0  0  0  0  0  0  0  0  0  0
    6.2020  -12.2044   26.6955 S   0  0  0  0  0  0  0  0  0  0  0  0
    7.4490  -13.3604   26.0397 C   0  0  0  0  0  0  0  0  0  0  0  0
    7.2174  -13.6041   24.5800 C   0  0  0  0  0  0  0  0  0  0  0  0
    8.2494  -14.4678   23.9359 C   0  0  2  0  0  0  0  0  0  0  0  0
    7.9847  -14.5712   22.5045 N   0  0  0  0  0  0  0  0  0  0  0  0
    8.4092  -15.7894   24.5328 C   0  0  0  0  0  0  0  0  0  0  0  0
    7.4567  -16.5701   24.7541 O   0  0  0  0  0  0  0  0  0  0  0  0
   10.6324  -18.5524   23.2274 C   0  0  0  0  0  0  0  0  0  0  0  0
   11.0450  -18.2815   24.6364 C   0  0  1  0  0  0  0  0  0  0  0  0
   12.1982  -17.4879   24.7003 O   0  0  0  0  0  0  0  0  0  0  0  0
    9.9744  -17.5507   25.4207 C   0  0  2  0  0  0  0  0  0  0  0  0
    9.7265  -16.2307   24.8912 N   0  0  0  0  0  0  0  0  0  0  0  0
   10.3441  -17.4166   26.8473 C   0  0  0  0  0  0  0  0  0  0  0  0
   10.5143  -18.5336   27.6491 O   0  0  0  0  0  0  0  0  0  0  0  0
   10.5209  -16.2860   27.3981 O   0  0  0  0  0  0  0  0  0  0  0  0
  2  3  1  0
  2  1  1  0
  4  3  1  0
  5  4  1  0
  5  6  1  1
  5  1  1  0
  6  7  2  0
  8  9  1  0
  9 10  1  0
 10 11  1  0
 12 11  1  1
 12 14  1  0
 13 12  1  0
 13  6  1  0
 14 15  2  0
 17 16  1  6
 17 19  1  0
 18 17  1  0
 19 21  1  0
 20 14  1  0
 19 20  1  6
 21 23  2  0
 21 22  1  0
M  END
$$$$
