PMT.pdb
     RDKit          3D

 23 23  0  0  1  0  0  0  0  0999 V2000
    7.3472  -15.1086   20.1010 N   0  0  0  0  0  0  0  0  0  0  0  0
    6.7012  -14.3414   19.0863 C   0  0  0  0  0  0  0  0  0  0  0  0
    7.4878  -13.0894   18.8523 C   0  0  0  0  0  0  0  0  0  0  0  0
    8.6988  -13.2120   19.7346 C   0  0  0  0  0  0  0  0  0  0  0  0
    8.6454  -14.5776   20.3566 C   0  0  1  0  0  0  0  0  0  0  0  0
    8.9046  -14.4125   21.8259 C   0  0  0  0  0  0  0  0  0  0  0  0
   10.0193  -13.9918   22.2090 O   0  0  0  0  0  0  0  0  0  0  0  0
    7.0199  -11.5375   28.4965 C   0  0  0  0  0  0  0  0  0  0  0  0
    6.7036  -11.7893   26.7178 S   0  0  0  0  0  0  0  0  0  0  0  0
    7.2085  -13.4836   26.2748 C   0  0  0  0  0  0  0  0  0  0  0  0
    7.0748  -13.6983   24.7984 C   0  0  0  0  0  0  0  0  0  0  0  0
    8.1006  -14.6150   24.2213 C   0  0  2  0  0  0  0  0  0  0  0  0
    7.9106  -14.7245   22.7785 N   0  0  0  0  0  0  0  0  0  0  0  0
    8.1677  -15.9347   24.8394 C   0  0  0  0  0  0  0  0  0  0  0  0
    7.1716  -16.6729   25.0082 O   0  0  0  0  0  0  0  0  0  0  0  0
    9.9747  -18.7521   23.4592 C   0  0  0  0  0  0  0  0  0  0  0  0
   10.5475  -18.5641   24.8250 C   0  0  1  0  0  0  0  0  0  0  0  0
   11.7597  -17.8618   24.7916 O   0  0  0  0  0  0  0  0  0  0  0  0
    9.6221  -17.7843   25.7365 C   0  0  2  0  0  0  0  0  0  0  0  0
    9.4407  -16.4255   25.2836 N   0  0  0  0  0  0  0  0  0  0  0  0
   10.1339  -17.7464   27.1244 C   0  0  0  0  0  0  0  0  0  0  0  0
   10.2333  -18.9030   27.8809 O   0  0  0  0  0  0  0  0  0  0  0  0
   10.5016  -16.6662   27.6819 O   0  0  0  0  0  0  0  0  0  0  0  0
  2  3  1  0
  2  1  1  0
  4  3  1  0
  5  4  1  0
  5  6  1  1
  5  1  1  0
  6  7  2  0
  8  9  1  0
  9 10  1  0
 10 11  1  0
 12 11  1  1
 12 14  1  0
 13 12  1  0
 13  6  1  0
 14 15  2  0
 17 16  1  6
 17 19  1  0
 18 17  1  0
 19 21  1  0
 20 14  1  0
 19 20  1  6
 21 23  2  0
 21 22  1  0
M  END
$$$$
