RSQ.pdb
     RDKit          3D

 27 26  0  0  1  0  0  0  0  0999 V2000
    8.7056  -15.8968   12.7522 N   0  0  0  0  0  0  0  0  0  0  0  0
    8.0372  -16.2856   13.9423 C   0  0  0  0  0  0  0  0  0  0  0  0
    7.3369  -17.3451   14.0474 N   0  0  0  0  0  0  0  0  0  0  0  0
    8.1908  -15.4000   15.0646 N   0  0  0  0  0  0  0  0  0  0  0  0
    9.1143  -15.7049   16.1376 C   0  0  0  0  0  0  0  0  0  0  0  0
    9.0252  -14.5977   17.1475 C   0  0  0  0  0  0  0  0  0  0  0  0
    7.8019  -14.5884   17.9860 C   0  0  0  0  0  0  0  0  0  0  0  0
    7.6629  -13.4994   18.9789 C   0  0  2  0  0  0  0  0  0  0  0  0
    7.7927  -12.1813   18.4494 N   0  0  0  0  0  0  0  0  0  0  0  0
    8.5406  -13.7232   20.1613 C   0  0  0  0  0  0  0  0  0  0  0  0
    9.7890  -13.6035   20.1063 O   0  0  0  0  0  0  0  0  0  0  0  0
    6.7402  -17.6269   14.8233 O   0  0  0  0  0  0  0  0  0  0  0  0
    7.2068  -15.7766   23.7022 C   0  0  0  0  0  0  0  0  0  0  0  0
    7.9606  -14.5977   23.8232 C   0  0  1  0  0  0  0  0  0  0  0  0
    8.7745  -14.3701   22.5886 N   0  0  0  0  0  0  0  0  0  0  0  0
    7.9826  -14.0894   21.4230 C   0  0  0  0  0  0  0  0  0  0  0  0
    9.7468  -15.4400   22.3068 O   0  0  0  0  0  0  0  0  0  0  0  0
    9.8523  -15.8474   21.1357 N   0  0  0  0  0  0  0  0  0  0  0  0
   14.6170  -14.3963   20.3516 C   0  0  0  0  0  0  0  0  0  0  0  0
   15.0223  -14.9298   21.6081 O   0  0  0  0  0  0  0  0  0  0  0  0
   16.0941  -14.5008   22.0995 C   0  0  0  0  0  0  0  0  0  0  0  0
   14.1720  -15.9412   22.2496 C   0  0  0  0  0  0  0  0  0  0  0  0
   12.7305  -15.5930   22.3554 C   0  0  1  0  0  0  0  0  0  0  0  0
   11.8903  -16.5312   23.1345 N   0  0  0  0  0  0  0  0  0  0  0  0
   10.5634  -16.0213   23.3108 C   0  0  0  0  0  0  0  0  0  0  0  0
   12.5164  -17.0509   24.3761 O   0  0  0  0  0  0  0  0  0  0  0  0
   13.5204  -18.0046   24.3680 O   0  0  0  0  0  0  0  0  0  0  0  0
  2  1  1  0
  3  2  2  0
  4  2  1  0
  5  4  1  0
  6  5  1  0
  7  6  1  0
  8  9  1  6
  8  7  1  0
 10  8  1  0
 11 10  2  0
 12 13  1  0
 14 13  1  1
 14 15  1  0
 15 10  1  0
 16 14  1  0
 16 17  2  0
 19 20  2  0
 19 18  1  0
 21 19  1  0
 23 22  1  6
 22 21  1  0
 23 24  1  0
 24 16  1  0
 25 23  1  0
 26 25  1  0
 27 25  2  0
M  END
$$$$
