RSQ.pdb
     RDKit          3D

 27 26  0  0  1  0  0  0  0  0999 V2000
    7.2090  -15.0723   15.7254 N   0  0  0  0  0  0  0  0  0  0  0  0
    8.1185  -13.9877   15.8280 C   0  0  0  0  0  0  0  0  0  0  0  0
    9.1291  -13.8364   15.0665 N   0  0  0  0  0  0  0  0  0  0  0  0
    7.8394  -13.0324   16.8658 N   0  0  0  0  0  0  0  0  0  0  0  0
    8.2936  -13.2486   18.2239 C   0  0  0  0  0  0  0  0  0  0  0  0
    7.3472  -14.2148   18.8753 C   0  0  0  0  0  0  0  0  0  0  0  0
    7.6596  -14.5737   20.2800 C   0  0  0  0  0  0  0  0  0  0  0  0
    9.0397  -15.0167   20.5809 C   0  0  2  0  0  0  0  0  0  0  0  0
    9.7689  -15.5175   19.4619 N   0  0  0  0  0  0  0  0  0  0  0  0
    9.0729  -15.9497   21.7415 C   0  0  0  0  0  0  0  0  0  0  0  0
    8.4471  -15.7238   22.8059 O   0  0  0  0  0  0  0  0  0  0  0  0
    9.8368  -13.1047   15.1030 O   0  0  0  0  0  0  0  0  0  0  0  0
   10.7772  -20.1528   23.5810 C   0  0  0  0  0  0  0  0  0  0  0  0
   10.7444  -19.2945   22.4696 C   0  0  2  0  0  0  0  0  0  0  0  0
   10.0217  -18.0292   22.8092 N   0  0  0  0  0  0  0  0  0  0  0  0
    9.8326  -17.1567   21.6834 C   0  0  0  0  0  0  0  0  0  0  0  0
   10.6065  -17.2913   23.9418 O   0  0  0  0  0  0  0  0  0  0  0  0
   11.2875  -16.2788   23.6973 N   0  0  0  0  0  0  0  0  0  0  0  0
    8.6565  -13.2475   26.7520 C   0  0  0  0  0  0  0  0  0  0  0  0
    9.5740  -13.5537   27.7973 O   0  0  0  0  0  0  0  0  0  0  0  0
    9.6928  -12.7176   28.7252 C   0  0  0  0  0  0  0  0  0  0  0  0
   10.3210  -14.8166   27.7294 C   0  0  0  0  0  0  0  0  0  0  0  0
   10.0351  -15.6674   26.5442 C   0  0  1  0  0  0  0  0  0  0  0  0
   10.7985  -16.9331   26.4529 N   0  0  0  0  0  0  0  0  0  0  0  0
   10.4256  -17.6857   25.2925 C   0  0  0  0  0  0  0  0  0  0  0  0
   10.8500  -17.7264   27.7065 O   0  0  0  0  0  0  0  0  0  0  0  0
   11.5770  -17.3298   28.8164 O   0  0  0  0  0  0  0  0  0  0  0  0
  2  1  1  0
  3  2  2  0
  4  2  1  0
  5  4  1  0
  6  5  1  0
  7  6  1  0
  8  9  1  6
  8  7  1  0
 10  8  1  0
 11 10  2  0
 12 13  1  0
 14 13  1  6
 14 15  1  0
 15 10  1  0
 16 14  1  0
 16 17  2  0
 19 20  2  0
 19 18  1  0
 21 19  1  0
 23 22  1  6
 22 21  1  0
 23 24  1  0
 24 16  1  0
 25 23  1  0
 26 25  1  0
 27 25  2  0
M  END
$$$$
