RSQ.pdb
     RDKit          3D

 27 26  0  0  1  0  0  0  0  0999 V2000
    9.5329  -12.8715   18.0752 N   0  0  0  0  0  0  0  0  0  0  0  0
    8.3092  -13.1592   17.4164 C   0  0  0  0  0  0  0  0  0  0  0  0
    8.1618  -13.1281   16.1510 N   0  0  0  0  0  0  0  0  0  0  0  0
    7.2036  -13.5001   18.2701 N   0  0  0  0  0  0  0  0  0  0  0  0
    7.3839  -14.3617   19.4201 C   0  0  0  0  0  0  0  0  0  0  0  0
    7.3555  -15.7828   18.9371 C   0  0  0  0  0  0  0  0  0  0  0  0
    8.6781  -16.4347   18.7774 C   0  0  0  0  0  0  0  0  0  0  0  0
    9.1669  -17.2708   19.8969 C   0  0  2  0  0  0  0  0  0  0  0  0
    8.4622  -18.4966   20.0855 N   0  0  0  0  0  0  0  0  0  0  0  0
    9.2812  -16.4841   21.1565 C   0  0  0  0  0  0  0  0  0  0  0  0
    9.8542  -15.3684   21.2047 O   0  0  0  0  0  0  0  0  0  0  0  0
    7.3074  -13.2752   15.6163 O   0  0  0  0  0  0  0  0  0  0  0  0
    6.8697  -17.3594   24.3968 C   0  0  0  0  0  0  0  0  0  0  0  0
    7.5743  -16.1447   24.3715 C   0  0  1  0  0  0  0  0  0  0  0  0
    8.8686  -16.3078   23.6391 N   0  0  0  0  0  0  0  0  0  0  0  0
    8.7329  -16.9811   22.3771 C   0  0  0  0  0  0  0  0  0  0  0  0
    9.9370  -16.9267   24.4422 O   0  0  0  0  0  0  0  0  0  0  0  0
   10.0790  -18.1616   24.3831 N   0  0  0  0  0  0  0  0  0  0  0  0
   10.8135  -13.7292   30.7378 C   0  0  0  0  0  0  0  0  0  0  0  0
    9.9927  -14.3449   29.7503 O   0  0  0  0  0  0  0  0  0  0  0  0
    8.8258  -13.9051   29.6126 C   0  0  0  0  0  0  0  0  0  0  0  0
   10.5532  -15.4479   28.9586 C   0  0  0  0  0  0  0  0  0  0  0  0
   10.5037  -15.2679   27.4836 C   0  0  1  0  0  0  0  0  0  0  0  0
   11.0335  -16.3888   26.6736 N   0  0  0  0  0  0  0  0  0  0  0  0
   10.8060  -16.1762   25.2754 C   0  0  0  0  0  0  0  0  0  0  0  0
   10.6603  -17.7423   27.1556 O   0  0  0  0  0  0  0  0  0  0  0  0
   11.5756  -18.6191   27.7134 O   0  0  0  0  0  0  0  0  0  0  0  0
  2  1  1  0
  3  2  2  0
  4  2  1  0
  5  4  1  0
  6  5  1  0
  7  6  1  0
  8  9  1  1
  8  7  1  0
 10  8  1  0
 11 10  2  0
 12 13  1  0
 14 13  1  6
 14 15  1  0
 15 10  1  0
 16 14  1  0
 16 17  2  0
 19 20  2  0
 19 18  1  0
 21 19  1  0
 23 22  1  6
 22 21  1  0
 23 24  1  0
 24 16  1  0
 25 23  1  0
 26 25  1  0
 27 25  2  0
M  END
$$$$
