RSQ.pdb
     RDKit          3D

 27 26  0  0  1  0  0  0  0  0999 V2000
    8.3969  -12.2038   19.6529 N   0  0  0  0  0  0  0  0  0  0  0  0
    8.3414  -13.0709   18.5307 C   0  0  0  0  0  0  0  0  0  0  0  0
    7.6220  -12.8523   17.5018 N   0  0  0  0  0  0  0  0  0  0  0  0
    9.1623  -14.2488   18.6083 N   0  0  0  0  0  0  0  0  0  0  0  0
    9.3380  -14.9576   19.8589 C   0  0  0  0  0  0  0  0  0  0  0  0
    7.9746  -15.2720   20.4029 C   0  0  0  0  0  0  0  0  0  0  0  0
    7.9481  -16.0900   21.6398 C   0  0  0  0  0  0  0  0  0  0  0  0
    8.4060  -17.4942   21.5398 C   0  0  2  0  0  0  0  0  0  0  0  0
    7.4967  -18.3793   20.8884 N   0  0  0  0  0  0  0  0  0  0  0  0
    8.8568  -18.0167   22.8598 C   0  0  0  0  0  0  0  0  0  0  0  0
    8.1529  -17.9294   23.8953 O   0  0  0  0  0  0  0  0  0  0  0  0
    7.5626  -13.4075   16.6498 O   0  0  0  0  0  0  0  0  0  0  0  0
   12.0445  -20.7691   25.3016 C   0  0  0  0  0  0  0  0  0  0  0  0
   11.6692  -20.2362   24.0575 C   0  0  2  0  0  0  0  0  0  0  0  0
   10.6191  -19.1855   24.2356 N   0  0  0  0  0  0  0  0  0  0  0  0
   10.1302  -18.6471   22.9965 C   0  0  0  0  0  0  0  0  0  0  0  0
   11.0075  -18.1003   25.1526 O   0  0  0  0  0  0  0  0  0  0  0  0
   11.2414  -16.9769   24.6711 N   0  0  0  0  0  0  0  0  0  0  0  0
    8.1501  -14.3243   27.2630 C   0  0  0  0  0  0  0  0  0  0  0  0
    9.2037  -14.0741   28.1879 O   0  0  0  0  0  0  0  0  0  0  0  0
    9.1751  -12.9888   28.8167 C   0  0  0  0  0  0  0  0  0  0  0  0
   10.2523  -15.0898   28.3504 C   0  0  0  0  0  0  0  0  0  0  0  0
   10.2176  -16.2089   27.3723 C   0  0  1  0  0  0  0  0  0  0  0  0
   11.2597  -17.2484   27.5361 N   0  0  0  0  0  0  0  0  0  0  0  0
   11.1247  -18.2829   26.5546 C   0  0  0  0  0  0  0  0  0  0  0  0
   11.4408  -17.7416   28.9245 O   0  0  0  0  0  0  0  0  0  0  0  0
   12.2778  -17.1226   29.8377 O   0  0  0  0  0  0  0  0  0  0  0  0
  2  1  1  0
  3  2  2  0
  4  2  1  0
  5  4  1  0
  6  5  1  0
  7  6  1  0
  8  9  1  1
  8  7  1  0
 10  8  1  0
 11 10  2  0
 12 13  1  0
 14 13  1  6
 14 15  1  0
 15 10  1  0
 16 14  1  0
 16 17  2  0
 19 20  2  0
 19 18  1  0
 21 19  1  0
 23 22  1  6
 22 21  1  0
 23 24  1  0
 24 16  1  0
 25 23  1  0
 26 25  1  0
 27 25  2  0
M  END
$$$$
