RSQ.pdb
     RDKit          3D

 27 26  0  0  1  0  0  0  0  0999 V2000
    7.3050  -17.7176   15.4348 N   0  0  0  0  0  0  0  0  0  0  0  0
    7.7445  -16.8384   14.4111 C   0  0  0  0  0  0  0  0  0  0  0  0
    8.5748  -17.1683   13.5024 N   0  0  0  0  0  0  0  0  0  0  0  0
    7.1916  -15.5115   14.4452 N   0  0  0  0  0  0  0  0  0  0  0  0
    7.4759  -14.6103   15.5426 C   0  0  0  0  0  0  0  0  0  0  0  0
    8.7824  -15.0284   16.1524 C   0  0  0  0  0  0  0  0  0  0  0  0
    9.2687  -14.1863   17.2722 C   0  0  0  0  0  0  0  0  0  0  0  0
    8.2540  -13.6016   18.1777 C   0  0  2  0  0  0  0  0  0  0  0  0
    7.6981  -12.3632   17.7396 N   0  0  0  0  0  0  0  0  0  0  0  0
    8.7482  -13.5351   19.5812 C   0  0  0  0  0  0  0  0  0  0  0  0
    9.4632  -12.5923   20.0001 O   0  0  0  0  0  0  0  0  0  0  0  0
    9.0468  -16.5607   12.8349 O   0  0  0  0  0  0  0  0  0  0  0  0
    7.0585  -15.7850   22.7398 C   0  0  0  0  0  0  0  0  0  0  0  0
    7.8589  -14.6427   22.9046 C   0  0  1  0  0  0  0  0  0  0  0  0
    8.9297  -14.6013   21.8605 N   0  0  0  0  0  0  0  0  0  0  0  0
    8.4203  -14.5613   20.5176 C   0  0  0  0  0  0  0  0  0  0  0  0
    9.9411  -15.6632   21.9977 O   0  0  0  0  0  0  0  0  0  0  0  0
    9.6418  -16.8137   21.6296 N   0  0  0  0  0  0  0  0  0  0  0  0
   16.0465  -14.8347   21.6320 C   0  0  0  0  0  0  0  0  0  0  0  0
   14.8898  -14.3655   20.9466 O   0  0  0  0  0  0  0  0  0  0  0  0
   15.0690  -13.6154   19.9570 C   0  0  0  0  0  0  0  0  0  0  0  0
   13.5676  -14.7817   21.4326 C   0  0  0  0  0  0  0  0  0  0  0  0
   13.5417  -16.0431   22.2190 C   0  0  2  0  0  0  0  0  0  0  0  0
   12.2330  -16.4201   22.8006 N   0  0  0  0  0  0  0  0  0  0  0  0
   11.2354  -15.4287   22.5291 C   0  0  0  0  0  0  0  0  0  0  0  0
   12.2810  -16.8690   24.2148 O   0  0  0  0  0  0  0  0  0  0  0  0
   11.4413  -16.3617   25.1921 O   0  0  0  0  0  0  0  0  0  0  0  0
  2  1  1  0
  3  2  2  0
  4  2  1  0
  5  4  1  0
  6  5  1  0
  7  6  1  0
  8  9  1  6
  8  7  1  0
 10  8  1  0
 11 10  2  0
 12 13  1  0
 14 13  1  1
 14 15  1  0
 15 10  1  0
 16 14  1  0
 16 17  2  0
 19 20  2  0
 19 18  1  0
 21 19  1  0
 23 22  1  6
 22 21  1  0
 23 24  1  0
 24 16  1  0
 25 23  1  0
 26 25  1  0
 27 25  2  0
M  END
$$$$
