RSQ.pdb
     RDKit          3D

 27 26  0  0  1  0  0  0  0  0999 V2000
    8.7333  -11.8371   18.5921 N   0  0  0  0  0  0  0  0  0  0  0  0
    9.5235  -12.9456   18.9934 C   0  0  0  0  0  0  0  0  0  0  0  0
   10.7376  -12.8508   19.3689 N   0  0  0  0  0  0  0  0  0  0  0  0
    8.8705  -14.2260   18.9568 N   0  0  0  0  0  0  0  0  0  0  0  0
    7.4261  -14.3294   18.9408 C   0  0  0  0  0  0  0  0  0  0  0  0
    6.9237  -13.9402   20.3009 C   0  0  0  0  0  0  0  0  0  0  0  0
    6.4869  -15.0597   21.1702 C   0  0  0  0  0  0  0  0  0  0  0  0
    7.4754  -16.1217   21.4643 C   0  0  2  0  0  0  0  0  0  0  0  0
    7.4919  -17.2033   20.5346 N   0  0  0  0  0  0  0  0  0  0  0  0
    7.3710  -16.5892   22.8747 C   0  0  0  0  0  0  0  0  0  0  0  0
    7.1781  -15.8021   23.8332 O   0  0  0  0  0  0  0  0  0  0  0  0
   11.3869  -13.6052   19.5853 O   0  0  0  0  0  0  0  0  0  0  0  0
    6.1060  -20.2861   24.0151 C   0  0  0  0  0  0  0  0  0  0  0  0
    7.3177  -19.9490   24.6403 C   0  0  2  0  0  0  0  0  0  0  0  0
    7.5662  -18.4773   24.5366 N   0  0  0  0  0  0  0  0  0  0  0  0
    7.4895  -17.9758   23.1924 C   0  0  0  0  0  0  0  0  0  0  0  0
    8.8131  -18.0337   25.1828 O   0  0  0  0  0  0  0  0  0  0  0  0
    9.5246  -17.2056   24.5855 N   0  0  0  0  0  0  0  0  0  0  0  0
    8.9138  -13.6873   27.7090 C   0  0  0  0  0  0  0  0  0  0  0  0
   10.0065  -14.1249   28.5105 O   0  0  0  0  0  0  0  0  0  0  0  0
   10.5735  -13.2691   29.2317 C   0  0  0  0  0  0  0  0  0  0  0  0
   10.4032  -15.5378   28.4470 C   0  0  0  0  0  0  0  0  0  0  0  0
    9.6038  -16.3871   27.5251 C   0  0  2  0  0  0  0  0  0  0  0  0
   10.0370  -17.7978   27.4003 N   0  0  0  0  0  0  0  0  0  0  0  0
    9.2333  -18.5092   26.4517 C   0  0  0  0  0  0  0  0  0  0  0  0
   10.2374  -18.5086   28.6880 O   0  0  0  0  0  0  0  0  0  0  0  0
   11.4014  -18.4026   29.4306 O   0  0  0  0  0  0  0  0  0  0  0  0
  2  1  1  0
  3  2  2  0
  4  2  1  0
  5  4  1  0
  6  5  1  0
  7  6  1  0
  8  9  1  6
  8  7  1  0
 10  8  1  0
 11 10  2  0
 12 13  1  0
 14 13  1  1
 14 15  1  0
 15 10  1  0
 16 14  1  0
 16 17  2  0
 19 20  2  0
 19 18  1  0
 21 19  1  0
 23 22  1  6
 22 21  1  0
 23 24  1  0
 24 16  1  0
 25 23  1  0
 26 25  1  0
 27 25  2  0
M  END
$$$$
