RSQ.pdb
     RDKit          3D

 27 26  0  0  1  0  0  0  0  0999 V2000
    9.8412  -13.4426   18.5691 N   0  0  0  0  0  0  0  0  0  0  0  0
    8.4623  -13.1812   18.3582 C   0  0  0  0  0  0  0  0  0  0  0  0
    7.9521  -12.9507   17.2134 N   0  0  0  0  0  0  0  0  0  0  0  0
    7.6364  -13.1888   19.5352 N   0  0  0  0  0  0  0  0  0  0  0  0
    8.1063  -13.7704   20.7755 C   0  0  0  0  0  0  0  0  0  0  0  0
    8.3053  -15.2405   20.5458 C   0  0  0  0  0  0  0  0  0  0  0  0
    8.6672  -16.0359   21.7442 C   0  0  0  0  0  0  0  0  0  0  0  0
    8.8180  -17.4985   21.5730 C   0  0  2  0  0  0  0  0  0  0  0  0
    7.6556  -18.1718   21.0934 N   0  0  0  0  0  0  0  0  0  0  0  0
    9.3769  -18.1367   22.7974 C   0  0  0  0  0  0  0  0  0  0  0  0
    8.6635  -18.4415   23.7842 O   0  0  0  0  0  0  0  0  0  0  0  0
    6.9742  -12.7776   16.9870 O   0  0  0  0  0  0  0  0  0  0  0  0
   13.6374  -18.6585   23.3160 C   0  0  0  0  0  0  0  0  0  0  0  0
   12.7171  -19.5718   23.8562 C   0  0  1  0  0  0  0  0  0  0  0  0
   11.3995  -18.9046   24.0952 N   0  0  0  0  0  0  0  0  0  0  0  0
   10.7706  -18.4296   22.8938 C   0  0  0  0  0  0  0  0  0  0  0  0
   11.4436  -17.8389   25.1110 O   0  0  0  0  0  0  0  0  0  0  0  0
   11.5652  -16.6618   24.7258 N   0  0  0  0  0  0  0  0  0  0  0  0
    8.5184  -13.9928   26.7613 C   0  0  0  0  0  0  0  0  0  0  0  0
    9.2195  -13.9420   27.9998 O   0  0  0  0  0  0  0  0  0  0  0  0
    8.9773  -12.9750   28.7617 C   0  0  0  0  0  0  0  0  0  0  0  0
   10.1762  -15.0124   28.3104 C   0  0  0  0  0  0  0  0  0  0  0  0
   10.3384  -16.0518   27.2598 C   0  0  1  0  0  0  0  0  0  0  0  0
   11.3232  -17.1196   27.5479 N   0  0  0  0  0  0  0  0  0  0  0  0
   11.3532  -18.0987   26.5028 C   0  0  0  0  0  0  0  0  0  0  0  0
   11.2495  -17.6880   28.9173 O   0  0  0  0  0  0  0  0  0  0  0  0
   11.6576  -16.9910   30.0422 O   0  0  0  0  0  0  0  0  0  0  0  0
  2  1  1  0
  3  2  2  0
  4  2  1  0
  5  4  1  0
  6  5  1  0
  7  6  1  0
  8  9  1  1
  8  7  1  0
 10  8  1  0
 11 10  2  0
 12 13  1  0
 14 13  1  6
 14 15  1  0
 15 10  1  0
 16 14  1  0
 16 17  2  0
 19 20  2  0
 19 18  1  0
 21 19  1  0
 23 22  1  6
 22 21  1  0
 23 24  1  0
 24 16  1  0
 25 23  1  0
 26 25  1  0
 27 25  2  0
M  END
$$$$
