RSQ.pdb
     RDKit          3D

 27 26  0  0  1  0  0  0  0  0999 V2000
    8.5284  -13.0565   15.3880 N   0  0  0  0  0  0  0  0  0  0  0  0
    7.6544  -14.1226   15.7253 C   0  0  0  0  0  0  0  0  0  0  0  0
    7.2348  -14.9865   14.8876 N   0  0  0  0  0  0  0  0  0  0  0  0
    7.2490  -14.1879   17.1032 N   0  0  0  0  0  0  0  0  0  0  0  0
    7.8150  -13.2950   18.0930 C   0  0  0  0  0  0  0  0  0  0  0  0
    9.2444  -13.6990   18.3107 C   0  0  0  0  0  0  0  0  0  0  0  0
    9.7368  -13.5965   19.7059 C   0  0  0  0  0  0  0  0  0  0  0  0
   10.1846  -14.8438   20.3655 C   0  0  2  0  0  0  0  0  0  0  0  0
   10.1658  -16.0040   19.5359 N   0  0  0  0  0  0  0  0  0  0  0  0
    9.4785  -15.0614   21.6588 C   0  0  0  0  0  0  0  0  0  0  0  0
    9.4806  -14.2085   22.5797 O   0  0  0  0  0  0  0  0  0  0  0  0
    6.6497  -15.8006   15.0675 O   0  0  0  0  0  0  0  0  0  0  0  0
    7.6978  -18.8557   22.6942 C   0  0  0  0  0  0  0  0  0  0  0  0
    7.0483  -17.6470   22.9940 C   0  0  1  0  0  0  0  0  0  0  0  0
    8.0437  -16.5369   23.1178 N   0  0  0  0  0  0  0  0  0  0  0  0
    8.7610  -16.2712   21.9016 C   0  0  0  0  0  0  0  0  0  0  0  0
    8.9787  -16.6942   24.2449 O   0  0  0  0  0  0  0  0  0  0  0  0
   10.1420  -17.0617   23.9991 N   0  0  0  0  0  0  0  0  0  0  0  0
   10.2037  -13.5498   28.8635 C   0  0  0  0  0  0  0  0  0  0  0  0
   10.4592  -14.7563   29.5754 O   0  0  0  0  0  0  0  0  0  0  0  0
   11.2543  -14.6984   30.5442 C   0  0  0  0  0  0  0  0  0  0  0  0
    9.7851  -15.9862   29.1389 C   0  0  0  0  0  0  0  0  0  0  0  0
    8.9727  -15.8666   27.8995 C   0  0  2  0  0  0  0  0  0  0  0  0
    9.4126  -16.6921   26.7514 N   0  0  0  0  0  0  0  0  0  0  0  0
    8.6090  -16.4447   25.5917 C   0  0  0  0  0  0  0  0  0  0  0  0
    9.6214  -18.1298   27.0561 O   0  0  0  0  0  0  0  0  0  0  0  0
   10.8520  -18.6483   27.4229 O   0  0  0  0  0  0  0  0  0  0  0  0
  2  1  1  0
  3  2  2  0
  4  2  1  0
  5  4  1  0
  6  5  1  0
  7  6  1  0
  8  9  1  6
  8  7  1  0
 10  8  1  0
 11 10  2  0
 12 13  1  0
 14 13  1  6
 14 15  1  0
 15 10  1  0
 16 14  1  0
 16 17  2  0
 19 20  2  0
 19 18  1  0
 21 19  1  0
 23 22  1  6
 22 21  1  0
 23 24  1  0
 24 16  1  0
 25 23  1  0
 26 25  1  0
 27 25  2  0
M  END
$$$$
