RSQ.pdb
     RDKit          3D

 27 26  0  0  1  0  0  0  0  0999 V2000
    9.4785  -16.9241   15.1623 N   0  0  0  0  0  0  0  0  0  0  0  0
    8.5166  -16.3939   14.2635 C   0  0  0  0  0  0  0  0  0  0  0  0
    8.3930  -16.7739   13.0533 N   0  0  0  0  0  0  0  0  0  0  0  0
    7.6564  -15.3730   14.7975 N   0  0  0  0  0  0  0  0  0  0  0  0
    7.7795  -14.9343   16.1721 C   0  0  0  0  0  0  0  0  0  0  0  0
    9.1599  -14.3724   16.3520 C   0  0  0  0  0  0  0  0  0  0  0  0
    9.3755  -13.5775   17.5854 C   0  0  0  0  0  0  0  0  0  0  0  0
    8.3436  -13.6648   18.6432 C   0  0  2  0  0  0  0  0  0  0  0  0
    7.3486  -12.6437   18.5996 N   0  0  0  0  0  0  0  0  0  0  0  0
    8.9565  -13.8004   19.9940 C   0  0  0  0  0  0  0  0  0  0  0  0
   10.1120  -13.3848   20.2547 O   0  0  0  0  0  0  0  0  0  0  0  0
    7.7426  -16.4256   12.3509 O   0  0  0  0  0  0  0  0  0  0  0  0
    7.1488  -16.3314   22.9503 C   0  0  0  0  0  0  0  0  0  0  0  0
    7.8384  -15.1781   23.3593 C   0  0  1  0  0  0  0  0  0  0  0  0
    8.8341  -14.7699   22.3199 N   0  0  0  0  0  0  0  0  0  0  0  0
    8.2379  -14.4200   21.0603 C   0  0  0  0  0  0  0  0  0  0  0  0
    9.9256  -15.7391   22.1230 O   0  0  0  0  0  0  0  0  0  0  0  0
   10.1801  -16.1130   20.9637 N   0  0  0  0  0  0  0  0  0  0  0  0
   15.9867  -15.8019   20.6489 C   0  0  0  0  0  0  0  0  0  0  0  0
   15.0278  -15.0269   21.3617 O   0  0  0  0  0  0  0  0  0  0  0  0
   14.8209  -13.8551   20.9639 C   0  0  0  0  0  0  0  0  0  0  0  0
   14.3440  -15.6371   22.5095 C   0  0  0  0  0  0  0  0  0  0  0  0
   12.8685  -15.4583   22.5458 C   0  0  1  0  0  0  0  0  0  0  0  0
   12.0953  -16.5571   23.1687 N   0  0  0  0  0  0  0  0  0  0  0  0
   10.6943  -16.2603   23.1955 C   0  0  0  0  0  0  0  0  0  0  0  0
   12.6402  -17.0557   24.4564 O   0  0  0  0  0  0  0  0  0  0  0  0
   13.5633  -18.0852   24.5324 O   0  0  0  0  0  0  0  0  0  0  0  0
  2  1  1  0
  3  2  2  0
  4  2  1  0
  5  4  1  0
  6  5  1  0
  7  6  1  0
  8  9  1  1
  8  7  1  0
 10  8  1  0
 11 10  2  0
 12 13  1  0
 14 13  1  1
 14 15  1  0
 15 10  1  0
 16 14  1  0
 16 17  2  0
 19 20  2  0
 19 18  1  0
 21 19  1  0
 23 22  1  6
 22 21  1  0
 23 24  1  0
 24 16  1  0
 25 23  1  0
 26 25  1  0
 27 25  2  0
M  END
$$$$
