RSQ.pdb
     RDKit          3D

 27 26  0  0  1  0  0  0  0  0999 V2000
    6.9684  -12.7460   18.0449 N   0  0  0  0  0  0  0  0  0  0  0  0
    8.1342  -13.2362   17.4009 C   0  0  0  0  0  0  0  0  0  0  0  0
    8.1717  -13.5897   16.1771 N   0  0  0  0  0  0  0  0  0  0  0  0
    9.3137  -13.3189   18.2191 N   0  0  0  0  0  0  0  0  0  0  0  0
    9.2202  -13.5496   19.6457 C   0  0  0  0  0  0  0  0  0  0  0  0
    8.2494  -14.6734   19.8656 C   0  0  0  0  0  0  0  0  0  0  0  0
    7.9841  -15.0269   21.2813 C   0  0  0  0  0  0  0  0  0  0  0  0
    7.1084  -16.1917   21.5418 C   0  0  2  0  0  0  0  0  0  0  0  0
    5.7097  -15.9186   21.4837 N   0  0  0  0  0  0  0  0  0  0  0  0
    7.4959  -16.8965   22.7955 C   0  0  0  0  0  0  0  0  0  0  0  0
    7.2058  -16.4549   23.9342 O   0  0  0  0  0  0  0  0  0  0  0  0
    8.9559  -13.9894   15.6645 O   0  0  0  0  0  0  0  0  0  0  0  0
    9.6079  -20.8123   24.8257 C   0  0  0  0  0  0  0  0  0  0  0  0
    9.2498  -20.1690   23.6295 C   0  0  2  0  0  0  0  0  0  0  0  0
    8.7186  -18.7993   23.9129 N   0  0  0  0  0  0  0  0  0  0  0  0
    8.2252  -18.1224   22.7456 C   0  0  0  0  0  0  0  0  0  0  0  0
    9.6541  -17.9359   24.6537 O   0  0  0  0  0  0  0  0  0  0  0  0
   10.0756  -16.9070   24.0947 N   0  0  0  0  0  0  0  0  0  0  0  0
    8.6686  -13.5282   26.9042 C   0  0  0  0  0  0  0  0  0  0  0  0
    9.6966  -13.7212   27.8706 O   0  0  0  0  0  0  0  0  0  0  0  0
    9.9265  -12.7784   28.6658 C   0  0  0  0  0  0  0  0  0  0  0  0
   10.4213  -14.9987   27.8803 C   0  0  0  0  0  0  0  0  0  0  0  0
    9.9302  -16.0215   26.9196 C   0  0  1  0  0  0  0  0  0  0  0  0
   10.6738  -17.3020   26.8963 N   0  0  0  0  0  0  0  0  0  0  0  0
   10.0912  -18.2278   25.9715 C   0  0  0  0  0  0  0  0  0  0  0  0
   10.9740  -17.8774   28.2313 O   0  0  0  0  0  0  0  0  0  0  0  0
   10.5234  -19.1248   28.6296 O   0  0  0  0  0  0  0  0  0  0  0  0
  2  1  1  0
  3  2  2  0
  4  2  1  0
  5  4  1  0
  6  5  1  0
  7  6  1  0
  8  9  1  1
  8  7  1  0
 10  8  1  0
 11 10  2  0
 12 13  1  0
 14 13  1  1
 14 15  1  0
 15 10  1  0
 16 14  1  0
 16 17  2  0
 19 20  2  0
 19 18  1  0
 21 19  1  0
 23 22  1  6
 22 21  1  0
 23 24  1  0
 24 16  1  0
 25 23  1  0
 26 25  1  0
 27 25  2  0
M  END
$$$$
