RSQ.pdb
     RDKit          3D

 27 26  0  0  1  0  0  0  0  0999 V2000
   10.9548  -16.2176   16.4505 N   0  0  0  0  0  0  0  0  0  0  0  0
   10.9466  -17.4445   15.7371 C   0  0  0  0  0  0  0  0  0  0  0  0
   11.9706  -18.1904   15.5992 N   0  0  0  0  0  0  0  0  0  0  0  0
    9.6868  -17.8226   15.1563 N   0  0  0  0  0  0  0  0  0  0  0  0
    8.4702  -17.1046   15.4750 C   0  0  0  0  0  0  0  0  0  0  0  0
    8.5637  -16.6561   16.9046 C   0  0  0  0  0  0  0  0  0  0  0  0
    7.4289  -15.8387   17.3982 C   0  0  0  0  0  0  0  0  0  0  0  0
    7.7182  -14.4466   17.8100 C   0  0  2  0  0  0  0  0  0  0  0  0
    8.3404  -13.6402   16.8114 N   0  0  0  0  0  0  0  0  0  0  0  0
    8.4465  -14.4015   19.1085 C   0  0  0  0  0  0  0  0  0  0  0  0
    9.6943  -14.5143   19.1858 O   0  0  0  0  0  0  0  0  0  0  0  0
   12.0389  -19.0735   15.0962 O   0  0  0  0  0  0  0  0  0  0  0  0
    6.4212  -14.2781   22.9236 C   0  0  0  0  0  0  0  0  0  0  0  0
    7.4844  -13.4072   22.6339 C   0  0  1  0  0  0  0  0  0  0  0  0
    8.3834  -14.0078   21.5996 N   0  0  0  0  0  0  0  0  0  0  0  0
    7.7375  -14.2255   20.3348 C   0  0  0  0  0  0  0  0  0  0  0  0
    9.0741  -15.2304   22.0439 O   0  0  0  0  0  0  0  0  0  0  0  0
    8.6730  -16.3253   21.6092 N   0  0  0  0  0  0  0  0  0  0  0  0
   15.3439  -17.9389   22.6272 C   0  0  0  0  0  0  0  0  0  0  0  0
   14.5108  -16.7845   22.6674 O   0  0  0  0  0  0  0  0  0  0  0  0
   15.0752  -15.6673   22.7535 C   0  0  0  0  0  0  0  0  0  0  0  0
   13.0545  -16.9663   22.6070 C   0  0  0  0  0  0  0  0  0  0  0  0
   12.2698  -16.1887   23.6020 C   0  0  2  0  0  0  0  0  0  0  0  0
   10.7991  -16.3508   23.5405 N   0  0  0  0  0  0  0  0  0  0  0  0
   10.1722  -15.2103   22.9419 C   0  0  0  0  0  0  0  0  0  0  0  0
   10.1649  -16.8054   24.8033 O   0  0  0  0  0  0  0  0  0  0  0  0
   10.4685  -18.0167   25.4019 O   0  0  0  0  0  0  0  0  0  0  0  0
  2  1  1  0
  3  2  2  0
  4  2  1  0
  5  4  1  0
  6  5  1  0
  7  6  1  0
  8  9  1  6
  8  7  1  0
 10  8  1  0
 11 10  2  0
 12 13  1  0
 14 13  1  6
 14 15  1  0
 15 10  1  0
 16 14  1  0
 16 17  2  0
 19 20  2  0
 19 18  1  0
 21 19  1  0
 23 22  1  6
 22 21  1  0
 23 24  1  0
 24 16  1  0
 25 23  1  0
 26 25  1  0
 27 25  2  0
M  END
$$$$
