RSQ.pdb
     RDKit          3D

 27 26  0  0  1  0  0  0  0  0999 V2000
   13.7731  -24.1231   14.9570 N   0  0  0  0  0  0  0  0  0  0  0  0
   14.2055  -22.7864   15.1579 C   0  0  0  0  0  0  0  0  0  0  0  0
   14.1542  -21.8830   14.2605 N   0  0  0  0  0  0  0  0  0  0  0  0
   14.7221  -22.4852   16.4655 N   0  0  0  0  0  0  0  0  0  0  0  0
   15.2633  -21.1777   16.7735 C   0  0  0  0  0  0  0  0  0  0  0  0
   14.1099  -20.2300   16.9320 C   0  0  0  0  0  0  0  0  0  0  0  0
   13.9871  -19.5822   18.2605 C   0  0  0  0  0  0  0  0  0  0  0  0
   12.8430  -18.6668   18.4708 C   0  0  2  0  0  0  0  0  0  0  0  0
   12.6337  -17.7150   17.4292 N   0  0  0  0  0  0  0  0  0  0  0  0
   12.8928  -18.0308   19.8168 C   0  0  0  0  0  0  0  0  0  0  0  0
   13.8417  -17.2931   20.1790 O   0  0  0  0  0  0  0  0  0  0  0  0
   14.4068  -20.9000   14.3463 O   0  0  0  0  0  0  0  0  0  0  0  0
    9.4346  -17.8259   22.2871 C   0  0  0  0  0  0  0  0  0  0  0  0
   10.4987  -16.9098   22.3218 C   0  0  1  0  0  0  0  0  0  0  0  0
   11.7947  -17.6053   22.0479 N   0  0  0  0  0  0  0  0  0  0  0  0
   11.8433  -18.2421   20.7609 C   0  0  0  0  0  0  0  0  0  0  0  0
   12.2047  -18.5455   23.1050 O   0  0  0  0  0  0  0  0  0  0  0  0
   11.8510  -19.7345   23.0062 N   0  0  0  0  0  0  0  0  0  0  0  0
   16.7723  -16.8532   25.1173 C   0  0  0  0  0  0  0  0  0  0  0  0
   16.7897  -18.0622   24.3649 O   0  0  0  0  0  0  0  0  0  0  0  0
   17.6405  -18.1600   23.4480 C   0  0  0  0  0  0  0  0  0  0  0  0
   15.8207  -19.1136   24.7015 C   0  0  0  0  0  0  0  0  0  0  0  0
   14.7889  -18.7373   25.7035 C   0  0  2  0  0  0  0  0  0  0  0  0
   13.3824  -18.9906   25.3153 N   0  0  0  0  0  0  0  0  0  0  0  0
   12.9825  -18.1526   24.2246 C   0  0  0  0  0  0  0  0  0  0  0  0
   12.4178  -19.0297   26.4429 O   0  0  0  0  0  0  0  0  0  0  0  0
   12.5625  -19.8814   27.5252 O   0  0  0  0  0  0  0  0  0  0  0  0
  2  1  1  0
  3  2  2  0
  4  2  1  0
  5  4  1  0
  6  5  1  0
  7  6  1  0
  8  9  1  6
  8  7  1  0
 10  8  1  0
 11 10  2  0
 12 13  1  0
 14 13  1  6
 14 15  1  0
 15 10  1  0
 16 14  1  0
 16 17  2  0
 19 20  2  0
 19 18  1  0
 21 19  1  0
 23 22  1  6
 22 21  1  0
 23 24  1  0
 24 16  1  0
 25 23  1  0
 26 25  1  0
 27 25  2  0
M  END
$$$$
