MCL.pdb
     RDKit          3D

 23 22  0  0  1  0  0  0  0  0999 V2000
   24.8987  -11.0307  -21.9619 C   0  0  0  0  0  0  0  0  0  0  0  0
   24.9000  -12.8047  -21.6996 S   0  0  0  0  0  0  0  0  0  0  0  0
   24.5290  -13.2793  -20.0002 C   0  0  0  0  0  0  0  0  0  0  0  0
   24.1786  -12.0725  -19.1350 C   0  0  0  0  0  0  0  0  0  0  0  0
   23.9360  -12.5745  -17.7518 C   0  0  2  0  0  0  0  0  0  0  0  0
   23.7253  -14.0011  -17.7986 N   0  0  0  0  0  0  0  0  0  0  0  0
   22.8387  -11.8718  -17.0428 C   0  0  0  0  0  0  0  0  0  0  0  0
   21.6480  -12.2077  -17.2923 O   0  0  0  0  0  0  0  0  0  0  0  0
   23.0593  -10.8430  -16.1001 N   0  0  0  0  0  0  0  0  0  0  0  0
   21.9571  -10.0927  -15.4635 C   0  0  1  0  0  0  0  0  0  0  0  0
   22.1283  -10.1411  -13.9598 C   0  0  0  0  0  0  0  0  0  0  0  0
   21.0128   -9.0729  -13.0622 S   0  0  0  0  0  0  0  0  0  0  0  0
   22.0204   -8.7169  -16.0107 C   0  0  0  0  0  0  0  0  0  0  0  0
   23.1509   -8.1200  -16.1483 O   0  0  0  0  0  0  0  0  0  0  0  0
   18.6596   -5.1829  -19.6651 C   0  0  0  0  0  0  0  0  0  0  0  0
   19.8716   -5.1834  -18.6964 C   0  0  2  0  0  0  0  0  0  0  0  0
   21.0522   -4.9610  -19.6166 C   0  0  0  0  0  0  0  0  0  0  0  0
   19.9486   -6.4956  -17.9926 C   0  0  0  0  0  0  0  0  0  0  0  0
   20.9509   -6.6124  -16.8968 C   0  0  2  0  0  0  0  0  0  0  0  0
   20.8957   -7.9861  -16.4075 N   0  0  0  0  0  0  0  0  0  0  0  0
   20.6988   -5.7409  -15.7452 C   0  0  0  0  0  0  0  0  0  0  0  0
   19.9518   -6.0893  -14.8004 O   0  0  0  0  0  0  0  0  0  0  0  0
   21.2672   -4.4552  -15.6133 O   0  0  0  0  0  0  0  0  0  0  0  0
  2  1  1  0
  3  2  1  0
  4  3  1  0
  5  4  1  0
  5  6  1  6
  7  5  1  0
  8  7  2  0
  9  7  1  0
 10 13  1  0
 10  9  1  0
 10 11  1  1
 12 11  1  0
 13 20  1  0
 14 13  2  0
 16 15  1  6
 16 17  1  0
 18 16  1  0
 19 18  1  6
 19 21  1  0
 20 19  1  0
 21 22  2  0
 21 23  1  0
M  END
$$$$
