MCL.pdb
     RDKit          3D

 23 22  0  0  1  0  0  0  0  0999 V2000
   21.6961  -17.7488  -17.1198 C   0  0  0  0  0  0  0  0  0  0  0  0
   22.5266  -17.1686  -18.5995 S   0  0  0  0  0  0  0  0  0  0  0  0
   23.7299  -15.8639  -18.2824 C   0  0  0  0  0  0  0  0  0  0  0  0
   23.1809  -14.7997  -17.3370 C   0  0  0  0  0  0  0  0  0  0  0  0
   24.2421  -13.7652  -17.1703 C   0  0  2  0  0  0  0  0  0  0  0  0
   25.4860  -14.4159  -16.8370 N   0  0  0  0  0  0  0  0  0  0  0  0
   23.8930  -12.6992  -16.1996 C   0  0  0  0  0  0  0  0  0  0  0  0
   23.1110  -12.9816  -15.2500 O   0  0  0  0  0  0  0  0  0  0  0  0
   24.3925  -11.3804  -16.2843 N   0  0  0  0  0  0  0  0  0  0  0  0
   24.0410  -10.3286  -15.3081 C   0  0  1  0  0  0  0  0  0  0  0  0
   25.2936   -9.8917  -14.5779 C   0  0  0  0  0  0  0  0  0  0  0  0
   26.6275   -9.3857  -15.6529 S   0  0  0  0  0  0  0  0  0  0  0  0
   23.4105   -9.2349  -16.0842 C   0  0  0  0  0  0  0  0  0  0  0  0
   23.8233   -8.9524  -17.2687 O   0  0  0  0  0  0  0  0  0  0  0  0
   18.1604   -6.0570  -15.9963 C   0  0  0  0  0  0  0  0  0  0  0  0
   19.5960   -6.0890  -16.5839 C   0  0  2  0  0  0  0  0  0  0  0  0
   19.3631   -6.3462  -18.0569 C   0  0  0  0  0  0  0  0  0  0  0  0
   20.3756   -7.1848  -15.9398 C   0  0  0  0  0  0  0  0  0  0  0  0
   21.8121   -7.2987  -16.3173 C   0  0  2  0  0  0  0  0  0  0  0  0
   22.3536   -8.4528  -15.6071 N   0  0  0  0  0  0  0  0  0  0  0  0
   22.6342   -6.1446  -15.9412 C   0  0  0  0  0  0  0  0  0  0  0  0
   22.9790   -5.2753  -16.7763 O   0  0  0  0  0  0  0  0  0  0  0  0
   23.0996   -5.9264  -14.6262 O   0  0  0  0  0  0  0  0  0  0  0  0
  2  1  1  0
  3  2  1  0
  4  3  1  0
  5  4  1  0
  5  6  1  1
  7  5  1  0
  8  7  2  0
  9  7  1  0
 10 13  1  0
 10  9  1  0
 10 11  1  6
 12 11  1  0
 13 20  1  0
 14 13  2  0
 16 15  1  1
 16 17  1  0
 18 16  1  0
 19 18  1  1
 19 21  1  0
 20 19  1  0
 21 22  2  0
 21 23  1  0
M  END
$$$$
