MCL.pdb
     RDKit          3D

 23 22  0  0  1  0  0  0  0  0999 V2000
   29.0222  -41.5529   -8.3479 C   0  0  0  0  0  0  0  0  0  0  0  0
   29.2450  -42.7473   -7.0289 S   0  0  0  0  0  0  0  0  0  0  0  0
   28.3056  -42.3564   -5.5404 C   0  0  0  0  0  0  0  0  0  0  0  0
   27.0187  -41.6019   -5.8603 C   0  0  0  0  0  0  0  0  0  0  0  0
   26.3449  -41.3053   -4.5633 C   0  0  2  0  0  0  0  0  0  0  0  0
   25.7231  -42.5099   -4.0693 N   0  0  0  0  0  0  0  0  0  0  0  0
   25.3904  -40.1718   -4.6290 C   0  0  0  0  0  0  0  0  0  0  0  0
   24.1584  -40.4266   -4.7298 O   0  0  0  0  0  0  0  0  0  0  0  0
   25.7912  -38.8178   -4.5846 N   0  0  0  0  0  0  0  0  0  0  0  0
   24.8264  -37.6991   -4.5631 C   0  0  1  0  0  0  0  0  0  0  0  0
   24.0137  -37.7701   -3.2874 C   0  0  0  0  0  0  0  0  0  0  0  0
   23.0543  -36.3017   -2.9491 S   0  0  0  0  0  0  0  0  0  0  0  0
   25.6274  -36.4571   -4.6723 C   0  0  0  0  0  0  0  0  0  0  0  0
   26.6947  -36.3043   -3.9718 O   0  0  0  0  0  0  0  0  0  0  0  0
   25.7920  -31.6313   -8.5381 C   0  0  0  0  0  0  0  0  0  0  0  0
   26.5550  -32.4635   -7.4740 C   0  0  2  0  0  0  0  0  0  0  0  0
   27.6837  -33.0883   -8.2650 C   0  0  0  0  0  0  0  0  0  0  0  0
   25.6424  -33.4896   -6.8930 C   0  0  0  0  0  0  0  0  0  0  0  0
   26.1149  -34.1921   -5.6674 C   0  0  2  0  0  0  0  0  0  0  0  0
   25.2980  -35.3919   -5.5169 N   0  0  0  0  0  0  0  0  0  0  0  0
   25.9693  -33.4211   -4.4290 C   0  0  0  0  0  0  0  0  0  0  0  0
   24.8829  -33.3658   -3.8057 O   0  0  0  0  0  0  0  0  0  0  0  0
   27.0271  -32.6864   -3.8503 O   0  0  0  0  0  0  0  0  0  0  0  0
  2  1  1  0
  3  2  1  0
  4  3  1  0
  5  4  1  0
  5  6  1  6
  7  5  1  0
  8  7  2  0
  9  7  1  0
 10 13  1  0
 10  9  1  0
 10 11  1  1
 12 11  1  0
 13 20  1  0
 14 13  2  0
 16 15  1  6
 16 17  1  0
 18 16  1  0
 19 18  1  6
 19 21  1  0
 20 19  1  0
 21 22  2  0
 21 23  1  0
M  END
$$$$
