MCL.pdb
     RDKit          3D

 23 22  0  0  1  0  0  0  0  0999 V2000
   20.3271  -27.1566  -12.9671 C   0  0  0  0  0  0  0  0  0  0  0  0
   20.4818  -27.4667  -11.2076 S   0  0  0  0  0  0  0  0  0  0  0  0
   18.9921  -27.0660  -10.2744 C   0  0  0  0  0  0  0  0  0  0  0  0
   18.9574  -25.5983   -9.8590 C   0  0  0  0  0  0  0  0  0  0  0  0
   17.5533  -25.2814   -9.4689 C   0  0  2  0  0  0  0  0  0  0  0  0
   17.0293  -24.2809  -10.3668 N   0  0  0  0  0  0  0  0  0  0  0  0
   17.4002  -24.8891   -8.0466 C   0  0  0  0  0  0  0  0  0  0  0  0
   17.7984  -23.7454   -7.6908 O   0  0  0  0  0  0  0  0  0  0  0  0
   16.8300  -25.7327   -7.0672 N   0  0  0  0  0  0  0  0  0  0  0  0
   16.7078  -25.3406   -5.6480 C   0  0  1  0  0  0  0  0  0  0  0  0
   15.2497  -25.0871   -5.3277 C   0  0  0  0  0  0  0  0  0  0  0  0
   14.1820  -26.4886   -5.6225 S   0  0  0  0  0  0  0  0  0  0  0  0
   17.2908  -26.4509   -4.8583 C   0  0  0  0  0  0  0  0  0  0  0  0
   17.3511  -27.6387   -5.3469 O   0  0  0  0  0  0  0  0  0  0  0  0
   18.4782  -28.3483    0.1918 C   0  0  0  0  0  0  0  0  0  0  0  0
   19.6553  -27.7966   -0.6551 C   0  0  2  0  0  0  0  0  0  0  0  0
   20.5284  -27.1071    0.3708 C   0  0  0  0  0  0  0  0  0  0  0  0
   19.1330  -26.8450   -1.6772 C   0  0  0  0  0  0  0  0  0  0  0  0
   18.2476  -27.4120   -2.7325 C   0  0  2  0  0  0  0  0  0  0  0  0
   17.8042  -26.2993   -3.5661 N   0  0  0  0  0  0  0  0  0  0  0  0
   17.0399  -28.0704   -2.2255 C   0  0  0  0  0  0  0  0  0  0  0  0
   16.0455  -27.4180   -1.8285 O   0  0  0  0  0  0  0  0  0  0  0  0
   16.9050  -29.4733   -2.1417 O   0  0  0  0  0  0  0  0  0  0  0  0
  2  1  1  0
  3  2  1  0
  4  3  1  0
  5  4  1  0
  5  6  1  6
  7  5  1  0
  8  7  2  0
  9  7  1  0
 10 13  1  0
 10  9  1  0
 10 11  1  1
 12 11  1  0
 13 20  1  0
 14 13  2  0
 16 15  1  1
 16 17  1  0
 18 16  1  0
 19 18  1  1
 19 21  1  0
 20 19  1  0
 21 22  2  0
 21 23  1  0
M  END
$$$$
