MCL.pdb
     RDKit          3D

 23 22  0  0  1  0  0  0  0  0999 V2000
   18.2515  -17.0404  -14.1088 C   0  0  0  0  0  0  0  0  0  0  0  0
   16.7074  -17.5991  -14.8295 S   0  0  0  0  0  0  0  0  0  0  0  0
   15.8946  -16.3490  -15.8430 C   0  0  0  0  0  0  0  0  0  0  0  0
   16.7547  -15.0995  -16.0056 C   0  0  0  0  0  0  0  0  0  0  0  0
   15.9851  -14.1381  -16.8468 C   0  0  2  0  0  0  0  0  0  0  0  0
   15.6503  -14.7714  -18.0993 N   0  0  0  0  0  0  0  0  0  0  0  0
   16.6669  -12.8358  -17.0452 C   0  0  0  0  0  0  0  0  0  0  0  0
   17.4535  -12.7105  -18.0243 O   0  0  0  0  0  0  0  0  0  0  0  0
   16.4803  -11.7255  -16.1917 N   0  0  0  0  0  0  0  0  0  0  0  0
   17.0804  -10.4022  -16.4592 C   0  0  1  0  0  0  0  0  0  0  0  0
   16.0109   -9.3380  -16.3306 C   0  0  0  0  0  0  0  0  0  0  0  0
   15.0395   -9.4546  -14.8360 S   0  0  0  0  0  0  0  0  0  0  0  0
   18.1814  -10.2396  -15.4807 C   0  0  0  0  0  0  0  0  0  0  0  0
   18.0727  -10.7132  -14.2903 O   0  0  0  0  0  0  0  0  0  0  0  0
   24.1712  -10.1551  -15.3592 C   0  0  0  0  0  0  0  0  0  0  0  0
   22.9469   -9.6180  -14.5719 C   0  0  2  0  0  0  0  0  0  0  0  0
   22.9895  -10.4079  -13.2817 C   0  0  0  0  0  0  0  0  0  0  0  0
   21.7003   -9.8780  -15.3476 C   0  0  0  0  0  0  0  0  0  0  0  0
   20.4314   -9.3437  -14.7788 C   0  0  2  0  0  0  0  0  0  0  0  0
   19.3831   -9.5829  -15.7654 N   0  0  0  0  0  0  0  0  0  0  0  0
   20.4428   -7.9021  -14.5122 C   0  0  0  0  0  0  0  0  0  0  0  0
   20.6930   -7.4399  -13.3739 O   0  0  0  0  0  0  0  0  0  0  0  0
   20.1723   -6.9335  -15.5032 O   0  0  0  0  0  0  0  0  0  0  0  0
  2  1  1  0
  3  2  1  0
  4  3  1  0
  5  4  1  0
  5  6  1  6
  7  5  1  0
  8  7  2  0
  9  7  1  0
 10 13  1  0
 10  9  1  0
 10 11  1  1
 12 11  1  0
 13 20  1  0
 14 13  2  0
 16 15  1  6
 16 17  1  0
 18 16  1  0
 19 18  1  6
 19 21  1  0
 20 19  1  0
 21 22  2  0
 21 23  1  0
M  END
$$$$
