MCL.pdb
     RDKit          3D

 23 22  0  0  1  0  0  0  0  0999 V2000
   27.9196  -18.5690  -14.5895 C   0  0  0  0  0  0  0  0  0  0  0  0
   28.0220  -17.2138  -15.7595 S   0  0  0  0  0  0  0  0  0  0  0  0
   26.4865  -16.9248  -16.6592 C   0  0  0  0  0  0  0  0  0  0  0  0
   25.5207  -18.0988  -16.5302 C   0  0  0  0  0  0  0  0  0  0  0  0
   25.7964  -19.0261  -17.6652 C   0  0  2  0  0  0  0  0  0  0  0  0
   25.2935  -18.4408  -18.8844 N   0  0  0  0  0  0  0  0  0  0  0  0
   25.2829  -20.4016  -17.4539 C   0  0  0  0  0  0  0  0  0  0  0  0
   24.0478  -20.6134  -17.6045 O   0  0  0  0  0  0  0  0  0  0  0  0
   26.1081  -21.4895  -17.0915 N   0  0  0  0  0  0  0  0  0  0  0  0
   25.5837  -22.7088  -16.4427 C   0  0  1  0  0  0  0  0  0  0  0  0
   26.6464  -23.7868  -16.4809 C   0  0  0  0  0  0  0  0  0  0  0  0
   26.2236  -25.2630  -15.5682 S   0  0  0  0  0  0  0  0  0  0  0  0
   25.2047  -22.3163  -15.0648 C   0  0  0  0  0  0  0  0  0  0  0  0
   26.1034  -22.1688  -14.1571 O   0  0  0  0  0  0  0  0  0  0  0  0
   25.6624  -21.9137  -11.0833 C   0  0  0  0  0  0  0  0  0  0  0  0
   25.7722  -21.0637  -12.3767 C   0  0  2  0  0  0  0  0  0  0  0  0
   26.5997  -19.8738  -11.9415 C   0  0  0  0  0  0  0  0  0  0  0  0
   24.4090  -20.6634  -12.8291 C   0  0  0  0  0  0  0  0  0  0  0  0
   23.5058  -21.7555  -13.2880 C   0  0  2  0  0  0  0  0  0  0  0  0
   23.8870  -22.0823  -14.6581 N   0  0  0  0  0  0  0  0  0  0  0  0
   22.0841  -21.3988  -13.3163 C   0  0  0  0  0  0  0  0  0  0  0  0
   21.4708  -21.0341  -12.2854 O   0  0  0  0  0  0  0  0  0  0  0  0
   21.3027  -21.4413  -14.4916 O   0  0  0  0  0  0  0  0  0  0  0  0
  2  1  1  0
  3  2  1  0
  4  3  1  0
  5  4  1  0
  5  6  1  6
  7  5  1  0
  8  7  2  0
  9  7  1  0
 10 13  1  0
 10  9  1  0
 10 11  1  1
 12 11  1  0
 13 20  1  0
 14 13  2  0
 16 15  1  1
 16 17  1  0
 18 16  1  0
 19 18  1  6
 19 21  1  0
 20 19  1  0
 21 22  2  0
 21 23  1  0
M  END
$$$$
