MCL.pdb
     RDKit          3D

 23 22  0  0  1  0  0  0  0  0999 V2000
   19.2889  -17.7319  -19.6292 C   0  0  0  0  0  0  0  0  0  0  0  0
   17.5328  -17.4185  -19.4451 S   0  0  0  0  0  0  0  0  0  0  0  0
   17.1428  -16.2916  -18.0928 C   0  0  0  0  0  0  0  0  0  0  0  0
   17.8954  -14.9703  -18.2169 C   0  0  0  0  0  0  0  0  0  0  0  0
   17.7623  -14.2605  -16.9120 C   0  0  2  0  0  0  0  0  0  0  0  0
   16.4833  -14.5843  -16.3279 N   0  0  0  0  0  0  0  0  0  0  0  0
   17.9795  -12.7958  -17.0014 C   0  0  0  0  0  0  0  0  0  0  0  0
   18.7681  -12.3564  -17.8834 O   0  0  0  0  0  0  0  0  0  0  0  0
   17.3471  -11.8652  -16.1470 N   0  0  0  0  0  0  0  0  0  0  0  0
   17.5339  -10.4055  -16.2775 C   0  0  1  0  0  0  0  0  0  0  0  0
   16.2410   -9.7059  -15.9143 C   0  0  0  0  0  0  0  0  0  0  0  0
   14.7978  -10.3646  -16.7354 S   0  0  0  0  0  0  0  0  0  0  0  0
   18.6585  -10.0485  -15.3806 C   0  0  0  0  0  0  0  0  0  0  0  0
   18.7064  -10.5051  -14.1796 O   0  0  0  0  0  0  0  0  0  0  0  0
   24.4160  -10.3527  -15.4253 C   0  0  0  0  0  0  0  0  0  0  0  0
   23.3014   -9.5812  -14.6704 C   0  0  2  0  0  0  0  0  0  0  0  0
   23.2591  -10.2640  -13.3205 C   0  0  0  0  0  0  0  0  0  0  0  0
   22.0125   -9.7162  -15.4077 C   0  0  0  0  0  0  0  0  0  0  0  0
   20.8611   -8.9195  -14.8992 C   0  0  2  0  0  0  0  0  0  0  0  0
   19.7189   -9.2178  -15.7571 N   0  0  0  0  0  0  0  0  0  0  0  0
   21.0580   -7.4675  -14.9437 C   0  0  0  0  0  0  0  0  0  0  0  0
   20.8356   -6.7992  -15.9810 O   0  0  0  0  0  0  0  0  0  0  0  0
   21.5117   -6.7175  -13.8368 O   0  0  0  0  0  0  0  0  0  0  0  0
  2  1  1  0
  3  2  1  0
  4  3  1  0
  5  4  1  0
  5  6  1  6
  7  5  1  0
  8  7  2  0
  9  7  1  0
 10 13  1  0
 10  9  1  0
 10 11  1  1
 12 11  1  0
 13 20  1  0
 14 13  2  0
 16 15  1  6
 16 17  1  0
 18 16  1  0
 19 18  1  6
 19 21  1  0
 20 19  1  0
 21 22  2  0
 21 23  1  0
M  END
$$$$
