MCL.pdb
     RDKit          3D

 23 22  0  0  1  0  0  0  0  0999 V2000
   23.2129  -24.2293  -15.8935 C   0  0  0  0  0  0  0  0  0  0  0  0
   24.2739  -22.7859  -15.9755 S   0  0  0  0  0  0  0  0  0  0  0  0
   26.0277  -23.1895  -16.0849 C   0  0  0  0  0  0  0  0  0  0  0  0
   26.2740  -24.4367  -16.9283 C   0  0  0  0  0  0  0  0  0  0  0  0
   27.7297  -24.7493  -16.8424 C   0  0  2  0  0  0  0  0  0  0  0  0
   28.4796  -23.6653  -17.4293 N   0  0  0  0  0  0  0  0  0  0  0  0
   28.0966  -26.0620  -17.4275 C   0  0  0  0  0  0  0  0  0  0  0  0
   28.6474  -26.0828  -18.5629 O   0  0  0  0  0  0  0  0  0  0  0  0
   27.8601  -27.2936  -16.7769 N   0  0  0  0  0  0  0  0  0  0  0  0
   28.3389  -28.5848  -17.3120 C   0  0  1  0  0  0  0  0  0  0  0  0
   29.4129  -29.1332  -16.3962 C   0  0  0  0  0  0  0  0  0  0  0  0
   31.0731  -28.6501  -16.8451 S   0  0  0  0  0  0  0  0  0  0  0  0
   27.1493  -29.4640  -17.4027 C   0  0  0  0  0  0  0  0  0  0  0  0
   26.1934  -29.3597  -16.5492 O   0  0  0  0  0  0  0  0  0  0  0  0
   24.1262  -32.4020  -21.7440 C   0  0  0  0  0  0  0  0  0  0  0  0
   24.0919  -31.9659  -20.2554 C   0  0  2  0  0  0  0  0  0  0  0  0
   22.8757  -31.0681  -20.1841 C   0  0  0  0  0  0  0  0  0  0  0  0
   25.3480  -31.2362  -19.9191 C   0  0  0  0  0  0  0  0  0  0  0  0
   25.7940  -31.2861  -18.4986 C   0  0  2  0  0  0  0  0  0  0  0  0
   26.9783  -30.4405  -18.3894 N   0  0  0  0  0  0  0  0  0  0  0  0
   26.1795  -32.6198  -18.0276 C   0  0  0  0  0  0  0  0  0  0  0  0
   27.3298  -33.0824  -18.2138 O   0  0  0  0  0  0  0  0  0  0  0  0
   25.2952  -33.4788  -17.3394 O   0  0  0  0  0  0  0  0  0  0  0  0
  2  1  1  0
  3  2  1  0
  4  3  1  0
  5  4  1  0
  5  6  1  6
  7  5  1  0
  8  7  2  0
  9  7  1  0
 10 13  1  0
 10  9  1  0
 10 11  1  1
 12 11  1  0
 13 20  1  0
 14 13  2  0
 16 15  1  6
 16 17  1  0
 18 16  1  0
 19 18  1  6
 19 21  1  0
 20 19  1  0
 21 22  2  0
 21 23  1  0
M  END
$$$$
