MCL.pdb
     RDKit          3D

 23 22  0  0  1  0  0  0  0  0999 V2000
   29.6187  -20.7192   -4.9449 C   0  0  0  0  0  0  0  0  0  0  0  0
   28.5135  -19.3145   -4.7997 S   0  0  0  0  0  0  0  0  0  0  0  0
   27.1992  -19.3048   -6.0339 C   0  0  0  0  0  0  0  0  0  0  0  0
   27.4977  -20.2521   -7.1919 C   0  0  0  0  0  0  0  0  0  0  0  0
   26.3769  -20.1261   -8.1676 C   0  0  2  0  0  0  0  0  0  0  0  0
   25.2288  -20.8380   -7.6607 N   0  0  0  0  0  0  0  0  0  0  0  0
   26.7308  -20.5478   -9.5450 C   0  0  0  0  0  0  0  0  0  0  0  0
   27.5909  -21.4594   -9.6938 O   0  0  0  0  0  0  0  0  0  0  0  0
   26.1527  -19.9792  -10.7020 N   0  0  0  0  0  0  0  0  0  0  0  0
   26.4298  -20.4821  -12.0633 C   0  0  1  0  0  0  0  0  0  0  0  0
   25.8715  -21.8833  -12.1971 C   0  0  0  0  0  0  0  0  0  0  0  0
   24.1089  -21.9966  -11.9302 S   0  0  0  0  0  0  0  0  0  0  0  0
   25.8050  -19.5169  -12.9982 C   0  0  0  0  0  0  0  0  0  0  0  0
   24.6968  -18.9388  -12.6963 O   0  0  0  0  0  0  0  0  0  0  0  0
   26.9458  -15.4586  -15.0451 C   0  0  0  0  0  0  0  0  0  0  0  0
   27.7093  -16.7511  -15.4374 C   0  0  2  0  0  0  0  0  0  0  0  0
   28.7532  -16.2552  -16.4144 C   0  0  0  0  0  0  0  0  0  0  0  0
   26.7652  -17.7175  -16.0682 C   0  0  0  0  0  0  0  0  0  0  0  0
   25.6993  -18.2829  -15.1946 C   0  0  2  0  0  0  0  0  0  0  0  0
   26.3525  -19.1701  -14.2377 N   0  0  0  0  0  0  0  0  0  0  0  0
   24.6950  -19.0846  -15.9000 C   0  0  0  0  0  0  0  0  0  0  0  0
   24.7873  -20.3315  -15.9932 O   0  0  0  0  0  0  0  0  0  0  0  0
   23.5610  -18.5220  -16.5254 O   0  0  0  0  0  0  0  0  0  0  0  0
  2  1  1  0
  3  2  1  0
  4  3  1  0
  5  4  1  0
  5  6  1  1
  7  5  1  0
  8  7  2  0
  9  7  1  0
 10 13  1  0
 10  9  1  0
 10 11  1  1
 12 11  1  0
 13 20  1  0
 14 13  2  0
 16 15  1  6
 16 17  1  0
 18 16  1  0
 19 18  1  6
 19 21  1  0
 20 19  1  0
 21 22  2  0
 21 23  1  0
M  END
$$$$
