MCL.pdb
     RDKit          3D

 23 22  0  0  1  0  0  0  0  0999 V2000
   21.0238  -29.4446  -13.9671 C   0  0  0  0  0  0  0  0  0  0  0  0
   20.9713  -29.9384  -15.6902 S   0  0  0  0  0  0  0  0  0  0  0  0
   22.2584  -31.1188  -16.1382 C   0  0  0  0  0  0  0  0  0  0  0  0
   22.4123  -32.2186  -15.0920 C   0  0  0  0  0  0  0  0  0  0  0  0
   23.4531  -33.1626  -15.5915 C   0  0  2  0  0  0  0  0  0  0  0  0
   23.0037  -33.7457  -16.8324 N   0  0  0  0  0  0  0  0  0  0  0  0
   23.8510  -34.1943  -14.6027 C   0  0  0  0  0  0  0  0  0  0  0  0
   23.0749  -35.1695  -14.4041 O   0  0  0  0  0  0  0  0  0  0  0  0
   25.0576  -34.1405  -13.8698 N   0  0  0  0  0  0  0  0  0  0  0  0
   25.4351  -35.1662  -12.8758 C   0  0  1  0  0  0  0  0  0  0  0  0
   26.5021  -36.0621  -13.4689 C   0  0  0  0  0  0  0  0  0  0  0  0
   26.2221  -36.4998  -15.1780 S   0  0  0  0  0  0  0  0  0  0  0  0
   25.8968  -34.4311  -11.6746 C   0  0  0  0  0  0  0  0  0  0  0  0
   26.5376  -33.3227  -11.7933 O   0  0  0  0  0  0  0  0  0  0  0  0
   23.8870  -31.4984   -7.3952 C   0  0  0  0  0  0  0  0  0  0  0  0
   25.1597  -32.3578   -7.6167 C   0  0  2  0  0  0  0  0  0  0  0  0
   26.2653  -31.3275   -7.6966 C   0  0  0  0  0  0  0  0  0  0  0  0
   25.0246  -33.1345   -8.8823 C   0  0  0  0  0  0  0  0  0  0  0  0
   26.0959  -34.1259   -9.1796 C   0  0  2  0  0  0  0  0  0  0  0  0
   25.6783  -34.8687  -10.3642 N   0  0  0  0  0  0  0  0  0  0  0  0
   26.3250  -35.1117   -8.1190 C   0  0  0  0  0  0  0  0  0  0  0  0
   25.6675  -36.1771   -8.0500 O   0  0  0  0  0  0  0  0  0  0  0  0
   27.2894  -34.9391   -7.1023 O   0  0  0  0  0  0  0  0  0  0  0  0
  2  1  1  0
  3  2  1  0
  4  3  1  0
  5  4  1  0
  5  6  1  6
  7  5  1  0
  8  7  2  0
  9  7  1  0
 10 13  1  0
 10  9  1  0
 10 11  1  6
 12 11  1  0
 13 20  1  0
 14 13  2  0
 16 15  1  6
 16 17  1  0
 18 16  1  0
 19 18  1  1
 19 21  1  0
 20 19  1  0
 21 22  2  0
 21 23  1  0
M  END
$$$$
