MCL.pdb
     RDKit          3D

 23 22  0  0  1  0  0  0  0  0999 V2000
   24.5304  -13.1776  -14.7985 C   0  0  0  0  0  0  0  0  0  0  0  0
   24.2670  -14.0622  -16.3361 S   0  0  0  0  0  0  0  0  0  0  0  0
   22.5292  -14.2008  -16.7958 C   0  0  0  0  0  0  0  0  0  0  0  0
   21.7713  -12.8980  -16.5590 C   0  0  0  0  0  0  0  0  0  0  0  0
   20.3480  -13.1390  -16.9337 C   0  0  2  0  0  0  0  0  0  0  0  0
   20.2798  -13.4700  -18.3365 N   0  0  0  0  0  0  0  0  0  0  0  0
   19.4375  -12.0230  -16.5792 C   0  0  0  0  0  0  0  0  0  0  0  0
   19.2452  -11.1093  -17.4285 O   0  0  0  0  0  0  0  0  0  0  0  0
   18.7728  -11.9303  -15.3360 N   0  0  0  0  0  0  0  0  0  0  0  0
   17.8403  -10.8322  -15.0084 C   0  0  1  0  0  0  0  0  0  0  0  0
   16.8984  -11.2914  -13.9153 C   0  0  0  0  0  0  0  0  0  0  0  0
   16.1529   -9.9606  -12.9858 S   0  0  0  0  0  0  0  0  0  0  0  0
   18.6803   -9.6801  -14.6043 C   0  0  0  0  0  0  0  0  0  0  0  0
   19.7696   -9.8648  -13.9465 O   0  0  0  0  0  0  0  0  0  0  0  0
   21.9920   -5.7564  -16.7730 C   0  0  0  0  0  0  0  0  0  0  0  0
   21.1048   -5.8477  -15.5035 C   0  0  2  0  0  0  0  0  0  0  0  0
   22.1138   -5.9654  -14.3818 C   0  0  0  0  0  0  0  0  0  0  0  0
   20.2245   -7.0478  -15.5939 C   0  0  0  0  0  0  0  0  0  0  0  0
   19.2045   -7.2151  -14.5212 C   0  0  2  0  0  0  0  0  0  0  0  0
   18.3664   -8.3490  -14.8972 N   0  0  0  0  0  0  0  0  0  0  0  0
   18.3110   -6.0663  -14.3457 C   0  0  0  0  0  0  0  0  0  0  0  0
   17.2209   -5.9738  -14.9581 O   0  0  0  0  0  0  0  0  0  0  0  0
   18.6062   -4.9852  -13.4868 O   0  0  0  0  0  0  0  0  0  0  0  0
  2  1  1  0
  3  2  1  0
  4  3  1  0
  5  4  1  0
  5  6  1  6
  7  5  1  0
  8  7  2  0
  9  7  1  0
 10 13  1  0
 10  9  1  0
 10 11  1  1
 12 11  1  0
 13 20  1  0
 14 13  2  0
 16 15  1  6
 16 17  1  0
 18 16  1  0
 19 18  1  6
 19 21  1  0
 20 19  1  0
 21 22  2  0
 21 23  1  0
M  END
$$$$
