MCL.pdb
     RDKit          3D

 23 22  0  0  1  0  0  0  0  0999 V2000
   18.5641  -16.0955  -15.2216 C   0  0  0  0  0  0  0  0  0  0  0  0
   17.3926  -15.8385  -16.5547 S   0  0  0  0  0  0  0  0  0  0  0  0
   17.4421  -14.1726  -17.2425 C   0  0  0  0  0  0  0  0  0  0  0  0
   17.9249  -13.1480  -16.2203 C   0  0  0  0  0  0  0  0  0  0  0  0
   17.8952  -11.8126  -16.8835 C   0  0  2  0  0  0  0  0  0  0  0  0
   18.7885  -11.8293  -18.0165 N   0  0  0  0  0  0  0  0  0  0  0  0
   18.1786  -10.6814  -15.9667 C   0  0  0  0  0  0  0  0  0  0  0  0
   17.4700  -10.5539  -14.9301 O   0  0  0  0  0  0  0  0  0  0  0  0
   19.2041   -9.7369  -16.1955 N   0  0  0  0  0  0  0  0  0  0  0  0
   19.5032   -8.6384  -15.2539 C   0  0  1  0  0  0  0  0  0  0  0  0
   21.0046   -8.4994  -15.1156 C   0  0  0  0  0  0  0  0  0  0  0  0
   21.5249   -7.0394  -14.2273 S   0  0  0  0  0  0  0  0  0  0  0  0
   18.8570   -7.4264  -15.8104 C   0  0  0  0  0  0  0  0  0  0  0  0
   18.9320   -7.1647  -17.0670 O   0  0  0  0  0  0  0  0  0  0  0  0
   14.1951   -3.7999  -14.3431 C   0  0  0  0  0  0  0  0  0  0  0  0
   15.3347   -4.0214  -15.3725 C   0  0  2  0  0  0  0  0  0  0  0  0
   14.5905   -4.3022  -16.6599 C   0  0  0  0  0  0  0  0  0  0  0  0
   16.1751   -5.1772  -14.9471 C   0  0  0  0  0  0  0  0  0  0  0  0
   17.5159   -5.3032  -15.5838 C   0  0  2  0  0  0  0  0  0  0  0  0
   18.1393   -6.5054  -15.0402 N   0  0  0  0  0  0  0  0  0  0  0  0
   18.4285   -4.1896  -15.3076 C   0  0  0  0  0  0  0  0  0  0  0  0
   19.1285   -4.1475  -14.2683 O   0  0  0  0  0  0  0  0  0  0  0  0
   18.5858   -3.0889  -16.1778 O   0  0  0  0  0  0  0  0  0  0  0  0
  2  1  1  0
  3  2  1  0
  4  3  1  0
  5  4  1  0
  5  6  1  6
  7  5  1  0
  8  7  2  0
  9  7  1  0
 10 13  1  0
 10  9  1  0
 10 11  1  6
 12 11  1  0
 13 20  1  0
 14 13  2  0
 16 15  1  1
 16 17  1  0
 18 16  1  0
 19 18  1  1
 19 21  1  0
 20 19  1  0
 21 22  2  0
 21 23  1  0
M  END
$$$$
