WGA.pdb
     RDKit          3D

 24 25  0  0  1  0  0  0  0  0999 V2000
   25.2499  -20.2568  -11.9420 N   0  0  0  0  0  0  0  0  0  0  0  0
   26.6804  -20.4227  -11.8939 C   0  0  1  0  0  0  0  0  0  0  0  0
   27.1528  -21.2227  -10.7142 C   0  0  0  0  0  0  0  0  0  0  0  0
   26.7737  -20.6643   -9.4051 C   0  0  0  0  0  0  0  0  0  0  0  0
   25.4873  -20.4383   -8.9248 C   0  0  0  0  0  0  0  0  0  0  0  0
   25.5203  -19.9402   -7.6818 N   0  0  0  0  0  0  0  0  0  0  0  0
   26.8005  -19.8233   -7.3094 C   0  0  0  0  0  0  0  0  0  0  0  0
   27.3527  -19.3634   -6.1379 C   0  0  0  0  0  0  0  0  0  0  0  0
   28.7009  -19.3216   -5.9608 C   0  0  0  0  0  0  0  0  0  0  0  0
   29.4952  -19.7559   -6.9960 C   0  0  0  0  0  0  0  0  0  0  0  0
   28.9543  -20.2224   -8.1826 C   0  0  0  0  0  0  0  0  0  0  0  0
   27.5940  -20.2684   -8.3685 C   0  0  0  0  0  0  0  0  0  0  0  0
   27.2629  -20.8839  -13.1676 C   0  0  0  0  0  0  0  0  0  0  0  0
   28.1304  -21.7807  -13.1596 O   0  0  0  0  0  0  0  0  0  0  0  0
   26.8733  -20.3437  -14.4215 N   0  0  0  0  0  0  0  0  0  0  0  0
   27.5407  -20.7357  -15.6451 C   0  0  0  0  0  0  0  0  0  0  0  0
   26.7500  -21.7862  -16.3222 C   0  0  0  0  0  0  0  0  0  0  0  0
   26.1536  -21.5487  -17.3987 O   0  0  0  0  0  0  0  0  0  0  0  0
   26.1656  -25.4657  -15.8645 C   0  0  0  0  0  0  0  0  0  0  0  0
   25.9499  -24.1117  -16.5148 C   0  0  2  0  0  0  0  0  0  0  0  0
   26.6428  -23.0928  -15.7741 N   0  0  0  0  0  0  0  0  0  0  0  0
   24.5072  -23.7827  -16.5385 C   0  0  0  0  0  0  0  0  0  0  0  0
   23.7937  -24.1687  -17.4891 O   0  0  0  0  0  0  0  0  0  0  0  0
   23.9397  -23.0415  -15.5010 O   0  0  0  0  0  0  0  0  0  0  0  0
  2  1  1  6
  2  3  1  0
  4  5  2  0
  4  3  1  0
  6  5  1  0
  7 12  2  0
  7  6  1  0
  8  7  1  0
  9 10  1  0
  9  8  2  0
 10 11  2  0
 11 12  1  0
 12  4  1  0
 13  2  1  0
 13 15  1  0
 14 13  2  0
 16 15  1  0
 17 16  1  0
 18 17  2  0
 20 19  1  1
 20 21  1  0
 20 22  1  0
 21 17  1  0
 22 24  1  0
 23 22  2  0
M  END
$$$$
