WGA.pdb
     RDKit          3D

 24 25  0  0  1  0  0  0  0  0999 V2000
   25.0491  -20.5926  -11.8298 N   0  0  0  0  0  0  0  0  0  0  0  0
   26.4850  -20.6820  -11.9091 C   0  0  1  0  0  0  0  0  0  0  0  0
   27.1040  -21.4331  -10.7658 C   0  0  0  0  0  0  0  0  0  0  0  0
   26.8550  -20.8427   -9.4397 C   0  0  0  0  0  0  0  0  0  0  0  0
   25.6217  -20.5987   -8.8429 C   0  0  0  0  0  0  0  0  0  0  0  0
   25.7762  -20.0724   -7.6209 N   0  0  0  0  0  0  0  0  0  0  0  0
   27.0867  -19.9540   -7.3765 C   0  0  0  0  0  0  0  0  0  0  0  0
   27.7510  -19.4703   -6.2749 C   0  0  0  0  0  0  0  0  0  0  0  0
   29.1100  -19.4319   -6.2296 C   0  0  0  0  0  0  0  0  0  0  0  0
   29.7993  -19.8942   -7.3261 C   0  0  0  0  0  0  0  0  0  0  0  0
   29.1448  -20.3849   -8.4438 C   0  0  0  0  0  0  0  0  0  0  0  0
   27.7728  -20.4276   -8.4965 C   0  0  0  0  0  0  0  0  0  0  0  0
   26.9750  -21.1362  -13.2237 C   0  0  0  0  0  0  0  0  0  0  0  0
   26.8040  -22.3230  -13.5686 O   0  0  0  0  0  0  0  0  0  0  0  0
   27.6428  -20.2683  -14.1274 N   0  0  0  0  0  0  0  0  0  0  0  0
   28.2801  -20.7792  -15.3228 C   0  0  0  0  0  0  0  0  0  0  0  0
   27.2535  -21.0386  -16.3554 C   0  0  0  0  0  0  0  0  0  0  0  0
   27.5731  -21.1766  -17.5594 O   0  0  0  0  0  0  0  0  0  0  0  0
   23.8112  -22.3293  -16.4370 C   0  0  0  0  0  0  0  0  0  0  0  0
   24.9242  -21.4871  -17.0324 C   0  0  2  0  0  0  0  0  0  0  0  0
   25.8777  -21.1387  -16.0144 N   0  0  0  0  0  0  0  0  0  0  0  0
   24.3681  -20.2420  -17.6076 C   0  0  0  0  0  0  0  0  0  0  0  0
   24.2353  -19.2272  -16.8905 O   0  0  0  0  0  0  0  0  0  0  0  0
   23.9906  -20.1973  -18.9504 O   0  0  0  0  0  0  0  0  0  0  0  0
  2  1  1  6
  2  3  1  0
  4  5  2  0
  4  3  1  0
  6  5  1  0
  7 12  2  0
  7  6  1  0
  8  7  1  0
  9 10  1  0
  9  8  2  0
 10 11  2  0
 11 12  1  0
 12  4  1  0
 13  2  1  0
 13 15  1  0
 14 13  2  0
 16 15  1  0
 17 16  1  0
 18 17  2  0
 20 19  1  1
 20 21  1  0
 20 22  1  0
 21 17  1  0
 22 24  1  0
 23 22  2  0
M  END
$$$$
