WGA.pdb
     RDKit          3D

 24 25  0  0  1  0  0  0  0  0999 V2000
   27.3335  -21.5188  -12.1281 N   0  0  0  0  0  0  0  0  0  0  0  0
   26.1845  -21.3545  -11.2744 C   0  0  1  0  0  0  0  0  0  0  0  0
   26.4233  -20.4275  -10.1176 C   0  0  0  0  0  0  0  0  0  0  0  0
   27.6640  -20.6906   -9.3689 C   0  0  0  0  0  0  0  0  0  0  0  0
   28.8167  -21.3135   -9.8381 C   0  0  0  0  0  0  0  0  0  0  0  0
   29.7570  -21.3620   -8.8855 N   0  0  0  0  0  0  0  0  0  0  0  0
   29.2671  -20.7862   -7.7811 C   0  0  0  0  0  0  0  0  0  0  0  0
   29.8367  -20.5929   -6.5453 C   0  0  0  0  0  0  0  0  0  0  0  0
   29.1544  -19.9798   -5.5408 C   0  0  0  0  0  0  0  0  0  0  0  0
   27.8718  -19.5587   -5.8036 C   0  0  0  0  0  0  0  0  0  0  0  0
   27.2837  -19.7457   -7.0435 C   0  0  0  0  0  0  0  0  0  0  0  0
   27.9668  -20.3632   -8.0630 C   0  0  0  0  0  0  0  0  0  0  0  0
   24.9444  -21.0439  -12.0094 C   0  0  0  0  0  0  0  0  0  0  0  0
   24.8681  -19.9888  -12.6710 O   0  0  0  0  0  0  0  0  0  0  0  0
   23.8167  -21.9065  -11.9966 N   0  0  0  0  0  0  0  0  0  0  0  0
   22.4804  -21.3882  -11.7921 C   0  0  0  0  0  0  0  0  0  0  0  0
   21.6068  -21.8281  -12.9015 C   0  0  0  0  0  0  0  0  0  0  0  0
   22.0674  -22.4966  -13.8564 O   0  0  0  0  0  0  0  0  0  0  0  0
   17.9636  -22.1954  -13.4553 C   0  0  0  0  0  0  0  0  0  0  0  0
   19.3878  -22.0459  -13.9570 C   0  0  2  0  0  0  0  0  0  0  0  0
   20.2227  -21.5068  -12.9181 N   0  0  0  0  0  0  0  0  0  0  0  0
   19.4246  -21.1296  -15.1186 C   0  0  0  0  0  0  0  0  0  0  0  0
   19.5439  -19.8985  -14.9400 O   0  0  0  0  0  0  0  0  0  0  0  0
   19.3261  -21.6366  -16.4151 O   0  0  0  0  0  0  0  0  0  0  0  0
  2  1  1  6
  2  3  1  0
  4  5  2  0
  4  3  1  0
  6  5  1  0
  7 12  2  0
  7  6  1  0
  8  7  1  0
  9 10  1  0
  9  8  2  0
 10 11  2  0
 11 12  1  0
 12  4  1  0
 13  2  1  0
 13 15  1  0
 14 13  2  0
 16 15  1  0
 17 16  1  0
 18 17  2  0
 20 19  1  1
 20 21  1  0
 20 22  1  0
 21 17  1  0
 22 24  1  0
 23 22  2  0
M  END
$$$$
