WGA.pdb
     RDKit          3D

 24 25  0  0  1  0  0  0  0  0999 V2000
   14.2222  -18.2280    2.9111 N   0  0  0  0  0  0  0  0  0  0  0  0
   15.2710  -18.6147    3.8203 C   0  0  1  0  0  0  0  0  0  0  0  0
   16.3338  -19.4639    3.1849 C   0  0  0  0  0  0  0  0  0  0  0  0
   15.8389  -20.7117    2.5790 C   0  0  0  0  0  0  0  0  0  0  0  0
   14.8825  -20.8414    1.5764 C   0  0  0  0  0  0  0  0  0  0  0  0
   14.6962  -22.1284    1.2552 N   0  0  0  0  0  0  0  0  0  0  0  0
   15.5047  -22.8737    2.0181 C   0  0  0  0  0  0  0  0  0  0  0  0
   15.6810  -24.2357    2.0698 C   0  0  0  0  0  0  0  0  0  0  0  0
   16.5649  -24.8015    2.9353 C   0  0  0  0  0  0  0  0  0  0  0  0
   17.2782  -23.9630    3.7594 C   0  0  0  0  0  0  0  0  0  0  0  0
   17.1124  -22.5885    3.7195 C   0  0  0  0  0  0  0  0  0  0  0  0
   16.2224  -22.0098    2.8476 C   0  0  0  0  0  0  0  0  0  0  0  0
   15.8256  -17.4879    4.5930 C   0  0  0  0  0  0  0  0  0  0  0  0
   16.0672  -16.4067    4.0190 O   0  0  0  0  0  0  0  0  0  0  0  0
   16.1006  -17.5814    5.9828 N   0  0  0  0  0  0  0  0  0  0  0  0
   16.6188  -16.4488    6.7211 C   0  0  0  0  0  0  0  0  0  0  0  0
   16.7565  -16.8127    8.1480 C   0  0  0  0  0  0  0  0  0  0  0  0
   16.3358  -17.9137    8.5743 O   0  0  0  0  0  0  0  0  0  0  0  0
   18.6127  -15.4786   11.1048 C   0  0  0  0  0  0  0  0  0  0  0  0
   17.5829  -16.3645   10.4287 C   0  0  2  0  0  0  0  0  0  0  0  0
   17.3683  -15.9274    9.0760 N   0  0  0  0  0  0  0  0  0  0  0  0
   16.2970  -16.2982   11.1583 C   0  0  0  0  0  0  0  0  0  0  0  0
   16.1842  -16.8444   12.2766 O   0  0  0  0  0  0  0  0  0  0  0  0
   15.2081  -15.6266   10.6007 O   0  0  0  0  0  0  0  0  0  0  0  0
  2  1  1  6
  2  3  1  0
  4  5  2  0
  4  3  1  0
  6  5  1  0
  7 12  2  0
  7  6  1  0
  8  7  1  0
  9 10  1  0
  9  8  2  0
 10 11  2  0
 11 12  1  0
 12  4  1  0
 13  2  1  0
 13 15  1  0
 14 13  2  0
 16 15  1  0
 17 16  1  0
 18 17  2  0
 20 19  1  1
 20 21  1  0
 20 22  1  0
 21 17  1  0
 22 24  1  0
 23 22  2  0
M  END
$$$$
