WGA.pdb
     RDKit          3D

 24 25  0  0  1  0  0  0  0  0999 V2000
   20.9931  -16.7764  -18.2943 N   0  0  0  0  0  0  0  0  0  0  0  0
   20.9662  -15.6925  -17.3453 C   0  0  1  0  0  0  0  0  0  0  0  0
   21.9902  -15.8235  -16.2549 C   0  0  0  0  0  0  0  0  0  0  0  0
   21.8450  -17.0286  -15.4208 C   0  0  0  0  0  0  0  0  0  0  0  0
   22.5608  -18.2176  -15.5243 C   0  0  0  0  0  0  0  0  0  0  0  0
   22.1776  -19.0912  -14.5840 N   0  0  0  0  0  0  0  0  0  0  0  0
   21.2179  -18.5208  -13.8459 C   0  0  0  0  0  0  0  0  0  0  0  0
   20.5074  -19.0050  -12.7737 C   0  0  0  0  0  0  0  0  0  0  0  0
   19.5556  -18.2524  -12.1587 C   0  0  0  0  0  0  0  0  0  0  0  0
   19.3270  -16.9873  -12.6470 C   0  0  0  0  0  0  0  0  0  0  0  0
   20.0345  -16.4847  -13.7264 C   0  0  0  0  0  0  0  0  0  0  0  0
   20.9977  -17.2383  -14.3520 C   0  0  0  0  0  0  0  0  0  0  0  0
   20.9684  -14.3589  -17.9744 C   0  0  0  0  0  0  0  0  0  0  0  0
   21.5939  -14.1808  -19.0392 O   0  0  0  0  0  0  0  0  0  0  0  0
   20.2790  -13.2521  -17.4124 N   0  0  0  0  0  0  0  0  0  0  0  0
   20.2745  -11.9616  -18.0687 C   0  0  0  0  0  0  0  0  0  0  0  0
   19.4789  -11.0053  -17.2688 C   0  0  0  0  0  0  0  0  0  0  0  0
   18.7972  -11.3952  -16.2920 O   0  0  0  0  0  0  0  0  0  0  0  0
   18.9542   -7.2921  -17.1473 C   0  0  0  0  0  0  0  0  0  0  0  0
   18.6169   -8.7365  -16.8275 C   0  0  2  0  0  0  0  0  0  0  0  0
   19.4635   -9.6195  -17.5828 N   0  0  0  0  0  0  0  0  0  0  0  0
   17.2064   -9.0187  -17.1755 C   0  0  0  0  0  0  0  0  0  0  0  0
   16.9308   -9.5931  -18.2506 O   0  0  0  0  0  0  0  0  0  0  0  0
   16.1811   -8.6449  -16.3056 O   0  0  0  0  0  0  0  0  0  0  0  0
  2  1  1  6
  2  3  1  0
  4  5  2  0
  4  3  1  0
  6  5  1  0
  7 12  2  0
  7  6  1  0
  8  7  1  0
  9 10  1  0
  9  8  2  0
 10 11  2  0
 11 12  1  0
 12  4  1  0
 13  2  1  0
 13 15  1  0
 14 13  2  0
 16 15  1  0
 17 16  1  0
 18 17  2  0
 20 19  1  6
 20 21  1  0
 20 22  1  0
 21 17  1  0
 22 24  1  0
 23 22  2  0
M  END
$$$$
