WGA.pdb
     RDKit          3D

 24 25  0  0  1  0  0  0  0  0999 V2000
   24.7388  -20.9377   -9.4416 N   0  0  0  0  0  0  0  0  0  0  0  0
   25.9866  -20.3819   -9.8999 C   0  0  1  0  0  0  0  0  0  0  0  0
   27.1554  -20.7252   -9.0220 C   0  0  0  0  0  0  0  0  0  0  0  0
   26.9123  -20.5433   -7.5809 C   0  0  0  0  0  0  0  0  0  0  0  0
   25.6972  -20.6474   -6.9105 C   0  0  0  0  0  0  0  0  0  0  0  0
   25.8552  -20.4400   -5.5967 N   0  0  0  0  0  0  0  0  0  0  0  0
   27.1503  -20.1975   -5.3619 C   0  0  0  0  0  0  0  0  0  0  0  0
   27.8106  -19.9245   -4.1879 C   0  0  0  0  0  0  0  0  0  0  0  0
   29.1521  -19.6993   -4.1674 C   0  0  0  0  0  0  0  0  0  0  0  0
   29.8275  -19.7538   -5.3641 C   0  0  0  0  0  0  0  0  0  0  0  0
   29.1768  -20.0279   -6.5557 C   0  0  0  0  0  0  0  0  0  0  0  0
   27.8226  -20.2572   -6.5841 C   0  0  0  0  0  0  0  0  0  0  0  0
   26.2525  -20.6304  -11.3289 C   0  0  0  0  0  0  0  0  0  0  0  0
   25.4712  -21.3484  -11.9853 O   0  0  0  0  0  0  0  0  0  0  0  0
   27.3758  -20.0796  -12.0002 N   0  0  0  0  0  0  0  0  0  0  0  0
   27.2224  -19.0045  -12.9577 C   0  0  0  0  0  0  0  0  0  0  0  0
   26.6991  -19.5489  -14.2294 C   0  0  0  0  0  0  0  0  0  0  0  0
   26.4427  -18.7926  -15.1954 O   0  0  0  0  0  0  0  0  0  0  0  0
   26.4627  -22.8989  -15.8208 C   0  0  0  0  0  0  0  0  0  0  0  0
   26.0648  -21.4414  -15.6789 C   0  0  2  0  0  0  0  0  0  0  0  0
   26.4718  -20.9419  -14.3937 N   0  0  0  0  0  0  0  0  0  0  0  0
   24.5966  -21.3008  -15.7994 C   0  0  0  0  0  0  0  0  0  0  0  0
   23.8956  -21.1649  -14.7738 O   0  0  0  0  0  0  0  0  0  0  0  0
   23.9911  -21.3194  -17.0567 O   0  0  0  0  0  0  0  0  0  0  0  0
  2  1  1  1
  2  3  1  0
  4  5  2  0
  4  3  1  0
  6  5  1  0
  7 12  2  0
  7  6  1  0
  8  7  1  0
  9 10  1  0
  9  8  2  0
 10 11  2  0
 11 12  1  0
 12  4  1  0
 13  2  1  0
 13 15  1  0
 14 13  2  0
 16 15  1  0
 17 16  1  0
 18 17  2  0
 20 19  1  1
 20 21  1  0
 20 22  1  0
 21 17  1  0
 22 24  1  0
 23 22  2  0
M  END
$$$$
