WGA.pdb
     RDKit          3D

 24 25  0  0  1  0  0  0  0  0999 V2000
   26.3111  -21.8728  -12.5347 N   0  0  0  0  0  0  0  0  0  0  0  0
   25.4629  -21.1945  -11.5878 C   0  0  1  0  0  0  0  0  0  0  0  0
   26.1336  -20.0406  -10.8997 C   0  0  0  0  0  0  0  0  0  0  0  0
   27.3384  -20.4018  -10.1334 C   0  0  0  0  0  0  0  0  0  0  0  0
   28.4974  -21.0017  -10.6167 C   0  0  0  0  0  0  0  0  0  0  0  0
   29.3979  -21.1624   -9.6382 N   0  0  0  0  0  0  0  0  0  0  0  0
   28.8747  -20.6851   -8.5026 C   0  0  0  0  0  0  0  0  0  0  0  0
   29.3978  -20.6243   -7.2331 C   0  0  0  0  0  0  0  0  0  0  0  0
   28.6871  -20.0959   -6.2005 C   0  0  0  0  0  0  0  0  0  0  0  0
   27.4240  -19.6234   -6.4697 C   0  0  0  0  0  0  0  0  0  0  0  0
   26.8826  -19.6772   -7.7435 C   0  0  0  0  0  0  0  0  0  0  0  0
   27.5946  -20.2085   -8.7913 C   0  0  0  0  0  0  0  0  0  0  0  0
   24.1371  -20.8444  -12.1302 C   0  0  0  0  0  0  0  0  0  0  0  0
   24.0434  -19.9608  -13.0062 O   0  0  0  0  0  0  0  0  0  0  0  0
   22.9449  -21.4788  -11.6921 N   0  0  0  0  0  0  0  0  0  0  0  0
   21.6536  -21.0922  -12.2208 C   0  0  0  0  0  0  0  0  0  0  0  0
   20.6906  -22.1974  -12.0249 C   0  0  0  0  0  0  0  0  0  0  0  0
   20.9763  -23.3680  -12.3699 O   0  0  0  0  0  0  0  0  0  0  0  0
   17.4325  -22.6739  -10.2448 C   0  0  0  0  0  0  0  0  0  0  0  0
   18.5405  -23.0804  -11.1987 C   0  0  2  0  0  0  0  0  0  0  0  0
   19.4157  -21.9659  -11.4415 N   0  0  0  0  0  0  0  0  0  0  0  0
   17.9648  -23.5214  -12.4888 C   0  0  0  0  0  0  0  0  0  0  0  0
   17.8902  -22.7214  -13.4459 O   0  0  0  0  0  0  0  0  0  0  0  0
   17.5042  -24.8300  -12.6404 O   0  0  0  0  0  0  0  0  0  0  0  0
  2  1  1  6
  2  3  1  0
  4  5  2  0
  4  3  1  0
  6  5  1  0
  7 12  2  0
  7  6  1  0
  8  7  1  0
  9 10  1  0
  9  8  2  0
 10 11  2  0
 11 12  1  0
 12  4  1  0
 13  2  1  0
 13 15  1  0
 14 13  2  0
 16 15  1  0
 17 16  1  0
 18 17  2  0
 20 19  1  1
 20 21  1  0
 20 22  1  0
 21 17  1  0
 22 24  1  0
 23 22  2  0
M  END
$$$$
