WGA.pdb
     RDKit          3D

 24 25  0  0  1  0  0  0  0  0999 V2000
   19.3268  -22.9168  -13.2801 N   0  0  0  0  0  0  0  0  0  0  0  0
   20.3885  -23.6608  -13.9088 C   0  0  1  0  0  0  0  0  0  0  0  0
   21.7543  -23.0929  -13.6506 C   0  0  0  0  0  0  0  0  0  0  0  0
   21.9055  -21.6737  -14.0139 C   0  0  0  0  0  0  0  0  0  0  0  0
   21.6470  -20.5655  -13.2127 C   0  0  0  0  0  0  0  0  0  0  0  0
   21.9180  -19.4280  -13.8660 N   0  0  0  0  0  0  0  0  0  0  0  0
   22.3540  -19.7406  -15.0921 C   0  0  0  0  0  0  0  0  0  0  0  0
   22.7518  -18.9353  -16.1323 C   0  0  0  0  0  0  0  0  0  0  0  0
   23.1616  -19.4625  -17.3175 C   0  0  0  0  0  0  0  0  0  0  0  0
   23.1643  -20.8322  -17.4407 C   0  0  0  0  0  0  0  0  0  0  0  0
   22.7665  -21.6575  -16.4020 C   0  0  0  0  0  0  0  0  0  0  0  0
   22.3523  -21.1325  -15.2020 C   0  0  0  0  0  0  0  0  0  0  0  0
   20.3168  -25.1127  -13.6612 C   0  0  0  0  0  0  0  0  0  0  0  0
   21.1422  -25.8725  -14.2074 O   0  0  0  0  0  0  0  0  0  0  0  0
   19.3345  -25.6921  -12.8154 N   0  0  0  0  0  0  0  0  0  0  0  0
   19.6276  -26.8693  -12.0252 C   0  0  0  0  0  0  0  0  0  0  0  0
   19.3591  -26.5842  -10.5991 C   0  0  0  0  0  0  0  0  0  0  0  0
   19.5080  -27.4719   -9.7268 O   0  0  0  0  0  0  0  0  0  0  0  0
   18.7469  -23.6733   -8.3894 C   0  0  0  0  0  0  0  0  0  0  0  0
   18.5080  -25.1107   -8.8132 C   0  0  2  0  0  0  0  0  0  0  0  0
   18.9253  -25.2989  -10.1760 N   0  0  0  0  0  0  0  0  0  0  0  0
   17.0689  -25.4397   -8.7079 C   0  0  0  0  0  0  0  0  0  0  0  0
   16.5183  -25.4835   -7.5869 O   0  0  0  0  0  0  0  0  0  0  0  0
   16.3235  -25.7018   -9.8582 O   0  0  0  0  0  0  0  0  0  0  0  0
  2  1  1  1
  2  3  1  0
  4  5  2  0
  4  3  1  0
  6  5  1  0
  7 12  2  0
  7  6  1  0
  8  7  1  0
  9 10  1  0
  9  8  2  0
 10 11  2  0
 11 12  1  0
 12  4  1  0
 13  2  1  0
 13 15  1  0
 14 13  2  0
 16 15  1  0
 17 16  1  0
 18 17  2  0
 20 19  1  6
 20 21  1  0
 20 22  1  0
 21 17  1  0
 22 24  1  0
 23 22  2  0
M  END
$$$$
