WGA.pdb
     RDKit          3D

 24 25  0  0  1  0  0  0  0  0999 V2000
   26.2462  -20.5497  -18.6602 N   0  0  0  0  0  0  0  0  0  0  0  0
   25.5325  -20.3205  -17.4296 C   0  0  1  0  0  0  0  0  0  0  0  0
   24.1956  -21.0020  -17.3749 C   0  0  0  0  0  0  0  0  0  0  0  0
   23.0773  -20.1979  -17.8964 C   0  0  0  0  0  0  0  0  0  0  0  0
   22.5749  -20.1931  -19.1942 C   0  0  0  0  0  0  0  0  0  0  0  0
   21.5374  -19.3530  -19.3034 N   0  0  0  0  0  0  0  0  0  0  0  0
   21.3257  -18.7882  -18.1086 C   0  0  0  0  0  0  0  0  0  0  0  0
   20.3897  -17.8646  -17.7091 C   0  0  0  0  0  0  0  0  0  0  0  0
   20.3483  -17.4093  -16.4279 C   0  0  0  0  0  0  0  0  0  0  0  0
   21.2771  -17.9051  -15.5431 C   0  0  0  0  0  0  0  0  0  0  0  0
   22.2266  -18.8363  -15.9300 C   0  0  0  0  0  0  0  0  0  0  0  0
   22.2741  -19.3014  -17.2217 C   0  0  0  0  0  0  0  0  0  0  0  0
   26.3462  -20.5601  -16.2235 C   0  0  0  0  0  0  0  0  0  0  0  0
   27.0537  -21.5854  -16.1511 O   0  0  0  0  0  0  0  0  0  0  0  0
   26.3596  -19.6613  -15.1245 N   0  0  0  0  0  0  0  0  0  0  0  0
   27.1360  -19.9443  -13.9356 C   0  0  0  0  0  0  0  0  0  0  0  0
   26.2714  -20.5925  -12.9259 C   0  0  0  0  0  0  0  0  0  0  0  0
   25.1444  -21.0433  -13.2386 O   0  0  0  0  0  0  0  0  0  0  0  0
   26.4735  -21.4011   -9.2596 C   0  0  0  0  0  0  0  0  0  0  0  0
   25.7912  -21.2963  -10.6109 C   0  0  2  0  0  0  0  0  0  0  0  0
   26.6910  -20.7233  -11.5746 N   0  0  0  0  0  0  0  0  0  0  0  0
   24.5924  -20.4344  -10.5100 C   0  0  0  0  0  0  0  0  0  0  0  0
   24.6957  -19.1991  -10.6682 O   0  0  0  0  0  0  0  0  0  0  0  0
   23.3446  -20.9975  -10.2384 O   0  0  0  0  0  0  0  0  0  0  0  0
  2  1  1  6
  2  3  1  0
  4  5  2  0
  4  3  1  0
  6  5  1  0
  7 12  2  0
  7  6  1  0
  8  7  1  0
  9 10  1  0
  9  8  2  0
 10 11  2  0
 11 12  1  0
 12  4  1  0
 13  2  1  0
 13 15  1  0
 14 13  2  0
 16 15  1  0
 17 16  1  0
 18 17  2  0
 20 19  1  1
 20 21  1  0
 20 22  1  0
 21 17  1  0
 22 24  1  0
 23 22  2  0
M  END
$$$$
