WGA.pdb
     RDKit          3D

 24 25  0  0  1  0  0  0  0  0999 V2000
   26.6277  -21.8747  -10.6837 N   0  0  0  0  0  0  0  0  0  0  0  0
   25.9608  -21.0806   -9.6833 C   0  0  1  0  0  0  0  0  0  0  0  0
   26.7842  -19.9286   -9.1839 C   0  0  0  0  0  0  0  0  0  0  0  0
   28.0141  -20.3182   -8.4735 C   0  0  0  0  0  0  0  0  0  0  0  0
   29.1436  -20.9261   -9.0134 C   0  0  0  0  0  0  0  0  0  0  0  0
   30.0811  -21.1145   -8.0754 N   0  0  0  0  0  0  0  0  0  0  0  0
   29.6119  -20.6482   -6.9120 C   0  0  0  0  0  0  0  0  0  0  0  0
   30.1874  -20.6147   -5.6644 C   0  0  0  0  0  0  0  0  0  0  0  0
   29.5273  -20.0931   -4.5954 C   0  0  0  0  0  0  0  0  0  0  0  0
   28.2611  -19.5993   -4.8050 C   0  0  0  0  0  0  0  0  0  0  0  0
   27.6672  -19.6255   -6.0560 C   0  0  0  0  0  0  0  0  0  0  0  0
   28.3279  -20.1497   -7.1403 C   0  0  0  0  0  0  0  0  0  0  0  0
   24.5924  -20.6833  -10.0628 C   0  0  0  0  0  0  0  0  0  0  0  0
   24.0059  -19.7947   -9.4121 O   0  0  0  0  0  0  0  0  0  0  0  0
   23.9031  -21.2769  -11.1529 N   0  0  0  0  0  0  0  0  0  0  0  0
   22.5393  -20.9060  -11.4672 C   0  0  0  0  0  0  0  0  0  0  0  0
   22.5219  -20.0989  -12.7065 C   0  0  0  0  0  0  0  0  0  0  0  0
   21.4553  -19.5965  -13.1316 O   0  0  0  0  0  0  0  0  0  0  0  0
   25.0199  -18.7094  -15.1256 C   0  0  0  0  0  0  0  0  0  0  0  0
   23.6345  -19.1547  -14.6954 C   0  0  2  0  0  0  0  0  0  0  0  0
   23.7106  -19.8697  -13.4505 N   0  0  0  0  0  0  0  0  0  0  0  0
   23.0458  -20.0464  -15.7194 C   0  0  0  0  0  0  0  0  0  0  0  0
   22.3937  -19.5623  -16.6692 O   0  0  0  0  0  0  0  0  0  0  0  0
   23.2166  -21.4284  -15.6277 O   0  0  0  0  0  0  0  0  0  0  0  0
  2  1  1  6
  2  3  1  0
  4  5  2  0
  4  3  1  0
  6  5  1  0
  7 12  2  0
  7  6  1  0
  8  7  1  0
  9 10  1  0
  9  8  2  0
 10 11  2  0
 11 12  1  0
 12  4  1  0
 13  2  1  0
 13 15  1  0
 14 13  2  0
 16 15  1  0
 17 16  1  0
 18 17  2  0
 20 19  1  6
 20 21  1  0
 20 22  1  0
 21 17  1  0
 22 24  1  0
 23 22  2  0
M  END
$$$$
