WGA.pdb
     RDKit          3D

 24 25  0  0  1  0  0  0  0  0999 V2000
   25.0209  -20.9710   -9.5237 N   0  0  0  0  0  0  0  0  0  0  0  0
   26.3543  -20.5440   -9.8641 C   0  0  1  0  0  0  0  0  0  0  0  0
   27.3935  -20.9670   -8.8661 C   0  0  0  0  0  0  0  0  0  0  0  0
   27.1001  -20.5792   -7.4759 C   0  0  0  0  0  0  0  0  0  0  0  0
   25.8623  -20.5909   -6.8400 C   0  0  0  0  0  0  0  0  0  0  0  0
   25.9743  -20.1944   -5.5655 N   0  0  0  0  0  0  0  0  0  0  0  0
   27.2605  -19.9138   -5.3237 C   0  0  0  0  0  0  0  0  0  0  0  0
   27.8793  -19.4701   -4.1796 C   0  0  0  0  0  0  0  0  0  0  0  0
   29.2193  -19.2376   -4.1457 C   0  0  0  0  0  0  0  0  0  0  0  0
   29.9361  -19.4618   -5.2977 C   0  0  0  0  0  0  0  0  0  0  0  0
   29.3274  -19.9091   -6.4586 C   0  0  0  0  0  0  0  0  0  0  0  0
   27.9751  -20.1469   -6.5003 C   0  0  0  0  0  0  0  0  0  0  0  0
   26.7359  -20.8562  -11.2538 C   0  0  0  0  0  0  0  0  0  0  0  0
   27.9192  -20.7006  -11.6178 O   0  0  0  0  0  0  0  0  0  0  0  0
   25.8010  -21.3334  -12.2099 N   0  0  0  0  0  0  0  0  0  0  0  0
   26.2336  -21.8065  -13.5081 C   0  0  0  0  0  0  0  0  0  0  0  0
   25.0599  -22.2710  -14.2789 C   0  0  0  0  0  0  0  0  0  0  0  0
   24.2474  -21.4520  -14.7689 O   0  0  0  0  0  0  0  0  0  0  0  0
   23.8063  -25.5308  -15.6379 C   0  0  0  0  0  0  0  0  0  0  0  0
   23.6869  -24.0625  -15.2743 C   0  0  2  0  0  0  0  0  0  0  0  0
   24.8187  -23.6559  -14.4865 N   0  0  0  0  0  0  0  0  0  0  0  0
   22.4543  -23.8313  -14.4886 C   0  0  0  0  0  0  0  0  0  0  0  0
   21.3446  -23.7979  -15.0623 O   0  0  0  0  0  0  0  0  0  0  0  0
   22.5271  -23.6502  -13.1068 O   0  0  0  0  0  0  0  0  0  0  0  0
  2  1  1  1
  2  3  1  0
  4  5  2  0
  4  3  1  0
  6  5  1  0
  7 12  2  0
  7  6  1  0
  8  7  1  0
  9 10  1  0
  9  8  2  0
 10 11  2  0
 11 12  1  0
 12  4  1  0
 13  2  1  0
 13 15  1  0
 14 13  2  0
 16 15  1  0
 17 16  1  0
 18 17  2  0
 20 19  1  1
 20 21  1  0
 20 22  1  0
 21 17  1  0
 22 24  1  0
 23 22  2  0
M  END
$$$$
