WGA.pdb
     RDKit          3D

 24 25  0  0  1  0  0  0  0  0999 V2000
   26.7389  -19.9623  -10.8858 N   0  0  0  0  0  0  0  0  0  0  0  0
   26.4114  -20.6675   -9.6727 C   0  0  1  0  0  0  0  0  0  0  0  0
   26.6764  -19.8733   -8.4263 C   0  0  0  0  0  0  0  0  0  0  0  0
   27.9444  -20.1987   -7.7515 C   0  0  0  0  0  0  0  0  0  0  0  0
   29.0299  -20.8889   -8.2827 C   0  0  0  0  0  0  0  0  0  0  0  0
   30.0230  -20.9816   -7.3887 N   0  0  0  0  0  0  0  0  0  0  0  0
   29.6346  -20.3699   -6.2635 C   0  0  0  0  0  0  0  0  0  0  0  0
   30.2890  -20.1981   -5.0672 C   0  0  0  0  0  0  0  0  0  0  0  0
   29.7047  -19.5392   -4.0304 C   0  0  0  0  0  0  0  0  0  0  0  0
   28.4336  -19.0495   -4.2194 C   0  0  0  0  0  0  0  0  0  0  0  0
   27.7608  -19.2141   -5.4188 C   0  0  0  0  0  0  0  0  0  0  0  0
   28.3446  -19.8775   -6.4706 C   0  0  0  0  0  0  0  0  0  0  0  0
   25.0677  -21.2746   -9.6890 C   0  0  0  0  0  0  0  0  0  0  0  0
   24.9129  -22.4399   -9.2708 O   0  0  0  0  0  0  0  0  0  0  0  0
   23.9253  -20.5800  -10.1670 N   0  0  0  0  0  0  0  0  0  0  0  0
   22.9410  -21.2409  -10.9979 C   0  0  0  0  0  0  0  0  0  0  0  0
   22.6124  -20.3777  -12.1530 C   0  0  0  0  0  0  0  0  0  0  0  0
   23.5158  -19.9227  -12.8932 O   0  0  0  0  0  0  0  0  0  0  0  0
   21.1710  -21.0954  -14.6350 C   0  0  0  0  0  0  0  0  0  0  0  0
   20.8837  -19.8421  -13.8292 C   0  0  2  0  0  0  0  0  0  0  0  0
   21.2664  -20.0391  -12.4575 N   0  0  0  0  0  0  0  0  0  0  0  0
   19.4387  -19.5259  -13.8779 C   0  0  0  0  0  0  0  0  0  0  0  0
   18.6734  -19.9617  -12.9913 O   0  0  0  0  0  0  0  0  0  0  0  0
   18.9270  -18.7414  -14.9125 O   0  0  0  0  0  0  0  0  0  0  0  0
  2  1  1  6
  2  3  1  0
  4  5  2  0
  4  3  1  0
  6  5  1  0
  7 12  2  0
  7  6  1  0
  8  7  1  0
  9 10  1  0
  9  8  2  0
 10 11  2  0
 11 12  1  0
 12  4  1  0
 13  2  1  0
 13 15  1  0
 14 13  2  0
 16 15  1  0
 17 16  1  0
 18 17  2  0
 20 19  1  6
 20 21  1  0
 20 22  1  0
 21 17  1  0
 22 24  1  0
 23 22  2  0
M  END
$$$$
