CGS.pdb
     RDKit          3D

 17 16  0  0  1  0  0  0  0  0999 V2000
   17.2880  -12.2356  -14.2854 N   0  0  0  0  0  0  0  0  0  0  0  0
   16.2027  -11.6020  -14.9779 C   0  0  1  0  0  0  0  0  0  0  0  0
   14.9472  -11.5344  -14.1156 C   0  0  0  0  0  0  0  0  0  0  0  0
   14.4099  -13.2237  -13.7342 S   0  0  0  0  0  0  0  0  0  0  0  0
   16.5693  -10.1938  -15.3674 C   0  0  0  0  0  0  0  0  0  0  0  0
   15.7779   -9.4571  -16.0117 O   0  0  0  0  0  0  0  0  0  0  0  0
   17.8324   -9.6434  -15.0181 N   0  0  0  0  0  0  0  0  0  0  0  0
   18.2316   -8.3021  -15.3471 C   0  0  0  0  0  0  0  0  0  0  0  0
   19.5659   -8.0512  -14.6970 C   0  0  0  0  0  0  0  0  0  0  0  0
   20.0281   -8.8256  -13.8299 O   0  0  0  0  0  0  0  0  0  0  0  0
   22.4559   -6.9872  -16.7188 O   0  0  0  0  0  0  0  0  0  0  0  0
   22.5161   -6.1039  -15.6234 C   0  0  0  0  0  0  0  0  0  0  0  0
   21.6734   -6.6794  -14.4806 C   0  0  2  0  0  0  0  0  0  0  0  0
   20.3578   -6.9193  -15.0437 N   0  0  0  0  0  0  0  0  0  0  0  0
   21.6552   -5.6957  -13.3988 C   0  0  0  0  0  0  0  0  0  0  0  0
   20.8466   -4.7413  -13.4267 O   0  0  0  0  0  0  0  0  0  0  0  0
   22.5211   -5.7901  -12.3250 O   0  0  0  0  0  0  0  0  0  0  0  0
  2  1  1  1
  2  3  1  0
  3  4  1  0
  5  6  2  0
  5  2  1  0
  7  5  1  0
  8  9  1  0
  8  7  1  0
  9 10  2  0
 11 12  1  0
 13 12  1  6
 14  9  1  0
 14 13  1  0
 15 13  1  0
 15 17  1  0
 16 15  2  0
M  END
$$$$
