CGS.pdb
     RDKit          3D

 17 16  0  0  1  0  0  0  0  0999 V2000
   11.9946  -12.3141  -10.8198 N   0  0  0  0  0  0  0  0  0  0  0  0
   12.3801  -11.1332  -10.1018 C   0  0  1  0  0  0  0  0  0  0  0  0
   12.1529  -11.2865   -8.6020 C   0  0  0  0  0  0  0  0  0  0  0  0
   10.4079  -11.6866   -8.3143 S   0  0  0  0  0  0  0  0  0  0  0  0
   13.8403  -10.8319  -10.3172 C   0  0  0  0  0  0  0  0  0  0  0  0
   14.6770  -11.7421  -10.5529 O   0  0  0  0  0  0  0  0  0  0  0  0
   14.3279   -9.4979  -10.2614 N   0  0  0  0  0  0  0  0  0  0  0  0
   15.6933   -9.1405  -10.5344 C   0  0  0  0  0  0  0  0  0  0  0  0
   15.7928   -7.6397  -10.4719 C   0  0  0  0  0  0  0  0  0  0  0  0
   14.7875   -6.9246  -10.2642 O   0  0  0  0  0  0  0  0  0  0  0  0
   17.9527   -5.7625   -8.4321 O   0  0  0  0  0  0  0  0  0  0  0  0
   17.0125   -5.0694   -9.2190 C   0  0  0  0  0  0  0  0  0  0  0  0
   17.1572   -5.5260  -10.6743 C   0  0  2  0  0  0  0  0  0  0  0  0
   17.0386   -6.9719  -10.6470 N   0  0  0  0  0  0  0  0  0  0  0  0
   18.4613   -5.0742  -11.1575 C   0  0  0  0  0  0  0  0  0  0  0  0
   19.3546   -5.9053  -11.4348 O   0  0  0  0  0  0  0  0  0  0  0  0
   18.7429   -3.7304  -11.3205 O   0  0  0  0  0  0  0  0  0  0  0  0
  2  1  1  6
  2  3  1  0
  3  4  1  0
  5  6  2  0
  5  2  1  0
  7  5  1  0
  8  9  1  0
  8  7  1  0
  9 10  2  0
 11 12  1  0
 13 12  1  1
 14  9  1  0
 14 13  1  0
 15 13  1  0
 15 17  1  0
 16 15  2  0
M  END
$$$$
