CGS.pdb
     RDKit          3D

 17 16  0  0  1  0  0  0  0  0999 V2000
   16.1036  -11.9616  -16.3388 N   0  0  0  0  0  0  0  0  0  0  0  0
   17.0419  -11.6545  -15.2976 C   0  0  1  0  0  0  0  0  0  0  0  0
   17.5817  -12.9172  -14.6353 C   0  0  0  0  0  0  0  0  0  0  0  0
   16.2684  -13.6525  -13.6242 S   0  0  0  0  0  0  0  0  0  0  0  0
   18.2152  -10.8863  -15.8476 C   0  0  0  0  0  0  0  0  0  0  0  0
   18.8207  -11.2560  -16.8873 O   0  0  0  0  0  0  0  0  0  0  0  0
   18.6832   -9.7073  -15.2063 N   0  0  0  0  0  0  0  0  0  0  0  0
   19.7555   -8.8982  -15.7182 C   0  0  0  0  0  0  0  0  0  0  0  0
   19.9792   -7.7702  -14.7467 C   0  0  0  0  0  0  0  0  0  0  0  0
   19.2329   -7.6001  -13.7572 O   0  0  0  0  0  0  0  0  0  0  0  0
   23.3049   -5.5191  -15.2663 O   0  0  0  0  0  0  0  0  0  0  0  0
   22.7996   -5.5536  -13.9521 C   0  0  0  0  0  0  0  0  0  0  0  0
   21.2795   -5.7348  -14.0142 C   0  0  2  0  0  0  0  0  0  0  0  0
   21.0523   -6.8490  -14.9155 N   0  0  0  0  0  0  0  0  0  0  0  0
   20.6994   -4.4846  -14.5025 C   0  0  0  0  0  0  0  0  0  0  0  0
   20.3176   -4.3870  -15.6900 O   0  0  0  0  0  0  0  0  0  0  0  0
   20.5570   -3.3855  -13.6758 O   0  0  0  0  0  0  0  0  0  0  0  0
  2  1  1  6
  2  3  1  0
  3  4  1  0
  5  6  2  0
  5  2  1  0
  7  5  1  0
  8  9  1  0
  8  7  1  0
  9 10  2  0
 11 12  1  0
 13 12  1  6
 14  9  1  0
 14 13  1  0
 15 13  1  0
 15 17  1  0
 16 15  2  0
M  END
$$$$
