CGS.pdb
     RDKit          3D

 17 16  0  0  1  0  0  0  0  0999 V2000
   16.2153  -11.3717  -16.2287 N   0  0  0  0  0  0  0  0  0  0  0  0
   17.4800  -11.3956  -15.5514 C   0  0  1  0  0  0  0  0  0  0  0  0
   18.0425  -12.8095  -15.4581 C   0  0  0  0  0  0  0  0  0  0  0  0
   17.1034  -13.7296  -14.2093 S   0  0  0  0  0  0  0  0  0  0  0  0
   18.4896  -10.5462  -16.2784 C   0  0  0  0  0  0  0  0  0  0  0  0
   18.7027  -10.6798  -17.5117 O   0  0  0  0  0  0  0  0  0  0  0  0
   19.2429   -9.5559  -15.5912 N   0  0  0  0  0  0  0  0  0  0  0  0
   20.2031   -8.7012  -16.2348 C   0  0  0  0  0  0  0  0  0  0  0  0
   20.7561   -7.7691  -15.1900 C   0  0  0  0  0  0  0  0  0  0  0  0
   20.3014   -7.7475  -14.0247 O   0  0  0  0  0  0  0  0  0  0  0  0
   23.1055   -4.6884  -16.3563 O   0  0  0  0  0  0  0  0  0  0  0  0
   23.5924   -5.3112  -15.1907 C   0  0  0  0  0  0  0  0  0  0  0  0
   22.4281   -6.0145  -14.4857 C   0  0  2  0  0  0  0  0  0  0  0  0
   21.8219   -6.8722  -15.4869 N   0  0  0  0  0  0  0  0  0  0  0  0
   21.5140   -4.9842  -13.9948 C   0  0  0  0  0  0  0  0  0  0  0  0
   20.4813   -4.6967  -14.6401 O   0  0  0  0  0  0  0  0  0  0  0  0
   21.7610   -4.3046  -12.8163 O   0  0  0  0  0  0  0  0  0  0  0  0
  2  1  1  6
  2  3  1  0
  3  4  1  0
  5  6  2  0
  5  2  1  0
  7  5  1  0
  8  9  1  0
  8  7  1  0
  9 10  2  0
 11 12  1  0
 13 12  1  6
 14  9  1  0
 14 13  1  0
 15 13  1  0
 15 17  1  0
 16 15  2  0
M  END
$$$$
