CGS.pdb
     RDKit          3D

 17 16  0  0  1  0  0  0  0  0999 V2000
   26.3096  -13.0678  -16.6393 N   0  0  0  0  0  0  0  0  0  0  0  0
   26.6918  -11.7319  -16.2817 C   0  0  1  0  0  0  0  0  0  0  0  0
   28.1967  -11.5233  -16.4089 C   0  0  0  0  0  0  0  0  0  0  0  0
   29.0363  -12.5771  -15.1955 S   0  0  0  0  0  0  0  0  0  0  0  0
   26.0112  -10.7265  -17.1734 C   0  0  0  0  0  0  0  0  0  0  0  0
   25.9929  -10.8563  -18.4252 O   0  0  0  0  0  0  0  0  0  0  0  0
   25.3606   -9.5867  -16.6276 N   0  0  0  0  0  0  0  0  0  0  0  0
   24.6595   -8.6165  -17.4238 C   0  0  0  0  0  0  0  0  0  0  0  0
   23.9941   -7.6489  -16.4818 C   0  0  0  0  0  0  0  0  0  0  0  0
   23.9839   -7.8403  -15.2456 O   0  0  0  0  0  0  0  0  0  0  0  0
   21.6398   -3.3824  -16.1769 O   0  0  0  0  0  0  0  0  0  0  0  0
   22.1937   -4.3937  -16.9856 C   0  0  0  0  0  0  0  0  0  0  0  0
   22.6641   -5.5408  -16.0854 C   0  0  2  0  0  0  0  0  0  0  0  0
   23.3479   -6.4738  -16.9614 N   0  0  0  0  0  0  0  0  0  0  0  0
   21.4834   -6.1234  -15.4492 C   0  0  0  0  0  0  0  0  0  0  0  0
   20.7601   -6.9283  -16.0772 O   0  0  0  0  0  0  0  0  0  0  0  0
   21.1352   -5.8058  -14.1494 O   0  0  0  0  0  0  0  0  0  0  0  0
  2  1  1  6
  2  3  1  0
  3  4  1  0
  5  6  2  0
  5  2  1  0
  7  5  1  0
  8  9  1  0
  8  7  1  0
  9 10  2  0
 11 12  1  0
 13 12  1  6
 14  9  1  0
 14 13  1  0
 15 13  1  0
 15 17  1  0
 16 15  2  0
M  END
$$$$
