CGS.pdb
     RDKit          3D

 17 16  0  0  1  0  0  0  0  0999 V2000
   27.2798  -20.4602   -9.7850 N   0  0  0  0  0  0  0  0  0  0  0  0
   26.0889  -20.7094   -9.0245 C   0  0  1  0  0  0  0  0  0  0  0  0
   25.9914  -19.7895   -7.8127 C   0  0  0  0  0  0  0  0  0  0  0  0
   27.6658  -19.3100   -7.3083 S   0  0  0  0  0  0  0  0  0  0  0  0
   24.8615  -20.4884   -9.8695 C   0  0  0  0  0  0  0  0  0  0  0  0
   23.7117  -20.7981   -9.4618 O   0  0  0  0  0  0  0  0  0  0  0  0
   24.9600  -19.9174  -11.1675 N   0  0  0  0  0  0  0  0  0  0  0  0
   23.8507  -19.8176  -12.0764 C   0  0  0  0  0  0  0  0  0  0  0  0
   24.3444  -20.2111  -13.4430 C   0  0  0  0  0  0  0  0  0  0  0  0
   23.5682  -20.2966  -14.4204 O   0  0  0  0  0  0  0  0  0  0  0  0
   28.2181  -21.2986  -13.7369 O   0  0  0  0  0  0  0  0  0  0  0  0
   27.7534  -20.6566  -14.9012 C   0  0  0  0  0  0  0  0  0  0  0  0
   26.2351  -20.8408  -14.9918 C   0  0  2  0  0  0  0  0  0  0  0  0
   25.7184  -20.5026  -13.6788 N   0  0  0  0  0  0  0  0  0  0  0  0
   25.9742  -22.2312  -15.3617 C   0  0  0  0  0  0  0  0  0  0  0  0
   25.3743  -22.9931  -14.5711 O   0  0  0  0  0  0  0  0  0  0  0  0
   26.3782  -22.7396  -16.5824 O   0  0  0  0  0  0  0  0  0  0  0  0
  2  1  1  6
  2  3  1  0
  3  4  1  0
  5  6  2  0
  5  2  1  0
  7  5  1  0
  8  9  1  0
  8  7  1  0
  9 10  2  0
 11 12  1  0
 13 12  1  1
 14  9  1  0
 14 13  1  0
 15 13  1  0
 15 17  1  0
 16 15  2  0
M  END
$$$$
