CGS.pdb
     RDKit          3D

 17 16  0  0  1  0  0  0  0  0999 V2000
   14.8540  -10.5879  -10.0228 N   0  0  0  0  0  0  0  0  0  0  0  0
   15.0562   -9.1936  -10.2944 C   0  0  1  0  0  0  0  0  0  0  0  0
   14.2092   -8.3133   -9.3824 C   0  0  0  0  0  0  0  0  0  0  0  0
   12.4578   -8.6619   -9.6975 S   0  0  0  0  0  0  0  0  0  0  0  0
   16.4995   -8.8147  -10.0883 C   0  0  0  0  0  0  0  0  0  0  0  0
   17.1110   -9.0891   -9.0229 O   0  0  0  0  0  0  0  0  0  0  0  0
   17.2272   -8.1285  -11.0981 N   0  0  0  0  0  0  0  0  0  0  0  0
   18.6120   -7.7647  -10.9695 C   0  0  0  0  0  0  0  0  0  0  0  0
   19.0387   -7.1294  -12.2659 C   0  0  0  0  0  0  0  0  0  0  0  0
   18.2876   -7.1138  -13.2662 O   0  0  0  0  0  0  0  0  0  0  0  0
   18.6137   -5.0696  -14.4666 O   0  0  0  0  0  0  0  0  0  0  0  0
   19.7363   -4.6344  -13.7358 C   0  0  0  0  0  0  0  0  0  0  0  0
   20.7190   -5.8022  -13.6021 C   0  0  2  0  0  0  0  0  0  0  0  0
   20.3180   -6.5192  -12.4061 N   0  0  0  0  0  0  0  0  0  0  0  0
   22.0667   -5.2437  -13.5020 C   0  0  0  0  0  0  0  0  0  0  0  0
   22.5280   -4.9028  -12.3901 O   0  0  0  0  0  0  0  0  0  0  0  0
   22.8623   -5.0776  -14.6206 O   0  0  0  0  0  0  0  0  0  0  0  0
  2  1  1  1
  2  3  1  0
  3  4  1  0
  5  6  2  0
  5  2  1  0
  7  5  1  0
  8  9  1  0
  8  7  1  0
  9 10  2  0
 11 12  1  0
 13 12  1  1
 14  9  1  0
 14 13  1  0
 15 13  1  0
 15 17  1  0
 16 15  2  0
M  END
$$$$
