CGS.pdb
     RDKit          3D

 17 16  0  0  1  0  0  0  0  0999 V2000
   17.4892  -12.0431  -17.4469 N   0  0  0  0  0  0  0  0  0  0  0  0
   18.2975  -11.9888  -16.2626 C   0  0  1  0  0  0  0  0  0  0  0  0
   18.8583  -13.3593  -15.9000 C   0  0  0  0  0  0  0  0  0  0  0  0
   17.5346  -14.3543  -15.1612 S   0  0  0  0  0  0  0  0  0  0  0  0
   19.4613  -11.0519  -16.4547 C   0  0  0  0  0  0  0  0  0  0  0  0
   20.3354  -11.2532  -17.3376 O   0  0  0  0  0  0  0  0  0  0  0  0
   19.6141   -9.8981  -15.6387 N   0  0  0  0  0  0  0  0  0  0  0  0
   20.6377   -8.9101  -15.8455 C   0  0  0  0  0  0  0  0  0  0  0  0
   20.4002   -7.7951  -14.8625 C   0  0  0  0  0  0  0  0  0  0  0  0
   19.4081   -7.7939  -14.1003 O   0  0  0  0  0  0  0  0  0  0  0  0
   22.9610   -4.5783  -14.9335 O   0  0  0  0  0  0  0  0  0  0  0  0
   22.4378   -4.9135  -13.6696 C   0  0  0  0  0  0  0  0  0  0  0  0
   21.0701   -5.5762  -13.8634 C   0  0  2  0  0  0  0  0  0  0  0  0
   21.2977   -6.6939  -14.7603 N   0  0  0  0  0  0  0  0  0  0  0  0
   20.1636   -4.5757  -14.4248 C   0  0  0  0  0  0  0  0  0  0  0  0
   19.8708   -4.6004  -15.6411 O   0  0  0  0  0  0  0  0  0  0  0  0
   19.6091   -3.5837  -13.6373 O   0  0  0  0  0  0  0  0  0  0  0  0
  2  1  1  6
  2  3  1  0
  3  4  1  0
  5  6  2  0
  5  2  1  0
  7  5  1  0
  8  9  1  0
  8  7  1  0
  9 10  2  0
 11 12  1  0
 13 12  1  6
 14  9  1  0
 14 13  1  0
 15 13  1  0
 15 17  1  0
 16 15  2  0
M  END
$$$$
