CGS.pdb
     RDKit          3D

 17 16  0  0  1  0  0  0  0  0999 V2000
   22.6620   -9.5588  -17.4821 N   0  0  0  0  0  0  0  0  0  0  0  0
   21.2850   -9.5798  -17.0795 C   0  0  1  0  0  0  0  0  0  0  0  0
   20.8261  -10.9871  -16.7144 C   0  0  0  0  0  0  0  0  0  0  0  0
   20.7580  -11.9885  -18.2246 S   0  0  0  0  0  0  0  0  0  0  0  0
   21.0684   -8.6990  -15.8768 C   0  0  0  0  0  0  0  0  0  0  0  0
   19.9380   -8.5828  -15.3355 O   0  0  0  0  0  0  0  0  0  0  0  0
   22.1419   -7.9624  -15.3065 N   0  0  0  0  0  0  0  0  0  0  0  0
   21.9829   -7.0530  -14.2045 C   0  0  0  0  0  0  0  0  0  0  0  0
   22.1736   -5.6570  -14.7344 C   0  0  0  0  0  0  0  0  0  0  0  0
   23.0541   -5.3930  -15.5830 O   0  0  0  0  0  0  0  0  0  0  0  0
   19.4748   -3.6355  -16.1213 O   0  0  0  0  0  0  0  0  0  0  0  0
   20.0155   -2.7998  -15.1250 C   0  0  0  0  0  0  0  0  0  0  0  0
   21.4556   -3.2397  -14.8423 C   0  0  2  0  0  0  0  0  0  0  0  0
   21.3573   -4.5778  -14.2899 N   0  0  0  0  0  0  0  0  0  0  0  0
   22.0403   -2.2820  -13.9047 C   0  0  0  0  0  0  0  0  0  0  0  0
   22.1306   -2.5632  -12.6889 O   0  0  0  0  0  0  0  0  0  0  0  0
   22.5054   -1.0511  -14.3290 O   0  0  0  0  0  0  0  0  0  0  0  0
  2  1  1  1
  2  3  1  0
  3  4  1  0
  5  6  2  0
  5  2  1  0
  7  5  1  0
  8  9  1  0
  8  7  1  0
  9 10  2  0
 11 12  1  0
 13 12  1  1
 14  9  1  0
 14 13  1  0
 15 13  1  0
 15 17  1  0
 16 15  2  0
M  END
$$$$
