CGS.pdb
     RDKit          3D

 17 16  0  0  1  0  0  0  0  0999 V2000
   22.6067  -13.1790  -17.4882 N   0  0  0  0  0  0  0  0  0  0  0  0
   22.6178  -12.4388  -16.2591 C   0  0  1  0  0  0  0  0  0  0  0  0
   23.6246  -13.0095  -15.2668 C   0  0  0  0  0  0  0  0  0  0  0  0
   23.1295  -14.7013  -14.8414 S   0  0  0  0  0  0  0  0  0  0  0  0
   22.9833  -10.9987  -16.5081 C   0  0  0  0  0  0  0  0  0  0  0  0
   23.8949  -10.6762  -17.3137 O   0  0  0  0  0  0  0  0  0  0  0  0
   22.3057   -9.9453  -15.8362 N   0  0  0  0  0  0  0  0  0  0  0  0
   22.5559   -8.5525  -16.0895 C   0  0  0  0  0  0  0  0  0  0  0  0
   21.6643   -7.7555  -15.1752 C   0  0  0  0  0  0  0  0  0  0  0  0
   20.7758   -8.3034  -14.4856 O   0  0  0  0  0  0  0  0  0  0  0  0
   23.0859   -4.8629  -13.3925 O   0  0  0  0  0  0  0  0  0  0  0  0
   21.8081   -4.3724  -13.7246 C   0  0  0  0  0  0  0  0  0  0  0  0
   20.9411   -5.5418  -14.2022 C   0  0  2  0  0  0  0  0  0  0  0  0
   21.7967   -6.3422  -15.0582 N   0  0  0  0  0  0  0  0  0  0  0  0
   19.7910   -4.9851  -14.9132 C   0  0  0  0  0  0  0  0  0  0  0  0
   19.8535   -4.7689  -16.1440 O   0  0  0  0  0  0  0  0  0  0  0  0
   18.6135   -4.6844  -14.2539 O   0  0  0  0  0  0  0  0  0  0  0  0
  2  1  1  6
  2  3  1  0
  3  4  1  0
  5  6  2  0
  5  2  1  0
  7  5  1  0
  8  9  1  0
  8  7  1  0
  9 10  2  0
 11 12  1  0
 13 12  1  6
 14  9  1  0
 14 13  1  0
 15 13  1  0
 15 17  1  0
 16 15  2  0
M  END
$$$$
