CGS.pdb
     RDKit          3D

 17 16  0  0  1  0  0  0  0  0999 V2000
   25.1221  -20.5116   -7.0095 N   0  0  0  0  0  0  0  0  0  0  0  0
   26.2916  -20.1009   -7.7323 C   0  0  1  0  0  0  0  0  0  0  0  0
   27.5322  -20.1059   -6.8461 C   0  0  0  0  0  0  0  0  0  0  0  0
   27.5425  -18.5918   -5.8485 S   0  0  0  0  0  0  0  0  0  0  0  0
   26.5521  -21.0248   -8.8932 C   0  0  0  0  0  0  0  0  0  0  0  0
   26.8750  -22.2293   -8.7220 O   0  0  0  0  0  0  0  0  0  0  0  0
   26.4412  -20.5648  -10.2335 N   0  0  0  0  0  0  0  0  0  0  0  0
   26.4095  -21.4410  -11.3728 C   0  0  0  0  0  0  0  0  0  0  0  0
   26.3132  -20.5824  -12.6055 C   0  0  0  0  0  0  0  0  0  0  0  0
   25.6853  -19.5004  -12.6028 O   0  0  0  0  0  0  0  0  0  0  0  0
   27.8072  -22.1694  -15.9698 O   0  0  0  0  0  0  0  0  0  0  0  0
   27.8534  -20.7624  -16.0122 C   0  0  0  0  0  0  0  0  0  0  0  0
   26.7948  -20.2064  -15.0544 C   0  0  2  0  0  0  0  0  0  0  0  0
   26.9347  -20.9684  -13.8276 N   0  0  0  0  0  0  0  0  0  0  0  0
   25.4863  -20.3814  -15.6832 C   0  0  0  0  0  0  0  0  0  0  0  0
   24.6746  -21.2187  -15.2297 O   0  0  0  0  0  0  0  0  0  0  0  0
   25.1113  -19.6353  -16.7852 O   0  0  0  0  0  0  0  0  0  0  0  0
  2  1  1  1
  2  3  1  0
  3  4  1  0
  5  6  2  0
  5  2  1  0
  7  5  1  0
  8  9  1  0
  8  7  1  0
  9 10  2  0
 11 12  1  0
 13 12  1  6
 14  9  1  0
 14 13  1  0
 15 13  1  0
 15 17  1  0
 16 15  2  0
M  END
$$$$
