CGS.pdb
     RDKit          3D

 17 16  0  0  1  0  0  0  0  0999 V2000
   12.8607  -14.4969  -12.3981 N   0  0  0  0  0  0  0  0  0  0  0  0
   12.7906  -13.4903  -11.3779 C   0  0  1  0  0  0  0  0  0  0  0  0
   12.5373  -14.0985  -10.0030 C   0  0  0  0  0  0  0  0  0  0  0  0
   10.9394  -14.9552  -10.0296 S   0  0  0  0  0  0  0  0  0  0  0  0
   14.0793  -12.7135  -11.3068 C   0  0  0  0  0  0  0  0  0  0  0  0
   15.1962  -13.2649  -11.4872 O   0  0  0  0  0  0  0  0  0  0  0  0
   14.0787  -11.3191  -11.0311 N   0  0  0  0  0  0  0  0  0  0  0  0
   15.2571  -10.4980  -11.0922 C   0  0  0  0  0  0  0  0  0  0  0  0
   14.8848   -9.1283  -10.5906 C   0  0  0  0  0  0  0  0  0  0  0  0
   13.7108   -8.8479  -10.2618 O   0  0  0  0  0  0  0  0  0  0  0  0
   16.2036   -7.5783   -7.9691 O   0  0  0  0  0  0  0  0  0  0  0  0
   15.2289   -6.7750   -8.5923 C   0  0  0  0  0  0  0  0  0  0  0  0
   15.5138   -6.7344  -10.0971 C   0  0  2  0  0  0  0  0  0  0  0  0
   15.8566   -8.0941  -10.4698 N   0  0  0  0  0  0  0  0  0  0  0  0
   16.6104   -5.7931  -10.3196 C   0  0  0  0  0  0  0  0  0  0  0  0
   17.6777   -6.1798  -10.8459 O   0  0  0  0  0  0  0  0  0  0  0  0
   16.5018   -4.4627   -9.9592 O   0  0  0  0  0  0  0  0  0  0  0  0
  2  1  1  6
  2  3  1  0
  3  4  1  0
  5  6  2  0
  5  2  1  0
  7  5  1  0
  8  9  1  0
  8  7  1  0
  9 10  2  0
 11 12  1  0
 13 12  1  1
 14  9  1  0
 14 13  1  0
 15 13  1  0
 15 17  1  0
 16 15  2  0
M  END
$$$$
