CGS.pdb
     RDKit          3D

 17 16  0  0  1  0  0  0  0  0999 V2000
   15.3003   -9.8234  -10.6109 N   0  0  0  0  0  0  0  0  0  0  0  0
   14.9269   -8.6180   -9.9280 C   0  0  1  0  0  0  0  0  0  0  0  0
   14.1704   -8.9127   -8.6376 C   0  0  0  0  0  0  0  0  0  0  0  0
   12.8578  -10.1125   -8.9920 S   0  0  0  0  0  0  0  0  0  0  0  0
   16.1462   -7.8083   -9.5716 C   0  0  0  0  0  0  0  0  0  0  0  0
   16.1805   -7.0780   -8.5471 O   0  0  0  0  0  0  0  0  0  0  0  0
   17.3102   -7.8413  -10.3867 N   0  0  0  0  0  0  0  0  0  0  0  0
   18.5213   -7.1350  -10.0689 C   0  0  0  0  0  0  0  0  0  0  0  0
   19.4748   -7.3252  -11.2182 C   0  0  0  0  0  0  0  0  0  0  0  0
   19.6084   -8.4340  -11.7820 O   0  0  0  0  0  0  0  0  0  0  0  0
   19.1764   -5.8610  -14.1446 O   0  0  0  0  0  0  0  0  0  0  0  0
   20.2210   -6.7981  -14.0252 C   0  0  0  0  0  0  0  0  0  0  0  0
   21.1316   -6.3748  -12.8681 C   0  0  2  0  0  0  0  0  0  0  0  0
   20.2651   -6.2477  -11.7113 N   0  0  0  0  0  0  0  0  0  0  0  0
   21.7691   -5.1123  -13.2392 C   0  0  0  0  0  0  0  0  0  0  0  0
   22.6006   -5.0752  -14.1734 O   0  0  0  0  0  0  0  0  0  0  0  0
   21.4753   -3.9351  -12.5762 O   0  0  0  0  0  0  0  0  0  0  0  0
  2  1  1  1
  2  3  1  0
  3  4  1  0
  5  6  2  0
  5  2  1  0
  7  5  1  0
  8  9  1  0
  8  7  1  0
  9 10  2  0
 11 12  1  0
 13 12  1  6
 14  9  1  0
 14 13  1  0
 15 13  1  0
 15 17  1  0
 16 15  2  0
M  END
$$$$
