CGS.pdb
     RDKit          3D

 17 16  0  0  1  0  0  0  0  0999 V2000
   18.9752   -9.8075  -13.2433 N   0  0  0  0  0  0  0  0  0  0  0  0
   17.6668   -9.7937  -12.6546 C   0  0  1  0  0  0  0  0  0  0  0  0
   17.0750  -11.1957  -12.5637 C   0  0  0  0  0  0  0  0  0  0  0  0
   16.2250  -11.5722  -14.1205 S   0  0  0  0  0  0  0  0  0  0  0  0
   17.7159   -9.2241  -11.2609 C   0  0  0  0  0  0  0  0  0  0  0  0
   18.5957   -9.5753  -10.4321 O   0  0  0  0  0  0  0  0  0  0  0  0
   16.7625   -8.2621  -10.8297 N   0  0  0  0  0  0  0  0  0  0  0  0
   16.7116   -7.7405   -9.4911 C   0  0  0  0  0  0  0  0  0  0  0  0
   15.6643   -6.6595   -9.4625 C   0  0  0  0  0  0  0  0  0  0  0  0
   15.1244   -6.2427  -10.5112 O   0  0  0  0  0  0  0  0  0  0  0  0
   13.1142   -6.1601   -6.4166 O   0  0  0  0  0  0  0  0  0  0  0  0
   13.7875   -4.9601   -6.7171 C   0  0  0  0  0  0  0  0  0  0  0  0
   14.2529   -5.0093   -8.1760 C   0  0  2  0  0  0  0  0  0  0  0  0
   15.2450   -6.0665   -8.2373 N   0  0  0  0  0  0  0  0  0  0  0  0
   14.8024   -3.6973   -8.5150 C   0  0  0  0  0  0  0  0  0  0  0  0
   16.0237   -3.4676   -8.3703 O   0  0  0  0  0  0  0  0  0  0  0  0
   13.9976   -2.6831   -9.0000 O   0  0  0  0  0  0  0  0  0  0  0  0
  2  1  1  1
  2  3  1  0
  3  4  1  0
  5  6  2  0
  5  2  1  0
  7  5  1  0
  8  9  1  0
  8  7  1  0
  9 10  2  0
 11 12  1  0
 13 12  1  1
 14  9  1  0
 14 13  1  0
 15 13  1  0
 15 17  1  0
 16 15  2  0
M  END
$$$$
