ESQ.pdb
     RDKit          3D

 25 24  0  0  1  0  0  0  0  0999 V2000
   22.2712  -11.8943  -19.2607 N   0  0  0  0  0  0  0  0  0  0  0  0
   21.1278  -11.1256  -18.8690 C   0  0  1  0  0  0  0  0  0  0  0  0
   19.9904  -12.0746  -18.5721 C   0  0  0  0  0  0  0  0  0  0  0  0
   20.5275  -13.4825  -18.8326 C   0  0  0  0  0  0  0  0  0  0  0  0
   19.5193  -14.5067  -18.4377 C   0  0  0  0  0  0  0  0  0  0  0  0
   19.7058  -15.7373  -18.6155 O   0  0  0  0  0  0  0  0  0  0  0  0
   21.4666  -10.2689  -17.7242 C   0  0  0  0  0  0  0  0  0  0  0  0
   20.6240   -9.6046  -17.0684 O   0  0  0  0  0  0  0  0  0  0  0  0
   18.3341  -14.1072  -17.8550 O   0  0  0  0  0  0  0  0  0  0  0  0
   24.8021   -8.8186  -14.5511 O   0  0  0  0  0  0  0  0  0  0  0  0
   24.6178   -9.5423  -15.7302 C   0  0  0  0  0  0  0  0  0  0  0  0
   23.2430   -9.2783  -16.2421 C   0  0  2  0  0  0  0  0  0  0  0  0
   22.8195  -10.1486  -17.2898 N   0  0  0  0  0  0  0  0  0  0  0  0
   23.1250   -7.8391  -16.6060 C   0  0  0  0  0  0  0  0  0  0  0  0
   23.6041   -7.3998  -17.6835 O   0  0  0  0  0  0  0  0  0  0  0  0
   18.4210   -4.3819  -14.6202 N   0  0  0  0  0  0  0  0  0  0  0  0
   19.2460   -3.3743  -15.1962 C   0  0  0  0  0  0  0  0  0  0  0  0
   18.8371   -2.1956  -15.1603 O   0  0  0  0  0  0  0  0  0  0  0  0
   20.5428   -3.6882  -15.8210 C   0  0  0  0  0  0  0  0  0  0  0  0
   20.9396   -5.1049  -15.6271 C   0  0  0  0  0  0  0  0  0  0  0  0
   22.2885   -5.4884  -16.1753 C   0  0  2  0  0  0  0  0  0  0  0  0
   22.4758   -6.8928  -15.7729 N   0  0  0  0  0  0  0  0  0  0  0  0
   23.3114   -4.6372  -15.4880 C   0  0  0  0  0  0  0  0  0  0  0  0
   23.8438   -5.0719  -14.4141 O   0  0  0  0  0  0  0  0  0  0  0  0
   23.7265   -3.4137  -15.9264 O   0  0  0  0  0  0  0  0  0  0  0  0
  2  3  1  0
  2  1  1  1
  4  3  1  0
  5  4  1  0
  6  5  2  0
  7  2  1  0
  8  7  2  0
  9  5  1  0
 11 10  1  0
 12 11  1  6
 12 14  1  0
 12 13  1  0
 13  7  1  0
 14 15  2  0
 16 17  1  0
 17 18  2  0
 19 17  1  0
 19 20  1  0
 21 20  1  1
 22 21  1  0
 22 14  1  0
 23 21  1  0
 24 23  2  0
 25 23  1  0
M  END
$$$$
