ESQ.pdb
     RDKit          3D

 25 24  0  0  1  0  0  0  0  0999 V2000
   17.7730  -12.4201  -16.8429 N   0  0  0  0  0  0  0  0  0  0  0  0
   16.6380  -11.5766  -16.6153 C   0  0  1  0  0  0  0  0  0  0  0  0
   16.0132  -11.9590  -15.2940 C   0  0  0  0  0  0  0  0  0  0  0  0
   15.5368  -13.4040  -15.4472 C   0  0  0  0  0  0  0  0  0  0  0  0
   14.9011  -13.8803  -14.1860 C   0  0  0  0  0  0  0  0  0  0  0  0
   13.6807  -14.1746  -14.1176 O   0  0  0  0  0  0  0  0  0  0  0  0
   17.0431  -10.1650  -16.6648 C   0  0  0  0  0  0  0  0  0  0  0  0
   18.2306   -9.7688  -16.5451 O   0  0  0  0  0  0  0  0  0  0  0  0
   15.6649  -14.0083  -13.0440 O   0  0  0  0  0  0  0  0  0  0  0  0
   14.1735   -7.1347  -16.5589 O   0  0  0  0  0  0  0  0  0  0  0  0
   15.2419   -6.8997  -17.4257 C   0  0  0  0  0  0  0  0  0  0  0  0
   16.3873   -7.7607  -17.0156 C   0  0  2  0  0  0  0  0  0  0  0  0
   16.0686   -9.1421  -16.8585 N   0  0  0  0  0  0  0  0  0  0  0  0
   17.0290   -7.1767  -15.8052 C   0  0  0  0  0  0  0  0  0  0  0  0
   16.7734   -7.6207  -14.6558 O   0  0  0  0  0  0  0  0  0  0  0  0
   22.7965   -5.5678  -15.3880 N   0  0  0  0  0  0  0  0  0  0  0  0
   22.3188   -5.0329  -14.1579 C   0  0  0  0  0  0  0  0  0  0  0  0
   23.1604   -4.5953  -13.3469 O   0  0  0  0  0  0  0  0  0  0  0  0
   20.8831   -4.9878  -13.8299 C   0  0  0  0  0  0  0  0  0  0  0  0
   20.0364   -5.5687  -14.9013 C   0  0  0  0  0  0  0  0  0  0  0  0
   18.5498   -5.4999  -14.6712 C   0  0  2  0  0  0  0  0  0  0  0  0
   17.9518   -6.1023  -15.8749 N   0  0  0  0  0  0  0  0  0  0  0  0
   18.1721   -4.0520  -14.6038 C   0  0  0  0  0  0  0  0  0  0  0  0
   17.7747   -3.4758  -15.6695 O   0  0  0  0  0  0  0  0  0  0  0  0
   18.2194   -3.2878  -13.4747 O   0  0  0  0  0  0  0  0  0  0  0  0
  2  3  1  0
  2  1  1  1
  4  3  1  0
  5  4  1  0
  6  5  2  0
  7  2  1  0
  8  7  2  0
  9  5  1  0
 11 10  1  0
 12 11  1  1
 12 14  1  0
 12 13  1  0
 13  7  1  0
 14 15  2  0
 16 17  1  0
 17 18  2  0
 19 17  1  0
 19 20  1  0
 21 20  1  6
 22 21  1  0
 22 14  1  0
 23 21  1  0
 24 23  2  0
 25 23  1  0
M  END
$$$$
