ESQ.pdb
     RDKit          3D

 25 24  0  0  1  0  0  0  0  0999 V2000
   15.6208  -11.9694  -14.2692 N   0  0  0  0  0  0  0  0  0  0  0  0
   14.9714  -12.0393  -12.9944 C   0  0  1  0  0  0  0  0  0  0  0  0
   15.6402  -13.1172  -12.1737 C   0  0  0  0  0  0  0  0  0  0  0  0
   15.4075  -14.4312  -12.9204 C   0  0  0  0  0  0  0  0  0  0  0  0
   15.9610  -15.5771  -12.1447 C   0  0  0  0  0  0  0  0  0  0  0  0
   17.0198  -16.1668  -12.4793 O   0  0  0  0  0  0  0  0  0  0  0  0
   15.0054  -10.7239  -12.3405 C   0  0  0  0  0  0  0  0  0  0  0  0
   15.6286   -9.7292  -12.7919 O   0  0  0  0  0  0  0  0  0  0  0  0
   15.3004  -16.0191  -11.0167 O   0  0  0  0  0  0  0  0  0  0  0  0
   13.1367   -7.8927   -8.8786 O   0  0  0  0  0  0  0  0  0  0  0  0
   13.3144   -9.2185   -9.2768 C   0  0  0  0  0  0  0  0  0  0  0  0
   14.2116   -9.2431  -10.4668 C   0  0  2  0  0  0  0  0  0  0  0  0
   14.3054  -10.5092  -11.1169 N   0  0  0  0  0  0  0  0  0  0  0  0
   15.5416   -8.6908  -10.0875 C   0  0  0  0  0  0  0  0  0  0  0  0
   16.4435   -9.4323   -9.6182 O   0  0  0  0  0  0  0  0  0  0  0  0
   19.7273   -8.2188  -13.1106 N   0  0  0  0  0  0  0  0  0  0  0  0
   20.3008   -7.3963  -12.0996 C   0  0  0  0  0  0  0  0  0  0  0  0
   21.5249   -7.1617  -12.1644 O   0  0  0  0  0  0  0  0  0  0  0  0
   19.4967   -6.8306  -11.0023 C   0  0  0  0  0  0  0  0  0  0  0  0
   18.0766   -7.2575  -11.0591 C   0  0  0  0  0  0  0  0  0  0  0  0
   17.2059   -6.7898   -9.9230 C   0  0  2  0  0  0  0  0  0  0  0  0
   15.8658   -7.3177  -10.2305 N   0  0  0  0  0  0  0  0  0  0  0  0
   17.1702   -5.2931   -9.9711 C   0  0  0  0  0  0  0  0  0  0  0  0
   16.2392   -4.7269  -10.6330 O   0  0  0  0  0  0  0  0  0  0  0  0
   18.0686   -4.4736   -9.3526 O   0  0  0  0  0  0  0  0  0  0  0  0
  2  3  1  0
  2  1  1  6
  4  3  1  0
  5  4  1  0
  6  5  2  0
  7  2  1  0
  8  7  2  0
  9  5  1  0
 11 10  1  0
 12 11  1  1
 12 14  1  0
 12 13  1  0
 13  7  1  0
 14 15  2  0
 16 17  1  0
 17 18  2  0
 19 17  1  0
 19 20  1  0
 21 20  1  6
 22 21  1  0
 22 14  1  0
 23 21  1  0
 24 23  2  0
 25 23  1  0
M  END
$$$$
