ESQ.pdb
     RDKit          3D

 25 24  0  0  1  0  0  0  0  0999 V2000
   18.7574  -11.8531  -16.8054 N   0  0  0  0  0  0  0  0  0  0  0  0
   18.0296  -11.2738  -15.7162 C   0  0  1  0  0  0  0  0  0  0  0  0
   17.4024  -12.3881  -14.9115 C   0  0  0  0  0  0  0  0  0  0  0  0
   16.6555  -13.2714  -15.9118 C   0  0  0  0  0  0  0  0  0  0  0  0
   16.0712  -14.4581  -15.2251 C   0  0  0  0  0  0  0  0  0  0  0  0
   16.2405  -14.6763  -13.9985 O   0  0  0  0  0  0  0  0  0  0  0  0
   18.9195  -10.4242  -14.9128 C   0  0  0  0  0  0  0  0  0  0  0  0
   18.6400  -10.0025  -13.7615 O   0  0  0  0  0  0  0  0  0  0  0  0
   15.3150  -15.3592  -15.9464 O   0  0  0  0  0  0  0  0  0  0  0  0
   22.3328   -8.6555  -16.6605 O   0  0  0  0  0  0  0  0  0  0  0  0
   22.4470   -9.0614  -15.3301 C   0  0  0  0  0  0  0  0  0  0  0  0
   21.0816   -9.1479  -14.7388 C   0  0  2  0  0  0  0  0  0  0  0  0
   20.1895  -10.0250  -15.4239 N   0  0  0  0  0  0  0  0  0  0  0  0
   20.5296   -7.7739  -14.5804 C   0  0  0  0  0  0  0  0  0  0  0  0
   19.8530   -7.2359  -15.4948 O   0  0  0  0  0  0  0  0  0  0  0  0
   18.2145   -5.5414   -9.4881 N   0  0  0  0  0  0  0  0  0  0  0  0
   18.2866   -4.3386  -10.2469 C   0  0  0  0  0  0  0  0  0  0  0  0
   17.7930   -3.3057   -9.7498 O   0  0  0  0  0  0  0  0  0  0  0  0
   18.9166   -4.2902  -11.5778 C   0  0  0  0  0  0  0  0  0  0  0  0
   19.4146   -5.6164  -12.0200 C   0  0  0  0  0  0  0  0  0  0  0  0
   20.2366   -5.6203  -13.2816 C   0  0  2  0  0  0  0  0  0  0  0  0
   20.7305   -7.0020  -13.4078 N   0  0  0  0  0  0  0  0  0  0  0  0
   21.3973   -4.6988  -13.0644 C   0  0  0  0  0  0  0  0  0  0  0  0
   22.4564   -5.1681  -12.5318 O   0  0  0  0  0  0  0  0  0  0  0  0
   21.4126   -3.3757  -13.3968 O   0  0  0  0  0  0  0  0  0  0  0  0
  2  3  1  0
  2  1  1  6
  4  3  1  0
  5  4  1  0
  6  5  2  0
  7  2  1  0
  8  7  2  0
  9  5  1  0
 11 10  1  0
 12 11  1  6
 12 14  1  0
 12 13  1  0
 13  7  1  0
 14 15  2  0
 16 17  1  0
 17 18  2  0
 19 17  1  0
 19 20  1  0
 21 20  1  1
 22 21  1  0
 22 14  1  0
 23 21  1  0
 24 23  2  0
 25 23  1  0
M  END
$$$$
