ESQ.pdb
     RDKit          3D

 25 24  0  0  1  0  0  0  0  0999 V2000
   27.6831  -20.4238   -9.6535 N   0  0  0  0  0  0  0  0  0  0  0  0
   26.4677  -21.1690   -9.7924 C   0  0  1  0  0  0  0  0  0  0  0  0
   25.6633  -21.0161   -8.5227 C   0  0  0  0  0  0  0  0  0  0  0  0
   26.1080  -19.6971   -7.8895 C   0  0  0  0  0  0  0  0  0  0  0  0
   27.4588  -19.8419   -7.2766 C   0  0  0  0  0  0  0  0  0  0  0  0
   28.1075  -20.9177   -7.3254 O   0  0  0  0  0  0  0  0  0  0  0  0
   25.7369  -20.7204  -10.9856 C   0  0  0  0  0  0  0  0  0  0  0  0
   25.4408  -19.5210  -11.2202 O   0  0  0  0  0  0  0  0  0  0  0  0
   28.0322  -18.7668   -6.6289 O   0  0  0  0  0  0  0  0  0  0  0  0
   23.9763  -23.4879  -13.7220 O   0  0  0  0  0  0  0  0  0  0  0  0
   24.6364  -22.3648  -14.2229 C   0  0  0  0  0  0  0  0  0  0  0  0
   24.6402  -21.3062  -13.1737 C   0  0  2  0  0  0  0  0  0  0  0  0
   25.3148  -21.6631  -11.9687 N   0  0  0  0  0  0  0  0  0  0  0  0
   23.2432  -20.8475  -12.9372 C   0  0  0  0  0  0  0  0  0  0  0  0
   22.6223  -21.1680  -11.8906 O   0  0  0  0  0  0  0  0  0  0  0  0
   20.3614  -16.6970  -16.7106 N   0  0  0  0  0  0  0  0  0  0  0  0
   19.3192  -17.0317  -15.7998 C   0  0  0  0  0  0  0  0  0  0  0  0
   18.2012  -16.5053  -15.9748 O   0  0  0  0  0  0  0  0  0  0  0  0
   19.5297  -17.9648  -14.6793 C   0  0  0  0  0  0  0  0  0  0  0  0
   20.8944  -18.5479  -14.6733 C   0  0  0  0  0  0  0  0  0  0  0  0
   21.1468  -19.6139  -13.6402 C   0  0  2  0  0  0  0  0  0  0  0  0
   22.5405  -20.0349  -13.8629 N   0  0  0  0  0  0  0  0  0  0  0  0
   20.2305  -20.7594  -13.9433 C   0  0  0  0  0  0  0  0  0  0  0  0
   20.5952  -21.6177  -14.8128 O   0  0  0  0  0  0  0  0  0  0  0  0
   19.0171  -20.9616  -13.3535 O   0  0  0  0  0  0  0  0  0  0  0  0
  2  3  1  0
  2  1  1  1
  4  3  1  0
  5  4  1  0
  6  5  2  0
  7  2  1  0
  8  7  2  0
  9  5  1  0
 11 10  1  0
 12 11  1  6
 12 14  1  0
 12 13  1  0
 13  7  1  0
 14 15  2  0
 16 17  1  0
 17 18  2  0
 19 17  1  0
 19 20  1  0
 21 20  1  6
 22 21  1  0
 22 14  1  0
 23 21  1  0
 24 23  2  0
 25 23  1  0
M  END
$$$$
