ESQ.pdb
     RDKit          3D

 25 24  0  0  1  0  0  0  0  0999 V2000
   16.3950  -12.0325  -14.8415 N   0  0  0  0  0  0  0  0  0  0  0  0
   17.4744  -11.7513  -15.7400 C   0  0  1  0  0  0  0  0  0  0  0  0
   17.0156  -12.0470  -17.1488 C   0  0  0  0  0  0  0  0  0  0  0  0
   16.7500  -13.5519  -17.2062 C   0  0  0  0  0  0  0  0  0  0  0  0
   17.6455  -14.2020  -18.2046 C   0  0  0  0  0  0  0  0  0  0  0  0
   18.8937  -14.2455  -18.0604 O   0  0  0  0  0  0  0  0  0  0  0  0
   17.9224  -10.3624  -15.5681 C   0  0  0  0  0  0  0  0  0  0  0  0
   18.8944   -9.8549  -16.1838 O   0  0  0  0  0  0  0  0  0  0  0  0
   17.1016  -14.7813  -19.3327 O   0  0  0  0  0  0  0  0  0  0  0  0
   16.4800   -7.9974  -12.3835 O   0  0  0  0  0  0  0  0  0  0  0  0
   16.6576   -7.3542  -13.6093 C   0  0  0  0  0  0  0  0  0  0  0  0
   17.6268   -8.1402  -14.4244 C   0  0  2  0  0  0  0  0  0  0  0  0
   17.2476   -9.4950  -14.6594 N   0  0  0  0  0  0  0  0  0  0  0  0
   18.9835   -8.0182  -13.8224 C   0  0  0  0  0  0  0  0  0  0  0  0
   19.4432   -8.9151  -13.0689 O   0  0  0  0  0  0  0  0  0  0  0  0
   23.7758   -9.2980  -15.8457 N   0  0  0  0  0  0  0  0  0  0  0  0
   23.1199   -8.2038  -16.4784 C   0  0  0  0  0  0  0  0  0  0  0  0
   23.3470   -8.0103  -17.6903 O   0  0  0  0  0  0  0  0  0  0  0  0
   22.2005   -7.3146  -15.7473 C   0  0  0  0  0  0  0  0  0  0  0  0
   22.0237   -7.7195  -14.3306 C   0  0  0  0  0  0  0  0  0  0  0  0
   21.1787   -6.8018  -13.4874 C   0  0  2  0  0  0  0  0  0  0  0  0
   19.8249   -6.9015  -14.0589 N   0  0  0  0  0  0  0  0  0  0  0  0
   21.6956   -5.4096  -13.6822 C   0  0  0  0  0  0  0  0  0  0  0  0
   21.0639   -4.6295  -14.4683 O   0  0  0  0  0  0  0  0  0  0  0  0
   22.8064   -4.9005  -13.0754 O   0  0  0  0  0  0  0  0  0  0  0  0
  2  3  1  0
  2  1  1  1
  4  3  1  0
  5  4  1  0
  6  5  2  0
  7  2  1  0
  8  7  2  0
  9  5  1  0
 11 10  1  0
 12 11  1  1
 12 14  1  0
 12 13  1  0
 13  7  1  0
 14 15  2  0
 16 17  1  0
 17 18  2  0
 19 17  1  0
 19 20  1  0
 21 20  1  6
 22 21  1  0
 22 14  1  0
 23 21  1  0
 24 23  2  0
 25 23  1  0
M  END
$$$$
