ESQ.pdb
     RDKit          3D

 25 24  0  0  1  0  0  0  0  0999 V2000
   24.6209  -20.6708  -13.4097 N   0  0  0  0  0  0  0  0  0  0  0  0
   24.6459  -20.2264  -14.7712 C   0  0  1  0  0  0  0  0  0  0  0  0
   24.0717  -21.3186  -15.6430 C   0  0  0  0  0  0  0  0  0  0  0  0
   25.2193  -22.2888  -15.9265 C   0  0  0  0  0  0  0  0  0  0  0  0
   24.7854  -23.3441  -16.8854 C   0  0  0  0  0  0  0  0  0  0  0  0
   24.6198  -23.1129  -18.1101 O   0  0  0  0  0  0  0  0  0  0  0  0
   23.9182  -18.9562  -14.8985 C   0  0  0  0  0  0  0  0  0  0  0  0
   22.9099  -18.6507  -14.2121 O   0  0  0  0  0  0  0  0  0  0  0  0
   24.5529  -24.6254  -16.4293 O   0  0  0  0  0  0  0  0  0  0  0  0
   25.5635  -15.5613  -16.6792 O   0  0  0  0  0  0  0  0  0  0  0  0
   24.2727  -15.8716  -17.1096 C   0  0  0  0  0  0  0  0  0  0  0  0
   23.6345  -16.7630  -16.0998 C   0  0  2  0  0  0  0  0  0  0  0  0
   24.3406  -17.9756  -15.8437 N   0  0  0  0  0  0  0  0  0  0  0  0
   22.2133  -16.9939  -16.4804 C   0  0  0  0  0  0  0  0  0  0  0  0
   21.8488  -18.0780  -17.0050 O   0  0  0  0  0  0  0  0  0  0  0  0
   18.1556  -18.1113  -12.9887 N   0  0  0  0  0  0  0  0  0  0  0  0
   18.2497  -18.8939  -14.1745 C   0  0  0  0  0  0  0  0  0  0  0  0
   17.8602  -20.0786  -14.1232 O   0  0  0  0  0  0  0  0  0  0  0  0
   18.7867  -18.3462  -15.4324 C   0  0  0  0  0  0  0  0  0  0  0  0
   19.2719  -16.9516  -15.2842 C   0  0  0  0  0  0  0  0  0  0  0  0
   19.7798  -16.2975  -16.5418 C   0  0  2  0  0  0  0  0  0  0  0  0
   21.2020  -16.0207  -16.2773 N   0  0  0  0  0  0  0  0  0  0  0  0
   19.0460  -15.0016  -16.7021 C   0  0  0  0  0  0  0  0  0  0  0  0
   19.5390  -13.9525  -16.1709 O   0  0  0  0  0  0  0  0  0  0  0  0
   17.8733  -14.8510  -17.3827 O   0  0  0  0  0  0  0  0  0  0  0  0
  2  3  1  0
  2  1  1  1
  4  3  1  0
  5  4  1  0
  6  5  2  0
  7  2  1  0
  8  7  2  0
  9  5  1  0
 11 10  1  0
 12 11  1  6
 12 14  1  0
 12 13  1  0
 13  7  1  0
 14 15  2  0
 16 17  1  0
 17 18  2  0
 19 17  1  0
 19 20  1  0
 21 20  1  1
 22 21  1  0
 22 14  1  0
 23 21  1  0
 24 23  2  0
 25 23  1  0
M  END
$$$$
