ESQ.pdb
     RDKit          3D

 25 24  0  0  1  0  0  0  0  0999 V2000
   18.1460  -12.2511  -16.1731 N   0  0  0  0  0  0  0  0  0  0  0  0
   19.1761  -11.5437  -16.8731 C   0  0  1  0  0  0  0  0  0  0  0  0
   18.5492  -10.8089  -18.0349 C   0  0  0  0  0  0  0  0  0  0  0  0
   17.6886  -11.8329  -18.7759 C   0  0  0  0  0  0  0  0  0  0  0  0
   17.0868  -11.2236  -19.9957 C   0  0  0  0  0  0  0  0  0  0  0  0
   17.5233  -11.4601  -21.1508 O   0  0  0  0  0  0  0  0  0  0  0  0
   19.8861  -10.6473  -15.9504 C   0  0  0  0  0  0  0  0  0  0  0  0
   19.3196   -9.9516  -15.0693 O   0  0  0  0  0  0  0  0  0  0  0  0
   16.0121  -10.3672  -19.8705 O   0  0  0  0  0  0  0  0  0  0  0  0
   23.6611  -11.0651  -14.2807 O   0  0  0  0  0  0  0  0  0  0  0  0
   23.5125   -9.9483  -15.1044 C   0  0  0  0  0  0  0  0  0  0  0  0
   22.0618   -9.6223  -15.2090 C   0  0  2  0  0  0  0  0  0  0  0  0
   21.3051  -10.5223  -16.0165 N   0  0  0  0  0  0  0  0  0  0  0  0
   21.9091   -8.2025  -15.6315 C   0  0  0  0  0  0  0  0  0  0  0  0
   21.9000   -7.8840  -16.8488 O   0  0  0  0  0  0  0  0  0  0  0  0
   17.3795   -5.0043  -15.1342 N   0  0  0  0  0  0  0  0  0  0  0  0
   18.2612   -3.9196  -15.4054 C   0  0  0  0  0  0  0  0  0  0  0  0
   17.7554   -2.8092  -15.6676 O   0  0  0  0  0  0  0  0  0  0  0  0
   19.7258   -4.0784  -15.3845 C   0  0  0  0  0  0  0  0  0  0  0  0
   20.1433   -5.4604  -15.0412 C   0  0  0  0  0  0  0  0  0  0  0  0
   21.6208   -5.7385  -15.1252 C   0  0  2  0  0  0  0  0  0  0  0  0
   21.7671   -7.1414  -14.7015 N   0  0  0  0  0  0  0  0  0  0  0  0
   22.3027   -4.8489  -14.1316 C   0  0  0  0  0  0  0  0  0  0  0  0
   22.5222   -5.3002  -12.9596 O   0  0  0  0  0  0  0  0  0  0  0  0
   22.7150   -3.5732  -14.3845 O   0  0  0  0  0  0  0  0  0  0  0  0
  2  3  1  0
  2  1  1  1
  4  3  1  0
  5  4  1  0
  6  5  2  0
  7  2  1  0
  8  7  2  0
  9  5  1  0
 11 10  1  0
 12 11  1  6
 12 14  1  0
 12 13  1  0
 13  7  1  0
 14 15  2  0
 16 17  1  0
 17 18  2  0
 19 17  1  0
 19 20  1  0
 21 20  1  1
 22 21  1  0
 22 14  1  0
 23 21  1  0
 24 23  2  0
 25 23  1  0
M  END
$$$$
