ESQ.pdb
     RDKit          3D

 25 24  0  0  1  0  0  0  0  0999 V2000
   17.9956  -12.2084  -16.7737 N   0  0  0  0  0  0  0  0  0  0  0  0
   19.3996  -11.9399  -16.6812 C   0  0  1  0  0  0  0  0  0  0  0  0
   20.0956  -12.6221  -17.8356 C   0  0  0  0  0  0  0  0  0  0  0  0
   19.0412  -12.7974  -18.9291 C   0  0  0  0  0  0  0  0  0  0  0  0
   19.6539  -13.3813  -20.1559 C   0  0  0  0  0  0  0  0  0  0  0  0
   19.2791  -14.4808  -20.6368 O   0  0  0  0  0  0  0  0  0  0  0  0
   19.6329  -10.4894  -16.6541 C   0  0  0  0  0  0  0  0  0  0  0  0
   20.7668   -9.9611  -16.5251 O   0  0  0  0  0  0  0  0  0  0  0  0
   20.6697  -12.7040  -20.7990 O   0  0  0  0  0  0  0  0  0  0  0  0
   17.6476   -6.0574  -16.8143 O   0  0  0  0  0  0  0  0  0  0  0  0
   17.3803   -7.4192  -16.6651 C   0  0  0  0  0  0  0  0  0  0  0  0
   18.6712   -8.1639  -16.6878 C   0  0  2  0  0  0  0  0  0  0  0  0
   18.5403   -9.5814  -16.7779 N   0  0  0  0  0  0  0  0  0  0  0  0
   19.5033   -7.7351  -15.5295 C   0  0  0  0  0  0  0  0  0  0  0  0
   19.3221   -8.2220  -14.3834 O   0  0  0  0  0  0  0  0  0  0  0  0
   24.9503   -8.6699  -14.4575 N   0  0  0  0  0  0  0  0  0  0  0  0
   24.7807   -7.6882  -15.4750 C   0  0  0  0  0  0  0  0  0  0  0  0
   25.6884   -7.5649  -16.3226 O   0  0  0  0  0  0  0  0  0  0  0  0
   23.5828   -6.8334  -15.5449 C   0  0  0  0  0  0  0  0  0  0  0  0
   22.5670   -7.1930  -14.5245 C   0  0  0  0  0  0  0  0  0  0  0  0
   21.3351   -6.3277  -14.4931 C   0  0  2  0  0  0  0  0  0  0  0  0
   20.5334   -6.7676  -15.6475 N   0  0  0  0  0  0  0  0  0  0  0  0
   21.7748   -4.9120  -14.7078 C   0  0  0  0  0  0  0  0  0  0  0  0
   21.4968   -4.3495  -15.8177 O   0  0  0  0  0  0  0  0  0  0  0  0
   22.4598   -4.1636  -13.7957 O   0  0  0  0  0  0  0  0  0  0  0  0
  2  3  1  0
  2  1  1  6
  4  3  1  0
  5  4  1  0
  6  5  2  0
  7  2  1  0
  8  7  2  0
  9  5  1  0
 11 10  1  0
 12 11  1  1
 12 14  1  0
 12 13  1  0
 13  7  1  0
 14 15  2  0
 16 17  1  0
 17 18  2  0
 19 17  1  0
 19 20  1  0
 21 20  1  6
 22 21  1  0
 22 14  1  0
 23 21  1  0
 24 23  2  0
 25 23  1  0
M  END
$$$$
