ESQ.pdb
     RDKit          3D

 25 24  0  0  1  0  0  0  0  0999 V2000
   20.5030  -15.2781  -20.2547 N   0  0  0  0  0  0  0  0  0  0  0  0
   20.2105  -14.7246  -18.9664 C   0  0  1  0  0  0  0  0  0  0  0  0
   20.2190  -15.8429  -17.9506 C   0  0  0  0  0  0  0  0  0  0  0  0
   19.2789  -16.9209  -18.4915 C   0  0  0  0  0  0  0  0  0  0  0  0
   19.1530  -18.0407  -17.5160 C   0  0  0  0  0  0  0  0  0  0  0  0
   19.7180  -18.0209  -16.3930 O   0  0  0  0  0  0  0  0  0  0  0  0
   21.1712  -13.6596  -18.6472 C   0  0  0  0  0  0  0  0  0  0  0  0
   21.2348  -13.0797  -17.5332 O   0  0  0  0  0  0  0  0  0  0  0  0
   18.3933  -19.1457  -17.8412 O   0  0  0  0  0  0  0  0  0  0  0  0
   25.0636  -11.1402  -20.0756 O   0  0  0  0  0  0  0  0  0  0  0  0
   24.0659  -12.0183  -20.5015 C   0  0  0  0  0  0  0  0  0  0  0  0
   23.1002  -12.2212  -19.3845 C   0  0  2  0  0  0  0  0  0  0  0  0
   22.1106  -13.2198  -19.6257 N   0  0  0  0  0  0  0  0  0  0  0  0
   22.5114  -10.9076  -19.0028 C   0  0  0  0  0  0  0  0  0  0  0  0
   21.4186  -10.5189  -19.4907 O   0  0  0  0  0  0  0  0  0  0  0  0
   21.1574   -9.0421  -13.7116 N   0  0  0  0  0  0  0  0  0  0  0  0
   21.0382   -7.7886  -14.3766 C   0  0  0  0  0  0  0  0  0  0  0  0
   20.5204   -6.8427  -13.7484 O   0  0  0  0  0  0  0  0  0  0  0  0
   21.5021   -7.5906  -15.7609 C   0  0  0  0  0  0  0  0  0  0  0  0
   22.0524   -8.8321  -16.3595 C   0  0  0  0  0  0  0  0  0  0  0  0
   22.5872   -8.7023  -17.7611 C   0  0  2  0  0  0  0  0  0  0  0  0
   23.1376  -10.0305  -18.0812 N   0  0  0  0  0  0  0  0  0  0  0  0
   23.7010   -7.7015  -17.7263 C   0  0  0  0  0  0  0  0  0  0  0  0
   23.4930   -6.5413  -18.2123 O   0  0  0  0  0  0  0  0  0  0  0  0
   24.9407   -7.9355  -17.2071 O   0  0  0  0  0  0  0  0  0  0  0  0
  2  3  1  0
  2  1  1  6
  4  3  1  0
  5  4  1  0
  6  5  2  0
  7  2  1  0
  8  7  2  0
  9  5  1  0
 11 10  1  0
 12 11  1  6
 12 14  1  0
 12 13  1  0
 13  7  1  0
 14 15  2  0
 16 17  1  0
 17 18  2  0
 19 17  1  0
 19 20  1  0
 21 20  1  1
 22 21  1  0
 22 14  1  0
 23 21  1  0
 24 23  2  0
 25 23  1  0
M  END
$$$$
