ESQ.pdb
     RDKit          3D

 25 24  0  0  1  0  0  0  0  0999 V2000
   18.0766  -12.0610  -16.2210 N   0  0  0  0  0  0  0  0  0  0  0  0
   18.5400  -10.9590  -17.0100 C   0  0  1  0  0  0  0  0  0  0  0  0
   17.4039  -10.4844  -17.8856 C   0  0  0  0  0  0  0  0  0  0  0  0
   17.1474  -11.6013  -18.8981 C   0  0  0  0  0  0  0  0  0  0  0  0
   17.7179  -11.2417  -20.2272 C   0  0  0  0  0  0  0  0  0  0  0  0
   18.7085  -11.8406  -20.7181 O   0  0  0  0  0  0  0  0  0  0  0  0
   19.0640   -9.9006  -16.1358 C   0  0  0  0  0  0  0  0  0  0  0  0
   18.3423   -9.1327  -15.4495 O   0  0  0  0  0  0  0  0  0  0  0  0
   17.1509  -10.2177  -20.9578 O   0  0  0  0  0  0  0  0  0  0  0  0
   23.2156   -9.4093  -15.7671 O   0  0  0  0  0  0  0  0  0  0  0  0
   22.4193   -9.0058  -14.6943 C   0  0  0  0  0  0  0  0  0  0  0  0
   21.0585   -8.6787  -15.2067 C   0  0  2  0  0  0  0  0  0  0  0  0
   20.4698   -9.6895  -16.0231 N   0  0  0  0  0  0  0  0  0  0  0  0
   21.0944   -7.3480  -15.8743 C   0  0  0  0  0  0  0  0  0  0  0  0
   20.8826   -7.2346  -17.1095 O   0  0  0  0  0  0  0  0  0  0  0  0
   17.4827   -4.0833  -17.3077 N   0  0  0  0  0  0  0  0  0  0  0  0
   18.4567   -3.0492  -17.4056 C   0  0  0  0  0  0  0  0  0  0  0  0
   18.0986   -1.9554  -17.8882 O   0  0  0  0  0  0  0  0  0  0  0  0
   19.8478   -3.2407  -16.9600 C   0  0  0  0  0  0  0  0  0  0  0  0
   20.0877   -4.5986  -16.4115 C   0  0  0  0  0  0  0  0  0  0  0  0
   21.4611   -4.8429  -15.8443 C   0  0  2  0  0  0  0  0  0  0  0  0
   21.3653   -6.1482  -15.1687 N   0  0  0  0  0  0  0  0  0  0  0  0
   21.7223   -3.7771  -14.8249 C   0  0  0  0  0  0  0  0  0  0  0  0
   21.4376   -4.0174  -13.6055 O   0  0  0  0  0  0  0  0  0  0  0  0
   22.2498   -2.5496  -15.1009 O   0  0  0  0  0  0  0  0  0  0  0  0
  2  3  1  0
  2  1  1  1
  4  3  1  0
  5  4  1  0
  6  5  2  0
  7  2  1  0
  8  7  2  0
  9  5  1  0
 11 10  1  0
 12 11  1  6
 12 14  1  0
 12 13  1  0
 13  7  1  0
 14 15  2  0
 16 17  1  0
 17 18  2  0
 19 17  1  0
 19 20  1  0
 21 20  1  1
 22 21  1  0
 22 14  1  0
 23 21  1  0
 24 23  2  0
 25 23  1  0
M  END
$$$$
