ESQ.pdb
     RDKit          3D

 25 24  0  0  1  0  0  0  0  0999 V2000
   19.6396  -15.2035  -16.3834 N   0  0  0  0  0  0  0  0  0  0  0  0
   18.9702  -13.9542  -16.5901 C   0  0  1  0  0  0  0  0  0  0  0  0
   17.8722  -13.8220  -15.5609 C   0  0  0  0  0  0  0  0  0  0  0  0
   16.8011  -14.8445  -15.9428 C   0  0  0  0  0  0  0  0  0  0  0  0
   15.6372  -14.7514  -15.0165 C   0  0  0  0  0  0  0  0  0  0  0  0
   14.9690  -13.6952  -14.8801 O   0  0  0  0  0  0  0  0  0  0  0  0
   19.9381  -12.8501  -16.5333 C   0  0  0  0  0  0  0  0  0  0  0  0
   20.6829  -12.6169  -15.5472 O   0  0  0  0  0  0  0  0  0  0  0  0
   15.2664  -15.8544  -14.2749 O   0  0  0  0  0  0  0  0  0  0  0  0
   20.6960  -10.4502  -19.9578 O   0  0  0  0  0  0  0  0  0  0  0  0
   21.6796  -10.6803  -18.9948 C   0  0  0  0  0  0  0  0  0  0  0  0
   21.0171  -10.8840  -17.6753 C   0  0  2  0  0  0  0  0  0  0  0  0
   20.0809  -11.9595  -17.6378 N   0  0  0  0  0  0  0  0  0  0  0  0
   20.4302   -9.5937  -17.2187 C   0  0  0  0  0  0  0  0  0  0  0  0
   19.1971   -9.3667  -17.3254 O   0  0  0  0  0  0  0  0  0  0  0  0
   23.1420   -5.7654  -13.1066 N   0  0  0  0  0  0  0  0  0  0  0  0
   22.1513   -4.9040  -13.6581 C   0  0  0  0  0  0  0  0  0  0  0  0
   22.0679   -3.7451  -13.2024 O   0  0  0  0  0  0  0  0  0  0  0  0
   21.2421   -5.3437  -14.7307 C   0  0  0  0  0  0  0  0  0  0  0  0
   21.5605   -6.7070  -15.2230 C   0  0  0  0  0  0  0  0  0  0  0  0
   20.6472   -7.2478  -16.2911 C   0  0  2  0  0  0  0  0  0  0  0  0
   21.2140   -8.5602  -16.6454 N   0  0  0  0  0  0  0  0  0  0  0  0
   20.7456   -6.3322  -17.4724 C   0  0  0  0  0  0  0  0  0  0  0  0
   21.6414   -6.5636  -18.3496 O   0  0  0  0  0  0  0  0  0  0  0  0
   19.9399   -5.2527  -17.6888 O   0  0  0  0  0  0  0  0  0  0  0  0
  2  3  1  0
  2  1  1  1
  4  3  1  0
  5  4  1  0
  6  5  2  0
  7  2  1  0
  8  7  2  0
  9  5  1  0
 11 10  1  0
 12 11  1  6
 12 14  1  0
 12 13  1  0
 13  7  1  0
 14 15  2  0
 16 17  1  0
 17 18  2  0
 19 17  1  0
 19 20  1  0
 21 20  1  1
 22 21  1  0
 22 14  1  0
 23 21  1  0
 24 23  2  0
 25 23  1  0
M  END
$$$$
