LEV.pdb
     RDKit          3D

 25 24  0  0  1  0  0  0  0  0999 V2000
   17.5718  -11.8384  -18.8280 C   0  0  0  0  0  0  0  0  0  0  0  0
   16.8402  -12.2324  -17.6181 C   0  0  2  0  0  0  0  0  0  0  0  0
   15.3649  -12.4325  -17.8898 C   0  0  0  0  0  0  0  0  0  0  0  0
   16.9576  -11.3090  -16.4252 C   0  0  0  0  0  0  0  0  0  0  0  0
   18.3813  -10.9996  -16.0578 C   0  0  2  0  0  0  0  0  0  0  0  0
   19.0268  -12.1545  -15.4927 N   0  0  0  0  0  0  0  0  0  0  0  0
   18.4257   -9.8817  -15.0760 C   0  0  0  0  0  0  0  0  0  0  0  0
   17.9827   -9.9777  -13.8863 O   0  0  0  0  0  0  0  0  0  0  0  0
   18.9767   -8.6116  -15.4107 N   0  0  0  0  0  0  0  0  0  0  0  0
   19.1580   -7.4335  -14.7300 C   0  0  1  0  0  0  0  0  0  0  0  0
   20.4870   -6.7789  -14.5810 C   0  0  0  0  0  0  0  0  0  0  0  0
   20.6682   -5.5451  -13.7840 C   0  0  0  0  0  0  0  0  0  0  0  0
   22.1602   -5.2484  -13.8503 C   0  0  0  0  0  0  0  0  0  0  0  0
   22.9974   -6.1567  -13.8429 O   0  0  0  0  0  0  0  0  0  0  0  0
   18.2291   -6.3568  -15.1967 C   0  0  0  0  0  0  0  0  0  0  0  0
   18.1571   -6.2338  -16.4709 O   0  0  0  0  0  0  0  0  0  0  0  0
   22.5358   -3.9359  -13.9221 O   0  0  0  0  0  0  0  0  0  0  0  0
   14.5573   -5.8559  -15.4055 C   0  0  0  0  0  0  0  0  0  0  0  0
   15.1723   -4.6811  -14.6591 C   0  0  2  0  0  0  0  0  0  0  0  0
   14.3974   -3.4680  -15.1496 C   0  0  0  0  0  0  0  0  0  0  0  0
   16.6270   -4.4771  -15.0733 C   0  0  2  0  0  0  0  0  0  0  0  0
   17.4539   -5.5061  -14.4373 N   0  0  0  0  0  0  0  0  0  0  0  0
   17.1158   -3.1618  -14.7262 C   0  0  0  0  0  0  0  0  0  0  0  0
   17.8886   -2.9588  -13.5724 O   0  0  0  0  0  0  0  0  0  0  0  0
   16.8505   -2.1703  -15.4698 O   0  0  0  0  0  0  0  0  0  0  0  0
  2  1  1  6
  2  3  1  0
  4  5  1  0
  4  2  1  0
  5  7  1  0
  5  6  1  1
  7  8  2  0
  9  7  1  0
  9 10  1  0
 11 12  1  0
 10 11  1  6
 12 13  1  0
 13 17  1  0
 13 14  2  0
 15 10  1  0
 15 16  2  0
 19 18  1  6
 19 21  1  0
 20 19  1  0
 21 22  1  1
 21 23  1  0
 22 15  1  0
 23 25  2  0
 23 24  1  0
M  END
$$$$
