LEV.pdb
     RDKit          3D

 25 24  0  0  1  0  0  0  0  0999 V2000
   11.2843  -11.3154  -14.9224 C   0  0  0  0  0  0  0  0  0  0  0  0
   11.3977  -12.3288  -13.8668 C   0  0  2  0  0  0  0  0  0  0  0  0
   10.1619  -12.3771  -12.9946 C   0  0  0  0  0  0  0  0  0  0  0  0
   12.5942  -12.2175  -12.9472 C   0  0  0  0  0  0  0  0  0  0  0  0
   13.8977  -12.1114  -13.6870 C   0  0  2  0  0  0  0  0  0  0  0  0
   14.3784  -13.4132  -14.0665 N   0  0  0  0  0  0  0  0  0  0  0  0
   14.9171  -11.4399  -12.8352 C   0  0  0  0  0  0  0  0  0  0  0  0
   15.6394  -12.0591  -11.9892 O   0  0  0  0  0  0  0  0  0  0  0  0
   15.1537  -10.0375  -12.9141 N   0  0  0  0  0  0  0  0  0  0  0  0
   16.0626   -9.1830  -12.3418 C   0  0  1  0  0  0  0  0  0  0  0  0
   17.2236   -8.6181  -13.0833 C   0  0  0  0  0  0  0  0  0  0  0  0
   18.2215   -7.7430  -12.4284 C   0  0  0  0  0  0  0  0  0  0  0  0
   19.2807   -7.4879  -13.4920 C   0  0  0  0  0  0  0  0  0  0  0  0
   19.0206   -7.5878  -14.6956 O   0  0  0  0  0  0  0  0  0  0  0  0
   15.4054   -8.0160  -11.6737 C   0  0  0  0  0  0  0  0  0  0  0  0
   14.6393   -7.3290  -12.4388 O   0  0  0  0  0  0  0  0  0  0  0  0
   20.5307   -7.1401  -13.0613 O   0  0  0  0  0  0  0  0  0  0  0  0
   15.5092   -7.0663   -7.5746 C   0  0  0  0  0  0  0  0  0  0  0  0
   14.3652   -6.6021   -8.4643 C   0  0  2  0  0  0  0  0  0  0  0  0
   13.3993   -7.7764   -8.4898 C   0  0  0  0  0  0  0  0  0  0  0  0
   14.8449   -6.3893   -9.8975 C   0  0  2  0  0  0  0  0  0  0  0  0
   15.5173   -7.6055  -10.3621 N   0  0  0  0  0  0  0  0  0  0  0  0
   15.7329   -5.2548  -10.0148 C   0  0  0  0  0  0  0  0  0  0  0  0
   15.2489   -3.9426   -9.8980 O   0  0  0  0  0  0  0  0  0  0  0  0
   16.9697   -5.4367  -10.2236 O   0  0  0  0  0  0  0  0  0  0  0  0
  2  1  1  6
  2  3  1  0
  4  5  1  0
  4  2  1  0
  5  7  1  0
  5  6  1  1
  7  8  2  0
  9  7  1  0
  9 10  1  0
 11 12  1  0
 10 11  1  6
 12 13  1  0
 13 17  1  0
 13 14  2  0
 15 10  1  0
 15 16  2  0
 19 18  1  1
 19 21  1  0
 20 19  1  0
 21 22  1  1
 21 23  1  0
 22 15  1  0
 23 25  2  0
 23 24  1  0
M  END
$$$$
