LEV.pdb
     RDKit          3D

 25 24  0  0  1  0  0  0  0  0999 V2000
   19.5765  -14.8645  -18.4130 C   0  0  0  0  0  0  0  0  0  0  0  0
   20.7319  -13.9929  -18.6570 C   0  0  2  0  0  0  0  0  0  0  0  0
   21.8733  -14.2885  -17.7084 C   0  0  0  0  0  0  0  0  0  0  0  0
   20.4780  -12.5021  -18.6058 C   0  0  0  0  0  0  0  0  0  0  0  0
   19.9620  -12.0380  -17.2731 C   0  0  2  0  0  0  0  0  0  0  0  0
   18.6542  -12.5785  -17.0139 N   0  0  0  0  0  0  0  0  0  0  0  0
   19.8953  -10.5514  -17.2389 C   0  0  0  0  0  0  0  0  0  0  0  0
   20.8867   -9.8003  -17.5108 O   0  0  0  0  0  0  0  0  0  0  0  0
   18.6971   -9.8626  -16.8944 N   0  0  0  0  0  0  0  0  0  0  0  0
   18.3274   -8.5415  -16.8503 C   0  0  1  0  0  0  0  0  0  0  0  0
   16.9067   -8.0959  -16.8599 C   0  0  0  0  0  0  0  0  0  0  0  0
   16.5337   -6.6678  -16.9693 C   0  0  0  0  0  0  0  0  0  0  0  0
   15.0115   -6.6543  -16.9372 C   0  0  0  0  0  0  0  0  0  0  0  0
   14.3622   -7.6944  -16.7868 O   0  0  0  0  0  0  0  0  0  0  0  0
   18.9718   -7.8068  -15.7167 C   0  0  0  0  0  0  0  0  0  0  0  0
   18.8328   -8.3691  -14.5728 O   0  0  0  0  0  0  0  0  0  0  0  0
   14.3922   -5.4436  -17.0777 O   0  0  0  0  0  0  0  0  0  0  0  0
   22.5475   -7.1832  -15.0210 C   0  0  0  0  0  0  0  0  0  0  0  0
   21.8114   -5.8635  -14.8413 C   0  0  2  0  0  0  0  0  0  0  0  0
   22.4173   -5.2551  -13.5860 C   0  0  0  0  0  0  0  0  0  0  0  0
   20.3324   -6.1027  -14.5504 C   0  0  2  0  0  0  0  0  0  0  0  0
   19.6870   -6.6285  -15.7563 N   0  0  0  0  0  0  0  0  0  0  0  0
   19.6597   -4.9015  -14.1102 C   0  0  0  0  0  0  0  0  0  0  0  0
   19.6889   -4.5086  -12.7632 O   0  0  0  0  0  0  0  0  0  0  0  0
   19.0333   -4.1832  -14.9458 O   0  0  0  0  0  0  0  0  0  0  0  0
  2  1  1  1
  2  3  1  0
  4  5  1  0
  4  2  1  0
  5  7  1  0
  5  6  1  6
  7  8  2  0
  9  7  1  0
  9 10  1  0
 11 12  1  0
 10 11  1  1
 12 13  1  0
 13 17  1  0
 13 14  2  0
 15 10  1  0
 15 16  2  0
 19 18  1  1
 19 21  1  0
 20 19  1  0
 21 22  1  6
 21 23  1  0
 22 15  1  0
 23 25  2  0
 23 24  1  0
M  END
$$$$
