LEV.pdb
     RDKit          3D

 25 24  0  0  1  0  0  0  0  0999 V2000
   16.4567  -14.5994  -15.7942 C   0  0  0  0  0  0  0  0  0  0  0  0
   17.8930  -14.7156  -15.5154 C   0  0  2  0  0  0  0  0  0  0  0  0
   18.1579  -15.1967  -14.1052 C   0  0  0  0  0  0  0  0  0  0  0  0
   18.7273  -13.4720  -15.7314 C   0  0  0  0  0  0  0  0  0  0  0  0
   18.6906  -12.9771  -17.1497 C   0  0  2  0  0  0  0  0  0  0  0  0
   19.5126  -13.7969  -17.9994 N   0  0  0  0  0  0  0  0  0  0  0  0
   19.1683  -11.5688  -17.2135 C   0  0  0  0  0  0  0  0  0  0  0  0
   20.3862  -11.2353  -17.0503 O   0  0  0  0  0  0  0  0  0  0  0  0
   18.2781  -10.4860  -17.4663 N   0  0  0  0  0  0  0  0  0  0  0  0
   18.4299   -9.1282  -17.5978 C   0  0  1  0  0  0  0  0  0  0  0  0
   17.3548   -8.2381  -18.1162 C   0  0  0  0  0  0  0  0  0  0  0  0
   17.5695   -6.7886  -18.3242 C   0  0  0  0  0  0  0  0  0  0  0  0
   16.2388   -6.2637  -18.8457 C   0  0  0  0  0  0  0  0  0  0  0  0
   15.3269   -5.9449  -18.0757 O   0  0  0  0  0  0  0  0  0  0  0  0
   18.9123   -8.4838  -16.3360 C   0  0  0  0  0  0  0  0  0  0  0  0
   18.3733   -8.9420  -15.2666 O   0  0  0  0  0  0  0  0  0  0  0  0
   16.0950   -6.1560  -20.2010 O   0  0  0  0  0  0  0  0  0  0  0  0
   22.2363   -6.8764  -13.3085 C   0  0  0  0  0  0  0  0  0  0  0  0
   21.7574   -7.3282  -14.6805 C   0  0  2  0  0  0  0  0  0  0  0  0
   22.5027   -6.4344  -15.6596 C   0  0  0  0  0  0  0  0  0  0  0  0
   20.2694   -7.0386  -14.8578 C   0  0  2  0  0  0  0  0  0  0  0  0
   19.8510   -7.4844  -16.1895 N   0  0  0  0  0  0  0  0  0  0  0  0
   19.9596   -5.6376  -14.6826 C   0  0  0  0  0  0  0  0  0  0  0  0
   19.9215   -5.0598  -13.4042 O   0  0  0  0  0  0  0  0  0  0  0  0
   19.7199   -4.9103  -15.6925 O   0  0  0  0  0  0  0  0  0  0  0  0
  2  1  1  1
  2  3  1  0
  4  5  1  0
  4  2  1  0
  5  7  1  0
  5  6  1  6
  7  8  2  0
  9  7  1  0
  9 10  1  0
 11 12  1  0
 10 11  1  1
 12 13  1  0
 13 17  1  0
 13 14  2  0
 15 10  1  0
 15 16  2  0
 19 18  1  1
 19 21  1  0
 20 19  1  0
 21 22  1  6
 21 23  1  0
 22 15  1  0
 23 25  2  0
 23 24  1  0
M  END
$$$$
