LEV.pdb
     RDKit          3D

 25 24  0  0  1  0  0  0  0  0999 V2000
   27.4368  -21.2011   -7.0484 C   0  0  0  0  0  0  0  0  0  0  0  0
   27.7151  -20.0497   -7.9150 C   0  0  2  0  0  0  0  0  0  0  0  0
   27.9880  -18.7938   -7.1160 C   0  0  0  0  0  0  0  0  0  0  0  0
   26.6616  -19.7080   -8.9459 C   0  0  0  0  0  0  0  0  0  0  0  0
   26.1889  -20.9036   -9.7236 C   0  0  2  0  0  0  0  0  0  0  0  0
   27.2546  -21.4495  -10.5211 N   0  0  0  0  0  0  0  0  0  0  0  0
   25.0562  -20.5225  -10.6110 C   0  0  0  0  0  0  0  0  0  0  0  0
   24.0169  -19.9148  -10.1966 O   0  0  0  0  0  0  0  0  0  0  0  0
   25.0633  -20.8179  -12.0043 N   0  0  0  0  0  0  0  0  0  0  0  0
   24.2262  -20.5267  -13.0524 C   0  0  1  0  0  0  0  0  0  0  0  0
   24.6204  -20.6995  -14.4777 C   0  0  0  0  0  0  0  0  0  0  0  0
   25.1919  -19.5898  -15.2731 C   0  0  0  0  0  0  0  0  0  0  0  0
   23.9928  -18.9106  -15.9206 C   0  0  0  0  0  0  0  0  0  0  0  0
   23.5120  -19.3273  -16.9795 O   0  0  0  0  0  0  0  0  0  0  0  0
   22.8933  -21.1943  -12.9197 C   0  0  0  0  0  0  0  0  0  0  0  0
   22.9477  -22.4152  -12.5317 O   0  0  0  0  0  0  0  0  0  0  0  0
   23.4673  -17.8228  -15.2806 O   0  0  0  0  0  0  0  0  0  0  0  0
   20.4441  -20.6079  -10.4038 C   0  0  0  0  0  0  0  0  0  0  0  0
   19.6746  -20.6184  -11.7166 C   0  0  2  0  0  0  0  0  0  0  0  0
   18.4056  -21.3987  -11.4104 C   0  0  0  0  0  0  0  0  0  0  0  0
   20.4330  -21.4034  -12.7834 C   0  0  2  0  0  0  0  0  0  0  0  0
   21.6424  -20.6628  -13.1525 N   0  0  0  0  0  0  0  0  0  0  0  0
   19.6260  -21.6535  -13.9563 C   0  0  0  0  0  0  0  0  0  0  0  0
   18.9091  -22.8515  -14.0988 O   0  0  0  0  0  0  0  0  0  0  0  0
   19.5557  -20.7829  -14.8748 O   0  0  0  0  0  0  0  0  0  0  0  0
  2  1  1  1
  2  3  1  0
  4  5  1  0
  4  2  1  0
  5  7  1  0
  5  6  1  6
  7  8  2  0
  9  7  1  0
  9 10  1  0
 11 12  1  0
 10 11  1  6
 12 13  1  0
 13 17  1  0
 13 14  2  0
 15 10  1  0
 15 16  2  0
 19 18  1  1
 19 21  1  0
 20 19  1  0
 21 22  1  6
 21 23  1  0
 22 15  1  0
 23 25  2  0
 23 24  1  0
M  END
$$$$
