LEV.pdb
     RDKit          3D

 25 24  0  0  1  0  0  0  0  0999 V2000
   11.0535  -12.1188  -12.5443 C   0  0  0  0  0  0  0  0  0  0  0  0
   11.8237  -12.9315  -11.5955 C   0  0  2  0  0  0  0  0  0  0  0  0
   11.0260  -13.2550  -10.3508 C   0  0  0  0  0  0  0  0  0  0  0  0
   13.1534  -12.3675  -11.1447 C   0  0  0  0  0  0  0  0  0  0  0  0
   14.1054  -12.1235  -12.2812 C   0  0  2  0  0  0  0  0  0  0  0  0
   14.6987  -13.3564  -12.7258 N   0  0  0  0  0  0  0  0  0  0  0  0
   15.1805  -11.1855  -11.8566 C   0  0  0  0  0  0  0  0  0  0  0  0
   16.1035  -11.5034  -11.0393 O   0  0  0  0  0  0  0  0  0  0  0  0
   15.2464   -9.8497  -12.3467 N   0  0  0  0  0  0  0  0  0  0  0  0
   16.1108   -8.7999  -12.1608 C   0  0  1  0  0  0  0  0  0  0  0  0
   16.7850   -8.0952  -13.2859 C   0  0  0  0  0  0  0  0  0  0  0  0
   17.7510   -6.9974  -13.0569 C   0  0  0  0  0  0  0  0  0  0  0  0
   18.2156   -6.5848  -14.4470 C   0  0  0  0  0  0  0  0  0  0  0  0
   17.7754   -5.5702  -14.9974 O   0  0  0  0  0  0  0  0  0  0  0  0
   15.5225   -7.7218  -11.3055 C   0  0  0  0  0  0  0  0  0  0  0  0
   14.3328   -7.3740  -11.6338 O   0  0  0  0  0  0  0  0  0  0  0  0
   19.1429   -7.3807  -15.0600 O   0  0  0  0  0  0  0  0  0  0  0  0
   14.9796   -7.5887   -7.4862 C   0  0  0  0  0  0  0  0  0  0  0  0
   15.6031   -6.2892   -7.9742 C   0  0  2  0  0  0  0  0  0  0  0  0
   14.8459   -5.1988   -7.2321 C   0  0  0  0  0  0  0  0  0  0  0  0
   15.3338   -6.0839   -9.4624 C   0  0  2  0  0  0  0  0  0  0  0  0
   16.0915   -7.0781  -10.2270 N   0  0  0  0  0  0  0  0  0  0  0  0
   15.6781   -4.7506   -9.9023 C   0  0  0  0  0  0  0  0  0  0  0  0
   14.7546   -3.6978   -9.8105 O   0  0  0  0  0  0  0  0  0  0  0  0
   16.8299   -4.5175  -10.3771 O   0  0  0  0  0  0  0  0  0  0  0  0
  2  1  1  6
  2  3  1  0
  4  5  1  0
  4  2  1  0
  5  7  1  0
  5  6  1  1
  7  8  2  0
  9  7  1  0
  9 10  1  0
 11 12  1  0
 10 11  1  6
 12 13  1  0
 13 17  1  0
 13 14  2  0
 15 10  1  0
 15 16  2  0
 19 18  1  1
 19 21  1  0
 20 19  1  0
 21 22  1  6
 21 23  1  0
 22 15  1  0
 23 25  2  0
 23 24  1  0
M  END
$$$$
