LEV.pdb
     RDKit          3D

 25 24  0  0  1  0  0  0  0  0999 V2000
   19.0461  -19.1595  -14.7757 C   0  0  0  0  0  0  0  0  0  0  0  0
   19.7097  -20.3525  -15.3147 C   0  0  2  0  0  0  0  0  0  0  0  0
   18.7133  -21.3784  -15.8097 C   0  0  0  0  0  0  0  0  0  0  0  0
   20.6715  -21.0676  -14.3912 C   0  0  0  0  0  0  0  0  0  0  0  0
   21.7156  -20.1574  -13.8089 C   0  0  2  0  0  0  0  0  0  0  0  0
   22.3451  -19.3750  -14.8392 N   0  0  0  0  0  0  0  0  0  0  0  0
   22.7504  -20.9549  -13.0955 C   0  0  0  0  0  0  0  0  0  0  0  0
   22.4733  -21.9229  -12.3163 O   0  0  0  0  0  0  0  0  0  0  0  0
   24.1405  -20.6813  -13.2422 N   0  0  0  0  0  0  0  0  0  0  0  0
   25.2902  -21.2787  -12.7889 C   0  0  1  0  0  0  0  0  0  0  0  0
   26.4877  -21.4899  -13.6482 C   0  0  0  0  0  0  0  0  0  0  0  0
   26.4179  -22.2476  -14.9176 C   0  0  0  0  0  0  0  0  0  0  0  0
   27.8031  -22.1112  -15.5349 C   0  0  0  0  0  0  0  0  0  0  0  0
   28.4987  -21.1093  -15.3388 O   0  0  0  0  0  0  0  0  0  0  0  0
   25.8028  -20.6481  -11.5321 C   0  0  0  0  0  0  0  0  0  0  0  0
   25.6747  -19.3731  -11.4878 O   0  0  0  0  0  0  0  0  0  0  0  0
   28.2476  -23.1443  -16.3122 O   0  0  0  0  0  0  0  0  0  0  0  0
   24.5395  -20.7780   -8.1720 C   0  0  0  0  0  0  0  0  0  0  0  0
   26.0380  -21.0071   -8.0392 C   0  0  2  0  0  0  0  0  0  0  0  0
   26.4553  -20.1384   -6.8627 C   0  0  0  0  0  0  0  0  0  0  0  0
   26.7778  -20.4802   -9.2657 C   0  0  2  0  0  0  0  0  0  0  0  0
   26.3763  -21.2616  -10.4385 N   0  0  0  0  0  0  0  0  0  0  0  0
   28.2132  -20.5303   -9.1027 C   0  0  0  0  0  0  0  0  0  0  0  0
   28.8749  -19.6398   -8.2432 O   0  0  0  0  0  0  0  0  0  0  0  0
   28.8938  -21.3897   -9.7389 O   0  0  0  0  0  0  0  0  0  0  0  0
  2  1  1  1
  2  3  1  0
  4  5  1  0
  4  2  1  0
  5  7  1  0
  5  6  1  6
  7  8  2  0
  9  7  1  0
  9 10  1  0
 11 12  1  0
 10 11  1  6
 12 13  1  0
 13 17  1  0
 13 14  2  0
 15 10  1  0
 15 16  2  0
 19 18  1  6
 19 21  1  0
 20 19  1  0
 21 22  1  6
 21 23  1  0
 22 15  1  0
 23 25  2  0
 23 24  1  0
M  END
$$$$
