LEV.pdb
     RDKit          3D

 25 24  0  0  1  0  0  0  0  0999 V2000
   18.2880  -13.6354  -15.0022 C   0  0  0  0  0  0  0  0  0  0  0  0
   18.6133  -13.2924  -16.3917 C   0  0  2  0  0  0  0  0  0  0  0  0
   19.9715  -13.8196  -16.8009 C   0  0  0  0  0  0  0  0  0  0  0  0
   18.5721  -11.8239  -16.7539 C   0  0  0  0  0  0  0  0  0  0  0  0
   17.2587  -11.1726  -16.4243 C   0  0  2  0  0  0  0  0  0  0  0  0
   16.2076  -11.6879  -17.2606 N   0  0  0  0  0  0  0  0  0  0  0  0
   17.3568   -9.6989  -16.6096 C   0  0  0  0  0  0  0  0  0  0  0  0
   17.2517   -9.1279  -17.7426 O   0  0  0  0  0  0  0  0  0  0  0  0
   17.5778   -8.8186  -15.5119 N   0  0  0  0  0  0  0  0  0  0  0  0
   17.6871   -7.4567  -15.3796 C   0  0  1  0  0  0  0  0  0  0  0  0
   16.6245   -6.6134  -14.7658 C   0  0  0  0  0  0  0  0  0  0  0  0
   16.7899   -5.1540  -14.5833 C   0  0  0  0  0  0  0  0  0  0  0  0
   16.3971   -4.5423  -15.9211 C   0  0  0  0  0  0  0  0  0  0  0  0
   15.8641   -5.2195  -16.8062 O   0  0  0  0  0  0  0  0  0  0  0  0
   18.9616   -7.0498  -14.7086 C   0  0  0  0  0  0  0  0  0  0  0  0
   19.1624   -7.6045  -13.5702 O   0  0  0  0  0  0  0  0  0  0  0  0
   16.6547   -3.2119  -16.1020 O   0  0  0  0  0  0  0  0  0  0  0  0
   23.6755   -6.2285  -14.6157 C   0  0  0  0  0  0  0  0  0  0  0  0
   22.3426   -6.4488  -15.3161 C   0  0  2  0  0  0  0  0  0  0  0  0
   22.3770   -5.5070  -16.5097 C   0  0  0  0  0  0  0  0  0  0  0  0
   21.1837   -6.0013  -14.4294 C   0  0  2  0  0  0  0  0  0  0  0  0
   19.9266   -6.1753  -15.1618 N   0  0  0  0  0  0  0  0  0  0  0  0
   21.3223   -4.6283  -13.9990 C   0  0  0  0  0  0  0  0  0  0  0  0
   22.2587   -4.2693  -13.0173 O   0  0  0  0  0  0  0  0  0  0  0  0
   20.5937   -3.7267  -14.5116 O   0  0  0  0  0  0  0  0  0  0  0  0
  2  1  1  1
  2  3  1  0
  4  5  1  0
  4  2  1  0
  5  7  1  0
  5  6  1  6
  7  8  2  0
  9  7  1  0
  9 10  1  0
 11 12  1  0
 10 11  1  1
 12 13  1  0
 13 17  1  0
 13 14  2  0
 15 10  1  0
 15 16  2  0
 19 18  1  1
 19 21  1  0
 20 19  1  0
 21 22  1  6
 21 23  1  0
 22 15  1  0
 23 25  2  0
 23 24  1  0
M  END
$$$$
