LEV.pdb
     RDKit          3D

 25 24  0  0  1  0  0  0  0  0999 V2000
   24.5855  -14.0205  -15.8454 C   0  0  0  0  0  0  0  0  0  0  0  0
   24.3566  -15.1094  -16.8025 C   0  0  2  0  0  0  0  0  0  0  0  0
   23.2356  -14.7877  -17.7670 C   0  0  0  0  0  0  0  0  0  0  0  0
   24.0700  -16.4753  -16.2181 C   0  0  0  0  0  0  0  0  0  0  0  0
   25.0257  -16.8603  -15.1244 C   0  0  2  0  0  0  0  0  0  0  0  0
   26.3663  -16.4509  -15.4485 N   0  0  0  0  0  0  0  0  0  0  0  0
   24.9985  -18.3338  -14.9153 C   0  0  0  0  0  0  0  0  0  0  0  0
   23.9246  -18.9965  -14.7466 O   0  0  0  0  0  0  0  0  0  0  0  0
   26.1928  -19.1096  -14.8908 N   0  0  0  0  0  0  0  0  0  0  0  0
   26.4685  -20.4435  -14.7211 C   0  0  1  0  0  0  0  0  0  0  0  0
   27.6238  -21.1220  -15.3705 C   0  0  0  0  0  0  0  0  0  0  0  0
   27.4412  -22.2252  -16.3401 C   0  0  0  0  0  0  0  0  0  0  0  0
   26.4391  -23.1651  -15.6838 C   0  0  0  0  0  0  0  0  0  0  0  0
   25.2534  -22.8467  -15.5462 O   0  0  0  0  0  0  0  0  0  0  0  0
   26.5324  -20.8331  -13.2775 C   0  0  0  0  0  0  0  0  0  0  0  0
   27.7164  -20.8551  -12.7858 O   0  0  0  0  0  0  0  0  0  0  0  0
   26.9038  -24.3776  -15.2561 O   0  0  0  0  0  0  0  0  0  0  0  0
   26.8108  -20.8622   -8.8905 C   0  0  0  0  0  0  0  0  0  0  0  0
   26.5449  -20.4815  -10.3396 C   0  0  2  0  0  0  0  0  0  0  0  0
   25.6396  -19.2624  -10.2552 C   0  0  0  0  0  0  0  0  0  0  0  0
   25.7531  -21.5753  -11.0510 C   0  0  2  0  0  0  0  0  0  0  0  0
   25.4931  -21.1566  -12.4310 N   0  0  0  0  0  0  0  0  0  0  0  0
   24.5085  -21.8749  -10.3797 C   0  0  0  0  0  0  0  0  0  0  0  0
   23.2748  -21.6566  -11.0122 O   0  0  0  0  0  0  0  0  0  0  0  0
   24.5203  -22.3449   -9.2026 O   0  0  0  0  0  0  0  0  0  0  0  0
  2  1  1  1
  2  3  1  0
  4  5  1  0
  4  2  1  0
  5  7  1  0
  5  6  1  6
  7  8  2  0
  9  7  1  0
  9 10  1  0
 11 12  1  0
 10 11  1  1
 12 13  1  0
 13 17  1  0
 13 14  2  0
 15 10  1  0
 15 16  2  0
 19 18  1  1
 19 21  1  0
 20 19  1  0
 21 22  1  6
 21 23  1  0
 22 15  1  0
 23 25  2  0
 23 24  1  0
M  END
$$$$
