LEV.pdb
     RDKit          3D

 25 24  0  0  1  0  0  0  0  0999 V2000
   28.6402  -20.9419   -8.8617 C   0  0  0  0  0  0  0  0  0  0  0  0
   27.5180  -20.0035   -8.9803 C   0  0  2  0  0  0  0  0  0  0  0  0
   27.5491  -18.9456   -7.8985 C   0  0  0  0  0  0  0  0  0  0  0  0
   26.1297  -20.6053   -8.9822 C   0  0  0  0  0  0  0  0  0  0  0  0
   25.8267  -21.3829  -10.2317 C   0  0  2  0  0  0  0  0  0  0  0  0
   27.0262  -21.6232  -10.9888 N   0  0  0  0  0  0  0  0  0  0  0  0
   24.8534  -20.6372  -11.0758 C   0  0  0  0  0  0  0  0  0  0  0  0
   23.8535  -20.0084  -10.6009 O   0  0  0  0  0  0  0  0  0  0  0  0
   24.9815  -20.5784  -12.4932 N   0  0  0  0  0  0  0  0  0  0  0  0
   24.3063  -19.9228  -13.4924 C   0  0  1  0  0  0  0  0  0  0  0  0
   24.7248  -19.9698  -14.9205 C   0  0  0  0  0  0  0  0  0  0  0  0
   24.0335  -19.1830  -15.9662 C   0  0  0  0  0  0  0  0  0  0  0  0
   24.7515  -19.5334  -17.2625 C   0  0  0  0  0  0  0  0  0  0  0  0
   24.3370  -20.4292  -18.0053 O   0  0  0  0  0  0  0  0  0  0  0  0
   22.8427  -20.2355  -13.4914 C   0  0  0  0  0  0  0  0  0  0  0  0
   22.5575  -21.4386  -13.1517 O   0  0  0  0  0  0  0  0  0  0  0  0
   25.8717  -18.8138  -17.5730 O   0  0  0  0  0  0  0  0  0  0  0  0
   20.1153  -18.3094  -11.5304 C   0  0  0  0  0  0  0  0  0  0  0  0
   19.6455  -18.6169  -12.9448 C   0  0  2  0  0  0  0  0  0  0  0  0
   18.1983  -19.0548  -12.7808 C   0  0  0  0  0  0  0  0  0  0  0  0
   20.4075  -19.8063  -13.5227 C   0  0  2  0  0  0  0  0  0  0  0  0
   21.7885  -19.4012  -13.7980 N   0  0  0  0  0  0  0  0  0  0  0  0
   19.7909  -20.3196  -14.7251 C   0  0  0  0  0  0  0  0  0  0  0  0
   18.8284  -21.3392  -14.6656 O   0  0  0  0  0  0  0  0  0  0  0  0
   20.1153  -19.8467  -15.8554 O   0  0  0  0  0  0  0  0  0  0  0  0
  2  1  1  1
  2  3  1  0
  4  5  1  0
  4  2  1  0
  5  7  1  0
  5  6  1  6
  7  8  2  0
  9  7  1  0
  9 10  1  0
 11 12  1  0
 10 11  1  6
 12 13  1  0
 13 17  1  0
 13 14  2  0
 15 10  1  0
 15 16  2  0
 19 18  1  1
 19 21  1  0
 20 19  1  0
 21 22  1  6
 21 23  1  0
 22 15  1  0
 23 25  2  0
 23 24  1  0
M  END
$$$$
