LEV.pdb
     RDKit          3D

 25 24  0  0  1  0  0  0  0  0999 V2000
   24.0129  -16.5118  -15.9229 C   0  0  0  0  0  0  0  0  0  0  0  0
   24.8829  -15.3530  -16.1563 C   0  0  2  0  0  0  0  0  0  0  0  0
   25.8579  -15.1400  -15.0187 C   0  0  0  0  0  0  0  0  0  0  0  0
   24.1943  -14.0305  -16.4133 C   0  0  0  0  0  0  0  0  0  0  0  0
   23.1781  -14.1003  -17.5178 C   0  0  2  0  0  0  0  0  0  0  0  0
   23.8068  -14.4157  -18.7728 N   0  0  0  0  0  0  0  0  0  0  0  0
   22.4628  -12.8005  -17.6390 C   0  0  0  0  0  0  0  0  0  0  0  0
   23.0544  -11.6943  -17.8563 O   0  0  0  0  0  0  0  0  0  0  0  0
   21.0465  -12.7103  -17.5180 N   0  0  0  0  0  0  0  0  0  0  0  0
   20.1364  -11.6884  -17.6252 C   0  0  1  0  0  0  0  0  0  0  0  0
   18.6728  -11.9178  -17.7747 C   0  0  0  0  0  0  0  0  0  0  0  0
   17.7233  -10.8042  -17.9952 C   0  0  0  0  0  0  0  0  0  0  0  0
   16.3533  -11.4640  -18.0745 C   0  0  0  0  0  0  0  0  0  0  0  0
   16.2072  -12.6709  -17.8552 O   0  0  0  0  0  0  0  0  0  0  0  0
   20.2759  -10.6832  -16.5251 C   0  0  0  0  0  0  0  0  0  0  0  0
   20.4089  -11.1917  -15.3556 O   0  0  0  0  0  0  0  0  0  0  0  0
   15.2906  -10.6658  -18.3947 O   0  0  0  0  0  0  0  0  0  0  0  0
   23.0216   -8.6887  -15.5051 C   0  0  0  0  0  0  0  0  0  0  0  0
   21.8428   -7.7315  -15.6049 C   0  0  2  0  0  0  0  0  0  0  0  0
   21.9922   -6.8135  -14.4017 C   0  0  0  0  0  0  0  0  0  0  0  0
   20.5225   -8.4777  -15.4340 C   0  0  2  0  0  0  0  0  0  0  0  0
   20.2855   -9.3075  -16.6183 N   0  0  0  0  0  0  0  0  0  0  0  0
   19.4091   -7.5797  -15.2254 C   0  0  0  0  0  0  0  0  0  0  0  0
   19.1987   -6.9656  -13.9812 O   0  0  0  0  0  0  0  0  0  0  0  0
   18.6063   -7.3342  -16.1749 O   0  0  0  0  0  0  0  0  0  0  0  0
  2  1  1  1
  2  3  1  0
  4  5  1  0
  4  2  1  0
  5  7  1  0
  5  6  1  6
  7  8  2  0
  9  7  1  0
  9 10  1  0
 11 12  1  0
 10 11  1  1
 12 13  1  0
 13 17  1  0
 13 14  2  0
 15 10  1  0
 15 16  2  0
 19 18  1  1
 19 21  1  0
 20 19  1  0
 21 22  1  6
 21 23  1  0
 22 15  1  0
 23 25  2  0
 23 24  1  0
M  END
$$$$
