LEV.pdb
     RDKit          3D

 25 24  0  0  1  0  0  0  0  0999 V2000
   28.1384  -17.1860  -17.6433 C   0  0  0  0  0  0  0  0  0  0  0  0
   28.4430  -17.7234  -16.3120 C   0  0  2  0  0  0  0  0  0  0  0  0
   28.9117  -19.1609  -16.3765 C   0  0  0  0  0  0  0  0  0  0  0  0
   27.3337  -17.6568  -15.2851 C   0  0  0  0  0  0  0  0  0  0  0  0
   26.4434  -18.8671  -15.3005 C   0  0  2  0  0  0  0  0  0  0  0  0
   25.6508  -18.9044  -16.5005 N   0  0  0  0  0  0  0  0  0  0  0  0
   25.5421  -18.8553  -14.1159 C   0  0  0  0  0  0  0  0  0  0  0  0
   24.8604  -17.8385  -13.7659 O   0  0  0  0  0  0  0  0  0  0  0  0
   25.3817  -20.0007  -13.2846 N   0  0  0  0  0  0  0  0  0  0  0  0
   24.5914  -20.2995  -12.2029 C   0  0  1  0  0  0  0  0  0  0  0  0
   23.5143  -21.3267  -12.2441 C   0  0  0  0  0  0  0  0  0  0  0  0
   22.6119  -21.4700  -13.4084 C   0  0  0  0  0  0  0  0  0  0  0  0
   21.3699  -20.6673  -13.0456 C   0  0  0  0  0  0  0  0  0  0  0  0
   20.9404  -20.6352  -11.8878 O   0  0  0  0  0  0  0  0  0  0  0  0
   25.3944  -20.6073  -10.9780 C   0  0  0  0  0  0  0  0  0  0  0  0
   26.2576  -21.5430  -11.1308 O   0  0  0  0  0  0  0  0  0  0  0  0
   20.7512  -19.9801  -14.0527 O   0  0  0  0  0  0  0  0  0  0  0  0
   27.2031  -18.2476   -8.3192 C   0  0  0  0  0  0  0  0  0  0  0  0
   26.3979  -19.3526   -7.6513 C   0  0  2  0  0  0  0  0  0  0  0  0
   27.3138  -19.8888   -6.5620 C   0  0  0  0  0  0  0  0  0  0  0  0
   26.1430  -20.5012   -8.6235 C   0  0  2  0  0  0  0  0  0  0  0  0
   25.3233  -20.0132   -9.7356 N   0  0  0  0  0  0  0  0  0  0  0  0
   25.4963  -21.6254   -7.9852 C   0  0  0  0  0  0  0  0  0  0  0  0
   26.2461  -22.6152   -7.3312 O   0  0  0  0  0  0  0  0  0  0  0  0
   24.2331  -21.7269   -8.0083 O   0  0  0  0  0  0  0  0  0  0  0  0
  2  1  1  6
  2  3  1  0
  4  5  1  0
  4  2  1  0
  5  7  1  0
  5  6  1  6
  7  8  2  0
  9  7  1  0
  9 10  1  0
 11 12  1  0
 10 11  1  6
 12 13  1  0
 13 17  1  0
 13 14  2  0
 15 10  1  0
 15 16  2  0
 19 18  1  6
 19 21  1  0
 20 19  1  0
 21 22  1  6
 21 23  1  0
 22 15  1  0
 23 25  2  0
 23 24  1  0
M  END
$$$$
