LEV.pdb
     RDKit          3D

 25 24  0  0  1  0  0  0  0  0999 V2000
   22.5181  -17.9026  -15.8316 C   0  0  0  0  0  0  0  0  0  0  0  0
   21.8790  -19.1398  -15.3679 C   0  0  2  0  0  0  0  0  0  0  0  0
   20.5200  -18.8786  -14.7553 C   0  0  0  0  0  0  0  0  0  0  0  0
   22.6634  -19.9791  -14.3832 C   0  0  0  0  0  0  0  0  0  0  0  0
   24.0686  -20.2585  -14.8359 C   0  0  2  0  0  0  0  0  0  0  0  0
   24.0810  -21.2291  -15.8978 N   0  0  0  0  0  0  0  0  0  0  0  0
   24.8826  -20.7651  -13.6971 C   0  0  0  0  0  0  0  0  0  0  0  0
   24.4790  -21.6690  -12.8965 O   0  0  0  0  0  0  0  0  0  0  0  0
   26.1875  -20.2625  -13.4265 N   0  0  0  0  0  0  0  0  0  0  0  0
   27.1685  -20.5758  -12.5191 C   0  0  1  0  0  0  0  0  0  0  0  0
   28.6034  -20.2365  -12.7261 C   0  0  0  0  0  0  0  0  0  0  0  0
   29.6488  -20.6238  -11.7525 C   0  0  0  0  0  0  0  0  0  0  0  0
   30.1944  -21.9492  -12.2662 C   0  0  0  0  0  0  0  0  0  0  0  0
   29.7756  -22.4549  -13.3126 O   0  0  0  0  0  0  0  0  0  0  0  0
   26.8387  -20.1040  -11.1375 C   0  0  0  0  0  0  0  0  0  0  0  0
   26.6014  -18.8471  -11.0486 O   0  0  0  0  0  0  0  0  0  0  0  0
   31.1696  -22.5555  -11.5243 O   0  0  0  0  0  0  0  0  0  0  0  0
   24.3116  -21.4016   -8.3246 C   0  0  0  0  0  0  0  0  0  0  0  0
   25.7190  -21.1672   -7.7955 C   0  0  2  0  0  0  0  0  0  0  0  0
   25.5147  -20.4705   -6.4593 C   0  0  0  0  0  0  0  0  0  0  0  0
   26.4805  -20.1951   -8.6924 C   0  0  2  0  0  0  0  0  0  0  0  0
   26.7543  -20.8442   -9.9772 N   0  0  0  0  0  0  0  0  0  0  0  0
   27.7151  -19.7462   -8.0892 C   0  0  0  0  0  0  0  0  0  0  0  0
   27.7362  -18.6463   -7.2178 O   0  0  0  0  0  0  0  0  0  0  0  0
   28.8005  -20.3500   -8.3423 O   0  0  0  0  0  0  0  0  0  0  0  0
  2  1  1  1
  2  3  1  0
  4  5  1  0
  4  2  1  0
  5  7  1  0
  5  6  1  6
  7  8  2  0
  9  7  1  0
  9 10  1  0
 11 12  1  0
 10 11  1  6
 12 13  1  0
 13 17  1  0
 13 14  2  0
 15 10  1  0
 15 16  2  0
 19 18  1  6
 19 21  1  0
 20 19  1  0
 21 22  1  6
 21 23  1  0
 22 15  1  0
 23 25  2  0
 23 24  1  0
M  END
$$$$
