VRS.pdb
     RDKit          3D

 25 24  0  0  1  0  0  0  0  0999 V2000
   28.5866  -18.1180  -16.2483 C   0  0  0  0  0  0  0  0  0  0  0  0
   27.2570  -18.6979  -15.8166 C   0  0  1  0  0  0  0  0  0  0  0  0
   26.3639  -18.7660  -17.0231 C   0  0  0  0  0  0  0  0  0  0  0  0
   27.5023  -20.0231  -15.1681 C   0  0  2  0  0  0  0  0  0  0  0  0
   28.1312  -20.9102  -16.0979 N   0  0  0  0  0  0  0  0  0  0  0  0
   26.1933  -20.5799  -14.6716 C   0  0  0  0  0  0  0  0  0  0  0  0
   25.5117  -21.3618  -15.3688 O   0  0  0  0  0  0  0  0  0  0  0  0
   22.1881  -21.0455   -6.7223 N   0  0  0  0  0  0  0  0  0  0  0  0
   21.3090  -21.6766   -7.6210 C   0  0  0  0  0  0  0  0  0  0  0  0
   20.2104  -22.2009   -7.1836 N   0  0  0  0  0  0  0  0  0  0  0  0
   21.6477  -21.7269   -9.0072 N   0  0  0  0  0  0  0  0  0  0  0  0
   22.8603  -21.0591   -9.4271 C   0  0  0  0  0  0  0  0  0  0  0  0
   23.0428  -21.2169  -10.9214 C   0  0  0  0  0  0  0  0  0  0  0  0
   24.3288  -20.5517  -11.3654 C   0  0  0  0  0  0  0  0  0  0  0  0
   24.4443  -20.7452  -12.8782 C   0  0  2  0  0  0  0  0  0  0  0  0
   25.6763  -20.2414  -13.3915 N   0  0  0  0  0  0  0  0  0  0  0  0
   23.2540  -20.0740  -13.4693 C   0  0  0  0  0  0  0  0  0  0  0  0
   23.2163  -18.8146  -13.3496 O   0  0  0  0  0  0  0  0  0  0  0  0
   19.5296  -22.6337   -7.8597 O   0  0  0  0  0  0  0  0  0  0  0  0
   21.8422  -20.3729  -16.9524 C   0  0  0  0  0  0  0  0  0  0  0  0
   20.7717  -20.4747  -16.0870 C   0  0  2  0  0  0  0  0  0  0  0  0
   21.1178  -20.0576  -14.6759 N   0  0  0  0  0  0  0  0  0  0  0  0
   22.2184  -20.7850  -14.1283 C   0  0  0  0  0  0  0  0  0  0  0  0
   19.9116  -20.1638  -13.8097 O   0  0  0  0  0  0  0  0  0  0  0  0
   18.8433  -19.5646  -14.0995 O   0  0  0  0  0  0  0  0  0  0  0  0
  2  1  1  6
  2  4  1  0
  3  2  1  0
  4  6  1  0
  4  5  1  6
  6 16  1  0
  7  6  2  0
  9 10  2  0
  9  8  1  0
 11  9  1  0
 12 11  1  0
 13 12  1  0
 14 13  1  0
 15 17  1  0
 15 14  1  1
 16 15  1  0
 17 18  2  0
 19 20  1  0
 21 20  1  6
 22 21  1  0
 22 17  1  0
 23 25  1  0
 23 21  1  0
 24 23  2  0
M  END
$$$$
