VRS.pdb
     RDKit          3D

 25 24  0  0  1  0  0  0  0  0999 V2000
   26.4150  -19.7321  -11.1804 C   0  0  0  0  0  0  0  0  0  0  0  0
   25.7110  -20.6672  -10.2212 C   0  0  1  0  0  0  0  0  0  0  0  0
   26.1753  -20.3439   -8.8291 C   0  0  0  0  0  0  0  0  0  0  0  0
   24.2346  -20.5278  -10.4158 C   0  0  2  0  0  0  0  0  0  0  0  0
   23.5402  -21.3445   -9.4683 N   0  0  0  0  0  0  0  0  0  0  0  0
   23.8854  -20.9052  -11.8320 C   0  0  0  0  0  0  0  0  0  0  0  0
   24.4836  -21.8273  -12.4268 O   0  0  0  0  0  0  0  0  0  0  0  0
   17.9479  -23.9049  -15.2627 N   0  0  0  0  0  0  0  0  0  0  0  0
   18.9287  -23.8466  -16.2694 C   0  0  0  0  0  0  0  0  0  0  0  0
   18.5835  -23.9648  -17.5104 N   0  0  0  0  0  0  0  0  0  0  0  0
   20.2951  -23.6570  -15.9004 N   0  0  0  0  0  0  0  0  0  0  0  0
   20.5749  -22.7679  -14.7942 C   0  0  0  0  0  0  0  0  0  0  0  0
   20.6572  -21.3403  -15.2906 C   0  0  0  0  0  0  0  0  0  0  0  0
   21.0090  -20.4083  -14.1499 C   0  0  0  0  0  0  0  0  0  0  0  0
   22.5126  -20.5378  -13.9016 C   0  0  2  0  0  0  0  0  0  0  0  0
   22.8625  -20.2310  -12.5531 N   0  0  0  0  0  0  0  0  0  0  0  0
   23.1700  -19.6376  -14.8887 C   0  0  0  0  0  0  0  0  0  0  0  0
   23.1026  -18.3995  -14.6346 O   0  0  0  0  0  0  0  0  0  0  0  0
   19.3105  -23.8867  -18.2674 O   0  0  0  0  0  0  0  0  0  0  0  0
   26.6543  -20.1688  -16.6256 C   0  0  0  0  0  0  0  0  0  0  0  0
   25.9394  -18.9882  -16.6057 C   0  0  1  0  0  0  0  0  0  0  0  0
   24.4736  -19.1860  -16.9175 N   0  0  0  0  0  0  0  0  0  0  0  0
   23.8341  -20.1195  -16.0458 C   0  0  0  0  0  0  0  0  0  0  0  0
   24.3111  -19.5762  -18.3449 O   0  0  0  0  0  0  0  0  0  0  0  0
   23.6705  -20.6090  -18.6720 O   0  0  0  0  0  0  0  0  0  0  0  0
  2  1  1  6
  2  4  1  0
  3  2  1  0
  4  6  1  0
  4  5  1  1
  6 16  1  0
  7  6  2  0
  9 10  2  0
  9  8  1  0
 11  9  1  0
 12 11  1  0
 13 12  1  0
 14 13  1  0
 15 17  1  0
 15 14  1  1
 16 15  1  0
 17 18  2  0
 19 20  1  0
 21 20  1  1
 22 21  1  0
 22 17  1  0
 23 25  1  0
 23 21  1  0
 24 23  2  0
M  END
$$$$
