VRS.pdb
     RDKit          3D

 25 24  0  0  1  0  0  0  0  0999 V2000
   26.1766  -11.8188  -15.6134 C   0  0  0  0  0  0  0  0  0  0  0  0
   27.6204  -11.4094  -15.8091 C   0  0  1  0  0  0  0  0  0  0  0  0
   28.4493  -12.6584  -15.9137 C   0  0  0  0  0  0  0  0  0  0  0  0
   27.7063  -10.5221  -17.0100 C   0  0  2  0  0  0  0  0  0  0  0  0
   27.1353  -11.1819  -18.1438 N   0  0  0  0  0  0  0  0  0  0  0  0
   29.1478  -10.1560  -17.2514 C   0  0  0  0  0  0  0  0  0  0  0  0
   29.7900   -9.4635  -16.4328 O   0  0  0  0  0  0  0  0  0  0  0  0
   35.9914  -13.5987  -19.1515 N   0  0  0  0  0  0  0  0  0  0  0  0
   36.4291  -12.4469  -19.8302 C   0  0  0  0  0  0  0  0  0  0  0  0
   37.6763  -12.1074  -19.7813 N   0  0  0  0  0  0  0  0  0  0  0  0
   35.4829  -11.6696  -20.5647 N   0  0  0  0  0  0  0  0  0  0  0  0
   34.0866  -12.0314  -20.4548 C   0  0  0  0  0  0  0  0  0  0  0  0
   33.3549  -11.0063  -19.6151 C   0  0  0  0  0  0  0  0  0  0  0  0
   31.8777  -11.3349  -19.5567 C   0  0  0  0  0  0  0  0  0  0  0  0
   31.2084  -10.2748  -18.6806 C   0  0  2  0  0  0  0  0  0  0  0  0
   29.8401  -10.5809  -18.4180 N   0  0  0  0  0  0  0  0  0  0  0  0
   31.3845   -8.9810  -19.3962 C   0  0  0  0  0  0  0  0  0  0  0  0
   30.6322   -8.7992  -20.3976 O   0  0  0  0  0  0  0  0  0  0  0  0
   37.9907  -11.2001  -20.2122 O   0  0  0  0  0  0  0  0  0  0  0  0
   31.9727   -4.3972  -19.5965 C   0  0  0  0  0  0  0  0  0  0  0  0
   31.9099   -5.5863  -18.8985 C   0  0  2  0  0  0  0  0  0  0  0  0
   32.3945   -6.7670  -19.7083 N   0  0  0  0  0  0  0  0  0  0  0  0
   32.3302   -8.0028  -18.9949 C   0  0  0  0  0  0  0  0  0  0  0  0
   33.7701   -6.5013  -20.2118 O   0  0  0  0  0  0  0  0  0  0  0  0
   34.7845   -6.9206  -19.5960 O   0  0  0  0  0  0  0  0  0  0  0  0
  2  1  1  6
  2  4  1  0
  3  2  1  0
  4  6  1  0
  4  5  1  6
  6 16  1  0
  7  6  2  0
  9 10  2  0
  9  8  1  0
 11  9  1  0
 12 11  1  0
 13 12  1  0
 14 13  1  0
 15 17  1  0
 15 14  1  6
 16 15  1  0
 17 18  2  0
 19 20  1  0
 21 20  1  6
 22 21  1  0
 22 17  1  0
 23 25  1  0
 23 21  1  0
 24 23  2  0
M  END
$$$$
