VRS.pdb
     RDKit          3D

 25 24  0  0  1  0  0  0  0  0999 V2000
   25.2643  -12.2820  -18.5367 C   0  0  0  0  0  0  0  0  0  0  0  0
   25.3133  -13.7938  -18.5868 C   0  0  1  0  0  0  0  0  0  0  0  0
   26.6798  -14.2313  -18.1403 C   0  0  0  0  0  0  0  0  0  0  0  0
   24.1991  -14.3355  -17.7489 C   0  0  2  0  0  0  0  0  0  0  0  0
   23.9708  -13.4751  -16.6288 N   0  0  0  0  0  0  0  0  0  0  0  0
   24.5465  -15.7343  -17.3098 C   0  0  0  0  0  0  0  0  0  0  0  0
   24.8169  -16.6292  -18.1393 O   0  0  0  0  0  0  0  0  0  0  0  0
   26.3004  -20.6217  -10.3333 N   0  0  0  0  0  0  0  0  0  0  0  0
   26.6345  -21.2652  -11.5388 C   0  0  0  0  0  0  0  0  0  0  0  0
   26.4244  -22.5349  -11.6689 N   0  0  0  0  0  0  0  0  0  0  0  0
   27.2027  -20.5004  -12.6024 N   0  0  0  0  0  0  0  0  0  0  0  0
   26.7861  -19.1215  -12.7352 C   0  0  0  0  0  0  0  0  0  0  0  0
   25.8626  -18.9762  -13.9257 C   0  0  0  0  0  0  0  0  0  0  0  0
   25.6003  -17.5119  -14.2097 C   0  0  0  0  0  0  0  0  0  0  0  0
   24.7475  -17.4383  -15.4771 C   0  0  2  0  0  0  0  0  0  0  0  0
   24.5822  -16.0977  -15.9360 N   0  0  0  0  0  0  0  0  0  0  0  0
   23.4556  -18.0978  -15.1408 C   0  0  0  0  0  0  0  0  0  0  0  0
   22.6614  -17.4198  -14.4256 O   0  0  0  0  0  0  0  0  0  0  0  0
   26.7147  -23.0272  -12.5526 O   0  0  0  0  0  0  0  0  0  0  0  0
   20.7121  -20.7124  -13.1401 C   0  0  0  0  0  0  0  0  0  0  0  0
   21.8604  -20.0964  -13.5954 C   0  0  2  0  0  0  0  0  0  0  0  0
   21.9207  -20.0114  -15.1034 N   0  0  0  0  0  0  0  0  0  0  0  0
   23.1197  -19.4024  -15.5849 C   0  0  0  0  0  0  0  0  0  0  0  0
   20.7115  -19.3108  -15.6165 O   0  0  0  0  0  0  0  0  0  0  0  0
   20.7883  -18.1642  -16.1300 O   0  0  0  0  0  0  0  0  0  0  0  0
  2  1  1  1
  2  4  1  0
  3  2  1  0
  4  6  1  0
  4  5  1  1
  6 16  1  0
  7  6  2  0
  9 10  2  0
  9  8  1  0
 11  9  1  0
 12 11  1  0
 13 12  1  0
 14 13  1  0
 15 17  1  0
 15 14  1  1
 16 15  1  0
 17 18  2  0
 19 20  1  0
 21 20  1  6
 22 21  1  0
 22 17  1  0
 23 25  1  0
 23 21  1  0
 24 23  2  0
M  END
$$$$
