VRS.pdb
     RDKit          3D

 25 24  0  0  1  0  0  0  0  0999 V2000
   26.7444  -20.8827  -19.7174 C   0  0  0  0  0  0  0  0  0  0  0  0
   25.5248  -21.2111  -18.8837 C   0  0  1  0  0  0  0  0  0  0  0  0
   25.9401  -22.1765  -17.8097 C   0  0  0  0  0  0  0  0  0  0  0  0
   24.9461  -19.9348  -18.3612 C   0  0  2  0  0  0  0  0  0  0  0  0
   25.9755  -19.1456  -17.7576 N   0  0  0  0  0  0  0  0  0  0  0  0
   23.8483  -20.2555  -17.3803 C   0  0  0  0  0  0  0  0  0  0  0  0
   22.8976  -21.0057  -17.6889 O   0  0  0  0  0  0  0  0  0  0  0  0
   24.0250  -23.5330  -11.7336 N   0  0  0  0  0  0  0  0  0  0  0  0
   25.4052  -23.2620  -11.7118 C   0  0  0  0  0  0  0  0  0  0  0  0
   26.2489  -24.2344  -11.5866 N   0  0  0  0  0  0  0  0  0  0  0  0
   25.8516  -21.9107  -11.8289 N   0  0  0  0  0  0  0  0  0  0  0  0
   24.8485  -20.8861  -12.0200 C   0  0  0  0  0  0  0  0  0  0  0  0
   24.2719  -20.9857  -13.4161 C   0  0  0  0  0  0  0  0  0  0  0  0
   23.3158  -19.8392  -13.6711 C   0  0  0  0  0  0  0  0  0  0  0  0
   22.8147  -19.9740  -15.1098 C   0  0  2  0  0  0  0  0  0  0  0  0
   23.8450  -19.7204  -16.0633 N   0  0  0  0  0  0  0  0  0  0  0  0
   21.6675  -19.0330  -15.2340 C   0  0  0  0  0  0  0  0  0  0  0  0
   21.9316  -17.8127  -15.0261 O   0  0  0  0  0  0  0  0  0  0  0  0
   27.2818  -24.0336  -11.5630 O   0  0  0  0  0  0  0  0  0  0  0  0
   17.8308  -19.6274  -17.2006 C   0  0  0  0  0  0  0  0  0  0  0  0
   18.6337  -18.5166  -17.0377 C   0  0  1  0  0  0  0  0  0  0  0  0
   19.3207  -18.4830  -15.6917 N   0  0  0  0  0  0  0  0  0  0  0  0
   20.3553  -19.4594  -15.5637 C   0  0  0  0  0  0  0  0  0  0  0  0
   18.3096  -18.6174  -14.6073 O   0  0  0  0  0  0  0  0  0  0  0  0
   18.4012  -19.5208  -13.7357 O   0  0  0  0  0  0  0  0  0  0  0  0
  2  1  1  1
  2  4  1  0
  3  2  1  0
  4  6  1  0
  4  5  1  1
  6 16  1  0
  7  6  2  0
  9 10  2  0
  9  8  1  0
 11  9  1  0
 12 11  1  0
 13 12  1  0
 14 13  1  0
 15 17  1  0
 15 14  1  1
 16 15  1  0
 17 18  2  0
 19 20  1  0
 21 20  1  6
 22 21  1  0
 22 17  1  0
 23 25  1  0
 23 21  1  0
 24 23  2  0
M  END
$$$$
