VRS.pdb
     RDKit          3D

 25 24  0  0  1  0  0  0  0  0999 V2000
   19.0817  -17.3286  -13.3273 C   0  0  0  0  0  0  0  0  0  0  0  0
   18.5053  -17.2756  -14.7256 C   0  0  1  0  0  0  0  0  0  0  0  0
   18.7587  -15.9034  -15.2830 C   0  0  0  0  0  0  0  0  0  0  0  0
   19.1101  -18.3795  -15.5334 C   0  0  2  0  0  0  0  0  0  0  0  0
   18.6275  -19.6432  -15.0676 N   0  0  0  0  0  0  0  0  0  0  0  0
   20.6115  -18.2931  -15.4415 C   0  0  0  0  0  0  0  0  0  0  0  0
   21.2304  -17.2780  -15.8268 O   0  0  0  0  0  0  0  0  0  0  0  0
   22.8918  -20.6525   -8.6872 N   0  0  0  0  0  0  0  0  0  0  0  0
   22.2474  -21.4909   -9.6149 C   0  0  0  0  0  0  0  0  0  0  0  0
   21.2192  -22.1847   -9.2478 N   0  0  0  0  0  0  0  0  0  0  0  0
   22.7431  -21.5608  -10.9522 N   0  0  0  0  0  0  0  0  0  0  0  0
   23.7479  -20.5981  -11.3472 C   0  0  0  0  0  0  0  0  0  0  0  0
   23.1912  -19.6842  -12.4177 C   0  0  0  0  0  0  0  0  0  0  0  0
   23.3402  -20.3239  -13.7823 C   0  0  0  0  0  0  0  0  0  0  0  0
   22.8119  -19.3265  -14.8144 C   0  0  2  0  0  0  0  0  0  0  0  0
   21.3892  -19.3597  -14.9139 N   0  0  0  0  0  0  0  0  0  0  0  0
   23.4893  -19.6657  -16.0962 C   0  0  0  0  0  0  0  0  0  0  0  0
   23.3461  -20.8581  -16.4957 O   0  0  0  0  0  0  0  0  0  0  0  0
   20.6831  -22.7453   -9.9591 O   0  0  0  0  0  0  0  0  0  0  0  0
   26.0308  -17.0521  -18.3582 C   0  0  0  0  0  0  0  0  0  0  0  0
   25.2037  -17.9727  -18.9695 C   0  0  1  0  0  0  0  0  0  0  0  0
   24.8502  -19.1324  -18.0667 N   0  0  0  0  0  0  0  0  0  0  0  0
   24.2507  -18.7248  -16.8360 C   0  0  0  0  0  0  0  0  0  0  0  0
   26.0564  -19.9727  -17.8315 O   0  0  0  0  0  0  0  0  0  0  0  0
   26.5241  -20.1365  -16.6746 O   0  0  0  0  0  0  0  0  0  0  0  0
  2  1  1  1
  2  4  1  0
  3  2  1  0
  4  6  1  0
  4  5  1  1
  6 16  1  0
  7  6  2  0
  9 10  2  0
  9  8  1  0
 11  9  1  0
 12 11  1  0
 13 12  1  0
 14 13  1  0
 15 17  1  0
 15 14  1  1
 16 15  1  0
 17 18  2  0
 19 20  1  0
 21 20  1  6
 22 21  1  0
 22 17  1  0
 23 25  1  0
 23 21  1  0
 24 23  2  0
M  END
$$$$
