VRS.pdb
     RDKit          3D

 25 24  0  0  1  0  0  0  0  0999 V2000
   26.9963  -13.7350  -16.5914 C   0  0  0  0  0  0  0  0  0  0  0  0
   26.9031  -15.2375  -16.7462 C   0  0  1  0  0  0  0  0  0  0  0  0
   27.7031  -15.8708  -15.6431 C   0  0  0  0  0  0  0  0  0  0  0  0
   25.4594  -15.6283  -16.7498 C   0  0  2  0  0  0  0  0  0  0  0  0
   24.7798  -14.9876  -15.6660 N   0  0  0  0  0  0  0  0  0  0  0  0
   25.3537  -17.1285  -16.6590 C   0  0  0  0  0  0  0  0  0  0  0  0
   25.8308  -17.8700  -17.5448 O   0  0  0  0  0  0  0  0  0  0  0  0
   25.6754  -22.2332  -11.3012 N   0  0  0  0  0  0  0  0  0  0  0  0
   25.8771  -20.8818  -10.9670 C   0  0  0  0  0  0  0  0  0  0  0  0
   25.5112  -20.4456   -9.8056 N   0  0  0  0  0  0  0  0  0  0  0  0
   26.4857  -20.0116  -11.9218 N   0  0  0  0  0  0  0  0  0  0  0  0
   27.0821  -20.6131  -13.0944 C   0  0  0  0  0  0  0  0  0  0  0  0
   26.5021  -19.9867  -14.3445 C   0  0  0  0  0  0  0  0  0  0  0  0
   25.0132  -19.7659  -14.1774 C   0  0  0  0  0  0  0  0  0  0  0  0
   24.4897  -19.1736  -15.4868 C   0  0  2  0  0  0  0  0  0  0  0  0
   24.7081  -17.7660  -15.5647 N   0  0  0  0  0  0  0  0  0  0  0  0
   23.0481  -19.5397  -15.5548 C   0  0  0  0  0  0  0  0  0  0  0  0
   22.2359  -18.6529  -15.1600 O   0  0  0  0  0  0  0  0  0  0  0  0
   25.6915  -19.4432   -9.5405 O   0  0  0  0  0  0  0  0  0  0  0  0
   21.4142  -22.1132  -18.1915 C   0  0  0  0  0  0  0  0  0  0  0  0
   20.8119  -22.2082  -16.9532 C   0  0  2  0  0  0  0  0  0  0  0  0
   21.1948  -21.0762  -16.0275 N   0  0  0  0  0  0  0  0  0  0  0  0
   22.5957  -20.7977  -16.0291 C   0  0  0  0  0  0  0  0  0  0  0  0
   20.6990  -21.3609  -14.6529 O   0  0  0  0  0  0  0  0  0  0  0  0
   19.4763  -21.5541  -14.4253 O   0  0  0  0  0  0  0  0  0  0  0  0
  2  1  1  1
  2  4  1  0
  3  2  1  0
  4  6  1  0
  4  5  1  1
  6 16  1  0
  7  6  2  0
  9 10  2  0
  9  8  1  0
 11  9  1  0
 12 11  1  0
 13 12  1  0
 14 13  1  0
 15 17  1  0
 15 14  1  1
 16 15  1  0
 17 18  2  0
 19 20  1  0
 21 20  1  6
 22 21  1  0
 22 17  1  0
 23 25  1  0
 23 21  1  0
 24 23  2  0
M  END
$$$$
