VRS.pdb
     RDKit          3D

 25 24  0  0  1  0  0  0  0  0999 V2000
   27.1889  -10.0613  -15.5565 C   0  0  0  0  0  0  0  0  0  0  0  0
   27.1081  -11.3394  -16.3629 C   0  0  1  0  0  0  0  0  0  0  0  0
   28.2605  -12.2169  -15.9633 C   0  0  0  0  0  0  0  0  0  0  0  0
   25.7663  -11.9610  -16.1388 C   0  0  2  0  0  0  0  0  0  0  0  0
   25.6850  -13.2067  -16.8377 N   0  0  0  0  0  0  0  0  0  0  0  0
   24.6960  -11.0021  -16.5917 C   0  0  0  0  0  0  0  0  0  0  0  0
   24.5730  -10.6835  -17.7940 O   0  0  0  0  0  0  0  0  0  0  0  0
   17.2145  -12.9331  -15.6344 N   0  0  0  0  0  0  0  0  0  0  0  0
   18.0274  -13.3942  -16.6857 C   0  0  0  0  0  0  0  0  0  0  0  0
   17.6167  -14.3632  -17.4378 N   0  0  0  0  0  0  0  0  0  0  0  0
   19.2980  -12.7805  -16.9045 N   0  0  0  0  0  0  0  0  0  0  0  0
   19.6357  -11.6289  -16.0967 C   0  0  0  0  0  0  0  0  0  0  0  0
   21.0173  -11.1313  -16.4637 C   0  0  0  0  0  0  0  0  0  0  0  0
   21.3787   -9.9228  -15.6256 C   0  0  0  0  0  0  0  0  0  0  0  0
   22.7784   -9.4752  -16.0495 C   0  0  2  0  0  0  0  0  0  0  0  0
   23.7805  -10.4184  -15.6741 N   0  0  0  0  0  0  0  0  0  0  0  0
   22.9848   -8.1359  -15.4325 C   0  0  0  0  0  0  0  0  0  0  0  0
   23.3832   -8.1388  -14.2312 O   0  0  0  0  0  0  0  0  0  0  0  0
   18.2148  -14.6976  -18.2366 O   0  0  0  0  0  0  0  0  0  0  0  0
   23.7657   -3.3973  -15.9471 C   0  0  0  0  0  0  0  0  0  0  0  0
   23.4009   -4.5903  -16.5376 C   0  0  1  0  0  0  0  0  0  0  0  0
   23.1526   -5.6902  -15.5309 N   0  0  0  0  0  0  0  0  0  0  0  0
   22.7544   -6.9233  -16.1317 C   0  0  0  0  0  0  0  0  0  0  0  0
   22.1597   -5.2325  -14.5204 O   0  0  0  0  0  0  0  0  0  0  0  0
   20.9267   -5.4292  -14.6791 O   0  0  0  0  0  0  0  0  0  0  0  0
  2  1  1  1
  2  4  1  0
  3  2  1  0
  4  6  1  0
  4  5  1  6
  6 16  1  0
  7  6  2  0
  9 10  2  0
  9  8  1  0
 11  9  1  0
 12 11  1  0
 13 12  1  0
 14 13  1  0
 15 17  1  0
 15 14  1  1
 16 15  1  0
 17 18  2  0
 19 20  1  0
 21 20  1  6
 22 21  1  0
 22 17  1  0
 23 25  1  0
 23 21  1  0
 24 23  2  0
M  END
$$$$
