VRS.pdb
     RDKit          3D

 25 24  0  0  1  0  0  0  0  0999 V2000
   22.3533  -11.8256  -21.8077 C   0  0  0  0  0  0  0  0  0  0  0  0
   21.4159  -11.1232  -20.8495 C   0  0  1  0  0  0  0  0  0  0  0  0
   20.4586  -12.1435  -20.3013 C   0  0  0  0  0  0  0  0  0  0  0  0
   22.2319  -10.4334  -19.8030 C   0  0  2  0  0  0  0  0  0  0  0  0
   23.1271  -11.3668  -19.1912 N   0  0  0  0  0  0  0  0  0  0  0  0
   21.3088   -9.8073  -18.7900 C   0  0  0  0  0  0  0  0  0  0  0  0
   20.5238   -8.8873  -19.1051 O   0  0  0  0  0  0  0  0  0  0  0  0
   15.5117  -11.3584  -14.0664 N   0  0  0  0  0  0  0  0  0  0  0  0
   15.3982  -12.1243  -15.2408 C   0  0  0  0  0  0  0  0  0  0  0  0
   14.2310  -12.3484  -15.7513 N   0  0  0  0  0  0  0  0  0  0  0  0
   16.5804  -12.6430  -15.8510 N   0  0  0  0  0  0  0  0  0  0  0  0
   17.8537  -12.2622  -15.2797 C   0  0  0  0  0  0  0  0  0  0  0  0
   18.4562  -11.1266  -16.0788 C   0  0  0  0  0  0  0  0  0  0  0  0
   19.8281  -10.7774  -15.5407 C   0  0  0  0  0  0  0  0  0  0  0  0
   20.4121   -9.6934  -16.4479 C   0  0  2  0  0  0  0  0  0  0  0  0
   21.2896  -10.2340  -17.4342 N   0  0  0  0  0  0  0  0  0  0  0  0
   21.0870   -8.7220  -15.5436 C   0  0  0  0  0  0  0  0  0  0  0  0
   22.2602   -9.0299  -15.1822 O   0  0  0  0  0  0  0  0  0  0  0  0
   14.1425  -12.9304  -16.6238 O   0  0  0  0  0  0  0  0  0  0  0  0
   23.2298   -5.1751  -14.5183 C   0  0  0  0  0  0  0  0  0  0  0  0
   22.5366   -6.1991  -15.1314 C   0  0  1  0  0  0  0  0  0  0  0  0
   21.2549   -6.5517  -14.4118 N   0  0  0  0  0  0  0  0  0  0  0  0
   20.4694   -7.5226  -15.1049 C   0  0  0  0  0  0  0  0  0  0  0  0
   20.4734   -5.3139  -14.1404 O   0  0  0  0  0  0  0  0  0  0  0  0
   19.6128   -4.8916  -14.9560 O   0  0  0  0  0  0  0  0  0  0  0  0
  2  1  1  6
  2  4  1  0
  3  2  1  0
  4  6  1  0
  4  5  1  1
  6 16  1  0
  7  6  2  0
  9 10  2  0
  9  8  1  0
 11  9  1  0
 12 11  1  0
 13 12  1  0
 14 13  1  0
 15 17  1  0
 15 14  1  1
 16 15  1  0
 17 18  2  0
 19 20  1  0
 21 20  1  1
 22 21  1  0
 22 17  1  0
 23 25  1  0
 23 21  1  0
 24 23  2  0
M  END
$$$$
