VRS.pdb
     RDKit          3D

 25 24  0  0  1  0  0  0  0  0999 V2000
   24.9480  -12.9439  -15.1583 C   0  0  0  0  0  0  0  0  0  0  0  0
   24.1855  -11.6705  -15.4534 C   0  0  1  0  0  0  0  0  0  0  0  0
   24.7001  -11.1080  -16.7483 C   0  0  0  0  0  0  0  0  0  0  0  0
   22.7227  -11.9822  -15.4664 C   0  0  2  0  0  0  0  0  0  0  0  0
   22.4600  -13.0430  -16.3897 N   0  0  0  0  0  0  0  0  0  0  0  0
   21.9554  -10.7357  -15.8234 C   0  0  0  0  0  0  0  0  0  0  0  0
   21.7658  -10.4060  -17.0140 O   0  0  0  0  0  0  0  0  0  0  0  0
   14.4233  -10.2479  -13.8957 N   0  0  0  0  0  0  0  0  0  0  0  0
   14.8593  -10.7626  -15.1301 C   0  0  0  0  0  0  0  0  0  0  0  0
   14.0199  -11.3677  -15.9063 N   0  0  0  0  0  0  0  0  0  0  0  0
   16.2281  -10.6066  -15.5054 N   0  0  0  0  0  0  0  0  0  0  0  0
   17.0380   -9.6942  -14.7280 C   0  0  0  0  0  0  0  0  0  0  0  0
   18.4455   -9.6556  -15.2836 C   0  0  0  0  0  0  0  0  0  0  0  0
   19.2969   -8.6892  -14.4869 C   0  0  0  0  0  0  0  0  0  0  0  0
   20.6918   -8.6855  -15.1142 C   0  0  2  0  0  0  0  0  0  0  0  0
   21.4140   -9.8811  -14.8247 N   0  0  0  0  0  0  0  0  0  0  0  0
   21.3686   -7.4625  -14.6011 C   0  0  0  0  0  0  0  0  0  0  0  0
   21.9163   -7.5720  -13.4653 O   0  0  0  0  0  0  0  0  0  0  0  0
   14.3466  -11.7654  -16.8244 O   0  0  0  0  0  0  0  0  0  0  0  0
   23.7636   -5.1527  -16.5548 C   0  0  0  0  0  0  0  0  0  0  0  0
   22.8992   -4.3600  -15.8270 C   0  0  2  0  0  0  0  0  0  0  0  0
   22.1299   -5.1373  -14.7835 N   0  0  0  0  0  0  0  0  0  0  0  0
   21.4071   -6.2436  -15.3257 C   0  0  0  0  0  0  0  0  0  0  0  0
   21.2323   -4.2180  -14.0316 O   0  0  0  0  0  0  0  0  0  0  0  0
   19.9930   -4.1899  -14.2499 O   0  0  0  0  0  0  0  0  0  0  0  0
  2  1  1  6
  2  4  1  0
  3  2  1  0
  4  6  1  0
  4  5  1  6
  6 16  1  0
  7  6  2  0
  9 10  2  0
  9  8  1  0
 11  9  1  0
 12 11  1  0
 13 12  1  0
 14 13  1  0
 15 17  1  0
 15 14  1  1
 16 15  1  0
 17 18  2  0
 19 20  1  0
 21 20  1  1
 22 21  1  0
 22 17  1  0
 23 25  1  0
 23 21  1  0
 24 23  2  0
M  END
$$$$
