VRS.pdb
     RDKit          3D

 25 24  0  0  1  0  0  0  0  0999 V2000
   13.7892  -13.3881  -15.3916 C   0  0  0  0  0  0  0  0  0  0  0  0
   14.5587  -12.2854  -14.6972 C   0  0  1  0  0  0  0  0  0  0  0  0
   15.9682  -12.7615  -14.4862 C   0  0  0  0  0  0  0  0  0  0  0  0
   14.4558  -11.0406  -15.5199 C   0  0  2  0  0  0  0  0  0  0  0  0
   14.7824  -11.3300  -16.8824 N   0  0  0  0  0  0  0  0  0  0  0  0
   15.3698   -9.9906  -14.9433 C   0  0  0  0  0  0  0  0  0  0  0  0
   15.2229   -9.5690  -13.7759 O   0  0  0  0  0  0  0  0  0  0  0  0
   22.6998   -8.8996  -12.8760 N   0  0  0  0  0  0  0  0  0  0  0  0
   22.4077   -9.4282  -14.1465 C   0  0  0  0  0  0  0  0  0  0  0  0
   23.1230  -10.3966  -14.6194 N   0  0  0  0  0  0  0  0  0  0  0  0
   21.3207   -8.8826  -14.8947 N   0  0  0  0  0  0  0  0  0  0  0  0
   20.5911   -7.7781  -14.3113 C   0  0  0  0  0  0  0  0  0  0  0  0
   19.4971   -7.3288  -15.2562 C   0  0  0  0  0  0  0  0  0  0  0  0
   18.7144   -8.5243  -15.7578 C   0  0  0  0  0  0  0  0  0  0  0  0
   17.2890   -8.3958  -15.2184 C   0  0  2  0  0  0  0  0  0  0  0  0
   16.4372   -9.4341  -15.6993 N   0  0  0  0  0  0  0  0  0  0  0  0
   16.8231   -7.0373  -15.6111 C   0  0  0  0  0  0  0  0  0  0  0  0
   16.6646   -6.8472  -16.8524 O   0  0  0  0  0  0  0  0  0  0  0  0
   22.8834  -10.8189  -15.5532 O   0  0  0  0  0  0  0  0  0  0  0  0
   14.8512   -4.2694  -13.1188 C   0  0  0  0  0  0  0  0  0  0  0  0
   14.7789   -4.3375  -14.4956 C   0  0  1  0  0  0  0  0  0  0  0  0
   16.0881   -4.7463  -15.1311 N   0  0  0  0  0  0  0  0  0  0  0  0
   16.5682   -6.0092  -14.6676 C   0  0  0  0  0  0  0  0  0  0  0  0
   17.1008   -3.6735  -14.9316 O   0  0  0  0  0  0  0  0  0  0  0  0
   16.8656   -2.4821  -15.2621 O   0  0  0  0  0  0  0  0  0  0  0  0
  2  1  1  6
  2  4  1  0
  3  2  1  0
  4  6  1  0
  4  5  1  6
  6 16  1  0
  7  6  2  0
  9 10  2  0
  9  8  1  0
 11  9  1  0
 12 11  1  0
 13 12  1  0
 14 13  1  0
 15 17  1  0
 15 14  1  6
 16 15  1  0
 17 18  2  0
 19 20  1  0
 21 20  1  6
 22 21  1  0
 22 17  1  0
 23 25  1  0
 23 21  1  0
 24 23  2  0
M  END
$$$$
