VKQ.pdb
     RDKit          3D

 26 25  0  0  1  0  0  0  0  0999 V2000
   17.1240  -15.6195  -17.9800 C   0  0  0  0  0  0  0  0  0  0  0  0
   16.7842  -14.1423  -17.8083 C   0  0  1  0  0  0  0  0  0  0  0  0
   15.4154  -14.0942  -17.1665 C   0  0  0  0  0  0  0  0  0  0  0  0
   17.8281  -13.5509  -16.8791 C   0  0  2  0  0  0  0  0  0  0  0  0
   17.9489  -14.3235  -15.6592 N   0  0  0  0  0  0  0  0  0  0  0  0
   17.5603  -12.1204  -16.6006 C   0  0  0  0  0  0  0  0  0  0  0  0
   17.6654  -11.2880  -17.5441 O   0  0  0  0  0  0  0  0  0  0  0  0
   17.1899  -11.6365  -15.3210 N   0  0  0  0  0  0  0  0  0  0  0  0
   16.9505  -10.2429  -15.1345 C   0  0  1  0  0  0  0  0  0  0  0  0
   15.7627   -9.9591  -14.2438 C   0  0  0  0  0  0  0  0  0  0  0  0
   14.4503  -10.1772  -14.9183 C   0  0  0  0  0  0  0  0  0  0  0  0
   13.3657  -10.0273  -13.8588 C   0  0  0  0  0  0  0  0  0  0  0  0
   11.9846  -10.0671  -14.4721 C   0  0  0  0  0  0  0  0  0  0  0  0
   11.0340  -10.0359  -13.3751 N   0  0  0  0  0  0  0  0  0  0  0  0
   18.1246   -9.6195  -14.4699 C   0  0  0  0  0  0  0  0  0  0  0  0
   18.9527  -10.3478  -13.8793 O   0  0  0  0  0  0  0  0  0  0  0  0
   21.7555   -7.1637  -17.7727 N   0  0  0  0  0  0  0  0  0  0  0  0
   22.5373   -7.6163  -16.6933 C   0  0  0  0  0  0  0  0  0  0  0  0
   23.7766   -7.5169  -16.7443 O   0  0  0  0  0  0  0  0  0  0  0  0
   21.9031   -8.2189  -15.4770 C   0  0  0  0  0  0  0  0  0  0  0  0
   20.4186   -8.3055  -15.6291 C   0  0  0  0  0  0  0  0  0  0  0  0
   19.6989   -7.6876  -14.4621 C   0  0  2  0  0  0  0  0  0  0  0  0
   18.3293   -8.2338  -14.4873 N   0  0  0  0  0  0  0  0  0  0  0  0
   19.6537   -6.2255  -14.5586 C   0  0  0  0  0  0  0  0  0  0  0  0
   20.6019   -5.3887  -14.0044 O   0  0  0  0  0  0  0  0  0  0  0  0
   18.7049   -5.6455  -15.1760 O   0  0  0  0  0  0  0  0  0  0  0  0
  2  4  1  0
  2  1  1  1
  3  2  1  0
  4  6  1  0
  4  5  1  1
  6  7  2  0
  8  9  1  0
  8  6  1  0
 10 11  1  0
  9 10  1  1
 11 12  1  0
 12 13  1  0
 13 14  1  0
 15  9  1  0
 15 16  2  0
 17 18  1  0
 18 20  1  0
 19 18  2  0
 20 21  1  0
 22 21  1  6
 22 23  1  0
 22 24  1  0
 23 15  1  0
 24 26  2  0
 24 25  1  0
M  END
$$$$
