VKQ.pdb
     RDKit          3D

 26 25  0  0  1  0  0  0  0  0999 V2000
   13.8104  -14.4807  -18.9362 C   0  0  0  0  0  0  0  0  0  0  0  0
   13.0773  -15.3739  -17.9402 C   0  0  1  0  0  0  0  0  0  0  0  0
   12.1245  -16.2218  -18.7532 C   0  0  0  0  0  0  0  0  0  0  0  0
   14.1238  -16.2445  -17.2697 C   0  0  2  0  0  0  0  0  0  0  0  0
   13.5154  -17.2107  -16.3775 N   0  0  0  0  0  0  0  0  0  0  0  0
   15.1497  -15.4277  -16.5797 C   0  0  0  0  0  0  0  0  0  0  0  0
   14.8520  -14.8794  -15.4820 O   0  0  0  0  0  0  0  0  0  0  0  0
   16.4559  -15.2296  -17.0928 N   0  0  0  0  0  0  0  0  0  0  0  0
   17.4139  -14.5030  -16.3256 C   0  0  1  0  0  0  0  0  0  0  0  0
   18.8079  -15.0804  -16.4168 C   0  0  0  0  0  0  0  0  0  0  0  0
   18.9553  -16.3878  -15.7142 C   0  0  0  0  0  0  0  0  0  0  0  0
   20.4180  -16.7997  -15.8252 C   0  0  0  0  0  0  0  0  0  0  0  0
   20.6636  -18.1456  -15.1824 C   0  0  0  0  0  0  0  0  0  0  0  0
   22.0582  -18.4763  -15.4140 N   0  0  0  0  0  0  0  0  0  0  0  0
   17.5085  -13.1102  -16.8353 C   0  0  0  0  0  0  0  0  0  0  0  0
   17.5674  -12.9117  -18.0690 O   0  0  0  0  0  0  0  0  0  0  0  0
   15.5030   -7.9896  -13.9406 N   0  0  0  0  0  0  0  0  0  0  0  0
   16.1665   -7.4494  -15.0583 C   0  0  0  0  0  0  0  0  0  0  0  0
   16.1752   -6.2179  -15.2353 O   0  0  0  0  0  0  0  0  0  0  0  0
   16.8667   -8.3333  -16.0448 C   0  0  0  0  0  0  0  0  0  0  0  0
   16.8302   -9.7629  -15.6096 C   0  0  0  0  0  0  0  0  0  0  0  0
   17.6522  -10.6436  -16.5097 C   0  0  2  0  0  0  0  0  0  0  0  0
   17.5335  -12.0102  -15.9682 N   0  0  0  0  0  0  0  0  0  0  0  0
   19.0608  -10.2385  -16.5345 C   0  0  0  0  0  0  0  0  0  0  0  0
   20.0895  -11.0012  -16.0180 O   0  0  0  0  0  0  0  0  0  0  0  0
   19.4071   -9.1277  -17.0483 O   0  0  0  0  0  0  0  0  0  0  0  0
  2  4  1  0
  2  1  1  6
  3  2  1  0
  4  6  1  0
  4  5  1  1
  6  7  2  0
  8  9  1  0
  8  6  1  0
 10 11  1  0
  9 10  1  6
 11 12  1  0
 12 13  1  0
 13 14  1  0
 15  9  1  0
 15 16  2  0
 17 18  1  0
 18 20  1  0
 19 18  2  0
 20 21  1  0
 22 21  1  1
 22 23  1  0
 22 24  1  0
 23 15  1  0
 24 26  2  0
 24 25  1  0
M  END
$$$$
