VKQ.pdb
     RDKit          3D

 26 25  0  0  1  0  0  0  0  0999 V2000
   12.6262   -7.1539  -15.9991 C   0  0  0  0  0  0  0  0  0  0  0  0
   13.9066   -7.8242  -15.5105 C   0  0  1  0  0  0  0  0  0  0  0  0
   13.9709   -9.1686  -16.2005 C   0  0  0  0  0  0  0  0  0  0  0  0
   15.0636   -6.9456  -15.9490 C   0  0  2  0  0  0  0  0  0  0  0  0
   15.0352   -6.7079  -17.3781 N   0  0  0  0  0  0  0  0  0  0  0  0
   16.3651   -7.5008  -15.5090 C   0  0  0  0  0  0  0  0  0  0  0  0
   16.5880   -7.6187  -14.2719 O   0  0  0  0  0  0  0  0  0  0  0  0
   17.3784   -7.9087  -16.4122 N   0  0  0  0  0  0  0  0  0  0  0  0
   18.6368   -8.3527  -15.9088 C   0  0  1  0  0  0  0  0  0  0  0  0
   19.1724   -9.5647  -16.6363 C   0  0  0  0  0  0  0  0  0  0  0  0
   19.1734  -10.8029  -15.8046 C   0  0  0  0  0  0  0  0  0  0  0  0
   19.8125  -11.9075  -16.6370 C   0  0  0  0  0  0  0  0  0  0  0  0
   19.8512  -13.2165  -15.8819 C   0  0  0  0  0  0  0  0  0  0  0  0
   20.3339  -14.2247  -16.8086 N   0  0  0  0  0  0  0  0  0  0  0  0
   19.6514   -7.2813  -16.0866 C   0  0  0  0  0  0  0  0  0  0  0  0
   19.8254   -6.7843  -17.2213 O   0  0  0  0  0  0  0  0  0  0  0  0
   20.4678   -1.0733  -15.1011 N   0  0  0  0  0  0  0  0  0  0  0  0
   20.6661   -2.0852  -16.0590 C   0  0  0  0  0  0  0  0  0  0  0  0
   20.1606   -1.9719  -17.1903 O   0  0  0  0  0  0  0  0  0  0  0  0
   21.4787   -3.3033  -15.7416 C   0  0  0  0  0  0  0  0  0  0  0  0
   20.6085   -4.5101  -15.5973 C   0  0  0  0  0  0  0  0  0  0  0  0
   21.4022   -5.7317  -15.2240 C   0  0  2  0  0  0  0  0  0  0  0  0
   20.4204   -6.8119  -15.0139 N   0  0  0  0  0  0  0  0  0  0  0  0
   22.1835   -5.5243  -14.0011 C   0  0  0  0  0  0  0  0  0  0  0  0
   23.2970   -4.7109  -13.9287 O   0  0  0  0  0  0  0  0  0  0  0  0
   21.8593   -6.1068  -12.9179 O   0  0  0  0  0  0  0  0  0  0  0  0
  2  4  1  0
  2  1  1  6
  3  2  1  0
  4  6  1  0
  4  5  1  6
  6  7  2  0
  8  9  1  0
  8  6  1  0
 10 11  1  0
  9 10  1  6
 11 12  1  0
 12 13  1  0
 13 14  1  0
 15  9  1  0
 15 16  2  0
 17 18  1  0
 18 20  1  0
 19 18  2  0
 20 21  1  0
 22 21  1  1
 22 23  1  0
 22 24  1  0
 23 15  1  0
 24 26  2  0
 24 25  1  0
M  END
$$$$
