VKQ.pdb
     RDKit          3D

 26 25  0  0  1  0  0  0  0  0999 V2000
   25.2766  -13.1540  -15.0979 C   0  0  0  0  0  0  0  0  0  0  0  0
   24.4304  -14.3506  -15.5210 C   0  0  1  0  0  0  0  0  0  0  0  0
   23.7649  -13.9601  -16.8220 C   0  0  0  0  0  0  0  0  0  0  0  0
   25.3813  -15.5131  -15.7384 C   0  0  2  0  0  0  0  0  0  0  0  0
   26.3569  -15.2133  -16.7671 N   0  0  0  0  0  0  0  0  0  0  0  0
   24.6486  -16.7690  -16.0238 C   0  0  0  0  0  0  0  0  0  0  0  0
   23.8111  -16.7822  -16.9684 O   0  0  0  0  0  0  0  0  0  0  0  0
   24.8415  -17.9632  -15.2853 N   0  0  0  0  0  0  0  0  0  0  0  0
   24.0882  -19.1283  -15.6162 C   0  0  1  0  0  0  0  0  0  0  0  0
   24.8295  -20.4145  -15.3316 C   0  0  0  0  0  0  0  0  0  0  0  0
   24.0427  -21.6379  -15.6619 C   0  0  0  0  0  0  0  0  0  0  0  0
   24.9561  -22.8374  -15.4422 C   0  0  0  0  0  0  0  0  0  0  0  0
   24.2828  -24.1273  -15.8519 C   0  0  0  0  0  0  0  0  0  0  0  0
   25.2449  -25.1931  -15.6366 N   0  0  0  0  0  0  0  0  0  0  0  0
   22.8512  -19.1728  -14.7938 C   0  0  0  0  0  0  0  0  0  0  0  0
   22.8963  -18.8061  -13.5986 O   0  0  0  0  0  0  0  0  0  0  0  0
   17.0308  -16.2913  -14.4544 N   0  0  0  0  0  0  0  0  0  0  0  0
   17.9814  -16.9733  -13.6719 C   0  0  0  0  0  0  0  0  0  0  0  0
   18.5138  -16.3971  -12.7062 O   0  0  0  0  0  0  0  0  0  0  0  0
   18.3671  -18.3878  -13.9806 C   0  0  0  0  0  0  0  0  0  0  0  0
   19.6345  -18.4413  -14.7714 C   0  0  0  0  0  0  0  0  0  0  0  0
   20.4329  -19.6787  -14.4670 C   0  0  2  0  0  0  0  0  0  0  0  0
   21.6321  -19.6157  -15.3230 N   0  0  0  0  0  0  0  0  0  0  0  0
   19.6785  -20.9020  -14.7562 C   0  0  0  0  0  0  0  0  0  0  0  0
   20.0007  -21.7825  -15.7698 O   0  0  0  0  0  0  0  0  0  0  0  0
   18.6584  -21.2137  -14.0634 O   0  0  0  0  0  0  0  0  0  0  0  0
  2  4  1  0
  2  1  1  6
  3  2  1  0
  4  6  1  0
  4  5  1  6
  6  7  2  0
  8  9  1  0
  8  6  1  0
 10 11  1  0
  9 10  1  1
 11 12  1  0
 12 13  1  0
 13 14  1  0
 15  9  1  0
 15 16  2  0
 17 18  1  0
 18 20  1  0
 19 18  2  0
 20 21  1  0
 22 21  1  6
 22 23  1  0
 22 24  1  0
 23 15  1  0
 24 26  2  0
 24 25  1  0
M  END
$$$$
