VKQ.pdb
     RDKit          3D

 26 25  0  0  1  0  0  0  0  0999 V2000
   18.3214  -19.2976  -13.4330 C   0  0  0  0  0  0  0  0  0  0  0  0
   19.3548  -18.4292  -14.1438 C   0  0  1  0  0  0  0  0  0  0  0  0
   19.5513  -17.2072  -13.2744 C   0  0  0  0  0  0  0  0  0  0  0  0
   20.6367  -19.2377  -14.2219 C   0  0  2  0  0  0  0  0  0  0  0  0
   21.0642  -19.6796  -12.9098 N   0  0  0  0  0  0  0  0  0  0  0  0
   21.7063  -18.4942  -14.9282 C   0  0  0  0  0  0  0  0  0  0  0  0
   22.4767  -17.7536  -14.2558 O   0  0  0  0  0  0  0  0  0  0  0  0
   21.9093  -18.5728  -16.3286 N   0  0  0  0  0  0  0  0  0  0  0  0
   23.0042  -17.8793  -16.9241 C   0  0  1  0  0  0  0  0  0  0  0  0
   23.8990  -18.7782  -17.7463 C   0  0  0  0  0  0  0  0  0  0  0  0
   25.1198  -18.0913  -18.2588 C   0  0  0  0  0  0  0  0  0  0  0  0
   25.8764  -19.0945  -19.1205 C   0  0  0  0  0  0  0  0  0  0  0  0
   27.1917  -18.5271  -19.6034 C   0  0  0  0  0  0  0  0  0  0  0  0
   27.8608  -19.5821  -20.3432 N   0  0  0  0  0  0  0  0  0  0  0  0
   22.4902  -16.8421  -17.8562 C   0  0  0  0  0  0  0  0  0  0  0  0
   21.6466  -17.1610  -18.7231 O   0  0  0  0  0  0  0  0  0  0  0  0
   20.7251  -11.2951  -16.5872 N   0  0  0  0  0  0  0  0  0  0  0  0
   20.3764  -12.6095  -16.2240 C   0  0  0  0  0  0  0  0  0  0  0  0
   19.5743  -12.8002  -15.2920 O   0  0  0  0  0  0  0  0  0  0  0  0
   20.9552  -13.7905  -16.9415 C   0  0  0  0  0  0  0  0  0  0  0  0
   21.9270  -13.3602  -17.9927 C   0  0  0  0  0  0  0  0  0  0  0  0
   22.4538  -14.5280  -18.7803 C   0  0  2  0  0  0  0  0  0  0  0  0
   22.9267  -15.5127  -17.7896 N   0  0  0  0  0  0  0  0  0  0  0  0
   23.5582  -14.1397  -19.6627 C   0  0  0  0  0  0  0  0  0  0  0  0
   24.8491  -14.6118  -19.5322 O   0  0  0  0  0  0  0  0  0  0  0  0
   23.3681  -13.3211  -20.6175 O   0  0  0  0  0  0  0  0  0  0  0  0
  2  4  1  0
  2  1  1  1
  3  2  1  0
  4  6  1  0
  4  5  1  1
  6  7  2  0
  8  9  1  0
  8  6  1  0
 10 11  1  0
  9 10  1  6
 11 12  1  0
 12 13  1  0
 13 14  1  0
 15  9  1  0
 15 16  2  0
 17 18  1  0
 18 20  1  0
 19 18  2  0
 20 21  1  0
 22 21  1  1
 22 23  1  0
 22 24  1  0
 23 15  1  0
 24 26  2  0
 24 25  1  0
M  END
$$$$
