VKQ.pdb
     RDKit          3D

 26 25  0  0  1  0  0  0  0  0999 V2000
   23.2088  -20.9970   -8.1512 C   0  0  0  0  0  0  0  0  0  0  0  0
   23.4391  -20.5114   -9.5789 C   0  0  1  0  0  0  0  0  0  0  0  0
   22.9537  -19.0795   -9.6228 C   0  0  0  0  0  0  0  0  0  0  0  0
   24.9337  -20.5741   -9.8342 C   0  0  2  0  0  0  0  0  0  0  0  0
   25.6710  -19.8069   -8.8507 N   0  0  0  0  0  0  0  0  0  0  0  0
   25.2667  -20.1606  -11.2176 C   0  0  0  0  0  0  0  0  0  0  0  0
   25.5120  -18.9432  -11.4452 O   0  0  0  0  0  0  0  0  0  0  0  0
   25.3242  -21.0681  -12.3047 N   0  0  0  0  0  0  0  0  0  0  0  0
   25.6040  -20.5829  -13.6164 C   0  0  1  0  0  0  0  0  0  0  0  0
   26.3779  -21.5690  -14.4611 C   0  0  0  0  0  0  0  0  0  0  0  0
   26.6721  -21.0698  -15.8355 C   0  0  0  0  0  0  0  0  0  0  0  0
   27.5109  -22.1328  -16.5341 C   0  0  0  0  0  0  0  0  0  0  0  0
   27.9795  -21.6628  -17.8922 C   0  0  0  0  0  0  0  0  0  0  0  0
   28.6838  -22.7751  -18.5044 N   0  0  0  0  0  0  0  0  0  0  0  0
   24.3292  -20.3311  -14.3377 C   0  0  0  0  0  0  0  0  0  0  0  0
   23.3734  -21.1242  -14.1882 O   0  0  0  0  0  0  0  0  0  0  0  0
   22.2234  -14.7215  -15.6345 N   0  0  0  0  0  0  0  0  0  0  0  0
   21.2380  -15.5610  -16.1871 C   0  0  0  0  0  0  0  0  0  0  0  0
   20.0755  -15.1399  -16.3263 O   0  0  0  0  0  0  0  0  0  0  0  0
   21.5632  -16.9600  -16.6135 C   0  0  0  0  0  0  0  0  0  0  0  0
   22.8503  -17.4227  -16.0105 C   0  0  0  0  0  0  0  0  0  0  0  0
   22.8393  -18.9005  -15.7321 C   0  0  2  0  0  0  0  0  0  0  0  0
   24.1689  -19.2256  -15.1831 N   0  0  0  0  0  0  0  0  0  0  0  0
   22.5969  -19.6846  -16.9468 C   0  0  0  0  0  0  0  0  0  0  0  0
   23.5739  -19.9877  -17.8742 O   0  0  0  0  0  0  0  0  0  0  0  0
   21.4355  -20.1325  -17.2083 O   0  0  0  0  0  0  0  0  0  0  0  0
  2  4  1  0
  2  1  1  1
  3  2  1  0
  4  6  1  0
  4  5  1  1
  6  7  2  0
  8  9  1  0
  8  6  1  0
 10 11  1  0
  9 10  1  6
 11 12  1  0
 12 13  1  0
 13 14  1  0
 15  9  1  0
 15 16  2  0
 17 18  1  0
 18 20  1  0
 19 18  2  0
 20 21  1  0
 22 21  1  6
 22 23  1  0
 22 24  1  0
 23 15  1  0
 24 26  2  0
 24 25  1  0
M  END
$$$$
