VKQ.pdb
     RDKit          3D

 26 25  0  0  1  0  0  0  0  0999 V2000
   14.2317  -14.2169  -22.3391 C   0  0  0  0  0  0  0  0  0  0  0  0
   14.0994  -14.2662  -20.8201 C   0  0  1  0  0  0  0  0  0  0  0  0
   12.8594  -15.0819  -20.5291 C   0  0  0  0  0  0  0  0  0  0  0  0
   15.3350  -14.9690  -20.2888 C   0  0  2  0  0  0  0  0  0  0  0  0
   15.1067  -16.3909  -20.1280 N   0  0  0  0  0  0  0  0  0  0  0  0
   15.8195  -14.3440  -19.0357 C   0  0  0  0  0  0  0  0  0  0  0  0
   14.9798  -13.8067  -18.2609 O   0  0  0  0  0  0  0  0  0  0  0  0
   17.1861  -14.3188  -18.6607 N   0  0  0  0  0  0  0  0  0  0  0  0
   17.5563  -13.8342  -17.3714 C   0  0  1  0  0  0  0  0  0  0  0  0
   18.6636  -14.6393  -16.7306 C   0  0  0  0  0  0  0  0  0  0  0  0
   18.2644  -16.0378  -16.3996 C   0  0  0  0  0  0  0  0  0  0  0  0
   19.4166  -16.6671  -15.6262 C   0  0  0  0  0  0  0  0  0  0  0  0
   19.1604  -18.1303  -15.3461 C   0  0  0  0  0  0  0  0  0  0  0  0
   20.2714  -18.6074  -14.5423 N   0  0  0  0  0  0  0  0  0  0  0  0
   18.0699  -12.4445  -17.4894 C   0  0  0  0  0  0  0  0  0  0  0  0
   18.7871  -12.1371  -18.4671 O   0  0  0  0  0  0  0  0  0  0  0  0
   15.0677   -7.4077  -15.9969 N   0  0  0  0  0  0  0  0  0  0  0  0
   16.3104   -6.8634  -16.3717 C   0  0  0  0  0  0  0  0  0  0  0  0
   16.4525   -5.6284  -16.4250 O   0  0  0  0  0  0  0  0  0  0  0  0
   17.4723   -7.7468  -16.7096 C   0  0  0  0  0  0  0  0  0  0  0  0
   17.0845   -9.1897  -16.6640 C   0  0  0  0  0  0  0  0  0  0  0  0
   18.2859  -10.0938  -16.6904 C   0  0  2  0  0  0  0  0  0  0  0  0
   17.7712  -11.4667  -16.5317 N   0  0  0  0  0  0  0  0  0  0  0  0
   19.2263   -9.7865  -15.6086 C   0  0  0  0  0  0  0  0  0  0  0  0
   19.4435  -10.6097  -14.5216 O   0  0  0  0  0  0  0  0  0  0  0  0
   19.9037   -8.7101  -15.6247 O   0  0  0  0  0  0  0  0  0  0  0  0
  2  4  1  0
  2  1  1  6
  3  2  1  0
  4  6  1  0
  4  5  1  1
  6  7  2  0
  8  9  1  0
  8  6  1  0
 10 11  1  0
  9 10  1  6
 11 12  1  0
 12 13  1  0
 13 14  1  0
 15  9  1  0
 15 16  2  0
 17 18  1  0
 18 20  1  0
 19 18  2  0
 20 21  1  0
 22 21  1  1
 22 23  1  0
 22 24  1  0
 23 15  1  0
 24 26  2  0
 24 25  1  0
M  END
$$$$
