VKQ.pdb
     RDKit          3D

 26 25  0  0  1  0  0  0  0  0999 V2000
   26.5403  -15.2692  -15.0275 C   0  0  0  0  0  0  0  0  0  0  0  0
   25.4566  -14.3269  -15.5423 C   0  0  1  0  0  0  0  0  0  0  0  0
   25.9460  -13.8065  -16.8755 C   0  0  0  0  0  0  0  0  0  0  0  0
   24.1976  -15.1545  -15.7244 C   0  0  2  0  0  0  0  0  0  0  0  0
   24.4196  -16.2626  -16.6313 N   0  0  0  0  0  0  0  0  0  0  0  0
   23.0524  -14.3158  -16.1496 C   0  0  0  0  0  0  0  0  0  0  0  0
   23.0118  -13.9029  -17.3420 O   0  0  0  0  0  0  0  0  0  0  0  0
   21.9941  -13.9517  -15.2801 N   0  0  0  0  0  0  0  0  0  0  0  0
   20.9233  -13.1462  -15.7689 C   0  0  1  0  0  0  0  0  0  0  0  0
   19.5697  -13.8004  -15.6124 C   0  0  0  0  0  0  0  0  0  0  0  0
   18.4648  -13.0406  -16.2656 C   0  0  0  0  0  0  0  0  0  0  0  0
   17.1799  -13.8290  -16.0444 C   0  0  0  0  0  0  0  0  0  0  0  0
   16.8289  -14.6646  -17.2543 C   0  0  0  0  0  0  0  0  0  0  0  0
   15.5131  -15.2282  -17.0113 N   0  0  0  0  0  0  0  0  0  0  0  0
   20.8614  -11.8772  -14.9978 C   0  0  0  0  0  0  0  0  0  0  0  0
   21.0070  -11.9070  -13.7557 O   0  0  0  0  0  0  0  0  0  0  0  0
   22.5754   -6.3584  -17.1424 N   0  0  0  0  0  0  0  0  0  0  0  0
   22.1426   -6.0381  -15.8419 C   0  0  0  0  0  0  0  0  0  0  0  0
   22.3495   -4.8991  -15.3856 O   0  0  0  0  0  0  0  0  0  0  0  0
   21.4336   -7.0472  -14.9914 C   0  0  0  0  0  0  0  0  0  0  0  0
   21.3268   -8.3636  -15.6915 C   0  0  0  0  0  0  0  0  0  0  0  0
   20.6495   -9.3993  -14.8370 C   0  0  2  0  0  0  0  0  0  0  0  0
   20.6437  -10.6446  -15.6269 N   0  0  0  0  0  0  0  0  0  0  0  0
   19.2750   -9.0171  -14.4998 C   0  0  0  0  0  0  0  0  0  0  0  0
   18.9243   -8.3491  -13.3434 O   0  0  0  0  0  0  0  0  0  0  0  0
   18.3134   -9.2966  -15.2840 O   0  0  0  0  0  0  0  0  0  0  0  0
  2  4  1  0
  2  1  1  6
  3  2  1  0
  4  6  1  0
  4  5  1  6
  6  7  2  0
  8  9  1  0
  8  6  1  0
 10 11  1  0
  9 10  1  1
 11 12  1  0
 12 13  1  0
 13 14  1  0
 15  9  1  0
 15 16  2  0
 17 18  1  0
 18 20  1  0
 19 18  2  0
 20 21  1  0
 22 21  1  6
 22 23  1  0
 22 24  1  0
 23 15  1  0
 24 26  2  0
 24 25  1  0
M  END
$$$$
