VKQ.pdb
     RDKit          3D

 26 25  0  0  1  0  0  0  0  0999 V2000
   27.7173  -19.2114  -11.6131 C   0  0  0  0  0  0  0  0  0  0  0  0
   27.1459  -19.9284  -12.8323 C   0  0  1  0  0  0  0  0  0  0  0  0
   28.1590  -20.9838  -13.2165 C   0  0  0  0  0  0  0  0  0  0  0  0
   25.8435  -20.5750  -12.3979 C   0  0  2  0  0  0  0  0  0  0  0  0
   26.0405  -21.4476  -11.2581 N   0  0  0  0  0  0  0  0  0  0  0  0
   25.1842  -21.2790  -13.5229 C   0  0  0  0  0  0  0  0  0  0  0  0
   24.6584  -20.5935  -14.4436 O   0  0  0  0  0  0  0  0  0  0  0  0
   25.1138  -22.6913  -13.6181 N   0  0  0  0  0  0  0  0  0  0  0  0
   24.5098  -23.2933  -14.7614 C   0  0  1  0  0  0  0  0  0  0  0  0
   25.0293  -24.6846  -15.0430 C   0  0  0  0  0  0  0  0  0  0  0  0
   24.4684  -25.2863  -16.2873 C   0  0  0  0  0  0  0  0  0  0  0  0
   25.1505  -26.6341  -16.4864 C   0  0  0  0  0  0  0  0  0  0  0  0
   24.6620  -27.3208  -17.7414 C   0  0  0  0  0  0  0  0  0  0  0  0
   25.3609  -28.5905  -17.8277 N   0  0  0  0  0  0  0  0  0  0  0  0
   23.0476  -23.4349  -14.5368 C   0  0  0  0  0  0  0  0  0  0  0  0
   22.6076  -23.4680  -13.3662 O   0  0  0  0  0  0  0  0  0  0  0  0
   20.7510  -18.9587  -14.3653 N   0  0  0  0  0  0  0  0  0  0  0  0
   19.5121  -19.6052  -14.5335 C   0  0  0  0  0  0  0  0  0  0  0  0
   18.4563  -18.9770  -14.3366 O   0  0  0  0  0  0  0  0  0  0  0  0
   19.4391  -21.0432  -14.9475 C   0  0  0  0  0  0  0  0  0  0  0  0
   20.8029  -21.6484  -15.0393 C   0  0  0  0  0  0  0  0  0  0  0  0
   20.7470  -23.0984  -15.4338 C   0  0  2  0  0  0  0  0  0  0  0  0
   22.1459  -23.5327  -15.6045 N   0  0  0  0  0  0  0  0  0  0  0  0
   20.0078  -23.2976  -16.6841 C   0  0  0  0  0  0  0  0  0  0  0  0
   18.8038  -23.9684  -16.7670 O   0  0  0  0  0  0  0  0  0  0  0  0
   20.4611  -22.8476  -17.7840 O   0  0  0  0  0  0  0  0  0  0  0  0
  2  4  1  0
  2  1  1  1
  3  2  1  0
  4  6  1  0
  4  5  1  1
  6  7  2  0
  8  9  1  0
  8  6  1  0
 10 11  1  0
  9 10  1  1
 11 12  1  0
 12 13  1  0
 13 14  1  0
 15  9  1  0
 15 16  2  0
 17 18  1  0
 18 20  1  0
 19 18  2  0
 20 21  1  0
 22 21  1  6
 22 23  1  0
 22 24  1  0
 23 15  1  0
 24 26  2  0
 24 25  1  0
M  END
$$$$
