VKQ.pdb
     RDKit          3D

 26 25  0  0  1  0  0  0  0  0999 V2000
   20.5332  -20.2219  -16.1959 C   0  0  0  0  0  0  0  0  0  0  0  0
   20.1994  -20.0901  -14.7131 C   0  0  1  0  0  0  0  0  0  0  0  0
   18.7724  -20.5664  -14.5562 C   0  0  0  0  0  0  0  0  0  0  0  0
   21.1502  -21.0027  -13.9606 C   0  0  2  0  0  0  0  0  0  0  0  0
   20.8670  -21.0056  -12.5396 N   0  0  0  0  0  0  0  0  0  0  0  0
   22.5652  -20.6624  -14.2393 C   0  0  0  0  0  0  0  0  0  0  0  0
   23.0527  -19.6198  -13.7203 O   0  0  0  0  0  0  0  0  0  0  0  0
   23.4040  -21.4529  -15.0641 N   0  0  0  0  0  0  0  0  0  0  0  0
   24.7104  -20.9870  -15.3965 C   0  0  1  0  0  0  0  0  0  0  0  0
   25.6276  -22.0874  -15.8790 C   0  0  0  0  0  0  0  0  0  0  0  0
   27.0356  -21.6392  -16.0822 C   0  0  0  0  0  0  0  0  0  0  0  0
   27.8195  -22.8334  -16.6121 C   0  0  0  0  0  0  0  0  0  0  0  0
   29.2836  -22.5001  -16.7868 C   0  0  0  0  0  0  0  0  0  0  0  0
   29.9545  -23.7301  -17.1675 N   0  0  0  0  0  0  0  0  0  0  0  0
   24.6218  -20.0047  -16.5083 C   0  0  0  0  0  0  0  0  0  0  0  0
   23.4978  -19.6053  -16.8852 O   0  0  0  0  0  0  0  0  0  0  0  0
   26.5266  -15.4249  -14.9095 N   0  0  0  0  0  0  0  0  0  0  0  0
   26.0269  -14.9075  -16.1194 C   0  0  0  0  0  0  0  0  0  0  0  0
   26.1327  -13.6916  -16.3612 O   0  0  0  0  0  0  0  0  0  0  0  0
   25.3664  -15.7972  -17.1277 C   0  0  0  0  0  0  0  0  0  0  0  0
   25.3480  -17.2181  -16.6639 C   0  0  0  0  0  0  0  0  0  0  0  0
   25.7558  -18.1690  -17.7552 C   0  0  2  0  0  0  0  0  0  0  0  0
   25.7672  -19.5126  -17.1473 N   0  0  0  0  0  0  0  0  0  0  0  0
   27.0841  -17.8528  -18.2888 C   0  0  0  0  0  0  0  0  0  0  0  0
   27.3071  -16.9558  -19.3146 O   0  0  0  0  0  0  0  0  0  0  0  0
   28.1233  -18.4124  -17.8149 O   0  0  0  0  0  0  0  0  0  0  0  0
  2  4  1  0
  2  1  1  6
  3  2  1  0
  4  6  1  0
  4  5  1  1
  6  7  2  0
  8  9  1  0
  8  6  1  0
 10 11  1  0
  9 10  1  6
 11 12  1  0
 12 13  1  0
 13 14  1  0
 15  9  1  0
 15 16  2  0
 17 18  1  0
 18 20  1  0
 19 18  2  0
 20 21  1  0
 22 21  1  1
 22 23  1  0
 22 24  1  0
 23 15  1  0
 24 26  2  0
 24 25  1  0
M  END
$$$$
