GTF.pdb
     RDKit          3D

 23 23  0  0  1  0  0  0  0  0999 V2000
   16.1487  -18.0841  -15.2883 N   0  0  0  0  0  0  0  0  0  0  0  0
   14.8164  -17.7307  -14.9074 C   0  0  0  0  0  0  0  0  0  0  0  0
   14.6845  -16.2511  -14.6692 C   0  0  0  0  0  0  0  0  0  0  0  0
   15.7033  -15.5470  -14.6830 O   0  0  0  0  0  0  0  0  0  0  0  0
   13.8274  -13.8120  -16.5363 C   0  0  0  0  0  0  0  0  0  0  0  0
   12.6817  -13.6943  -15.5228 C   0  0  1  0  0  0  0  0  0  0  0  0
   11.5431  -14.3255  -15.9610 O   0  0  0  0  0  0  0  0  0  0  0  0
   13.2230  -14.2423  -14.2191 C   0  0  2  0  0  0  0  0  0  0  0  0
   13.4034  -15.6822  -14.4330 N   0  0  0  0  0  0  0  0  0  0  0  0
   12.1958  -14.0220  -13.1411 C   0  0  0  0  0  0  0  0  0  0  0  0
   11.3938  -14.9456  -12.8540 O   0  0  0  0  0  0  0  0  0  0  0  0
   12.1227  -12.8006  -12.4539 N   0  0  0  0  0  0  0  0  0  0  0  0
   11.0886  -12.4895  -11.4562 C   0  0  1  0  0  0  0  0  0  0  0  0
   11.7501  -11.6634  -10.4202 C   0  0  0  0  0  0  0  0  0  0  0  0
   10.9189  -11.1056   -9.3678 C   0  0  0  0  0  0  0  0  0  0  0  0
   10.7365   -9.7353   -9.3254 C   0  0  0  0  0  0  0  0  0  0  0  0
    9.9624   -9.1065   -8.3694 C   0  0  0  0  0  0  0  0  0  0  0  0
    9.3461   -9.8758   -7.4178 C   0  0  0  0  0  0  0  0  0  0  0  0
    9.5039  -11.2374   -7.4279 C   0  0  0  0  0  0  0  0  0  0  0  0
   10.2791  -11.8368   -8.3900 C   0  0  0  0  0  0  0  0  0  0  0  0
    9.9909  -11.7212  -12.0858 C   0  0  0  0  0  0  0  0  0  0  0  0
    8.6614  -11.8549  -11.7277 O   0  0  0  0  0  0  0  0  0  0  0  0
   10.2769  -10.9045  -12.9935 O   0  0  0  0  0  0  0  0  0  0  0  0
  2  1  1  0
  3  2  1  0
  3  9  1  0
  4  3  2  0
  6  8  1  0
  6  5  1  6
  7  6  1  0
  8  9  1  6
  8 10  1  0
 10 12  1  0
 11 10  2  0
 12 13  1  0
 13 14  1  1
 14 15  1  0
 15 16  2  0
 15 20  1  0
 16 17  1  0
 17 18  2  0
 19 18  1  0
 20 19  2  0
 21 13  1  0
 21 22  1  0
 23 21  2  0
M  END
$$$$
