GTF.pdb
     RDKit          3D

 23 23  0  0  1  0  0  0  0  0999 V2000
   20.6413  -15.2088  -16.9626 N   0  0  0  0  0  0  0  0  0  0  0  0
   22.0271  -15.4423  -16.6978 C   0  0  0  0  0  0  0  0  0  0  0  0
   22.2450  -16.7730  -16.0307 C   0  0  0  0  0  0  0  0  0  0  0  0
   21.9582  -16.8986  -14.8324 O   0  0  0  0  0  0  0  0  0  0  0  0
   22.9430  -21.5649  -16.6121 C   0  0  0  0  0  0  0  0  0  0  0  0
   22.5571  -20.1957  -17.1864 C   0  0  1  0  0  0  0  0  0  0  0  0
   21.2182  -20.1240  -17.4846 O   0  0  0  0  0  0  0  0  0  0  0  0
   23.0132  -19.1741  -16.1659 C   0  0  2  0  0  0  0  0  0  0  0  0
   22.7729  -17.8621  -16.7762 N   0  0  0  0  0  0  0  0  0  0  0  0
   24.4892  -19.3537  -15.9317 C   0  0  0  0  0  0  0  0  0  0  0  0
   25.3027  -19.0107  -16.8257 O   0  0  0  0  0  0  0  0  0  0  0  0
   24.9673  -19.8984  -14.7300 N   0  0  0  0  0  0  0  0  0  0  0  0
   26.3944  -20.1013  -14.4402 C   0  0  1  0  0  0  0  0  0  0  0  0
   26.6388  -19.4816  -13.1174 C   0  0  0  0  0  0  0  0  0  0  0  0
   25.8134  -19.9166  -12.0042 C   0  0  0  0  0  0  0  0  0  0  0  0
   26.4308  -20.4920  -10.9085 C   0  0  0  0  0  0  0  0  0  0  0  0
   25.7379  -20.9345   -9.7982 C   0  0  0  0  0  0  0  0  0  0  0  0
   24.3748  -20.7974   -9.7809 C   0  0  0  0  0  0  0  0  0  0  0  0
   23.7281  -20.2318  -10.8491 C   0  0  0  0  0  0  0  0  0  0  0  0
   24.4415  -19.8004  -11.9402 C   0  0  0  0  0  0  0  0  0  0  0  0
   26.6993  -21.5488  -14.3807 C   0  0  0  0  0  0  0  0  0  0  0  0
   27.9834  -22.0614  -14.4210 O   0  0  0  0  0  0  0  0  0  0  0  0
   25.7451  -22.3574  -14.2895 O   0  0  0  0  0  0  0  0  0  0  0  0
  2  1  1  0
  3  2  1  0
  3  9  1  0
  4  3  2  0
  6  8  1  0
  6  5  1  1
  7  6  1  0
  8  9  1  6
  8 10  1  0
 10 12  1  0
 11 10  2  0
 12 13  1  0
 13 14  1  1
 14 15  1  0
 15 16  2  0
 15 20  1  0
 16 17  1  0
 17 18  2  0
 19 18  1  0
 20 19  2  0
 21 13  1  0
 21 22  1  0
 23 21  2  0
M  END
$$$$
