GTF.pdb
     RDKit          3D

 23 23  0  0  1  0  0  0  0  0999 V2000
   28.3834  -20.3915  -16.4423 N   0  0  0  0  0  0  0  0  0  0  0  0
   27.7700  -21.1783  -15.4177 C   0  0  0  0  0  0  0  0  0  0  0  0
   27.0845  -20.3144  -14.3944 C   0  0  0  0  0  0  0  0  0  0  0  0
   26.6353  -19.2136  -14.7411 O   0  0  0  0  0  0  0  0  0  0  0  0
   24.4965  -20.0121  -14.0227 C   0  0  0  0  0  0  0  0  0  0  0  0
   24.6312  -20.5846  -12.6057 C   0  0  1  0  0  0  0  0  0  0  0  0
   24.4214  -21.9418  -12.5793 O   0  0  0  0  0  0  0  0  0  0  0  0
   26.0026  -20.1669  -12.1181 C   0  0  2  0  0  0  0  0  0  0  0  0
   26.9609  -20.7670  -13.0525 N   0  0  0  0  0  0  0  0  0  0  0  0
   26.2194  -20.7398  -10.7431 C   0  0  0  0  0  0  0  0  0  0  0  0
   26.4881  -21.9608  -10.6180 O   0  0  0  0  0  0  0  0  0  0  0  0
   26.1256  -19.9291   -9.6015 N   0  0  0  0  0  0  0  0  0  0  0  0
   26.3524  -20.4204   -8.2344 C   0  0  1  0  0  0  0  0  0  0  0  0
   26.7462  -19.2396   -7.4318 C   0  0  0  0  0  0  0  0  0  0  0  0
   27.6092  -19.4596   -6.2844 C   0  0  0  0  0  0  0  0  0  0  0  0
   28.9765  -19.5126   -6.4859 C   0  0  0  0  0  0  0  0  0  0  0  0
   29.8826  -19.7126   -5.4624 C   0  0  0  0  0  0  0  0  0  0  0  0
   29.4053  -19.8659   -4.1874 C   0  0  0  0  0  0  0  0  0  0  0  0
   28.0562  -19.8193   -3.9492 C   0  0  0  0  0  0  0  0  0  0  0  0
   27.1774  -19.6191   -4.9852 C   0  0  0  0  0  0  0  0  0  0  0  0
   25.1048  -21.0035   -7.6912 C   0  0  0  0  0  0  0  0  0  0  0  0
   25.0776  -21.9232   -6.6584 O   0  0  0  0  0  0  0  0  0  0  0  0
   24.0113  -20.6478   -8.1918 O   0  0  0  0  0  0  0  0  0  0  0  0
  2  1  1  0
  3  2  1  0
  3  9  1  0
  4  3  2  0
  6  8  1  0
  6  5  1  6
  7  6  1  0
  8  9  1  6
  8 10  1  0
 10 12  1  0
 11 10  2  0
 12 13  1  0
 13 14  1  1
 14 15  1  0
 15 16  2  0
 15 20  1  0
 16 17  1  0
 17 18  2  0
 19 18  1  0
 20 19  2  0
 21 13  1  0
 21 22  1  0
 23 21  2  0
M  END
$$$$
