GTF.pdb
     RDKit          3D

 23 23  0  0  1  0  0  0  0  0999 V2000
   15.5711   -8.5458   -9.3600 N   0  0  0  0  0  0  0  0  0  0  0  0
   15.9487   -7.3396  -10.0290 C   0  0  0  0  0  0  0  0  0  0  0  0
   16.4754   -7.6166  -11.4108 C   0  0  0  0  0  0  0  0  0  0  0  0
   16.7119   -8.7867  -11.7404 O   0  0  0  0  0  0  0  0  0  0  0  0
   16.6365   -6.4339  -16.0256 C   0  0  0  0  0  0  0  0  0  0  0  0
   16.0942   -6.2644  -14.6006 C   0  0  1  0  0  0  0  0  0  0  0  0
   14.8890   -6.9015  -14.4319 O   0  0  0  0  0  0  0  0  0  0  0  0
   17.1862   -6.7650  -13.6787 C   0  0  2  0  0  0  0  0  0  0  0  0
   16.6939   -6.5418  -12.3151 N   0  0  0  0  0  0  0  0  0  0  0  0
   18.4235   -5.9382  -13.9050 C   0  0  0  0  0  0  0  0  0  0  0  0
   18.4245   -4.7253  -13.5770 O   0  0  0  0  0  0  0  0  0  0  0  0
   19.5736   -6.5037  -14.4766 N   0  0  0  0  0  0  0  0  0  0  0  0
   20.8235   -5.7603  -14.6936 C   0  0  1  0  0  0  0  0  0  0  0  0
   21.8676   -6.4754  -13.9242 C   0  0  0  0  0  0  0  0  0  0  0  0
   21.6162   -6.7270  -12.5159 C   0  0  0  0  0  0  0  0  0  0  0  0
   21.6153   -8.0354  -12.0678 C   0  0  0  0  0  0  0  0  0  0  0  0
   21.3915   -8.3810  -10.7490 C   0  0  0  0  0  0  0  0  0  0  0  0
   21.1593   -7.3812   -9.8416 C   0  0  0  0  0  0  0  0  0  0  0  0
   21.1524   -6.0723  -10.2490 C   0  0  0  0  0  0  0  0  0  0  0  0
   21.3779   -5.7567  -11.5663 C   0  0  0  0  0  0  0  0  0  0  0  0
   21.1710   -5.7611  -16.1326 C   0  0  0  0  0  0  0  0  0  0  0  0
   22.1673   -4.9718  -16.6785 O   0  0  0  0  0  0  0  0  0  0  0  0
   20.5300   -6.5159  -16.9020 O   0  0  0  0  0  0  0  0  0  0  0  0
  2  1  1  0
  3  2  1  0
  3  9  1  0
  4  3  2  0
  6  8  1  0
  6  5  1  6
  7  6  1  0
  8  9  1  1
  8 10  1  0
 10 12  1  0
 11 10  2  0
 12 13  1  0
 13 14  1  1
 14 15  1  0
 15 16  2  0
 15 20  1  0
 16 17  1  0
 17 18  2  0
 19 18  1  0
 20 19  2  0
 21 13  1  0
 21 22  1  0
 23 21  2  0
M  END
$$$$
