GTF.pdb
     RDKit          3D

 23 23  0  0  1  0  0  0  0  0999 V2000
   28.3405  -20.5771  -16.2318 N   0  0  0  0  0  0  0  0  0  0  0  0
   28.0083  -21.2702  -15.0259 C   0  0  0  0  0  0  0  0  0  0  0  0
   27.3350  -20.3609  -14.0343 C   0  0  0  0  0  0  0  0  0  0  0  0
   26.9228  -19.2568  -14.4148 O   0  0  0  0  0  0  0  0  0  0  0  0
   24.8212  -19.7524  -13.7452 C   0  0  0  0  0  0  0  0  0  0  0  0
   24.8459  -20.4390  -12.3735 C   0  0  1  0  0  0  0  0  0  0  0  0
   24.5608  -21.7794  -12.4662 O   0  0  0  0  0  0  0  0  0  0  0  0
   26.2092  -20.1416  -11.7852 C   0  0  2  0  0  0  0  0  0  0  0  0
   27.1807  -20.7751  -12.6832 N   0  0  0  0  0  0  0  0  0  0  0  0
   26.2958  -20.7800  -10.4247 C   0  0  0  0  0  0  0  0  0  0  0  0
   26.6302  -21.9873  -10.3291 O   0  0  0  0  0  0  0  0  0  0  0  0
   26.0084  -20.0452   -9.2642 N   0  0  0  0  0  0  0  0  0  0  0  0
   26.0888  -20.6046   -7.9069 C   0  0  1  0  0  0  0  0  0  0  0  0
   26.3796  -19.4644   -7.0074 C   0  0  0  0  0  0  0  0  0  0  0  0
   27.5470  -19.5616   -6.1487 C   0  0  0  0  0  0  0  0  0  0  0  0
   27.4980  -20.4130   -5.0599 C   0  0  0  0  0  0  0  0  0  0  0  0
   28.5543  -20.5809   -4.1854 C   0  0  0  0  0  0  0  0  0  0  0  0
   29.7050  -19.8708   -4.4063 C   0  0  0  0  0  0  0  0  0  0  0  0
   29.7903  -19.0171   -5.4753 C   0  0  0  0  0  0  0  0  0  0  0  0
   28.7251  -18.8692   -6.3292 C   0  0  0  0  0  0  0  0  0  0  0  0
   24.7952  -21.2208   -7.5345 C   0  0  0  0  0  0  0  0  0  0  0  0
   24.6598  -22.1694   -6.5369 O   0  0  0  0  0  0  0  0  0  0  0  0
   23.7642  -20.8672   -8.1547 O   0  0  0  0  0  0  0  0  0  0  0  0
  2  1  1  0
  3  2  1  0
  3  9  1  0
  4  3  2  0
  6  8  1  0
  6  5  1  6
  7  6  1  0
  8  9  1  6
  8 10  1  0
 10 12  1  0
 11 10  2  0
 12 13  1  0
 13 14  1  1
 14 15  1  0
 15 16  2  0
 15 20  1  0
 16 17  1  0
 17 18  2  0
 19 18  1  0
 20 19  2  0
 21 13  1  0
 21 22  1  0
 23 21  2  0
M  END
$$$$
