GTF.pdb
     RDKit          3D

 23 23  0  0  1  0  0  0  0  0999 V2000
   29.7418  -21.9143  -17.6279 N   0  0  0  0  0  0  0  0  0  0  0  0
   28.8541  -22.4925  -16.6674 C   0  0  0  0  0  0  0  0  0  0  0  0
   27.9820  -21.4492  -16.0236 C   0  0  0  0  0  0  0  0  0  0  0  0
   27.8776  -20.3383  -16.5609 O   0  0  0  0  0  0  0  0  0  0  0  0
   24.8721  -22.7923  -15.2771 C   0  0  0  0  0  0  0  0  0  0  0  0
   25.0132  -21.2648  -15.2938 C   0  0  1  0  0  0  0  0  0  0  0  0
   23.8348  -20.6378  -14.9700 O   0  0  0  0  0  0  0  0  0  0  0  0
   26.1566  -20.9434  -14.3545 C   0  0  2  0  0  0  0  0  0  0  0  0
   27.2935  -21.7472  -14.8162 N   0  0  0  0  0  0  0  0  0  0  0  0
   25.7724  -21.3734  -12.9640 C   0  0  0  0  0  0  0  0  0  0  0  0
   25.7713  -22.5958  -12.6736 O   0  0  0  0  0  0  0  0  0  0  0  0
   25.4162  -20.4281  -11.9899 N   0  0  0  0  0  0  0  0  0  0  0  0
   25.0968  -20.7761  -10.5976 C   0  0  1  0  0  0  0  0  0  0  0  0
   25.6904  -19.7092   -9.7592 C   0  0  0  0  0  0  0  0  0  0  0  0
   26.8602  -20.0449   -8.9663 C   0  0  0  0  0  0  0  0  0  0  0  0
   27.8927  -20.7380   -9.5715 C   0  0  0  0  0  0  0  0  0  0  0  0
   29.0486  -21.1011   -8.9077 C   0  0  0  0  0  0  0  0  0  0  0  0
   29.1792  -20.7589   -7.5875 C   0  0  0  0  0  0  0  0  0  0  0  0
   28.1764  -20.0718   -6.9540 C   0  0  0  0  0  0  0  0  0  0  0  0
   27.0377  -19.7232   -7.6377 C   0  0  0  0  0  0  0  0  0  0  0  0
   23.6292  -20.8071  -10.4061 C   0  0  0  0  0  0  0  0  0  0  0  0
   23.0065  -21.4988   -9.3826 O   0  0  0  0  0  0  0  0  0  0  0  0
   22.9075  -20.1742  -11.2132 O   0  0  0  0  0  0  0  0  0  0  0  0
  2  1  1  0
  3  2  1  0
  3  9  1  0
  4  3  2  0
  6  8  1  0
  6  5  1  1
  7  6  1  0
  8  9  1  6
  8 10  1  0
 10 12  1  0
 11 10  2  0
 12 13  1  0
 13 14  1  1
 14 15  1  0
 15 16  2  0
 15 20  1  0
 16 17  1  0
 17 18  2  0
 19 18  1  0
 20 19  2  0
 21 13  1  0
 21 22  1  0
 23 21  2  0
M  END
$$$$
