GTF.pdb
     RDKit          3D

 23 23  0  0  1  0  0  0  0  0999 V2000
   29.9170  -22.1798  -17.0406 N   0  0  0  0  0  0  0  0  0  0  0  0
   28.6022  -21.6436  -16.8713 C   0  0  0  0  0  0  0  0  0  0  0  0
   28.5058  -20.8001  -15.6293 C   0  0  0  0  0  0  0  0  0  0  0  0
   29.2773  -19.8410  -15.4929 O   0  0  0  0  0  0  0  0  0  0  0  0
   27.5413  -18.3896  -15.2723 C   0  0  0  0  0  0  0  0  0  0  0  0
   26.4524  -19.0083  -14.3862 C   0  0  1  0  0  0  0  0  0  0  0  0
   25.3622  -19.4096  -15.1191 O   0  0  0  0  0  0  0  0  0  0  0  0
   27.1254  -20.1305  -13.6242 C   0  0  2  0  0  0  0  0  0  0  0  0
   27.5388  -21.1103  -14.6346 N   0  0  0  0  0  0  0  0  0  0  0  0
   26.1155  -20.7593  -12.7020 C   0  0  0  0  0  0  0  0  0  0  0  0
   25.5601  -21.8357  -13.0359 O   0  0  0  0  0  0  0  0  0  0  0  0
   25.7870  -20.1597  -11.4765 N   0  0  0  0  0  0  0  0  0  0  0  0
   24.8751  -20.7640  -10.4941 C   0  0  1  0  0  0  0  0  0  0  0  0
   25.1932  -20.1323   -9.1929 C   0  0  0  0  0  0  0  0  0  0  0  0
   26.5543  -20.2493   -8.6995 C   0  0  0  0  0  0  0  0  0  0  0  0
   27.0217  -19.2937   -7.8156 C   0  0  0  0  0  0  0  0  0  0  0  0
   28.2971  -19.3164   -7.2852 C   0  0  0  0  0  0  0  0  0  0  0  0
   29.1396  -20.3329   -7.6516 C   0  0  0  0  0  0  0  0  0  0  0  0
   28.7113  -21.2980   -8.5257 C   0  0  0  0  0  0  0  0  0  0  0  0
   27.4381  -21.2514   -9.0380 C   0  0  0  0  0  0  0  0  0  0  0  0
   23.4703  -20.4764  -10.8619 C   0  0  0  0  0  0  0  0  0  0  0  0
   22.3860  -21.1353  -10.3107 O   0  0  0  0  0  0  0  0  0  0  0  0
   23.2464  -19.5891  -11.7193 O   0  0  0  0  0  0  0  0  0  0  0  0
  2  1  1  0
  3  2  1  0
  3  9  1  0
  4  3  2  0
  6  8  1  0
  6  5  1  6
  7  6  1  0
  8  9  1  6
  8 10  1  0
 10 12  1  0
 11 10  2  0
 12 13  1  0
 13 14  1  1
 14 15  1  0
 15 16  2  0
 15 20  1  0
 16 17  1  0
 17 18  2  0
 19 18  1  0
 20 19  2  0
 21 13  1  0
 21 22  1  0
 23 21  2  0
M  END
$$$$
