GTF.pdb
     RDKit          3D

 23 23  0  0  1  0  0  0  0  0999 V2000
   25.0812  -12.3351  -19.9530 N   0  0  0  0  0  0  0  0  0  0  0  0
   24.1640  -11.2550  -19.7595 C   0  0  0  0  0  0  0  0  0  0  0  0
   24.5498  -10.4084  -18.5773 C   0  0  0  0  0  0  0  0  0  0  0  0
   25.5832  -10.6836  -17.9527 O   0  0  0  0  0  0  0  0  0  0  0  0
   26.4386   -8.9225  -17.8742 C   0  0  0  0  0  0  0  0  0  0  0  0
   25.4655   -7.7423  -17.7564 C   0  0  1  0  0  0  0  0  0  0  0  0
   25.3146   -7.0814  -18.9511 O   0  0  0  0  0  0  0  0  0  0  0  0
   24.1773   -8.3198  -17.2087 C   0  0  2  0  0  0  0  0  0  0  0  0
   23.7313   -9.3114  -18.1933 N   0  0  0  0  0  0  0  0  0  0  0  0
   23.1577   -7.2166  -17.1133 C   0  0  0  0  0  0  0  0  0  0  0  0
   22.4855   -6.9071  -18.1287 O   0  0  0  0  0  0  0  0  0  0  0  0
   22.9486   -6.5308  -15.9069 N   0  0  0  0  0  0  0  0  0  0  0  0
   21.9418   -5.4728  -15.7369 C   0  0  1  0  0  0  0  0  0  0  0  0
   20.6257   -6.1520  -15.7372 C   0  0  0  0  0  0  0  0  0  0  0  0
   20.3792   -7.1487  -14.7098 C   0  0  0  0  0  0  0  0  0  0  0  0
   20.4429   -8.4859  -15.0570 C   0  0  0  0  0  0  0  0  0  0  0  0
   20.2292   -9.5105  -14.1552 C   0  0  0  0  0  0  0  0  0  0  0  0
   19.9404   -9.1876  -12.8554 C   0  0  0  0  0  0  0  0  0  0  0  0
   19.8687   -7.8728  -12.4743 C   0  0  0  0  0  0  0  0  0  0  0  0
   20.0856   -6.8740  -13.3914 C   0  0  0  0  0  0  0  0  0  0  0  0
   22.1484   -4.7785  -14.4459 C   0  0  0  0  0  0  0  0  0  0  0  0
   21.4219   -3.6699  -14.0497 O   0  0  0  0  0  0  0  0  0  0  0  0
   23.0287   -5.2148  -13.6666 O   0  0  0  0  0  0  0  0  0  0  0  0
  2  1  1  0
  3  2  1  0
  3  9  1  0
  4  3  2  0
  6  8  1  0
  6  5  1  6
  7  6  1  0
  8  9  1  6
  8 10  1  0
 10 12  1  0
 11 10  2  0
 12 13  1  0
 13 14  1  1
 14 15  1  0
 15 16  2  0
 15 20  1  0
 16 17  1  0
 17 18  2  0
 19 18  1  0
 20 19  2  0
 21 13  1  0
 21 22  1  0
 23 21  2  0
M  END
$$$$
