SHS.pdb
     RDKit          3D

 23 23  0  0  1  0  0  0  0  0999 V2000
   21.9859  -12.7633  -20.1612 O   0  0  0  0  0  0  0  0  0  0  0  0
   22.0670  -11.7698  -19.1875 C   0  0  0  0  0  0  0  0  0  0  0  0
   22.3828  -12.3768  -17.8358 C   0  0  2  0  0  0  0  0  0  0  0  0
   21.1887  -12.9424  -17.3041 N   0  0  0  0  0  0  0  0  0  0  0  0
   22.9752  -11.3285  -16.9693 C   0  0  0  0  0  0  0  0  0  0  0  0
   23.1854  -11.5660  -15.7523 O   0  0  0  0  0  0  0  0  0  0  0  0
   23.3281  -10.0399  -17.4437 N   0  0  0  0  0  0  0  0  0  0  0  0
   24.0207   -9.0510  -16.6404 C   0  0  1  0  0  0  0  0  0  0  0  0
   25.4313   -8.8237  -17.1479 C   0  0  0  0  0  0  0  0  0  0  0  0
   26.3136   -9.9781  -16.8757 C   0  0  0  0  0  0  0  0  0  0  0  0
   27.0636  -10.1595  -15.7315 C   0  0  0  0  0  0  0  0  0  0  0  0
   27.7522  -11.3251  -15.8210 N   0  0  0  0  0  0  0  0  0  0  0  0
   27.4439  -11.8715  -17.0000 C   0  0  0  0  0  0  0  0  0  0  0  0
   26.5753  -11.0590  -17.6378 N   0  0  0  0  0  0  0  0  0  0  0  0
   23.3265   -7.7208  -16.7223 C   0  0  0  0  0  0  0  0  0  0  0  0
   22.7290   -7.4421  -17.7937 O   0  0  0  0  0  0  0  0  0  0  0  0
   21.4783   -3.8756  -14.4916 O   0  0  0  0  0  0  0  0  0  0  0  0
   22.1484   -5.0838  -14.4189 C   0  0  0  0  0  0  0  0  0  0  0  0
   22.5757   -5.5581  -15.8119 C   0  0  2  0  0  0  0  0  0  0  0  0
   23.3189   -6.7951  -15.6704 N   0  0  0  0  0  0  0  0  0  0  0  0
   23.3706   -4.5447  -16.5048 C   0  0  0  0  0  0  0  0  0  0  0  0
   22.7685   -3.6085  -17.3175 O   0  0  0  0  0  0  0  0  0  0  0  0
   24.6166   -4.5127  -16.3690 O   0  0  0  0  0  0  0  0  0  0  0  0
  1  2  1  0
  2  3  1  0
  3  4  1  1
  5  3  1  0
  6  5  2  0
  7  5  1  0
  8  7  1  0
  8  9  1  6
 10  9  1  0
 10 11  2  0
 12 11  1  0
 13 12  1  0
 14 13  2  0
 14 10  1  0
 15  8  1  0
 16 15  2  0
 19 18  1  1
 18 17  1  0
 19 20  1  0
 20 15  1  0
 21 22  1  0
 21 19  1  0
 23 21  2  0
M  END
$$$$
