SHS.pdb
     RDKit          3D

 23 23  0  0  1  0  0  0  0  0999 V2000
   18.7415   -8.9218  -19.0942 O   0  0  0  0  0  0  0  0  0  0  0  0
   18.8052   -8.3727  -17.8152 C   0  0  0  0  0  0  0  0  0  0  0  0
   18.9649   -6.8681  -17.8914 C   0  0  2  0  0  0  0  0  0  0  0  0
   19.8909   -6.5638  -18.9300 N   0  0  0  0  0  0  0  0  0  0  0  0
   19.3855   -6.3654  -16.5607 C   0  0  0  0  0  0  0  0  0  0  0  0
   18.6425   -6.5397  -15.5611 O   0  0  0  0  0  0  0  0  0  0  0  0
   20.6081   -5.6816  -16.3422 N   0  0  0  0  0  0  0  0  0  0  0  0
   21.0021   -5.1324  -15.0592 C   0  0  1  0  0  0  0  0  0  0  0  0
   22.2999   -5.7491  -14.5749 C   0  0  0  0  0  0  0  0  0  0  0  0
   22.1396   -7.1745  -14.2177 C   0  0  0  0  0  0  0  0  0  0  0  0
   20.9667   -7.8957  -14.3113 C   0  0  0  0  0  0  0  0  0  0  0  0
   21.1846   -9.1704  -13.9010 N   0  0  0  0  0  0  0  0  0  0  0  0
   22.4715   -9.2548  -13.5541 C   0  0  0  0  0  0  0  0  0  0  0  0
   23.0492   -8.0501  -13.7449 N   0  0  0  0  0  0  0  0  0  0  0  0
   21.2558   -3.6555  -15.1700 C   0  0  0  0  0  0  0  0  0  0  0  0
   21.9796   -3.2597  -16.1197 O   0  0  0  0  0  0  0  0  0  0  0  0
   19.7532    0.1435  -16.3110 O   0  0  0  0  0  0  0  0  0  0  0  0
   19.9101   -1.1856  -15.9604 C   0  0  0  0  0  0  0  0  0  0  0  0
   20.6838   -1.3175  -14.6443 C   0  0  2  0  0  0  0  0  0  0  0  0
   20.7268   -2.7183  -14.2725 N   0  0  0  0  0  0  0  0  0  0  0  0
   20.0813   -0.5112  -13.5831 C   0  0  0  0  0  0  0  0  0  0  0  0
   20.5260    0.7683  -13.3290 O   0  0  0  0  0  0  0  0  0  0  0  0
   19.1475   -0.9743  -12.8862 O   0  0  0  0  0  0  0  0  0  0  0  0
  1  2  1  0
  2  3  1  0
  3  4  1  6
  5  3  1  0
  6  5  2  0
  7  5  1  0
  8  7  1  0
  8  9  1  6
 10  9  1  0
 10 11  2  0
 12 11  1  0
 13 12  1  0
 14 13  2  0
 14 10  1  0
 15  8  1  0
 16 15  2  0
 19 18  1  6
 18 17  1  0
 19 20  1  0
 20 15  1  0
 21 22  1  0
 21 19  1  0
 23 21  2  0
M  END
$$$$
