SHS.pdb
     RDKit          3D

 23 23  0  0  1  0  0  0  0  0999 V2000
   26.0408  -12.9752  -15.8110 O   0  0  0  0  0  0  0  0  0  0  0  0
   25.2217  -11.8929  -16.1266 C   0  0  0  0  0  0  0  0  0  0  0  0
   23.7811  -12.3410  -16.2656 C   0  0  2  0  0  0  0  0  0  0  0  0
   23.6816  -13.1978  -17.3990 N   0  0  0  0  0  0  0  0  0  0  0  0
   22.9151  -11.1401  -16.3566 C   0  0  0  0  0  0  0  0  0  0  0  0
   22.8211  -10.5159  -17.4443 O   0  0  0  0  0  0  0  0  0  0  0  0
   22.1667  -10.6402  -15.2611 N   0  0  0  0  0  0  0  0  0  0  0  0
   21.2754   -9.5000  -15.3520 C   0  0  1  0  0  0  0  0  0  0  0  0
   20.0585   -9.6843  -14.4663 C   0  0  0  0  0  0  0  0  0  0  0  0
   19.0592  -10.5879  -15.0745 C   0  0  0  0  0  0  0  0  0  0  0  0
   19.0896  -11.0569  -16.3721 C   0  0  0  0  0  0  0  0  0  0  0  0
   18.0186  -11.8612  -16.5886 N   0  0  0  0  0  0  0  0  0  0  0  0
   17.3229  -11.9007  -15.4492 C   0  0  0  0  0  0  0  0  0  0  0  0
   17.9503  -11.1322  -14.5342 N   0  0  0  0  0  0  0  0  0  0  0  0
   21.9597   -8.2523  -14.8693 C   0  0  0  0  0  0  0  0  0  0  0  0
   22.7706   -8.3665  -13.9143 O   0  0  0  0  0  0  0  0  0  0  0  0
   23.5732   -3.8600  -15.7851 O   0  0  0  0  0  0  0  0  0  0  0  0
   22.8992   -5.0019  -16.1796 C   0  0  0  0  0  0  0  0  0  0  0  0
   22.5041   -5.8515  -14.9670 C   0  0  2  0  0  0  0  0  0  0  0  0
   21.7339   -6.9888  -15.4315 N   0  0  0  0  0  0  0  0  0  0  0  0
   21.7489   -5.0715  -13.9870 C   0  0  0  0  0  0  0  0  0  0  0  0
   22.3966   -4.3564  -13.0027 O   0  0  0  0  0  0  0  0  0  0  0  0
   20.4962   -5.0418  -14.0281 O   0  0  0  0  0  0  0  0  0  0  0  0
  1  2  1  0
  2  3  1  0
  3  4  1  6
  5  3  1  0
  6  5  2  0
  7  5  1  0
  8  7  1  0
  8  9  1  1
 10  9  1  0
 10 11  2  0
 12 11  1  0
 13 12  1  0
 14 13  2  0
 14 10  1  0
 15  8  1  0
 16 15  2  0
 19 18  1  6
 18 17  1  0
 19 20  1  0
 20 15  1  0
 21 22  1  0
 21 19  1  0
 23 21  2  0
M  END
$$$$
