SHS.pdb
     RDKit          3D

 23 23  0  0  1  0  0  0  0  0999 V2000
   29.2546   -8.5717  -17.6137 O   0  0  0  0  0  0  0  0  0  0  0  0
   27.8747   -8.7652  -17.6026 C   0  0  0  0  0  0  0  0  0  0  0  0
   27.5364  -10.1398  -17.0629 C   0  0  2  0  0  0  0  0  0  0  0  0
   28.1508  -11.1169  -17.8974 N   0  0  0  0  0  0  0  0  0  0  0  0
   26.0609  -10.2725  -16.9878 C   0  0  0  0  0  0  0  0  0  0  0  0
   25.4404  -10.8919  -17.8895 O   0  0  0  0  0  0  0  0  0  0  0  0
   25.2871   -9.7281  -15.9319 N   0  0  0  0  0  0  0  0  0  0  0  0
   23.8433   -9.8396  -15.8551 C   0  0  1  0  0  0  0  0  0  0  0  0
   23.4189  -10.6192  -14.6258 C   0  0  0  0  0  0  0  0  0  0  0  0
   21.9490  -10.7325  -14.5186 C   0  0  0  0  0  0  0  0  0  0  0  0
   21.1178   -9.8130  -13.9117 C   0  0  0  0  0  0  0  0  0  0  0  0
   19.8321  -10.2376  -13.9986 N   0  0  0  0  0  0  0  0  0  0  0  0
   19.8489  -11.4042  -14.6484 C   0  0  0  0  0  0  0  0  0  0  0  0
   21.1266  -11.7042  -14.9629 N   0  0  0  0  0  0  0  0  0  0  0  0
   23.2126   -8.4816  -15.7284 C   0  0  0  0  0  0  0  0  0  0  0  0
   23.7831   -7.6431  -14.9841 O   0  0  0  0  0  0  0  0  0  0  0  0
   22.7277   -5.8944  -18.1422 O   0  0  0  0  0  0  0  0  0  0  0  0
   21.4574   -6.1276  -17.6465 C   0  0  0  0  0  0  0  0  0  0  0  0
   21.5208   -6.7704  -16.2569 C   0  0  2  0  0  0  0  0  0  0  0  0
   22.0347   -8.1192  -16.3953 N   0  0  0  0  0  0  0  0  0  0  0  0
   20.2116   -6.7721  -15.6049 C   0  0  0  0  0  0  0  0  0  0  0  0
   19.8559   -5.7667  -14.7319 O   0  0  0  0  0  0  0  0  0  0  0  0
   19.3904   -7.6920  -15.8315 O   0  0  0  0  0  0  0  0  0  0  0  0
  1  2  1  0
  2  3  1  0
  3  4  1  6
  5  3  1  0
  6  5  2  0
  7  5  1  0
  8  7  1  0
  8  9  1  1
 10  9  1  0
 10 11  2  0
 12 11  1  0
 13 12  1  0
 14 13  2  0
 14 10  1  0
 15  8  1  0
 16 15  2  0
 19 18  1  6
 18 17  1  0
 19 20  1  0
 20 15  1  0
 21 22  1  0
 21 19  1  0
 23 21  2  0
M  END
$$$$
