SHS.pdb
     RDKit          3D

 23 23  0  0  1  0  0  0  0  0999 V2000
   26.2458    1.1413   -9.5948 O   0  0  0  0  0  0  0  0  0  0  0  0
   26.2707    1.8404   -8.3897 C   0  0  0  0  0  0  0  0  0  0  0  0
   25.1897    1.3307   -7.4586 C   0  0  2  0  0  0  0  0  0  0  0  0
   23.9218    1.5856   -8.0555 N   0  0  0  0  0  0  0  0  0  0  0  0
   25.3581    1.9767   -6.1339 C   0  0  0  0  0  0  0  0  0  0  0  0
   24.7236    3.0284   -5.8640 O   0  0  0  0  0  0  0  0  0  0  0  0
   26.2149    1.4657   -5.1265 N   0  0  0  0  0  0  0  0  0  0  0  0
   26.2894    2.0102   -3.7845 C   0  0  1  0  0  0  0  0  0  0  0  0
   26.8439    0.9898   -2.8096 C   0  0  0  0  0  0  0  0  0  0  0  0
   25.7739    0.2153   -2.1461 C   0  0  0  0  0  0  0  0  0  0  0  0
   24.4190    0.4266   -2.3021 C   0  0  0  0  0  0  0  0  0  0  0  0
   23.7312   -0.4656   -1.5459 N   0  0  0  0  0  0  0  0  0  0  0  0
   24.6338   -1.2276   -0.9228 C   0  0  0  0  0  0  0  0  0  0  0  0
   25.8676   -0.8174   -1.2844 N   0  0  0  0  0  0  0  0  0  0  0  0
   27.2263    3.1843   -3.7401 C   0  0  0  0  0  0  0  0  0  0  0  0
   28.2845    3.1093   -4.4162 O   0  0  0  0  0  0  0  0  0  0  0  0
   27.9641    7.7186   -3.9351 O   0  0  0  0  0  0  0  0  0  0  0  0
   27.1466    6.6092   -3.8132 C   0  0  0  0  0  0  0  0  0  0  0  0
   27.8725    5.4707   -3.0884 C   0  0  2  0  0  0  0  0  0  0  0  0
   26.9716    4.3390   -2.9881 N   0  0  0  0  0  0  0  0  0  0  0  0
   28.3413    5.8869   -1.7670 C   0  0  0  0  0  0  0  0  0  0  0  0
   29.4405    6.7075   -1.6336 O   0  0  0  0  0  0  0  0  0  0  0  0
   27.7475    5.5016   -0.7322 O   0  0  0  0  0  0  0  0  0  0  0  0
  1  2  1  0
  2  3  1  0
  3  4  1  6
  5  3  1  0
  6  5  2  0
  7  5  1  0
  8  7  1  0
  8  9  1  1
 10  9  1  0
 10 11  2  0
 12 11  1  0
 13 12  1  0
 14 13  2  0
 14 10  1  0
 15  8  1  0
 16 15  2  0
 19 18  1  1
 18 17  1  0
 19 20  1  0
 20 15  1  0
 21 22  1  0
 21 19  1  0
 23 21  2  0
M  END
$$$$
