SHS.pdb
     RDKit          3D

 23 23  0  0  1  0  0  0  0  0999 V2000
   20.1913  -13.8770  -15.3483 O   0  0  0  0  0  0  0  0  0  0  0  0
   20.5052  -12.6566  -15.9430 C   0  0  0  0  0  0  0  0  0  0  0  0
   19.2942  -12.0851  -16.6516 C   0  0  2  0  0  0  0  0  0  0  0  0
   19.0990  -12.8049  -17.8650 N   0  0  0  0  0  0  0  0  0  0  0  0
   19.5039  -10.6309  -16.8560 C   0  0  0  0  0  0  0  0  0  0  0  0
   20.1068  -10.2224  -17.8814 O   0  0  0  0  0  0  0  0  0  0  0  0
   19.0531   -9.6472  -15.9400 N   0  0  0  0  0  0  0  0  0  0  0  0
   19.1422   -8.2208  -16.1861 C   0  0  1  0  0  0  0  0  0  0  0  0
   17.9645   -7.4854  -15.5767 C   0  0  0  0  0  0  0  0  0  0  0  0
   17.9656   -6.0485  -15.9237 C   0  0  0  0  0  0  0  0  0  0  0  0
   17.9485   -5.0069  -15.0184 C   0  0  0  0  0  0  0  0  0  0  0  0
   17.9554   -3.8260  -15.6863 N   0  0  0  0  0  0  0  0  0  0  0  0
   17.9764   -4.1144  -16.9901 C   0  0  0  0  0  0  0  0  0  0  0  0
   17.9826   -5.4562  -17.1347 N   0  0  0  0  0  0  0  0  0  0  0  0
   20.3729   -7.6475  -15.5420 C   0  0  0  0  0  0  0  0  0  0  0  0
   20.7535   -8.1595  -14.4577 O   0  0  0  0  0  0  0  0  0  0  0  0
   24.5361   -5.3725  -15.9164 O   0  0  0  0  0  0  0  0  0  0  0  0
   23.3672   -5.8330  -16.4955 C   0  0  0  0  0  0  0  0  0  0  0  0
   22.3049   -6.1228  -15.4298 C   0  0  2  0  0  0  0  0  0  0  0  0
   21.1002   -6.5837  -16.0923 N   0  0  0  0  0  0  0  0  0  0  0  0
   22.0331   -4.9446  -14.6070 C   0  0  0  0  0  0  0  0  0  0  0  0
   21.4341   -3.8277  -15.1484 O   0  0  0  0  0  0  0  0  0  0  0  0
   22.3424   -4.9335  -13.3920 O   0  0  0  0  0  0  0  0  0  0  0  0
  1  2  1  0
  2  3  1  0
  3  4  1  6
  5  3  1  0
  6  5  2  0
  7  5  1  0
  8  7  1  0
  8  9  1  1
 10  9  1  0
 10 11  2  0
 12 11  1  0
 13 12  1  0
 14 13  2  0
 14 10  1  0
 15  8  1  0
 16 15  2  0
 19 18  1  6
 18 17  1  0
 19 20  1  0
 20 15  1  0
 21 22  1  0
 21 19  1  0
 23 21  2  0
M  END
$$$$
