SHS.pdb
     RDKit          3D

 23 23  0  0  1  0  0  0  0  0999 V2000
   27.4951  -11.6976  -15.6920 O   0  0  0  0  0  0  0  0  0  0  0  0
   26.5421  -10.7208  -15.9737 C   0  0  0  0  0  0  0  0  0  0  0  0
   25.3675  -11.3246  -16.7160 C   0  0  2  0  0  0  0  0  0  0  0  0
   25.8254  -11.7964  -17.9795 N   0  0  0  0  0  0  0  0  0  0  0  0
   24.2950  -10.3052  -16.8208 C   0  0  0  0  0  0  0  0  0  0  0  0
   24.0948   -9.7159  -17.9137 O   0  0  0  0  0  0  0  0  0  0  0  0
   23.4594   -9.9456  -15.7334 N   0  0  0  0  0  0  0  0  0  0  0  0
   22.3343   -9.0383  -15.8518 C   0  0  1  0  0  0  0  0  0  0  0  0
   21.1300   -9.5573  -15.0907 C   0  0  0  0  0  0  0  0  0  0  0  0
   20.5011  -10.7127  -15.7648 C   0  0  0  0  0  0  0  0  0  0  0  0
   20.1557  -10.7693  -17.0998 C   0  0  0  0  0  0  0  0  0  0  0  0
   19.6022  -11.9773  -17.3738 N   0  0  0  0  0  0  0  0  0  0  0  0
   19.5972  -12.6727  -16.2336 C   0  0  0  0  0  0  0  0  0  0  0  0
   20.1397  -11.9100  -15.2612 N   0  0  0  0  0  0  0  0  0  0  0  0
   22.6657   -7.7015  -15.2508 C   0  0  0  0  0  0  0  0  0  0  0  0
   23.3446   -7.6927  -14.1918 O   0  0  0  0  0  0  0  0  0  0  0  0
   22.6300   -2.8655  -15.6028 O   0  0  0  0  0  0  0  0  0  0  0  0
   22.3193   -4.0906  -16.1654 C   0  0  0  0  0  0  0  0  0  0  0  0
   22.6993   -5.2382  -15.2238 C   0  0  2  0  0  0  0  0  0  0  0  0
   22.2551   -6.4859  -15.8140 N   0  0  0  0  0  0  0  0  0  0  0  0
   22.1241   -5.0539  -13.8917 C   0  0  0  0  0  0  0  0  0  0  0  0
   22.8360   -4.4197  -12.8964 O   0  0  0  0  0  0  0  0  0  0  0  0
   20.9704   -5.4718  -13.6348 O   0  0  0  0  0  0  0  0  0  0  0  0
  1  2  1  0
  2  3  1  0
  3  4  1  6
  5  3  1  0
  6  5  2  0
  7  5  1  0
  8  7  1  0
  8  9  1  1
 10  9  1  0
 10 11  2  0
 12 11  1  0
 13 12  1  0
 14 13  2  0
 14 10  1  0
 15  8  1  0
 16 15  2  0
 19 18  1  6
 18 17  1  0
 19 20  1  0
 20 15  1  0
 21 22  1  0
 21 19  1  0
 23 21  2  0
M  END
$$$$
