SHS.pdb
     RDKit          3D

 23 23  0  0  1  0  0  0  0  0999 V2000
   23.4543  -13.6639  -18.7417 O   0  0  0  0  0  0  0  0  0  0  0  0
   22.5806  -12.5954  -18.5500 C   0  0  0  0  0  0  0  0  0  0  0  0
   21.6018  -12.9041  -17.4356 C   0  0  2  0  0  0  0  0  0  0  0  0
   20.8168  -14.0281  -17.8219 N   0  0  0  0  0  0  0  0  0  0  0  0
   20.7963  -11.6897  -17.1588 C   0  0  0  0  0  0  0  0  0  0  0  0
   19.6599  -11.5584  -17.6814 O   0  0  0  0  0  0  0  0  0  0  0  0
   21.2427  -10.6395  -16.3175 N   0  0  0  0  0  0  0  0  0  0  0  0
   20.4632   -9.4491  -16.0376 C   0  0  1  0  0  0  0  0  0  0  0  0
   19.3217   -9.7531  -15.0870 C   0  0  0  0  0  0  0  0  0  0  0  0
   18.4916   -8.5606  -14.8147 C   0  0  0  0  0  0  0  0  0  0  0  0
   18.7462   -7.2858  -15.2781 C   0  0  0  0  0  0  0  0  0  0  0  0
   17.7807   -6.4415  -14.8356 N   0  0  0  0  0  0  0  0  0  0  0  0
   16.9306   -7.1682  -14.1057 C   0  0  0  0  0  0  0  0  0  0  0  0
   17.3588   -8.4480  -14.0923 N   0  0  0  0  0  0  0  0  0  0  0  0
   21.3087   -8.4093  -15.3580 C   0  0  0  0  0  0  0  0  0  0  0  0
   22.0798   -8.7951  -14.4419 O   0  0  0  0  0  0  0  0  0  0  0  0
   23.1980   -5.5709  -17.1750 O   0  0  0  0  0  0  0  0  0  0  0  0
   22.5612   -5.0340  -16.0704 C   0  0  0  0  0  0  0  0  0  0  0  0
   22.1942   -6.1292  -15.0634 C   0  0  2  0  0  0  0  0  0  0  0  0
   21.2726   -7.0506  -15.6989 N   0  0  0  0  0  0  0  0  0  0  0  0
   21.6158   -5.5663  -13.8436 C   0  0  0  0  0  0  0  0  0  0  0  0
   22.4227   -5.0594  -12.8479 O   0  0  0  0  0  0  0  0  0  0  0  0
   20.3725   -5.5365  -13.6855 O   0  0  0  0  0  0  0  0  0  0  0  0
  1  2  1  0
  2  3  1  0
  3  4  1  6
  5  3  1  0
  6  5  2  0
  7  5  1  0
  8  7  1  0
  8  9  1  1
 10  9  1  0
 10 11  2  0
 12 11  1  0
 13 12  1  0
 14 13  2  0
 14 10  1  0
 15  8  1  0
 16 15  2  0
 19 18  1  6
 18 17  1  0
 19 20  1  0
 20 15  1  0
 21 22  1  0
 21 19  1  0
 23 21  2  0
M  END
$$$$
