SHS.pdb
     RDKit          3D

 23 23  0  0  1  0  0  0  0  0999 V2000
   16.8060  -12.2785  -19.7066 O   0  0  0  0  0  0  0  0  0  0  0  0
   17.0642  -11.2128  -18.8468 C   0  0  0  0  0  0  0  0  0  0  0  0
   17.7990  -11.6937  -17.6122 C   0  0  2  0  0  0  0  0  0  0  0  0
   16.9757  -12.6385  -16.9354 N   0  0  0  0  0  0  0  0  0  0  0  0
   18.1533  -10.5178  -16.7802 C   0  0  0  0  0  0  0  0  0  0  0  0
   17.2588   -9.9147  -16.1338 O   0  0  0  0  0  0  0  0  0  0  0  0
   19.4757  -10.0195  -16.6669 N   0  0  0  0  0  0  0  0  0  0  0  0
   19.8465   -8.9176  -15.8001 C   0  0  1  0  0  0  0  0  0  0  0  0
   21.1509   -9.2014  -15.0811 C   0  0  0  0  0  0  0  0  0  0  0  0
   21.5569   -8.0838  -14.2029 C   0  0  0  0  0  0  0  0  0  0  0  0
   21.1144   -7.8795  -12.9117 C   0  0  0  0  0  0  0  0  0  0  0  0
   21.6919   -6.7606  -12.4065 N   0  0  0  0  0  0  0  0  0  0  0  0
   22.4854   -6.2656  -13.3600 C   0  0  0  0  0  0  0  0  0  0  0  0
   22.4046   -7.0639  -14.4453 N   0  0  0  0  0  0  0  0  0  0  0  0
   20.0731   -7.6663  -16.6008 C   0  0  0  0  0  0  0  0  0  0  0  0
   20.6190   -7.7882  -17.7276 O   0  0  0  0  0  0  0  0  0  0  0  0
   19.0380   -3.0859  -17.5374 O   0  0  0  0  0  0  0  0  0  0  0  0
   18.8173   -4.2343  -16.7983 C   0  0  0  0  0  0  0  0  0  0  0  0
   19.9620   -5.2355  -16.9865 C   0  0  2  0  0  0  0  0  0  0  0  0
   19.7065   -6.3914  -16.1492 N   0  0  0  0  0  0  0  0  0  0  0  0
   21.2583   -4.6358  -16.6715 C   0  0  0  0  0  0  0  0  0  0  0  0
   22.0596   -4.1217  -17.6680 O   0  0  0  0  0  0  0  0  0  0  0  0
   21.6610   -4.5804  -15.4855 O   0  0  0  0  0  0  0  0  0  0  0  0
  1  2  1  0
  2  3  1  0
  3  4  1  1
  5  3  1  0
  6  5  2  0
  7  5  1  0
  8  7  1  0
  8  9  1  6
 10  9  1  0
 10 11  2  0
 12 11  1  0
 13 12  1  0
 14 13  2  0
 14 10  1  0
 15  8  1  0
 16 15  2  0
 19 18  1  1
 18 17  1  0
 19 20  1  0
 20 15  1  0
 21 22  1  0
 21 19  1  0
 23 21  2  0
M  END
$$$$
