SHS.pdb
     RDKit          3D

 23 23  0  0  1  0  0  0  0  0999 V2000
   36.1750  -38.6819   -7.5845 O   0  0  0  0  0  0  0  0  0  0  0  0
   35.6191  -38.2424   -8.7843 C   0  0  0  0  0  0  0  0  0  0  0  0
   35.6363  -36.7291   -8.8537 C   0  0  2  0  0  0  0  0  0  0  0  0
   36.9920  -36.2931   -8.8783 N   0  0  0  0  0  0  0  0  0  0  0  0
   34.8646  -36.1905   -7.7070 C   0  0  0  0  0  0  0  0  0  0  0  0
   35.4680  -35.7791   -6.6831 O   0  0  0  0  0  0  0  0  0  0  0  0
   33.4493  -36.1096   -7.6957 N   0  0  0  0  0  0  0  0  0  0  0  0
   32.6894  -35.4919   -6.6261 C   0  0  1  0  0  0  0  0  0  0  0  0
   31.2744  -35.1770   -7.0709 C   0  0  0  0  0  0  0  0  0  0  0  0
   30.4673  -34.5865   -5.9823 C   0  0  0  0  0  0  0  0  0  0  0  0
   30.8822  -33.5799   -5.1343 C   0  0  0  0  0  0  0  0  0  0  0  0
   29.8880  -33.2860   -4.2591 N   0  0  0  0  0  0  0  0  0  0  0  0
   28.8626  -34.0916   -4.5476 C   0  0  0  0  0  0  0  0  0  0  0  0
   29.2112  -34.8774   -5.5880 N   0  0  0  0  0  0  0  0  0  0  0  0
   32.5627  -36.4274   -5.4571 C   0  0  0  0  0  0  0  0  0  0  0  0
   32.3628  -37.6444   -5.7056 O   0  0  0  0  0  0  0  0  0  0  0  0
   33.6079  -37.3993   -0.8915 O   0  0  0  0  0  0  0  0  0  0  0  0
   33.5373  -36.4743   -1.9178 C   0  0  0  0  0  0  0  0  0  0  0  0
   32.6553  -36.9894   -3.0601 C   0  0  2  0  0  0  0  0  0  0  0  0
   32.6567  -36.0047   -4.1244 N   0  0  0  0  0  0  0  0  0  0  0  0
   31.2936  -37.2677   -2.6046 C   0  0  0  0  0  0  0  0  0  0  0  0
   31.0393  -38.2990   -1.7264 O   0  0  0  0  0  0  0  0  0  0  0  0
   30.3338  -36.5692   -3.0081 O   0  0  0  0  0  0  0  0  0  0  0  0
  1  2  1  0
  2  3  1  0
  3  4  1  1
  5  3  1  0
  6  5  2  0
  7  5  1  0
  8  7  1  0
  8  9  1  6
 10  9  1  0
 10 11  2  0
 12 11  1  0
 13 12  1  0
 14 13  2  0
 14 10  1  0
 15  8  1  0
 16 15  2  0
 19 18  1  1
 18 17  1  0
 19 20  1  0
 20 15  1  0
 21 22  1  0
 21 19  1  0
 23 21  2  0
M  END
$$$$
