SHS.pdb
     RDKit          3D

 23 23  0  0  1  0  0  0  0  0999 V2000
   29.5557  -29.4049  -17.9390 O   0  0  0  0  0  0  0  0  0  0  0  0
   30.1988  -30.6122  -17.6737 C   0  0  0  0  0  0  0  0  0  0  0  0
   29.5143  -31.3384  -16.5338 C   0  0  2  0  0  0  0  0  0  0  0  0
   30.1892  -32.5733  -16.3145 N   0  0  0  0  0  0  0  0  0  0  0  0
   28.0782  -31.5025  -16.8673 C   0  0  0  0  0  0  0  0  0  0  0  0
   27.7225  -32.3844  -17.6904 O   0  0  0  0  0  0  0  0  0  0  0  0
   27.0548  -30.7031  -16.2984 N   0  0  0  0  0  0  0  0  0  0  0  0
   25.6463  -30.8675  -16.6016 C   0  0  1  0  0  0  0  0  0  0  0  0
   24.8121  -30.8857  -15.3356 C   0  0  0  0  0  0  0  0  0  0  0  0
   24.8540  -32.1999  -14.6602 C   0  0  0  0  0  0  0  0  0  0  0  0
   25.5157  -33.3179  -15.1258 C   0  0  0  0  0  0  0  0  0  0  0  0
   25.3412  -34.3433  -14.2547 N   0  0  0  0  0  0  0  0  0  0  0  0
   24.5831  -33.8832  -13.2562 C   0  0  0  0  0  0  0  0  0  0  0  0
   24.2882  -32.5889  -13.4999 N   0  0  0  0  0  0  0  0  0  0  0  0
   25.1417  -29.7122  -17.4194 C   0  0  0  0  0  0  0  0  0  0  0  0
   25.6114  -28.5727  -17.1673 O   0  0  0  0  0  0  0  0  0  0  0  0
   25.0123  -29.5091  -21.2376 O   0  0  0  0  0  0  0  0  0  0  0  0
   23.7634  -29.2017  -20.7282 C   0  0  0  0  0  0  0  0  0  0  0  0
   23.8671  -28.7171  -19.2781 C   0  0  2  0  0  0  0  0  0  0  0  0
   24.1852  -29.8522  -18.4338 N   0  0  0  0  0  0  0  0  0  0  0  0
   22.6332  -28.0660  -18.8391 C   0  0  0  0  0  0  0  0  0  0  0  0
   22.1950  -26.9052  -19.4389 O   0  0  0  0  0  0  0  0  0  0  0  0
   21.9534  -28.5565  -17.9068 O   0  0  0  0  0  0  0  0  0  0  0  0
  1  2  1  0
  2  3  1  0
  3  4  1  6
  5  3  1  0
  6  5  2  0
  7  5  1  0
  8  7  1  0
  8  9  1  1
 10  9  1  0
 10 11  2  0
 12 11  1  0
 13 12  1  0
 14 13  2  0
 14 10  1  0
 15  8  1  0
 16 15  2  0
 19 18  1  6
 18 17  1  0
 19 20  1  0
 20 15  1  0
 21 22  1  0
 21 19  1  0
 23 21  2  0
M  END
$$$$
