SHS.pdb
     RDKit          3D

 23 23  0  0  1  0  0  0  0  0999 V2000
    9.9371  -10.1583  -12.1888 O   0  0  0  0  0  0  0  0  0  0  0  0
   11.2830   -9.8315  -12.0362 C   0  0  0  0  0  0  0  0  0  0  0  0
   12.1609  -10.8859  -12.6787 C   0  0  2  0  0  0  0  0  0  0  0  0
   12.0615  -12.0838  -11.9146 N   0  0  0  0  0  0  0  0  0  0  0  0
   13.5449  -10.3605  -12.7738 C   0  0  0  0  0  0  0  0  0  0  0  0
   14.2696  -10.3136  -11.7471 O   0  0  0  0  0  0  0  0  0  0  0  0
   14.1151   -9.8955  -13.9856 N   0  0  0  0  0  0  0  0  0  0  0  0
   15.4349   -9.3012  -14.0753 C   0  0  1  0  0  0  0  0  0  0  0  0
   16.2749   -9.9901  -15.1329 C   0  0  0  0  0  0  0  0  0  0  0  0
   17.6544   -9.4611  -15.1798 C   0  0  0  0  0  0  0  0  0  0  0  0
   18.1623   -8.4771  -14.3561 C   0  0  0  0  0  0  0  0  0  0  0  0
   19.4589   -8.2409  -14.6784 N   0  0  0  0  0  0  0  0  0  0  0  0
   19.7663   -9.0601  -15.6874 C   0  0  0  0  0  0  0  0  0  0  0  0
   18.6774   -9.7974  -15.9911 N   0  0  0  0  0  0  0  0  0  0  0  0
   15.3402   -7.8597  -14.4889 C   0  0  0  0  0  0  0  0  0  0  0  0
   14.6119   -7.5853  -15.4773 O   0  0  0  0  0  0  0  0  0  0  0  0
   15.7154   -3.2074  -13.5029 O   0  0  0  0  0  0  0  0  0  0  0  0
   15.8683   -4.5223  -13.1010 C   0  0  0  0  0  0  0  0  0  0  0  0
   15.8917   -5.4653  -14.3086 C   0  0  2  0  0  0  0  0  0  0  0  0
   16.0195   -6.8273  -13.8283 N   0  0  0  0  0  0  0  0  0  0  0  0
   16.9758   -5.1305  -15.2315 C   0  0  0  0  0  0  0  0  0  0  0  0
   16.7253   -4.4286  -16.3908 O   0  0  0  0  0  0  0  0  0  0  0  0
   18.1538   -5.4786  -14.9803 O   0  0  0  0  0  0  0  0  0  0  0  0
  1  2  1  0
  2  3  1  0
  3  4  1  1
  5  3  1  0
  6  5  2  0
  7  5  1  0
  8  7  1  0
  8  9  1  6
 10  9  1  0
 10 11  2  0
 12 11  1  0
 13 12  1  0
 14 13  2  0
 14 10  1  0
 15  8  1  0
 16 15  2  0
 19 18  1  1
 18 17  1  0
 19 20  1  0
 20 15  1  0
 21 22  1  0
 21 19  1  0
 23 21  2  0
M  END
$$$$
