SHS.pdb
     RDKit          3D

 23 23  0  0  1  0  0  0  0  0999 V2000
   26.0287  -25.8120  -16.0524 O   0  0  0  0  0  0  0  0  0  0  0  0
   26.3764  -25.3629  -17.3248 C   0  0  0  0  0  0  0  0  0  0  0  0
   27.5134  -24.3650  -17.2425 C   0  0  2  0  0  0  0  0  0  0  0  0
   28.6678  -25.0349  -16.7451 N   0  0  0  0  0  0  0  0  0  0  0  0
   27.0851  -23.2230  -16.3982 C   0  0  0  0  0  0  0  0  0  0  0  0
   27.7276  -22.9388  -15.3551 O   0  0  0  0  0  0  0  0  0  0  0  0
   25.9644  -22.4107  -16.7049 N   0  0  0  0  0  0  0  0  0  0  0  0
   25.5666  -21.2611  -15.9155 C   0  0  1  0  0  0  0  0  0  0  0  0
   25.6140  -19.9886  -16.7387 C   0  0  0  0  0  0  0  0  0  0  0  0
   26.9992  -19.5296  -16.9745 C   0  0  0  0  0  0  0  0  0  0  0  0
   27.6902  -19.6491  -18.1632 C   0  0  0  0  0  0  0  0  0  0  0  0
   28.9323  -19.1223  -18.0204 N   0  0  0  0  0  0  0  0  0  0  0  0
   29.0261  -18.6775  -16.7646 C   0  0  0  0  0  0  0  0  0  0  0  0
   27.8594  -18.9229  -16.1321 N   0  0  0  0  0  0  0  0  0  0  0  0
   24.1457  -21.4050  -15.4482 C   0  0  0  0  0  0  0  0  0  0  0  0
   23.3651  -22.0858  -16.1622 O   0  0  0  0  0  0  0  0  0  0  0  0
   20.9099  -20.9019  -11.8812 O   0  0  0  0  0  0  0  0  0  0  0  0
   22.1464  -20.5618  -12.3999 C   0  0  0  0  0  0  0  0  0  0  0  0
   22.3257  -21.1350  -13.8097 C   0  0  2  0  0  0  0  0  0  0  0  0
   23.6646  -20.8206  -14.2689 N   0  0  0  0  0  0  0  0  0  0  0  0
   21.3184  -20.6149  -14.7338 C   0  0  0  0  0  0  0  0  0  0  0  0
   20.1367  -21.2920  -14.9449 O   0  0  0  0  0  0  0  0  0  0  0  0
   21.5162  -19.5411  -15.3501 O   0  0  0  0  0  0  0  0  0  0  0  0
  1  2  1  0
  2  3  1  0
  3  4  1  1
  5  3  1  0
  6  5  2  0
  7  5  1  0
  8  7  1  0
  8  9  1  6
 10  9  1  0
 10 11  2  0
 12 11  1  0
 13 12  1  0
 14 13  2  0
 14 10  1  0
 15  8  1  0
 16 15  2  0
 19 18  1  1
 18 17  1  0
 19 20  1  0
 20 15  1  0
 21 22  1  0
 21 19  1  0
 23 21  2  0
M  END
$$$$
