AEM.pdb
     RDKit          3D

 23 22  0  0  1  0  0  0  0  0999 V2000
    8.1033  -12.2674   19.8983 C   0  0  0  0  0  0  0  0  0  0  0  0
    8.0680  -13.6522   19.3078 C   0  0  2  0  0  0  0  0  0  0  0  0
    6.8266  -13.8636   18.5887 N   0  0  0  0  0  0  0  0  0  0  0  0
    8.1887  -14.7129   20.3386 C   0  0  0  0  0  0  0  0  0  0  0  0
    7.1646  -15.1353   20.9484 O   0  0  0  0  0  0  0  0  0  0  0  0
    9.4231  -15.3041   20.6962 N   0  0  0  0  0  0  0  0  0  0  0  0
    9.5019  -16.2809   21.8135 C   0  0  1  0  0  0  0  0  0  0  0  0
   10.6448  -17.1685   21.4647 C   0  0  0  0  0  0  0  0  0  0  0  0
   10.9426  -18.2694   22.4135 C   0  0  0  0  0  0  0  0  0  0  0  0
   12.1308  -19.0768   21.9665 C   0  0  0  0  0  0  0  0  0  0  0  0
   12.4792  -20.0284   22.6914 O   0  0  0  0  0  0  0  0  0  0  0  0
    9.6255  -15.5465   23.0854 C   0  0  0  0  0  0  0  0  0  0  0  0
   10.4922  -14.6122   23.2305 O   0  0  0  0  0  0  0  0  0  0  0  0
   12.8266  -18.8052   20.8133 O   0  0  0  0  0  0  0  0  0  0  0  0
    6.4132  -10.8956   25.7622 C   0  0  0  0  0  0  0  0  0  0  0  0
    6.1815  -12.2546   26.8705 S   0  0  0  0  0  0  0  0  0  0  0  0
    7.5286  -13.4468   26.8285 C   0  0  0  0  0  0  0  0  0  0  0  0
    7.6850  -14.1849   25.5583 C   0  0  0  0  0  0  0  0  0  0  0  0
    8.8037  -15.1341   25.4561 C   0  0  2  0  0  0  0  0  0  0  0  0
    8.7870  -15.8457   24.1921 N   0  0  0  0  0  0  0  0  0  0  0  0
    8.9702  -16.0522   26.5973 C   0  0  0  0  0  0  0  0  0  0  0  0
    9.2853  -15.5539   27.8454 O   0  0  0  0  0  0  0  0  0  0  0  0
    8.8384  -17.2952   26.5077 O   0  0  0  0  0  0  0  0  0  0  0  0
  2  3  1  0
  2  1  1  1
  2  4  1  0
  4  5  2  0
  6  4  1  0
  6  7  1  0
  7 12  1  0
  8  9  1  0
  7  8  1  6
  9 10  1  0
 10 11  2  0
 10 14  1  0
 12 20  1  0
 12 13  2  0
 16 15  1  0
 17 16  1  0
 19 18  1  1
 18 17  1  0
 19 21  1  0
 20 19  1  0
 21 22  1  0
 23 21  2  0
M  END
$$$$
