AEM.pdb
     RDKit          3D

 23 22  0  0  1  0  0  0  0  0999 V2000
    7.4888  -20.9499   20.6482 C   0  0  0  0  0  0  0  0  0  0  0  0
    7.1385  -19.7398   21.4731 C   0  0  2  0  0  0  0  0  0  0  0  0
    6.2610  -18.8575   20.7287 N   0  0  0  0  0  0  0  0  0  0  0  0
    8.3357  -18.9626   21.8789 C   0  0  0  0  0  0  0  0  0  0  0  0
    9.2610  -19.5097   22.5450 O   0  0  0  0  0  0  0  0  0  0  0  0
    8.5149  -17.5971   21.5560 N   0  0  0  0  0  0  0  0  0  0  0  0
    9.6249  -16.8135   22.1583 C   0  0  1  0  0  0  0  0  0  0  0  0
   10.3400  -16.2120   20.9996 C   0  0  0  0  0  0  0  0  0  0  0  0
   10.1336  -16.8633   19.6827 C   0  0  0  0  0  0  0  0  0  0  0  0
   11.4390  -17.2854   19.0652 C   0  0  0  0  0  0  0  0  0  0  0  0
   11.3842  -17.9314   18.0013 O   0  0  0  0  0  0  0  0  0  0  0  0
    9.0655  -15.8590   23.1321 C   0  0  0  0  0  0  0  0  0  0  0  0
    7.8330  -15.5070   23.0832 O   0  0  0  0  0  0  0  0  0  0  0  0
   12.6590  -16.9887   19.6230 O   0  0  0  0  0  0  0  0  0  0  0  0
    5.5925  -11.1492   27.2124 C   0  0  0  0  0  0  0  0  0  0  0  0
    6.0684  -12.2408   25.9044 S   0  0  0  0  0  0  0  0  0  0  0  0
    7.5491  -13.1939   26.2742 C   0  0  0  0  0  0  0  0  0  0  0  0
    8.1631  -13.8869   25.1230 C   0  0  0  0  0  0  0  0  0  0  0  0
    9.3570  -14.7064   25.3797 C   0  0  2  0  0  0  0  0  0  0  0  0
    9.8707  -15.2994   24.1595 N   0  0  0  0  0  0  0  0  0  0  0  0
    9.2296  -15.7023   26.4591 C   0  0  0  0  0  0  0  0  0  0  0  0
    9.2121  -17.0494   26.1583 O   0  0  0  0  0  0  0  0  0  0  0  0
    9.1352  -15.3980   27.6711 O   0  0  0  0  0  0  0  0  0  0  0  0
  2  3  1  0
  2  1  1  6
  2  4  1  0
  4  5  2  0
  6  4  1  0
  6  7  1  0
  7 12  1  0
  8  9  1  0
  7  8  1  6
  9 10  1  0
 10 11  2  0
 10 14  1  0
 12 20  1  0
 12 13  2  0
 16 15  1  0
 17 16  1  0
 19 18  1  6
 18 17  1  0
 19 21  1  0
 20 19  1  0
 21 22  1  0
 23 21  2  0
M  END
$$$$
