AEM.pdb
     RDKit          3D

 23 22  0  0  1  0  0  0  0  0999 V2000
    8.2469  -12.0922   19.5045 C   0  0  0  0  0  0  0  0  0  0  0  0
    8.2206  -13.4941   18.9554 C   0  0  2  0  0  0  0  0  0  0  0  0
    6.9901  -13.7276   18.2245 N   0  0  0  0  0  0  0  0  0  0  0  0
    8.3260  -14.5234   20.0192 C   0  0  0  0  0  0  0  0  0  0  0  0
    7.2929  -14.9277   20.6262 O   0  0  0  0  0  0  0  0  0  0  0  0
    9.5548  -15.1031   20.4126 N   0  0  0  0  0  0  0  0  0  0  0  0
    9.5981  -16.1478   21.4688 C   0  0  1  0  0  0  0  0  0  0  0  0
   10.7688  -16.9974   21.1176 C   0  0  0  0  0  0  0  0  0  0  0  0
   11.0769  -18.1162   22.0419 C   0  0  0  0  0  0  0  0  0  0  0  0
   12.2357  -18.9380   21.5466 C   0  0  0  0  0  0  0  0  0  0  0  0
   13.0590  -19.3323   22.3944 O   0  0  0  0  0  0  0  0  0  0  0  0
    9.6533  -15.4942   22.7886 C   0  0  0  0  0  0  0  0  0  0  0  0
   10.0681  -14.2870   22.9143 O   0  0  0  0  0  0  0  0  0  0  0  0
   12.4105  -19.2597   20.2223 O   0  0  0  0  0  0  0  0  0  0  0  0
    6.0399  -11.5369   27.5937 C   0  0  0  0  0  0  0  0  0  0  0  0
    6.2444  -12.5791   26.1792 S   0  0  0  0  0  0  0  0  0  0  0  0
    7.5799  -13.7715   26.3592 C   0  0  0  0  0  0  0  0  0  0  0  0
    7.9085  -14.5461   25.1448 C   0  0  0  0  0  0  0  0  0  0  0  0
    8.9890  -15.5391   25.2426 C   0  0  2  0  0  0  0  0  0  0  0  0
    9.2457  -16.1772   23.9654 N   0  0  0  0  0  0  0  0  0  0  0  0
    8.8541  -16.5266   26.3288 C   0  0  0  0  0  0  0  0  0  0  0  0
    9.0849  -16.1513   27.6370 O   0  0  0  0  0  0  0  0  0  0  0  0
    8.5314  -17.7224   26.1380 O   0  0  0  0  0  0  0  0  0  0  0  0
  2  3  1  0
  2  1  1  1
  2  4  1  0
  4  5  2  0
  6  4  1  0
  6  7  1  0
  7 12  1  0
  8  9  1  0
  7  8  1  6
  9 10  1  0
 10 11  2  0
 10 14  1  0
 12 20  1  0
 12 13  2  0
 16 15  1  0
 17 16  1  0
 19 18  1  6
 18 17  1  0
 19 21  1  0
 20 19  1  0
 21 22  1  0
 23 21  2  0
M  END
$$$$
