AEM.pdb
     RDKit          3D

 23 22  0  0  1  0  0  0  0  0999 V2000
    8.5244  -12.1981   19.4766 C   0  0  0  0  0  0  0  0  0  0  0  0
    8.2950  -13.5991   18.9744 C   0  0  2  0  0  0  0  0  0  0  0  0
    6.9992  -13.6997   18.3313 N   0  0  0  0  0  0  0  0  0  0  0  0
    8.3487  -14.6083   20.0610 C   0  0  0  0  0  0  0  0  0  0  0  0
    7.3351  -14.8272   20.7848 O   0  0  0  0  0  0  0  0  0  0  0  0
    9.5051  -15.3700   20.3499 N   0  0  0  0  0  0  0  0  0  0  0  0
    9.5107  -16.3475   21.4694 C   0  0  1  0  0  0  0  0  0  0  0  0
   10.5649  -17.3346   21.1090 C   0  0  0  0  0  0  0  0  0  0  0  0
   10.7585  -18.4690   22.0453 C   0  0  0  0  0  0  0  0  0  0  0  0
   11.9084  -19.3427   21.6233 C   0  0  0  0  0  0  0  0  0  0  0  0
   11.6756  -20.5570   21.4698 O   0  0  0  0  0  0  0  0  0  0  0  0
    9.7161  -15.6243   22.7371 C   0  0  0  0  0  0  0  0  0  0  0  0
   10.7095  -14.8280   22.8933 O   0  0  0  0  0  0  0  0  0  0  0  0
   13.1750  -18.8565   21.4071 O   0  0  0  0  0  0  0  0  0  0  0  0
    5.8696  -11.5230   27.5814 C   0  0  0  0  0  0  0  0  0  0  0  0
    7.2177  -11.6107   26.4395 S   0  0  0  0  0  0  0  0  0  0  0  0
    8.0835  -13.1876   26.4780 C   0  0  0  0  0  0  0  0  0  0  0  0
    8.0563  -13.9586   25.2181 C   0  0  0  0  0  0  0  0  0  0  0  0
    8.9554  -15.1174   25.1099 C   0  0  2  0  0  0  0  0  0  0  0  0
    8.8194  -15.7815   23.8274 N   0  0  0  0  0  0  0  0  0  0  0  0
    8.9020  -16.0755   26.2290 C   0  0  0  0  0  0  0  0  0  0  0  0
    9.4068  -15.7240   27.4648 O   0  0  0  0  0  0  0  0  0  0  0  0
    8.4111  -17.2243   26.1309 O   0  0  0  0  0  0  0  0  0  0  0  0
  2  3  1  0
  2  1  1  1
  2  4  1  0
  4  5  2  0
  6  4  1  0
  6  7  1  0
  7 12  1  0
  8  9  1  0
  7  8  1  6
  9 10  1  0
 10 11  2  0
 10 14  1  0
 12 20  1  0
 12 13  2  0
 16 15  1  0
 17 16  1  0
 19 18  1  1
 18 17  1  0
 19 21  1  0
 20 19  1  0
 21 22  1  0
 23 21  2  0
M  END
$$$$
