AEM.pdb
     RDKit          3D

 23 22  0  0  1  0  0  0  0  0999 V2000
    6.3308  -17.0223   18.6685 C   0  0  0  0  0  0  0  0  0  0  0  0
    7.2547  -16.0529   19.3572 C   0  0  2  0  0  0  0  0  0  0  0  0
    8.3289  -15.6588   18.4664 N   0  0  0  0  0  0  0  0  0  0  0  0
    7.8617  -16.6215   20.5862 C   0  0  0  0  0  0  0  0  0  0  0  0
    7.1303  -17.0667   21.5168 O   0  0  0  0  0  0  0  0  0  0  0  0
    9.2591  -16.7003   20.7911 N   0  0  0  0  0  0  0  0  0  0  0  0
    9.8112  -17.2161   22.0709 C   0  0  1  0  0  0  0  0  0  0  0  0
   11.1394  -17.7843   21.7121 C   0  0  0  0  0  0  0  0  0  0  0  0
   11.1363  -18.9415   20.7837 C   0  0  0  0  0  0  0  0  0  0  0  0
   12.5335  -19.4124   20.4843 C   0  0  0  0  0  0  0  0  0  0  0  0
   12.7341  -20.6421   20.4884 O   0  0  0  0  0  0  0  0  0  0  0  0
    9.8271  -16.1248   23.0613 C   0  0  0  0  0  0  0  0  0  0  0  0
   10.7481  -15.2321   23.0502 O   0  0  0  0  0  0  0  0  0  0  0  0
   13.5694  -18.5515   20.2133 O   0  0  0  0  0  0  0  0  0  0  0  0
    6.1849  -10.6475   27.0572 C   0  0  0  0  0  0  0  0  0  0  0  0
    6.0959  -12.0728   26.0133 S   0  0  0  0  0  0  0  0  0  0  0  0
    7.5333  -13.1467   26.1487 C   0  0  0  0  0  0  0  0  0  0  0  0
    7.6425  -14.1960   25.1145 C   0  0  0  0  0  0  0  0  0  0  0  0
    8.8319  -15.0605   25.1452 C   0  0  2  0  0  0  0  0  0  0  0  0
    8.8216  -16.0223   24.0592 N   0  0  0  0  0  0  0  0  0  0  0  0
    9.1234  -15.7022   26.4399 C   0  0  0  0  0  0  0  0  0  0  0  0
    9.6142  -14.9511   27.4889 O   0  0  0  0  0  0  0  0  0  0  0  0
    8.9478  -16.9234   26.6598 O   0  0  0  0  0  0  0  0  0  0  0  0
  2  3  1  0
  2  1  1  6
  2  4  1  0
  4  5  2  0
  6  4  1  0
  6  7  1  0
  7 12  1  0
  8  9  1  0
  7  8  1  6
  9 10  1  0
 10 11  2  0
 10 14  1  0
 12 20  1  0
 12 13  2  0
 16 15  1  0
 17 16  1  0
 19 18  1  1
 18 17  1  0
 19 21  1  0
 20 19  1  0
 21 22  1  0
 23 21  2  0
M  END
$$$$
