AEM.pdb
     RDKit          3D

 23 22  0  0  1  0  0  0  0  0999 V2000
    8.2813  -12.5067   19.3512 C   0  0  0  0  0  0  0  0  0  0  0  0
    8.2579  -13.9671   18.9848 C   0  0  2  0  0  0  0  0  0  0  0  0
    6.9953  -14.3113   18.3601 N   0  0  0  0  0  0  0  0  0  0  0  0
    8.4449  -14.8515   20.1617 C   0  0  0  0  0  0  0  0  0  0  0  0
    7.5096  -15.0152   20.9970 O   0  0  0  0  0  0  0  0  0  0  0  0
    9.6480  -15.5496   20.4186 N   0  0  0  0  0  0  0  0  0  0  0  0
    9.7624  -16.4616   21.5865 C   0  0  1  0  0  0  0  0  0  0  0  0
   10.9861  -17.2672   21.3233 C   0  0  0  0  0  0  0  0  0  0  0  0
   10.9194  -18.2230   20.1905 C   0  0  0  0  0  0  0  0  0  0  0  0
   12.2597  -18.8493   19.9174 C   0  0  0  0  0  0  0  0  0  0  0  0
   12.7457  -18.6844   18.7821 O   0  0  0  0  0  0  0  0  0  0  0  0
    9.7769  -15.6590   22.8227 C   0  0  0  0  0  0  0  0  0  0  0  0
   10.5524  -14.6448   22.9462 O   0  0  0  0  0  0  0  0  0  0  0  0
   12.9479  -19.5791   20.8563 O   0  0  0  0  0  0  0  0  0  0  0  0
    5.9847  -11.1676   27.5191 C   0  0  0  0  0  0  0  0  0  0  0  0
    6.1120  -12.2593   26.1331 S   0  0  0  0  0  0  0  0  0  0  0  0
    7.3723  -13.5272   26.3374 C   0  0  0  0  0  0  0  0  0  0  0  0
    7.5957  -14.3964   25.1639 C   0  0  0  0  0  0  0  0  0  0  0  0
    8.8277  -15.1992   25.1363 C   0  0  2  0  0  0  0  0  0  0  0  0
    8.9304  -15.9789   23.9174 N   0  0  0  0  0  0  0  0  0  0  0  0
    9.0827  -16.0211   26.3332 C   0  0  0  0  0  0  0  0  0  0  0  0
    9.3038  -15.4153   27.5537 O   0  0  0  0  0  0  0  0  0  0  0  0
    9.1111  -17.2739   26.3166 O   0  0  0  0  0  0  0  0  0  0  0  0
  2  3  1  0
  2  1  1  1
  2  4  1  0
  4  5  2  0
  6  4  1  0
  6  7  1  0
  7 12  1  0
  8  9  1  0
  7  8  1  6
  9 10  1  0
 10 11  2  0
 10 14  1  0
 12 20  1  0
 12 13  2  0
 16 15  1  0
 17 16  1  0
 19 18  1  1
 18 17  1  0
 19 21  1  0
 20 19  1  0
 21 22  1  0
 23 21  2  0
M  END
$$$$
