AEM.pdb
     RDKit          3D

 23 22  0  0  1  0  0  0  0  0999 V2000
    7.6304  -12.9888   19.7596 C   0  0  0  0  0  0  0  0  0  0  0  0
    8.0180  -14.4021   19.4135 C   0  0  2  0  0  0  0  0  0  0  0  0
    6.9269  -15.0736   18.7342 N   0  0  0  0  0  0  0  0  0  0  0  0
    8.3765  -15.2025   20.6106 C   0  0  0  0  0  0  0  0  0  0  0  0
    7.4811  -15.5934   21.4134 O   0  0  0  0  0  0  0  0  0  0  0  0
    9.7063  -15.5700   20.9229 N   0  0  0  0  0  0  0  0  0  0  0  0
    9.9975  -16.4573   22.0791 C   0  0  1  0  0  0  0  0  0  0  0  0
   11.3675  -16.9803   21.8234 C   0  0  0  0  0  0  0  0  0  0  0  0
   11.4964  -18.0103   20.7634 C   0  0  0  0  0  0  0  0  0  0  0  0
   12.9356  -18.2408   20.3902 C   0  0  0  0  0  0  0  0  0  0  0  0
   13.2260  -18.1909   19.1796 O   0  0  0  0  0  0  0  0  0  0  0  0
    9.8261  -15.6917   23.3268 C   0  0  0  0  0  0  0  0  0  0  0  0
   10.4169  -14.5667   23.5014 O   0  0  0  0  0  0  0  0  0  0  0  0
   13.9153  -18.4980   21.3184 O   0  0  0  0  0  0  0  0  0  0  0  0
    7.9229  -10.9180   26.8945 C   0  0  0  0  0  0  0  0  0  0  0  0
    6.8149  -12.2920   27.0101 S   0  0  0  0  0  0  0  0  0  0  0  0
    7.6546  -13.8824   27.0676 C   0  0  0  0  0  0  0  0  0  0  0  0
    7.9059  -14.5164   25.7571 C   0  0  0  0  0  0  0  0  0  0  0  0
    8.9181  -15.5817   25.6994 C   0  0  2  0  0  0  0  0  0  0  0  0
    8.9983  -16.1717   24.3765 N   0  0  0  0  0  0  0  0  0  0  0  0
    8.8251  -16.6105   26.7511 C   0  0  0  0  0  0  0  0  0  0  0  0
    9.1640  -16.3010   28.0529 O   0  0  0  0  0  0  0  0  0  0  0  0
    8.4445  -17.7849   26.5357 O   0  0  0  0  0  0  0  0  0  0  0  0
  2  3  1  0
  2  1  1  1
  2  4  1  0
  4  5  2  0
  6  4  1  0
  6  7  1  0
  7 12  1  0
  8  9  1  0
  7  8  1  6
  9 10  1  0
 10 11  2  0
 10 14  1  0
 12 20  1  0
 12 13  2  0
 16 15  1  0
 17 16  1  0
 19 18  1  6
 18 17  1  0
 19 21  1  0
 20 19  1  0
 21 22  1  0
 23 21  2  0
M  END
$$$$
