AEM.pdb
     RDKit          3D

 23 22  0  0  1  0  0  0  0  0999 V2000
    6.9644  -13.0509   18.5778 C   0  0  0  0  0  0  0  0  0  0  0  0
    8.2749  -13.1329   19.3151 C   0  0  2  0  0  0  0  0  0  0  0  0
    9.3525  -13.4472   18.3970 N   0  0  0  0  0  0  0  0  0  0  0  0
    8.2635  -14.1649   20.3814 C   0  0  0  0  0  0  0  0  0  0  0  0
    7.3247  -14.2034   21.2278 O   0  0  0  0  0  0  0  0  0  0  0  0
    9.2740  -15.1454   20.5168 N   0  0  0  0  0  0  0  0  0  0  0  0
    9.1524  -16.2266   21.5292 C   0  0  1  0  0  0  0  0  0  0  0  0
   10.1525  -17.2494   21.1175 C   0  0  0  0  0  0  0  0  0  0  0  0
   10.3735  -18.3760   22.0570 C   0  0  0  0  0  0  0  0  0  0  0  0
   11.4337  -19.3162   21.5514 C   0  0  0  0  0  0  0  0  0  0  0  0
   12.5609  -18.8361   21.3247 O   0  0  0  0  0  0  0  0  0  0  0  0
    9.3410  -15.6499   22.8724 C   0  0  0  0  0  0  0  0  0  0  0  0
   10.3026  -14.8367   23.1162 O   0  0  0  0  0  0  0  0  0  0  0  0
   11.2045  -20.6538   21.3372 O   0  0  0  0  0  0  0  0  0  0  0  0
    5.7450  -11.4910   26.3095 C   0  0  0  0  0  0  0  0  0  0  0  0
    7.1989  -12.3090   26.8977 S   0  0  0  0  0  0  0  0  0  0  0  0
    7.0526  -14.1024   26.9097 C   0  0  0  0  0  0  0  0  0  0  0  0
    7.1815  -14.7596   25.5929 C   0  0  0  0  0  0  0  0  0  0  0  0
    8.4872  -15.3417   25.2476 C   0  0  2  0  0  0  0  0  0  0  0  0
    8.4627  -15.9719   23.9412 N   0  0  0  0  0  0  0  0  0  0  0  0
    9.0849  -16.2225   26.2674 C   0  0  0  0  0  0  0  0  0  0  0  0
    9.7062  -15.6777   27.3731 O   0  0  0  0  0  0  0  0  0  0  0  0
    9.0642  -17.4735   26.1965 O   0  0  0  0  0  0  0  0  0  0  0  0
  2  3  1  0
  2  1  1  6
  2  4  1  0
  4  5  2  0
  6  4  1  0
  6  7  1  0
  7 12  1  0
  8  9  1  0
  7  8  1  6
  9 10  1  0
 10 11  2  0
 10 14  1  0
 12 20  1  0
 12 13  2  0
 16 15  1  0
 17 16  1  0
 19 18  1  1
 18 17  1  0
 19 21  1  0
 20 19  1  0
 21 22  1  0
 23 21  2  0
M  END
$$$$
