AEM.pdb
     RDKit          3D

 23 22  0  0  1  0  0  0  0  0999 V2000
    8.1037  -12.1956   19.6100 C   0  0  0  0  0  0  0  0  0  0  0  0
    8.4248  -13.5296   18.9894 C   0  0  2  0  0  0  0  0  0  0  0  0
    7.5397  -13.7930   17.8714 N   0  0  0  0  0  0  0  0  0  0  0  0
    8.2949  -14.6507   19.9529 C   0  0  0  0  0  0  0  0  0  0  0  0
    7.1587  -15.1337   20.2267 O   0  0  0  0  0  0  0  0  0  0  0  0
    9.4028  -15.2359   20.6094 N   0  0  0  0  0  0  0  0  0  0  0  0
    9.2069  -16.3020   21.6262 C   0  0  1  0  0  0  0  0  0  0  0  0
   10.2079  -17.3480   21.2802 C   0  0  0  0  0  0  0  0  0  0  0  0
   11.6359  -16.9600   21.3870 C   0  0  0  0  0  0  0  0  0  0  0  0
   12.5454  -18.0800   20.9607 C   0  0  0  0  0  0  0  0  0  0  0  0
   13.7698  -17.9118   21.1182 O   0  0  0  0  0  0  0  0  0  0  0  0
    9.3346  -15.7122   22.9708 C   0  0  0  0  0  0  0  0  0  0  0  0
   10.1317  -14.7320   23.1924 O   0  0  0  0  0  0  0  0  0  0  0  0
   12.0806  -19.2531   20.4171 O   0  0  0  0  0  0  0  0  0  0  0  0
    7.8288  -11.1413   27.2007 C   0  0  0  0  0  0  0  0  0  0  0  0
    6.6220  -12.2647   26.5599 S   0  0  0  0  0  0  0  0  0  0  0  0
    7.0876  -13.9930   26.7446 C   0  0  0  0  0  0  0  0  0  0  0  0
    7.2853  -14.7364   25.4834 C   0  0  0  0  0  0  0  0  0  0  0  0
    8.4925  -15.5682   25.3657 C   0  0  2  0  0  0  0  0  0  0  0  0
    8.5771  -16.2066   24.0659 N   0  0  0  0  0  0  0  0  0  0  0  0
    8.7171  -16.5286   26.4613 C   0  0  0  0  0  0  0  0  0  0  0  0
    9.0851  -16.0765   27.7125 O   0  0  0  0  0  0  0  0  0  0  0  0
    8.5901  -17.7683   26.3289 O   0  0  0  0  0  0  0  0  0  0  0  0
  2  3  1  0
  2  1  1  1
  2  4  1  0
  4  5  2  0
  6  4  1  0
  6  7  1  0
  7 12  1  0
  8  9  1  0
  7  8  1  6
  9 10  1  0
 10 11  2  0
 10 14  1  0
 12 20  1  0
 12 13  2  0
 16 15  1  0
 17 16  1  0
 19 18  1  1
 18 17  1  0
 19 21  1  0
 20 19  1  0
 21 22  1  0
 23 21  2  0
M  END
$$$$
