AEM.pdb
     RDKit          3D

 23 22  0  0  1  0  0  0  0  0999 V2000
    8.1418  -12.2202   19.7303 C   0  0  0  0  0  0  0  0  0  0  0  0
    8.1585  -13.6565   19.2781 C   0  0  2  0  0  0  0  0  0  0  0  0
    6.9247  -13.9842   18.5902 N   0  0  0  0  0  0  0  0  0  0  0  0
    8.3218  -14.6059   20.4069 C   0  0  0  0  0  0  0  0  0  0  0  0
    7.3283  -14.9389   21.1149 O   0  0  0  0  0  0  0  0  0  0  0  0
    9.5650  -15.1843   20.7546 N   0  0  0  0  0  0  0  0  0  0  0  0
    9.6481  -16.2308   21.8067 C   0  0  1  0  0  0  0  0  0  0  0  0
   10.8085  -17.0761   21.4135 C   0  0  0  0  0  0  0  0  0  0  0  0
   11.1312  -18.2157   22.3069 C   0  0  0  0  0  0  0  0  0  0  0  0
   12.3102  -18.9994   21.7976 C   0  0  0  0  0  0  0  0  0  0  0  0
   12.3007  -20.2310   21.9859 O   0  0  0  0  0  0  0  0  0  0  0  0
    9.7470  -15.5793   23.1250 C   0  0  0  0  0  0  0  0  0  0  0  0
   10.6350  -14.6833   23.3574 O   0  0  0  0  0  0  0  0  0  0  0  0
   13.3703  -18.4152   21.1476 O   0  0  0  0  0  0  0  0  0  0  0  0
    6.0054  -11.4838   26.3157 C   0  0  0  0  0  0  0  0  0  0  0  0
    7.4735  -12.0301   27.1375 S   0  0  0  0  0  0  0  0  0  0  0  0
    7.6908  -13.8158   27.0971 C   0  0  0  0  0  0  0  0  0  0  0  0
    7.8080  -14.4117   25.7503 C   0  0  0  0  0  0  0  0  0  0  0  0
    8.9133  -15.3533   25.5166 C   0  0  2  0  0  0  0  0  0  0  0  0
    8.8605  -15.9186   24.1816 N   0  0  0  0  0  0  0  0  0  0  0  0
    9.0945  -16.3950   26.5437 C   0  0  0  0  0  0  0  0  0  0  0  0
    8.9314  -17.7258   26.2151 O   0  0  0  0  0  0  0  0  0  0  0  0
    9.3986  -16.1453   27.7335 O   0  0  0  0  0  0  0  0  0  0  0  0
  2  3  1  0
  2  1  1  1
  2  4  1  0
  4  5  2  0
  6  4  1  0
  6  7  1  0
  7 12  1  0
  8  9  1  0
  7  8  1  6
  9 10  1  0
 10 11  2  0
 10 14  1  0
 12 20  1  0
 12 13  2  0
 16 15  1  0
 17 16  1  0
 19 18  1  1
 18 17  1  0
 19 21  1  0
 20 19  1  0
 21 22  1  0
 23 21  2  0
M  END
$$$$
