PNF.pdb
     RDKit          3D

 27 28  0  0  1  0  0  0  0  0999 V2000
   27.1642  -17.8083  -16.5067 N   0  0  0  0  0  0  0  0  0  0  0  0
   28.0833  -17.4111  -17.5862 C   0  0  0  0  0  0  0  0  0  0  0  0
   29.1483  -18.4906  -17.4280 C   0  0  0  0  0  0  0  0  0  0  0  0
   28.3113  -19.7117  -17.2058 C   0  0  0  0  0  0  0  0  0  0  0  0
   26.9033  -19.1802  -16.8898 C   0  0  1  0  0  0  0  0  0  0  0  0
   26.2993  -19.9739  -15.8169 C   0  0  0  0  0  0  0  0  0  0  0  0
   25.6274  -20.9926  -16.1459 O   0  0  0  0  0  0  0  0  0  0  0  0
   25.2512  -21.8648  -10.8565 N   0  0  0  0  0  0  0  0  0  0  0  0
   26.4885  -21.1130  -10.9984 C   0  0  0  0  0  0  0  0  0  0  0  0
   27.2354  -21.1322  -10.0025 O   0  0  0  0  0  0  0  0  0  0  0  0
   26.7799  -20.4097  -12.2357 C   0  0  0  0  0  0  0  0  0  0  0  0
   25.8255  -20.4605  -13.3699 C   0  0  2  0  0  0  0  0  0  0  0  0
   26.4527  -19.6286  -14.4560 N   0  0  0  0  0  0  0  0  0  0  0  0
   24.4888  -19.8902  -13.1671 C   0  0  0  0  0  0  0  0  0  0  0  0
   24.4388  -18.7633  -12.5694 O   0  0  0  0  0  0  0  0  0  0  0  0
   23.2319  -20.3757  -13.5273 N   0  0  0  0  0  0  0  0  0  0  0  0
   21.9755  -19.7061  -13.3303 C   0  0  1  0  0  0  0  0  0  0  0  0
   21.6398  -18.6027  -14.2049 C   0  0  0  0  0  0  0  0  0  0  0  0
   20.3433  -17.9382  -13.9450 C   0  0  0  0  0  0  0  0  0  0  0  0
   20.1747  -17.0338  -12.8980 C   0  0  0  0  0  0  0  0  0  0  0  0
   18.9834  -16.3920  -12.6614 C   0  0  0  0  0  0  0  0  0  0  0  0
   17.8850  -16.6166  -13.4604 C   0  0  0  0  0  0  0  0  0  0  0  0
   18.0295  -17.5096  -14.5050 C   0  0  0  0  0  0  0  0  0  0  0  0
   19.2271  -18.1488  -14.7357 C   0  0  0  0  0  0  0  0  0  0  0  0
   20.9059  -20.7317  -13.3905 C   0  0  0  0  0  0  0  0  0  0  0  0
   20.8792  -21.6937  -14.2056 O   0  0  0  0  0  0  0  0  0  0  0  0
   19.8099  -20.6811  -12.4950 O   0  0  0  0  0  0  0  0  0  0  0  0
  2  1  1  0
  3  4  1  0
  3  2  1  0
  4  5  1  0
  5  6  1  1
  5  1  1  0
  6 13  1  0
  7  6  2  0
  9  8  1  0
 10  9  2  0
 11  9  1  0
 12 11  1  1
 12 14  1  0
 13 12  1  0
 14 16  1  0
 14 15  2  0
 16 17  1  0
 17 18  1  6
 18 19  1  0
 19 24  1  0
 20 19  2  0
 20 21  1  0
 21 22  2  0
 22 23  1  0
 24 23  2  0
 25 27  1  0
 25 17  1  0
 26 25  2  0
M  END
$$$$
