PNF.pdb
     RDKit          3D

 27 28  0  0  1  0  0  0  0  0999 V2000
   20.4963  -35.0707  -13.4791 N   0  0  0  0  0  0  0  0  0  0  0  0
   19.2153  -34.3596  -13.6246 C   0  0  0  0  0  0  0  0  0  0  0  0
   19.2767  -33.4634  -12.3927 C   0  0  0  0  0  0  0  0  0  0  0  0
   20.7013  -33.0044  -12.4227 C   0  0  0  0  0  0  0  0  0  0  0  0
   21.4042  -33.9443  -13.4163 C   0  0  1  0  0  0  0  0  0  0  0  0
   22.7323  -34.3013  -12.9117 C   0  0  0  0  0  0  0  0  0  0  0  0
   22.8196  -35.2979  -12.1394 O   0  0  0  0  0  0  0  0  0  0  0  0
   28.6346  -33.2537  -14.3860 N   0  0  0  0  0  0  0  0  0  0  0  0
   27.6231  -33.8467  -13.5248 C   0  0  0  0  0  0  0  0  0  0  0  0
   28.0542  -34.6595  -12.6861 O   0  0  0  0  0  0  0  0  0  0  0  0
   26.2258  -33.4796  -13.6768 C   0  0  0  0  0  0  0  0  0  0  0  0
   25.2266  -33.8947  -12.6624 C   0  0  2  0  0  0  0  0  0  0  0  0
   23.8869  -33.5691  -13.2662 N   0  0  0  0  0  0  0  0  0  0  0  0
   25.2435  -33.2113  -11.3640 C   0  0  0  0  0  0  0  0  0  0  0  0
   25.2791  -31.9356  -11.3959 O   0  0  0  0  0  0  0  0  0  0  0  0
   25.2222  -33.7265  -10.0680 N   0  0  0  0  0  0  0  0  0  0  0  0
   25.3766  -32.9740   -8.8533 C   0  0  1  0  0  0  0  0  0  0  0  0
   24.1862  -32.4809   -8.1939 C   0  0  0  0  0  0  0  0  0  0  0  0
   23.3634  -31.5245   -8.9672 C   0  0  0  0  0  0  0  0  0  0  0  0
   22.2585  -31.9351   -9.7111 C   0  0  0  0  0  0  0  0  0  0  0  0
   21.4724  -31.0541  -10.4132 C   0  0  0  0  0  0  0  0  0  0  0  0
   21.7446  -29.7046  -10.4136 C   0  0  0  0  0  0  0  0  0  0  0  0
   22.8355  -29.2748   -9.6824 C   0  0  0  0  0  0  0  0  0  0  0  0
   23.6185  -30.1643   -8.9811 C   0  0  0  0  0  0  0  0  0  0  0  0
   26.1614  -33.8042   -7.9076 C   0  0  0  0  0  0  0  0  0  0  0  0
   26.6959  -33.3750   -6.8490 O   0  0  0  0  0  0  0  0  0  0  0  0
   26.3597  -35.1843   -8.1561 O   0  0  0  0  0  0  0  0  0  0  0  0
  2  1  1  0
  3  4  1  0
  3  2  1  0
  4  5  1  0
  5  6  1  1
  5  1  1  0
  6 13  1  0
  7  6  2  0
  9  8  1  0
 10  9  2  0
 11  9  1  0
 12 11  1  6
 12 14  1  0
 13 12  1  0
 14 16  1  0
 14 15  2  0
 16 17  1  0
 17 18  1  1
 18 19  1  0
 19 24  1  0
 20 19  2  0
 20 21  1  0
 21 22  2  0
 22 23  1  0
 24 23  2  0
 25 27  1  0
 25 17  1  0
 26 25  2  0
M  END
$$$$
