PNF.pdb
     RDKit          3D

 27 28  0  0  1  0  0  0  0  0999 V2000
   28.3406  -23.2043  -16.4859 N   0  0  0  0  0  0  0  0  0  0  0  0
   29.2532  -24.0611  -17.2610 C   0  0  0  0  0  0  0  0  0  0  0  0
   28.8575  -23.6472  -18.6740 C   0  0  0  0  0  0  0  0  0  0  0  0
   28.7357  -22.1619  -18.5315 C   0  0  0  0  0  0  0  0  0  0  0  0
   28.7028  -21.9062  -17.0156 C   0  0  1  0  0  0  0  0  0  0  0  0
   27.7221  -20.8629  -16.7065 C   0  0  0  0  0  0  0  0  0  0  0  0
   28.1592  -19.7184  -16.3955 O   0  0  0  0  0  0  0  0  0  0  0  0
   23.1969  -18.0148  -16.7699 N   0  0  0  0  0  0  0  0  0  0  0  0
   23.4303  -18.9740  -17.8384 C   0  0  0  0  0  0  0  0  0  0  0  0
   22.6603  -18.8778  -18.8119 O   0  0  0  0  0  0  0  0  0  0  0  0
   24.4993  -19.9511  -17.7243 C   0  0  0  0  0  0  0  0  0  0  0  0
   25.3413  -20.0026  -16.5044 C   0  0  2  0  0  0  0  0  0  0  0  0
   26.3320  -21.1086  -16.7504 N   0  0  0  0  0  0  0  0  0  0  0  0
   24.6884  -20.3416  -15.2348 C   0  0  0  0  0  0  0  0  0  0  0  0
   24.2218  -21.5258  -15.1365 O   0  0  0  0  0  0  0  0  0  0  0  0
   24.4882  -19.5768  -14.0857 N   0  0  0  0  0  0  0  0  0  0  0  0
   23.8204  -20.0051  -12.8873 C   0  0  1  0  0  0  0  0  0  0  0  0
   24.0143  -19.2328  -11.6786 C   0  0  0  0  0  0  0  0  0  0  0  0
   23.3413  -19.7453  -10.4645 C   0  0  0  0  0  0  0  0  0  0  0  0
   24.0302  -20.4567   -9.4837 C   0  0  0  0  0  0  0  0  0  0  0  0
   23.4223  -20.9165   -8.3409 C   0  0  0  0  0  0  0  0  0  0  0  0
   22.0840  -20.6916   -8.1089 C   0  0  0  0  0  0  0  0  0  0  0  0
   21.3811  -19.9879   -9.0681 C   0  0  0  0  0  0  0  0  0  0  0  0
   21.9978  -19.5302  -10.2110 C   0  0  0  0  0  0  0  0  0  0  0  0
   22.3716  -20.0995  -13.1901 C   0  0  0  0  0  0  0  0  0  0  0  0
   21.7133  -19.2317  -13.8257 O   0  0  0  0  0  0  0  0  0  0  0  0
   21.6190  -21.2201  -12.7615 O   0  0  0  0  0  0  0  0  0  0  0  0
  2  1  1  0
  3  4  1  0
  3  2  1  0
  4  5  1  0
  5  6  1  6
  5  1  1  0
  6 13  1  0
  7  6  2  0
  9  8  1  0
 10  9  2  0
 11  9  1  0
 12 11  1  6
 12 14  1  0
 13 12  1  0
 14 16  1  0
 14 15  2  0
 16 17  1  0
 17 18  1  1
 18 19  1  0
 19 24  1  0
 20 19  2  0
 20 21  1  0
 21 22  2  0
 22 23  1  0
 24 23  2  0
 25 27  1  0
 25 17  1  0
 26 25  2  0
M  END
$$$$
