PNF.pdb
     RDKit          3D

 27 28  0  0  1  0  0  0  0  0999 V2000
   17.8812  -15.5665  -14.8409 N   0  0  0  0  0  0  0  0  0  0  0  0
   18.9079  -15.0006  -15.7317 C   0  0  0  0  0  0  0  0  0  0  0  0
   18.0814  -13.9242  -16.4263 C   0  0  0  0  0  0  0  0  0  0  0  0
   17.3046  -13.3527  -15.2813 C   0  0  0  0  0  0  0  0  0  0  0  0
   17.4686  -14.3690  -14.1390 C   0  0  1  0  0  0  0  0  0  0  0  0
   16.1992  -14.5270  -13.4252 C   0  0  0  0  0  0  0  0  0  0  0  0
   15.7831  -13.5486  -12.7418 O   0  0  0  0  0  0  0  0  0  0  0  0
   10.6856  -15.0945  -14.0939 N   0  0  0  0  0  0  0  0  0  0  0  0
   11.6947  -15.9212  -13.4501 C   0  0  0  0  0  0  0  0  0  0  0  0
   11.2576  -16.7305  -12.6111 O   0  0  0  0  0  0  0  0  0  0  0  0
   13.0965  -15.7707  -13.8002 C   0  0  0  0  0  0  0  0  0  0  0  0
   14.1445  -15.8602  -12.7545 C   0  0  2  0  0  0  0  0  0  0  0  0
   15.4518  -15.7238  -13.4878 N   0  0  0  0  0  0  0  0  0  0  0  0
   14.2528  -17.1128  -11.9979 C   0  0  0  0  0  0  0  0  0  0  0  0
   14.9747  -18.0280  -12.5184 O   0  0  0  0  0  0  0  0  0  0  0  0
   13.6935  -17.4848  -10.7756 N   0  0  0  0  0  0  0  0  0  0  0  0
   13.8162  -18.7692  -10.1424 C   0  0  1  0  0  0  0  0  0  0  0  0
   14.3493  -18.8248   -8.7979 C   0  0  0  0  0  0  0  0  0  0  0  0
   14.3268  -20.1521   -8.1438 C   0  0  0  0  0  0  0  0  0  0  0  0
   15.4094  -21.0272   -8.2135 C   0  0  0  0  0  0  0  0  0  0  0  0
   15.4104  -22.2515   -7.5905 C   0  0  0  0  0  0  0  0  0  0  0  0
   14.3251  -22.6759   -6.8574 C   0  0  0  0  0  0  0  0  0  0  0  0
   13.2403  -21.8240   -6.7745 C   0  0  0  0  0  0  0  0  0  0  0  0
   13.2471  -20.5983   -7.4018 C   0  0  0  0  0  0  0  0  0  0  0  0
   12.4818  -19.4154  -10.1755 C   0  0  0  0  0  0  0  0  0  0  0  0
   12.2842  -20.6438  -10.3819 O   0  0  0  0  0  0  0  0  0  0  0  0
   11.3076  -18.6515   -9.9676 O   0  0  0  0  0  0  0  0  0  0  0  0
  2  1  1  0
  3  4  1  0
  3  2  1  0
  4  5  1  0
  5  6  1  6
  5  1  1  0
  6 13  1  0
  7  6  2  0
  9  8  1  0
 10  9  2  0
 11  9  1  0
 12 11  1  6
 12 14  1  0
 13 12  1  0
 14 16  1  0
 14 15  2  0
 16 17  1  0
 17 18  1  1
 18 19  1  0
 19 24  1  0
 20 19  2  0
 20 21  1  0
 21 22  2  0
 22 23  1  0
 24 23  2  0
 25 27  1  0
 25 17  1  0
 26 25  2  0
M  END
$$$$
