PNF.pdb
     RDKit          3D

 27 28  0  0  1  0  0  0  0  0999 V2000
   28.6576  -19.2849  -17.3967 N   0  0  0  0  0  0  0  0  0  0  0  0
   29.6653  -18.8744  -18.3887 C   0  0  0  0  0  0  0  0  0  0  0  0
   29.2252  -17.4334  -18.6218 C   0  0  0  0  0  0  0  0  0  0  0  0
   28.9297  -16.9774  -17.2269 C   0  0  0  0  0  0  0  0  0  0  0  0
   28.8655  -18.2655  -16.3895 C   0  0  1  0  0  0  0  0  0  0  0  0
   27.7688  -18.1780  -15.4223 C   0  0  0  0  0  0  0  0  0  0  0  0
   27.8292  -17.2698  -14.5453 O   0  0  0  0  0  0  0  0  0  0  0  0
   22.7765  -18.8368  -13.4312 N   0  0  0  0  0  0  0  0  0  0  0  0
   22.9787  -18.7055  -14.8658 C   0  0  0  0  0  0  0  0  0  0  0  0
   21.9377  -18.5750  -15.5361 O   0  0  0  0  0  0  0  0  0  0  0  0
   24.3208  -18.7314  -15.4212 C   0  0  0  0  0  0  0  0  0  0  0  0
   25.4978  -18.8840  -14.5318 C   0  0  2  0  0  0  0  0  0  0  0  0
   26.6729  -19.0683  -15.4539 N   0  0  0  0  0  0  0  0  0  0  0  0
   25.5287  -20.0396  -13.6279 C   0  0  0  0  0  0  0  0  0  0  0  0
   25.7413  -21.1761  -14.1691 O   0  0  0  0  0  0  0  0  0  0  0  0
   25.3666  -20.1131  -12.2446 N   0  0  0  0  0  0  0  0  0  0  0  0
   25.2980  -21.3162  -11.4613 C   0  0  1  0  0  0  0  0  0  0  0  0
   26.4782  -21.7310  -10.7333 C   0  0  0  0  0  0  0  0  0  0  0  0
   26.8495  -20.8981   -9.5678 C   0  0  0  0  0  0  0  0  0  0  0  0
   28.1562  -20.8444   -9.0858 C   0  0  0  0  0  0  0  0  0  0  0  0
   28.5184  -20.0566   -8.0204 C   0  0  0  0  0  0  0  0  0  0  0  0
   27.5925  -19.2720   -7.3705 C   0  0  0  0  0  0  0  0  0  0  0  0
   26.2904  -19.3094   -7.8317 C   0  0  0  0  0  0  0  0  0  0  0  0
   25.9354  -20.1016   -8.9005 C   0  0  0  0  0  0  0  0  0  0  0  0
   24.1582  -21.1763  -10.5227 C   0  0  0  0  0  0  0  0  0  0  0  0
   23.4908  -20.1191  -10.3569 O   0  0  0  0  0  0  0  0  0  0  0  0
   23.7421  -22.2725   -9.7284 O   0  0  0  0  0  0  0  0  0  0  0  0
  2  1  1  0
  3  4  1  0
  3  2  1  0
  4  5  1  0
  5  6  1  1
  5  1  1  0
  6 13  1  0
  7  6  2  0
  9  8  1  0
 10  9  2  0
 11  9  1  0
 12 11  1  6
 12 14  1  0
 13 12  1  0
 14 16  1  0
 14 15  2  0
 16 17  1  0
 17 18  1  1
 18 19  1  0
 19 24  1  0
 20 19  2  0
 20 21  1  0
 21 22  2  0
 22 23  1  0
 24 23  2  0
 25 27  1  0
 25 17  1  0
 26 25  2  0
M  END
$$$$
