PNF.pdb
     RDKit          3D

 27 28  0  0  1  0  0  0  0  0999 V2000
   22.5250  -19.2837  -13.6364 N   0  0  0  0  0  0  0  0  0  0  0  0
   21.4387  -19.1039  -14.6138 C   0  0  0  0  0  0  0  0  0  0  0  0
   21.9201  -20.0474  -15.7105 C   0  0  0  0  0  0  0  0  0  0  0  0
   22.3832  -21.2270  -14.9135 C   0  0  0  0  0  0  0  0  0  0  0  0
   22.4741  -20.7207  -13.4643 C   0  0  1  0  0  0  0  0  0  0  0  0
   23.6700  -21.2672  -12.8187 C   0  0  0  0  0  0  0  0  0  0  0  0
   23.7214  -22.5170  -12.6375 O   0  0  0  0  0  0  0  0  0  0  0  0
   26.7667  -22.0882  -14.3975 N   0  0  0  0  0  0  0  0  0  0  0  0
   27.5016  -20.9762  -13.8146 C   0  0  0  0  0  0  0  0  0  0  0  0
   28.4496  -20.5520  -14.5012 O   0  0  0  0  0  0  0  0  0  0  0  0
   27.1130  -20.4394  -12.5219 C   0  0  0  0  0  0  0  0  0  0  0  0
   25.9737  -21.0284  -11.7769 C   0  0  2  0  0  0  0  0  0  0  0  0
   24.7394  -20.4414  -12.4071 N   0  0  0  0  0  0  0  0  0  0  0  0
   25.8604  -20.7252  -10.3457 C   0  0  0  0  0  0  0  0  0  0  0  0
   25.0234  -19.8166  -10.0239 O   0  0  0  0  0  0  0  0  0  0  0  0
   26.5218  -21.2746   -9.2475 N   0  0  0  0  0  0  0  0  0  0  0  0
   26.3406  -20.8978   -7.8724 C   0  0  1  0  0  0  0  0  0  0  0  0
   26.9411  -21.7252   -6.8479 C   0  0  0  0  0  0  0  0  0  0  0  0
   27.9682  -21.0735   -6.0051 C   0  0  0  0  0  0  0  0  0  0  0  0
   27.6900  -19.9346   -5.2513 C   0  0  0  0  0  0  0  0  0  0  0  0
   28.6276  -19.3348   -4.4463 C   0  0  0  0  0  0  0  0  0  0  0  0
   29.9045  -19.8396   -4.3459 C   0  0  0  0  0  0  0  0  0  0  0  0
   30.2026  -20.9688   -5.0845 C   0  0  0  0  0  0  0  0  0  0  0  0
   29.2571  -21.5643   -5.8890 C   0  0  0  0  0  0  0  0  0  0  0  0
   26.8138  -19.5002   -7.7238 C   0  0  0  0  0  0  0  0  0  0  0  0
   27.6981  -18.9616   -8.4438 O   0  0  0  0  0  0  0  0  0  0  0  0
   26.2722  -18.6605   -6.7201 O   0  0  0  0  0  0  0  0  0  0  0  0
  2  1  1  0
  3  4  1  0
  3  2  1  0
  4  5  1  0
  5  6  1  6
  5  1  1  0
  6 13  1  0
  7  6  2  0
  9  8  1  0
 10  9  2  0
 11  9  1  0
 12 11  1  6
 12 14  1  0
 13 12  1  0
 14 16  1  0
 14 15  2  0
 16 17  1  0
 17 18  1  1
 18 19  1  0
 19 24  1  0
 20 19  2  0
 20 21  1  0
 21 22  2  0
 22 23  1  0
 24 23  2  0
 25 27  1  0
 25 17  1  0
 26 25  2  0
M  END
$$$$
