PNF.pdb
     RDKit          3D

 27 28  0  0  1  0  0  0  0  0999 V2000
   27.9082  -19.1572  -15.9842 N   0  0  0  0  0  0  0  0  0  0  0  0
   28.7651  -18.1794  -16.6751 C   0  0  0  0  0  0  0  0  0  0  0  0
   29.0558  -18.9519  -17.9569 C   0  0  0  0  0  0  0  0  0  0  0  0
   27.7107  -19.5265  -18.2759 C   0  0  0  0  0  0  0  0  0  0  0  0
   26.8851  -19.3513  -16.9905 C   0  0  1  0  0  0  0  0  0  0  0  0
   26.0652  -20.5426  -16.7575 C   0  0  0  0  0  0  0  0  0  0  0  0
   25.1230  -20.7756  -17.5670 O   0  0  0  0  0  0  0  0  0  0  0  0
   26.8434  -25.8955  -16.4728 N   0  0  0  0  0  0  0  0  0  0  0  0
   26.9856  -24.4522  -16.3594 C   0  0  0  0  0  0  0  0  0  0  0  0
   27.6228  -23.9103  -17.2814 O   0  0  0  0  0  0  0  0  0  0  0  0
   26.4052  -23.7460  -15.2303 C   0  0  0  0  0  0  0  0  0  0  0  0
   25.4509  -22.6326  -15.4522 C   0  0  2  0  0  0  0  0  0  0  0  0
   26.3053  -21.4131  -15.6714 N   0  0  0  0  0  0  0  0  0  0  0  0
   24.5434  -22.2786  -14.3548 C   0  0  0  0  0  0  0  0  0  0  0  0
   24.8411  -22.7406  -13.2025 O   0  0  0  0  0  0  0  0  0  0  0  0
   23.3853  -21.5013  -14.3509 N   0  0  0  0  0  0  0  0  0  0  0  0
   22.6133  -21.1351  -13.1953 C   0  0  1  0  0  0  0  0  0  0  0  0
   23.0948  -20.0549  -12.3608 C   0  0  0  0  0  0  0  0  0  0  0  0
   24.1634  -20.4035  -11.3983 C   0  0  0  0  0  0  0  0  0  0  0  0
   23.8936  -20.6472  -10.0528 C   0  0  0  0  0  0  0  0  0  0  0  0
   24.8729  -20.9955   -9.1547 C   0  0  0  0  0  0  0  0  0  0  0  0
   26.1858  -21.1218   -9.5493 C   0  0  0  0  0  0  0  0  0  0  0  0
   26.4764  -20.8850  -10.8794 C   0  0  0  0  0  0  0  0  0  0  0  0
   25.4890  -20.5365  -11.7735 C   0  0  0  0  0  0  0  0  0  0  0  0
   21.2353  -20.8335  -13.6532 C   0  0  0  0  0  0  0  0  0  0  0  0
   20.9079  -20.6213  -14.8525 O   0  0  0  0  0  0  0  0  0  0  0  0
   20.1679  -20.7653  -12.7249 O   0  0  0  0  0  0  0  0  0  0  0  0
  2  1  1  0
  3  4  1  0
  3  2  1  0
  4  5  1  0
  5  6  1  1
  5  1  1  0
  6 13  1  0
  7  6  2  0
  9  8  1  0
 10  9  2  0
 11  9  1  0
 12 11  1  1
 12 14  1  0
 13 12  1  0
 14 16  1  0
 14 15  2  0
 16 17  1  0
 17 18  1  6
 18 19  1  0
 19 24  1  0
 20 19  2  0
 20 21  1  0
 21 22  2  0
 22 23  1  0
 24 23  2  0
 25 27  1  0
 25 17  1  0
 26 25  2  0
M  END
$$$$
