PNF.pdb
     RDKit          3D

 27 28  0  0  1  0  0  0  0  0999 V2000
   26.9404  -19.5960  -16.4582 N   0  0  0  0  0  0  0  0  0  0  0  0
   28.3778  -19.3379  -16.6453 C   0  0  0  0  0  0  0  0  0  0  0  0
   28.3682  -17.8134  -16.6437 C   0  0  0  0  0  0  0  0  0  0  0  0
   27.4216  -17.5175  -15.5224 C   0  0  0  0  0  0  0  0  0  0  0  0
   26.7067  -18.8493  -15.2396 C   0  0  1  0  0  0  0  0  0  0  0  0
   25.2865  -18.6070  -14.9748 C   0  0  0  0  0  0  0  0  0  0  0  0
   24.9882  -17.8913  -13.9766 O   0  0  0  0  0  0  0  0  0  0  0  0
   23.1490  -16.2630  -16.8141 N   0  0  0  0  0  0  0  0  0  0  0  0
   22.3773  -17.3064  -17.4713 C   0  0  0  0  0  0  0  0  0  0  0  0
   21.9035  -16.9942  -18.5795 O   0  0  0  0  0  0  0  0  0  0  0  0
   22.2046  -18.6005  -16.8342 C   0  0  0  0  0  0  0  0  0  0  0  0
   22.8189  -18.8735  -15.5121 C   0  0  2  0  0  0  0  0  0  0  0  0
   24.2716  -19.1456  -15.7962 N   0  0  0  0  0  0  0  0  0  0  0  0
   22.3440  -20.0431  -14.7641 C   0  0  0  0  0  0  0  0  0  0  0  0
   22.5379  -21.1810  -15.3094 O   0  0  0  0  0  0  0  0  0  0  0  0
   21.7054  -20.1301  -13.5272 N   0  0  0  0  0  0  0  0  0  0  0  0
   21.5079  -21.3273  -12.7568 C   0  0  1  0  0  0  0  0  0  0  0  0
   22.0023  -21.3593  -11.3968 C   0  0  0  0  0  0  0  0  0  0  0  0
   23.4211  -20.9818  -11.2117 C   0  0  0  0  0  0  0  0  0  0  0  0
   23.8143  -20.0260  -10.2765 C   0  0  0  0  0  0  0  0  0  0  0  0
   25.1299  -19.6847  -10.0781 C   0  0  0  0  0  0  0  0  0  0  0  0
   26.1355  -20.2808  -10.8053 C   0  0  0  0  0  0  0  0  0  0  0  0
   25.7687  -21.2319  -11.7382 C   0  0  0  0  0  0  0  0  0  0  0  0
   24.4476  -21.5686  -11.9311 C   0  0  0  0  0  0  0  0  0  0  0  0
   20.0565  -21.6324  -12.7657 C   0  0  0  0  0  0  0  0  0  0  0  0
   19.1555  -20.8243  -13.1199 O   0  0  0  0  0  0  0  0  0  0  0  0
   19.5868  -22.9049  -12.3584 O   0  0  0  0  0  0  0  0  0  0  0  0
  2  1  1  0
  3  4  1  0
  3  2  1  0
  4  5  1  0
  5  6  1  6
  5  1  1  0
  6 13  1  0
  7  6  2  0
  9  8  1  0
 10  9  2  0
 11  9  1  0
 12 11  1  6
 12 14  1  0
 13 12  1  0
 14 16  1  0
 14 15  2  0
 16 17  1  0
 17 18  1  1
 18 19  1  0
 19 24  1  0
 20 19  2  0
 20 21  1  0
 21 22  2  0
 22 23  1  0
 24 23  2  0
 25 27  1  0
 25 17  1  0
 26 25  2  0
M  END
$$$$
