PNF.pdb
     RDKit          3D

 27 28  0  0  1  0  0  0  0  0999 V2000
   20.7859  -11.8648  -16.8773 N   0  0  0  0  0  0  0  0  0  0  0  0
   21.1005  -13.2751  -17.1600 C   0  0  0  0  0  0  0  0  0  0  0  0
   20.7675  -13.3202  -18.6471 C   0  0  0  0  0  0  0  0  0  0  0  0
   21.3589  -12.0322  -19.1291 C   0  0  0  0  0  0  0  0  0  0  0  0
   21.6345  -11.2163  -17.8552 C   0  0  1  0  0  0  0  0  0  0  0  0
   21.2879   -9.8105  -18.0779 C   0  0  0  0  0  0  0  0  0  0  0  0
   21.9947   -9.1528  -18.8936 O   0  0  0  0  0  0  0  0  0  0  0  0
   18.4414   -5.2066  -18.0122 N   0  0  0  0  0  0  0  0  0  0  0  0
   17.7385   -6.4658  -18.2037 C   0  0  0  0  0  0  0  0  0  0  0  0
   16.5464   -6.3584  -18.5461 O   0  0  0  0  0  0  0  0  0  0  0  0
   18.4278   -7.7276  -17.9965 C   0  0  0  0  0  0  0  0  0  0  0  0
   19.8705   -7.7467  -17.6530 C   0  0  2  0  0  0  0  0  0  0  0  0
   20.2042   -9.1947  -17.4139 N   0  0  0  0  0  0  0  0  0  0  0  0
   20.2948   -7.0446  -16.4363 C   0  0  0  0  0  0  0  0  0  0  0  0
   19.7504   -7.4229  -15.3453 O   0  0  0  0  0  0  0  0  0  0  0  0
   21.2164   -6.0127  -16.2598 N   0  0  0  0  0  0  0  0  0  0  0  0
   21.6563   -5.4742  -15.0020 C   0  0  1  0  0  0  0  0  0  0  0  0
   23.0246   -5.7108  -14.5935 C   0  0  0  0  0  0  0  0  0  0  0  0
   23.4802   -7.1183  -14.6310 C   0  0  0  0  0  0  0  0  0  0  0  0
   23.0177   -8.0678  -13.7216 C   0  0  0  0  0  0  0  0  0  0  0  0
   23.4141   -9.3824  -13.7610 C   0  0  0  0  0  0  0  0  0  0  0  0
   24.3000   -9.8285  -14.7158 C   0  0  0  0  0  0  0  0  0  0  0  0
   24.7715   -8.9040  -15.6283 C   0  0  0  0  0  0  0  0  0  0  0  0
   24.3691   -7.5880  -15.5821 C   0  0  0  0  0  0  0  0  0  0  0  0
   21.3876   -4.0157  -15.0195 C   0  0  0  0  0  0  0  0  0  0  0  0
   21.0234   -3.3653  -16.0367 O   0  0  0  0  0  0  0  0  0  0  0  0
   21.5330   -3.2436  -13.8412 O   0  0  0  0  0  0  0  0  0  0  0  0
  2  1  1  0
  3  4  1  0
  3  2  1  0
  4  5  1  0
  5  6  1  6
  5  1  1  0
  6 13  1  0
  7  6  2  0
  9  8  1  0
 10  9  2  0
 11  9  1  0
 12 11  1  1
 12 14  1  0
 13 12  1  0
 14 16  1  0
 14 15  2  0
 16 17  1  0
 17 18  1  6
 18 19  1  0
 19 24  1  0
 20 19  2  0
 20 21  1  0
 21 22  2  0
 22 23  1  0
 24 23  2  0
 25 27  1  0
 25 17  1  0
 26 25  2  0
M  END
$$$$
