PNF.pdb
     RDKit          3D

 27 28  0  0  1  0  0  0  0  0999 V2000
   19.2340  -11.7792  -15.7660 N   0  0  0  0  0  0  0  0  0  0  0  0
   19.4476  -13.1686  -16.2037 C   0  0  0  0  0  0  0  0  0  0  0  0
   19.0719  -13.0358  -17.6753 C   0  0  0  0  0  0  0  0  0  0  0  0
   19.7331  -11.7435  -18.0413 C   0  0  0  0  0  0  0  0  0  0  0  0
   20.0963  -11.0853  -16.6998 C   0  0  1  0  0  0  0  0  0  0  0  0
   19.8367   -9.6451  -16.7640 C   0  0  0  0  0  0  0  0  0  0  0  0
   20.5655   -8.9497  -17.5274 O   0  0  0  0  0  0  0  0  0  0  0  0
   17.2557   -4.9206  -16.0347 N   0  0  0  0  0  0  0  0  0  0  0  0
   16.4371   -6.1211  -16.1054 C   0  0  0  0  0  0  0  0  0  0  0  0
   15.2094   -5.9208  -16.1572 O   0  0  0  0  0  0  0  0  0  0  0  0
   17.0609   -7.4330  -16.1122 C   0  0  0  0  0  0  0  0  0  0  0  0
   18.5386   -7.5609  -16.1158 C   0  0  2  0  0  0  0  0  0  0  0  0
   18.8111   -9.0371  -16.0069 N   0  0  0  0  0  0  0  0  0  0  0  0
   19.2825   -6.9463  -15.0104 C   0  0  0  0  0  0  0  0  0  0  0  0
   19.0291   -7.3911  -13.8410 O   0  0  0  0  0  0  0  0  0  0  0  0
   20.2463   -5.9381  -15.0162 N   0  0  0  0  0  0  0  0  0  0  0  0
   21.0237   -5.5012  -13.8891 C   0  0  1  0  0  0  0  0  0  0  0  0
   22.1772   -6.2861  -13.5037 C   0  0  0  0  0  0  0  0  0  0  0  0
   23.0764   -6.7033  -14.6024 C   0  0  0  0  0  0  0  0  0  0  0  0
   23.7569   -5.7770  -15.3908 C   0  0  0  0  0  0  0  0  0  0  0  0
   24.6131   -6.1518  -16.3975 C   0  0  0  0  0  0  0  0  0  0  0  0
   24.8414   -7.4803  -16.6774 C   0  0  0  0  0  0  0  0  0  0  0  0
   24.1773   -8.4164  -15.9079 C   0  0  0  0  0  0  0  0  0  0  0  0
   23.3208   -8.0326  -14.9005 C   0  0  0  0  0  0  0  0  0  0  0  0
   21.4384   -4.1006  -14.1455 C   0  0  0  0  0  0  0  0  0  0  0  0
   22.0304   -3.3632  -13.3111 O   0  0  0  0  0  0  0  0  0  0  0  0
   21.1789   -3.4917  -15.3976 O   0  0  0  0  0  0  0  0  0  0  0  0
  2  1  1  0
  3  4  1  0
  3  2  1  0
  4  5  1  0
  5  6  1  6
  5  1  1  0
  6 13  1  0
  7  6  2  0
  9  8  1  0
 10  9  2  0
 11  9  1  0
 12 11  1  1
 12 14  1  0
 13 12  1  0
 14 16  1  0
 14 15  2  0
 16 17  1  0
 17 18  1  6
 18 19  1  0
 19 24  1  0
 20 19  2  0
 20 21  1  0
 21 22  2  0
 22 23  1  0
 24 23  2  0
 25 27  1  0
 25 17  1  0
 26 25  2  0
M  END
$$$$
