PNF.pdb
     RDKit          3D

 27 28  0  0  1  0  0  0  0  0999 V2000
   27.4902  -20.6762  -14.9991 N   0  0  0  0  0  0  0  0  0  0  0  0
   28.2619  -20.2767  -16.1877 C   0  0  0  0  0  0  0  0  0  0  0  0
   27.9340  -18.7881  -16.2195 C   0  0  0  0  0  0  0  0  0  0  0  0
   28.0397  -18.4237  -14.7713 C   0  0  0  0  0  0  0  0  0  0  0  0
   28.0459  -19.7654  -14.0200 C   0  0  1  0  0  0  0  0  0  0  0  0
   27.2354  -19.6605  -12.8043 C   0  0  0  0  0  0  0  0  0  0  0  0
   27.4070  -18.6471  -12.0688 O   0  0  0  0  0  0  0  0  0  0  0  0
   22.6658  -21.5614  -13.7453 N   0  0  0  0  0  0  0  0  0  0  0  0
   23.0814  -20.7644  -12.6016 C   0  0  0  0  0  0  0  0  0  0  0  0
   22.4912  -19.6756  -12.4741 O   0  0  0  0  0  0  0  0  0  0  0  0
   24.1153  -21.2532  -11.7057 C   0  0  0  0  0  0  0  0  0  0  0  0
   25.2779  -20.3978  -11.3643 C   0  0  2  0  0  0  0  0  0  0  0  0
   26.2891  -20.6476  -12.4507 N   0  0  0  0  0  0  0  0  0  0  0  0
   25.9837  -20.6703  -10.1071 C   0  0  0  0  0  0  0  0  0  0  0  0
   26.6652  -21.7489  -10.0626 O   0  0  0  0  0  0  0  0  0  0  0  0
   26.0446  -19.9346   -8.9237 N   0  0  0  0  0  0  0  0  0  0  0  0
   26.8242  -20.2607   -7.7612 C   0  0  1  0  0  0  0  0  0  0  0  0
   27.5347  -19.1941   -7.0883 C   0  0  0  0  0  0  0  0  0  0  0  0
   28.2285  -19.5647   -5.8349 C   0  0  0  0  0  0  0  0  0  0  0  0
   27.7052  -19.2513   -4.5816 C   0  0  0  0  0  0  0  0  0  0  0  0
   28.3272  -19.6110   -3.4109 C   0  0  0  0  0  0  0  0  0  0  0  0
   29.5142  -20.3084   -3.4227 C   0  0  0  0  0  0  0  0  0  0  0  0
   30.0514  -20.6301   -4.6546 C   0  0  0  0  0  0  0  0  0  0  0  0
   29.4216  -20.2661   -5.8237 C   0  0  0  0  0  0  0  0  0  0  0  0
   25.9290  -20.9468   -6.7983 C   0  0  0  0  0  0  0  0  0  0  0  0
   26.3203  -21.7043   -5.8689 O   0  0  0  0  0  0  0  0  0  0  0  0
   24.5249  -20.7789   -6.8766 O   0  0  0  0  0  0  0  0  0  0  0  0
  2  1  1  0
  3  4  1  0
  3  2  1  0
  4  5  1  0
  5  6  1  1
  5  1  1  0
  6 13  1  0
  7  6  2  0
  9  8  1  0
 10  9  2  0
 11  9  1  0
 12 11  1  6
 12 14  1  0
 13 12  1  0
 14 16  1  0
 14 15  2  0
 16 17  1  0
 17 18  1  1
 18 19  1  0
 19 24  1  0
 20 19  2  0
 20 21  1  0
 21 22  2  0
 22 23  1  0
 24 23  2  0
 25 27  1  0
 25 17  1  0
 26 25  2  0
M  END
$$$$
