QRC.pdb
     RDKit          3D

 27 26  0  0  1  0  0  0  0  0999 V2000
   15.2473  -14.9579   18.9651 N   0  0  0  0  0  0  0  0  0  0  0  0
   13.9922  -15.3062   18.4020 C   0  0  0  0  0  0  0  0  0  0  0  0
   13.7380  -14.8861   17.2451 O   0  0  0  0  0  0  0  0  0  0  0  0
   13.0592  -16.1378   19.2001 C   0  0  0  0  0  0  0  0  0  0  0  0
   12.9125  -15.5904   20.6030 C   0  0  0  0  0  0  0  0  0  0  0  0
   11.9470  -16.3982   21.4248 C   0  0  2  0  0  0  0  0  0  0  0  0
   11.1604  -17.2585   20.5736 N   0  0  0  0  0  0  0  0  0  0  0  0
   11.0901  -15.5429   22.2935 C   0  0  0  0  0  0  0  0  0  0  0  0
   11.6353  -14.7973   23.1474 O   0  0  0  0  0  0  0  0  0  0  0  0
    8.0830  -11.8360   18.4677 N   0  0  0  0  0  0  0  0  0  0  0  0
    7.8457  -13.0627   17.7886 C   0  0  0  0  0  0  0  0  0  0  0  0
    8.2890  -13.2171   16.6084 N   0  0  0  0  0  0  0  0  0  0  0  0
    7.1090  -14.1159   18.4266 N   0  0  0  0  0  0  0  0  0  0  0  0
    6.6832  -14.0402   19.8159 C   0  0  0  0  0  0  0  0  0  0  0  0
    7.9303  -14.1005   20.6703 C   0  0  0  0  0  0  0  0  0  0  0  0
    7.6180  -14.2313   22.1417 C   0  0  0  0  0  0  0  0  0  0  0  0
    8.7936  -14.6461   22.9429 C   0  0  2  0  0  0  0  0  0  0  0  0
    9.6831  -15.5238   22.2097 N   0  0  0  0  0  0  0  0  0  0  0  0
    8.4943  -15.2921   24.2200 C   0  0  0  0  0  0  0  0  0  0  0  0
    7.5415  -14.8523   24.9054 O   0  0  0  0  0  0  0  0  0  0  0  0
    8.1860  -14.1204   16.1143 N   0  0  0  0  0  0  0  0  0  0  0  0
    9.2050  -16.3932   24.7574 C   0  0  2  0  0  0  0  0  0  0  0  0
    8.8290  -17.0904   25.9448 C   0  0  0  0  0  0  0  0  0  0  0  0
    7.4527  -17.7366   25.8137 S   0  0  0  0  0  0  0  0  0  0  0  0
    7.0546  -18.6798   27.2994 C   0  0  0  0  0  0  0  0  0  0  0  0
    9.8542  -18.1078   26.2869 O   0  0  0  0  0  0  0  0  0  0  0  0
    9.8734  -18.7735   27.5011 O   0  0  0  0  0  0  0  0  0  0  0  0
  2  1  1  0
  3  2  2  0
  4  2  1  0
  5  4  1  0
  6  8  1  0
  6  5  1  0
  6  7  1  6
  8  9  2  0
 11 12  2  0
 11 10  1  0
 13 11  1  0
 14 13  1  0
 15 14  1  0
 16 15  1  0
 17 16  1  6
 18 17  1  0
 18  8  1  0
 19 17  1  0
 20 19  2  0
 21 19  1  0
 22 23  1  1
 22 21  1  0
 23 24  1  0
 25 26  1  0
 25 22  1  0
 27 25  2  0
M  END
$$$$
