QRC.pdb
     RDKit          3D

 27 26  0  0  1  0  0  0  0  0999 V2000
    5.4949  -21.3114   27.9727 N   0  0  0  0  0  0  0  0  0  0  0  0
    6.8772  -21.6179   27.8777 C   0  0  0  0  0  0  0  0  0  0  0  0
    7.3250  -22.5205   28.6289 O   0  0  0  0  0  0  0  0  0  0  0  0
    7.7090  -20.8651   26.9078 C   0  0  0  0  0  0  0  0  0  0  0  0
    6.8676  -19.8836   26.1217 C   0  0  0  0  0  0  0  0  0  0  0  0
    7.1348  -19.9691   24.6447 C   0  0  2  0  0  0  0  0  0  0  0  0
    7.8915  -21.1597   24.3395 N   0  0  0  0  0  0  0  0  0  0  0  0
    7.7947  -18.7415   24.1174 C   0  0  0  0  0  0  0  0  0  0  0  0
    9.0487  -18.7136   24.0219 O   0  0  0  0  0  0  0  0  0  0  0  0
    9.1121  -14.0244   18.2692 N   0  0  0  0  0  0  0  0  0  0  0  0
    8.7720  -12.8838   19.0475 C   0  0  0  0  0  0  0  0  0  0  0  0
    9.4697  -11.8276   18.9427 N   0  0  0  0  0  0  0  0  0  0  0  0
    7.6545  -12.9245   19.9467 N   0  0  0  0  0  0  0  0  0  0  0  0
    7.0506  -14.1735   20.3856 C   0  0  0  0  0  0  0  0  0  0  0  0
    7.3115  -14.2993   21.8705 C   0  0  0  0  0  0  0  0  0  0  0  0
    6.6884  -15.5398   22.4645 C   0  0  0  0  0  0  0  0  0  0  0  0
    7.6549  -16.3517   23.2407 C   0  0  2  0  0  0  0  0  0  0  0  0
    7.0810  -17.5947   23.7148 N   0  0  0  0  0  0  0  0  0  0  0  0
    8.2651  -15.6839   24.3895 C   0  0  0  0  0  0  0  0  0  0  0  0
    7.6073  -14.8011   24.9886 O   0  0  0  0  0  0  0  0  0  0  0  0
    9.2276  -10.9740   19.4751 N   0  0  0  0  0  0  0  0  0  0  0  0
    9.5619  -15.9559   24.8903 C   0  0  1  0  0  0  0  0  0  0  0  0
   10.1358  -15.3118   26.0274 C   0  0  0  0  0  0  0  0  0  0  0  0
    9.2001  -15.3445   27.2326 S   0  0  0  0  0  0  0  0  0  0  0  0
    9.2969  -13.7931   28.1485 C   0  0  0  0  0  0  0  0  0  0  0  0
   11.4416  -15.9330   26.3621 O   0  0  0  0  0  0  0  0  0  0  0  0
   11.8906  -17.1004   25.7675 O   0  0  0  0  0  0  0  0  0  0  0  0
  2  1  1  0
  3  2  2  0
  4  2  1  0
  5  4  1  0
  6  8  1  0
  6  5  1  0
  6  7  1  1
  8  9  2  0
 11 12  2  0
 11 10  1  0
 13 11  1  0
 14 13  1  0
 15 14  1  0
 16 15  1  0
 17 16  1  1
 18 17  1  0
 18  8  1  0
 19 17  1  0
 20 19  2  0
 21 19  1  0
 22 23  1  1
 22 21  1  0
 23 24  1  0
 25 26  1  0
 25 22  1  0
 27 25  2  0
M  END
$$$$
