QRC.pdb
     RDKit          3D

 27 26  0  0  1  0  0  0  0  0999 V2000
    9.4835  -13.1947   17.0568 N   0  0  0  0  0  0  0  0  0  0  0  0
    8.0740  -13.3580   17.0410 C   0  0  0  0  0  0  0  0  0  0  0  0
    7.3987  -12.5138   16.4000 O   0  0  0  0  0  0  0  0  0  0  0  0
    7.4809  -14.5030   17.7734 C   0  0  0  0  0  0  0  0  0  0  0  0
    7.3364  -14.1861   19.2459 C   0  0  0  0  0  0  0  0  0  0  0  0
    8.6107  -14.4357   20.0035 C   0  0  2  0  0  0  0  0  0  0  0  0
    9.4646  -15.3365   19.2668 N   0  0  0  0  0  0  0  0  0  0  0  0
    8.3586  -14.9193   21.3903 C   0  0  0  0  0  0  0  0  0  0  0  0
    7.5524  -14.2888   22.1214 O   0  0  0  0  0  0  0  0  0  0  0  0
    8.9427  -23.1989   21.9187 N   0  0  0  0  0  0  0  0  0  0  0  0
    7.9877  -22.4179   21.2114 C   0  0  0  0  0  0  0  0  0  0  0  0
    7.2273  -22.9810   20.3641 N   0  0  0  0  0  0  0  0  0  0  0  0
    7.8851  -21.0063   21.4475 N   0  0  0  0  0  0  0  0  0  0  0  0
    8.7362  -20.3102   22.4006 C   0  0  0  0  0  0  0  0  0  0  0  0
    8.3117  -18.8580   22.4026 C   0  0  0  0  0  0  0  0  0  0  0  0
    9.1112  -18.0227   23.3735 C   0  0  0  0  0  0  0  0  0  0  0  0
    8.8020  -16.5768   23.2760 C   0  0  2  0  0  0  0  0  0  0  0  0
    8.9832  -16.0596   21.9348 N   0  0  0  0  0  0  0  0  0  0  0  0
    9.5458  -15.7067   24.1859 C   0  0  0  0  0  0  0  0  0  0  0  0
   10.1899  -14.7458   23.7036 O   0  0  0  0  0  0  0  0  0  0  0  0
    6.5361  -22.4340   19.8221 N   0  0  0  0  0  0  0  0  0  0  0  0
    9.6007  -15.8628   25.5926 C   0  0  2  0  0  0  0  0  0  0  0  0
    9.6408  -14.7791   26.5206 C   0  0  0  0  0  0  0  0  0  0  0  0
    8.5075  -13.7848   26.2839 S   0  0  0  0  0  0  0  0  0  0  0  0
    8.6198  -12.4114   27.4485 C   0  0  0  0  0  0  0  0  0  0  0  0
    9.6016  -15.2953   27.9117 O   0  0  0  0  0  0  0  0  0  0  0  0
   10.3317  -14.7276   28.9426 O   0  0  0  0  0  0  0  0  0  0  0  0
  2  1  1  0
  3  2  2  0
  4  2  1  0
  5  4  1  0
  6  8  1  0
  6  5  1  0
  6  7  1  6
  8  9  2  0
 11 12  2  0
 11 10  1  0
 13 11  1  0
 14 13  1  0
 15 14  1  0
 16 15  1  0
 17 16  1  6
 18 17  1  0
 18  8  1  0
 19 17  1  0
 20 19  2  0
 21 19  1  0
 22 23  1  6
 22 21  1  0
 23 24  1  0
 25 26  1  0
 25 22  1  0
 27 25  2  0
M  END
$$$$
