QRC.pdb
     RDKit          3D

 27 26  0  0  1  0  0  0  0  0999 V2000
    7.8176  -12.0836   19.0154 N   0  0  0  0  0  0  0  0  0  0  0  0
    8.1192  -13.0308   18.0026 C   0  0  0  0  0  0  0  0  0  0  0  0
    8.6086  -12.5974   16.9293 O   0  0  0  0  0  0  0  0  0  0  0  0
    7.8436  -14.4645   18.2629 C   0  0  0  0  0  0  0  0  0  0  0  0
    7.1853  -14.6519   19.6123 C   0  0  0  0  0  0  0  0  0  0  0  0
    7.0661  -16.1037   19.9841 C   0  0  2  0  0  0  0  0  0  0  0  0
    5.9827  -16.7209   19.2570 N   0  0  0  0  0  0  0  0  0  0  0  0
    6.9313  -16.3016   21.4549 C   0  0  0  0  0  0  0  0  0  0  0  0
    5.7934  -16.2098   21.9831 O   0  0  0  0  0  0  0  0  0  0  0  0
    7.6544  -21.7076   27.0274 N   0  0  0  0  0  0  0  0  0  0  0  0
    8.1573  -20.7501   27.9507 C   0  0  0  0  0  0  0  0  0  0  0  0
    7.8406  -20.8415   29.1773 N   0  0  0  0  0  0  0  0  0  0  0  0
    9.0109  -19.6872   27.5027 N   0  0  0  0  0  0  0  0  0  0  0  0
    9.3286  -19.4804   26.0979 C   0  0  0  0  0  0  0  0  0  0  0  0
    8.6325  -18.2092   25.6639 C   0  0  0  0  0  0  0  0  0  0  0  0
    8.7125  -17.9857   24.1728 C   0  0  0  0  0  0  0  0  0  0  0  0
    7.9710  -16.7805   23.7329 C   0  0  2  0  0  0  0  0  0  0  0  0
    8.0238  -16.5894   22.2977 N   0  0  0  0  0  0  0  0  0  0  0  0
    8.3773  -15.5228   24.3583 C   0  0  0  0  0  0  0  0  0  0  0  0
    8.6549  -14.5487   23.6201 O   0  0  0  0  0  0  0  0  0  0  0  0
    8.1764  -20.1475   29.8675 N   0  0  0  0  0  0  0  0  0  0  0  0
    8.4862  -15.3101   25.7544 C   0  0  2  0  0  0  0  0  0  0  0  0
    8.7491  -14.0428   26.3563 C   0  0  0  0  0  0  0  0  0  0  0  0
    7.6706  -13.0174   26.0180 S   0  0  0  0  0  0  0  0  0  0  0  0
    6.1062  -13.4676   26.7959 C   0  0  0  0  0  0  0  0  0  0  0  0
    8.8850  -14.1933   27.8267 O   0  0  0  0  0  0  0  0  0  0  0  0
    8.7104  -15.4043   28.4754 O   0  0  0  0  0  0  0  0  0  0  0  0
  2  1  1  0
  3  2  2  0
  4  2  1  0
  5  4  1  0
  6  8  1  0
  6  5  1  0
  6  7  1  6
  8  9  2  0
 11 12  2  0
 11 10  1  0
 13 11  1  0
 14 13  1  0
 15 14  1  0
 16 15  1  0
 17 16  1  6
 18 17  1  0
 18  8  1  0
 19 17  1  0
 20 19  2  0
 21 19  1  0
 22 23  1  6
 22 21  1  0
 23 24  1  0
 25 26  1  0
 25 22  1  0
 27 25  2  0
M  END
$$$$
