QRC.pdb
     RDKit          3D

 27 26  0  0  1  0  0  0  0  0999 V2000
    6.5932  -19.3200   28.0392 N   0  0  0  0  0  0  0  0  0  0  0  0
    6.3887  -20.4418   27.1946 C   0  0  0  0  0  0  0  0  0  0  0  0
    6.1020  -21.5362   27.7418 O   0  0  0  0  0  0  0  0  0  0  0  0
    6.5227  -20.2638   25.7284 C   0  0  0  0  0  0  0  0  0  0  0  0
    6.7664  -18.8117   25.3804 C   0  0  0  0  0  0  0  0  0  0  0  0
    6.8156  -18.5891   23.8944 C   0  0  2  0  0  0  0  0  0  0  0  0
    7.0968  -19.8286   23.2101 N   0  0  0  0  0  0  0  0  0  0  0  0
    7.7764  -17.5152   23.5149 C   0  0  0  0  0  0  0  0  0  0  0  0
    8.9958  -17.7993   23.3945 O   0  0  0  0  0  0  0  0  0  0  0  0
    7.6181  -15.4111   18.0929 N   0  0  0  0  0  0  0  0  0  0  0  0
    7.8779  -14.0393   17.8228 C   0  0  0  0  0  0  0  0  0  0  0  0
    8.4380  -13.7148   16.7301 N   0  0  0  0  0  0  0  0  0  0  0  0
    7.5158  -13.0297   18.7761 N   0  0  0  0  0  0  0  0  0  0  0  0
    6.8196  -13.3400   20.0155 C   0  0  0  0  0  0  0  0  0  0  0  0
    7.7171  -14.2587   20.8152 C   0  0  0  0  0  0  0  0  0  0  0  0
    7.6697  -13.9689   22.2963 C   0  0  0  0  0  0  0  0  0  0  0  0
    8.2756  -15.0478   23.1115 C   0  0  2  0  0  0  0  0  0  0  0  0
    7.3881  -16.1805   23.2808 N   0  0  0  0  0  0  0  0  0  0  0  0
    8.7414  -14.6530   24.4401 C   0  0  0  0  0  0  0  0  0  0  0  0
    8.2192  -13.6526   24.9855 O   0  0  0  0  0  0  0  0  0  0  0  0
    8.6775  -12.7290   16.5261 N   0  0  0  0  0  0  0  0  0  0  0  0
    9.7527  -15.3187   25.1752 C   0  0  1  0  0  0  0  0  0  0  0  0
   10.0550  -15.0566   26.5453 C   0  0  0  0  0  0  0  0  0  0  0  0
    8.8483  -15.2919   27.4495 S   0  0  0  0  0  0  0  0  0  0  0  0
    8.8820  -14.1595   28.8537 C   0  0  0  0  0  0  0  0  0  0  0  0
   11.2060  -15.8856   26.9827 O   0  0  0  0  0  0  0  0  0  0  0  0
   12.0365  -15.5220   28.0296 O   0  0  0  0  0  0  0  0  0  0  0  0
  2  1  1  0
  3  2  2  0
  4  2  1  0
  5  4  1  0
  6  8  1  0
  6  5  1  0
  6  7  1  6
  8  9  2  0
 11 12  2  0
 11 10  1  0
 13 11  1  0
 14 13  1  0
 15 14  1  0
 16 15  1  0
 17 16  1  1
 18 17  1  0
 18  8  1  0
 19 17  1  0
 20 19  2  0
 21 19  1  0
 22 23  1  1
 22 21  1  0
 23 24  1  0
 25 26  1  0
 25 22  1  0
 27 25  2  0
M  END
$$$$
