QRC.pdb
     RDKit          3D

 27 26  0  0  1  0  0  0  0  0999 V2000
    7.2899  -11.8477   26.7221 N   0  0  0  0  0  0  0  0  0  0  0  0
    6.1894  -12.6094   27.1936 C   0  0  0  0  0  0  0  0  0  0  0  0
    5.4897  -12.1122   28.1117 O   0  0  0  0  0  0  0  0  0  0  0  0
    5.9274  -13.9358   26.5844 C   0  0  0  0  0  0  0  0  0  0  0  0
    6.9357  -14.2401   25.4981 C   0  0  0  0  0  0  0  0  0  0  0  0
    6.5502  -15.4511   24.6949 C   0  0  2  0  0  0  0  0  0  0  0  0
    6.2826  -16.5686   25.5683 N   0  0  0  0  0  0  0  0  0  0  0  0
    7.5653  -15.7882   23.6573 C   0  0  0  0  0  0  0  0  0  0  0  0
    8.0868  -16.9328   23.6603 O   0  0  0  0  0  0  0  0  0  0  0  0
    9.6518  -14.6302   17.5082 N   0  0  0  0  0  0  0  0  0  0  0  0
    8.4300  -14.2564   16.8838 C   0  0  0  0  0  0  0  0  0  0  0  0
    8.1365  -14.7433   15.7480 N   0  0  0  0  0  0  0  0  0  0  0  0
    7.5376  -13.3347   17.5266 N   0  0  0  0  0  0  0  0  0  0  0  0
    7.7812  -12.8161   18.8641 C   0  0  0  0  0  0  0  0  0  0  0  0
    7.8063  -14.0001   19.8056 C   0  0  0  0  0  0  0  0  0  0  0  0
    9.0621  -14.0474   20.6426 C   0  0  0  0  0  0  0  0  0  0  0  0
    9.0212  -15.1059   21.6788 C   0  0  2  0  0  0  0  0  0  0  0  0
    7.9787  -14.8821   22.6598 N   0  0  0  0  0  0  0  0  0  0  0  0
   10.2692  -15.3280   22.4077 C   0  0  0  0  0  0  0  0  0  0  0  0
   10.5962  -14.5102   23.2993 O   0  0  0  0  0  0  0  0  0  0  0  0
    7.2725  -14.4601   15.2539 N   0  0  0  0  0  0  0  0  0  0  0  0
   11.1559  -16.4099   22.1853 C   0  0  2  0  0  0  0  0  0  0  0  0
   12.0647  -16.9180   23.1617 C   0  0  0  0  0  0  0  0  0  0  0  0
   11.3460  -17.3559   24.4348 S   0  0  0  0  0  0  0  0  0  0  0  0
   12.5289  -17.5979   25.7754 C   0  0  0  0  0  0  0  0  0  0  0  0
   12.8515  -18.0407   22.5927 O   0  0  0  0  0  0  0  0  0  0  0  0
   14.2054  -18.2046   22.8331 O   0  0  0  0  0  0  0  0  0  0  0  0
  2  1  1  0
  3  2  2  0
  4  2  1  0
  5  4  1  0
  6  8  1  0
  6  5  1  0
  6  7  1  1
  8  9  2  0
 11 12  2  0
 11 10  1  0
 13 11  1  0
 14 13  1  0
 15 14  1  0
 16 15  1  0
 17 16  1  6
 18 17  1  0
 18  8  1  0
 19 17  1  0
 20 19  2  0
 21 19  1  0
 22 23  1  1
 22 21  1  0
 23 24  1  0
 25 26  1  0
 25 22  1  0
 27 25  2  0
M  END
$$$$
