QRC.pdb
     RDKit          3D

 27 26  0  0  1  0  0  0  0  0999 V2000
    9.9916  -20.2890   16.0626 N   0  0  0  0  0  0  0  0  0  0  0  0
   11.0274  -19.3268   15.9402 C   0  0  0  0  0  0  0  0  0  0  0  0
   11.2107  -18.8114   14.8087 O   0  0  0  0  0  0  0  0  0  0  0  0
   11.8284  -18.9853   17.1406 C   0  0  0  0  0  0  0  0  0  0  0  0
   11.4224  -19.8392   18.3219 C   0  0  0  0  0  0  0  0  0  0  0  0
   12.1343  -19.4325   19.5820 C   0  0  2  0  0  0  0  0  0  0  0  0
   11.7875  -20.3225   20.6642 N   0  0  0  0  0  0  0  0  0  0  0  0
   11.8878  -18.0061   19.9358 C   0  0  0  0  0  0  0  0  0  0  0  0
   12.7680  -17.1481   19.6683 O   0  0  0  0  0  0  0  0  0  0  0  0
    8.4818  -11.6946   19.4753 N   0  0  0  0  0  0  0  0  0  0  0  0
    7.8407  -12.7964   18.8451 C   0  0  0  0  0  0  0  0  0  0  0  0
    7.7768  -12.8379   17.5772 N   0  0  0  0  0  0  0  0  0  0  0  0
    7.2666  -13.8503   19.6317 N   0  0  0  0  0  0  0  0  0  0  0  0
    7.4039  -13.9078   21.0791 C   0  0  0  0  0  0  0  0  0  0  0  0
    8.8069  -14.3893   21.3769 C   0  0  0  0  0  0  0  0  0  0  0  0
    9.0799  -15.7623   20.8109 C   0  0  0  0  0  0  0  0  0  0  0  0
   10.4611  -16.2282   21.0774 C   0  0  2  0  0  0  0  0  0  0  0  0
   10.7067  -17.5600   20.5624 N   0  0  0  0  0  0  0  0  0  0  0  0
   10.8743  -16.2171   22.4799 C   0  0  0  0  0  0  0  0  0  0  0  0
    9.9946  -16.3345   23.3649 O   0  0  0  0  0  0  0  0  0  0  0  0
    7.3301  -13.6352   17.0919 N   0  0  0  0  0  0  0  0  0  0  0  0
   12.2105  -16.0813   22.9300 C   0  0  1  0  0  0  0  0  0  0  0  0
   12.6511  -16.4035   24.2489 C   0  0  0  0  0  0  0  0  0  0  0  0
   12.1465  -17.7716   24.6992 S   0  0  0  0  0  0  0  0  0  0  0  0
   12.4935  -18.0264   26.4514 C   0  0  0  0  0  0  0  0  0  0  0  0
   14.1323  -16.3420   24.3226 O   0  0  0  0  0  0  0  0  0  0  0  0
   14.9530  -16.8040   23.3073 O   0  0  0  0  0  0  0  0  0  0  0  0
  2  1  1  0
  3  2  2  0
  4  2  1  0
  5  4  1  0
  6  8  1  0
  6  5  1  0
  6  7  1  1
  8  9  2  0
 11 12  2  0
 11 10  1  0
 13 11  1  0
 14 13  1  0
 15 14  1  0
 16 15  1  0
 17 16  1  1
 18 17  1  0
 18  8  1  0
 19 17  1  0
 20 19  2  0
 21 19  1  0
 22 23  1  1
 22 21  1  0
 23 24  1  0
 25 26  1  0
 25 22  1  0
 27 25  2  0
M  END
$$$$
