QRC.pdb
     RDKit          3D

 27 26  0  0  1  0  0  0  0  0999 V2000
    7.6847  -12.5937   17.5911 N   0  0  0  0  0  0  0  0  0  0  0  0
    7.8383  -13.7171   16.7378 C   0  0  0  0  0  0  0  0  0  0  0  0
    7.3673  -13.6325   15.5757 O   0  0  0  0  0  0  0  0  0  0  0  0
    8.5386  -14.9165   17.2578 C   0  0  0  0  0  0  0  0  0  0  0  0
    8.0437  -15.2733   18.6424 C   0  0  0  0  0  0  0  0  0  0  0  0
    8.6332  -16.5653   19.1356 C   0  0  2  0  0  0  0  0  0  0  0  0
    8.0664  -17.6821   18.4180 N   0  0  0  0  0  0  0  0  0  0  0  0
    8.4927  -16.7244   20.6106 C   0  0  0  0  0  0  0  0  0  0  0  0
    7.4631  -17.2816   21.0709 O   0  0  0  0  0  0  0  0  0  0  0  0
   11.1741  -17.6819   28.2679 N   0  0  0  0  0  0  0  0  0  0  0  0
   11.2422  -18.9640   27.6565 C   0  0  0  0  0  0  0  0  0  0  0  0
   10.9998  -19.9991   28.3514 N   0  0  0  0  0  0  0  0  0  0  0  0
   11.5855  -19.0901   26.2689 N   0  0  0  0  0  0  0  0  0  0  0  0
   11.9743  -17.9491   25.4540 C   0  0  0  0  0  0  0  0  0  0  0  0
   10.7016  -17.2996   24.9567 C   0  0  0  0  0  0  0  0  0  0  0  0
   10.6699  -17.1648   23.4531 C   0  0  0  0  0  0  0  0  0  0  0  0
    9.4454  -16.4891   22.9636 C   0  0  2  0  0  0  0  0  0  0  0  0
    9.4631  -16.2781   21.5303 N   0  0  0  0  0  0  0  0  0  0  0  0
    9.1352  -15.2058   23.5921 C   0  0  0  0  0  0  0  0  0  0  0  0
    9.1131  -14.1775   22.8759 O   0  0  0  0  0  0  0  0  0  0  0  0
   11.0441  -20.9444   27.9328 N   0  0  0  0  0  0  0  0  0  0  0  0
    8.8534  -15.0246   24.9684 C   0  0  2  0  0  0  0  0  0  0  0  0
    8.3323  -13.8204   25.5304 C   0  0  0  0  0  0  0  0  0  0  0  0
    6.9990  -13.4285   24.8998 S   0  0  0  0  0  0  0  0  0  0  0  0
    6.2345  -12.0824   25.8267 C   0  0  0  0  0  0  0  0  0  0  0  0
    8.1941  -13.9607   27.0016 O   0  0  0  0  0  0  0  0  0  0  0  0
    8.4140  -15.1566   27.6643 O   0  0  0  0  0  0  0  0  0  0  0  0
  2  1  1  0
  3  2  2  0
  4  2  1  0
  5  4  1  0
  6  8  1  0
  6  5  1  0
  6  7  1  6
  8  9  2  0
 11 12  2  0
 11 10  1  0
 13 11  1  0
 14 13  1  0
 15 14  1  0
 16 15  1  0
 17 16  1  1
 18 17  1  0
 18  8  1  0
 19 17  1  0
 20 19  2  0
 21 19  1  0
 22 23  1  6
 22 21  1  0
 23 24  1  0
 25 26  1  0
 25 22  1  0
 27 25  2  0
M  END
$$$$
