QRC.pdb
     RDKit          3D

 27 26  0  0  1  0  0  0  0  0999 V2000
   10.9240  -18.7537   16.8915 N   0  0  0  0  0  0  0  0  0  0  0  0
    9.6125  -19.1011   17.3072 C   0  0  0  0  0  0  0  0  0  0  0  0
    8.7969  -19.4567   16.4196 O   0  0  0  0  0  0  0  0  0  0  0  0
    9.2790  -19.0266   18.7503 C   0  0  0  0  0  0  0  0  0  0  0  0
   10.4308  -18.4466   19.5417 C   0  0  0  0  0  0  0  0  0  0  0  0
   10.1840  -18.5091   21.0234 C   0  0  2  0  0  0  0  0  0  0  0  0
    8.9729  -19.2439   21.3002 N   0  0  0  0  0  0  0  0  0  0  0  0
   10.1693  -17.1579   21.6518 C   0  0  0  0  0  0  0  0  0  0  0  0
   11.2621  -16.5938   21.9160 O   0  0  0  0  0  0  0  0  0  0  0  0
    8.4567  -12.0797   18.4118 N   0  0  0  0  0  0  0  0  0  0  0  0
    8.0293  -13.2948   17.8092 C   0  0  0  0  0  0  0  0  0  0  0  0
    8.4328  -13.5862   16.6407 N   0  0  0  0  0  0  0  0  0  0  0  0
    7.1470  -14.1828   18.5107 N   0  0  0  0  0  0  0  0  0  0  0  0
    6.6878  -13.9179   19.8657 C   0  0  0  0  0  0  0  0  0  0  0  0
    7.9172  -13.7959   20.7391 C   0  0  0  0  0  0  0  0  0  0  0  0
    7.7137  -14.3923   22.1113 C   0  0  0  0  0  0  0  0  0  0  0  0
    8.8905  -15.1590   22.5837 C   0  0  2  0  0  0  0  0  0  0  0  0
    8.9819  -16.4688   21.9710 N   0  0  0  0  0  0  0  0  0  0  0  0
    8.9872  -15.3440   24.0309 C   0  0  0  0  0  0  0  0  0  0  0  0
    8.8938  -14.3370   24.7713 O   0  0  0  0  0  0  0  0  0  0  0  0
    8.1935  -14.4938   16.2051 N   0  0  0  0  0  0  0  0  0  0  0  0
    9.1822  -16.5890   24.6775 C   0  0  1  0  0  0  0  0  0  0  0  0
    9.2561  -16.7567   26.0930 C   0  0  0  0  0  0  0  0  0  0  0  0
    7.9611  -16.3389   26.7840 S   0  0  0  0  0  0  0  0  0  0  0  0
    6.5355  -17.0420   25.9305 C   0  0  0  0  0  0  0  0  0  0  0  0
    9.5956  -18.1632   26.4244 O   0  0  0  0  0  0  0  0  0  0  0  0
    9.8698  -18.5839   27.7150 O   0  0  0  0  0  0  0  0  0  0  0  0
  2  1  1  0
  3  2  2  0
  4  2  1  0
  5  4  1  0
  6  8  1  0
  6  5  1  0
  6  7  1  6
  8  9  2  0
 11 12  2  0
 11 10  1  0
 13 11  1  0
 14 13  1  0
 15 14  1  0
 16 15  1  0
 17 16  1  1
 18 17  1  0
 18  8  1  0
 19 17  1  0
 20 19  2  0
 21 19  1  0
 22 23  1  1
 22 21  1  0
 23 24  1  0
 25 26  1  0
 25 22  1  0
 27 25  2  0
M  END
$$$$
