QRC.pdb
     RDKit          3D

 27 26  0  0  1  0  0  0  0  0999 V2000
    8.3173  -12.0855   19.2474 N   0  0  0  0  0  0  0  0  0  0  0  0
    8.3474  -13.0937   18.2493 C   0  0  0  0  0  0  0  0  0  0  0  0
    8.4315  -12.7228   17.0514 O   0  0  0  0  0  0  0  0  0  0  0  0
    8.2789  -14.5144   18.6691 C   0  0  0  0  0  0  0  0  0  0  0  0
    8.0569  -14.6267   20.1615 C   0  0  0  0  0  0  0  0  0  0  0  0
    7.8930  -16.0551   20.6007 C   0  0  2  0  0  0  0  0  0  0  0  0
    6.8074  -16.6797   19.8832 N   0  0  0  0  0  0  0  0  0  0  0  0
    7.7261  -16.1775   22.0764 C   0  0  0  0  0  0  0  0  0  0  0  0
    6.5711  -16.1072   22.5697 O   0  0  0  0  0  0  0  0  0  0  0  0
   12.5853  -18.9664   25.5333 N   0  0  0  0  0  0  0  0  0  0  0  0
   12.1227  -20.2692   25.2006 C   0  0  0  0  0  0  0  0  0  0  0  0
   12.4739  -21.2570   25.9176 N   0  0  0  0  0  0  0  0  0  0  0  0
   11.2706  -20.4694   24.0635 N   0  0  0  0  0  0  0  0  0  0  0  0
   10.5559  -19.3767   23.4214 C   0  0  0  0  0  0  0  0  0  0  0  0
    9.4707  -18.9294   24.3759 C   0  0  0  0  0  0  0  0  0  0  0  0
    9.7040  -17.5345   24.9049 C   0  0  0  0  0  0  0  0  0  0  0  0
    8.7154  -16.5552   24.3955 C   0  0  2  0  0  0  0  0  0  0  0  0
    8.8062  -16.3697   22.9614 N   0  0  0  0  0  0  0  0  0  0  0  0
    8.7595  -15.2305   25.0129 C   0  0  0  0  0  0  0  0  0  0  0  0
    9.6893  -14.4521   24.6960 O   0  0  0  0  0  0  0  0  0  0  0  0
   12.1632  -22.2176   25.6906 N   0  0  0  0  0  0  0  0  0  0  0  0
    7.8221  -14.7450   25.9573 C   0  0  2  0  0  0  0  0  0  0  0  0
    8.0228  -13.5864   26.7665 C   0  0  0  0  0  0  0  0  0  0  0  0
    6.7031  -12.9157   27.1374 S   0  0  0  0  0  0  0  0  0  0  0  0
    5.6337  -12.7845   25.6903 C   0  0  0  0  0  0  0  0  0  0  0  0
    8.7901  -13.9414   27.9865 O   0  0  0  0  0  0  0  0  0  0  0  0
    9.2846  -12.9909   28.8640 O   0  0  0  0  0  0  0  0  0  0  0  0
  2  1  1  0
  3  2  2  0
  4  2  1  0
  5  4  1  0
  6  8  1  0
  6  5  1  0
  6  7  1  6
  8  9  2  0
 11 12  2  0
 11 10  1  0
 13 11  1  0
 14 13  1  0
 15 14  1  0
 16 15  1  0
 17 16  1  1
 18 17  1  0
 18  8  1  0
 19 17  1  0
 20 19  2  0
 21 19  1  0
 22 23  1  6
 22 21  1  0
 23 24  1  0
 25 26  1  0
 25 22  1  0
 27 25  2  0
M  END
$$$$
