QRC.pdb
     RDKit          3D

 27 26  0  0  1  0  0  0  0  0999 V2000
    7.2826  -12.9332   16.4702 N   0  0  0  0  0  0  0  0  0  0  0  0
    7.4065  -14.3415   16.5926 C   0  0  0  0  0  0  0  0  0  0  0  0
    7.1982  -15.0343   15.5650 O   0  0  0  0  0  0  0  0  0  0  0  0
    7.7712  -14.9128   17.9116 C   0  0  0  0  0  0  0  0  0  0  0  0
    7.8343  -13.8329   18.9695 C   0  0  0  0  0  0  0  0  0  0  0  0
    9.0026  -14.0205   19.8969 C   0  0  2  0  0  0  0  0  0  0  0  0
   10.0174  -14.8320   19.2684 N   0  0  0  0  0  0  0  0  0  0  0  0
    8.5922  -14.5708   21.2195 C   0  0  0  0  0  0  0  0  0  0  0  0
    7.6646  -14.0076   21.8557 O   0  0  0  0  0  0  0  0  0  0  0  0
    6.1374  -20.8478   24.9242 N   0  0  0  0  0  0  0  0  0  0  0  0
    7.0559  -20.7162   26.0019 C   0  0  0  0  0  0  0  0  0  0  0  0
    6.6562  -20.9228   27.1897 N   0  0  0  0  0  0  0  0  0  0  0  0
    8.4206  -20.3492   25.7530 N   0  0  0  0  0  0  0  0  0  0  0  0
    8.8765  -19.8715   24.4564 C   0  0  0  0  0  0  0  0  0  0  0  0
    8.5673  -18.3920   24.3905 C   0  0  0  0  0  0  0  0  0  0  0  0
    9.0320  -17.7605   23.1000 C   0  0  0  0  0  0  0  0  0  0  0  0
    8.8529  -16.2897   23.0842 C   0  0  2  0  0  0  0  0  0  0  0  0
    9.1950  -15.7027   21.8045 N   0  0  0  0  0  0  0  0  0  0  0  0
    9.5818  -15.5512   24.1145 C   0  0  0  0  0  0  0  0  0  0  0  0
   10.2892  -14.5769   23.7663 O   0  0  0  0  0  0  0  0  0  0  0  0
    7.3190  -20.9129   27.9843 N   0  0  0  0  0  0  0  0  0  0  0  0
    9.5552  -15.8513   25.4985 C   0  0  2  0  0  0  0  0  0  0  0  0
    9.5773  -14.8696   26.5344 C   0  0  0  0  0  0  0  0  0  0  0  0
    8.5047  -13.8032   26.3309 S   0  0  0  0  0  0  0  0  0  0  0  0
    8.6307  -12.5310   27.6040 C   0  0  0  0  0  0  0  0  0  0  0  0
    9.4228  -15.5207   27.8594 O   0  0  0  0  0  0  0  0  0  0  0  0
    9.1168  -16.8636   28.0034 O   0  0  0  0  0  0  0  0  0  0  0  0
  2  1  1  0
  3  2  2  0
  4  2  1  0
  5  4  1  0
  6  8  1  0
  6  5  1  0
  6  7  1  6
  8  9  2  0
 11 12  2  0
 11 10  1  0
 13 11  1  0
 14 13  1  0
 15 14  1  0
 16 15  1  0
 17 16  1  6
 18 17  1  0
 18  8  1  0
 19 17  1  0
 20 19  2  0
 21 19  1  0
 22 23  1  6
 22 21  1  0
 23 24  1  0
 25 26  1  0
 25 22  1  0
 27 25  2  0
M  END
$$$$
