QRC.pdb
     RDKit          3D

 27 26  0  0  1  0  0  0  0  0999 V2000
   14.9228  -15.0522   17.6387 N   0  0  0  0  0  0  0  0  0  0  0  0
   14.6068  -14.2863   18.7907 C   0  0  0  0  0  0  0  0  0  0  0  0
   14.7314  -13.0383   18.7106 O   0  0  0  0  0  0  0  0  0  0  0  0
   14.1517  -14.9921   20.0129 C   0  0  0  0  0  0  0  0  0  0  0  0
   13.1988  -16.1148   19.6654 C   0  0  0  0  0  0  0  0  0  0  0  0
   12.7404  -16.8628   20.8863 C   0  0  2  0  0  0  0  0  0  0  0  0
   11.9395  -18.0019   20.5060 N   0  0  0  0  0  0  0  0  0  0  0  0
   12.0283  -15.9822   21.8548 C   0  0  0  0  0  0  0  0  0  0  0  0
   12.6962  -15.1867   22.5644 O   0  0  0  0  0  0  0  0  0  0  0  0
    7.6980  -14.6825   17.0581 N   0  0  0  0  0  0  0  0  0  0  0  0
    7.6649  -13.9345   18.2671 C   0  0  0  0  0  0  0  0  0  0  0  0
    8.2861  -12.8286   18.3325 N   0  0  0  0  0  0  0  0  0  0  0  0
    6.9411  -14.4243   19.4052 N   0  0  0  0  0  0  0  0  0  0  0  0
    7.0104  -13.7832   20.7096 C   0  0  0  0  0  0  0  0  0  0  0  0
    8.4198  -13.9716   21.2266 C   0  0  0  0  0  0  0  0  0  0  0  0
    8.4818  -14.9067   22.4105 C   0  0  0  0  0  0  0  0  0  0  0  0
    9.8644  -15.1263   22.8961 C   0  0  2  0  0  0  0  0  0  0  0  0
   10.6288  -15.9926   22.0219 N   0  0  0  0  0  0  0  0  0  0  0  0
    9.9827  -15.6577   24.2532 C   0  0  0  0  0  0  0  0  0  0  0  0
   10.4160  -16.8240   24.4045 O   0  0  0  0  0  0  0  0  0  0  0  0
    8.3687  -12.3158   19.2275 N   0  0  0  0  0  0  0  0  0  0  0  0
    9.6413  -14.9515   25.4327 C   0  0  2  0  0  0  0  0  0  0  0  0
    9.6764  -15.5131   26.7444 C   0  0  0  0  0  0  0  0  0  0  0  0
    9.3510  -14.4766   27.8162 S   0  0  0  0  0  0  0  0  0  0  0  0
   10.0045  -12.8608   27.3501 C   0  0  0  0  0  0  0  0  0  0  0  0
    8.7457  -16.6661   26.8321 O   0  0  0  0  0  0  0  0  0  0  0  0
    8.7417  -17.5464   27.9012 O   0  0  0  0  0  0  0  0  0  0  0  0
  2  1  1  0
  3  2  2  0
  4  2  1  0
  5  4  1  0
  6  8  1  0
  6  5  1  0
  6  7  1  6
  8  9  2  0
 11 12  2  0
 11 10  1  0
 13 11  1  0
 14 13  1  0
 15 14  1  0
 16 15  1  0
 17 16  1  6
 18 17  1  0
 18  8  1  0
 19 17  1  0
 20 19  2  0
 21 19  1  0
 22 23  1  6
 22 21  1  0
 23 24  1  0
 25 26  1  0
 25 22  1  0
 27 25  2  0
M  END
$$$$
