QRC.pdb
     RDKit          3D

 27 26  0  0  1  0  0  0  0  0999 V2000
   14.4002  -13.6354   18.9386 N   0  0  0  0  0  0  0  0  0  0  0  0
   15.2636  -14.7518   18.7905 C   0  0  0  0  0  0  0  0  0  0  0  0
   16.4089  -14.5416   18.3175 O   0  0  0  0  0  0  0  0  0  0  0  0
   14.7732  -16.0909   19.1973 C   0  0  0  0  0  0  0  0  0  0  0  0
   13.3856  -15.9999   19.7937 C   0  0  0  0  0  0  0  0  0  0  0  0
   13.2870  -16.7290   21.1047 C   0  0  2  0  0  0  0  0  0  0  0  0
   12.7493  -18.0534   20.9035 N   0  0  0  0  0  0  0  0  0  0  0  0
   12.5111  -15.9634   22.1207 C   0  0  0  0  0  0  0  0  0  0  0  0
   13.0416  -14.9642   22.6707 O   0  0  0  0  0  0  0  0  0  0  0  0
    8.2802  -13.6056   18.8325 N   0  0  0  0  0  0  0  0  0  0  0  0
    7.4632  -13.1132   19.8871 C   0  0  0  0  0  0  0  0  0  0  0  0
    7.1260  -11.8887   19.8941 N   0  0  0  0  0  0  0  0  0  0  0  0
    7.0262  -13.9882   20.9371 N   0  0  0  0  0  0  0  0  0  0  0  0
    7.3320  -15.4108   20.9458 C   0  0  0  0  0  0  0  0  0  0  0  0
    8.7695  -15.5569   21.3946 C   0  0  0  0  0  0  0  0  0  0  0  0
    8.9082  -15.5666   22.8981 C   0  0  0  0  0  0  0  0  0  0  0  0
   10.3203  -15.5127   23.3441 C   0  0  2  0  0  0  0  0  0  0  0  0
   11.1980  -16.3027   22.5047 N   0  0  0  0  0  0  0  0  0  0  0  0
   10.5630  -15.9110   24.7299 C   0  0  0  0  0  0  0  0  0  0  0  0
   11.2898  -16.9084   24.9484 O   0  0  0  0  0  0  0  0  0  0  0  0
    6.5748  -11.4921   20.6749 N   0  0  0  0  0  0  0  0  0  0  0  0
   10.0347  -15.2518   25.8669 C   0  0  2  0  0  0  0  0  0  0  0  0
   10.2656  -15.6632   27.2141 C   0  0  0  0  0  0  0  0  0  0  0  0
    9.6857  -14.6720   28.2192 S   0  0  0  0  0  0  0  0  0  0  0  0
   10.2292  -12.9947   27.8363 C   0  0  0  0  0  0  0  0  0  0  0  0
    9.7080  -17.0206   27.4369 O   0  0  0  0  0  0  0  0  0  0  0  0
    8.9353  -17.6775   26.4939 O   0  0  0  0  0  0  0  0  0  0  0  0
  2  1  1  0
  3  2  2  0
  4  2  1  0
  5  4  1  0
  6  8  1  0
  6  5  1  0
  6  7  1  6
  8  9  2  0
 11 12  2  0
 11 10  1  0
 13 11  1  0
 14 13  1  0
 15 14  1  0
 16 15  1  0
 17 16  1  6
 18 17  1  0
 18  8  1  0
 19 17  1  0
 20 19  2  0
 21 19  1  0
 22 23  1  6
 22 21  1  0
 23 24  1  0
 25 26  1  0
 25 22  1  0
 27 25  2  0
M  END
$$$$
