QRC.pdb
     RDKit          3D

 27 26  0  0  1  0  0  0  0  0999 V2000
   13.5029  -13.7847   19.6465 N   0  0  0  0  0  0  0  0  0  0  0  0
   13.2022  -13.9329   18.2676 C   0  0  0  0  0  0  0  0  0  0  0  0
   14.1639  -13.9202   17.4587 O   0  0  0  0  0  0  0  0  0  0  0  0
   11.7852  -14.0932   17.8605 C   0  0  0  0  0  0  0  0  0  0  0  0
   10.8844  -14.2040   19.0711 C   0  0  0  0  0  0  0  0  0  0  0  0
    9.4367  -14.3312   18.6863 C   0  0  2  0  0  0  0  0  0  0  0  0
    8.9503  -13.0855   18.1429 N   0  0  0  0  0  0  0  0  0  0  0  0
    8.5914  -14.8117   19.8155 C   0  0  0  0  0  0  0  0  0  0  0  0
    7.9291  -13.9762   20.4831 O   0  0  0  0  0  0  0  0  0  0  0  0
    5.3913  -22.8938   22.6076 N   0  0  0  0  0  0  0  0  0  0  0  0
    5.2994  -21.9360   23.6548 C   0  0  0  0  0  0  0  0  0  0  0  0
    4.6896  -22.2412   24.7263 N   0  0  0  0  0  0  0  0  0  0  0  0
    5.8853  -20.6350   23.5031 N   0  0  0  0  0  0  0  0  0  0  0  0
    6.5084  -20.1991   22.2625 C   0  0  0  0  0  0  0  0  0  0  0  0
    6.8632  -18.7378   22.4290 C   0  0  0  0  0  0  0  0  0  0  0  0
    7.4821  -18.1471   21.1849 C   0  0  0  0  0  0  0  0  0  0  0  0
    7.7668  -16.6990   21.3180 C   0  0  2  0  0  0  0  0  0  0  0  0
    8.4927  -16.1693   20.1816 N   0  0  0  0  0  0  0  0  0  0  0  0
    8.4919  -16.3039   22.5247 C   0  0  0  0  0  0  0  0  0  0  0  0
    9.4972  -15.5650   22.4049 O   0  0  0  0  0  0  0  0  0  0  0  0
    4.6621  -21.5880   25.5284 N   0  0  0  0  0  0  0  0  0  0  0  0
    8.1469  -16.6944   23.8418 C   0  0  2  0  0  0  0  0  0  0  0  0
    8.6352  -16.0584   25.0227 C   0  0  0  0  0  0  0  0  0  0  0  0
    8.3153  -14.5663   25.0392 S   0  0  0  0  0  0  0  0  0  0  0  0
    6.5581  -14.3013   25.3513 C   0  0  0  0  0  0  0  0  0  0  0  0
    8.0829  -16.7251   26.2284 O   0  0  0  0  0  0  0  0  0  0  0  0
    7.1145  -17.7128   26.1612 O   0  0  0  0  0  0  0  0  0  0  0  0
  2  1  1  0
  3  2  2  0
  4  2  1  0
  5  4  1  0
  6  8  1  0
  6  5  1  0
  6  7  1  1
  8  9  2  0
 11 12  2  0
 11 10  1  0
 13 11  1  0
 14 13  1  0
 15 14  1  0
 16 15  1  0
 17 16  1  6
 18 17  1  0
 18  8  1  0
 19 17  1  0
 20 19  2  0
 21 19  1  0
 22 23  1  6
 22 21  1  0
 23 24  1  0
 25 26  1  0
 25 22  1  0
 27 25  2  0
M  END
$$$$
