QRC.pdb
     RDKit          3D

 27 26  0  0  1  0  0  0  0  0999 V2000
    6.5089  -13.2826   19.3363 N   0  0  0  0  0  0  0  0  0  0  0  0
    6.3246  -13.1653   17.9341 C   0  0  0  0  0  0  0  0  0  0  0  0
    5.2635  -12.6259   17.5309 O   0  0  0  0  0  0  0  0  0  0  0  0
    7.3823  -13.6797   17.0309 C   0  0  0  0  0  0  0  0  0  0  0  0
    8.5257  -14.2761   17.8222 C   0  0  0  0  0  0  0  0  0  0  0  0
    9.6035  -14.8243   16.9289 C   0  0  2  0  0  0  0  0  0  0  0  0
    9.0499  -15.7870   16.0069 N   0  0  0  0  0  0  0  0  0  0  0  0
   10.7457  -15.3890   17.7017 C   0  0  0  0  0  0  0  0  0  0  0  0
   10.7739  -16.6243   17.9376 O   0  0  0  0  0  0  0  0  0  0  0  0
   18.3760  -12.8000   16.7925 N   0  0  0  0  0  0  0  0  0  0  0  0
   17.3200  -13.7067   17.0842 C   0  0  0  0  0  0  0  0  0  0  0  0
   17.1648  -14.7366   16.3573 N   0  0  0  0  0  0  0  0  0  0  0  0
   16.4341  -13.4603   18.1858 N   0  0  0  0  0  0  0  0  0  0  0  0
   16.5706  -14.1408   19.4646 C   0  0  0  0  0  0  0  0  0  0  0  0
   15.2488  -14.8171   19.7551 C   0  0  0  0  0  0  0  0  0  0  0  0
   14.1649  -14.4096   18.7861 C   0  0  0  0  0  0  0  0  0  0  0  0
   12.8604  -15.0466   19.0837 C   0  0  2  0  0  0  0  0  0  0  0  0
   11.8099  -14.6040   18.1895 N   0  0  0  0  0  0  0  0  0  0  0  0
   12.3712  -14.8805   20.4515 C   0  0  0  0  0  0  0  0  0  0  0  0
   12.7397  -13.8744   21.1018 O   0  0  0  0  0  0  0  0  0  0  0  0
   16.5094  -15.4888   16.6319 N   0  0  0  0  0  0  0  0  0  0  0  0
   11.5002  -15.7788   21.1154 C   0  0  1  0  0  0  0  0  0  0  0  0
   11.1229  -15.6665   22.4874 C   0  0  0  0  0  0  0  0  0  0  0  0
    9.6557  -16.0256   22.7054 S   0  0  0  0  0  0  0  0  0  0  0  0
    8.5850  -14.8451   21.8597 C   0  0  0  0  0  0  0  0  0  0  0  0
   12.0003  -16.5166   23.3303 O   0  0  0  0  0  0  0  0  0  0  0  0
   11.9810  -16.4727   24.7143 O   0  0  0  0  0  0  0  0  0  0  0  0
  2  1  1  0
  3  2  2  0
  4  2  1  0
  5  4  1  0
  6  8  1  0
  6  5  1  0
  6  7  1  1
  8  9  2  0
 11 12  2  0
 11 10  1  0
 13 11  1  0
 14 13  1  0
 15 14  1  0
 16 15  1  0
 17 16  1  1
 18 17  1  0
 18  8  1  0
 19 17  1  0
 20 19  2  0
 21 19  1  0
 22 23  1  1
 22 21  1  0
 23 24  1  0
 25 26  1  0
 25 22  1  0
 27 25  2  0
M  END
$$$$
