IGL.pdb
     RDKit          3D

 21 20  0  0  1  0  0  0  0  0999 V2000
   15.5062  -14.6729  -17.1143 C   0  0  0  0  0  0  0  0  0  0  0  0
   16.1474  -13.9067  -16.0052 C   0  0  0  0  0  0  0  0  0  0  0  0
   17.0313  -12.7858  -16.4572 C   0  0  2  0  0  0  0  0  0  0  0  0
   18.0809  -13.2521  -17.4483 C   0  0  0  0  0  0  0  0  0  0  0  0
   17.6154  -11.9970  -15.3244 C   0  0  2  0  0  0  0  0  0  0  0  0
   16.6541  -11.5232  -14.3777 N   0  0  0  0  0  0  0  0  0  0  0  0
   18.4500  -10.9023  -15.8698 C   0  0  0  0  0  0  0  0  0  0  0  0
   19.5059  -11.1942  -16.4831 O   0  0  0  0  0  0  0  0  0  0  0  0
   18.1002   -9.5239  -15.7252 N   0  0  0  0  0  0  0  0  0  0  0  0
   19.0032   -8.5521  -16.2428 C   0  0  0  0  0  0  0  0  0  0  0  0
   20.0099   -8.0427  -15.3078 C   0  0  0  0  0  0  0  0  0  0  0  0
   20.2568   -8.7247  -14.2517 O   0  0  0  0  0  0  0  0  0  0  0  0
   23.0801   -4.5428  -16.8976 C   0  0  0  0  0  0  0  0  0  0  0  0
   23.2211   -6.0170  -16.7312 C   0  0  1  0  0  0  0  0  0  0  0  0
   24.4708   -6.4273  -17.5145 C   0  0  0  0  0  0  0  0  0  0  0  0
   23.1577   -6.6026  -15.3979 C   0  0  0  0  0  0  0  0  0  0  0  0
   21.9293   -6.5315  -14.5866 C   0  0  2  0  0  0  0  0  0  0  0  0
   20.7570   -6.8500  -15.4486 N   0  0  0  0  0  0  0  0  0  0  0  0
   21.6466   -5.3497  -13.7868 C   0  0  0  0  0  0  0  0  0  0  0  0
   22.3383   -4.8576  -12.8882 O   0  0  0  0  0  0  0  0  0  0  0  0
   20.4435   -4.6552  -14.0416 O   0  0  0  0  0  0  0  0  0  0  0  0
  1  2  1  0
  2  3  1  0
  3  5  1  0
  3  4  1  1
  5  6  1  6
  7  5  1  0
  7  9  1  0
  8  7  2  0
 10  9  1  0
 10 11  1  0
 11 18  1  0
 12 11  2  0
 14 13  1  1
 14 15  1  0
 16 14  1  0
 17 16  1  6
 18 17  1  0
 19 21  1  0
 19 17  1  0
 20 19  2  0
M  END
$$$$
