IGL.pdb
     RDKit          3D

 21 20  0  0  1  0  0  0  0  0999 V2000
   21.5497  -18.5371  -23.3039 C   0  0  0  0  0  0  0  0  0  0  0  0
   21.7965  -18.0262  -21.9232 C   0  0  0  0  0  0  0  0  0  0  0  0
   23.0448  -18.5497  -21.2832 C   0  0  2  0  0  0  0  0  0  0  0  0
   23.0284  -20.0611  -21.1545 C   0  0  0  0  0  0  0  0  0  0  0  0
   23.3838  -17.8631  -19.9946 C   0  0  2  0  0  0  0  0  0  0  0  0
   22.3493  -17.9141  -19.0088 N   0  0  0  0  0  0  0  0  0  0  0  0
   23.8178  -16.4762  -20.2788 C   0  0  0  0  0  0  0  0  0  0  0  0
   22.9436  -15.5913  -20.4487 O   0  0  0  0  0  0  0  0  0  0  0  0
   25.1952  -16.1048  -20.3673 N   0  0  0  0  0  0  0  0  0  0  0  0
   25.4983  -14.7532  -20.6978 C   0  0  0  0  0  0  0  0  0  0  0  0
   25.5571  -13.8114  -19.5768 C   0  0  0  0  0  0  0  0  0  0  0  0
   24.8800  -14.0802  -18.5229 O   0  0  0  0  0  0  0  0  0  0  0  0
   29.4933  -13.1077  -16.7565 C   0  0  0  0  0  0  0  0  0  0  0  0
   28.0569  -13.0049  -17.1396 C   0  0  1  0  0  0  0  0  0  0  0  0
   27.2507  -13.5686  -15.9665 C   0  0  0  0  0  0  0  0  0  0  0  0
   27.5330  -11.7424  -17.6459 C   0  0  0  0  0  0  0  0  0  0  0  0
   26.2496  -11.6791  -18.3679 C   0  0  2  0  0  0  0  0  0  0  0  0
   26.2988  -12.6080  -19.5313 N   0  0  0  0  0  0  0  0  0  0  0  0
   25.7055  -10.3958  -18.7842 C   0  0  0  0  0  0  0  0  0  0  0  0
   25.4968   -9.9970  -19.9355 O   0  0  0  0  0  0  0  0  0  0  0  0
   25.3626   -9.4683  -17.7758 O   0  0  0  0  0  0  0  0  0  0  0  0
  1  2  1  0
  2  3  1  0
  3  5  1  0
  3  4  1  1
  5  6  1  1
  7  5  1  0
  7  9  1  0
  8  7  2  0
 10  9  1  0
 10 11  1  0
 11 18  1  0
 12 11  2  0
 14 13  1  1
 14 15  1  0
 16 14  1  0
 17 16  1  6
 18 17  1  0
 19 21  1  0
 19 17  1  0
 20 19  2  0
M  END
$$$$
