IGL.pdb
     RDKit          3D

 21 20  0  0  1  0  0  0  0  0999 V2000
   28.3531  -19.6572   -4.2271 C   0  0  0  0  0  0  0  0  0  0  0  0
   27.1357  -19.5514   -5.0844 C   0  0  0  0  0  0  0  0  0  0  0  0
   27.3359  -19.9924   -6.5012 C   0  0  2  0  0  0  0  0  0  0  0  0
   28.5243  -19.3070   -7.1487 C   0  0  0  0  0  0  0  0  0  0  0  0
   26.0919  -19.9010   -7.3324 C   0  0  2  0  0  0  0  0  0  0  0  0
   24.9383  -20.4996   -6.7361 N   0  0  0  0  0  0  0  0  0  0  0  0
   26.3661  -20.4398   -8.6841 C   0  0  0  0  0  0  0  0  0  0  0  0
   26.3603  -21.6839   -8.8524 O   0  0  0  0  0  0  0  0  0  0  0  0
   26.6377  -19.5977   -9.8067 N   0  0  0  0  0  0  0  0  0  0  0  0
   26.9429  -20.2245  -11.0483 C   0  0  0  0  0  0  0  0  0  0  0  0
   25.8346  -20.3501  -11.9985 C   0  0  0  0  0  0  0  0  0  0  0  0
   25.4075  -19.2890  -12.5757 O   0  0  0  0  0  0  0  0  0  0  0  0
   25.4961  -24.4616  -15.5596 C   0  0  0  0  0  0  0  0  0  0  0  0
   25.3970  -23.1607  -14.8395 C   0  0  1  0  0  0  0  0  0  0  0  0
   25.8725  -22.0830  -15.8174 C   0  0  0  0  0  0  0  0  0  0  0  0
   24.1619  -22.8094  -14.1496 C   0  0  0  0  0  0  0  0  0  0  0  0
   24.0559  -21.5785  -13.3458 C   0  0  2  0  0  0  0  0  0  0  0  0
   25.1688  -21.5456  -12.3562 N   0  0  0  0  0  0  0  0  0  0  0  0
   22.8029  -21.2368  -12.6904 C   0  0  0  0  0  0  0  0  0  0  0  0
   22.5351  -21.2978  -11.4852 O   0  0  0  0  0  0  0  0  0  0  0  0
   21.7416  -20.7753  -13.4999 O   0  0  0  0  0  0  0  0  0  0  0  0
  1  2  1  0
  2  3  1  0
  3  5  1  0
  3  4  1  6
  5  6  1  1
  7  5  1  0
  7  9  1  0
  8  7  2  0
 10  9  1  0
 10 11  1  0
 11 18  1  0
 12 11  2  0
 14 13  1  6
 14 15  1  0
 16 14  1  0
 17 16  1  1
 18 17  1  0
 19 21  1  0
 19 17  1  0
 20 19  2  0
M  END
$$$$
