IGL.pdb
     RDKit          3D

 21 20  0  0  1  0  0  0  0  0999 V2000
   23.0861  -18.1852  -18.6598 C   0  0  0  0  0  0  0  0  0  0  0  0
   22.3832  -18.1939  -17.3429 C   0  0  0  0  0  0  0  0  0  0  0  0
   23.2552  -17.8569  -16.1733 C   0  0  2  0  0  0  0  0  0  0  0  0
   23.8653  -16.4735  -16.2972 C   0  0  0  0  0  0  0  0  0  0  0  0
   24.2741  -18.9133  -15.8691 C   0  0  2  0  0  0  0  0  0  0  0  0
   23.7719  -20.2510  -15.9238 N   0  0  0  0  0  0  0  0  0  0  0  0
   24.9199  -18.6109  -14.5714 C   0  0  0  0  0  0  0  0  0  0  0  0
   24.1973  -18.4662  -13.5550 O   0  0  0  0  0  0  0  0  0  0  0  0
   26.3360  -18.4770  -14.4303 N   0  0  0  0  0  0  0  0  0  0  0  0
   26.8480  -18.1693  -13.1376 C   0  0  0  0  0  0  0  0  0  0  0  0
   26.8335  -19.2609  -12.1602 C   0  0  0  0  0  0  0  0  0  0  0  0
   27.9099  -19.9338  -11.9866 O   0  0  0  0  0  0  0  0  0  0  0  0
   28.3823  -21.6643   -8.0960 C   0  0  0  0  0  0  0  0  0  0  0  0
   27.3283  -20.6117   -8.0546 C   0  0  1  0  0  0  0  0  0  0  0  0
   27.7286  -19.6365   -6.9443 C   0  0  0  0  0  0  0  0  0  0  0  0
   26.9221  -19.9476   -9.2870 C   0  0  0  0  0  0  0  0  0  0  0  0
   25.8837  -20.5219  -10.1612 C   0  0  2  0  0  0  0  0  0  0  0  0
   25.7326  -19.6619  -11.3680 N   0  0  0  0  0  0  0  0  0  0  0  0
   24.5729  -20.8517   -9.6234 C   0  0  0  0  0  0  0  0  0  0  0  0
   23.4964  -20.2866   -9.8468 O   0  0  0  0  0  0  0  0  0  0  0  0
   24.4828  -21.9454   -8.7344 O   0  0  0  0  0  0  0  0  0  0  0  0
  1  2  1  0
  2  3  1  0
  3  5  1  0
  3  4  1  6
  5  6  1  1
  7  5  1  0
  7  9  1  0
  8  7  2  0
 10  9  1  0
 10 11  1  0
 11 18  1  0
 12 11  2  0
 14 13  1  6
 14 15  1  0
 16 14  1  0
 17 16  1  1
 18 17  1  0
 19 21  1  0
 19 17  1  0
 20 19  2  0
M  END
$$$$
