IGL.pdb
     RDKit          3D

 21 20  0  0  1  0  0  0  0  0999 V2000
   18.5564  -17.0526  -16.2059 C   0  0  0  0  0  0  0  0  0  0  0  0
   18.2162  -16.1762  -17.3654 C   0  0  0  0  0  0  0  0  0  0  0  0
   17.7175  -14.8158  -16.9879 C   0  0  2  0  0  0  0  0  0  0  0  0
   16.4853  -14.8851  -16.1057 C   0  0  0  0  0  0  0  0  0  0  0  0
   17.5370  -13.9029  -18.1630 C   0  0  2  0  0  0  0  0  0  0  0  0
   18.6020  -13.9499  -19.1160 N   0  0  0  0  0  0  0  0  0  0  0  0
   17.2798  -12.5274  -17.6789 C   0  0  0  0  0  0  0  0  0  0  0  0
   16.3126  -12.3298  -16.9031 O   0  0  0  0  0  0  0  0  0  0  0  0
   18.0907  -11.4140  -18.0607 N   0  0  0  0  0  0  0  0  0  0  0  0
   17.8020  -10.1498  -17.4721 C   0  0  0  0  0  0  0  0  0  0  0  0
   18.5821   -9.7975  -16.2828 C   0  0  0  0  0  0  0  0  0  0  0  0
   18.1727  -10.2162  -15.1432 O   0  0  0  0  0  0  0  0  0  0  0  0
   23.5529  -11.0067  -13.7579 C   0  0  0  0  0  0  0  0  0  0  0  0
   22.8125   -9.7660  -14.1228 C   0  0  1  0  0  0  0  0  0  0  0  0
   23.8678   -8.7217  -14.4963 C   0  0  0  0  0  0  0  0  0  0  0  0
   21.7091   -9.8364  -15.0727 C   0  0  0  0  0  0  0  0  0  0  0  0
   20.5960   -8.8714  -15.0280 C   0  0  2  0  0  0  0  0  0  0  0  0
   19.7673   -9.0262  -16.2561 N   0  0  0  0  0  0  0  0  0  0  0  0
   20.8578   -7.4613  -14.7844 C   0  0  0  0  0  0  0  0  0  0  0  0
   21.2072   -6.9255  -13.7266 O   0  0  0  0  0  0  0  0  0  0  0  0
   20.7040   -6.5670  -15.8667 O   0  0  0  0  0  0  0  0  0  0  0  0
  1  2  1  0
  2  3  1  0
  3  5  1  0
  3  4  1  6
  5  6  1  6
  7  5  1  0
  7  9  1  0
  8  7  2  0
 10  9  1  0
 10 11  1  0
 11 18  1  0
 12 11  2  0
 14 13  1  6
 14 15  1  0
 16 14  1  0
 17 16  1  6
 18 17  1  0
 19 21  1  0
 19 17  1  0
 20 19  2  0
M  END
$$$$
