IGL.pdb
     RDKit          3D

 21 20  0  0  1  0  0  0  0  0999 V2000
   20.0407  -21.7293  -14.6261 C   0  0  0  0  0  0  0  0  0  0  0  0
   21.3687  -21.0866  -14.3989 C   0  0  0  0  0  0  0  0  0  0  0  0
   21.7789  -21.0041  -12.9613 C   0  0  2  0  0  0  0  0  0  0  0  0
   20.7077  -20.3634  -12.0990 C   0  0  0  0  0  0  0  0  0  0  0  0
   23.1285  -20.3827  -12.7641 C   0  0  2  0  0  0  0  0  0  0  0  0
   24.1643  -20.9533  -13.5680 N   0  0  0  0  0  0  0  0  0  0  0  0
   23.4675  -20.3964  -11.3227 C   0  0  0  0  0  0  0  0  0  0  0  0
   22.8325  -19.6432  -10.5445 O   0  0  0  0  0  0  0  0  0  0  0  0
   24.4908  -21.2350  -10.7817 N   0  0  0  0  0  0  0  0  0  0  0  0
   24.7896  -21.1073   -9.3953 C   0  0  0  0  0  0  0  0  0  0  0  0
   26.1188  -20.5858   -9.0660 C   0  0  0  0  0  0  0  0  0  0  0  0
   26.6852  -19.7976   -9.9023 O   0  0  0  0  0  0  0  0  0  0  0  0
   28.2121  -20.4153   -3.7961 C   0  0  0  0  0  0  0  0  0  0  0  0
   27.8502  -20.0811   -5.2025 C   0  0  1  0  0  0  0  0  0  0  0  0
   27.6682  -18.5620   -5.2573 C   0  0  0  0  0  0  0  0  0  0  0  0
   28.6543  -20.6058   -6.2993 C   0  0  0  0  0  0  0  0  0  0  0  0
   28.2635  -20.3968   -7.7050 C   0  0  2  0  0  0  0  0  0  0  0  0
   26.8625  -20.8653   -7.8959 N   0  0  0  0  0  0  0  0  0  0  0  0
   29.1027  -20.8998   -8.7815 C   0  0  0  0  0  0  0  0  0  0  0  0
   30.1478  -20.4085   -9.2224 O   0  0  0  0  0  0  0  0  0  0  0  0
   28.7045  -22.0932   -9.4233 O   0  0  0  0  0  0  0  0  0  0  0  0
  1  2  1  0
  2  3  1  0
  3  5  1  0
  3  4  1  1
  5  6  1  6
  7  5  1  0
  7  9  1  0
  8  7  2  0
 10  9  1  0
 10 11  1  0
 11 18  1  0
 12 11  2  0
 14 13  1  1
 14 15  1  0
 16 14  1  0
 17 16  1  1
 18 17  1  0
 19 21  1  0
 19 17  1  0
 20 19  2  0
M  END
$$$$
