IGL.pdb
     RDKit          3D

 21 20  0  0  1  0  0  0  0  0999 V2000
   22.4622  -33.7191  -13.6656 C   0  0  0  0  0  0  0  0  0  0  0  0
   22.2997  -33.6437  -12.1836 C   0  0  0  0  0  0  0  0  0  0  0  0
   23.5654  -33.3607  -11.4355 C   0  0  2  0  0  0  0  0  0  0  0  0
   24.6750  -34.3260  -11.8074 C   0  0  0  0  0  0  0  0  0  0  0  0
   23.3670  -33.2507   -9.9539 C   0  0  2  0  0  0  0  0  0  0  0  0
   22.4479  -32.2302   -9.5557 N   0  0  0  0  0  0  0  0  0  0  0  0
   24.6843  -33.1059   -9.2933 C   0  0  0  0  0  0  0  0  0  0  0  0
   25.5336  -34.0203   -9.4301 O   0  0  0  0  0  0  0  0  0  0  0  0
   25.0273  -31.9642   -8.5048 N   0  0  0  0  0  0  0  0  0  0  0  0
   26.3334  -31.9162   -7.9394 C   0  0  0  0  0  0  0  0  0  0  0  0
   26.5507  -32.7354   -6.7441 C   0  0  0  0  0  0  0  0  0  0  0  0
   25.5679  -33.4225   -6.2931 O   0  0  0  0  0  0  0  0  0  0  0  0
   29.8335  -36.5690   -4.2082 C   0  0  0  0  0  0  0  0  0  0  0  0
   29.9416  -35.1176   -3.8877 C   0  0  1  0  0  0  0  0  0  0  0  0
   31.3968  -34.8669   -3.4834 C   0  0  0  0  0  0  0  0  0  0  0  0
   29.4256  -34.1301   -4.8276 C   0  0  0  0  0  0  0  0  0  0  0  0
   27.9774  -33.9116   -4.9923 C   0  0  2  0  0  0  0  0  0  0  0  0
   27.7578  -32.8525   -6.0165 N   0  0  0  0  0  0  0  0  0  0  0  0
   27.1380  -33.6568   -3.8317 C   0  0  0  0  0  0  0  0  0  0  0  0
   26.5753  -34.4837   -3.1054 O   0  0  0  0  0  0  0  0  0  0  0  0
   26.9183  -32.3117   -3.4613 O   0  0  0  0  0  0  0  0  0  0  0  0
  1  2  1  0
  2  3  1  0
  3  5  1  0
  3  4  1  1
  5  6  1  6
  7  5  1  0
  7  9  1  0
  8  7  2  0
 10  9  1  0
 10 11  1  0
 11 18  1  0
 12 11  2  0
 14 13  1  6
 14 15  1  0
 16 14  1  0
 17 16  1  1
 18 17  1  0
 19 21  1  0
 19 17  1  0
 20 19  2  0
M  END
$$$$
