IGL.pdb
     RDKit          3D

 21 20  0  0  1  0  0  0  0  0999 V2000
   25.1780  -21.8134   -8.4491 C   0  0  0  0  0  0  0  0  0  0  0  0
   24.5498  -20.7500   -9.2874 C   0  0  0  0  0  0  0  0  0  0  0  0
   24.7117  -20.9481  -10.7627 C   0  0  2  0  0  0  0  0  0  0  0  0
   26.1553  -21.2116  -11.1472 C   0  0  0  0  0  0  0  0  0  0  0  0
   24.0850  -19.8591  -11.5799 C   0  0  2  0  0  0  0  0  0  0  0  0
   22.7744  -19.4798  -11.1519 N   0  0  0  0  0  0  0  0  0  0  0  0
   24.1179  -20.2402  -13.0103 C   0  0  0  0  0  0  0  0  0  0  0  0
   25.2310  -20.3874  -13.5720 O   0  0  0  0  0  0  0  0  0  0  0  0
   22.9302  -20.4477  -13.7780 N   0  0  0  0  0  0  0  0  0  0  0  0
   23.0758  -20.6904  -15.1736 C   0  0  0  0  0  0  0  0  0  0  0  0
   23.3511  -19.5179  -16.0082 C   0  0  0  0  0  0  0  0  0  0  0  0
   22.8634  -18.3892  -15.6480 O   0  0  0  0  0  0  0  0  0  0  0  0
   27.5734  -18.0203  -14.2263 C   0  0  0  0  0  0  0  0  0  0  0  0
   26.4190  -17.9052  -15.1616 C   0  0  1  0  0  0  0  0  0  0  0  0
   26.4247  -16.4674  -15.6875 C   0  0  0  0  0  0  0  0  0  0  0  0
   26.2362  -18.9021  -16.2092 C   0  0  0  0  0  0  0  0  0  0  0  0
   25.3372  -18.6582  -17.3514 C   0  0  2  0  0  0  0  0  0  0  0  0
   24.1158  -19.4969  -17.1978 N   0  0  0  0  0  0  0  0  0  0  0  0
   25.8380  -18.7611  -18.7134 C   0  0  0  0  0  0  0  0  0  0  0  0
   25.8880  -17.8743  -19.5731 O   0  0  0  0  0  0  0  0  0  0  0  0
   26.3354  -20.0127  -19.1385 O   0  0  0  0  0  0  0  0  0  0  0  0
  1  2  1  0
  2  3  1  0
  3  5  1  0
  3  4  1  1
  5  6  1  1
  7  5  1  0
  7  9  1  0
  8  7  2  0
 10  9  1  0
 10 11  1  0
 11 18  1  0
 12 11  2  0
 14 13  1  6
 14 15  1  0
 16 14  1  0
 17 16  1  1
 18 17  1  0
 19 21  1  0
 19 17  1  0
 20 19  2  0
M  END
$$$$
