IGL.pdb
     RDKit          3D

 21 20  0  0  1  0  0  0  0  0999 V2000
   17.3407  -15.4781  -22.6609 C   0  0  0  0  0  0  0  0  0  0  0  0
   18.0928  -15.2702  -21.3883 C   0  0  0  0  0  0  0  0  0  0  0  0
   18.1402  -13.8480  -20.9223 C   0  0  2  0  0  0  0  0  0  0  0  0
   18.8241  -12.9414  -21.9282 C   0  0  0  0  0  0  0  0  0  0  0  0
   18.6923  -13.6957  -19.5372 C   0  0  2  0  0  0  0  0  0  0  0  0
   18.1542  -14.6146  -18.5829 N   0  0  0  0  0  0  0  0  0  0  0  0
   18.5437  -12.2877  -19.1035 C   0  0  0  0  0  0  0  0  0  0  0  0
   17.4631  -11.9281  -18.5751 O   0  0  0  0  0  0  0  0  0  0  0  0
   19.5838  -11.3204  -19.2630 N   0  0  0  0  0  0  0  0  0  0  0  0
   19.3202   -9.9864  -18.8402 C   0  0  0  0  0  0  0  0  0  0  0  0
   19.7384   -9.6457  -17.4778 C   0  0  0  0  0  0  0  0  0  0  0  0
   19.5665  -10.5176  -16.5548 O   0  0  0  0  0  0  0  0  0  0  0  0
   21.3340   -9.5951  -12.8028 C   0  0  0  0  0  0  0  0  0  0  0  0
   22.2339   -9.5876  -13.9907 C   0  0  1  0  0  0  0  0  0  0  0  0
   23.1456  -10.8100  -13.8555 C   0  0  0  0  0  0  0  0  0  0  0  0
   21.6672   -9.4351  -15.3250 C   0  0  0  0  0  0  0  0  0  0  0  0
   20.8934   -8.2373  -15.6973 C   0  0  2  0  0  0  0  0  0  0  0  0
   20.3258   -8.4284  -17.0612 N   0  0  0  0  0  0  0  0  0  0  0  0
   21.4930   -6.9159  -15.5935 C   0  0  0  0  0  0  0  0  0  0  0  0
   21.9394   -6.2108  -16.5055 O   0  0  0  0  0  0  0  0  0  0  0  0
   21.5929   -6.3379  -14.3088 O   0  0  0  0  0  0  0  0  0  0  0  0
  1  2  1  0
  2  3  1  0
  3  5  1  0
  3  4  1  6
  5  6  1  1
  7  5  1  0
  7  9  1  0
  8  7  2  0
 10  9  1  0
 10 11  1  0
 11 18  1  0
 12 11  2  0
 14 13  1  1
 14 15  1  0
 16 14  1  0
 17 16  1  6
 18 17  1  0
 19 21  1  0
 19 17  1  0
 20 19  2  0
M  END
$$$$
