IGL.pdb
     RDKit          3D

 21 20  0  0  1  0  0  0  0  0999 V2000
   19.2222  -22.7562  -14.9963 C   0  0  0  0  0  0  0  0  0  0  0  0
   19.5252  -23.9129  -14.1027 C   0  0  0  0  0  0  0  0  0  0  0  0
   19.0728  -23.7363  -12.6864 C   0  0  2  0  0  0  0  0  0  0  0  0
   19.8047  -22.6037  -11.9914 C   0  0  0  0  0  0  0  0  0  0  0  0
   19.0913  -25.0089  -11.8946 C   0  0  2  0  0  0  0  0  0  0  0  0
   18.3937  -26.0959  -12.5081 N   0  0  0  0  0  0  0  0  0  0  0  0
   18.6078  -24.7377  -10.5215 C   0  0  0  0  0  0  0  0  0  0  0  0
   17.4432  -24.2954  -10.3663 O   0  0  0  0  0  0  0  0  0  0  0  0
   19.4164  -24.9602   -9.3640 N   0  0  0  0  0  0  0  0  0  0  0  0
   18.9267  -24.4907   -8.1120 C   0  0  0  0  0  0  0  0  0  0  0  0
   17.9486  -25.3487   -7.4379 C   0  0  0  0  0  0  0  0  0  0  0  0
   17.5390  -26.3976   -8.0491 O   0  0  0  0  0  0  0  0  0  0  0  0
   18.2517  -26.5201   -2.1094 C   0  0  0  0  0  0  0  0  0  0  0  0
   17.9899  -26.5632   -3.5758 C   0  0  1  0  0  0  0  0  0  0  0  0
   18.4359  -27.9460   -4.0585 C   0  0  0  0  0  0  0  0  0  0  0  0
   16.6841  -26.1668   -4.0882 C   0  0  0  0  0  0  0  0  0  0  0  0
   16.4216  -26.0831   -5.5361 C   0  0  2  0  0  0  0  0  0  0  0  0
   17.3942  -25.1389   -6.1538 N   0  0  0  0  0  0  0  0  0  0  0  0
   15.0806  -25.7980   -6.0226 C   0  0  0  0  0  0  0  0  0  0  0  0
   14.6833  -24.7809   -6.6020 O   0  0  0  0  0  0  0  0  0  0  0  0
   14.0864  -26.7816   -5.8258 O   0  0  0  0  0  0  0  0  0  0  0  0
  1  2  1  0
  2  3  1  0
  3  5  1  0
  3  4  1  1
  5  6  1  6
  7  5  1  0
  7  9  1  0
  8  7  2  0
 10  9  1  0
 10 11  1  0
 11 18  1  0
 12 11  2  0
 14 13  1  1
 14 15  1  0
 16 14  1  0
 17 16  1  1
 18 17  1  0
 19 21  1  0
 19 17  1  0
 20 19  2  0
M  END
$$$$
