IGL.pdb
     RDKit          3D

 21 20  0  0  1  0  0  0  0  0999 V2000
   26.2573  -16.1942  -17.6442 C   0  0  0  0  0  0  0  0  0  0  0  0
   26.0664  -16.3516  -16.1721 C   0  0  0  0  0  0  0  0  0  0  0  0
   26.4528  -17.6959  -15.6378 C   0  0  2  0  0  0  0  0  0  0  0  0
   25.7788  -18.8249  -16.3943 C   0  0  0  0  0  0  0  0  0  0  0  0
   26.2865  -17.8144  -14.1529 C   0  0  2  0  0  0  0  0  0  0  0  0
   26.9655  -16.8057  -13.4005 N   0  0  0  0  0  0  0  0  0  0  0  0
   26.6649  -19.1807  -13.7257 C   0  0  0  0  0  0  0  0  0  0  0  0
   25.9988  -20.1549  -14.1540 O   0  0  0  0  0  0  0  0  0  0  0  0
   27.7606  -19.4344  -12.8436 N   0  0  0  0  0  0  0  0  0  0  0  0
   27.9395  -20.7667  -12.3736 C   0  0  0  0  0  0  0  0  0  0  0  0
   27.3578  -21.0736  -11.0642 C   0  0  0  0  0  0  0  0  0  0  0  0
   27.2212  -22.3042  -10.7347 O   0  0  0  0  0  0  0  0  0  0  0  0
   28.4035  -18.3907   -6.3828 C   0  0  0  0  0  0  0  0  0  0  0  0
   28.0323  -19.4456   -7.3677 C   0  0  1  0  0  0  0  0  0  0  0  0
   28.6784  -20.7451   -6.8801 C   0  0  0  0  0  0  0  0  0  0  0  0
   26.6384  -19.6069   -7.7623 C   0  0  0  0  0  0  0  0  0  0  0  0
   26.2479  -20.5396   -8.8346 C   0  0  2  0  0  0  0  0  0  0  0  0
   26.9201  -20.1351  -10.1009 N   0  0  0  0  0  0  0  0  0  0  0  0
   24.8427  -20.8169   -9.0891 C   0  0  0  0  0  0  0  0  0  0  0  0
   24.0103  -21.2962   -8.3110 O   0  0  0  0  0  0  0  0  0  0  0  0
   24.3340  -20.5136  -10.3712 O   0  0  0  0  0  0  0  0  0  0  0  0
  1  2  1  0
  2  3  1  0
  3  5  1  0
  3  4  1  6
  5  6  1  1
  7  5  1  0
  7  9  1  0
  8  7  2  0
 10  9  1  0
 10 11  1  0
 11 18  1  0
 12 11  2  0
 14 13  1  1
 14 15  1  0
 16 14  1  0
 17 16  1  1
 18 17  1  0
 19 21  1  0
 19 17  1  0
 20 19  2  0
M  END
$$$$
