IGL.pdb
     RDKit          3D

 21 20  0  0  1  0  0  0  0  0999 V2000
   21.4122  -20.1561  -14.3260 C   0  0  0  0  0  0  0  0  0  0  0  0
   22.8360  -20.0769  -14.7676 C   0  0  0  0  0  0  0  0  0  0  0  0
   23.8102  -20.7301  -13.8369 C   0  0  2  0  0  0  0  0  0  0  0  0
   23.6955  -20.1924  -12.4230 C   0  0  0  0  0  0  0  0  0  0  0  0
   25.2191  -20.7173  -14.3482 C   0  0  2  0  0  0  0  0  0  0  0  0
   25.3704  -21.2297  -15.6746 N   0  0  0  0  0  0  0  0  0  0  0  0
   26.0979  -21.4090  -13.3777 C   0  0  0  0  0  0  0  0  0  0  0  0
   26.0713  -22.6630  -13.3240 O   0  0  0  0  0  0  0  0  0  0  0  0
   26.9768  -20.7039  -12.4983 N   0  0  0  0  0  0  0  0  0  0  0  0
   27.6892  -21.4605  -11.5247 C   0  0  0  0  0  0  0  0  0  0  0  0
   27.2435  -21.3106  -10.1369 C   0  0  0  0  0  0  0  0  0  0  0  0
   25.9948  -21.4443   -9.8832 O   0  0  0  0  0  0  0  0  0  0  0  0
   28.1309  -20.6684   -4.3750 C   0  0  0  0  0  0  0  0  0  0  0  0
   28.2301  -19.6701   -5.4769 C   0  0  1  0  0  0  0  0  0  0  0  0
   29.1702  -18.5671   -4.9835 C   0  0  0  0  0  0  0  0  0  0  0  0
   28.5267  -20.1174   -6.8321 C   0  0  0  0  0  0  0  0  0  0  0  0
   27.5084  -20.7916   -7.6573 C   0  0  2  0  0  0  0  0  0  0  0  0
   28.0630  -21.0271   -9.0195 N   0  0  0  0  0  0  0  0  0  0  0  0
   26.1659  -20.2407   -7.7599 C   0  0  0  0  0  0  0  0  0  0  0  0
   25.1093  -20.7341   -7.3498 O   0  0  0  0  0  0  0  0  0  0  0  0
   26.0149  -18.9909   -8.4001 O   0  0  0  0  0  0  0  0  0  0  0  0
  1  2  1  0
  2  3  1  0
  3  5  1  0
  3  4  1  1
  5  6  1  6
  7  5  1  0
  7  9  1  0
  8  7  2  0
 10  9  1  0
 10 11  1  0
 11 18  1  0
 12 11  2  0
 14 13  1  1
 14 15  1  0
 16 14  1  0
 17 16  1  6
 18 17  1  0
 19 21  1  0
 19 17  1  0
 20 19  2  0
M  END
$$$$
