CQR.pdb
     RDKit          3D

 27 26  0  0  1  0  0  0  0  0999 V2000
   28.3212  -16.5697  -17.2083 N   0  0  0  0  0  0  0  0  0  0  0  0
   28.2363  -17.5346  -16.1041 C   0  0  1  0  0  0  0  0  0  0  0  0
   27.0319  -17.1369  -15.2454 C   0  0  0  0  0  0  0  0  0  0  0  0
   25.7567  -16.4520  -16.3056 S   0  0  0  0  0  0  0  0  0  0  0  0
   28.1209  -18.9027  -16.6053 C   0  0  0  0  0  0  0  0  0  0  0  0
   27.8717  -19.0421  -17.8553 O   0  0  0  0  0  0  0  0  0  0  0  0
   31.1922  -24.3860  -15.8007 N   0  0  0  0  0  0  0  0  0  0  0  0
   29.9810  -24.7618  -16.4381 C   0  0  0  0  0  0  0  0  0  0  0  0
   29.8446  -25.9616  -16.8012 O   0  0  0  0  0  0  0  0  0  0  0  0
   28.9088  -23.7786  -16.6757 C   0  0  0  0  0  0  0  0  0  0  0  0
   29.1360  -22.3994  -16.1919 C   0  0  0  0  0  0  0  0  0  0  0  0
   28.0582  -21.4069  -16.3943 C   0  0  2  0  0  0  0  0  0  0  0  0
   28.2627  -20.0955  -15.8296 N   0  0  0  0  0  0  0  0  0  0  0  0
   26.7034  -21.9307  -16.0903 C   0  0  0  0  0  0  0  0  0  0  0  0
   26.3517  -21.9603  -14.8818 O   0  0  0  0  0  0  0  0  0  0  0  0
   19.0459  -20.4285  -15.5721 N   0  0  0  0  0  0  0  0  0  0  0  0
   19.4939  -21.7880  -15.5666 C   0  0  0  0  0  0  0  0  0  0  0  0
   18.6876  -22.7697  -15.7756 N   0  0  0  0  0  0  0  0  0  0  0  0
   20.8501  -22.0598  -15.3276 N   0  0  0  0  0  0  0  0  0  0  0  0
   21.7732  -20.9412  -15.0306 C   0  0  0  0  0  0  0  0  0  0  0  0
   22.5832  -20.5960  -16.2195 C   0  0  0  0  0  0  0  0  0  0  0  0
   23.9843  -21.0354  -16.2860 C   0  0  0  0  0  0  0  0  0  0  0  0
   24.3204  -22.3083  -16.9229 C   0  0  2  0  0  0  0  0  0  0  0  0
   25.8043  -22.3895  -17.0753 N   0  0  0  0  0  0  0  0  0  0  0  0
   23.6717  -22.8369  -18.0995 C   0  0  0  0  0  0  0  0  0  0  0  0
   24.0064  -22.6934  -19.3064 O   0  0  0  0  0  0  0  0  0  0  0  0
   22.4872  -23.6406  -17.9864 O   0  0  0  0  0  0  0  0  0  0  0  0
  2  1  1  6
  3  2  1  0
  4  3  1  0
  5  2  1  0
  5  6  2  0
  7  8  1  0
  8  9  2  0
  8 10  1  0
 10 11  1  0
 12 11  1  1
 12 13  1  0
 13  5  1  0
 14 12  1  0
 15 14  2  0
 16 17  1  0
 17 19  1  0
 18 17  2  0
 19 20  1  0
 20 21  1  0
 22 21  1  0
 23 22  1  6
 23 24  1  0
 24 14  1  0
 25 23  1  0
 26 25  2  0
 27 25  1  0
M  END
$$$$
