CQR.pdb
     RDKit          3D

 27 26  0  0  1  0  0  0  0  0999 V2000
   28.0151  -13.1973  -18.4226 N   0  0  0  0  0  0  0  0  0  0  0  0
   26.9214  -12.5212  -17.7125 C   0  0  1  0  0  0  0  0  0  0  0  0
   27.5600  -11.5529  -16.7122 C   0  0  0  0  0  0  0  0  0  0  0  0
   28.4273  -12.4956  -15.4559 S   0  0  0  0  0  0  0  0  0  0  0  0
   26.0311  -11.8333  -18.6454 C   0  0  0  0  0  0  0  0  0  0  0  0
   26.5850  -11.1876  -19.6047 O   0  0  0  0  0  0  0  0  0  0  0  0
   22.6465  -14.7155  -19.8246 N   0  0  0  0  0  0  0  0  0  0  0  0
   23.4020  -14.3383  -20.9655 C   0  0  0  0  0  0  0  0  0  0  0  0
   23.8979  -15.2501  -21.6814 O   0  0  0  0  0  0  0  0  0  0  0  0
   23.6084  -12.9193  -21.3068 C   0  0  0  0  0  0  0  0  0  0  0  0
   22.9495  -11.9133  -20.4455 C   0  0  0  0  0  0  0  0  0  0  0  0
   23.8020  -11.1026  -19.5490 C   0  0  2  0  0  0  0  0  0  0  0  0
   24.6026  -11.8174  -18.5854 N   0  0  0  0  0  0  0  0  0  0  0  0
   23.0916   -9.9558  -18.9303 C   0  0  0  0  0  0  0  0  0  0  0  0
   22.8273  -10.0329  -17.7018 O   0  0  0  0  0  0  0  0  0  0  0  0
   15.6247   -6.5045  -17.1117 N   0  0  0  0  0  0  0  0  0  0  0  0
   16.6955   -5.5557  -17.1602 C   0  0  0  0  0  0  0  0  0  0  0  0
   16.4879   -4.3093  -17.4070 N   0  0  0  0  0  0  0  0  0  0  0  0
   18.0089   -5.9951  -16.9316 N   0  0  0  0  0  0  0  0  0  0  0  0
   18.6371   -6.9338  -17.8885 C   0  0  0  0  0  0  0  0  0  0  0  0
   20.0036   -7.2959  -17.4521 C   0  0  0  0  0  0  0  0  0  0  0  0
   20.8135   -8.1879  -18.2940 C   0  0  0  0  0  0  0  0  0  0  0  0
   21.9765   -7.6613  -19.0074 C   0  0  2  0  0  0  0  0  0  0  0  0
   22.7048   -8.8011  -19.6416 N   0  0  0  0  0  0  0  0  0  0  0  0
   22.9187   -6.7141  -18.4599 C   0  0  0  0  0  0  0  0  0  0  0  0
   23.1626   -5.5407  -18.8511 O   0  0  0  0  0  0  0  0  0  0  0  0
   23.7291   -7.0567  -17.3252 O   0  0  0  0  0  0  0  0  0  0  0  0
  2  1  1  6
  3  2  1  0
  4  3  1  0
  5  2  1  0
  5  6  2  0
  7  8  1  0
  8  9  2  0
  8 10  1  0
 10 11  1  0
 12 11  1  1
 12 13  1  0
 13  5  1  0
 14 12  1  0
 15 14  2  0
 16 17  1  0
 17 19  1  0
 18 17  2  0
 19 20  1  0
 20 21  1  0
 22 21  1  0
 23 22  1  1
 23 24  1  0
 24 14  1  0
 25 23  1  0
 26 25  2  0
 27 25  1  0
M  END
$$$$
