CQR.pdb
     RDKit          3D

 27 26  0  0  1  0  0  0  0  0999 V2000
   29.4714  -24.6009  -16.8572 N   0  0  0  0  0  0  0  0  0  0  0  0
   28.0055  -24.6564  -16.9300 C   0  0  1  0  0  0  0  0  0  0  0  0
   27.5585  -25.8928  -16.1440 C   0  0  0  0  0  0  0  0  0  0  0  0
   27.9475  -27.3639  -17.0947 S   0  0  0  0  0  0  0  0  0  0  0  0
   27.4035  -23.4312  -16.4081 C   0  0  0  0  0  0  0  0  0  0  0  0
   27.9750  -22.8915  -15.3952 O   0  0  0  0  0  0  0  0  0  0  0  0
   25.6474  -17.9089  -18.6329 N   0  0  0  0  0  0  0  0  0  0  0  0
   25.2707  -17.8771  -17.2648 C   0  0  0  0  0  0  0  0  0  0  0  0
   24.9568  -16.7662  -16.7575 O   0  0  0  0  0  0  0  0  0  0  0  0
   25.2494  -19.1068  -16.4522 C   0  0  0  0  0  0  0  0  0  0  0  0
   25.7925  -20.3359  -17.0705 C   0  0  0  0  0  0  0  0  0  0  0  0
   25.6831  -21.6008  -16.3115 C   0  0  2  0  0  0  0  0  0  0  0  0
   26.2394  -22.7816  -16.9253 N   0  0  0  0  0  0  0  0  0  0  0  0
   24.3252  -21.8520  -15.7680 C   0  0  0  0  0  0  0  0  0  0  0  0
   23.6624  -22.7933  -16.2778 O   0  0  0  0  0  0  0  0  0  0  0  0
   17.4877  -25.4687  -13.1577 N   0  0  0  0  0  0  0  0  0  0  0  0
   18.8081  -25.8140  -12.7260 C   0  0  0  0  0  0  0  0  0  0  0  0
   19.0207  -26.4254  -11.6132 N   0  0  0  0  0  0  0  0  0  0  0  0
   19.9025  -25.4779  -13.5382 N   0  0  0  0  0  0  0  0  0  0  0  0
   20.1213  -24.0623  -13.9121 C   0  0  0  0  0  0  0  0  0  0  0  0
   21.2594  -23.4883  -13.1612 C   0  0  0  0  0  0  0  0  0  0  0  0
   22.3808  -22.8927  -13.9017 C   0  0  0  0  0  0  0  0  0  0  0  0
   22.4385  -21.4446  -14.0981 C   0  0  2  0  0  0  0  0  0  0  0  0
   23.7505  -21.0988  -14.7234 N   0  0  0  0  0  0  0  0  0  0  0  0
   22.0927  -20.4635  -13.0969 C   0  0  0  0  0  0  0  0  0  0  0  0
   22.7833  -19.4931  -12.6836 O   0  0  0  0  0  0  0  0  0  0  0  0
   20.8232  -20.5129  -12.4279 O   0  0  0  0  0  0  0  0  0  0  0  0
  2  1  1  1
  3  2  1  0
  4  3  1  0
  5  2  1  0
  5  6  2  0
  7  8  1  0
  8  9  2  0
  8 10  1  0
 10 11  1  0
 12 11  1  6
 12 13  1  0
 13  5  1  0
 14 12  1  0
 15 14  2  0
 16 17  1  0
 17 19  1  0
 18 17  2  0
 19 20  1  0
 20 21  1  0
 22 21  1  0
 23 22  1  1
 23 24  1  0
 24 14  1  0
 25 23  1  0
 26 25  2  0
 27 25  1  0
M  END
$$$$
