CQR.pdb
     RDKit          3D

 27 26  0  0  1  0  0  0  0  0999 V2000
   25.9042  -23.4880  -14.9275 N   0  0  0  0  0  0  0  0  0  0  0  0
   24.5213  -23.5330  -15.4205 C   0  0  1  0  0  0  0  0  0  0  0  0
   24.1638  -25.0068  -15.6352 C   0  0  0  0  0  0  0  0  0  0  0  0
   24.3309  -25.8833  -14.0785 S   0  0  0  0  0  0  0  0  0  0  0  0
   23.6058  -22.8799  -14.4870 C   0  0  0  0  0  0  0  0  0  0  0  0
   24.0119  -22.7427  -13.2786 O   0  0  0  0  0  0  0  0  0  0  0  0
   20.5316  -17.5120  -14.6725 N   0  0  0  0  0  0  0  0  0  0  0  0
   20.0555  -18.1096  -13.4763 C   0  0  0  0  0  0  0  0  0  0  0  0
   19.3291  -17.4186  -12.7117 O   0  0  0  0  0  0  0  0  0  0  0  0
   20.4014  -19.5000  -13.1299 C   0  0  0  0  0  0  0  0  0  0  0  0
   21.2896  -20.2286  -14.0617 C   0  0  0  0  0  0  0  0  0  0  0  0
   21.4990  -21.6747  -13.8324 C   0  0  2  0  0  0  0  0  0  0  0  0
   22.3031  -22.3803  -14.8000 N   0  0  0  0  0  0  0  0  0  0  0  0
   20.2516  -22.4123  -13.5124 C   0  0  0  0  0  0  0  0  0  0  0  0
   19.5767  -22.8553  -14.4785 O   0  0  0  0  0  0  0  0  0  0  0  0
   17.7112  -24.9789   -5.6558 N   0  0  0  0  0  0  0  0  0  0  0  0
   18.5230  -25.6906   -6.5957 C   0  0  0  0  0  0  0  0  0  0  0  0
   19.4208  -26.5322   -6.2174 N   0  0  0  0  0  0  0  0  0  0  0  0
   18.3354  -25.4662   -7.9685 N   0  0  0  0  0  0  0  0  0  0  0  0
   17.2611  -24.5504   -8.4142 C   0  0  0  0  0  0  0  0  0  0  0  0
   17.3223  -24.3379   -9.8771 C   0  0  0  0  0  0  0  0  0  0  0  0
   18.4603  -23.6040  -10.4489 C   0  0  0  0  0  0  0  0  0  0  0  0
   18.5332  -23.3800  -11.8923 C   0  0  2  0  0  0  0  0  0  0  0  0
   19.7932  -22.6379  -12.1979 N   0  0  0  0  0  0  0  0  0  0  0  0
   17.4507  -22.8737  -12.7026 C   0  0  0  0  0  0  0  0  0  0  0  0
   17.1520  -21.6730  -12.9441 O   0  0  0  0  0  0  0  0  0  0  0  0
   16.5430  -23.7716  -13.3595 O   0  0  0  0  0  0  0  0  0  0  0  0
  2  1  1  1
  3  2  1  0
  4  3  1  0
  5  2  1  0
  5  6  2  0
  7  8  1  0
  8  9  2  0
  8 10  1  0
 10 11  1  0
 12 11  1  6
 12 13  1  0
 13  5  1  0
 14 12  1  0
 15 14  2  0
 16 17  1  0
 17 19  1  0
 18 17  2  0
 19 20  1  0
 20 21  1  0
 22 21  1  0
 23 22  1  1
 23 24  1  0
 24 14  1  0
 25 23  1  0
 26 25  2  0
 27 25  1  0
M  END
$$$$
