CQR.pdb
     RDKit          3D

 27 26  0  0  1  0  0  0  0  0999 V2000
   19.5994  -13.0408  -15.5581 N   0  0  0  0  0  0  0  0  0  0  0  0
   18.2227  -12.5592  -15.3847 C   0  0  1  0  0  0  0  0  0  0  0  0
   17.6751  -13.2006  -14.1061 C   0  0  0  0  0  0  0  0  0  0  0  0
   17.3428  -14.9362  -14.4169 S   0  0  0  0  0  0  0  0  0  0  0  0
   18.1768  -11.0995  -15.3256 C   0  0  0  0  0  0  0  0  0  0  0  0
   19.0146  -10.5254  -14.5429 O   0  0  0  0  0  0  0  0  0  0  0  0
   16.1697   -6.5447  -19.5219 N   0  0  0  0  0  0  0  0  0  0  0  0
   16.6903   -5.8614  -18.3920 C   0  0  0  0  0  0  0  0  0  0  0  0
   16.7779   -4.6045  -18.4423 O   0  0  0  0  0  0  0  0  0  0  0  0
   17.1229   -6.5970  -17.1901 C   0  0  0  0  0  0  0  0  0  0  0  0
   16.9635   -8.0675  -17.2029 C   0  0  0  0  0  0  0  0  0  0  0  0
   17.3562   -8.8183  -15.9905 C   0  0  2  0  0  0  0  0  0  0  0  0
   17.2858  -10.2572  -16.0613 N   0  0  0  0  0  0  0  0  0  0  0  0
   16.7398   -8.2989  -14.7444 C   0  0  0  0  0  0  0  0  0  0  0  0
   15.7833   -8.9547  -14.2544 O   0  0  0  0  0  0  0  0  0  0  0  0
   12.9932   -9.5489   -8.6392 N   0  0  0  0  0  0  0  0  0  0  0  0
   13.2814   -8.1663   -8.4061 C   0  0  0  0  0  0  0  0  0  0  0  0
   12.5248   -7.4295   -7.6699 N   0  0  0  0  0  0  0  0  0  0  0  0
   14.4211   -7.5969   -8.9955 N   0  0  0  0  0  0  0  0  0  0  0  0
   15.3124   -8.4444   -9.8194 C   0  0  0  0  0  0  0  0  0  0  0  0
   16.4010   -7.6400  -10.4168 C   0  0  0  0  0  0  0  0  0  0  0  0
   16.7347   -7.8252  -11.8362 C   0  0  0  0  0  0  0  0  0  0  0  0
   16.6432   -6.6957  -12.7608 C   0  0  2  0  0  0  0  0  0  0  0  0
   17.1681   -7.1240  -14.0923 N   0  0  0  0  0  0  0  0  0  0  0  0
   17.0803   -5.3518  -12.4647 C   0  0  0  0  0  0  0  0  0  0  0  0
   16.7693   -4.6291  -11.4796 O   0  0  0  0  0  0  0  0  0  0  0  0
   17.9843   -4.6635  -13.3424 O   0  0  0  0  0  0  0  0  0  0  0  0
  2  1  1  1
  3  2  1  0
  4  3  1  0
  5  2  1  0
  5  6  2  0
  7  8  1  0
  8  9  2  0
  8 10  1  0
 10 11  1  0
 12 11  1  6
 12 13  1  0
 13  5  1  0
 14 12  1  0
 15 14  2  0
 16 17  1  0
 17 19  1  0
 18 17  2  0
 19 20  1  0
 20 21  1  0
 22 21  1  0
 23 22  1  1
 23 24  1  0
 24 14  1  0
 25 23  1  0
 26 25  2  0
 27 25  1  0
M  END
$$$$
