CQR.pdb
     RDKit          3D

 27 26  0  0  1  0  0  0  0  0999 V2000
   22.2027  -12.5909  -16.8896 N   0  0  0  0  0  0  0  0  0  0  0  0
   21.1124  -11.6292  -17.0988 C   0  0  1  0  0  0  0  0  0  0  0  0
   19.8112  -12.3200  -16.6793 C   0  0  0  0  0  0  0  0  0  0  0  0
   20.0707  -13.1581  -15.1142 S   0  0  0  0  0  0  0  0  0  0  0  0
   21.3428  -10.3971  -16.3472 C   0  0  0  0  0  0  0  0  0  0  0  0
   22.2938  -10.4129  -15.4874 O   0  0  0  0  0  0  0  0  0  0  0  0
   25.1309   -6.7048  -16.1458 N   0  0  0  0  0  0  0  0  0  0  0  0
   24.3932   -7.0317  -17.3135 C   0  0  0  0  0  0  0  0  0  0  0  0
   24.9747   -6.9504  -18.4294 O   0  0  0  0  0  0  0  0  0  0  0  0
   22.9827   -7.4518  -17.2303 C   0  0  0  0  0  0  0  0  0  0  0  0
   22.3814   -7.5401  -15.8818 C   0  0  0  0  0  0  0  0  0  0  0  0
   20.9720   -7.9768  -15.7780 C   0  0  2  0  0  0  0  0  0  0  0  0
   20.6064   -9.1792  -16.4858 N   0  0  0  0  0  0  0  0  0  0  0  0
   19.9933   -6.8851  -16.0078 C   0  0  0  0  0  0  0  0  0  0  0  0
   19.5861   -6.7110  -17.1863 O   0  0  0  0  0  0  0  0  0  0  0  0
   12.0019   -5.8992  -13.7668 N   0  0  0  0  0  0  0  0  0  0  0  0
   12.2692   -4.5866  -14.2715 C   0  0  0  0  0  0  0  0  0  0  0  0
   11.3399   -3.7043  -14.3954 N   0  0  0  0  0  0  0  0  0  0  0  0
   13.5809   -4.2504  -14.6411 N   0  0  0  0  0  0  0  0  0  0  0  0
   14.6529   -5.2636  -14.5150 C   0  0  0  0  0  0  0  0  0  0  0  0
   15.9601   -4.7016  -14.9201 C   0  0  0  0  0  0  0  0  0  0  0  0
   17.1577   -5.5514  -14.8563 C   0  0  0  0  0  0  0  0  0  0  0  0
   18.4633   -5.0009  -15.2185 C   0  0  2  0  0  0  0  0  0  0  0  0
   19.5045   -6.0464  -14.9848 N   0  0  0  0  0  0  0  0  0  0  0  0
   18.9561   -3.7090  -14.8030 C   0  0  0  0  0  0  0  0  0  0  0  0
   18.4114   -2.5816  -14.9499 O   0  0  0  0  0  0  0  0  0  0  0  0
   20.2178   -3.5864  -14.1287 O   0  0  0  0  0  0  0  0  0  0  0  0
  2  1  1  1
  3  2  1  0
  4  3  1  0
  5  2  1  0
  5  6  2  0
  7  8  1  0
  8  9  2  0
  8 10  1  0
 10 11  1  0
 12 11  1  6
 12 13  1  0
 13  5  1  0
 14 12  1  0
 15 14  2  0
 16 17  1  0
 17 19  1  0
 18 17  2  0
 19 20  1  0
 20 21  1  0
 22 21  1  0
 23 22  1  1
 23 24  1  0
 24 14  1  0
 25 23  1  0
 26 25  2  0
 27 25  1  0
M  END
$$$$
