CQR.pdb
     RDKit          3D

 27 26  0  0  1  0  0  0  0  0999 V2000
   26.5546  -20.5311  -10.0287 N   0  0  0  0  0  0  0  0  0  0  0  0
   25.4609  -20.9476  -10.9164 C   0  0  1  0  0  0  0  0  0  0  0  0
   24.1478  -20.5432  -10.2393 C   0  0  0  0  0  0  0  0  0  0  0  0
   22.7752  -21.0120  -11.2955 S   0  0  0  0  0  0  0  0  0  0  0  0
   25.5985  -20.3477  -12.2420 C   0  0  0  0  0  0  0  0  0  0  0  0
   25.7586  -19.0763  -12.2881 O   0  0  0  0  0  0  0  0  0  0  0  0
   29.0005  -21.4538  -17.3754 N   0  0  0  0  0  0  0  0  0  0  0  0
   28.1766  -20.3475  -17.7102 C   0  0  0  0  0  0  0  0  0  0  0  0
   28.4503  -19.6933  -18.7528 O   0  0  0  0  0  0  0  0  0  0  0  0
   27.0323  -19.9664  -16.8629 C   0  0  0  0  0  0  0  0  0  0  0  0
   26.8334  -20.7292  -15.6112 C   0  0  0  0  0  0  0  0  0  0  0  0
   25.6831  -20.3683  -14.7544 C   0  0  2  0  0  0  0  0  0  0  0  0
   25.5725  -21.0493  -13.4877 N   0  0  0  0  0  0  0  0  0  0  0  0
   24.3880  -20.3417  -15.4786 C   0  0  0  0  0  0  0  0  0  0  0  0
   23.6697  -21.3739  -15.4187 O   0  0  0  0  0  0  0  0  0  0  0  0
   17.7081  -21.6158  -12.9718 N   0  0  0  0  0  0  0  0  0  0  0  0
   18.0912  -21.9370  -14.3131 C   0  0  0  0  0  0  0  0  0  0  0  0
   17.6856  -23.0104  -14.8968 N   0  0  0  0  0  0  0  0  0  0  0  0
   18.9321  -21.0575  -15.0129 N   0  0  0  0  0  0  0  0  0  0  0  0
   19.4245  -19.8343  -14.3399 C   0  0  0  0  0  0  0  0  0  0  0  0
   20.2686  -19.0332  -15.2534 C   0  0  0  0  0  0  0  0  0  0  0  0
   21.7198  -19.2659  -15.2792 C   0  0  0  0  0  0  0  0  0  0  0  0
   22.4834  -18.9786  -16.4930 C   0  0  2  0  0  0  0  0  0  0  0  0
   23.9300  -19.2322  -16.2189 N   0  0  0  0  0  0  0  0  0  0  0  0
   22.3325  -17.7902  -17.2988 C   0  0  0  0  0  0  0  0  0  0  0  0
   23.1380  -16.8295  -17.4314 O   0  0  0  0  0  0  0  0  0  0  0  0
   21.1500  -17.5821  -18.0862 O   0  0  0  0  0  0  0  0  0  0  0  0
  2  1  1  1
  3  2  1  0
  4  3  1  0
  5  2  1  0
  5  6  2  0
  7  8  1  0
  8  9  2  0
  8 10  1  0
 10 11  1  0
 12 11  1  6
 12 13  1  0
 13  5  1  0
 14 12  1  0
 15 14  2  0
 16 17  1  0
 17 19  1  0
 18 17  2  0
 19 20  1  0
 20 21  1  0
 22 21  1  0
 23 22  1  1
 23 24  1  0
 24 14  1  0
 25 23  1  0
 26 25  2  0
 27 25  1  0
M  END
$$$$
