CQR.pdb
     RDKit          3D

 27 26  0  0  1  0  0  0  0  0999 V2000
   29.5801  -22.7654  -16.7727 N   0  0  0  0  0  0  0  0  0  0  0  0
   28.6676  -22.0291  -17.6574 C   0  0  1  0  0  0  0  0  0  0  0  0
   27.7519  -23.0600  -18.3244 C   0  0  0  0  0  0  0  0  0  0  0  0
   28.7355  -24.1122  -19.3943 S   0  0  0  0  0  0  0  0  0  0  0  0
   27.9085  -21.0242  -16.9158 C   0  0  0  0  0  0  0  0  0  0  0  0
   27.4121  -21.3876  -15.7909 O   0  0  0  0  0  0  0  0  0  0  0  0
   27.8003  -14.4983  -17.0118 N   0  0  0  0  0  0  0  0  0  0  0  0
   26.7564  -14.9012  -16.1385 C   0  0  0  0  0  0  0  0  0  0  0  0
   26.1296  -14.0088  -15.5056 O   0  0  0  0  0  0  0  0  0  0  0  0
   26.4125  -16.3245  -15.9689 C   0  0  0  0  0  0  0  0  0  0  0  0
   27.2816  -17.3154  -16.6402 C   0  0  0  0  0  0  0  0  0  0  0  0
   26.9226  -18.7454  -16.5226 C   0  0  2  0  0  0  0  0  0  0  0  0
   27.6723  -19.6761  -17.3301 N   0  0  0  0  0  0  0  0  0  0  0  0
   25.4628  -19.0001  -16.6032 C   0  0  0  0  0  0  0  0  0  0  0  0
   24.9451  -19.0444  -17.7500 O   0  0  0  0  0  0  0  0  0  0  0  0
   19.1000  -20.5949  -12.6898 N   0  0  0  0  0  0  0  0  0  0  0  0
   18.7633  -21.8305  -13.3293 C   0  0  0  0  0  0  0  0  0  0  0  0
   17.5410  -22.2023  -13.4879 N   0  0  0  0  0  0  0  0  0  0  0  0
   19.7938  -22.6606  -13.7977 N   0  0  0  0  0  0  0  0  0  0  0  0
   21.2002  -22.2192  -13.6614 C   0  0  0  0  0  0  0  0  0  0  0  0
   21.4811  -21.0708  -14.5509 C   0  0  0  0  0  0  0  0  0  0  0  0
   22.8337  -20.4958  -14.5755 C   0  0  0  0  0  0  0  0  0  0  0  0
   23.1781  -19.4834  -15.5731 C   0  0  2  0  0  0  0  0  0  0  0  0
   24.6402  -19.1926  -15.4740 N   0  0  0  0  0  0  0  0  0  0  0  0
   22.4432  -18.2601  -15.7924 C   0  0  0  0  0  0  0  0  0  0  0  0
   21.3990  -18.0890  -16.4778 O   0  0  0  0  0  0  0  0  0  0  0  0
   22.8758  -17.0269  -15.1978 O   0  0  0  0  0  0  0  0  0  0  0  0
  2  1  1  1
  3  2  1  0
  4  3  1  0
  5  2  1  0
  5  6  2  0
  7  8  1  0
  8  9  2  0
  8 10  1  0
 10 11  1  0
 12 11  1  6
 12 13  1  0
 13  5  1  0
 14 12  1  0
 15 14  2  0
 16 17  1  0
 17 19  1  0
 18 17  2  0
 19 20  1  0
 20 21  1  0
 22 21  1  0
 23 22  1  1
 23 24  1  0
 24 14  1  0
 25 23  1  0
 26 25  2  0
 27 25  1  0
M  END
$$$$
