CQR.pdb
     RDKit          3D

 27 26  0  0  1  0  0  0  0  0999 V2000
   28.2723  -20.1739  -13.1112 N   0  0  0  0  0  0  0  0  0  0  0  0
   27.1349  -20.8387  -12.4618 C   0  0  1  0  0  0  0  0  0  0  0  0
   27.3852  -20.7942  -10.9513 C   0  0  0  0  0  0  0  0  0  0  0  0
   28.9597  -21.5772  -10.5949 S   0  0  0  0  0  0  0  0  0  0  0  0
   25.8715  -20.1995  -12.8244 C   0  0  0  0  0  0  0  0  0  0  0  0
   25.8831  -18.9233  -12.9476 O   0  0  0  0  0  0  0  0  0  0  0  0
   24.3979  -18.4723  -17.6598 N   0  0  0  0  0  0  0  0  0  0  0  0
   23.0724  -18.4415  -17.1531 C   0  0  0  0  0  0  0  0  0  0  0  0
   22.1693  -17.9368  -17.8739 O   0  0  0  0  0  0  0  0  0  0  0  0
   22.7549  -18.9802  -15.8183 C   0  0  0  0  0  0  0  0  0  0  0  0
   23.8592  -19.6109  -15.0629 C   0  0  0  0  0  0  0  0  0  0  0  0
   23.5397  -20.2398  -13.7628 C   0  0  2  0  0  0  0  0  0  0  0  0
   24.6286  -20.8676  -13.0553 N   0  0  0  0  0  0  0  0  0  0  0  0
   22.3371  -21.1084  -13.8025 C   0  0  0  0  0  0  0  0  0  0  0  0
   22.4047  -22.1599  -14.4916 O   0  0  0  0  0  0  0  0  0  0  0  0
   18.2424  -25.8804  -10.0324 N   0  0  0  0  0  0  0  0  0  0  0  0
   17.9247  -24.9136   -9.0257 C   0  0  0  0  0  0  0  0  0  0  0  0
   17.1779  -25.2030   -8.0177 N   0  0  0  0  0  0  0  0  0  0  0  0
   18.4418  -23.6136   -9.1392 N   0  0  0  0  0  0  0  0  0  0  0  0
   17.7588  -22.6345  -10.0146 C   0  0  0  0  0  0  0  0  0  0  0  0
   18.3236  -22.6653  -11.3816 C   0  0  0  0  0  0  0  0  0  0  0  0
   19.3930  -21.7220  -11.7380 C   0  0  0  0  0  0  0  0  0  0  0  0
   19.9755  -21.7518  -13.0791 C   0  0  2  0  0  0  0  0  0  0  0  0
   21.1405  -20.8173  -13.1153 N   0  0  0  0  0  0  0  0  0  0  0  0
   19.2218  -21.6521  -14.3065 C   0  0  0  0  0  0  0  0  0  0  0  0
   18.8893  -22.5774  -15.0957 O   0  0  0  0  0  0  0  0  0  0  0  0
   18.7452  -20.3811  -14.7745 O   0  0  0  0  0  0  0  0  0  0  0  0
  2  1  1  6
  3  2  1  0
  4  3  1  0
  5  2  1  0
  5  6  2  0
  7  8  1  0
  8  9  2  0
  8 10  1  0
 10 11  1  0
 12 11  1  6
 12 13  1  0
 13  5  1  0
 14 12  1  0
 15 14  2  0
 16 17  1  0
 17 19  1  0
 18 17  2  0
 19 20  1  0
 20 21  1  0
 22 21  1  0
 23 22  1  1
 23 24  1  0
 24 14  1  0
 25 23  1  0
 26 25  2  0
 27 25  1  0
M  END
$$$$
