YNY.pdb
     RDKit          3D

 33 34  0  0  1  0  0  0  0  0999 V2000
   14.3459  -22.1789   -1.1072 O   0  0  0  0  0  0  0  0  0  0  0  0
   14.6281  -21.5047    0.0778 C   0  0  0  0  0  0  0  0  0  0  0  0
   15.8950  -21.5554    0.5963 C   0  0  0  0  0  0  0  0  0  0  0  0
   16.2520  -20.9198    1.7614 C   0  0  0  0  0  0  0  0  0  0  0  0
   15.2473  -20.2005    2.4160 C   0  0  0  0  0  0  0  0  0  0  0  0
   15.5917  -19.5447    3.7103 C   0  0  0  0  0  0  0  0  0  0  0  0
   15.3049  -20.5504    4.8150 C   0  0  2  0  0  0  0  0  0  0  0  0
   13.8574  -20.7647    4.8574 N   0  0  0  0  0  0  0  0  0  0  0  0
   15.7848  -20.1204    6.1298 C   0  0  0  0  0  0  0  0  0  0  0  0
   15.2634  -20.5519    7.2027 O   0  0  0  0  0  0  0  0  0  0  0  0
   13.9539  -20.1166    1.9343 C   0  0  0  0  0  0  0  0  0  0  0  0
   13.6546  -20.7857    0.7458 C   0  0  0  0  0  0  0  0  0  0  0  0
   17.9034  -19.8687   10.7673 N   0  0  0  0  0  0  0  0  0  0  0  0
   18.6552  -19.6816    9.5854 C   0  0  0  0  0  0  0  0  0  0  0  0
   19.8036  -19.2088    9.6152 O   0  0  0  0  0  0  0  0  0  0  0  0
   18.0779  -20.0587    8.2714 C   0  0  0  0  0  0  0  0  0  0  0  0
   17.4715  -18.8650    7.5559 C   0  0  2  0  0  0  0  0  0  0  0  0
   16.8582  -19.2026    6.3231 N   0  0  0  0  0  0  0  0  0  0  0  0
   18.5217  -17.8267    7.4672 C   0  0  0  0  0  0  0  0  0  0  0  0
   19.4806  -17.9101    6.6491 O   0  0  0  0  0  0  0  0  0  0  0  0
   22.3273   -9.9301    7.2460 O   0  0  0  0  0  0  0  0  0  0  0  0
   21.4621  -10.9914    7.4598 C   0  0  0  0  0  0  0  0  0  0  0  0
   21.4738  -11.7297    8.6285 C   0  0  0  0  0  0  0  0  0  0  0  0
   20.5814  -12.7971    8.8135 C   0  0  0  0  0  0  0  0  0  0  0  0
   19.6728  -13.1281    7.8285 C   0  0  0  0  0  0  0  0  0  0  0  0
   18.7407  -14.2450    8.0015 C   0  0  0  0  0  0  0  0  0  0  0  0
   19.4313  -15.5513    8.1516 C   0  0  2  0  0  0  0  0  0  0  0  0
   18.5282  -16.6688    8.2932 N   0  0  0  0  0  0  0  0  0  0  0  0
   20.3925  -15.5828    9.2399 C   0  0  0  0  0  0  0  0  0  0  0  0
   21.5551  -15.0670    9.1592 O   0  0  0  0  0  0  0  0  0  0  0  0
   19.6891  -12.3650    6.6660 C   0  0  0  0  0  0  0  0  0  0  0  0
   20.5566  -11.3181    6.4703 C   0  0  0  0  0  0  0  0  0  0  0  0
   20.0880  -16.1975   10.4688 O   0  0  0  0  0  0  0  0  0  0  0  0
  2 12  2  0
  2  1  1  0
  3  2  1  0
  4  5  1  0
  4  3  2  0
  5 11  2  0
  6  5  1  0
  7  6  1  0
  7  8  1  1
  9  7  1  0
  9 10  2  0
 11 12  1  0
 13 14  1  0
 14 15  2  0
 16 14  1  0
 17 16  1  6
 17 18  1  0
 18  9  1  0
 19 20  2  0
 19 17  1  0
 22 21  1  0
 22 23  2  0
 24 23  1  0
 25 24  2  0
 26 25  1  0
 27 28  1  0
 27 26  1  1
 28 19  1  0
 29 27  1  0
 30 29  2  0
 31 32  2  0
 31 25  1  0
 32 22  1  0
 33 29  1  0
M  END
$$$$
