YNY.pdb
     RDKit          3D

 33 34  0  0  1  0  0  0  0  0999 V2000
   23.5256  -15.4689  -22.4375 O   0  0  0  0  0  0  0  0  0  0  0  0
   22.6326  -14.5333  -21.9222 C   0  0  0  0  0  0  0  0  0  0  0  0
   23.0029  -13.7698  -20.8469 C   0  0  0  0  0  0  0  0  0  0  0  0
   22.1786  -12.8278  -20.2793 C   0  0  0  0  0  0  0  0  0  0  0  0
   20.9138  -12.6736  -20.8552 C   0  0  0  0  0  0  0  0  0  0  0  0
   19.9779  -11.6967  -20.2275 C   0  0  0  0  0  0  0  0  0  0  0  0
   19.5746  -12.2645  -18.8752 C   0  0  2  0  0  0  0  0  0  0  0  0
   18.8093  -13.4890  -19.1165 N   0  0  0  0  0  0  0  0  0  0  0  0
   18.7850  -11.3332  -18.0671 C   0  0  0  0  0  0  0  0  0  0  0  0
   17.5176  -11.3168  -18.1180 O   0  0  0  0  0  0  0  0  0  0  0  0
   20.4919  -13.4176  -21.9417 C   0  0  0  0  0  0  0  0  0  0  0  0
   21.3762  -14.3593  -22.4717 C   0  0  0  0  0  0  0  0  0  0  0  0
   17.2061   -7.7904  -14.6915 N   0  0  0  0  0  0  0  0  0  0  0  0
   18.0491   -8.7310  -14.0577 C   0  0  0  0  0  0  0  0  0  0  0  0
   18.1224   -8.8058  -12.8199 O   0  0  0  0  0  0  0  0  0  0  0  0
   18.8671   -9.6622  -14.8737 C   0  0  0  0  0  0  0  0  0  0  0  0
   18.6455   -9.4556  -16.3612 C   0  0  2  0  0  0  0  0  0  0  0  0
   19.3516  -10.3838  -17.1673 N   0  0  0  0  0  0  0  0  0  0  0  0
   18.9280   -8.0331  -16.6535 C   0  0  0  0  0  0  0  0  0  0  0  0
   20.0559   -7.5121  -16.4252 O   0  0  0  0  0  0  0  0  0  0  0  0
   19.1611   -7.9716  -23.4982 O   0  0  0  0  0  0  0  0  0  0  0  0
   18.7193   -7.3538  -22.3390 C   0  0  0  0  0  0  0  0  0  0  0  0
   17.7267   -7.8973  -21.5450 C   0  0  0  0  0  0  0  0  0  0  0  0
   17.3046   -7.2462  -20.3754 C   0  0  0  0  0  0  0  0  0  0  0  0
   17.8765   -6.0485  -19.9962 C   0  0  0  0  0  0  0  0  0  0  0  0
   17.4413   -5.3511  -18.7836 C   0  0  0  0  0  0  0  0  0  0  0  0
   18.1905   -5.7791  -17.5747 C   0  0  2  0  0  0  0  0  0  0  0  0
   17.9553   -7.1552  -17.2068 N   0  0  0  0  0  0  0  0  0  0  0  0
   17.9592   -4.9362  -16.4147 C   0  0  0  0  0  0  0  0  0  0  0  0
   17.5658   -5.3893  -15.2903 O   0  0  0  0  0  0  0  0  0  0  0  0
   18.8713   -5.5304  -20.8184 C   0  0  0  0  0  0  0  0  0  0  0  0
   19.2944   -6.1556  -21.9660 C   0  0  0  0  0  0  0  0  0  0  0  0
   18.1598   -3.5442  -16.4688 O   0  0  0  0  0  0  0  0  0  0  0  0
  2 12  2  0
  2  1  1  0
  3  2  1  0
  4  5  1  0
  4  3  2  0
  5 11  2  0
  6  5  1  0
  7  6  1  0
  7  8  1  6
  9  7  1  0
  9 10  2  0
 11 12  1  0
 13 14  1  0
 14 15  2  0
 16 14  1  0
 17 16  1  1
 17 18  1  0
 18  9  1  0
 19 20  2  0
 19 17  1  0
 22 21  1  0
 22 23  2  0
 24 23  1  0
 25 24  2  0
 26 25  1  0
 27 28  1  0
 27 26  1  6
 28 19  1  0
 29 27  1  0
 30 29  2  0
 31 32  2  0
 31 25  1  0
 32 22  1  0
 33 29  1  0
M  END
$$$$
