YNY.pdb
     RDKit          3D

 33 34  0  0  1  0  0  0  0  0999 V2000
   26.0968  -35.2411  -18.2583 O   0  0  0  0  0  0  0  0  0  0  0  0
   25.3718  -34.9999  -17.0944 C   0  0  0  0  0  0  0  0  0  0  0  0
   25.8332  -34.0780  -16.1924 C   0  0  0  0  0  0  0  0  0  0  0  0
   25.1774  -33.7855  -15.0205 C   0  0  0  0  0  0  0  0  0  0  0  0
   23.9902  -34.4826  -14.7761 C   0  0  0  0  0  0  0  0  0  0  0  0
   23.2848  -34.2251  -13.4876 C   0  0  0  0  0  0  0  0  0  0  0  0
   23.9546  -35.0861  -12.4275 C   0  0  2  0  0  0  0  0  0  0  0  0
   23.5316  -36.4706  -12.6456 N   0  0  0  0  0  0  0  0  0  0  0  0
   23.6340  -34.6757  -11.0591 C   0  0  0  0  0  0  0  0  0  0  0  0
   22.5608  -35.0396  -10.4890 O   0  0  0  0  0  0  0  0  0  0  0  0
   23.4808  -35.4215  -15.6542 C   0  0  0  0  0  0  0  0  0  0  0  0
   24.1950  -35.6741  -16.8272 C   0  0  0  0  0  0  0  0  0  0  0  0
   23.6974  -32.5069   -6.3863 N   0  0  0  0  0  0  0  0  0  0  0  0
   25.0300  -32.3972   -6.8435 C   0  0  0  0  0  0  0  0  0  0  0  0
   25.9306  -31.9475   -6.1156 O   0  0  0  0  0  0  0  0  0  0  0  0
   25.3805  -32.8303   -8.2189 C   0  0  0  0  0  0  0  0  0  0  0  0
   24.1598  -33.2888   -8.9964 C   0  0  2  0  0  0  0  0  0  0  0  0
   24.4778  -33.8523  -10.2578 N   0  0  0  0  0  0  0  0  0  0  0  0
   23.2151  -32.1510   -9.0409 C   0  0  0  0  0  0  0  0  0  0  0  0
   22.7165  -31.6513   -7.9933 O   0  0  0  0  0  0  0  0  0  0  0  0
   18.2516  -25.3069  -11.3397 O   0  0  0  0  0  0  0  0  0  0  0  0
   19.2509  -26.2618  -11.2381 C   0  0  0  0  0  0  0  0  0  0  0  0
   19.8501  -26.8246  -12.3495 C   0  0  0  0  0  0  0  0  0  0  0  0
   20.8616  -27.7877  -12.2106 C   0  0  0  0  0  0  0  0  0  0  0  0
   21.2776  -28.1897  -10.9572 C   0  0  0  0  0  0  0  0  0  0  0  0
   22.3254  -29.2004  -10.7944 C   0  0  0  0  0  0  0  0  0  0  0  0
   21.7894  -30.5210  -10.3762 C   0  0  2  0  0  0  0  0  0  0  0  0
   22.8015  -31.5439  -10.2587 N   0  0  0  0  0  0  0  0  0  0  0  0
   20.7197  -31.0135  -11.2263 C   0  0  0  0  0  0  0  0  0  0  0  0
   19.7559  -30.2831  -11.6288 O   0  0  0  0  0  0  0  0  0  0  0  0
   20.6530  -27.6035   -9.8616 C   0  0  0  0  0  0  0  0  0  0  0  0
   19.6615  -26.6604   -9.9818 C   0  0  0  0  0  0  0  0  0  0  0  0
   20.6865  -32.3517  -11.6610 O   0  0  0  0  0  0  0  0  0  0  0  0
  2 12  2  0
  2  1  1  0
  3  2  1  0
  4  5  1  0
  4  3  2  0
  5 11  2  0
  6  5  1  0
  7  6  1  0
  7  8  1  6
  9  7  1  0
  9 10  2  0
 11 12  1  0
 13 14  1  0
 14 15  2  0
 16 14  1  0
 17 16  1  6
 17 18  1  0
 18  9  1  0
 19 20  2  0
 19 17  1  0
 22 21  1  0
 22 23  2  0
 24 23  1  0
 25 24  2  0
 26 25  1  0
 27 28  1  0
 27 26  1  6
 28 19  1  0
 29 27  1  0
 30 29  2  0
 31 32  2  0
 31 25  1  0
 32 22  1  0
 33 29  1  0
M  END
$$$$
