YNY.pdb
     RDKit          3D

 33 34  0  0  1  0  0  0  0  0999 V2000
   28.1092  -13.5324  -18.4201 O   0  0  0  0  0  0  0  0  0  0  0  0
   27.4722  -14.6933  -17.9901 C   0  0  0  0  0  0  0  0  0  0  0  0
   27.4561  -15.7941  -18.8052 C   0  0  0  0  0  0  0  0  0  0  0  0
   26.8468  -16.9751  -18.4546 C   0  0  0  0  0  0  0  0  0  0  0  0
   26.2270  -17.0126  -17.2018 C   0  0  0  0  0  0  0  0  0  0  0  0
   25.5118  -18.2632  -16.8165 C   0  0  0  0  0  0  0  0  0  0  0  0
   26.4942  -19.1208  -16.0335 C   0  0  2  0  0  0  0  0  0  0  0  0
   27.5542  -19.5367  -16.9536 N   0  0  0  0  0  0  0  0  0  0  0  0
   25.8759  -20.2975  -15.4195 C   0  0  0  0  0  0  0  0  0  0  0  0
   26.1517  -21.4733  -15.8074 O   0  0  0  0  0  0  0  0  0  0  0  0
   26.2159  -15.9303  -16.3411 C   0  0  0  0  0  0  0  0  0  0  0  0
   26.8518  -14.7587  -16.7565 C   0  0  0  0  0  0  0  0  0  0  0  0
   25.9598  -21.5146  -10.5447 N   0  0  0  0  0  0  0  0  0  0  0  0
   26.1283  -21.3305  -11.9356 C   0  0  0  0  0  0  0  0  0  0  0  0
   26.9203  -20.4866  -12.3870 O   0  0  0  0  0  0  0  0  0  0  0  0
   25.3546  -22.1595  -12.8928 C   0  0  0  0  0  0  0  0  0  0  0  0
   24.3485  -21.3329  -13.6732 C   0  0  2  0  0  0  0  0  0  0  0  0
   24.9325  -20.2343  -14.3528 N   0  0  0  0  0  0  0  0  0  0  0  0
   23.2536  -20.9810  -12.7424 C   0  0  0  0  0  0  0  0  0  0  0  0
   23.4482  -20.2732  -11.7143 O   0  0  0  0  0  0  0  0  0  0  0  0
   20.4811  -18.1038  -18.1748 O   0  0  0  0  0  0  0  0  0  0  0  0
   20.4966  -18.4106  -16.8234 C   0  0  0  0  0  0  0  0  0  0  0  0
   19.3828  -18.8955  -16.1636 C   0  0  0  0  0  0  0  0  0  0  0  0
   19.4339  -19.1988  -14.7941 C   0  0  0  0  0  0  0  0  0  0  0  0
   20.6018  -19.0186  -14.0807 C   0  0  0  0  0  0  0  0  0  0  0  0
   20.6698  -19.3212  -12.6490 C   0  0  0  0  0  0  0  0  0  0  0  0
   20.7446  -20.7787  -12.3730 C   0  0  2  0  0  0  0  0  0  0  0  0
   21.9127  -21.4136  -12.9358 N   0  0  0  0  0  0  0  0  0  0  0  0
   19.5632  -21.5139  -12.7893 C   0  0  0  0  0  0  0  0  0  0  0  0
   18.3990  -21.2852  -12.3239 O   0  0  0  0  0  0  0  0  0  0  0  0
   21.7022  -18.5287  -14.7758 C   0  0  0  0  0  0  0  0  0  0  0  0
   21.6673  -18.2269  -16.1154 C   0  0  0  0  0  0  0  0  0  0  0  0
   19.6397  -22.5409  -13.7486 O   0  0  0  0  0  0  0  0  0  0  0  0
  2 12  2  0
  2  1  1  0
  3  2  1  0
  4  5  1  0
  4  3  2  0
  5 11  2  0
  6  5  1  0
  7  6  1  0
  7  8  1  6
  9  7  1  0
  9 10  2  0
 11 12  1  0
 13 14  1  0
 14 15  2  0
 16 14  1  0
 17 16  1  1
 17 18  1  0
 18  9  1  0
 19 20  2  0
 19 17  1  0
 22 21  1  0
 22 23  2  0
 24 23  1  0
 25 24  2  0
 26 25  1  0
 27 28  1  0
 27 26  1  6
 28 19  1  0
 29 27  1  0
 30 29  2  0
 31 32  2  0
 31 25  1  0
 32 22  1  0
 33 29  1  0
M  END
$$$$
