YNY.pdb
     RDKit          3D

 33 34  0  0  1  0  0  0  0  0999 V2000
   29.3085  -29.9534  -18.3165 O   0  0  0  0  0  0  0  0  0  0  0  0
   28.8305  -28.7265  -17.8641 C   0  0  0  0  0  0  0  0  0  0  0  0
   29.2279  -28.2591  -16.6393 C   0  0  0  0  0  0  0  0  0  0  0  0
   28.7992  -27.0603  -16.1216 C   0  0  0  0  0  0  0  0  0  0  0  0
   27.9185  -26.3155  -16.9120 C   0  0  0  0  0  0  0  0  0  0  0  0
   27.3946  -25.0359  -16.3533 C   0  0  0  0  0  0  0  0  0  0  0  0
   27.9974  -23.9059  -17.1741 C   0  0  2  0  0  0  0  0  0  0  0  0
   29.4181  -23.8161  -16.8323 N   0  0  0  0  0  0  0  0  0  0  0  0
   27.3468  -22.6138  -16.9483 C   0  0  0  0  0  0  0  0  0  0  0  0
   27.8065  -21.7732  -16.1169 O   0  0  0  0  0  0  0  0  0  0  0  0
   27.4880  -26.7414  -18.1552 C   0  0  0  0  0  0  0  0  0  0  0  0
   27.9594  -27.9691  -18.6245 C   0  0  0  0  0  0  0  0  0  0  0  0
   25.0130  -17.8094  -18.0020 N   0  0  0  0  0  0  0  0  0  0  0  0
   24.3706  -18.9914  -18.4346 C   0  0  0  0  0  0  0  0  0  0  0  0
   23.1423  -19.0332  -18.6152 O   0  0  0  0  0  0  0  0  0  0  0  0
   25.1667  -20.2175  -18.6899 C   0  0  0  0  0  0  0  0  0  0  0  0
   25.4555  -20.9816  -17.4103 C   0  0  2  0  0  0  0  0  0  0  0  0
   26.1676  -22.1883  -17.6266 N   0  0  0  0  0  0  0  0  0  0  0  0
   24.1715  -21.1344  -16.6913 C   0  0  0  0  0  0  0  0  0  0  0  0
   23.3920  -22.1044  -16.9086 O   0  0  0  0  0  0  0  0  0  0  0  0
   17.5174  -19.8697  -10.9839 O   0  0  0  0  0  0  0  0  0  0  0  0
   18.7369  -19.8162  -11.6403 C   0  0  0  0  0  0  0  0  0  0  0  0
   19.6968  -20.8005  -11.4959 C   0  0  0  0  0  0  0  0  0  0  0  0
   20.9207  -20.7164  -12.1778 C   0  0  0  0  0  0  0  0  0  0  0  0
   21.1870  -19.6463  -13.0081 C   0  0  0  0  0  0  0  0  0  0  0  0
   22.4629  -19.5382  -13.7198 C   0  0  0  0  0  0  0  0  0  0  0  0
   22.4673  -20.2801  -15.0066 C   0  0  2  0  0  0  0  0  0  0  0  0
   23.7248  -20.2049  -15.7119 N   0  0  0  0  0  0  0  0  0  0  0  0
   21.3979  -19.8912  -15.9092 C   0  0  0  0  0  0  0  0  0  0  0  0
   20.2922  -20.5195  -15.9927 O   0  0  0  0  0  0  0  0  0  0  0  0
   20.1995  -18.6745  -13.1294 C   0  0  0  0  0  0  0  0  0  0  0  0
   18.9974  -18.7428  -12.4681 C   0  0  0  0  0  0  0  0  0  0  0  0
   21.5258  -18.7771  -16.7596 O   0  0  0  0  0  0  0  0  0  0  0  0
  2 12  2  0
  2  1  1  0
  3  2  1  0
  4  5  1  0
  4  3  2  0
  5 11  2  0
  6  5  1  0
  7  6  1  0
  7  8  1  1
  9  7  1  0
  9 10  2  0
 11 12  1  0
 13 14  1  0
 14 15  2  0
 16 14  1  0
 17 16  1  6
 17 18  1  0
 18  9  1  0
 19 20  2  0
 19 17  1  0
 22 21  1  0
 22 23  2  0
 24 23  1  0
 25 24  2  0
 26 25  1  0
 27 28  1  0
 27 26  1  1
 28 19  1  0
 29 27  1  0
 30 29  2  0
 31 32  2  0
 31 25  1  0
 32 22  1  0
 33 29  1  0
M  END
$$$$
