YNY.pdb
     RDKit          3D

 33 34  0  0  1  0  0  0  0  0999 V2000
   24.2661   -8.8555  -24.2862 O   0  0  0  0  0  0  0  0  0  0  0  0
   24.2237   -9.3974  -23.0044 C   0  0  0  0  0  0  0  0  0  0  0  0
   24.8721  -10.5770  -22.7501 C   0  0  0  0  0  0  0  0  0  0  0  0
   24.8752  -11.1769  -21.5136 C   0  0  0  0  0  0  0  0  0  0  0  0
   24.1731  -10.5215  -20.4974 C   0  0  0  0  0  0  0  0  0  0  0  0
   24.1142  -11.1759  -19.1586 C   0  0  0  0  0  0  0  0  0  0  0  0
   22.8993  -12.0912  -19.1578 C   0  0  2  0  0  0  0  0  0  0  0  0
   23.0515  -13.0343  -20.2671 N   0  0  0  0  0  0  0  0  0  0  0  0
   21.6306  -11.3714  -19.2848 C   0  0  0  0  0  0  0  0  0  0  0  0
   20.9478  -11.4091  -20.3532 O   0  0  0  0  0  0  0  0  0  0  0  0
   23.5036   -9.3289  -20.7013 C   0  0  0  0  0  0  0  0  0  0  0  0
   23.5376   -8.7710  -21.9809 C   0  0  0  0  0  0  0  0  0  0  0  0
   17.3924  -11.9620  -19.4097 N   0  0  0  0  0  0  0  0  0  0  0  0
   18.4088  -11.8871  -18.4308 C   0  0  0  0  0  0  0  0  0  0  0  0
   19.1114  -12.8720  -18.1486 O   0  0  0  0  0  0  0  0  0  0  0  0
   18.6605  -10.6096  -17.7190 C   0  0  0  0  0  0  0  0  0  0  0  0
   19.8404   -9.8568  -18.3070 C   0  0  2  0  0  0  0  0  0  0  0  0
   21.0562  -10.5835  -18.2450 N   0  0  0  0  0  0  0  0  0  0  0  0
   19.8756   -8.5249  -17.6639 C   0  0  0  0  0  0  0  0  0  0  0  0
   20.0753   -8.3830  -16.4247 O   0  0  0  0  0  0  0  0  0  0  0  0
   14.3908   -8.2984  -22.2963 O   0  0  0  0  0  0  0  0  0  0  0  0
   15.1367   -7.9101  -21.1947 C   0  0  0  0  0  0  0  0  0  0  0  0
   16.0231   -6.8502  -21.2396 C   0  0  0  0  0  0  0  0  0  0  0  0
   16.7612   -6.4818  -20.1040 C   0  0  0  0  0  0  0  0  0  0  0  0
   16.6129   -7.1732  -18.9186 C   0  0  0  0  0  0  0  0  0  0  0  0
   17.3823   -6.8078  -17.7267 C   0  0  0  0  0  0  0  0  0  0  0  0
   18.7335   -6.2850  -18.0533 C   0  0  2  0  0  0  0  0  0  0  0  0
   19.6859   -7.3167  -18.3899 N   0  0  0  0  0  0  0  0  0  0  0  0
   19.3008   -5.4420  -17.0155 C   0  0  0  0  0  0  0  0  0  0  0  0
   20.0147   -5.8945  -16.0616 O   0  0  0  0  0  0  0  0  0  0  0  0
   15.7134   -8.2339  -18.9093 C   0  0  0  0  0  0  0  0  0  0  0  0
   14.9848   -8.6065  -20.0125 C   0  0  0  0  0  0  0  0  0  0  0  0
   19.0889   -4.0507  -17.0045 O   0  0  0  0  0  0  0  0  0  0  0  0
  2 12  2  0
  2  1  1  0
  3  2  1  0
  4  5  1  0
  4  3  2  0
  5 11  2  0
  6  5  1  0
  7  6  1  0
  7  8  1  6
  9  7  1  0
  9 10  2  0
 11 12  1  0
 13 14  1  0
 14 15  2  0
 16 14  1  0
 17 16  1  1
 17 18  1  0
 18  9  1  0
 19 20  2  0
 19 17  1  0
 22 21  1  0
 22 23  2  0
 24 23  1  0
 25 24  2  0
 26 25  1  0
 27 28  1  0
 27 26  1  1
 28 19  1  0
 29 27  1  0
 30 29  2  0
 31 32  2  0
 31 25  1  0
 32 22  1  0
 33 29  1  0
M  END
$$$$
