YNY.pdb
     RDKit          3D

 33 34  0  0  1  0  0  0  0  0999 V2000
   27.4768  -20.2325  -22.1394 O   0  0  0  0  0  0  0  0  0  0  0  0
   27.8831  -21.5471  -21.9271 C   0  0  0  0  0  0  0  0  0  0  0  0
   28.8094  -21.8171  -20.9547 C   0  0  0  0  0  0  0  0  0  0  0  0
   29.2631  -23.0863  -20.6861 C   0  0  0  0  0  0  0  0  0  0  0  0
   28.7304  -24.1197  -21.4630 C   0  0  0  0  0  0  0  0  0  0  0  0
   29.2433  -25.5006  -21.2303 C   0  0  0  0  0  0  0  0  0  0  0  0
   30.6625  -25.5516  -21.7754 C   0  0  2  0  0  0  0  0  0  0  0  0
   30.5905  -25.3539  -23.2242 N   0  0  0  0  0  0  0  0  0  0  0  0
   31.3539  -26.8072  -21.4765 C   0  0  0  0  0  0  0  0  0  0  0  0
   31.2503  -27.8206  -22.2324 O   0  0  0  0  0  0  0  0  0  0  0  0
   27.7925  -23.9010  -22.4553 C   0  0  0  0  0  0  0  0  0  0  0  0
   27.3730  -22.5883  -22.6799 C   0  0  0  0  0  0  0  0  0  0  0  0
   36.2502  -27.7668  -20.8795 N   0  0  0  0  0  0  0  0  0  0  0  0
   35.1036  -27.1722  -20.3062 C   0  0  0  0  0  0  0  0  0  0  0  0
   34.7896  -25.9963  -20.5548 O   0  0  0  0  0  0  0  0  0  0  0  0
   34.2404  -27.9576  -19.3895 C   0  0  0  0  0  0  0  0  0  0  0  0
   32.8616  -28.1980  -19.9774 C   0  0  2  0  0  0  0  0  0  0  0  0
   32.1901  -27.0028  -20.3388 N   0  0  0  0  0  0  0  0  0  0  0  0
   32.1264  -29.0656  -19.0311 C   0  0  0  0  0  0  0  0  0  0  0  0
   32.4157  -29.1152  -17.8024 O   0  0  0  0  0  0  0  0  0  0  0  0
   26.6934  -33.3916  -13.9711 O   0  0  0  0  0  0  0  0  0  0  0  0
   27.4407  -32.5731  -14.8030 C   0  0  0  0  0  0  0  0  0  0  0  0
   28.8059  -32.4162  -14.6523 C   0  0  0  0  0  0  0  0  0  0  0  0
   29.5330  -31.5810  -15.5147 C   0  0  0  0  0  0  0  0  0  0  0  0
   28.8951  -30.9006  -16.5323 C   0  0  0  0  0  0  0  0  0  0  0  0
   29.6373  -30.0176  -17.4354 C   0  0  0  0  0  0  0  0  0  0  0  0
   30.2808  -30.7510  -18.5552 C   0  0  2  0  0  0  0  0  0  0  0  0
   31.0496  -29.9025  -19.4348 N   0  0  0  0  0  0  0  0  0  0  0  0
   29.3522  -31.5345  -19.3510 C   0  0  0  0  0  0  0  0  0  0  0  0
   28.8304  -31.1100  -20.4335 O   0  0  0  0  0  0  0  0  0  0  0  0
   27.5216  -31.0811  -16.6544 C   0  0  0  0  0  0  0  0  0  0  0  0
   26.7966  -31.8945  -15.8180 C   0  0  0  0  0  0  0  0  0  0  0  0
   28.9685  -32.8319  -18.9631 O   0  0  0  0  0  0  0  0  0  0  0  0
  2 12  2  0
  2  1  1  0
  3  2  1  0
  4  5  1  0
  4  3  2  0
  5 11  2  0
  6  5  1  0
  7  6  1  0
  7  8  1  6
  9  7  1  0
  9 10  2  0
 11 12  1  0
 13 14  1  0
 14 15  2  0
 16 14  1  0
 17 16  1  1
 17 18  1  0
 18  9  1  0
 19 20  2  0
 19 17  1  0
 22 21  1  0
 22 23  2  0
 24 23  1  0
 25 24  2  0
 26 25  1  0
 27 28  1  0
 27 26  1  1
 28 19  1  0
 29 27  1  0
 30 29  2  0
 31 32  2  0
 31 25  1  0
 32 22  1  0
 33 29  1  0
M  END
$$$$
