YNY.pdb
     RDKit          3D

 33 34  0  0  1  0  0  0  0  0999 V2000
   27.3285  -29.8149  -16.4435 O   0  0  0  0  0  0  0  0  0  0  0  0
   27.3622  -28.4244  -16.3819 C   0  0  0  0  0  0  0  0  0  0  0  0
   26.2599  -27.7430  -15.9380 C   0  0  0  0  0  0  0  0  0  0  0  0
   26.2135  -26.3722  -15.8506 C   0  0  0  0  0  0  0  0  0  0  0  0
   27.3635  -25.6800  -16.2423 C   0  0  0  0  0  0  0  0  0  0  0  0
   27.3239  -24.1895  -16.2088 C   0  0  0  0  0  0  0  0  0  0  0  0
   26.2685  -23.7446  -17.2099 C   0  0  2  0  0  0  0  0  0  0  0  0
   26.6941  -24.1957  -18.5360 N   0  0  0  0  0  0  0  0  0  0  0  0
   26.0530  -22.2964  -17.2204 C   0  0  0  0  0  0  0  0  0  0  0  0
   27.0194  -21.4801  -17.3157 O   0  0  0  0  0  0  0  0  0  0  0  0
   28.5024  -26.3198  -16.6959 C   0  0  0  0  0  0  0  0  0  0  0  0
   28.4857  -27.7144  -16.7623 C   0  0  0  0  0  0  0  0  0  0  0  0
   23.8288  -19.2155  -20.6811 N   0  0  0  0  0  0  0  0  0  0  0  0
   24.2472  -20.1389  -19.6966 C   0  0  0  0  0  0  0  0  0  0  0  0
   24.0060  -21.3530  -19.8018 O   0  0  0  0  0  0  0  0  0  0  0  0
   24.9982  -19.6660  -18.5073 C   0  0  0  0  0  0  0  0  0  0  0  0
   24.4850  -20.2974  -17.2257 C   0  0  2  0  0  0  0  0  0  0  0  0
   24.7694  -21.6830  -17.1305 N   0  0  0  0  0  0  0  0  0  0  0  0
   23.0533  -19.9441  -17.1054 C   0  0  0  0  0  0  0  0  0  0  0  0
   22.6531  -18.7462  -17.1318 O   0  0  0  0  0  0  0  0  0  0  0  0
   20.1968  -26.7446  -18.7588 O   0  0  0  0  0  0  0  0  0  0  0  0
   20.0931  -25.3751  -18.5734 C   0  0  0  0  0  0  0  0  0  0  0  0
   19.1645  -24.8142  -17.7165 C   0  0  0  0  0  0  0  0  0  0  0  0
   19.0883  -23.4226  -17.5503 C   0  0  0  0  0  0  0  0  0  0  0  0
   19.9433  -22.5876  -18.2411 C   0  0  0  0  0  0  0  0  0  0  0  0
   19.8710  -21.1326  -18.0864 C   0  0  0  0  0  0  0  0  0  0  0  0
   20.6160  -20.6437  -16.8982 C   0  0  2  0  0  0  0  0  0  0  0  0
   22.0318  -20.9215  -16.9499 N   0  0  0  0  0  0  0  0  0  0  0  0
   20.0873  -21.1302  -15.6359 C   0  0  0  0  0  0  0  0  0  0  0  0
   18.8702  -20.9851  -15.2869 O   0  0  0  0  0  0  0  0  0  0  0  0
   20.8641  -23.1856  -19.0948 C   0  0  0  0  0  0  0  0  0  0  0  0
   20.9501  -24.5455  -19.2682 C   0  0  0  0  0  0  0  0  0  0  0  0
   20.9060  -21.8017  -14.7087 O   0  0  0  0  0  0  0  0  0  0  0  0
  2 12  2  0
  2  1  1  0
  3  2  1  0
  4  5  1  0
  4  3  2  0
  5 11  2  0
  6  5  1  0
  7  6  1  0
  7  8  1  6
  9  7  1  0
  9 10  2  0
 11 12  1  0
 13 14  1  0
 14 15  2  0
 16 14  1  0
 17 16  1  6
 17 18  1  0
 18  9  1  0
 19 20  2  0
 19 17  1  0
 22 21  1  0
 22 23  2  0
 24 23  1  0
 25 24  2  0
 26 25  1  0
 27 28  1  0
 27 26  1  6
 28 19  1  0
 29 27  1  0
 30 29  2  0
 31 32  2  0
 31 25  1  0
 32 22  1  0
 33 29  1  0
M  END
$$$$
