YNY.pdb
     RDKit          3D

 33 34  0  0  1  0  0  0  0  0999 V2000
   14.0070  -10.4786  -21.0117 O   0  0  0  0  0  0  0  0  0  0  0  0
   14.5191  -10.5103  -19.7175 C   0  0  0  0  0  0  0  0  0  0  0  0
   14.7543   -9.3334  -19.0572 C   0  0  0  0  0  0  0  0  0  0  0  0
   15.2604   -9.2805  -17.7805 C   0  0  0  0  0  0  0  0  0  0  0  0
   15.5341  -10.5053  -17.1639 C   0  0  0  0  0  0  0  0  0  0  0  0
   16.1340  -10.4782  -15.7988 C   0  0  0  0  0  0  0  0  0  0  0  0
   17.6361  -10.3097  -15.9702 C   0  0  2  0  0  0  0  0  0  0  0  0
   18.1719  -11.5761  -16.4723 N   0  0  0  0  0  0  0  0  0  0  0  0
   18.3224   -9.9326  -14.7330 C   0  0  0  0  0  0  0  0  0  0  0  0
   19.4188  -10.4701  -14.3895 O   0  0  0  0  0  0  0  0  0  0  0  0
   15.3135  -11.7205  -17.7856 C   0  0  0  0  0  0  0  0  0  0  0  0
   14.7986  -11.7064  -19.0834 C   0  0  0  0  0  0  0  0  0  0  0  0
   19.9436   -7.3923  -10.5653 N   0  0  0  0  0  0  0  0  0  0  0  0
   20.4933   -7.1731  -11.8485 C   0  0  0  0  0  0  0  0  0  0  0  0
   21.5488   -6.5363  -12.0019 O   0  0  0  0  0  0  0  0  0  0  0  0
   19.8110   -7.7142  -13.0501 C   0  0  0  0  0  0  0  0  0  0  0  0
   18.5202   -8.4296  -12.6942 C   0  0  2  0  0  0  0  0  0  0  0  0
   17.8372   -8.9484  -13.8231 N   0  0  0  0  0  0  0  0  0  0  0  0
   17.7255   -7.5080  -11.8528 C   0  0  0  0  0  0  0  0  0  0  0  0
   17.4423   -6.3346  -12.2252 O   0  0  0  0  0  0  0  0  0  0  0  0
   10.9057   -5.6863   -6.5764 O   0  0  0  0  0  0  0  0  0  0  0  0
   12.0575   -6.2538   -7.0978 C   0  0  0  0  0  0  0  0  0  0  0  0
   13.2921   -6.1061   -6.4937 C   0  0  0  0  0  0  0  0  0  0  0  0
   14.4386   -6.6968   -7.0474 C   0  0  0  0  0  0  0  0  0  0  0  0
   14.3522   -7.4391   -8.2080 C   0  0  0  0  0  0  0  0  0  0  0  0
   15.5404   -8.0545   -8.8043 C   0  0  0  0  0  0  0  0  0  0  0  0
   16.1299   -7.2308   -9.8906 C   0  0  2  0  0  0  0  0  0  0  0  0
   17.2287   -7.8741  -10.5714 N   0  0  0  0  0  0  0  0  0  0  0  0
   16.5528   -5.9101   -9.4589 C   0  0  0  0  0  0  0  0  0  0  0  0
   17.6544   -5.6926   -8.8559 O   0  0  0  0  0  0  0  0  0  0  0  0
   13.0952   -7.5665   -8.7891 C   0  0  0  0  0  0  0  0  0  0  0  0
   11.9645   -6.9938   -8.2594 C   0  0  0  0  0  0  0  0  0  0  0  0
   15.7536   -4.7742   -9.6861 O   0  0  0  0  0  0  0  0  0  0  0  0
  2 12  2  0
  2  1  1  0
  3  2  1  0
  4  5  1  0
  4  3  2  0
  5 11  2  0
  6  5  1  0
  7  6  1  0
  7  8  1  1
  9  7  1  0
  9 10  2  0
 11 12  1  0
 13 14  1  0
 14 15  2  0
 16 14  1  0
 17 16  1  6
 17 18  1  0
 18  9  1  0
 19 20  2  0
 19 17  1  0
 22 21  1  0
 22 23  2  0
 24 23  1  0
 25 24  2  0
 26 25  1  0
 27 28  1  0
 27 26  1  1
 28 19  1  0
 29 27  1  0
 30 29  2  0
 31 32  2  0
 31 25  1  0
 32 22  1  0
 33 29  1  0
M  END
$$$$
