YNY.pdb
     RDKit          3D

 33 34  0  0  1  0  0  0  0  0999 V2000
   18.8856  -28.4306  -22.3095 O   0  0  0  0  0  0  0  0  0  0  0  0
   19.1346  -28.1403  -20.9708 C   0  0  0  0  0  0  0  0  0  0  0  0
   20.1701  -28.7650  -20.3274 C   0  0  0  0  0  0  0  0  0  0  0  0
   20.4782  -28.5348  -19.0080 C   0  0  0  0  0  0  0  0  0  0  0  0
   19.6740  -27.6150  -18.3280 C   0  0  0  0  0  0  0  0  0  0  0  0
   19.9512  -27.3848  -16.8808 C   0  0  0  0  0  0  0  0  0  0  0  0
   20.6298  -26.0286  -16.7624 C   0  0  2  0  0  0  0  0  0  0  0  0
   22.0764  -26.2490  -16.8071 N   0  0  0  0  0  0  0  0  0  0  0  0
   20.2723  -25.3058  -15.5403 C   0  0  0  0  0  0  0  0  0  0  0  0
   21.1216  -25.0865  -14.6239 O   0  0  0  0  0  0  0  0  0  0  0  0
   18.6182  -26.9565  -18.9312 C   0  0  0  0  0  0  0  0  0  0  0  0
   18.3561  -27.2351  -20.2741 C   0  0  0  0  0  0  0  0  0  0  0  0
   18.8937  -21.7867  -12.7026 N   0  0  0  0  0  0  0  0  0  0  0  0
   17.7871  -21.8397  -13.5798 C   0  0  0  0  0  0  0  0  0  0  0  0
   17.0544  -20.8528  -13.7602 O   0  0  0  0  0  0  0  0  0  0  0  0
   17.4825  -23.0922  -14.3150 C   0  0  0  0  0  0  0  0  0  0  0  0
   18.5387  -24.1573  -14.0807 C   0  0  2  0  0  0  0  0  0  0  0  0
   18.9703  -24.7905  -15.2735 N   0  0  0  0  0  0  0  0  0  0  0  0
   18.0165  -25.0720  -13.0417 C   0  0  0  0  0  0  0  0  0  0  0  0
   17.0454  -25.8501  -13.2592 O   0  0  0  0  0  0  0  0  0  0  0  0
   22.4365  -30.0365  -13.1864 O   0  0  0  0  0  0  0  0  0  0  0  0
   21.6393  -29.2361  -12.3836 C   0  0  0  0  0  0  0  0  0  0  0  0
   20.5736  -29.7419  -11.6630 C   0  0  0  0  0  0  0  0  0  0  0  0
   19.7879  -28.9033  -10.8571 C   0  0  0  0  0  0  0  0  0  0  0  0
   20.0681  -27.5545  -10.7692 C   0  0  0  0  0  0  0  0  0  0  0  0
   19.2526  -26.6634   -9.9402 C   0  0  0  0  0  0  0  0  0  0  0  0
   18.1324  -26.0438  -10.6934 C   0  0  2  0  0  0  0  0  0  0  0  0
   18.5655  -25.1386  -11.7314 N   0  0  0  0  0  0  0  0  0  0  0  0
   17.1662  -25.3633   -9.8491 C   0  0  0  0  0  0  0  0  0  0  0  0
   16.4702  -25.9603   -8.9640 O   0  0  0  0  0  0  0  0  0  0  0  0
   21.1466  -27.0796  -11.5077 C   0  0  0  0  0  0  0  0  0  0  0  0
   21.9240  -27.8879  -12.3010 C   0  0  0  0  0  0  0  0  0  0  0  0
   16.9393  -23.9790   -9.9642 O   0  0  0  0  0  0  0  0  0  0  0  0
  2 12  2  0
  2  1  1  0
  3  2  1  0
  4  5  1  0
  4  3  2  0
  5 11  2  0
  6  5  1  0
  7  6  1  0
  7  8  1  1
  9  7  1  0
  9 10  2  0
 11 12  1  0
 13 14  1  0
 14 15  2  0
 16 14  1  0
 17 16  1  6
 17 18  1  0
 18  9  1  0
 19 20  2  0
 19 17  1  0
 22 21  1  0
 22 23  2  0
 24 23  1  0
 25 24  2  0
 26 25  1  0
 27 28  1  0
 27 26  1  1
 28 19  1  0
 29 27  1  0
 30 29  2  0
 31 32  2  0
 31 25  1  0
 32 22  1  0
 33 29  1  0
M  END
$$$$
