YNY.pdb
     RDKit          3D

 33 34  0  0  1  0  0  0  0  0999 V2000
   17.5740  -13.0746  -14.8129 O   0  0  0  0  0  0  0  0  0  0  0  0
   18.0749  -12.0000  -15.5428 C   0  0  0  0  0  0  0  0  0  0  0  0
   19.4158  -11.9379  -15.8160 C   0  0  0  0  0  0  0  0  0  0  0  0
   19.9870  -10.9100  -16.5273 C   0  0  0  0  0  0  0  0  0  0  0  0
   19.1261   -9.9026  -16.9737 C   0  0  0  0  0  0  0  0  0  0  0  0
   19.7253   -8.7474  -17.7021 C   0  0  0  0  0  0  0  0  0  0  0  0
   20.4267   -7.8786  -16.6691 C   0  0  2  0  0  0  0  0  0  0  0  0
   19.4017   -7.3271  -15.7811 N   0  0  0  0  0  0  0  0  0  0  0  0
   21.2114   -6.7931  -17.2607 C   0  0  0  0  0  0  0  0  0  0  0  0
   22.1434   -7.0210  -18.0905 O   0  0  0  0  0  0  0  0  0  0  0  0
   17.7657   -9.9187  -16.7262 C   0  0  0  0  0  0  0  0  0  0  0  0
   17.2470  -10.9904  -15.9969 C   0  0  0  0  0  0  0  0  0  0  0  0
   22.4833   -2.7214  -20.8356 N   0  0  0  0  0  0  0  0  0  0  0  0
   22.6555   -3.2080  -19.5201 C   0  0  0  0  0  0  0  0  0  0  0  0
   23.5281   -2.7454  -18.7664 O   0  0  0  0  0  0  0  0  0  0  0  0
   21.7791   -4.2909  -19.0090 C   0  0  0  0  0  0  0  0  0  0  0  0
   21.7400   -4.3189  -17.4917 C   0  0  2  0  0  0  0  0  0  0  0  0
   21.0047   -5.4130  -16.9700 N   0  0  0  0  0  0  0  0  0  0  0  0
   21.2818   -2.9865  -17.0400 C   0  0  0  0  0  0  0  0  0  0  0  0
   20.1862   -2.4881  -17.4232 O   0  0  0  0  0  0  0  0  0  0  0  0
   19.0897    4.2555  -12.8728 O   0  0  0  0  0  0  0  0  0  0  0  0
   19.5530    3.0001  -13.2335 C   0  0  0  0  0  0  0  0  0  0  0  0
   20.7584    2.4991  -12.7784 C   0  0  0  0  0  0  0  0  0  0  0  0
   21.1965    1.2219  -13.1614 C   0  0  0  0  0  0  0  0  0  0  0  0
   20.4278    0.4411  -14.0010 C   0  0  0  0  0  0  0  0  0  0  0  0
   20.8746   -0.8903  -14.4180 C   0  0  0  0  0  0  0  0  0  0  0  0
   21.6501   -0.8653  -15.6845 C   0  0  2  0  0  0  0  0  0  0  0  0
   22.0385   -2.1758  -16.1496 N   0  0  0  0  0  0  0  0  0  0  0  0
   22.8278   -0.0169  -15.6321 C   0  0  0  0  0  0  0  0  0  0  0  0
   24.0040   -0.4671  -15.4366 O   0  0  0  0  0  0  0  0  0  0  0  0
   19.2218    0.9766  -14.4401 C   0  0  0  0  0  0  0  0  0  0  0  0
   18.7802    2.2248  -14.0744 C   0  0  0  0  0  0  0  0  0  0  0  0
   22.7340    1.3777  -15.7967 O   0  0  0  0  0  0  0  0  0  0  0  0
  2 12  2  0
  2  1  1  0
  3  2  1  0
  4  5  1  0
  4  3  2  0
  5 11  2  0
  6  5  1  0
  7  6  1  0
  7  8  1  1
  9  7  1  0
  9 10  2  0
 11 12  1  0
 13 14  1  0
 14 15  2  0
 16 14  1  0
 17 16  1  6
 17 18  1  0
 18  9  1  0
 19 20  2  0
 19 17  1  0
 22 21  1  0
 22 23  2  0
 24 23  1  0
 25 24  2  0
 26 25  1  0
 27 28  1  0
 27 26  1  1
 28 19  1  0
 29 27  1  0
 30 29  2  0
 31 32  2  0
 31 25  1  0
 32 22  1  0
 33 29  1  0
M  END
$$$$
