YNY.pdb
     RDKit          3D

 33 34  0  0  1  0  0  0  0  0999 V2000
   19.3502  -16.9069  -17.2770 O   0  0  0  0  0  0  0  0  0  0  0  0
   19.6162  -15.5782  -17.5963 C   0  0  0  0  0  0  0  0  0  0  0  0
   19.5979  -14.6311  -16.6068 C   0  0  0  0  0  0  0  0  0  0  0  0
   19.8470  -13.2999  -16.8413 C   0  0  0  0  0  0  0  0  0  0  0  0
   20.1270  -12.9381  -18.1626 C   0  0  0  0  0  0  0  0  0  0  0  0
   20.3487  -11.4929  -18.4562 C   0  0  0  0  0  0  0  0  0  0  0  0
   18.9792  -10.8518  -18.6218 C   0  0  2  0  0  0  0  0  0  0  0  0
   18.3854  -11.3809  -19.8509 N   0  0  0  0  0  0  0  0  0  0  0  0
   19.0264   -9.3895  -18.6793 C   0  0  0  0  0  0  0  0  0  0  0  0
   18.8207   -8.7587  -19.7604 O   0  0  0  0  0  0  0  0  0  0  0  0
   20.1592  -13.8549  -19.1973 C   0  0  0  0  0  0  0  0  0  0  0  0
   19.8963  -15.1922  -18.8938 C   0  0  0  0  0  0  0  0  0  0  0  0
   18.2284   -4.2729  -18.9153 N   0  0  0  0  0  0  0  0  0  0  0  0
   17.8966   -5.0836  -17.8063 C   0  0  0  0  0  0  0  0  0  0  0  0
   17.5732   -4.5880  -16.7141 O   0  0  0  0  0  0  0  0  0  0  0  0
   17.9237   -6.5619  -17.9335 C   0  0  0  0  0  0  0  0  0  0  0  0
   19.2648   -7.1411  -17.5205 C   0  0  2  0  0  0  0  0  0  0  0  0
   19.2974   -8.5581  -17.5536 N   0  0  0  0  0  0  0  0  0  0  0  0
   19.6202   -6.5386  -16.2168 C   0  0  0  0  0  0  0  0  0  0  0  0
   18.9657   -6.7821  -15.1641 O   0  0  0  0  0  0  0  0  0  0  0  0
   23.0590  -11.5512  -15.5370 O   0  0  0  0  0  0  0  0  0  0  0  0
   23.0126  -10.1732  -15.3961 C   0  0  0  0  0  0  0  0  0  0  0  0
   23.4029   -9.3143  -16.4065 C   0  0  0  0  0  0  0  0  0  0  0  0
   23.3406   -7.9230  -16.2314 C   0  0  0  0  0  0  0  0  0  0  0  0
   22.8856   -7.3871  -15.0434 C   0  0  0  0  0  0  0  0  0  0  0  0
   22.8230   -5.9377  -14.8405 C   0  0  0  0  0  0  0  0  0  0  0  0
   21.4311   -5.4198  -14.8234 C   0  0  2  0  0  0  0  0  0  0  0  0
   20.7157   -5.6458  -16.0569 N   0  0  0  0  0  0  0  0  0  0  0  0
   21.3350   -4.0130  -14.4752 C   0  0  0  0  0  0  0  0  0  0  0  0
   21.7791   -3.5330  -13.3813 O   0  0  0  0  0  0  0  0  0  0  0  0
   22.5019   -8.2801  -14.0487 C   0  0  0  0  0  0  0  0  0  0  0  0
   22.5579   -9.6437  -14.2052 C   0  0  0  0  0  0  0  0  0  0  0  0
   20.7334   -3.0828  -15.3433 O   0  0  0  0  0  0  0  0  0  0  0  0
  2 12  2  0
  2  1  1  0
  3  2  1  0
  4  5  1  0
  4  3  2  0
  5 11  2  0
  6  5  1  0
  7  6  1  0
  7  8  1  6
  9  7  1  0
  9 10  2  0
 11 12  1  0
 13 14  1  0
 14 15  2  0
 16 14  1  0
 17 16  1  1
 17 18  1  0
 18  9  1  0
 19 20  2  0
 19 17  1  0
 22 21  1  0
 22 23  2  0
 24 23  1  0
 25 24  2  0
 26 25  1  0
 27 28  1  0
 27 26  1  6
 28 19  1  0
 29 27  1  0
 30 29  2  0
 31 32  2  0
 31 25  1  0
 32 22  1  0
 33 29  1  0
M  END
$$$$
