YNY.pdb
     RDKit          3D

 33 34  0  0  1  0  0  0  0  0999 V2000
   35.3910  -27.3719  -18.6107 O   0  0  0  0  0  0  0  0  0  0  0  0
   34.4773  -28.4127  -18.7524 C   0  0  0  0  0  0  0  0  0  0  0  0
   33.2791  -28.3518  -18.0912 C   0  0  0  0  0  0  0  0  0  0  0  0
   32.3266  -29.3389  -18.1774 C   0  0  0  0  0  0  0  0  0  0  0  0
   32.6340  -30.4373  -18.9862 C   0  0  0  0  0  0  0  0  0  0  0  0
   31.6421  -31.5487  -19.0567 C   0  0  0  0  0  0  0  0  0  0  0  0
   31.6990  -32.2880  -17.7285 C   0  0  2  0  0  0  0  0  0  0  0  0
   32.9932  -32.9682  -17.6524 N   0  0  0  0  0  0  0  0  0  0  0  0
   30.6148  -33.2569  -17.5569 C   0  0  0  0  0  0  0  0  0  0  0  0
   29.3988  -32.9294  -17.7094 O   0  0  0  0  0  0  0  0  0  0  0  0
   33.8277  -30.5466  -19.6756 C   0  0  0  0  0  0  0  0  0  0  0  0
   34.7545  -29.5103  -19.5456 C   0  0  0  0  0  0  0  0  0  0  0  0
   28.5117  -37.3245  -14.4966 N   0  0  0  0  0  0  0  0  0  0  0  0
   28.0632  -36.5453  -15.5868 C   0  0  0  0  0  0  0  0  0  0  0  0
   27.0412  -36.8491  -16.2243 O   0  0  0  0  0  0  0  0  0  0  0  0
   28.8142  -35.3302  -15.9888 C   0  0  0  0  0  0  0  0  0  0  0  0
   29.8201  -35.6239  -17.0872 C   0  0  2  0  0  0  0  0  0  0  0  0
   30.8186  -34.6255  -17.2145 N   0  0  0  0  0  0  0  0  0  0  0  0
   29.0533  -35.9011  -18.3218 C   0  0  0  0  0  0  0  0  0  0  0  0
   29.3086  -35.3216  -19.4148 O   0  0  0  0  0  0  0  0  0  0  0  0
   24.6467  -38.3748  -25.2479 O   0  0  0  0  0  0  0  0  0  0  0  0
   25.4206  -37.9801  -24.1682 C   0  0  0  0  0  0  0  0  0  0  0  0
   25.6000  -36.6505  -23.8352 C   0  0  0  0  0  0  0  0  0  0  0  0
   26.3887  -36.2856  -22.7329 C   0  0  0  0  0  0  0  0  0  0  0  0
   26.9996  -37.2518  -21.9592 C   0  0  0  0  0  0  0  0  0  0  0  0
   27.8335  -36.8880  -20.8111 C   0  0  0  0  0  0  0  0  0  0  0  0
   27.1378  -37.0780  -19.5127 C   0  0  2  0  0  0  0  0  0  0  0  0
   27.9791  -36.8323  -18.3655 N   0  0  0  0  0  0  0  0  0  0  0  0
   26.5154  -38.3824  -19.3684 C   0  0  0  0  0  0  0  0  0  0  0  0
   25.7061  -38.8679  -20.2250 O   0  0  0  0  0  0  0  0  0  0  0  0
   26.7982  -38.5789  -22.3232 C   0  0  0  0  0  0  0  0  0  0  0  0
   26.0299  -38.9512  -23.3992 C   0  0  0  0  0  0  0  0  0  0  0  0
   26.7757  -39.1990  -18.2521 O   0  0  0  0  0  0  0  0  0  0  0  0
  2 12  2  0
  2  1  1  0
  3  2  1  0
  4  5  1  0
  4  3  2  0
  5 11  2  0
  6  5  1  0
  7  6  1  0
  7  8  1  6
  9  7  1  0
  9 10  2  0
 11 12  1  0
 13 14  1  0
 14 15  2  0
 16 14  1  0
 17 16  1  1
 17 18  1  0
 18  9  1  0
 19 20  2  0
 19 17  1  0
 22 21  1  0
 22 23  2  0
 24 23  1  0
 25 24  2  0
 26 25  1  0
 27 28  1  0
 27 26  1  6
 28 19  1  0
 29 27  1  0
 30 29  2  0
 31 32  2  0
 31 25  1  0
 32 22  1  0
 33 29  1  0
M  END
$$$$
