YNY.pdb
     RDKit          3D

 33 34  0  0  1  0  0  0  0  0999 V2000
   20.9813  -31.2950  -13.8447 O   0  0  0  0  0  0  0  0  0  0  0  0
   21.4188  -31.8289  -12.6356 C   0  0  0  0  0  0  0  0  0  0  0  0
   21.0982  -33.1214  -12.3148 C   0  0  0  0  0  0  0  0  0  0  0  0
   21.4896  -33.7195  -11.1409 C   0  0  0  0  0  0  0  0  0  0  0  0
   22.2471  -32.9389  -10.2622 C   0  0  0  0  0  0  0  0  0  0  0  0
   22.6407  -33.5436   -8.9571 C   0  0  0  0  0  0  0  0  0  0  0  0
   24.1384  -33.8036   -9.0146 C   0  0  2  0  0  0  0  0  0  0  0  0
   24.3751  -34.8188  -10.0425 N   0  0  0  0  0  0  0  0  0  0  0  0
   24.6998  -34.2462   -7.7368 C   0  0  0  0  0  0  0  0  0  0  0  0
   24.5480  -35.4342   -7.3187 O   0  0  0  0  0  0  0  0  0  0  0  0
   22.5988  -31.6305  -10.5389 C   0  0  0  0  0  0  0  0  0  0  0  0
   22.1693  -31.0804  -11.7483 C   0  0  0  0  0  0  0  0  0  0  0  0
   27.1046  -34.3890   -3.1422 N   0  0  0  0  0  0  0  0  0  0  0  0
   27.6944  -33.3246   -3.8606 C   0  0  0  0  0  0  0  0  0  0  0  0
   28.7513  -32.7932   -3.4815 O   0  0  0  0  0  0  0  0  0  0  0  0
   27.0538  -32.8222   -5.1013 C   0  0  0  0  0  0  0  0  0  0  0  0
   25.9487  -33.7455   -5.5818 C   0  0  2  0  0  0  0  0  0  0  0  0
   25.4537  -33.4062   -6.8663 N   0  0  0  0  0  0  0  0  0  0  0  0
   24.9269  -33.8000   -4.5132 C   0  0  0  0  0  0  0  0  0  0  0  0
   23.8668  -33.1148   -4.5627 O   0  0  0  0  0  0  0  0  0  0  0  0
   19.1005  -35.5902    1.5746 O   0  0  0  0  0  0  0  0  0  0  0  0
   20.0210  -35.5456    0.5395 C   0  0  0  0  0  0  0  0  0  0  0  0
   20.9946  -36.5131    0.3751 C   0  0  0  0  0  0  0  0  0  0  0  0
   21.9099  -36.4388   -0.6864 C   0  0  0  0  0  0  0  0  0  0  0  0
   21.8522  -35.3952   -1.5881 C   0  0  0  0  0  0  0  0  0  0  0  0
   22.8056  -35.2973   -2.6961 C   0  0  0  0  0  0  0  0  0  0  0  0
   24.1068  -34.7117   -2.2841 C   0  0  2  0  0  0  0  0  0  0  0  0
   25.0654  -34.6206   -3.3598 N   0  0  0  0  0  0  0  0  0  0  0  0
   24.7248  -35.3931   -1.1601 C   0  0  0  0  0  0  0  0  0  0  0  0
   25.6805  -36.2264   -1.2891 O   0  0  0  0  0  0  0  0  0  0  0  0
   20.8609  -34.4397   -1.3922 C   0  0  0  0  0  0  0  0  0  0  0  0
   19.9588  -34.4987   -0.3580 C   0  0  0  0  0  0  0  0  0  0  0  0
   24.2938  -35.1673    0.1605 O   0  0  0  0  0  0  0  0  0  0  0  0
  2 12  2  0
  2  1  1  0
  3  2  1  0
  4  5  1  0
  4  3  2  0
  5 11  2  0
  6  5  1  0
  7  6  1  0
  7  8  1  6
  9  7  1  0
  9 10  2  0
 11 12  1  0
 13 14  1  0
 14 15  2  0
 16 14  1  0
 17 16  1  1
 17 18  1  0
 18  9  1  0
 19 20  2  0
 19 17  1  0
 22 21  1  0
 22 23  2  0
 24 23  1  0
 25 24  2  0
 26 25  1  0
 27 28  1  0
 27 26  1  6
 28 19  1  0
 29 27  1  0
 30 29  2  0
 31 32  2  0
 31 25  1  0
 32 22  1  0
 33 29  1  0
M  END
$$$$
