YNY.pdb
     RDKit          3D

 33 34  0  0  1  0  0  0  0  0999 V2000
   30.0355  -11.6318  -16.6337 O   0  0  0  0  0  0  0  0  0  0  0  0
   28.8513  -10.9213  -16.4572 C   0  0  0  0  0  0  0  0  0  0  0  0
   28.3569  -10.1691  -17.4898 C   0  0  0  0  0  0  0  0  0  0  0  0
   27.1970   -9.4382  -17.3937 C   0  0  0  0  0  0  0  0  0  0  0  0
   26.5222   -9.4917  -16.1703 C   0  0  0  0  0  0  0  0  0  0  0  0
   25.2892   -8.6664  -16.0191 C   0  0  0  0  0  0  0  0  0  0  0  0
   24.1019   -9.6153  -16.0799 C   0  0  2  0  0  0  0  0  0  0  0  0
   24.4994  -10.7754  -16.8795 N   0  0  0  0  0  0  0  0  0  0  0  0
   22.8996   -9.0043  -16.6499 C   0  0  0  0  0  0  0  0  0  0  0  0
   22.3413   -9.4750  -17.6872 O   0  0  0  0  0  0  0  0  0  0  0  0
   26.9777  -10.2363  -15.0978 C   0  0  0  0  0  0  0  0  0  0  0  0
   28.1632  -10.9562  -15.2589 C   0  0  0  0  0  0  0  0  0  0  0  0
   20.7765   -8.6455  -14.2101 N   0  0  0  0  0  0  0  0  0  0  0  0
   19.7484   -8.8118  -15.1652 C   0  0  0  0  0  0  0  0  0  0  0  0
   18.7420   -9.4985  -14.9221 O   0  0  0  0  0  0  0  0  0  0  0  0
   19.8537   -8.1533  -16.4908 C   0  0  0  0  0  0  0  0  0  0  0  0
   21.0675   -7.2456  -16.5772 C   0  0  2  0  0  0  0  0  0  0  0  0
   22.2575   -7.8544  -16.1047 N   0  0  0  0  0  0  0  0  0  0  0  0
   20.7113   -5.9723  -15.9133 C   0  0  0  0  0  0  0  0  0  0  0  0
   20.1988   -5.9376  -14.7593 O   0  0  0  0  0  0  0  0  0  0  0  0
   18.2129   -1.6848  -22.8787 O   0  0  0  0  0  0  0  0  0  0  0  0
   18.3927   -2.3996  -21.7051 C   0  0  0  0  0  0  0  0  0  0  0  0
   17.4386   -2.4295  -20.7052 C   0  0  0  0  0  0  0  0  0  0  0  0
   17.6520   -3.1662  -19.5297 C   0  0  0  0  0  0  0  0  0  0  0  0
   18.8219   -3.8770  -19.3522 C   0  0  0  0  0  0  0  0  0  0  0  0
   19.0647   -4.6435  -18.1276 C   0  0  0  0  0  0  0  0  0  0  0  0
   19.8869   -3.9006  -17.1386 C   0  0  2  0  0  0  0  0  0  0  0  0
   20.9168   -4.7044  -16.5241 N   0  0  0  0  0  0  0  0  0  0  0  0
   19.1072   -3.2576  -16.0955 C   0  0  0  0  0  0  0  0  0  0  0  0
   18.5365   -3.9003  -15.1544 O   0  0  0  0  0  0  0  0  0  0  0  0
   19.7598   -3.8242  -20.3777 C   0  0  0  0  0  0  0  0  0  0  0  0
   19.5654   -3.1073  -21.5331 C   0  0  0  0  0  0  0  0  0  0  0  0
   18.9343   -1.8612  -16.0654 O   0  0  0  0  0  0  0  0  0  0  0  0
  2 12  2  0
  2  1  1  0
  3  2  1  0
  4  5  1  0
  4  3  2  0
  5 11  2  0
  6  5  1  0
  7  6  1  0
  7  8  1  6
  9  7  1  0
  9 10  2  0
 11 12  1  0
 13 14  1  0
 14 15  2  0
 16 14  1  0
 17 16  1  1
 17 18  1  0
 18  9  1  0
 19 20  2  0
 19 17  1  0
 22 21  1  0
 22 23  2  0
 24 23  1  0
 25 24  2  0
 26 25  1  0
 27 28  1  0
 27 26  1  1
 28 19  1  0
 29 27  1  0
 30 29  2  0
 31 32  2  0
 31 25  1  0
 32 22  1  0
 33 29  1  0
M  END
$$$$
