YNY.pdb
     RDKit          3D

 33 34  0  0  1  0  0  0  0  0999 V2000
   21.1222  -14.2757  -20.7789 O   0  0  0  0  0  0  0  0  0  0  0  0
   20.1512  -13.3790  -20.3412 C   0  0  0  0  0  0  0  0  0  0  0  0
   19.3305  -13.7294  -19.3019 C   0  0  0  0  0  0  0  0  0  0  0  0
   18.3473  -12.9021  -18.8140 C   0  0  0  0  0  0  0  0  0  0  0  0
   18.2116  -11.6565  -19.4345 C   0  0  0  0  0  0  0  0  0  0  0  0
   17.1184  -10.7590  -18.9617 C   0  0  0  0  0  0  0  0  0  0  0  0
   17.7469   -9.7383  -18.0252 C   0  0  2  0  0  0  0  0  0  0  0  0
   18.1338  -10.4380  -16.7989 N   0  0  0  0  0  0  0  0  0  0  0  0
   16.8569   -8.6212  -17.7032 C   0  0  0  0  0  0  0  0  0  0  0  0
   15.6017   -8.7766  -17.6059 O   0  0  0  0  0  0  0  0  0  0  0  0
   19.0149  -11.2540  -20.4857 C   0  0  0  0  0  0  0  0  0  0  0  0
   19.9949  -12.1409  -20.9357 C   0  0  0  0  0  0  0  0  0  0  0  0
   15.0095   -4.0950  -16.0580 N   0  0  0  0  0  0  0  0  0  0  0  0
   14.9701   -5.2936  -15.3105 C   0  0  0  0  0  0  0  0  0  0  0  0
   14.2716   -5.3981  -14.2885 O   0  0  0  0  0  0  0  0  0  0  0  0
   15.7697   -6.4657  -15.7452 C   0  0  0  0  0  0  0  0  0  0  0  0
   16.5175   -6.1928  -17.0379 C   0  0  2  0  0  0  0  0  0  0  0  0
   17.3061   -7.2884  -17.4713 N   0  0  0  0  0  0  0  0  0  0  0  0
   17.2567   -4.9239  -16.8577 C   0  0  0  0  0  0  0  0  0  0  0  0
   17.7213   -4.5712  -15.7372 O   0  0  0  0  0  0  0  0  0  0  0  0
   13.2287    1.2888  -18.6216 O   0  0  0  0  0  0  0  0  0  0  0  0
   14.2601    0.5006  -18.1362 C   0  0  0  0  0  0  0  0  0  0  0  0
   14.0814   -0.3893  -17.0935 C   0  0  0  0  0  0  0  0  0  0  0  0
   15.1475   -1.1748  -16.6281 C   0  0  0  0  0  0  0  0  0  0  0  0
   16.3966   -1.0725  -17.2067 C   0  0  0  0  0  0  0  0  0  0  0  0
   17.5224   -1.8779  -16.7271 C   0  0  0  0  0  0  0  0  0  0  0  0
   18.1205   -2.7214  -17.7933 C   0  0  2  0  0  0  0  0  0  0  0  0
   17.4935   -4.0151  -17.9257 N   0  0  0  0  0  0  0  0  0  0  0  0
   19.5547   -2.9057  -17.6572 C   0  0  0  0  0  0  0  0  0  0  0  0
   20.1171   -4.0490  -17.6863 O   0  0  0  0  0  0  0  0  0  0  0  0
   16.5407   -0.1671  -18.2524 C   0  0  0  0  0  0  0  0  0  0  0  0
   15.5071    0.6086  -18.7182 C   0  0  0  0  0  0  0  0  0  0  0  0
   20.4207   -1.8103  -17.4813 O   0  0  0  0  0  0  0  0  0  0  0  0
  2 12  2  0
  2  1  1  0
  3  2  1  0
  4  5  1  0
  4  3  2  0
  5 11  2  0
  6  5  1  0
  7  6  1  0
  7  8  1  1
  9  7  1  0
  9 10  2  0
 11 12  1  0
 13 14  1  0
 14 15  2  0
 16 14  1  0
 17 16  1  1
 17 18  1  0
 18  9  1  0
 19 20  2  0
 19 17  1  0
 22 21  1  0
 22 23  2  0
 24 23  1  0
 25 24  2  0
 26 25  1  0
 27 28  1  0
 27 26  1  1
 28 19  1  0
 29 27  1  0
 30 29  2  0
 31 32  2  0
 31 25  1  0
 32 22  1  0
 33 29  1  0
M  END
$$$$
