HVS.pdb
     RDKit          3D

 24 24  0  0  1  0  0  0  0  0999 V2000
    9.8875  -14.4659   21.1083 N   0  0  0  0  0  0  0  0  0  0  0  0
    8.6183  -14.1889   21.7491 C   0  0  1  0  0  0  0  0  0  0  0  0
    7.5347  -14.8692   20.9804 C   0  0  0  0  0  0  0  0  0  0  0  0
    7.5474  -14.3385   19.5831 C   0  0  0  0  0  0  0  0  0  0  0  0
    8.1703  -13.2189   19.0730 C   0  0  0  0  0  0  0  0  0  0  0  0
    7.9353  -13.0863   17.7610 N   0  0  0  0  0  0  0  0  0  0  0  0
    7.1555  -14.1301   17.4296 C   0  0  0  0  0  0  0  0  0  0  0  0
    6.9113  -14.8929   18.5080 N   0  0  0  0  0  0  0  0  0  0  0  0
    8.6258  -14.4942   23.1762 C   0  0  0  0  0  0  0  0  0  0  0  0
    9.4640  -15.2908   23.6429 O   0  0  0  0  0  0  0  0  0  0  0  0
    6.7855  -13.2476   27.6355 C   0  0  0  0  0  0  0  0  0  0  0  0
    6.7220  -13.1989   26.1449 C   0  0  1  0  0  0  0  0  0  0  0  0
    6.9018  -11.7839   25.6470 C   0  0  0  0  0  0  0  0  0  0  0  0
    7.7341  -14.0830   25.4636 C   0  0  2  0  0  0  0  0  0  0  0  0
    7.6867  -13.8924   24.0409 N   0  0  0  0  0  0  0  0  0  0  0  0
    7.5803  -15.5104   25.8473 C   0  0  0  0  0  0  0  0  0  0  0  0
    6.4475  -16.0479   25.7489 O   0  0  0  0  0  0  0  0  0  0  0  0
   10.2626  -18.3920   25.4309 O   0  0  0  0  0  0  0  0  0  0  0  0
    8.9260  -18.6628   25.7215 C   0  0  0  0  0  0  0  0  0  0  0  0
    8.4817  -17.6578   26.7926 C   0  0  2  0  0  0  0  0  0  0  0  0
    8.6546  -16.3031   26.3223 N   0  0  0  0  0  0  0  0  0  0  0  0
    9.1843  -17.9082   28.0652 C   0  0  0  0  0  0  0  0  0  0  0  0
    9.8933  -17.0147   28.5853 O   0  0  0  0  0  0  0  0  0  0  0  0
    9.0886  -19.1215   28.7239 O   0  0  0  0  0  0  0  0  0  0  0  0
  2  9  1  0
  2  1  1  6
  3  2  1  0
  4  5  2  0
  4  3  1  0
  6  5  1  0
  7  8  2  0
  7  6  1  0
  8  4  1  0
  9 10  2  0
 12 11  1  1
 12 13  1  0
 14 15  1  6
 14 12  1  0
 15  9  1  0
 16 14  1  0
 17 16  2  0
 18 19  1  0
 20 19  1  6
 20 21  1  0
 21 16  1  0
 22 20  1  0
 22 24  1  0
 23 22  2  0
M  END
$$$$
