HVS.pdb
     RDKit          3D

 24 24  0  0  1  0  0  0  0  0999 V2000
    8.7290  -15.2403   20.6805 N   0  0  0  0  0  0  0  0  0  0  0  0
    7.8487  -15.6955   21.7368 C   0  0  1  0  0  0  0  0  0  0  0  0
    7.6728  -17.1724   21.6110 C   0  0  0  0  0  0  0  0  0  0  0  0
    7.0339  -17.4573   20.2900 C   0  0  0  0  0  0  0  0  0  0  0  0
    7.6181  -17.7135   19.0673 C   0  0  0  0  0  0  0  0  0  0  0  0
    6.6939  -17.9186   18.1198 N   0  0  0  0  0  0  0  0  0  0  0  0
    5.5088  -17.7923   18.7420 C   0  0  0  0  0  0  0  0  0  0  0  0
    5.6909  -17.5157   20.0438 N   0  0  0  0  0  0  0  0  0  0  0  0
    8.2749  -15.2514   23.0600 C   0  0  0  0  0  0  0  0  0  0  0  0
    9.4402  -15.4661   23.4486 O   0  0  0  0  0  0  0  0  0  0  0  0
    7.0909  -12.7492   27.1887 C   0  0  0  0  0  0  0  0  0  0  0  0
    6.7547  -13.2185   25.8121 C   0  0  1  0  0  0  0  0  0  0  0  0
    6.6862  -12.0547   24.8512 C   0  0  0  0  0  0  0  0  0  0  0  0
    7.7176  -14.2403   25.2654 C   0  0  2  0  0  0  0  0  0  0  0  0
    7.3748  -14.5759   23.9117 N   0  0  0  0  0  0  0  0  0  0  0  0
    7.8165  -15.4401   26.1366 C   0  0  0  0  0  0  0  0  0  0  0  0
    6.7845  -16.1288   26.3427 O   0  0  0  0  0  0  0  0  0  0  0  0
   10.7653  -17.9907   26.2224 O   0  0  0  0  0  0  0  0  0  0  0  0
    9.5144  -18.2514   26.7808 C   0  0  0  0  0  0  0  0  0  0  0  0
    9.1168  -17.0164   27.6001 C   0  0  2  0  0  0  0  0  0  0  0  0
    9.0251  -15.8508   26.7521 N   0  0  0  0  0  0  0  0  0  0  0  0
   10.0437  -16.8211   28.7309 C   0  0  0  0  0  0  0  0  0  0  0  0
   10.2340  -17.7404   29.5617 O   0  0  0  0  0  0  0  0  0  0  0  0
   10.7286  -15.6327   28.9148 O   0  0  0  0  0  0  0  0  0  0  0  0
  2  9  1  0
  2  1  1  6
  3  2  1  0
  4  5  2  0
  4  3  1  0
  6  5  1  0
  7  8  2  0
  7  6  1  0
  8  4  1  0
  9 10  2  0
 12 11  1  1
 12 13  1  0
 14 15  1  6
 14 12  1  0
 15  9  1  0
 16 14  1  0
 17 16  2  0
 18 19  1  0
 20 19  1  6
 20 21  1  0
 21 16  1  0
 22 20  1  0
 22 24  1  0
 23 22  2  0
M  END
$$$$
