HVS.pdb
     RDKit          3D

 24 24  0  0  1  0  0  0  0  0999 V2000
    7.8664  -15.2855   20.3401 N   0  0  0  0  0  0  0  0  0  0  0  0
    7.4370  -15.7751   21.6338 C   0  0  1  0  0  0  0  0  0  0  0  0
    7.3648  -17.2651   21.5826 C   0  0  0  0  0  0  0  0  0  0  0  0
    6.3734  -17.6503   20.5323 C   0  0  0  0  0  0  0  0  0  0  0  0
    4.9955  -17.6651   20.5865 C   0  0  0  0  0  0  0  0  0  0  0  0
    4.4672  -18.0788   19.4273 N   0  0  0  0  0  0  0  0  0  0  0  0
    5.5164  -18.3307   18.6252 C   0  0  0  0  0  0  0  0  0  0  0  0
    6.6684  -18.0801   19.2690 N   0  0  0  0  0  0  0  0  0  0  0  0
    8.2399  -15.2496   22.7334 C   0  0  0  0  0  0  0  0  0  0  0  0
    9.4845  -15.2466   22.6556 O   0  0  0  0  0  0  0  0  0  0  0  0
    7.4523  -12.0320   24.9595 C   0  0  0  0  0  0  0  0  0  0  0  0
    7.6821  -13.2488   25.7931 C   0  0  1  0  0  0  0  0  0  0  0  0
    6.3788  -13.7677   26.3540 C   0  0  0  0  0  0  0  0  0  0  0  0
    8.3716  -14.3687   25.0579 C   0  0  2  0  0  0  0  0  0  0  0  0
    7.6177  -14.7405   23.8933 N   0  0  0  0  0  0  0  0  0  0  0  0
    8.6540  -15.5296   25.9417 C   0  0  0  0  0  0  0  0  0  0  0  0
    7.6999  -16.2650   26.3032 O   0  0  0  0  0  0  0  0  0  0  0  0
   11.4968  -17.6773   25.2907 O   0  0  0  0  0  0  0  0  0  0  0  0
   11.5243  -17.7125   26.6844 C   0  0  0  0  0  0  0  0  0  0  0  0
   10.2406  -17.0342   27.1810 C   0  0  2  0  0  0  0  0  0  0  0  0
    9.9550  -15.8524   26.4014 N   0  0  0  0  0  0  0  0  0  0  0  0
   10.3267  -16.7508   28.6261 C   0  0  0  0  0  0  0  0  0  0  0  0
   10.2330  -15.5744   29.0489 O   0  0  0  0  0  0  0  0  0  0  0  0
   10.5116  -17.7584   29.5565 O   0  0  0  0  0  0  0  0  0  0  0  0
  2  9  1  0
  2  1  1  6
  3  2  1  0
  4  5  2  0
  4  3  1  0
  6  5  1  0
  7  8  2  0
  7  6  1  0
  8  4  1  0
  9 10  2  0
 12 11  1  6
 12 13  1  0
 14 15  1  6
 14 12  1  0
 15  9  1  0
 16 14  1  0
 17 16  2  0
 18 19  1  0
 20 19  1  6
 20 21  1  0
 21 16  1  0
 22 20  1  0
 22 24  1  0
 23 22  2  0
M  END
$$$$
