HVS.pdb
     RDKit          3D

 24 24  0  0  1  0  0  0  0  0999 V2000
    9.9369  -13.5209   20.9435 N   0  0  0  0  0  0  0  0  0  0  0  0
    8.6679  -13.8419   21.5637 C   0  0  1  0  0  0  0  0  0  0  0  0
    8.0216  -14.9432   20.7908 C   0  0  0  0  0  0  0  0  0  0  0  0
    7.8071  -14.4688   19.3896 C   0  0  0  0  0  0  0  0  0  0  0  0
    8.2100  -13.2959   18.7866 C   0  0  0  0  0  0  0  0  0  0  0  0
    7.8159  -13.2458   17.5075 N   0  0  0  0  0  0  0  0  0  0  0  0
    7.1553  -14.3966   17.2909 C   0  0  0  0  0  0  0  0  0  0  0  0
    7.1388  -15.1439   18.4070 N   0  0  0  0  0  0  0  0  0  0  0  0
    8.7866  -14.1012   22.9950 C   0  0  0  0  0  0  0  0  0  0  0  0
    9.7481  -14.7622   23.4351 O   0  0  0  0  0  0  0  0  0  0  0  0
    6.9181  -13.1444   27.5181 C   0  0  0  0  0  0  0  0  0  0  0  0
    6.8311  -13.0585   26.0303 C   0  0  1  0  0  0  0  0  0  0  0  0
    6.8365  -11.6177   25.5758 C   0  0  0  0  0  0  0  0  0  0  0  0
    7.9321  -13.7955   25.3129 C   0  0  2  0  0  0  0  0  0  0  0  0
    7.8167  -13.6079   23.8937 N   0  0  0  0  0  0  0  0  0  0  0  0
    7.9837  -15.2320   25.6900 C   0  0  0  0  0  0  0  0  0  0  0  0
    6.9741  -15.9523   25.4808 O   0  0  0  0  0  0  0  0  0  0  0  0
   11.2829  -17.4954   25.7222 O   0  0  0  0  0  0  0  0  0  0  0  0
   10.0056  -18.0550   25.7307 C   0  0  0  0  0  0  0  0  0  0  0  0
    9.1505  -17.2196   26.6926 C   0  0  2  0  0  0  0  0  0  0  0  0
    9.1225  -15.8362   26.2783 N   0  0  0  0  0  0  0  0  0  0  0  0
    9.6180  -17.3841   28.0820 C   0  0  0  0  0  0  0  0  0  0  0  0
    9.6640  -18.5222   28.6056 O   0  0  0  0  0  0  0  0  0  0  0  0
   10.0177  -16.3039   28.8491 O   0  0  0  0  0  0  0  0  0  0  0  0
  2  9  1  0
  2  1  1  6
  3  2  1  0
  4  5  2  0
  4  3  1  0
  6  5  1  0
  7  8  2  0
  7  6  1  0
  8  4  1  0
  9 10  2  0
 12 11  1  1
 12 13  1  0
 14 15  1  6
 14 12  1  0
 15  9  1  0
 16 14  1  0
 17 16  2  0
 18 19  1  0
 20 19  1  6
 20 21  1  0
 21 16  1  0
 22 20  1  0
 22 24  1  0
 23 22  2  0
M  END
$$$$
