HVS.pdb
     RDKit          3D

 24 24  0  0  1  0  0  0  0  0999 V2000
    8.9986  -15.2755   20.6786 N   0  0  0  0  0  0  0  0  0  0  0  0
    8.0426  -15.3514   21.7641 C   0  0  1  0  0  0  0  0  0  0  0  0
    7.4447  -16.7190   21.7815 C   0  0  0  0  0  0  0  0  0  0  0  0
    6.7750  -16.9543   20.4660 C   0  0  0  0  0  0  0  0  0  0  0  0
    6.7355  -16.1541   19.3434 C   0  0  0  0  0  0  0  0  0  0  0  0
    6.0235  -16.7254   18.3633 N   0  0  0  0  0  0  0  0  0  0  0  0
    5.6042  -17.9008   18.8635 C   0  0  0  0  0  0  0  0  0  0  0  0
    6.0442  -18.0570   20.1231 N   0  0  0  0  0  0  0  0  0  0  0  0
    8.6018  -14.9235   23.0423 C   0  0  0  0  0  0  0  0  0  0  0  0
    9.7743  -15.2215   23.3453 O   0  0  0  0  0  0  0  0  0  0  0  0
    5.9834  -13.3954   26.1603 C   0  0  0  0  0  0  0  0  0  0  0  0
    7.3612  -12.8691   25.9299 C   0  0  1  0  0  0  0  0  0  0  0  0
    7.9847  -12.4137   27.2284 C   0  0  0  0  0  0  0  0  0  0  0  0
    8.2874  -13.8571   25.2695 C   0  0  2  0  0  0  0  0  0  0  0  0
    7.8236  -14.1698   23.9468 N   0  0  0  0  0  0  0  0  0  0  0  0
    8.4925  -15.0737   26.0980 C   0  0  0  0  0  0  0  0  0  0  0  0
    7.5633  -15.9173   26.1801 O   0  0  0  0  0  0  0  0  0  0  0  0
   11.2986  -18.5151   27.5332 O   0  0  0  0  0  0  0  0  0  0  0  0
   11.0977  -17.3401   26.8097 C   0  0  0  0  0  0  0  0  0  0  0  0
    9.9475  -16.5820   27.4855 C   0  0  2  0  0  0  0  0  0  0  0  0
    9.6923  -15.3332   26.8061 N   0  0  0  0  0  0  0  0  0  0  0  0
   10.2191  -16.3977   28.9237 C   0  0  0  0  0  0  0  0  0  0  0  0
   10.3644  -15.2471   29.3998 O   0  0  0  0  0  0  0  0  0  0  0  0
   10.3223  -17.4724   29.7894 O   0  0  0  0  0  0  0  0  0  0  0  0
  2  9  1  0
  2  1  1  6
  3  2  1  0
  4  5  2  0
  4  3  1  0
  6  5  1  0
  7  8  2  0
  7  6  1  0
  8  4  1  0
  9 10  2  0
 12 11  1  1
 12 13  1  0
 14 15  1  6
 14 12  1  0
 15  9  1  0
 16 14  1  0
 17 16  2  0
 18 19  1  0
 20 19  1  6
 20 21  1  0
 21 16  1  0
 22 20  1  0
 22 24  1  0
 23 22  2  0
M  END
$$$$
