HVS.pdb
     RDKit          3D

 24 24  0  0  1  0  0  0  0  0999 V2000
    8.3239  -15.2669   20.9219 N   0  0  0  0  0  0  0  0  0  0  0  0
    7.5351  -15.5158   22.1110 C   0  0  1  0  0  0  0  0  0  0  0  0
    7.2380  -16.9763   22.1922 C   0  0  0  0  0  0  0  0  0  0  0  0
    6.4569  -17.3636   20.9780 C   0  0  0  0  0  0  0  0  0  0  0  0
    5.8147  -16.5664   20.0539 C   0  0  0  0  0  0  0  0  0  0  0  0
    5.2208  -17.3024   19.1054 N   0  0  0  0  0  0  0  0  0  0  0  0
    5.4855  -18.5810   19.4260 C   0  0  0  0  0  0  0  0  0  0  0  0
    6.2255  -18.6392   20.5456 N   0  0  0  0  0  0  0  0  0  0  0  0
    8.1372  -14.9568   23.3173 C   0  0  0  0  0  0  0  0  0  0  0  0
    9.3720  -15.0078   23.4835 O   0  0  0  0  0  0  0  0  0  0  0  0
    7.4559  -12.3668   27.4972 C   0  0  0  0  0  0  0  0  0  0  0  0
    6.9208  -12.9588   26.2356 C   0  0  1  0  0  0  0  0  0  0  0  0
    6.5483  -11.8750   25.2512 C   0  0  0  0  0  0  0  0  0  0  0  0
    7.8693  -13.9171   25.5631 C   0  0  2  0  0  0  0  0  0  0  0  0
    7.3301  -14.3541   24.3058 N   0  0  0  0  0  0  0  0  0  0  0  0
    8.2365  -15.0548   26.4458 C   0  0  0  0  0  0  0  0  0  0  0  0
    7.3557  -15.9012   26.7451 O   0  0  0  0  0  0  0  0  0  0  0  0
   11.9631  -16.5442   26.7565 O   0  0  0  0  0  0  0  0  0  0  0  0
   10.8583  -17.2920   27.1626 C   0  0  0  0  0  0  0  0  0  0  0  0
    9.8858  -16.3265   27.8529 C   0  0  2  0  0  0  0  0  0  0  0  0
    9.5400  -15.2357   26.9716 N   0  0  0  0  0  0  0  0  0  0  0  0
   10.4390  -15.8606   29.1386 C   0  0  0  0  0  0  0  0  0  0  0  0
   10.5693  -14.6348   29.3666 O   0  0  0  0  0  0  0  0  0  0  0  0
   10.8294  -16.7464   30.1276 O   0  0  0  0  0  0  0  0  0  0  0  0
  2  9  1  0
  2  1  1  6
  3  2  1  0
  4  5  2  0
  4  3  1  0
  6  5  1  0
  7  8  2  0
  7  6  1  0
  8  4  1  0
  9 10  2  0
 12 11  1  1
 12 13  1  0
 14 15  1  6
 14 12  1  0
 15  9  1  0
 16 14  1  0
 17 16  2  0
 18 19  1  0
 20 19  1  6
 20 21  1  0
 21 16  1  0
 22 20  1  0
 22 24  1  0
 23 22  2  0
M  END
$$$$
