HVS.pdb
     RDKit          3D

 24 24  0  0  1  0  0  0  0  0999 V2000
    9.3927  -17.3087   16.2822 N   0  0  0  0  0  0  0  0  0  0  0  0
    8.4320  -17.0443   17.3335 C   0  0  1  0  0  0  0  0  0  0  0  0
    7.6704  -18.2972   17.6130 C   0  0  0  0  0  0  0  0  0  0  0  0
    6.9557  -18.6996   16.3634 C   0  0  0  0  0  0  0  0  0  0  0  0
    6.1001  -17.9695   15.5654 C   0  0  0  0  0  0  0  0  0  0  0  0
    5.6628  -18.6958   14.5285 N   0  0  0  0  0  0  0  0  0  0  0  0
    6.2439  -19.9006   14.6647 C   0  0  0  0  0  0  0  0  0  0  0  0
    7.0229  -19.9234   15.7588 N   0  0  0  0  0  0  0  0  0  0  0  0
    9.0366  -16.4325   18.5125 C   0  0  0  0  0  0  0  0  0  0  0  0
   10.2311  -16.6560   18.7924 O   0  0  0  0  0  0  0  0  0  0  0  0
    7.7558  -12.7671   19.7062 C   0  0  0  0  0  0  0  0  0  0  0  0
    8.0226  -13.7013   20.8396 C   0  0  1  0  0  0  0  0  0  0  0  0
    6.7284  -14.1939   21.4437 C   0  0  0  0  0  0  0  0  0  0  0  0
    8.8633  -14.8928   20.4608 C   0  0  2  0  0  0  0  0  0  0  0  0
    8.2776  -15.5836   19.3462 N   0  0  0  0  0  0  0  0  0  0  0  0
    9.1117  -15.7940   21.6161 C   0  0  0  0  0  0  0  0  0  0  0  0
    8.2098  -16.5982   21.9649 O   0  0  0  0  0  0  0  0  0  0  0  0
   12.8275  -15.9813   23.4762 O   0  0  0  0  0  0  0  0  0  0  0  0
   12.0572  -17.1430   23.4342 C   0  0  0  0  0  0  0  0  0  0  0  0
   10.5847  -16.7114   23.4343 C   0  0  2  0  0  0  0  0  0  0  0  0
   10.3235  -15.7928   22.3507 N   0  0  0  0  0  0  0  0  0  0  0  0
   10.2039  -16.1587   24.7479 C   0  0  0  0  0  0  0  0  0  0  0  0
   10.3605  -16.8361   25.7910 O   0  0  0  0  0  0  0  0  0  0  0  0
    9.6671  -14.8897   24.8766 O   0  0  0  0  0  0  0  0  0  0  0  0
  2  9  1  0
  2  1  1  6
  3  2  1  0
  4  5  2  0
  4  3  1  0
  6  5  1  0
  7  8  2  0
  7  6  1  0
  8  4  1  0
  9 10  2  0
 12 11  1  6
 12 13  1  0
 14 15  1  6
 14 12  1  0
 15  9  1  0
 16 14  1  0
 17 16  2  0
 18 19  1  0
 20 19  1  1
 20 21  1  0
 21 16  1  0
 22 20  1  0
 22 24  1  0
 23 22  2  0
M  END
$$$$
