HVS.pdb
     RDKit          3D

 24 24  0  0  1  0  0  0  0  0999 V2000
    9.4884  -15.5942   14.7344 N   0  0  0  0  0  0  0  0  0  0  0  0
    8.9582  -15.9960   16.0211 C   0  0  1  0  0  0  0  0  0  0  0  0
    8.9576  -17.4868   16.0949 C   0  0  0  0  0  0  0  0  0  0  0  0
    7.9803  -18.0053   15.0897 C   0  0  0  0  0  0  0  0  0  0  0  0
    6.6717  -18.4053   15.2602 C   0  0  0  0  0  0  0  0  0  0  0  0
    6.1319  -18.8107   14.1034 N   0  0  0  0  0  0  0  0  0  0  0  0
    7.1039  -18.6686   13.1854 C   0  0  0  0  0  0  0  0  0  0  0  0
    8.2202  -18.1870   13.7566 N   0  0  0  0  0  0  0  0  0  0  0  0
    9.6270  -15.3389   17.1395 C   0  0  0  0  0  0  0  0  0  0  0  0
   10.8644  -15.1845   17.1273 O   0  0  0  0  0  0  0  0  0  0  0  0
    8.0174  -12.2420   19.1398 C   0  0  0  0  0  0  0  0  0  0  0  0
    8.5557  -13.2980   20.0473 C   0  0  1  0  0  0  0  0  0  0  0  0
    7.4321  -14.0965   20.6655 C   0  0  0  0  0  0  0  0  0  0  0  0
    9.5111  -14.2491   19.3745 C   0  0  2  0  0  0  0  0  0  0  0  0
    8.8822  -14.8725   18.2438 N   0  0  0  0  0  0  0  0  0  0  0  0
   10.0760  -15.2423   20.3248 C   0  0  0  0  0  0  0  0  0  0  0  0
    9.4726  -16.3327   20.4949 O   0  0  0  0  0  0  0  0  0  0  0  0
   13.9697  -15.6750   21.0913 O   0  0  0  0  0  0  0  0  0  0  0  0
   13.2775  -15.6675   22.3019 C   0  0  0  0  0  0  0  0  0  0  0  0
   11.8093  -15.9835   21.9871 C   0  0  2  0  0  0  0  0  0  0  0  0
   11.2700  -15.0208   21.0552 N   0  0  0  0  0  0  0  0  0  0  0  0
   11.0180  -16.0728   23.2288 C   0  0  0  0  0  0  0  0  0  0  0  0
   10.0858  -15.2634   23.4469 O   0  0  0  0  0  0  0  0  0  0  0  0
   11.2710  -17.0394   24.1863 O   0  0  0  0  0  0  0  0  0  0  0  0
  2  9  1  0
  2  1  1  6
  3  2  1  0
  4  5  2  0
  4  3  1  0
  6  5  1  0
  7  8  2  0
  7  6  1  0
  8  4  1  0
  9 10  2  0
 12 11  1  6
 12 13  1  0
 14 15  1  6
 14 12  1  0
 15  9  1  0
 16 14  1  0
 17 16  2  0
 18 19  1  0
 20 19  1  1
 20 21  1  0
 21 16  1  0
 22 20  1  0
 22 24  1  0
 23 22  2  0
M  END
$$$$
