HVS.pdb
     RDKit          3D

 24 24  0  0  1  0  0  0  0  0999 V2000
    6.8715  -15.8870   20.8563 N   0  0  0  0  0  0  0  0  0  0  0  0
    8.3015  -15.7174   21.0127 C   0  0  1  0  0  0  0  0  0  0  0  0
    8.8321  -14.9959   19.8186 C   0  0  0  0  0  0  0  0  0  0  0  0
    8.4681  -15.7786   18.5983 C   0  0  0  0  0  0  0  0  0  0  0  0
    8.8271  -17.0597   18.2355 C   0  0  0  0  0  0  0  0  0  0  0  0
    8.2920  -17.3994   17.0555 N   0  0  0  0  0  0  0  0  0  0  0  0
    7.5849  -16.3262   16.6607 C   0  0  0  0  0  0  0  0  0  0  0  0
    7.6776  -15.3436   17.5719 N   0  0  0  0  0  0  0  0  0  0  0  0
    8.6636  -15.1127   22.2906 C   0  0  0  0  0  0  0  0  0  0  0  0
    9.8417  -14.7674   22.5097 O   0  0  0  0  0  0  0  0  0  0  0  0
    7.3281  -13.3250   26.6794 C   0  0  0  0  0  0  0  0  0  0  0  0
    6.9727  -13.7898   25.3061 C   0  0  1  0  0  0  0  0  0  0  0  0
    6.6576  -12.6163   24.4083 C   0  0  0  0  0  0  0  0  0  0  0  0
    8.0413  -14.6259   24.6512 C   0  0  2  0  0  0  0  0  0  0  0  0
    7.6867  -14.9128   23.2894 N   0  0  0  0  0  0  0  0  0  0  0  0
    8.3443  -15.8568   25.4268 C   0  0  0  0  0  0  0  0  0  0  0  0
    7.4158  -16.6726   25.6601 O   0  0  0  0  0  0  0  0  0  0  0  0
   12.2079  -17.8837   26.3338 O   0  0  0  0  0  0  0  0  0  0  0  0
   10.9319  -18.2402   25.8990 C   0  0  0  0  0  0  0  0  0  0  0  0
    9.9306  -17.3640   26.6634 C   0  0  2  0  0  0  0  0  0  0  0  0
    9.6373  -16.1603   25.9210 N   0  0  0  0  0  0  0  0  0  0  0  0
   10.4194  -17.0824   28.0264 C   0  0  0  0  0  0  0  0  0  0  0  0
   10.6798  -15.9074   28.3772 O   0  0  0  0  0  0  0  0  0  0  0  0
   10.6063  -18.0902   28.9562 O   0  0  0  0  0  0  0  0  0  0  0  0
  2  9  1  0
  2  1  1  6
  3  2  1  0
  4  5  2  0
  4  3  1  0
  6  5  1  0
  7  8  2  0
  7  6  1  0
  8  4  1  0
  9 10  2  0
 12 11  1  1
 12 13  1  0
 14 15  1  6
 14 12  1  0
 15  9  1  0
 16 14  1  0
 17 16  2  0
 18 19  1  0
 20 19  1  6
 20 21  1  0
 21 16  1  0
 22 20  1  0
 22 24  1  0
 23 22  2  0
M  END
$$$$
