HVS.pdb
     RDKit          3D

 24 24  0  0  1  0  0  0  0  0999 V2000
    9.8373  -13.9138   20.9803 N   0  0  0  0  0  0  0  0  0  0  0  0
    8.5361  -13.9492   21.6157 C   0  0  1  0  0  0  0  0  0  0  0  0
    7.6418  -14.8469   20.8267 C   0  0  0  0  0  0  0  0  0  0  0  0
    7.5527  -14.3127   19.4335 C   0  0  0  0  0  0  0  0  0  0  0  0
    8.2018  -13.2397   18.8597 C   0  0  0  0  0  0  0  0  0  0  0  0
    7.8462  -13.0847   17.5776 N   0  0  0  0  0  0  0  0  0  0  0  0
    6.9623  -14.0670   17.3298 C   0  0  0  0  0  0  0  0  0  0  0  0
    6.7726  -14.8143   18.4298 N   0  0  0  0  0  0  0  0  0  0  0  0
    8.6085  -14.2711   23.0373 C   0  0  0  0  0  0  0  0  0  0  0  0
    9.5454  -14.9676   23.4758 O   0  0  0  0  0  0  0  0  0  0  0  0
    6.7698  -13.2534   27.5523 C   0  0  0  0  0  0  0  0  0  0  0  0
    6.6735  -13.1839   26.0643 C   0  0  1  0  0  0  0  0  0  0  0  0
    6.7498  -11.7519   25.5889 C   0  0  0  0  0  0  0  0  0  0  0  0
    7.7278  -13.9875   25.3482 C   0  0  2  0  0  0  0  0  0  0  0  0
    7.6214  -13.7987   23.9284 N   0  0  0  0  0  0  0  0  0  0  0  0
    7.6947  -15.4231   25.7307 C   0  0  0  0  0  0  0  0  0  0  0  0
    6.6302  -16.0722   25.5653 O   0  0  0  0  0  0  0  0  0  0  0  0
   10.6870  -17.9991   25.5353 O   0  0  0  0  0  0  0  0  0  0  0  0
    9.3773  -18.4279   25.7485 C   0  0  0  0  0  0  0  0  0  0  0  0
    8.7427  -17.4631   26.7590 C   0  0  2  0  0  0  0  0  0  0  0  0
    8.8115  -16.1033   26.2769 N   0  0  0  0  0  0  0  0  0  0  0  0
    9.3592  -17.6228   28.0896 C   0  0  0  0  0  0  0  0  0  0  0  0
    9.9009  -16.6465   28.6594 O   0  0  0  0  0  0  0  0  0  0  0  0
    9.3628  -18.8391   28.7497 O   0  0  0  0  0  0  0  0  0  0  0  0
  2  9  1  0
  2  1  1  6
  3  2  1  0
  4  5  2  0
  4  3  1  0
  6  5  1  0
  7  8  2  0
  7  6  1  0
  8  4  1  0
  9 10  2  0
 12 11  1  1
 12 13  1  0
 14 15  1  6
 14 12  1  0
 15  9  1  0
 16 14  1  0
 17 16  2  0
 18 19  1  0
 20 19  1  6
 20 21  1  0
 21 16  1  0
 22 20  1  0
 22 24  1  0
 23 22  2  0
M  END
$$$$
