HVS.pdb
     RDKit          3D

 24 24  0  0  1  0  0  0  0  0999 V2000
    9.3248  -16.4316   15.3373 N   0  0  0  0  0  0  0  0  0  0  0  0
    8.4116  -16.5673   16.4533 C   0  0  1  0  0  0  0  0  0  0  0  0
    7.9921  -17.9959   16.5585 C   0  0  0  0  0  0  0  0  0  0  0  0
    7.1605  -18.3293   15.3620 C   0  0  0  0  0  0  0  0  0  0  0  0
    7.4847  -18.2754   14.0227 C   0  0  0  0  0  0  0  0  0  0  0  0
    6.4539  -18.6560   13.2567 N   0  0  0  0  0  0  0  0  0  0  0  0
    5.4623  -18.9558   14.1137 C   0  0  0  0  0  0  0  0  0  0  0  0
    5.8658  -18.7665   15.3809 N   0  0  0  0  0  0  0  0  0  0  0  0
    8.9417  -16.0037   17.6908 C   0  0  0  0  0  0  0  0  0  0  0  0
   10.1590  -16.0890   17.9479 O   0  0  0  0  0  0  0  0  0  0  0  0
    7.9604  -13.2784   21.7404 C   0  0  0  0  0  0  0  0  0  0  0  0
    7.5679  -13.8385   20.4135 C   0  0  1  0  0  0  0  0  0  0  0  0
    7.3403  -12.7314   19.4110 C   0  0  0  0  0  0  0  0  0  0  0  0
    8.5691  -14.8089   19.8425 C   0  0  2  0  0  0  0  0  0  0  0  0
    8.0844  -15.3578   18.6071 N   0  0  0  0  0  0  0  0  0  0  0  0
    8.9475  -15.8636   20.8187 C   0  0  0  0  0  0  0  0  0  0  0  0
    8.0835  -16.7090   21.1661 O   0  0  0  0  0  0  0  0  0  0  0  0
   12.7191  -17.1286   21.2643 O   0  0  0  0  0  0  0  0  0  0  0  0
   11.6686  -17.9321   21.7065 C   0  0  0  0  0  0  0  0  0  0  0  0
   10.6124  -17.0023   22.3183 C   0  0  2  0  0  0  0  0  0  0  0  0
   10.2436  -15.9656   21.3826 N   0  0  0  0  0  0  0  0  0  0  0  0
   11.0804  -16.4594   23.6076 C   0  0  0  0  0  0  0  0  0  0  0  0
   11.2028  -15.2222   23.7684 O   0  0  0  0  0  0  0  0  0  0  0  0
   11.3975  -17.2835   24.6732 O   0  0  0  0  0  0  0  0  0  0  0  0
  2  9  1  0
  2  1  1  6
  3  2  1  0
  4  5  2  0
  4  3  1  0
  6  5  1  0
  7  8  2  0
  7  6  1  0
  8  4  1  0
  9 10  2  0
 12 11  1  1
 12 13  1  0
 14 15  1  6
 14 12  1  0
 15  9  1  0
 16 14  1  0
 17 16  2  0
 18 19  1  0
 20 19  1  6
 20 21  1  0
 21 16  1  0
 22 20  1  0
 22 24  1  0
 23 22  2  0
M  END
$$$$
