HVS.pdb
     RDKit          3D

 24 24  0  0  1  0  0  0  0  0999 V2000
    9.9639  -14.2682   20.9924 N   0  0  0  0  0  0  0  0  0  0  0  0
    8.6705  -14.1382   21.6313 C   0  0  1  0  0  0  0  0  0  0  0  0
    7.6812  -14.9699   20.8847 C   0  0  0  0  0  0  0  0  0  0  0  0
    7.5477  -14.4126   19.5041 C   0  0  0  0  0  0  0  0  0  0  0  0
    8.2595  -13.4035   18.8903 C   0  0  0  0  0  0  0  0  0  0  0  0
    7.8311  -13.1979   17.6380 N   0  0  0  0  0  0  0  0  0  0  0  0
    6.8369  -14.0832   17.4497 C   0  0  0  0  0  0  0  0  0  0  0  0
    6.6513  -14.8209   18.5568 N   0  0  0  0  0  0  0  0  0  0  0  0
    8.7181  -14.4034   23.0656 C   0  0  0  0  0  0  0  0  0  0  0  0
    9.6222  -15.1184   23.5417 O   0  0  0  0  0  0  0  0  0  0  0  0
    6.8796  -13.1008   27.5070 C   0  0  0  0  0  0  0  0  0  0  0  0
    6.7500  -13.1751   26.0217 C   0  0  1  0  0  0  0  0  0  0  0  0
    6.7231  -11.7911   25.4166 C   0  0  0  0  0  0  0  0  0  0  0  0
    7.8404  -13.9728   25.3549 C   0  0  2  0  0  0  0  0  0  0  0  0
    7.7438  -13.8549   23.9269 N   0  0  0  0  0  0  0  0  0  0  0  0
    7.8543  -15.3891   25.8047 C   0  0  0  0  0  0  0  0  0  0  0  0
    6.8370  -16.1009   25.6038 O   0  0  0  0  0  0  0  0  0  0  0  0
   10.9700  -17.7482   25.7242 O   0  0  0  0  0  0  0  0  0  0  0  0
    9.6831  -18.2576   25.8940 C   0  0  0  0  0  0  0  0  0  0  0  0
    8.9675  -17.3543   26.9073 C   0  0  2  0  0  0  0  0  0  0  0  0
    8.9651  -15.9830   26.4540 N   0  0  0  0  0  0  0  0  0  0  0  0
    9.5610  -17.5049   28.2494 C   0  0  0  0  0  0  0  0  0  0  0  0
    9.9998  -16.5050   28.8651 O   0  0  0  0  0  0  0  0  0  0  0  0
    9.6545  -18.7379   28.8706 O   0  0  0  0  0  0  0  0  0  0  0  0
  2  9  1  0
  2  1  1  6
  3  2  1  0
  4  5  2  0
  4  3  1  0
  6  5  1  0
  7  8  2  0
  7  6  1  0
  8  4  1  0
  9 10  2  0
 12 11  1  1
 12 13  1  0
 14 15  1  6
 14 12  1  0
 15  9  1  0
 16 14  1  0
 17 16  2  0
 18 19  1  0
 20 19  1  6
 20 21  1  0
 21 16  1  0
 22 20  1  0
 22 24  1  0
 23 22  2  0
M  END
$$$$
