HVS.pdb
     RDKit          3D

 24 24  0  0  1  0  0  0  0  0999 V2000
    8.9754  -15.8428   20.8129 N   0  0  0  0  0  0  0  0  0  0  0  0
    7.9854  -15.8820   21.8694 C   0  0  1  0  0  0  0  0  0  0  0  0
    7.4412  -17.2686   21.9651 C   0  0  0  0  0  0  0  0  0  0  0  0
    6.8031  -17.6128   20.6579 C   0  0  0  0  0  0  0  0  0  0  0  0
    6.7131  -16.8689   19.5002 C   0  0  0  0  0  0  0  0  0  0  0  0
    6.0553  -17.5360   18.5430 N   0  0  0  0  0  0  0  0  0  0  0  0
    5.7219  -18.7164   19.0935 C   0  0  0  0  0  0  0  0  0  0  0  0
    6.1612  -18.7822   20.3612 N   0  0  0  0  0  0  0  0  0  0  0  0
    8.4820  -15.3427   23.1313 C   0  0  0  0  0  0  0  0  0  0  0  0
    9.6778  -15.4945   23.4510 O   0  0  0  0  0  0  0  0  0  0  0  0
    7.4166  -12.7271   27.2323 C   0  0  0  0  0  0  0  0  0  0  0  0
    7.0767  -13.1938   25.8557 C   0  0  1  0  0  0  0  0  0  0  0  0
    7.0132  -12.0290   24.8956 C   0  0  0  0  0  0  0  0  0  0  0  0
    8.0341  -14.2200   25.3074 C   0  0  2  0  0  0  0  0  0  0  0  0
    7.6163  -14.6453   24.0008 N   0  0  0  0  0  0  0  0  0  0  0  0
    8.2253  -15.3624   26.2385 C   0  0  0  0  0  0  0  0  0  0  0  0
    7.2512  -16.1210   26.4784 O   0  0  0  0  0  0  0  0  0  0  0  0
   11.5984  -17.4176   26.6685 O   0  0  0  0  0  0  0  0  0  0  0  0
   10.3686  -17.9058   27.1086 C   0  0  0  0  0  0  0  0  0  0  0  0
    9.6374  -16.7433   27.7929 C   0  0  2  0  0  0  0  0  0  0  0  0
    9.4601  -15.6425   26.8748 N   0  0  0  0  0  0  0  0  0  0  0  0
   10.3376  -16.3422   29.0277 C   0  0  0  0  0  0  0  0  0  0  0  0
   10.7298  -15.1613   29.1799 O   0  0  0  0  0  0  0  0  0  0  0  0
   10.5846  -17.2414   30.0503 O   0  0  0  0  0  0  0  0  0  0  0  0
  2  9  1  0
  2  1  1  6
  3  2  1  0
  4  5  2  0
  4  3  1  0
  6  5  1  0
  7  8  2  0
  7  6  1  0
  8  4  1  0
  9 10  2  0
 12 11  1  1
 12 13  1  0
 14 15  1  6
 14 12  1  0
 15  9  1  0
 16 14  1  0
 17 16  2  0
 18 19  1  0
 20 19  1  6
 20 21  1  0
 21 16  1  0
 22 20  1  0
 22 24  1  0
 23 22  2  0
M  END
$$$$
