HVS.pdb
     RDKit          3D

 24 24  0  0  1  0  0  0  0  0999 V2000
    9.4926  -16.9594   15.8275 N   0  0  0  0  0  0  0  0  0  0  0  0
    8.5978  -17.0596   16.9621 C   0  0  1  0  0  0  0  0  0  0  0  0
    8.3077  -18.5012   17.2180 C   0  0  0  0  0  0  0  0  0  0  0  0
    7.5106  -19.0298   16.0693 C   0  0  0  0  0  0  0  0  0  0  0  0
    7.0351  -18.3743   14.9530 C   0  0  0  0  0  0  0  0  0  0  0  0
    6.3577  -19.2066   14.1515 N   0  0  0  0  0  0  0  0  0  0  0  0
    6.4004  -20.4044   14.7607 C   0  0  0  0  0  0  0  0  0  0  0  0
    7.0870  -20.3196   15.9121 N   0  0  0  0  0  0  0  0  0  0  0  0
    9.0786  -16.3267   18.1290 C   0  0  0  0  0  0  0  0  0  0  0  0
   10.2862  -16.3618   18.4381 O   0  0  0  0  0  0  0  0  0  0  0  0
    7.8788  -13.2744   21.8823 C   0  0  0  0  0  0  0  0  0  0  0  0
    7.5434  -13.9591   20.5989 C   0  0  1  0  0  0  0  0  0  0  0  0
    7.2853  -12.9498   19.5048 C   0  0  0  0  0  0  0  0  0  0  0  0
    8.6025  -14.9218   20.1280 C   0  0  2  0  0  0  0  0  0  0  0  0
    8.1839  -15.5724   18.9180 N   0  0  0  0  0  0  0  0  0  0  0  0
    8.9891  -15.8915   21.1857 C   0  0  0  0  0  0  0  0  0  0  0  0
    8.1824  -16.8046   21.4979 O   0  0  0  0  0  0  0  0  0  0  0  0
   12.8425  -16.7094   22.2579 O   0  0  0  0  0  0  0  0  0  0  0  0
   11.8021  -17.5943   22.5394 C   0  0  0  0  0  0  0  0  0  0  0  0
   10.5817  -16.7502   22.9302 C   0  0  2  0  0  0  0  0  0  0  0  0
   10.2312  -15.8389   21.8658 N   0  0  0  0  0  0  0  0  0  0  0  0
   10.8156  -16.0588   24.2121 C   0  0  0  0  0  0  0  0  0  0  0  0
   11.1357  -16.7092   25.2348 O   0  0  0  0  0  0  0  0  0  0  0  0
   10.6921  -14.6857   24.3326 O   0  0  0  0  0  0  0  0  0  0  0  0
  2  9  1  0
  2  1  1  6
  3  2  1  0
  4  5  2  0
  4  3  1  0
  6  5  1  0
  7  8  2  0
  7  6  1  0
  8  4  1  0
  9 10  2  0
 12 11  1  1
 12 13  1  0
 14 15  1  6
 14 12  1  0
 15  9  1  0
 16 14  1  0
 17 16  2  0
 18 19  1  0
 20 19  1  6
 20 21  1  0
 21 16  1  0
 22 20  1  0
 22 24  1  0
 23 22  2  0
M  END
$$$$
