HVS.pdb
     RDKit          3D

 24 24  0  0  1  0  0  0  0  0999 V2000
    8.9906  -17.6963   16.4335 N   0  0  0  0  0  0  0  0  0  0  0  0
    8.1684  -17.5992   17.6220 C   0  0  1  0  0  0  0  0  0  0  0  0
    7.8242  -18.9773   18.0807 C   0  0  0  0  0  0  0  0  0  0  0  0
    6.8213  -19.5500   17.1318 C   0  0  0  0  0  0  0  0  0  0  0  0
    5.5942  -19.0544   16.7440 C   0  0  0  0  0  0  0  0  0  0  0  0
    4.9926  -19.8727   15.8708 N   0  0  0  0  0  0  0  0  0  0  0  0
    5.8424  -20.9003   15.6990 C   0  0  0  0  0  0  0  0  0  0  0  0
    6.9448  -20.7258   16.4463 N   0  0  0  0  0  0  0  0  0  0  0  0
    8.7609  -16.7529   18.6529 C   0  0  0  0  0  0  0  0  0  0  0  0
    9.9779  -16.8382   18.9115 O   0  0  0  0  0  0  0  0  0  0  0  0
    8.0010  -13.0812   21.9339 C   0  0  0  0  0  0  0  0  0  0  0  0
    7.5554  -13.9133   20.7774 C   0  0  1  0  0  0  0  0  0  0  0  0
    7.3602  -13.0590   19.5466 C   0  0  0  0  0  0  0  0  0  0  0  0
    8.4974  -15.0395   20.4393 C   0  0  2  0  0  0  0  0  0  0  0  0
    7.9647  -15.8313   19.3661 N   0  0  0  0  0  0  0  0  0  0  0  0
    8.8404  -15.8602   21.6298 C   0  0  0  0  0  0  0  0  0  0  0  0
    7.9238  -16.4855   22.2220 O   0  0  0  0  0  0  0  0  0  0  0  0
   12.7659  -16.7475   22.6154 O   0  0  0  0  0  0  0  0  0  0  0  0
   11.7536  -17.6437   22.9571 C   0  0  0  0  0  0  0  0  0  0  0  0
   10.4977  -16.8158   23.2600 C   0  0  2  0  0  0  0  0  0  0  0  0
   10.1591  -15.9746   22.1358 N   0  0  0  0  0  0  0  0  0  0  0  0
   10.6680  -16.0489   24.5086 C   0  0  0  0  0  0  0  0  0  0  0  0
   10.8991  -16.6398   25.5898 O   0  0  0  0  0  0  0  0  0  0  0  0
   10.5803  -14.6681   24.5334 O   0  0  0  0  0  0  0  0  0  0  0  0
  2  9  1  0
  2  1  1  6
  3  2  1  0
  4  5  2  0
  4  3  1  0
  6  5  1  0
  7  8  2  0
  7  6  1  0
  8  4  1  0
  9 10  2  0
 12 11  1  1
 12 13  1  0
 14 15  1  6
 14 12  1  0
 15  9  1  0
 16 14  1  0
 17 16  2  0
 18 19  1  0
 20 19  1  6
 20 21  1  0
 21 16  1  0
 22 20  1  0
 22 24  1  0
 23 22  2  0
M  END
$$$$
