HVS.pdb
     RDKit          3D

 24 24  0  0  1  0  0  0  0  0999 V2000
   10.0434  -14.8420   21.2270 N   0  0  0  0  0  0  0  0  0  0  0  0
    8.7491  -14.4695   21.7599 C   0  0  1  0  0  0  0  0  0  0  0  0
    7.6883  -15.1612   20.9699 C   0  0  0  0  0  0  0  0  0  0  0  0
    7.6351  -14.5393   19.6117 C   0  0  0  0  0  0  0  0  0  0  0  0
    8.4456  -13.5727   19.0545 C   0  0  0  0  0  0  0  0  0  0  0  0
    8.0654  -13.2803   17.8039 N   0  0  0  0  0  0  0  0  0  0  0  0
    7.0026  -14.0668   17.5596 C   0  0  0  0  0  0  0  0  0  0  0  0
    6.7286  -14.8293   18.6310 N   0  0  0  0  0  0  0  0  0  0  0  0
    8.6515  -14.6698   23.2022 C   0  0  0  0  0  0  0  0  0  0  0  0
    9.4136  -15.4723   23.7771 O   0  0  0  0  0  0  0  0  0  0  0  0
    6.4921  -13.1434   27.4298 C   0  0  0  0  0  0  0  0  0  0  0  0
    6.5839  -13.1342   25.9398 C   0  0  1  0  0  0  0  0  0  0  0  0
    6.8891  -11.7449   25.4306 C   0  0  0  0  0  0  0  0  0  0  0  0
    7.6114  -14.0877   25.3876 C   0  0  2  0  0  0  0  0  0  0  0  0
    7.6961  -13.9590   23.9597 N   0  0  0  0  0  0  0  0  0  0  0  0
    7.3623  -15.4893   25.8142 C   0  0  0  0  0  0  0  0  0  0  0  0
    6.2835  -16.0437   25.4814 O   0  0  0  0  0  0  0  0  0  0  0  0
    9.5297  -18.4598   25.4373 O   0  0  0  0  0  0  0  0  0  0  0  0
    8.2129  -18.5843   25.8791 C   0  0  0  0  0  0  0  0  0  0  0  0
    8.0241  -17.5872   27.0300 C   0  0  2  0  0  0  0  0  0  0  0  0
    8.2867  -16.2389   26.5835 N   0  0  0  0  0  0  0  0  0  0  0  0
    8.8503  -17.9690   28.1909 C   0  0  0  0  0  0  0  0  0  0  0  0
    9.7225  -17.1854   28.6345 O   0  0  0  0  0  0  0  0  0  0  0  0
    8.6961  -19.1893   28.8251 O   0  0  0  0  0  0  0  0  0  0  0  0
  2  9  1  0
  2  1  1  6
  3  2  1  0
  4  5  2  0
  4  3  1  0
  6  5  1  0
  7  8  2  0
  7  6  1  0
  8  4  1  0
  9 10  2  0
 12 11  1  1
 12 13  1  0
 14 15  1  6
 14 12  1  0
 15  9  1  0
 16 14  1  0
 17 16  2  0
 18 19  1  0
 20 19  1  6
 20 21  1  0
 21 16  1  0
 22 20  1  0
 22 24  1  0
 23 22  2  0
M  END
$$$$
