HVS.pdb
     RDKit          3D

 24 24  0  0  1  0  0  0  0  0999 V2000
    9.1125  -15.4382   20.6807 N   0  0  0  0  0  0  0  0  0  0  0  0
    8.1246  -15.4888   21.7388 C   0  0  1  0  0  0  0  0  0  0  0  0
    7.4848  -16.8373   21.7331 C   0  0  0  0  0  0  0  0  0  0  0  0
    6.8847  -17.0654   20.3833 C   0  0  0  0  0  0  0  0  0  0  0  0
    6.9678  -16.2955   19.2421 C   0  0  0  0  0  0  0  0  0  0  0  0
    6.2826  -16.8470   18.2319 N   0  0  0  0  0  0  0  0  0  0  0  0
    5.7570  -17.9790   18.7316 C   0  0  0  0  0  0  0  0  0  0  0  0
    6.1062  -18.1283   20.0200 N   0  0  0  0  0  0  0  0  0  0  0  0
    8.6609  -15.0833   23.0342 C   0  0  0  0  0  0  0  0  0  0  0  0
    9.8016  -15.4471   23.3826 O   0  0  0  0  0  0  0  0  0  0  0  0
    6.0462  -13.4612   26.0674 C   0  0  0  0  0  0  0  0  0  0  0  0
    7.4234  -12.9273   25.8516 C   0  0  1  0  0  0  0  0  0  0  0  0
    8.0261  -12.4575   27.1549 C   0  0  0  0  0  0  0  0  0  0  0  0
    8.3652  -13.9142   25.2119 C   0  0  2  0  0  0  0  0  0  0  0  0
    7.8958  -14.2770   23.9039 N   0  0  0  0  0  0  0  0  0  0  0  0
    8.6054  -15.1003   26.0744 C   0  0  0  0  0  0  0  0  0  0  0  0
    7.6716  -15.9246   26.2487 O   0  0  0  0  0  0  0  0  0  0  0  0
   11.4814  -18.4519   27.6839 O   0  0  0  0  0  0  0  0  0  0  0  0
   11.2636  -17.3424   26.8677 C   0  0  0  0  0  0  0  0  0  0  0  0
   10.1022  -16.5489   27.4809 C   0  0  2  0  0  0  0  0  0  0  0  0
    9.8439  -15.3515   26.7156 N   0  0  0  0  0  0  0  0  0  0  0  0
   10.3602  -16.2647   28.9052 C   0  0  0  0  0  0  0  0  0  0  0  0
   10.5426  -15.0871   29.2945 O   0  0  0  0  0  0  0  0  0  0  0  0
   10.4100  -17.2727   29.8520 O   0  0  0  0  0  0  0  0  0  0  0  0
  2  9  1  0
  2  1  1  6
  3  2  1  0
  4  5  2  0
  4  3  1  0
  6  5  1  0
  7  8  2  0
  7  6  1  0
  8  4  1  0
  9 10  2  0
 12 11  1  1
 12 13  1  0
 14 15  1  6
 14 12  1  0
 15  9  1  0
 16 14  1  0
 17 16  2  0
 18 19  1  0
 20 19  1  6
 20 21  1  0
 21 16  1  0
 22 20  1  0
 22 24  1  0
 23 22  2  0
M  END
$$$$
