GTE.pdb
     RDKit          3D

 21 20  0  0  1  0  0  0  0  0999 V2000
    8.4120  -18.8015   17.3782 N   0  0  0  0  0  0  0  0  0  0  0  0
    8.1133  -18.8370   18.7832 C   0  0  0  0  0  0  0  0  0  0  0  0
    8.5901  -17.6596   19.5130 C   0  0  0  0  0  0  0  0  0  0  0  0
    9.7573  -17.2351   19.2479 O   0  0  0  0  0  0  0  0  0  0  0  0
    7.9387  -14.0517   22.9025 C   0  0  0  0  0  0  0  0  0  0  0  0
    7.3790  -15.1593   22.0066 C   0  0  1  0  0  0  0  0  0  0  0  0
    6.3882  -14.7111   21.1649 O   0  0  0  0  0  0  0  0  0  0  0  0
    8.4604  -15.9472   21.3485 C   0  0  2  0  0  0  0  0  0  0  0  0
    7.8408  -16.9485   20.5043 N   0  0  0  0  0  0  0  0  0  0  0  0
    9.4489  -16.5339   22.2669 C   0  0  0  0  0  0  0  0  0  0  0  0
    9.1842  -17.6510   22.7736 O   0  0  0  0  0  0  0  0  0  0  0  0
   10.6745  -15.9187   22.6118 N   0  0  0  0  0  0  0  0  0  0  0  0
   11.6747  -16.5659   23.4882 C   0  0  1  0  0  0  0  0  0  0  0  0
   13.0277  -16.0946   23.1307 C   0  0  0  0  0  0  0  0  0  0  0  0
   14.1392  -16.7242   23.8817 C   0  0  0  0  0  0  0  0  0  0  0  0
   15.4830  -16.1826   23.6316 C   0  0  0  0  0  0  0  0  0  0  0  0
   16.4940  -16.7278   24.1570 O   0  0  0  0  0  0  0  0  0  0  0  0
   11.3368  -16.5604   24.8732 C   0  0  0  0  0  0  0  0  0  0  0  0
   10.6236  -15.6364   25.3793 O   0  0  0  0  0  0  0  0  0  0  0  0
   15.7140  -15.0774   22.8294 O   0  0  0  0  0  0  0  0  0  0  0  0
   11.7652  -17.5608   25.7486 O   0  0  0  0  0  0  0  0  0  0  0  0
  1  2  1  0
  2  3  1  0
  3  4  2  0
  6  5  1  6
  6  7  1  0
  6  8  1  0
  8  9  1  1
  9  3  1  0
 10  8  1  0
 10 11  2  0
 12 10  1  0
 13 12  1  0
 13 14  1  1
 14 15  1  0
 16 15  1  0
 16 20  1  0
 17 16  2  0
 18 13  1  0
 19 18  2  0
 21 18  1  0
M  END
$$$$
