GTE.pdb
     RDKit          3D

 21 20  0  0  1  0  0  0  0  0999 V2000
    7.6839  -17.3110   16.6761 N   0  0  0  0  0  0  0  0  0  0  0  0
    8.1219  -17.9099   17.9065 C   0  0  0  0  0  0  0  0  0  0  0  0
    8.7151  -16.9536   18.8444 C   0  0  0  0  0  0  0  0  0  0  0  0
    9.8622  -16.4870   18.5632 O   0  0  0  0  0  0  0  0  0  0  0  0
    7.0623  -13.8278   20.6363 C   0  0  0  0  0  0  0  0  0  0  0  0
    7.7713  -14.7483   21.6326 C   0  0  1  0  0  0  0  0  0  0  0  0
    6.8950  -15.4084   22.4616 O   0  0  0  0  0  0  0  0  0  0  0  0
    8.7890  -15.6132   20.9695 C   0  0  2  0  0  0  0  0  0  0  0  0
    8.1006  -16.5030   20.0565 N   0  0  0  0  0  0  0  0  0  0  0  0
    9.6775  -16.3430   21.8874 C   0  0  0  0  0  0  0  0  0  0  0  0
    9.4961  -17.5779   22.0171 O   0  0  0  0  0  0  0  0  0  0  0  0
   10.7198  -15.7405   22.6291 N   0  0  0  0  0  0  0  0  0  0  0  0
   11.6575  -16.5188   23.4671 C   0  0  1  0  0  0  0  0  0  0  0  0
   13.0450  -16.1073   23.1740 C   0  0  0  0  0  0  0  0  0  0  0  0
   14.0950  -16.8226   23.9368 C   0  0  0  0  0  0  0  0  0  0  0  0
   15.4755  -16.3584   23.7367 C   0  0  0  0  0  0  0  0  0  0  0  0
   15.7042  -15.3339   23.0342 O   0  0  0  0  0  0  0  0  0  0  0  0
   11.2888  -16.6038   24.8417 C   0  0  0  0  0  0  0  0  0  0  0  0
   10.5040  -15.7548   25.3726 O   0  0  0  0  0  0  0  0  0  0  0  0
   16.5738  -16.9960   24.2897 O   0  0  0  0  0  0  0  0  0  0  0  0
   11.7632  -17.6158   25.6791 O   0  0  0  0  0  0  0  0  0  0  0  0
  1  2  1  0
  2  3  1  0
  3  4  2  0
  6  5  1  6
  6  7  1  0
  6  8  1  0
  8  9  1  1
  9  3  1  0
 10  8  1  0
 10 11  2  0
 12 10  1  0
 13 12  1  0
 13 14  1  1
 14 15  1  0
 16 15  1  0
 16 20  1  0
 17 16  2  0
 18 13  1  0
 19 18  2  0
 21 18  1  0
M  END
$$$$
