GTE.pdb
     RDKit          3D

 21 20  0  0  1  0  0  0  0  0999 V2000
    7.3028  -12.4418   18.7013 N   0  0  0  0  0  0  0  0  0  0  0  0
    8.5410  -13.0654   19.0786 C   0  0  0  0  0  0  0  0  0  0  0  0
    8.3951  -14.0582   20.1459 C   0  0  0  0  0  0  0  0  0  0  0  0
    7.2926  -14.0884   20.7755 O   0  0  0  0  0  0  0  0  0  0  0  0
    7.7715  -17.3112   19.9820 C   0  0  0  0  0  0  0  0  0  0  0  0
    8.9656  -17.3055   20.9395 C   0  0  1  0  0  0  0  0  0  0  0  0
   10.0949  -17.8584   20.3827 O   0  0  0  0  0  0  0  0  0  0  0  0
    9.1628  -15.9739   21.5808 C   0  0  2  0  0  0  0  0  0  0  0  0
    9.4012  -14.9994   20.5355 N   0  0  0  0  0  0  0  0  0  0  0  0
   10.2019  -15.9331   22.6215 C   0  0  0  0  0  0  0  0  0  0  0  0
   11.3201  -15.4552   22.3118 O   0  0  0  0  0  0  0  0  0  0  0  0
   10.0182  -16.3970   23.9446 N   0  0  0  0  0  0  0  0  0  0  0  0
   11.0893  -16.3508   24.9635 C   0  0  1  0  0  0  0  0  0  0  0  0
   10.4930  -16.3955   26.3137 C   0  0  0  0  0  0  0  0  0  0  0  0
   11.4541  -16.2913   27.4369 C   0  0  0  0  0  0  0  0  0  0  0  0
   10.8761  -16.2696   28.7885 C   0  0  0  0  0  0  0  0  0  0  0  0
    9.6353  -16.4417   28.9501 O   0  0  0  0  0  0  0  0  0  0  0  0
   12.1803  -17.2336   24.7128 C   0  0  0  0  0  0  0  0  0  0  0  0
   11.9983  -18.3894   24.2130 O   0  0  0  0  0  0  0  0  0  0  0  0
   11.6337  -16.0664   29.9301 O   0  0  0  0  0  0  0  0  0  0  0  0
   13.5020  -16.8845   24.9985 O   0  0  0  0  0  0  0  0  0  0  0  0
  1  2  1  0
  2  3  1  0
  3  4  2  0
  6  5  1  6
  6  7  1  0
  6  8  1  0
  8  9  1  6
  9  3  1  0
 10  8  1  0
 10 11  2  0
 12 10  1  0
 13 12  1  0
 13 14  1  1
 14 15  1  0
 16 15  1  0
 16 20  1  0
 17 16  2  0
 18 13  1  0
 19 18  2  0
 21 18  1  0
M  END
$$$$
