GTE.pdb
     RDKit          3D

 21 20  0  0  1  0  0  0  0  0999 V2000
    8.8121  -13.4037   16.8711 N   0  0  0  0  0  0  0  0  0  0  0  0
    8.3704  -14.4509   17.7503 C   0  0  0  0  0  0  0  0  0  0  0  0
    8.8262  -14.2857   19.1327 C   0  0  0  0  0  0  0  0  0  0  0  0
    9.7058  -13.3986   19.3609 O   0  0  0  0  0  0  0  0  0  0  0  0
    6.8224  -13.3495   22.0727 C   0  0  0  0  0  0  0  0  0  0  0  0
    7.6280  -14.5889   22.4697 C   0  0  1  0  0  0  0  0  0  0  0  0
    6.8392  -15.7024   22.6398 O   0  0  0  0  0  0  0  0  0  0  0  0
    8.8204  -14.7850   21.5962 C   0  0  2  0  0  0  0  0  0  0  0  0
    8.3559  -15.0485   20.2493 N   0  0  0  0  0  0  0  0  0  0  0  0
    9.7710  -15.8065   22.0625 C   0  0  0  0  0  0  0  0  0  0  0  0
   10.1344  -16.6838   21.2421 O   0  0  0  0  0  0  0  0  0  0  0  0
   10.2989  -15.8597   23.3732 N   0  0  0  0  0  0  0  0  0  0  0  0
   11.4936  -16.6588   23.7218 C   0  0  1  0  0  0  0  0  0  0  0  0
   12.6231  -16.2682   22.8546 C   0  0  0  0  0  0  0  0  0  0  0  0
   13.8977  -16.9788   23.1121 C   0  0  0  0  0  0  0  0  0  0  0  0
   15.0468  -16.5739   22.2893 C   0  0  0  0  0  0  0  0  0  0  0  0
   15.7803  -17.4495   21.7502 O   0  0  0  0  0  0  0  0  0  0  0  0
   11.7569  -16.7467   25.1202 C   0  0  0  0  0  0  0  0  0  0  0  0
   11.2124  -15.9508   25.9500 O   0  0  0  0  0  0  0  0  0  0  0  0
   15.3829  -15.2495   22.0620 O   0  0  0  0  0  0  0  0  0  0  0  0
   12.6207  -17.7040   25.6569 O   0  0  0  0  0  0  0  0  0  0  0  0
  1  2  1  0
  2  3  1  0
  3  4  2  0
  6  5  1  6
  6  7  1  0
  6  8  1  0
  8  9  1  6
  9  3  1  0
 10  8  1  0
 10 11  2  0
 12 10  1  0
 13 12  1  0
 13 14  1  6
 14 15  1  0
 16 15  1  0
 16 20  1  0
 17 16  2  0
 18 13  1  0
 19 18  2  0
 21 18  1  0
M  END
$$$$
