GTE.pdb
     RDKit          3D

 21 20  0  0  1  0  0  0  0  0999 V2000
    7.9410  -16.2607   16.5331 N   0  0  0  0  0  0  0  0  0  0  0  0
    7.5371  -16.5473   17.8819 C   0  0  0  0  0  0  0  0  0  0  0  0
    8.2984  -15.8067   18.8908 C   0  0  0  0  0  0  0  0  0  0  0  0
    8.5873  -14.5959   18.6394 O   0  0  0  0  0  0  0  0  0  0  0  0
    7.5656  -13.7404   20.2893 C   0  0  0  0  0  0  0  0  0  0  0  0
    7.9291  -14.5782   21.5175 C   0  0  1  0  0  0  0  0  0  0  0  0
    6.8345  -15.1806   22.0919 O   0  0  0  0  0  0  0  0  0  0  0  0
    9.0852  -15.4828   21.2560 C   0  0  2  0  0  0  0  0  0  0  0  0
    8.7432  -16.3431   20.1416 N   0  0  0  0  0  0  0  0  0  0  0  0
    9.5512  -16.2488   22.4225 C   0  0  0  0  0  0  0  0  0  0  0  0
    8.8859  -17.2570   22.7628 O   0  0  0  0  0  0  0  0  0  0  0  0
   10.6989  -15.9203   23.1805 N   0  0  0  0  0  0  0  0  0  0  0  0
   11.2418  -16.8061   24.2330 C   0  0  1  0  0  0  0  0  0  0  0  0
   12.7085  -16.9041   24.0924 C   0  0  0  0  0  0  0  0  0  0  0  0
   13.3789  -15.6925   23.5645 C   0  0  0  0  0  0  0  0  0  0  0  0
   14.8460  -15.7427   23.4846 C   0  0  0  0  0  0  0  0  0  0  0  0
   15.4919  -16.5616   24.1971 O   0  0  0  0  0  0  0  0  0  0  0  0
   10.7372  -16.5462   25.5408 C   0  0  0  0  0  0  0  0  0  0  0  0
   11.0422  -17.2861   26.5298 O   0  0  0  0  0  0  0  0  0  0  0  0
   15.5850  -14.9217   22.6489 O   0  0  0  0  0  0  0  0  0  0  0  0
    9.8855  -15.4728   25.8110 O   0  0  0  0  0  0  0  0  0  0  0  0
  1  2  1  0
  2  3  1  0
  3  4  2  0
  6  5  1  6
  6  7  1  0
  6  8  1  0
  8  9  1  6
  9  3  1  0
 10  8  1  0
 10 11  2  0
 12 10  1  0
 13 12  1  0
 13 14  1  1
 14 15  1  0
 16 15  1  0
 16 20  1  0
 17 16  2  0
 18 13  1  0
 19 18  2  0
 21 18  1  0
M  END
$$$$
