GTE.pdb
     RDKit          3D

 21 20  0  0  1  0  0  0  0  0999 V2000
    7.0824  -12.7982   17.1217 N   0  0  0  0  0  0  0  0  0  0  0  0
    8.3140  -13.1440   17.7759 C   0  0  0  0  0  0  0  0  0  0  0  0
    8.1582  -14.1643   18.8156 C   0  0  0  0  0  0  0  0  0  0  0  0
    7.0497  -14.7812   18.8740 O   0  0  0  0  0  0  0  0  0  0  0  0
    7.6495  -16.6867   18.6822 C   0  0  0  0  0  0  0  0  0  0  0  0
    8.9075  -16.8767   19.5332 C   0  0  1  0  0  0  0  0  0  0  0  0
   10.0160  -17.1853   18.7801 O   0  0  0  0  0  0  0  0  0  0  0  0
    9.0952  -15.7665   20.5106 C   0  0  2  0  0  0  0  0  0  0  0  0
    9.1609  -14.5210   19.7733 N   0  0  0  0  0  0  0  0  0  0  0  0
   10.2374  -15.9288   21.4237 C   0  0  0  0  0  0  0  0  0  0  0  0
   11.2855  -15.2878   21.1675 O   0  0  0  0  0  0  0  0  0  0  0  0
   10.2265  -16.7591   22.5682 N   0  0  0  0  0  0  0  0  0  0  0  0
   11.3851  -16.8791   23.4796 C   0  0  1  0  0  0  0  0  0  0  0  0
   10.9798  -17.5919   24.7076 C   0  0  0  0  0  0  0  0  0  0  0  0
   12.0392  -17.7461   25.7322 C   0  0  0  0  0  0  0  0  0  0  0  0
   11.6757  -18.5098   26.9348 C   0  0  0  0  0  0  0  0  0  0  0  0
   10.4893  -18.4838   27.3676 O   0  0  0  0  0  0  0  0  0  0  0  0
   12.5878  -17.3148   22.8503 C   0  0  0  0  0  0  0  0  0  0  0  0
   12.5754  -18.1926   21.9294 O   0  0  0  0  0  0  0  0  0  0  0  0
   12.5834  -19.2802   27.6426 O   0  0  0  0  0  0  0  0  0  0  0  0
   13.8401  -16.8080   23.2047 O   0  0  0  0  0  0  0  0  0  0  0  0
  1  2  1  0
  2  3  1  0
  3  4  2  0
  6  5  1  6
  6  7  1  0
  6  8  1  0
  8  9  1  6
  9  3  1  0
 10  8  1  0
 10 11  2  0
 12 10  1  0
 13 12  1  0
 13 14  1  1
 14 15  1  0
 16 15  1  0
 16 20  1  0
 17 16  2  0
 18 13  1  0
 19 18  2  0
 21 18  1  0
M  END
$$$$
