GTE.pdb
     RDKit          3D

 21 20  0  0  1  0  0  0  0  0999 V2000
    8.0657  -12.7398   17.8461 N   0  0  0  0  0  0  0  0  0  0  0  0
    9.0500  -13.4738   18.5923 C   0  0  0  0  0  0  0  0  0  0  0  0
    8.5788  -13.9145   19.9076 C   0  0  0  0  0  0  0  0  0  0  0  0
    7.3309  -13.8567   20.1359 O   0  0  0  0  0  0  0  0  0  0  0  0
    7.0623  -15.9614   20.4728 C   0  0  0  0  0  0  0  0  0  0  0  0
    8.1922  -16.3979   21.4085 C   0  0  1  0  0  0  0  0  0  0  0  0
    9.0175  -17.3399   20.8405 O   0  0  0  0  0  0  0  0  0  0  0  0
    8.8904  -15.2333   22.0246 C   0  0  2  0  0  0  0  0  0  0  0  0
    9.4179  -14.4064   20.9583 N   0  0  0  0  0  0  0  0  0  0  0  0
    9.9206  -15.5798   23.0162 C   0  0  0  0  0  0  0  0  0  0  0  0
   11.0890  -15.7731   22.6011 O   0  0  0  0  0  0  0  0  0  0  0  0
    9.6760  -15.7071   24.4031 N   0  0  0  0  0  0  0  0  0  0  0  0
   10.7444  -16.0160   25.3779 C   0  0  1  0  0  0  0  0  0  0  0  0
   10.2558  -15.7619   26.7480 C   0  0  0  0  0  0  0  0  0  0  0  0
   11.2477  -15.9792   27.8273 C   0  0  0  0  0  0  0  0  0  0  0  0
   10.7762  -15.7499   29.2008 C   0  0  0  0  0  0  0  0  0  0  0  0
    9.6169  -15.2919   29.4048 O   0  0  0  0  0  0  0  0  0  0  0  0
   11.4083  -17.2573   25.1518 C   0  0  0  0  0  0  0  0  0  0  0  0
   12.6701  -17.3672   25.2713 O   0  0  0  0  0  0  0  0  0  0  0  0
   11.5501  -16.0149   30.3185 O   0  0  0  0  0  0  0  0  0  0  0  0
   10.7181  -18.4160   24.7889 O   0  0  0  0  0  0  0  0  0  0  0  0
  1  2  1  0
  2  3  1  0
  3  4  2  0
  6  5  1  6
  6  7  1  0
  6  8  1  0
  8  9  1  6
  9  3  1  0
 10  8  1  0
 10 11  2  0
 12 10  1  0
 13 12  1  0
 13 14  1  1
 14 15  1  0
 16 15  1  0
 16 20  1  0
 17 16  2  0
 18 13  1  0
 19 18  2  0
 21 18  1  0
M  END
$$$$
