GTE.pdb
     RDKit          3D

 21 20  0  0  1  0  0  0  0  0999 V2000
    8.1547  -16.2518   15.4913 N   0  0  0  0  0  0  0  0  0  0  0  0
    7.6550  -16.4482   16.8241 C   0  0  0  0  0  0  0  0  0  0  0  0
    8.3576  -15.6547   17.8355 C   0  0  0  0  0  0  0  0  0  0  0  0
    9.3866  -15.0083   17.4667 O   0  0  0  0  0  0  0  0  0  0  0  0
    7.2448  -12.8036   19.9372 C   0  0  0  0  0  0  0  0  0  0  0  0
    7.8424  -13.8541   20.8764 C   0  0  1  0  0  0  0  0  0  0  0  0
    6.8946  -14.4576   21.6693 O   0  0  0  0  0  0  0  0  0  0  0  0
    8.7578  -14.7888   20.1610 C   0  0  2  0  0  0  0  0  0  0  0  0
    7.9735  -15.5511   19.2108 N   0  0  0  0  0  0  0  0  0  0  0  0
    9.5655  -15.6563   21.0326 C   0  0  0  0  0  0  0  0  0  0  0  0
    9.1538  -16.8238   21.2378 O   0  0  0  0  0  0  0  0  0  0  0  0
   10.7731  -15.2567   21.6504 N   0  0  0  0  0  0  0  0  0  0  0  0
   11.6019  -16.1794   22.4561 C   0  0  1  0  0  0  0  0  0  0  0  0
   12.9906  -15.6805   22.5111 C   0  0  0  0  0  0  0  0  0  0  0  0
   13.9518  -16.5531   23.2256 C   0  0  0  0  0  0  0  0  0  0  0  0
   15.3511  -16.1025   23.2440 C   0  0  0  0  0  0  0  0  0  0  0  0
   16.0552  -16.2629   24.2803 O   0  0  0  0  0  0  0  0  0  0  0  0
   11.0117  -16.5761   23.6916 C   0  0  0  0  0  0  0  0  0  0  0  0
   10.2465  -15.7959   24.3431 O   0  0  0  0  0  0  0  0  0  0  0  0
   15.9626  -15.4948   22.1598 O   0  0  0  0  0  0  0  0  0  0  0  0
   11.2367  -17.8342   24.2549 O   0  0  0  0  0  0  0  0  0  0  0  0
  1  2  1  0
  2  3  1  0
  3  4  2  0
  6  5  1  6
  6  7  1  0
  6  8  1  0
  8  9  1  6
  9  3  1  0
 10  8  1  0
 10 11  2  0
 12 10  1  0
 13 12  1  0
 13 14  1  1
 14 15  1  0
 16 15  1  0
 16 20  1  0
 17 16  2  0
 18 13  1  0
 19 18  2  0
 21 18  1  0
M  END
$$$$
