GTE.pdb
     RDKit          3D

 21 20  0  0  1  0  0  0  0  0999 V2000
    9.2787  -17.0716   16.4746 N   0  0  0  0  0  0  0  0  0  0  0  0
    8.3721  -17.0298   17.5885 C   0  0  0  0  0  0  0  0  0  0  0  0
    8.8842  -16.2704   18.7319 C   0  0  0  0  0  0  0  0  0  0  0  0
   10.1000  -15.9050   18.6993 O   0  0  0  0  0  0  0  0  0  0  0  0
    7.0548  -13.2699   20.3992 C   0  0  0  0  0  0  0  0  0  0  0  0
    7.6080  -14.2082   21.4745 C   0  0  1  0  0  0  0  0  0  0  0  0
    6.6170  -14.8496   22.1799 O   0  0  0  0  0  0  0  0  0  0  0  0
    8.6833  -15.0949   20.9445 C   0  0  2  0  0  0  0  0  0  0  0  0
    8.1188  -15.9074   19.8861 N   0  0  0  0  0  0  0  0  0  0  0  0
    9.3731  -15.9089   21.9576 C   0  0  0  0  0  0  0  0  0  0  0  0
    9.0273  -17.1093   22.0766 O   0  0  0  0  0  0  0  0  0  0  0  0
   10.3986  -15.4234   22.8016 N   0  0  0  0  0  0  0  0  0  0  0  0
   10.9348  -16.2038   23.9377 C   0  0  1  0  0  0  0  0  0  0  0  0
   12.3933  -15.9962   24.0389 C   0  0  0  0  0  0  0  0  0  0  0  0
   13.1848  -16.4689   22.8787 C   0  0  0  0  0  0  0  0  0  0  0  0
   14.6463  -16.3715   23.0044 C   0  0  0  0  0  0  0  0  0  0  0  0
   15.2316  -15.2781   22.7650 O   0  0  0  0  0  0  0  0  0  0  0  0
   10.1830  -16.0835   25.1430 C   0  0  0  0  0  0  0  0  0  0  0  0
    9.3052  -15.1745   25.2904 O   0  0  0  0  0  0  0  0  0  0  0  0
   15.4443  -17.4389   23.3820 O   0  0  0  0  0  0  0  0  0  0  0  0
   10.3643  -16.9493   26.2238 O   0  0  0  0  0  0  0  0  0  0  0  0
  1  2  1  0
  2  3  1  0
  3  4  2  0
  6  5  1  6
  6  7  1  0
  6  8  1  0
  8  9  1  6
  9  3  1  0
 10  8  1  0
 10 11  2  0
 12 10  1  0
 13 12  1  0
 13 14  1  1
 14 15  1  0
 16 15  1  0
 16 20  1  0
 17 16  2  0
 18 13  1  0
 19 18  2  0
 21 18  1  0
M  END
$$$$
