GTE.pdb
     RDKit          3D

 21 20  0  0  1  0  0  0  0  0999 V2000
    9.4963  -20.1786   17.3663 N   0  0  0  0  0  0  0  0  0  0  0  0
    9.6846  -21.5576   17.7234 C   0  0  0  0  0  0  0  0  0  0  0  0
    9.0503  -21.9258   18.9915 C   0  0  0  0  0  0  0  0  0  0  0  0
    8.7104  -20.9858   19.7749 O   0  0  0  0  0  0  0  0  0  0  0  0
    5.9643  -24.1641   19.5875 C   0  0  0  0  0  0  0  0  0  0  0  0
    7.1317  -24.6277   20.4620 C   0  0  1  0  0  0  0  0  0  0  0  0
    7.6557  -25.8315   20.0531 O   0  0  0  0  0  0  0  0  0  0  0  0
    8.1317  -23.5437   20.6817 C   0  0  2  0  0  0  0  0  0  0  0  0
    8.7830  -23.2663   19.4176 N   0  0  0  0  0  0  0  0  0  0  0  0
    9.1014  -23.8014   21.7578 C   0  0  0  0  0  0  0  0  0  0  0  0
   10.2270  -24.2518   21.4341 O   0  0  0  0  0  0  0  0  0  0  0  0
    8.8438  -23.5729   23.1293 N   0  0  0  0  0  0  0  0  0  0  0  0
    9.8560  -23.8061   24.1822 C   0  0  1  0  0  0  0  0  0  0  0  0
   10.1919  -22.5278   24.8405 C   0  0  0  0  0  0  0  0  0  0  0  0
   11.2528  -22.6036   25.8724 C   0  0  0  0  0  0  0  0  0  0  0  0
   11.6539  -21.3305   26.4886 C   0  0  0  0  0  0  0  0  0  0  0  0
   11.4643  -21.1358   27.7221 O   0  0  0  0  0  0  0  0  0  0  0  0
    9.5760  -24.9143   25.0343 C   0  0  0  0  0  0  0  0  0  0  0  0
    8.3912  -25.3517   25.1876 O   0  0  0  0  0  0  0  0  0  0  0  0
   12.2462  -20.3008   25.7762 O   0  0  0  0  0  0  0  0  0  0  0  0
   10.5777  -25.5795   25.7449 O   0  0  0  0  0  0  0  0  0  0  0  0
  1  2  1  0
  2  3  1  0
  3  4  2  0
  6  5  1  6
  6  7  1  0
  6  8  1  0
  8  9  1  6
  9  3  1  0
 10  8  1  0
 10 11  2  0
 12 10  1  0
 13 12  1  0
 13 14  1  1
 14 15  1  0
 16 15  1  0
 16 20  1  0
 17 16  2  0
 18 13  1  0
 19 18  2  0
 21 18  1  0
M  END
$$$$
