GTE.pdb
     RDKit          3D

 21 20  0  0  1  0  0  0  0  0999 V2000
    9.9458  -19.9005   19.6993 N   0  0  0  0  0  0  0  0  0  0  0  0
    9.3419  -19.0294   20.6693 C   0  0  0  0  0  0  0  0  0  0  0  0
   10.2404  -17.9774   21.1511 C   0  0  0  0  0  0  0  0  0  0  0  0
   10.7602  -17.2054   20.2870 O   0  0  0  0  0  0  0  0  0  0  0  0
    9.4206  -15.1588   23.2709 C   0  0  0  0  0  0  0  0  0  0  0  0
   10.6511  -15.8124   23.9045 C   0  0  1  0  0  0  0  0  0  0  0  0
   10.3659  -16.4367   25.0962 O   0  0  0  0  0  0  0  0  0  0  0  0
   11.4141  -16.6372   22.9244 C   0  0  2  0  0  0  0  0  0  0  0  0
   10.5790  -17.7513   22.5237 N   0  0  0  0  0  0  0  0  0  0  0  0
   12.7408  -17.0782   23.3828 C   0  0  0  0  0  0  0  0  0  0  0  0
   12.8096  -18.1571   24.0199 O   0  0  0  0  0  0  0  0  0  0  0  0
   13.9386  -16.3637   23.1497 N   0  0  0  0  0  0  0  0  0  0  0  0
   15.2625  -16.8602   23.5835 C   0  0  1  0  0  0  0  0  0  0  0  0
   16.3240  -16.1870   22.8086 C   0  0  0  0  0  0  0  0  0  0  0  0
   17.7078  -16.6164   23.1198 C   0  0  0  0  0  0  0  0  0  0  0  0
   18.7794  -15.9680   22.3499 C   0  0  0  0  0  0  0  0  0  0  0  0
   19.9890  -16.2283   22.6039 O   0  0  0  0  0  0  0  0  0  0  0  0
   15.4365  -16.9179   24.9973 C   0  0  0  0  0  0  0  0  0  0  0  0
   16.0905  -17.8599   25.5482 O   0  0  0  0  0  0  0  0  0  0  0  0
   18.5347  -15.0619   21.3312 O   0  0  0  0  0  0  0  0  0  0  0  0
   14.9038  -15.9517   25.8536 O   0  0  0  0  0  0  0  0  0  0  0  0
  1  2  1  0
  2  3  1  0
  3  4  2  0
  6  5  1  6
  6  7  1  0
  6  8  1  0
  8  9  1  1
  9  3  1  0
 10  8  1  0
 10 11  2  0
 12 10  1  0
 13 12  1  0
 13 14  1  6
 14 15  1  0
 16 15  1  0
 16 20  1  0
 17 16  2  0
 18 13  1  0
 19 18  2  0
 21 18  1  0
M  END
$$$$
