GTE.pdb
     RDKit          3D

 21 20  0  0  1  0  0  0  0  0999 V2000
    8.6962  -16.5948   16.1428 N   0  0  0  0  0  0  0  0  0  0  0  0
    7.8353  -16.4181   17.2795 C   0  0  0  0  0  0  0  0  0  0  0  0
    8.5257  -15.8950   18.4610 C   0  0  0  0  0  0  0  0  0  0  0  0
    9.7947  -15.8569   18.4330 O   0  0  0  0  0  0  0  0  0  0  0  0
    7.4033  -12.6774   20.4808 C   0  0  0  0  0  0  0  0  0  0  0  0
    7.7727  -13.8310   21.4165 C   0  0  1  0  0  0  0  0  0  0  0  0
    6.6849  -14.3405   22.0859 O   0  0  0  0  0  0  0  0  0  0  0  0
    8.6332  -14.8452   20.7423 C   0  0  2  0  0  0  0  0  0  0  0  0
    7.8793  -15.4222   19.6478 N   0  0  0  0  0  0  0  0  0  0  0  0
    9.1926  -15.8753   21.6314 C   0  0  0  0  0  0  0  0  0  0  0  0
    8.5726  -16.9620   21.7288 O   0  0  0  0  0  0  0  0  0  0  0  0
   10.3820  -15.7168   22.3795 N   0  0  0  0  0  0  0  0  0  0  0  0
   10.9275  -16.7821   23.2484 C   0  0  1  0  0  0  0  0  0  0  0  0
   12.3544  -16.9970   22.9351 C   0  0  0  0  0  0  0  0  0  0  0  0
   13.2704  -15.9156   23.3682 C   0  0  0  0  0  0  0  0  0  0  0  0
   14.6915  -16.0942   23.0367 C   0  0  0  0  0  0  0  0  0  0  0  0
   15.4994  -15.1327   23.1709 O   0  0  0  0  0  0  0  0  0  0  0  0
   10.5840  -16.6532   24.6260 C   0  0  0  0  0  0  0  0  0  0  0  0
    9.9990  -15.6145   25.0704 O   0  0  0  0  0  0  0  0  0  0  0  0
   15.2137  -17.2903   22.5726 O   0  0  0  0  0  0  0  0  0  0  0  0
   10.8670  -17.6513   25.5610 O   0  0  0  0  0  0  0  0  0  0  0  0
  1  2  1  0
  2  3  1  0
  3  4  2  0
  6  5  1  6
  6  7  1  0
  6  8  1  0
  8  9  1  6
  9  3  1  0
 10  8  1  0
 10 11  2  0
 12 10  1  0
 13 12  1  0
 13 14  1  1
 14 15  1  0
 16 15  1  0
 16 20  1  0
 17 16  2  0
 18 13  1  0
 19 18  2  0
 21 18  1  0
M  END
$$$$
