GTE.pdb
     RDKit          3D

 21 20  0  0  1  0  0  0  0  0999 V2000
    8.0410  -18.5195   16.3502 N   0  0  0  0  0  0  0  0  0  0  0  0
    7.2205  -17.6319   17.1271 C   0  0  0  0  0  0  0  0  0  0  0  0
    7.9877  -16.6546   17.9033 C   0  0  0  0  0  0  0  0  0  0  0  0
    9.2517  -16.7763   17.9191 O   0  0  0  0  0  0  0  0  0  0  0  0
    8.1817  -12.7649   21.0361 C   0  0  0  0  0  0  0  0  0  0  0  0
    7.4470  -13.5995   19.9842 C   0  0  1  0  0  0  0  0  0  0  0  0
    7.0175  -12.8479   18.9157 O   0  0  0  0  0  0  0  0  0  0  0  0
    8.1981  -14.8370   19.6267 C   0  0  2  0  0  0  0  0  0  0  0  0
    7.4219  -15.5701   18.6473 N   0  0  0  0  0  0  0  0  0  0  0  0
    8.5855  -15.6804   20.7683 C   0  0  0  0  0  0  0  0  0  0  0  0
    7.7295  -16.4781   21.2220 O   0  0  0  0  0  0  0  0  0  0  0  0
    9.8587  -15.6479   21.3827 N   0  0  0  0  0  0  0  0  0  0  0  0
   10.2385  -16.5604   22.4829 C   0  0  1  0  0  0  0  0  0  0  0  0
   11.3091  -17.4696   22.0273 C   0  0  0  0  0  0  0  0  0  0  0  0
   11.8048  -18.4276   23.0434 C   0  0  0  0  0  0  0  0  0  0  0  0
   12.9648  -19.2441   22.6573 C   0  0  0  0  0  0  0  0  0  0  0  0
   12.8031  -20.4421   22.2910 O   0  0  0  0  0  0  0  0  0  0  0  0
   10.4319  -15.9187   23.7412 C   0  0  0  0  0  0  0  0  0  0  0  0
   10.7593  -14.6917   23.8177 O   0  0  0  0  0  0  0  0  0  0  0  0
   14.2639  -18.7637   22.6705 O   0  0  0  0  0  0  0  0  0  0  0  0
   10.2747  -16.5936   24.9538 O   0  0  0  0  0  0  0  0  0  0  0  0
  1  2  1  0
  2  3  1  0
  3  4  2  0
  6  5  1  1
  6  7  1  0
  6  8  1  0
  8  9  1  6
  9  3  1  0
 10  8  1  0
 10 11  2  0
 12 10  1  0
 13 12  1  0
 13 14  1  6
 14 15  1  0
 16 15  1  0
 16 20  1  0
 17 16  2  0
 18 13  1  0
 19 18  2  0
 21 18  1  0
M  END
$$$$
