GTE.pdb
     RDKit          3D

 21 20  0  0  1  0  0  0  0  0999 V2000
    3.8550  -18.2424   21.4865 N   0  0  0  0  0  0  0  0  0  0  0  0
    4.4733  -16.9589   21.6730 C   0  0  0  0  0  0  0  0  0  0  0  0
    5.8773  -16.9195   21.2566 C   0  0  0  0  0  0  0  0  0  0  0  0
    6.4193  -18.0138   20.9083 O   0  0  0  0  0  0  0  0  0  0  0  0
    7.2886  -14.8940   18.5352 C   0  0  0  0  0  0  0  0  0  0  0  0
    8.2371  -14.7134   19.7228 C   0  0  1  0  0  0  0  0  0  0  0  0
    8.2363  -13.4282   20.2120 O   0  0  0  0  0  0  0  0  0  0  0  0
    8.0600  -15.7813   20.7482 C   0  0  2  0  0  0  0  0  0  0  0  0
    6.6880  -15.7402   21.2118 N   0  0  0  0  0  0  0  0  0  0  0  0
    9.0208  -15.7392   21.8617 C   0  0  0  0  0  0  0  0  0  0  0  0
    8.8339  -14.8854   22.7622 O   0  0  0  0  0  0  0  0  0  0  0  0
   10.1372  -16.5990   21.9792 N   0  0  0  0  0  0  0  0  0  0  0  0
   11.1411  -16.4625   23.0567 C   0  0  1  0  0  0  0  0  0  0  0  0
   11.1016  -17.6549   23.9268 C   0  0  0  0  0  0  0  0  0  0  0  0
   12.0166  -17.6223   25.0920 C   0  0  0  0  0  0  0  0  0  0  0  0
   12.0920  -18.8513   25.8952 C   0  0  0  0  0  0  0  0  0  0  0  0
   12.7899  -18.8789   26.9476 O   0  0  0  0  0  0  0  0  0  0  0  0
   12.4260  -16.0312   22.6145 C   0  0  0  0  0  0  0  0  0  0  0  0
   12.7619  -16.0926   21.3890 O   0  0  0  0  0  0  0  0  0  0  0  0
   11.4227  -20.0160   25.5574 O   0  0  0  0  0  0  0  0  0  0  0  0
   13.3836  -15.5202   23.4934 O   0  0  0  0  0  0  0  0  0  0  0  0
  1  2  1  0
  2  3  1  0
  3  4  2  0
  6  5  1  6
  6  7  1  0
  6  8  1  0
  8  9  1  1
  9  3  1  0
 10  8  1  0
 10 11  2  0
 12 10  1  0
 13 12  1  0
 13 14  1  6
 14 15  1  0
 16 15  1  0
 16 20  1  0
 17 16  2  0
 18 13  1  0
 19 18  2  0
 21 18  1  0
M  END
$$$$
