GTE.pdb
     RDKit          3D

 21 20  0  0  1  0  0  0  0  0999 V2000
    3.5281  -18.2889   21.4779 N   0  0  0  0  0  0  0  0  0  0  0  0
    4.1942  -17.0615   21.8160 C   0  0  0  0  0  0  0  0  0  0  0  0
    5.6194  -17.0562   21.4769 C   0  0  0  0  0  0  0  0  0  0  0  0
    6.1196  -18.1294   21.0180 O   0  0  0  0  0  0  0  0  0  0  0  0
    7.1147  -14.9557   19.0193 C   0  0  0  0  0  0  0  0  0  0  0  0
    8.0847  -14.8748   20.2005 C   0  0  1  0  0  0  0  0  0  0  0  0
    8.1479  -13.6157   20.7500 O   0  0  0  0  0  0  0  0  0  0  0  0
    7.8718  -15.9817   21.1766 C   0  0  2  0  0  0  0  0  0  0  0  0
    6.4943  -15.9323   21.6230 N   0  0  0  0  0  0  0  0  0  0  0  0
    8.8172  -16.0067   22.3037 C   0  0  0  0  0  0  0  0  0  0  0  0
    8.5419  -15.3127   23.3123 O   0  0  0  0  0  0  0  0  0  0  0  0
   10.0121  -16.7626   22.3202 N   0  0  0  0  0  0  0  0  0  0  0  0
   10.9317  -16.7783   23.4784 C   0  0  1  0  0  0  0  0  0  0  0  0
   10.9955  -18.1409   24.0439 C   0  0  0  0  0  0  0  0  0  0  0  0
   11.9015  -18.3056   25.2050 C   0  0  0  0  0  0  0  0  0  0  0  0
   12.1070  -19.6815   25.6805 C   0  0  0  0  0  0  0  0  0  0  0  0
   13.2100  -20.2634   25.4799 O   0  0  0  0  0  0  0  0  0  0  0  0
   12.1743  -16.1164   23.2539 C   0  0  0  0  0  0  0  0  0  0  0  0
   12.5954  -15.8751   22.0779 O   0  0  0  0  0  0  0  0  0  0  0  0
   11.1344  -20.3996   26.3566 O   0  0  0  0  0  0  0  0  0  0  0  0
   12.9955  -15.6973   24.3030 O   0  0  0  0  0  0  0  0  0  0  0  0
  1  2  1  0
  2  3  1  0
  3  4  2  0
  6  5  1  6
  6  7  1  0
  6  8  1  0
  8  9  1  1
  9  3  1  0
 10  8  1  0
 10 11  2  0
 12 10  1  0
 13 12  1  0
 13 14  1  6
 14 15  1  0
 16 15  1  0
 16 20  1  0
 17 16  2  0
 18 13  1  0
 19 18  2  0
 21 18  1  0
M  END
$$$$
