AHA.pdb
     RDKit          3D

 21 21  0  0  1  0  0  0  0  0999 V2000
   13.8433  -18.1293   19.6297 C   0  0  0  0  0  0  0  0  0  0  0  0
   12.4803  -18.1961   18.9778 C   0  0  2  0  0  0  0  0  0  0  0  0
   12.5509  -17.4594   17.7348 N   0  0  0  0  0  0  0  0  0  0  0  0
   11.4161  -17.6032   19.8164 C   0  0  0  0  0  0  0  0  0  0  0  0
   11.0586  -16.4198   19.6127 O   0  0  0  0  0  0  0  0  0  0  0  0
   10.7863  -18.3630   20.8603 N   0  0  0  0  0  0  0  0  0  0  0  0
    9.6901  -17.8136   21.6041 C   0  0  1  0  0  0  0  0  0  0  0  0
    8.4607  -18.6815   21.5772 C   0  0  0  0  0  0  0  0  0  0  0  0
    7.7260  -18.6194   20.3140 C   0  0  0  0  0  0  0  0  0  0  0  0
    7.9776  -19.3750   19.1964 C   0  0  0  0  0  0  0  0  0  0  0  0
    7.0805  -19.0139   18.2558 N   0  0  0  0  0  0  0  0  0  0  0  0
    6.2775  -18.0586   18.7482 C   0  0  0  0  0  0  0  0  0  0  0  0
    6.6906  -17.8324   20.0098 N   0  0  0  0  0  0  0  0  0  0  0  0
   10.1018  -17.4992   23.0178 C   0  0  0  0  0  0  0  0  0  0  0  0
   10.9792  -18.2145   23.5673 O   0  0  0  0  0  0  0  0  0  0  0  0
    9.3236  -14.8988   25.6482 C   0  0  0  0  0  0  0  0  0  0  0  0
    9.9648  -16.1636   25.0988 C   0  0  2  0  0  0  0  0  0  0  0  0
    9.5326  -16.4242   23.7480 N   0  0  0  0  0  0  0  0  0  0  0  0
    9.6066  -17.3023   26.0005 C   0  0  0  0  0  0  0  0  0  0  0  0
    8.7719  -18.1528   25.5991 O   0  0  0  0  0  0  0  0  0  0  0  0
   10.1498  -17.4679   27.2599 O   0  0  0  0  0  0  0  0  0  0  0  0
  2  1  1  1
  2  4  1  0
  2  3  1  0
  4  5  2  0
  6  7  1  0
  6  4  1  0
  7  8  1  1
  9  8  1  0
 10  9  2  0
 11 10  1  0
 12 11  1  0
 12 13  2  0
 13  9  1  0
 14 15  2  0
 14  7  1  0
 17 16  1  1
 17 19  1  0
 17 18  1  0
 18 14  1  0
 19 21  1  0
 20 19  2  0
M  END
$$$$
