AHA.pdb
     RDKit          3D

 21 21  0  0  1  0  0  0  0  0999 V2000
   -0.7438  -27.0769   29.2757 C   0  0  0  0  0  0  0  0  0  0  0  0
    0.5638  -26.8351   28.5554 C   0  0  2  0  0  0  0  0  0  0  0  0
    0.3654  -27.1659   27.1611 N   0  0  0  0  0  0  0  0  0  0  0  0
    1.6689  -27.6645   29.0832 C   0  0  0  0  0  0  0  0  0  0  0  0
    1.7315  -28.8768   28.7734 O   0  0  0  0  0  0  0  0  0  0  0  0
    2.6709  -27.1016   29.9450 N   0  0  0  0  0  0  0  0  0  0  0  0
    3.7771  -27.8956   30.3951 C   0  0  1  0  0  0  0  0  0  0  0  0
    5.1125  -27.2474   30.1465 C   0  0  0  0  0  0  0  0  0  0  0  0
    5.5318  -27.2859   28.7458 C   0  0  0  0  0  0  0  0  0  0  0  0
    4.8400  -27.8662   27.7122 C   0  0  0  0  0  0  0  0  0  0  0  0
    5.5649  -27.6828   26.5893 N   0  0  0  0  0  0  0  0  0  0  0  0
    6.6855  -27.0079   26.8867 C   0  0  0  0  0  0  0  0  0  0  0  0
    6.6447  -26.7751   28.2125 N   0  0  0  0  0  0  0  0  0  0  0  0
    3.6171  -28.2704   31.8445 C   0  0  0  0  0  0  0  0  0  0  0  0
    3.2390  -27.3902   32.6604 O   0  0  0  0  0  0  0  0  0  0  0  0
    3.6287  -31.4024   33.9320 C   0  0  0  0  0  0  0  0  0  0  0  0
    3.6735  -29.8986   33.7096 C   0  0  2  0  0  0  0  0  0  0  0  0
    3.8786  -29.5820   32.3179 N   0  0  0  0  0  0  0  0  0  0  0  0
    4.7724  -29.3313   34.5514 C   0  0  0  0  0  0  0  0  0  0  0  0
    5.8390  -28.9706   33.9916 O   0  0  0  0  0  0  0  0  0  0  0  0
    4.6742  -29.1827   35.9214 O   0  0  0  0  0  0  0  0  0  0  0  0
  2  1  1  1
  2  4  1  0
  2  3  1  0
  4  5  2  0
  6  7  1  0
  6  4  1  0
  7  8  1  1
  9  8  1  0
 10  9  2  0
 11 10  1  0
 12 11  1  0
 12 13  2  0
 13  9  1  0
 14 15  2  0
 14  7  1  0
 17 16  1  6
 17 19  1  0
 17 18  1  0
 18 14  1  0
 19 21  1  0
 20 19  2  0
M  END
$$$$
