AHA.pdb
     RDKit          3D

 21 21  0  0  1  0  0  0  0  0999 V2000
    9.7441  -18.4664   18.5852 C   0  0  0  0  0  0  0  0  0  0  0  0
    9.0619  -18.6138   19.9268 C   0  0  2  0  0  0  0  0  0  0  0  0
    7.6627  -18.8866   19.6809 N   0  0  0  0  0  0  0  0  0  0  0  0
    9.1647  -17.3942   20.7572 C   0  0  0  0  0  0  0  0  0  0  0  0
   10.2943  -16.9804   21.1070 O   0  0  0  0  0  0  0  0  0  0  0  0
    7.9898  -16.6772   21.1684 N   0  0  0  0  0  0  0  0  0  0  0  0
    8.1010  -15.4779   21.9469 C   0  0  1  0  0  0  0  0  0  0  0  0
    7.1856  -14.3791   21.4778 C   0  0  0  0  0  0  0  0  0  0  0  0
    7.4797  -13.9080   20.1247 C   0  0  0  0  0  0  0  0  0  0  0  0
    8.1572  -12.7596   19.7998 C   0  0  0  0  0  0  0  0  0  0  0  0
    8.2142  -12.6928   18.4535 N   0  0  0  0  0  0  0  0  0  0  0  0
    7.5953  -13.7604   17.9271 C   0  0  0  0  0  0  0  0  0  0  0  0
    7.1531  -14.4911   18.9684 N   0  0  0  0  0  0  0  0  0  0  0  0
    7.8986  -15.7649   23.4110 C   0  0  0  0  0  0  0  0  0  0  0  0
    6.7310  -15.9692   23.8332 O   0  0  0  0  0  0  0  0  0  0  0  0
    8.2173  -17.6765   25.7140 C   0  0  0  0  0  0  0  0  0  0  0  0
    8.7581  -16.2555   25.6811 C   0  0  2  0  0  0  0  0  0  0  0  0
    8.9808  -15.8123   24.3272 N   0  0  0  0  0  0  0  0  0  0  0  0
   10.0295  -16.2179   26.4687 C   0  0  0  0  0  0  0  0  0  0  0  0
   11.1096  -15.9967   25.8641 O   0  0  0  0  0  0  0  0  0  0  0  0
   10.0773  -16.4151   27.8352 O   0  0  0  0  0  0  0  0  0  0  0  0
  2  1  1  6
  2  4  1  0
  2  3  1  0
  4  5  2  0
  6  7  1  0
  6  4  1  0
  7  8  1  6
  9  8  1  0
 10  9  2  0
 11 10  1  0
 12 11  1  0
 12 13  2  0
 13  9  1  0
 14 15  2  0
 14  7  1  0
 17 16  1  6
 17 19  1  0
 17 18  1  0
 18 14  1  0
 19 21  1  0
 20 19  2  0
M  END
$$$$
