AHA.pdb
     RDKit          3D

 21 21  0  0  1  0  0  0  0  0999 V2000
   10.1880  -20.0059   18.4904 C   0  0  0  0  0  0  0  0  0  0  0  0
    9.8613  -18.5464   18.2661 C   0  0  2  0  0  0  0  0  0  0  0  0
   10.6423  -18.0895   17.1374 N   0  0  0  0  0  0  0  0  0  0  0  0
   10.1861  -17.7017   19.4359 C   0  0  0  0  0  0  0  0  0  0  0  0
   11.3656  -17.3164   19.6091 O   0  0  0  0  0  0  0  0  0  0  0  0
    9.1705  -17.3165   20.3761 N   0  0  0  0  0  0  0  0  0  0  0  0
    9.4949  -16.4954   21.5062 C   0  0  1  0  0  0  0  0  0  0  0  0
    8.4250  -15.4891   21.8350 C   0  0  0  0  0  0  0  0  0  0  0  0
    8.1848  -14.5182   20.7679 C   0  0  0  0  0  0  0  0  0  0  0  0
    9.0841  -13.5917   20.3027 C   0  0  0  0  0  0  0  0  0  0  0  0
    8.4735  -12.8948   19.3221 N   0  0  0  0  0  0  0  0  0  0  0  0
    7.2237  -13.3547   19.1593 C   0  0  0  0  0  0  0  0  0  0  0  0
    7.0682  -14.3485   20.0548 N   0  0  0  0  0  0  0  0  0  0  0  0
    9.8335  -17.3394   22.7062 C   0  0  0  0  0  0  0  0  0  0  0  0
    9.0183  -18.2243   23.0747 O   0  0  0  0  0  0  0  0  0  0  0  0
   12.7883  -17.8835   24.9862 C   0  0  0  0  0  0  0  0  0  0  0  0
   11.3434  -18.0420   24.5390 C   0  0  2  0  0  0  0  0  0  0  0  0
   11.0400  -17.1684   23.4326 N   0  0  0  0  0  0  0  0  0  0  0  0
   10.4550  -17.7494   25.7065 C   0  0  0  0  0  0  0  0  0  0  0  0
    9.7772  -16.6903   25.7008 O   0  0  0  0  0  0  0  0  0  0  0  0
   10.3408  -18.5891   26.7976 O   0  0  0  0  0  0  0  0  0  0  0  0
  2  1  1  1
  2  4  1  0
  2  3  1  0
  4  5  2  0
  6  7  1  0
  6  4  1  0
  7  8  1  1
  9  8  1  0
 10  9  2  0
 11 10  1  0
 12 11  1  0
 12 13  2  0
 13  9  1  0
 14 15  2  0
 14  7  1  0
 17 16  1  1
 17 19  1  0
 17 18  1  0
 18 14  1  0
 19 21  1  0
 20 19  2  0
M  END
$$$$
