AHA.pdb
     RDKit          3D

 21 21  0  0  1  0  0  0  0  0999 V2000
   11.7931  -15.3808   20.9210 C   0  0  0  0  0  0  0  0  0  0  0  0
   10.7300  -16.4257   21.1760 C   0  0  2  0  0  0  0  0  0  0  0  0
    9.8335  -16.4269   20.0407 N   0  0  0  0  0  0  0  0  0  0  0  0
    9.9420  -16.1531   22.3976 C   0  0  0  0  0  0  0  0  0  0  0  0
    9.0415  -15.2826   22.3683 O   0  0  0  0  0  0  0  0  0  0  0  0
   10.1933  -16.8708   23.6164 N   0  0  0  0  0  0  0  0  0  0  0  0
    9.3266  -16.7141   24.7482 C   0  0  1  0  0  0  0  0  0  0  0  0
    8.8017  -18.0212   25.2788 C   0  0  0  0  0  0  0  0  0  0  0  0
    7.7480  -18.6092   24.4523 C   0  0  0  0  0  0  0  0  0  0  0  0
    7.2838  -18.1100   23.2612 C   0  0  0  0  0  0  0  0  0  0  0  0
    6.3175  -18.9438   22.8243 N   0  0  0  0  0  0  0  0  0  0  0  0
    6.1626  -19.9465   23.7020 C   0  0  0  0  0  0  0  0  0  0  0  0
    7.0485  -19.7217   24.6911 N   0  0  0  0  0  0  0  0  0  0  0  0
    9.9982  -15.9176   25.8351 C   0  0  0  0  0  0  0  0  0  0  0  0
   11.1996  -16.1661   26.1150 O   0  0  0  0  0  0  0  0  0  0  0  0
    9.1464  -13.0966   28.1969 C   0  0  0  0  0  0  0  0  0  0  0  0
    9.9385  -14.2997   27.7091 C   0  0  2  0  0  0  0  0  0  0  0  0
    9.3204  -14.8980   26.5518 N   0  0  0  0  0  0  0  0  0  0  0  0
   10.0341  -15.2857   28.8301 C   0  0  0  0  0  0  0  0  0  0  0  0
   10.6855  -14.9713   29.8587 O   0  0  0  0  0  0  0  0  0  0  0  0
    9.4393  -16.5320   28.7923 O   0  0  0  0  0  0  0  0  0  0  0  0
  2  1  1  6
  2  4  1  0
  2  3  1  0
  4  5  2  0
  6  7  1  0
  6  4  1  0
  7  8  1  1
  9  8  1  0
 10  9  2  0
 11 10  1  0
 12 11  1  0
 12 13  2  0
 13  9  1  0
 14 15  2  0
 14  7  1  0
 17 16  1  1
 17 19  1  0
 17 18  1  0
 18 14  1  0
 19 21  1  0
 20 19  2  0
M  END
$$$$
