AHA.pdb
     RDKit          3D

 21 21  0  0  1  0  0  0  0  0999 V2000
    7.8162  -14.8759   18.9652 C   0  0  0  0  0  0  0  0  0  0  0  0
    7.7062  -13.6996   19.9092 C   0  0  2  0  0  0  0  0  0  0  0  0
    8.4068  -12.5861   19.3076 N   0  0  0  0  0  0  0  0  0  0  0  0
    8.3050  -13.9720   21.2339 C   0  0  0  0  0  0  0  0  0  0  0  0
    9.5049  -13.6761   21.4402 O   0  0  0  0  0  0  0  0  0  0  0  0
    7.5325  -14.5702   22.2869 N   0  0  0  0  0  0  0  0  0  0  0  0
    8.1481  -14.9276   23.5320 C   0  0  1  0  0  0  0  0  0  0  0  0
    7.1747  -14.9913   24.6782 C   0  0  0  0  0  0  0  0  0  0  0  0
    6.8133  -13.6795   25.2147 C   0  0  0  0  0  0  0  0  0  0  0  0
    7.3533  -12.4762   24.8356 C   0  0  0  0  0  0  0  0  0  0  0  0
    6.7504  -11.5160   25.5667 N   0  0  0  0  0  0  0  0  0  0  0  0
    5.8524  -12.0789   26.3892 C   0  0  0  0  0  0  0  0  0  0  0  0
    5.9076  -13.4043   26.1570 N   0  0  0  0  0  0  0  0  0  0  0  0
    8.9189  -16.2144   23.4023 C   0  0  0  0  0  0  0  0  0  0  0  0
    8.3614  -17.2033   22.8594 O   0  0  0  0  0  0  0  0  0  0  0  0
   12.3755  -17.3607   23.2088 C   0  0  0  0  0  0  0  0  0  0  0  0
   10.9546  -17.5931   23.6987 C   0  0  2  0  0  0  0  0  0  0  0  0
   10.2511  -16.3464   23.8720 N   0  0  0  0  0  0  0  0  0  0  0  0
   11.0195  -18.3504   24.9873 C   0  0  0  0  0  0  0  0  0  0  0  0
   11.6702  -19.4258   25.0252 O   0  0  0  0  0  0  0  0  0  0  0  0
   10.3968  -17.9256   26.1450 O   0  0  0  0  0  0  0  0  0  0  0  0
  2  1  1  6
  2  4  1  0
  2  3  1  0
  4  5  2  0
  6  7  1  0
  6  4  1  0
  7  8  1  1
  9  8  1  0
 10  9  2  0
 11 10  1  0
 12 11  1  0
 12 13  2  0
 13  9  1  0
 14 15  2  0
 14  7  1  0
 17 16  1  1
 17 19  1  0
 17 18  1  0
 18 14  1  0
 19 21  1  0
 20 19  2  0
M  END
$$$$
