AHA.pdb
     RDKit          3D

 21 21  0  0  1  0  0  0  0  0999 V2000
   10.8103  -19.3287   15.1116 C   0  0  0  0  0  0  0  0  0  0  0  0
   10.8027  -17.9059   14.5993 C   0  0  2  0  0  0  0  0  0  0  0  0
   12.0198  -17.7041   13.8437 N   0  0  0  0  0  0  0  0  0  0  0  0
   10.7539  -16.9065   15.6885 C   0  0  0  0  0  0  0  0  0  0  0  0
   11.8185  -16.5465   16.2424 O   0  0  0  0  0  0  0  0  0  0  0  0
    9.5054  -16.3426   16.1207 N   0  0  0  0  0  0  0  0  0  0  0  0
    9.4502  -15.4824   17.2669 C   0  0  1  0  0  0  0  0  0  0  0  0
    8.1941  -14.6554   17.3281 C   0  0  0  0  0  0  0  0  0  0  0  0
    8.1855  -13.6812   18.4190 C   0  0  0  0  0  0  0  0  0  0  0  0
    7.5514  -13.8285   19.6272 C   0  0  0  0  0  0  0  0  0  0  0  0
    7.7883  -12.7112   20.3451 N   0  0  0  0  0  0  0  0  0  0  0  0
    8.5486  -11.8715   19.6263 C   0  0  0  0  0  0  0  0  0  0  0  0
    8.7800  -12.4856   18.4503 N   0  0  0  0  0  0  0  0  0  0  0  0
    9.6473  -16.2650   18.5380 C   0  0  0  0  0  0  0  0  0  0  0  0
    9.1378  -17.4120   18.6292 O   0  0  0  0  0  0  0  0  0  0  0  0
   12.0584  -16.8755   21.0212 C   0  0  0  0  0  0  0  0  0  0  0  0
   10.5857  -16.5595   20.8108 C   0  0  2  0  0  0  0  0  0  0  0  0
   10.3877  -15.7509   19.6334 N   0  0  0  0  0  0  0  0  0  0  0  0
   10.0765  -15.8574   22.0297 C   0  0  0  0  0  0  0  0  0  0  0  0
    9.6507  -14.6797   21.9163 O   0  0  0  0  0  0  0  0  0  0  0  0
   10.0502  -16.4410   23.2817 O   0  0  0  0  0  0  0  0  0  0  0  0
  2  1  1  1
  2  4  1  0
  2  3  1  0
  4  5  2  0
  6  7  1  0
  6  4  1  0
  7  8  1  1
  9  8  1  0
 10  9  2  0
 11 10  1  0
 12 11  1  0
 12 13  2  0
 13  9  1  0
 14 15  2  0
 14  7  1  0
 17 16  1  1
 17 19  1  0
 17 18  1  0
 18 14  1  0
 19 21  1  0
 20 19  2  0
M  END
$$$$
