AHA.pdb
     RDKit          3D

 21 21  0  0  1  0  0  0  0  0999 V2000
    8.2723  -12.3267   19.1831 C   0  0  0  0  0  0  0  0  0  0  0  0
    8.3822  -13.7689   18.7416 C   0  0  2  0  0  0  0  0  0  0  0  0
    7.2795  -14.0396   17.8452 N   0  0  0  0  0  0  0  0  0  0  0  0
    8.3136  -14.7196   19.8725 C   0  0  0  0  0  0  0  0  0  0  0  0
    7.1973  -15.1346   20.2616 O   0  0  0  0  0  0  0  0  0  0  0  0
    9.5065  -15.1742   20.5312 N   0  0  0  0  0  0  0  0  0  0  0  0
    9.4556  -16.2595   21.4674 C   0  0  1  0  0  0  0  0  0  0  0  0
   10.4415  -17.3545   21.1603 C   0  0  0  0  0  0  0  0  0  0  0  0
   10.0903  -18.1469   19.9821 C   0  0  0  0  0  0  0  0  0  0  0  0
    9.0755  -19.0674   19.9022 C   0  0  0  0  0  0  0  0  0  0  0  0
    9.0874  -19.5722   18.6512 N   0  0  0  0  0  0  0  0  0  0  0  0
   10.0750  -18.9982   17.9476 C   0  0  0  0  0  0  0  0  0  0  0  0
   10.6762  -18.1288   18.7820 N   0  0  0  0  0  0  0  0  0  0  0  0
    9.6194  -15.7618   22.8789 C   0  0  0  0  0  0  0  0  0  0  0  0
   10.6798  -15.1604   23.1908 O   0  0  0  0  0  0  0  0  0  0  0  0
    7.4867  -14.9435   25.7872 C   0  0  0  0  0  0  0  0  0  0  0  0
    8.8048  -15.4133   25.1914 C   0  0  2  0  0  0  0  0  0  0  0  0
    8.6177  -15.9492   23.8659 N   0  0  0  0  0  0  0  0  0  0  0  0
    9.3924  -16.4434   26.1033 C   0  0  0  0  0  0  0  0  0  0  0  0
    9.4939  -17.6277   25.6930 O   0  0  0  0  0  0  0  0  0  0  0  0
    9.8319  -16.1578   27.3815 O   0  0  0  0  0  0  0  0  0  0  0  0
  2  1  1  1
  2  4  1  0
  2  3  1  0
  4  5  2  0
  6  7  1  0
  6  4  1  0
  7  8  1  6
  9  8  1  0
 10  9  2  0
 11 10  1  0
 12 11  1  0
 12 13  2  0
 13  9  1  0
 14 15  2  0
 14  7  1  0
 17 16  1  1
 17 19  1  0
 17 18  1  0
 18 14  1  0
 19 21  1  0
 20 19  2  0
M  END
$$$$
