AHA.pdb
     RDKit          3D

 21 21  0  0  1  0  0  0  0  0999 V2000
    4.8339  -18.0765   20.2780 C   0  0  0  0  0  0  0  0  0  0  0  0
    5.5496  -19.2682   20.8735 C   0  0  2  0  0  0  0  0  0  0  0  0
    6.3284  -19.8841   19.8213 N   0  0  0  0  0  0  0  0  0  0  0  0
    4.6189  -20.2780   21.4227 C   0  0  0  0  0  0  0  0  0  0  0  0
    4.0591  -21.0866   20.6464 O   0  0  0  0  0  0  0  0  0  0  0  0
    4.3471  -20.3458   22.8316 N   0  0  0  0  0  0  0  0  0  0  0  0
    3.4219  -21.3104   23.3515 C   0  0  1  0  0  0  0  0  0  0  0  0
    4.0202  -22.1942   24.4128 C   0  0  0  0  0  0  0  0  0  0  0  0
    5.0388  -23.1131   23.9055 C   0  0  0  0  0  0  0  0  0  0  0  0
    6.3786  -23.0748   24.2002 C   0  0  0  0  0  0  0  0  0  0  0  0
    6.9667  -24.0896   23.5336 N   0  0  0  0  0  0  0  0  0  0  0  0
    6.0397  -24.7601   22.8330 C   0  0  0  0  0  0  0  0  0  0  0  0
    4.8664  -24.1451   23.0752 N   0  0  0  0  0  0  0  0  0  0  0  0
    2.1670  -20.6415   23.8462 C   0  0  0  0  0  0  0  0  0  0  0  0
    2.2672  -19.7077   24.6836 O   0  0  0  0  0  0  0  0  0  0  0  0
   -1.0054  -19.6221   22.7271 C   0  0  0  0  0  0  0  0  0  0  0  0
   -0.2892  -20.3265   23.8689 C   0  0  2  0  0  0  0  0  0  0  0  0
    0.8781  -21.0303   23.3986 N   0  0  0  0  0  0  0  0  0  0  0  0
   -1.2527  -21.2691   24.5180 C   0  0  0  0  0  0  0  0  0  0  0  0
   -1.0898  -22.5058   24.3588 O   0  0  0  0  0  0  0  0  0  0  0  0
   -2.3191  -20.8472   25.2882 O   0  0  0  0  0  0  0  0  0  0  0  0
  2  1  1  6
  2  4  1  0
  2  3  1  0
  4  5  2  0
  6  7  1  0
  6  4  1  0
  7  8  1  1
  9  8  1  0
 10  9  2  0
 11 10  1  0
 12 11  1  0
 12 13  2  0
 13  9  1  0
 14 15  2  0
 14  7  1  0
 17 16  1  6
 17 19  1  0
 17 18  1  0
 18 14  1  0
 19 21  1  0
 20 19  2  0
M  END
$$$$
