AHA.pdb
     RDKit          3D

 21 21  0  0  1  0  0  0  0  0999 V2000
    8.0572  -12.3135   19.4742 C   0  0  0  0  0  0  0  0  0  0  0  0
    8.7358  -13.1714   18.4299 C   0  0  2  0  0  0  0  0  0  0  0  0
    7.8241  -13.3110   17.3154 N   0  0  0  0  0  0  0  0  0  0  0  0
    9.0759  -14.5205   18.9315 C   0  0  0  0  0  0  0  0  0  0  0  0
    8.2907  -15.4732   18.7180 O   0  0  0  0  0  0  0  0  0  0  0  0
   10.2920  -14.7552   19.6593 N   0  0  0  0  0  0  0  0  0  0  0  0
   10.6425  -16.0779   20.0888 C   0  0  1  0  0  0  0  0  0  0  0  0
   11.6961  -16.7215   19.2278 C   0  0  0  0  0  0  0  0  0  0  0  0
   12.7251  -15.7906   18.7654 C   0  0  0  0  0  0  0  0  0  0  0  0
   13.1260  -14.6466   19.4087 C   0  0  0  0  0  0  0  0  0  0  0  0
   14.0901  -14.0779   18.6556 N   0  0  0  0  0  0  0  0  0  0  0  0
   14.3045  -14.8279   17.5641 C   0  0  0  0  0  0  0  0  0  0  0  0
   13.4579  -15.8715   17.6517 N   0  0  0  0  0  0  0  0  0  0  0  0
   11.0483  -16.0838   21.5387 C   0  0  0  0  0  0  0  0  0  0  0  0
   11.7531  -15.1372   21.9752 O   0  0  0  0  0  0  0  0  0  0  0  0
   10.2610  -18.0514   24.6522 C   0  0  0  0  0  0  0  0  0  0  0  0
   11.0610  -17.0692   23.8107 C   0  0  2  0  0  0  0  0  0  0  0  0
   10.6617  -17.1211   22.4261 N   0  0  0  0  0  0  0  0  0  0  0  0
   12.5130  -17.3976   23.9579 C   0  0  0  0  0  0  0  0  0  0  0  0
   13.1092  -17.9489   22.9979 O   0  0  0  0  0  0  0  0  0  0  0  0
   13.2368  -17.1241   25.1025 O   0  0  0  0  0  0  0  0  0  0  0  0
  2  1  1  1
  2  4  1  0
  2  3  1  0
  4  5  2  0
  6  7  1  0
  6  4  1  0
  7  8  1  6
  9  8  1  0
 10  9  2  0
 11 10  1  0
 12 11  1  0
 12 13  2  0
 13  9  1  0
 14 15  2  0
 14  7  1  0
 17 16  1  1
 17 19  1  0
 17 18  1  0
 18 14  1  0
 19 21  1  0
 20 19  2  0
M  END
$$$$
