AHA.pdb
     RDKit          3D

 21 21  0  0  1  0  0  0  0  0999 V2000
    8.9443  -20.2488   19.6693 C   0  0  0  0  0  0  0  0  0  0  0  0
    8.6588  -19.0029   18.8612 C   0  0  2  0  0  0  0  0  0  0  0  0
    9.2168  -19.1978   17.5408 N   0  0  0  0  0  0  0  0  0  0  0  0
    9.2611  -17.7880   19.4519 C   0  0  0  0  0  0  0  0  0  0  0  0
   10.4612  -17.5176   19.2146 O   0  0  0  0  0  0  0  0  0  0  0  0
    8.4916  -16.9140   20.2931 N   0  0  0  0  0  0  0  0  0  0  0  0
    9.1036  -15.7793   20.9212 C   0  0  1  0  0  0  0  0  0  0  0  0
    8.2047  -14.5731   20.9724 C   0  0  0  0  0  0  0  0  0  0  0  0
    7.8933  -14.0171   19.6559 C   0  0  0  0  0  0  0  0  0  0  0  0
    8.3601  -12.8295   19.1508 C   0  0  0  0  0  0  0  0  0  0  0  0
    7.8399  -12.6856   17.9144 N   0  0  0  0  0  0  0  0  0  0  0  0
    7.0644  -13.7428   17.6305 C   0  0  0  0  0  0  0  0  0  0  0  0
    7.1115  -14.5456   18.7108 N   0  0  0  0  0  0  0  0  0  0  0  0
    9.6157  -16.1332   22.2921 C   0  0  0  0  0  0  0  0  0  0  0  0
    8.8056  -16.5787   23.1458 O   0  0  0  0  0  0  0  0  0  0  0  0
   11.3512  -18.0316   23.9297 C   0  0  0  0  0  0  0  0  0  0  0  0
   11.4591  -16.5148   23.9011 C   0  0  2  0  0  0  0  0  0  0  0  0
   10.9798  -15.9803   22.6507 N   0  0  0  0  0  0  0  0  0  0  0  0
   12.8902  -16.1409   24.1254 C   0  0  0  0  0  0  0  0  0  0  0  0
   13.5251  -15.5889   23.1909 O   0  0  0  0  0  0  0  0  0  0  0  0
   13.5537  -16.3728   25.3148 O   0  0  0  0  0  0  0  0  0  0  0  0
  2  1  1  1
  2  4  1  0
  2  3  1  0
  4  5  2  0
  6  7  1  0
  6  4  1  0
  7  8  1  1
  9  8  1  0
 10  9  2  0
 11 10  1  0
 12 11  1  0
 12 13  2  0
 13  9  1  0
 14 15  2  0
 14  7  1  0
 17 16  1  6
 17 19  1  0
 17 18  1  0
 18 14  1  0
 19 21  1  0
 20 19  2  0
M  END
$$$$
