AHA.pdb
     RDKit          3D

 21 21  0  0  1  0  0  0  0  0999 V2000
   13.5104  -16.7024   19.3637 C   0  0  0  0  0  0  0  0  0  0  0  0
   12.6340  -15.6463   18.7284 C   0  0  2  0  0  0  0  0  0  0  0  0
   13.5003  -14.6115   18.2071 N   0  0  0  0  0  0  0  0  0  0  0  0
   11.6921  -15.0317   19.6889 C   0  0  0  0  0  0  0  0  0  0  0  0
   12.0258  -13.9887   20.2975 O   0  0  0  0  0  0  0  0  0  0  0  0
   10.4012  -15.6121   19.9345 N   0  0  0  0  0  0  0  0  0  0  0  0
    9.4301  -14.9222   20.7331 C   0  0  1  0  0  0  0  0  0  0  0  0
    8.0529  -14.9245   20.1258 C   0  0  0  0  0  0  0  0  0  0  0  0
    7.9973  -14.3194   18.7954 C   0  0  0  0  0  0  0  0  0  0  0  0
    8.0228  -12.9755   18.5186 C   0  0  0  0  0  0  0  0  0  0  0  0
    7.9524  -12.8389   17.1784 N   0  0  0  0  0  0  0  0  0  0  0  0
    7.8838  -14.0517   16.6091 C   0  0  0  0  0  0  0  0  0  0  0  0
    7.9128  -14.9437   17.6176 N   0  0  0  0  0  0  0  0  0  0  0  0
    9.4048  -15.4635   22.1378 C   0  0  0  0  0  0  0  0  0  0  0  0
    9.7223  -16.6658   22.3303 O   0  0  0  0  0  0  0  0  0  0  0  0
    8.5914  -14.2055   25.6101 C   0  0  0  0  0  0  0  0  0  0  0  0
    8.9791  -15.2426   24.5674 C   0  0  2  0  0  0  0  0  0  0  0  0
    9.0350  -14.6622   23.2486 N   0  0  0  0  0  0  0  0  0  0  0  0
    7.9801  -16.3551   24.6167 C   0  0  0  0  0  0  0  0  0  0  0  0
    7.9325  -17.0807   25.6426 O   0  0  0  0  0  0  0  0  0  0  0  0
    7.1017  -16.6275   23.5858 O   0  0  0  0  0  0  0  0  0  0  0  0
  2  1  1  1
  2  4  1  0
  2  3  1  0
  4  5  2  0
  6  7  1  0
  6  4  1  0
  7  8  1  6
  9  8  1  0
 10  9  2  0
 11 10  1  0
 12 11  1  0
 12 13  2  0
 13  9  1  0
 14 15  2  0
 14  7  1  0
 17 16  1  1
 17 19  1  0
 17 18  1  0
 18 14  1  0
 19 21  1  0
 20 19  2  0
M  END
$$$$
