AHA.pdb
     RDKit          3D

 21 21  0  0  1  0  0  0  0  0999 V2000
    7.2744  -20.4444   20.0590 C   0  0  0  0  0  0  0  0  0  0  0  0
    6.8995  -19.1105   19.4530 C   0  0  2  0  0  0  0  0  0  0  0  0
    7.0012  -19.2366   18.0154 N   0  0  0  0  0  0  0  0  0  0  0  0
    7.7877  -18.0129   19.8931 C   0  0  0  0  0  0  0  0  0  0  0  0
    9.0281  -18.1895   19.9005 O   0  0  0  0  0  0  0  0  0  0  0  0
    7.2504  -16.7482   20.3120 N   0  0  0  0  0  0  0  0  0  0  0  0
    8.1216  -15.6733   20.6892 C   0  0  1  0  0  0  0  0  0  0  0  0
    7.5371  -14.3130   20.4181 C   0  0  0  0  0  0  0  0  0  0  0  0
    7.5087  -13.9587   18.9993 C   0  0  0  0  0  0  0  0  0  0  0  0
    8.2743  -12.9945   18.3931 C   0  0  0  0  0  0  0  0  0  0  0  0
    7.9460  -12.9834   17.0846 N   0  0  0  0  0  0  0  0  0  0  0  0
    7.0016  -13.9077   16.8535 C   0  0  0  0  0  0  0  0  0  0  0  0
    6.7488  -14.4931   18.0397 N   0  0  0  0  0  0  0  0  0  0  0  0
    8.5477  -15.8042   22.1273 C   0  0  0  0  0  0  0  0  0  0  0  0
    7.7308  -15.4933   23.0326 O   0  0  0  0  0  0  0  0  0  0  0  0
   10.0786  -17.7152   24.4484 C   0  0  0  0  0  0  0  0  0  0  0  0
   10.2196  -16.3105   23.8827 C   0  0  2  0  0  0  0  0  0  0  0  0
    9.8383  -16.2662   22.4928 N   0  0  0  0  0  0  0  0  0  0  0  0
   11.6393  -15.8730   24.0587 C   0  0  0  0  0  0  0  0  0  0  0  0
   12.3724  -15.7733   23.0419 O   0  0  0  0  0  0  0  0  0  0  0  0
   12.1893  -15.5709   25.2895 O   0  0  0  0  0  0  0  0  0  0  0  0
  2  1  1  1
  2  4  1  0
  2  3  1  0
  4  5  2  0
  6  7  1  0
  6  4  1  0
  7  8  1  1
  9  8  1  0
 10  9  2  0
 11 10  1  0
 12 11  1  0
 12 13  2  0
 13  9  1  0
 14 15  2  0
 14  7  1  0
 17 16  1  6
 17 19  1  0
 17 18  1  0
 18 14  1  0
 19 21  1  0
 20 19  2  0
M  END
$$$$
