AHA.pdb
     RDKit          3D

 21 21  0  0  1  0  0  0  0  0999 V2000
   12.4589  -19.0534   22.4379 C   0  0  0  0  0  0  0  0  0  0  0  0
   11.9833  -17.8187   21.7054 C   0  0  2  0  0  0  0  0  0  0  0  0
   13.0900  -17.3213   20.9176 N   0  0  0  0  0  0  0  0  0  0  0  0
   11.5385  -16.7464   22.6217 C   0  0  0  0  0  0  0  0  0  0  0  0
   12.3290  -15.8197   22.9153 O   0  0  0  0  0  0  0  0  0  0  0  0
   10.2149  -16.7510   23.1799 N   0  0  0  0  0  0  0  0  0  0  0  0
    9.7238  -15.6152   23.9048 C   0  0  1  0  0  0  0  0  0  0  0  0
    8.2484  -15.3841   23.7167 C   0  0  0  0  0  0  0  0  0  0  0  0
    7.9053  -14.8130   22.4146 C   0  0  0  0  0  0  0  0  0  0  0  0
    8.7919  -14.4733   21.4237 C   0  0  0  0  0  0  0  0  0  0  0  0
    8.0742  -13.9837   20.3916 N   0  0  0  0  0  0  0  0  0  0  0  0
    6.7698  -14.0063   20.7045 C   0  0  0  0  0  0  0  0  0  0  0  0
    6.6893  -14.5178   21.9477 N   0  0  0  0  0  0  0  0  0  0  0  0
   10.0758  -15.7145   25.3653 C   0  0  0  0  0  0  0  0  0  0  0  0
   10.3848  -16.8384   25.8396 O   0  0  0  0  0  0  0  0  0  0  0  0
   10.3477  -13.4021   28.3449 C   0  0  0  0  0  0  0  0  0  0  0  0
   10.4692  -14.7224   27.6000 C   0  0  2  0  0  0  0  0  0  0  0  0
   10.0699  -14.5833   26.2214 N   0  0  0  0  0  0  0  0  0  0  0  0
    9.6208  -15.7367   28.2994 C   0  0  0  0  0  0  0  0  0  0  0  0
    8.4972  -16.0245   27.8137 O   0  0  0  0  0  0  0  0  0  0  0  0
   10.0116  -16.3775   29.4593 O   0  0  0  0  0  0  0  0  0  0  0  0
  2  1  1  1
  2  4  1  0
  2  3  1  0
  4  5  2  0
  6  7  1  0
  6  4  1  0
  7  8  1  1
  9  8  1  0
 10  9  2  0
 11 10  1  0
 12 11  1  0
 12 13  2  0
 13  9  1  0
 14 15  2  0
 14  7  1  0
 17 16  1  1
 17 19  1  0
 17 18  1  0
 18 14  1  0
 19 21  1  0
 20 19  2  0
M  END
$$$$
