AHA.pdb
     RDKit          3D

 21 21  0  0  1  0  0  0  0  0999 V2000
    8.3805  -12.0431   19.6558 C   0  0  0  0  0  0  0  0  0  0  0  0
    8.6280  -13.5305   19.5400 C   0  0  2  0  0  0  0  0  0  0  0  0
    7.9368  -14.0006   18.3593 N   0  0  0  0  0  0  0  0  0  0  0  0
    8.1286  -14.2857   20.7095 C   0  0  0  0  0  0  0  0  0  0  0  0
    6.9507  -14.7127   20.7100 O   0  0  0  0  0  0  0  0  0  0  0  0
    8.9730  -14.5371   21.8442 N   0  0  0  0  0  0  0  0  0  0  0  0
    8.4815  -15.2754   22.9712 C   0  0  1  0  0  0  0  0  0  0  0  0
    9.0960  -16.6436   23.0977 C   0  0  0  0  0  0  0  0  0  0  0  0
    8.7093  -17.5618   22.0269 C   0  0  0  0  0  0  0  0  0  0  0  0
    9.1676  -17.5318   20.7337 C   0  0  0  0  0  0  0  0  0  0  0  0
    8.5688  -18.5427   20.0707 N   0  0  0  0  0  0  0  0  0  0  0  0
    7.7523  -19.2025   20.9059 C   0  0  0  0  0  0  0  0  0  0  0  0
    7.8538  -18.5850   22.0984 N   0  0  0  0  0  0  0  0  0  0  0  0
    8.6439  -14.4876   24.2439 C   0  0  0  0  0  0  0  0  0  0  0  0
    9.8041  -14.1866   24.6270 O   0  0  0  0  0  0  0  0  0  0  0  0
    6.4492  -12.6632   26.7007 C   0  0  0  0  0  0  0  0  0  0  0  0
    7.7419  -13.3086   26.2262 C   0  0  2  0  0  0  0  0  0  0  0  0
    7.5323  -14.0751   25.0229 N   0  0  0  0  0  0  0  0  0  0  0  0
    8.2649  -14.1777   27.3258 C   0  0  0  0  0  0  0  0  0  0  0  0
    8.2032  -15.4265   27.1916 O   0  0  0  0  0  0  0  0  0  0  0  0
    8.8156  -13.6748   28.4887 O   0  0  0  0  0  0  0  0  0  0  0  0
  2  1  1  1
  2  4  1  0
  2  3  1  0
  4  5  2  0
  6  7  1  0
  6  4  1  0
  7  8  1  1
  9  8  1  0
 10  9  2  0
 11 10  1  0
 12 11  1  0
 12 13  2  0
 13  9  1  0
 14 15  2  0
 14  7  1  0
 17 16  1  1
 17 19  1  0
 17 18  1  0
 18 14  1  0
 19 21  1  0
 20 19  2  0
M  END
$$$$
