PFA.pdb
     RDKit          3D

 24 25  0  0  1  0  0  0  0  0999 V2000
   21.6471  -11.8475  -19.7965 N   0  0  0  0  0  0  0  0  0  0  0  0
   22.2914  -13.1294  -20.0389 C   0  0  0  0  0  0  0  0  0  0  0  0
   21.2656  -14.1710  -19.5680 C   0  0  0  0  0  0  0  0  0  0  0  0
   20.7474  -13.4170  -18.3348 C   0  0  0  0  0  0  0  0  0  0  0  0
   20.5176  -12.0545  -18.9652 C   0  0  1  0  0  0  0  0  0  0  0  0
   20.3396  -11.0582  -17.8979 C   0  0  0  0  0  0  0  0  0  0  0  0
   19.3640  -11.1289  -17.1096 O   0  0  0  0  0  0  0  0  0  0  0  0
   21.2576   -9.9969  -17.7297 N   0  0  0  0  0  0  0  0  0  0  0  0
   21.1120   -8.9260  -16.7832 C   0  0  1  0  0  0  0  0  0  0  0  0
   22.4017   -8.6390  -16.0996 C   0  0  0  0  0  0  0  0  0  0  0  0
   22.2710   -7.5254  -15.1293 C   0  0  0  0  0  0  0  0  0  0  0  0
   22.6680   -6.2604  -15.4942 C   0  0  0  0  0  0  0  0  0  0  0  0
   22.5698   -5.1817  -14.6274 C   0  0  0  0  0  0  0  0  0  0  0  0
   22.0565   -5.4112  -13.3711 C   0  0  0  0  0  0  0  0  0  0  0  0
   21.6480   -6.6595  -12.9658 C   0  0  0  0  0  0  0  0  0  0  0  0
   21.7665   -7.7114  -13.8724 C   0  0  0  0  0  0  0  0  0  0  0  0
   20.4716   -7.7273  -17.3690 C   0  0  0  0  0  0  0  0  0  0  0  0
   21.0158   -7.2505  -18.4078 O   0  0  0  0  0  0  0  0  0  0  0  0
   17.3429   -5.8214  -17.5223 C   0  0  0  0  0  0  0  0  0  0  0  0
   18.8532   -5.8805  -17.4906 C   0  0  2  0  0  0  0  0  0  0  0  0
   19.3319   -7.0970  -16.8676 N   0  0  0  0  0  0  0  0  0  0  0  0
   19.3743   -4.7297  -16.7520 C   0  0  0  0  0  0  0  0  0  0  0  0
   19.4320   -4.7687  -15.5009 O   0  0  0  0  0  0  0  0  0  0  0  0
   19.8129   -3.5783  -17.4200 O   0  0  0  0  0  0  0  0  0  0  0  0
  1  2  1  0
  3  2  1  0
  4  5  1  0
  4  3  1  0
  5  1  1  0
  6  8  1  0
  5  6  1  1
  7  6  2  0
  9  8  1  0
  9 10  1  6
 10 11  1  0
 11 12  2  0
 11 16  1  0
 12 13  1  0
 13 14  2  0
 15 14  1  0
 16 15  2  0
 17 18  2  0
 17  9  1  0
 20 19  1  1
 20 22  1  0
 20 21  1  0
 21 17  1  0
 22 24  1  0
 23 22  2  0
M  END
$$$$
