PFA.pdb
     RDKit          3D

 24 25  0  0  1  0  0  0  0  0999 V2000
   26.0569  -21.7403  -13.1243 N   0  0  0  0  0  0  0  0  0  0  0  0
   24.9642  -21.6425  -14.0802 C   0  0  0  0  0  0  0  0  0  0  0  0
   24.4057  -20.2255  -13.8827 C   0  0  0  0  0  0  0  0  0  0  0  0
   24.5388  -20.1553  -12.3546 C   0  0  0  0  0  0  0  0  0  0  0  0
   25.9654  -20.6571  -12.2144 C   0  0  1  0  0  0  0  0  0  0  0  0
   26.2136  -21.0043  -10.8068 C   0  0  0  0  0  0  0  0  0  0  0  0
   25.9496  -22.1532  -10.3726 O   0  0  0  0  0  0  0  0  0  0  0  0
   26.7537  -20.0585   -9.9061 N   0  0  0  0  0  0  0  0  0  0  0  0
   26.9079  -20.2639   -8.4926 C   0  0  1  0  0  0  0  0  0  0  0  0
   27.9314  -19.3438   -7.9282 C   0  0  0  0  0  0  0  0  0  0  0  0
   28.1201  -19.5610   -6.4735 C   0  0  0  0  0  0  0  0  0  0  0  0
   27.7051  -18.5957   -5.5863 C   0  0  0  0  0  0  0  0  0  0  0  0
   27.8574  -18.7448   -4.2155 C   0  0  0  0  0  0  0  0  0  0  0  0
   28.4438  -19.9021   -3.7558 C   0  0  0  0  0  0  0  0  0  0  0  0
   28.8727  -20.8918   -4.6078 C   0  0  0  0  0  0  0  0  0  0  0  0
   28.6979  -20.6958   -5.9766 C   0  0  0  0  0  0  0  0  0  0  0  0
   25.6190  -20.2349   -7.7660 C   0  0  0  0  0  0  0  0  0  0  0  0
   24.8821  -19.2257   -7.9690 O   0  0  0  0  0  0  0  0  0  0  0  0
   23.0313  -22.3637   -6.5010 C   0  0  0  0  0  0  0  0  0  0  0  0
   23.8482  -21.1076   -6.3005 C   0  0  2  0  0  0  0  0  0  0  0  0
   25.1662  -21.2221   -6.8898 N   0  0  0  0  0  0  0  0  0  0  0  0
   23.9878  -20.8357   -4.8694 C   0  0  0  0  0  0  0  0  0  0  0  0
   22.9646  -20.6644   -4.1668 O   0  0  0  0  0  0  0  0  0  0  0  0
   25.2505  -20.7630   -4.2657 O   0  0  0  0  0  0  0  0  0  0  0  0
  1  2  1  0
  3  2  1  0
  4  5  1  0
  4  3  1  0
  5  1  1  0
  6  8  1  0
  5  6  1  1
  7  6  2  0
  9  8  1  0
  9 10  1  1
 10 11  1  0
 11 12  2  0
 11 16  1  0
 12 13  1  0
 13 14  2  0
 15 14  1  0
 16 15  2  0
 17 18  2  0
 17  9  1  0
 20 19  1  1
 20 22  1  0
 20 21  1  0
 21 17  1  0
 22 24  1  0
 23 22  2  0
M  END
$$$$
