PFA.pdb
     RDKit          3D

 24 25  0  0  1  0  0  0  0  0999 V2000
   30.3880  -20.6953  -10.6094 N   0  0  0  0  0  0  0  0  0  0  0  0
   31.7495  -20.7650  -10.1007 C   0  0  0  0  0  0  0  0  0  0  0  0
   31.9996  -22.2634   -9.8742 C   0  0  0  0  0  0  0  0  0  0  0  0
   30.6073  -22.6335   -9.3426 C   0  0  0  0  0  0  0  0  0  0  0  0
   29.7571  -21.9469  -10.3973 C   0  0  1  0  0  0  0  0  0  0  0  0
   28.3691  -21.8705   -9.9166 C   0  0  0  0  0  0  0  0  0  0  0  0
   27.7011  -22.9151   -9.7143 O   0  0  0  0  0  0  0  0  0  0  0  0
   27.7497  -20.6244   -9.6700 N   0  0  0  0  0  0  0  0  0  0  0  0
   26.3942  -20.4535   -9.2256 C   0  0  1  0  0  0  0  0  0  0  0  0
   26.3021  -19.3885   -8.1912 C   0  0  0  0  0  0  0  0  0  0  0  0
   27.0775  -19.7369   -6.9761 C   0  0  0  0  0  0  0  0  0  0  0  0
   28.1083  -18.9201   -6.5745 C   0  0  0  0  0  0  0  0  0  0  0  0
   28.8677  -19.1974   -5.4472 C   0  0  0  0  0  0  0  0  0  0  0  0
   28.5599  -20.3293   -4.7270 C   0  0  0  0  0  0  0  0  0  0  0  0
   27.5381  -21.1726   -5.0933 C   0  0  0  0  0  0  0  0  0  0  0  0
   26.8038  -20.8515   -6.2336 C   0  0  0  0  0  0  0  0  0  0  0  0
   25.4427  -20.2770  -10.3452 C   0  0  0  0  0  0  0  0  0  0  0  0
   25.6836  -19.3234  -11.1422 O   0  0  0  0  0  0  0  0  0  0  0  0
   23.1653  -22.0907  -12.4887 C   0  0  0  0  0  0  0  0  0  0  0  0
   23.4931  -20.8176  -11.7422 C   0  0  2  0  0  0  0  0  0  0  0  0
   24.3201  -21.0717  -10.5807 N   0  0  0  0  0  0  0  0  0  0  0  0
   22.2545  -20.1674  -11.3124 C   0  0  0  0  0  0  0  0  0  0  0  0
   22.0440  -19.9766  -10.0921 O   0  0  0  0  0  0  0  0  0  0  0  0
   21.2938  -19.7512  -12.2441 O   0  0  0  0  0  0  0  0  0  0  0  0
  1  2  1  0
  3  2  1  0
  4  5  1  0
  4  3  1  0
  5  1  1  0
  6  8  1  0
  5  6  1  1
  7  6  2  0
  9  8  1  0
  9 10  1  1
 10 11  1  0
 11 12  2  0
 11 16  1  0
 12 13  1  0
 13 14  2  0
 15 14  1  0
 16 15  2  0
 17 18  2  0
 17  9  1  0
 20 19  1  1
 20 22  1  0
 20 21  1  0
 21 17  1  0
 22 24  1  0
 23 22  2  0
M  END
$$$$
