PFA.pdb
     RDKit          3D

 24 25  0  0  1  0  0  0  0  0999 V2000
   27.3848  -18.7532  -13.9403 N   0  0  0  0  0  0  0  0  0  0  0  0
   28.8209  -18.5420  -13.8380 C   0  0  0  0  0  0  0  0  0  0  0  0
   29.3911  -19.1393  -15.1330 C   0  0  0  0  0  0  0  0  0  0  0  0
   28.4638  -20.3592  -15.2311 C   0  0  0  0  0  0  0  0  0  0  0  0
   27.1322  -19.6687  -14.9928 C   0  0  1  0  0  0  0  0  0  0  0  0
   26.1117  -20.6868  -14.7003 C   0  0  0  0  0  0  0  0  0  0  0  0
   25.7806  -21.5322  -15.5686 O   0  0  0  0  0  0  0  0  0  0  0  0
   25.4767  -20.7424  -13.4389 N   0  0  0  0  0  0  0  0  0  0  0  0
   24.4400  -21.6701  -13.0804 C   0  0  1  0  0  0  0  0  0  0  0  0
   24.7759  -22.3845  -11.8196 C   0  0  0  0  0  0  0  0  0  0  0  0
   25.4392  -21.4879  -10.8424 C   0  0  0  0  0  0  0  0  0  0  0  0
   24.6712  -20.6932  -10.0241 C   0  0  0  0  0  0  0  0  0  0  0  0
   25.2374  -19.8350   -9.0928 C   0  0  0  0  0  0  0  0  0  0  0  0
   26.6105  -19.7967   -9.0052 C   0  0  0  0  0  0  0  0  0  0  0  0
   27.4152  -20.5740   -9.8038 C   0  0  0  0  0  0  0  0  0  0  0  0
   26.7995  -21.4203  -10.7242 C   0  0  0  0  0  0  0  0  0  0  0  0
   23.0959  -21.0509  -13.0713 C   0  0  0  0  0  0  0  0  0  0  0  0
   22.9487  -20.0383  -12.3259 O   0  0  0  0  0  0  0  0  0  0  0  0
   20.1144  -20.6557  -15.1359 C   0  0  0  0  0  0  0  0  0  0  0  0
   20.7582  -20.7505  -13.7714 C   0  0  2  0  0  0  0  0  0  0  0  0
   21.9997  -21.4951  -13.8120 N   0  0  0  0  0  0  0  0  0  0  0  0
   19.8398  -21.4054  -12.8393 C   0  0  0  0  0  0  0  0  0  0  0  0
   18.8077  -20.8051  -12.4591 O   0  0  0  0  0  0  0  0  0  0  0  0
   20.0929  -22.6982  -12.3610 O   0  0  0  0  0  0  0  0  0  0  0  0
  1  2  1  0
  3  2  1  0
  4  5  1  0
  4  3  1  0
  5  1  1  0
  6  8  1  0
  5  6  1  1
  7  6  2  0
  9  8  1  0
  9 10  1  1
 10 11  1  0
 11 12  2  0
 11 16  1  0
 12 13  1  0
 13 14  2  0
 15 14  1  0
 16 15  2  0
 17 18  2  0
 17  9  1  0
 20 19  1  6
 20 22  1  0
 20 21  1  0
 21 17  1  0
 22 24  1  0
 23 22  2  0
M  END
$$$$
