PFA.pdb
     RDKit          3D

 24 25  0  0  1  0  0  0  0  0999 V2000
   43.2574  -11.2936   -7.3382 N   0  0  0  0  0  0  0  0  0  0  0  0
   44.6367  -11.0518   -6.9426 C   0  0  0  0  0  0  0  0  0  0  0  0
   44.5623   -9.8315   -6.0129 C   0  0  0  0  0  0  0  0  0  0  0  0
   43.4841   -9.0482   -6.7757 C   0  0  0  0  0  0  0  0  0  0  0  0
   42.4762  -10.1654   -6.9822 C   0  0  1  0  0  0  0  0  0  0  0  0
   41.4957   -9.7433   -7.9940 C   0  0  0  0  0  0  0  0  0  0  0  0
   41.6583  -10.0322   -9.2057 O   0  0  0  0  0  0  0  0  0  0  0  0
   40.3471   -9.0031   -7.6330 N   0  0  0  0  0  0  0  0  0  0  0  0
   39.2689   -8.6721   -8.5229 C   0  0  1  0  0  0  0  0  0  0  0  0
   37.9510   -8.9365   -7.8859 C   0  0  0  0  0  0  0  0  0  0  0  0
   37.5731  -10.3671   -7.9831 C   0  0  0  0  0  0  0  0  0  0  0  0
   37.2472  -10.8986   -9.2089 C   0  0  0  0  0  0  0  0  0  0  0  0
   36.8853  -12.2294   -9.3589 C   0  0  0  0  0  0  0  0  0  0  0  0
   36.8595  -13.0196   -8.2323 C   0  0  0  0  0  0  0  0  0  0  0  0
   37.1778  -12.5288   -6.9885 C   0  0  0  0  0  0  0  0  0  0  0  0
   37.5351  -11.1853   -6.8887 C   0  0  0  0  0  0  0  0  0  0  0  0
   39.3916   -7.3104   -9.0892 C   0  0  0  0  0  0  0  0  0  0  0  0
   39.6253   -6.3782   -8.2651 O   0  0  0  0  0  0  0  0  0  0  0  0
   39.6513   -5.5430  -12.3862 C   0  0  0  0  0  0  0  0  0  0  0  0
   39.5419   -5.6337  -10.8811 C   0  0  2  0  0  0  0  0  0  0  0  0
   39.2705   -6.9866  -10.4412 N   0  0  0  0  0  0  0  0  0  0  0  0
   38.4690   -4.7558  -10.4128 C   0  0  0  0  0  0  0  0  0  0  0  0
   38.6925   -3.5336  -10.2505 O   0  0  0  0  0  0  0  0  0  0  0  0
   37.1890   -5.2577  -10.1409 O   0  0  0  0  0  0  0  0  0  0  0  0
  1  2  1  0
  3  2  1  0
  4  5  1  0
  4  3  1  0
  5  1  1  0
  6  8  1  0
  5  6  1  6
  7  6  2  0
  9  8  1  0
  9 10  1  1
 10 11  1  0
 11 12  2  0
 11 16  1  0
 12 13  1  0
 13 14  2  0
 15 14  1  0
 16 15  2  0
 17 18  2  0
 17  9  1  0
 20 19  1  6
 20 22  1  0
 20 21  1  0
 21 17  1  0
 22 24  1  0
 23 22  2  0
M  END
$$$$
