PFA.pdb
     RDKit          3D

 24 25  0  0  1  0  0  0  0  0999 V2000
   26.4005  -21.3718  -13.1688 N   0  0  0  0  0  0  0  0  0  0  0  0
   25.3876  -21.5834  -14.1918 C   0  0  0  0  0  0  0  0  0  0  0  0
   24.3434  -20.4873  -13.9324 C   0  0  0  0  0  0  0  0  0  0  0  0
   24.3789  -20.5186  -12.3976 C   0  0  0  0  0  0  0  0  0  0  0  0
   25.8832  -20.4850  -12.1912 C   0  0  1  0  0  0  0  0  0  0  0  0
   26.1827  -20.8511  -10.7984 C   0  0  0  0  0  0  0  0  0  0  0  0
   26.3018  -22.0557  -10.4625 O   0  0  0  0  0  0  0  0  0  0  0  0
   26.3439  -19.8616   -9.8023 N   0  0  0  0  0  0  0  0  0  0  0  0
   26.6630  -20.1243   -8.4264 C   0  0  1  0  0  0  0  0  0  0  0  0
   27.4314  -18.9976   -7.8323 C   0  0  0  0  0  0  0  0  0  0  0  0
   27.9592  -19.3424   -6.4902 C   0  0  0  0  0  0  0  0  0  0  0  0
   28.9432  -20.2961   -6.3751 C   0  0  0  0  0  0  0  0  0  0  0  0
   29.4731  -20.6592   -5.1455 C   0  0  0  0  0  0  0  0  0  0  0  0
   28.9822  -20.0315   -4.0233 C   0  0  0  0  0  0  0  0  0  0  0  0
   27.9993  -19.0732   -4.0934 C   0  0  0  0  0  0  0  0  0  0  0  0
   27.4987  -18.7425   -5.3514 C   0  0  0  0  0  0  0  0  0  0  0  0
   25.4804  -20.5208   -7.6301 C   0  0  0  0  0  0  0  0  0  0  0  0
   24.4337  -19.8282   -7.7956 O   0  0  0  0  0  0  0  0  0  0  0  0
   24.0963  -23.3725   -5.7198 C   0  0  0  0  0  0  0  0  0  0  0  0
   24.1955  -21.9011   -6.0525 C   0  0  2  0  0  0  0  0  0  0  0  0
   25.4372  -21.5838   -6.7269 N   0  0  0  0  0  0  0  0  0  0  0  0
   24.1057  -21.1124   -4.8232 C   0  0  0  0  0  0  0  0  0  0  0  0
   25.1065  -20.4764   -4.4185 O   0  0  0  0  0  0  0  0  0  0  0  0
   22.9155  -21.0538   -4.0855 O   0  0  0  0  0  0  0  0  0  0  0  0
  1  2  1  0
  3  2  1  0
  4  5  1  0
  4  3  1  0
  5  1  1  0
  6  8  1  0
  5  6  1  1
  7  6  2  0
  9  8  1  0
  9 10  1  1
 10 11  1  0
 11 12  2  0
 11 16  1  0
 12 13  1  0
 13 14  2  0
 15 14  1  0
 16 15  2  0
 17 18  2  0
 17  9  1  0
 20 19  1  1
 20 22  1  0
 20 21  1  0
 21 17  1  0
 22 24  1  0
 23 22  2  0
M  END
$$$$
