PFA.pdb
     RDKit          3D

 24 25  0  0  1  0  0  0  0  0999 V2000
   26.3194  -19.3395  -12.7558 N   0  0  0  0  0  0  0  0  0  0  0  0
   27.1606  -18.9519  -13.8781 C   0  0  0  0  0  0  0  0  0  0  0  0
   27.6552  -20.2819  -14.4659 C   0  0  0  0  0  0  0  0  0  0  0  0
   27.8645  -21.0341  -13.1437 C   0  0  0  0  0  0  0  0  0  0  0  0
   26.5420  -20.7102  -12.4709 C   0  0  1  0  0  0  0  0  0  0  0  0
   26.6398  -21.0407  -11.0410 C   0  0  0  0  0  0  0  0  0  0  0  0
   26.7151  -22.2359  -10.6618 O   0  0  0  0  0  0  0  0  0  0  0  0
   26.6516  -20.0265  -10.0568 N   0  0  0  0  0  0  0  0  0  0  0  0
   26.7643  -20.2542   -8.6428 C   0  0  1  0  0  0  0  0  0  0  0  0
   27.5981  -19.2045   -7.9981 C   0  0  0  0  0  0  0  0  0  0  0  0
   27.8944  -19.5334   -6.5828 C   0  0  0  0  0  0  0  0  0  0  0  0
   28.9233  -20.3978   -6.2905 C   0  0  0  0  0  0  0  0  0  0  0  0
   29.2443  -20.7418   -4.9855 C   0  0  0  0  0  0  0  0  0  0  0  0
   28.4957  -20.1881   -3.9719 C   0  0  0  0  0  0  0  0  0  0  0  0
   27.4591  -19.3201   -4.2199 C   0  0  0  0  0  0  0  0  0  0  0  0
   27.1750  -19.0050   -5.5474 C   0  0  0  0  0  0  0  0  0  0  0  0
   25.4519  -20.4540   -7.9888 C   0  0  0  0  0  0  0  0  0  0  0  0
   24.5534  -19.6046   -8.2608 O   0  0  0  0  0  0  0  0  0  0  0  0
   23.3526  -23.0396   -6.4588 C   0  0  0  0  0  0  0  0  0  0  0  0
   23.7982  -21.5997   -6.5754 C   0  0  2  0  0  0  0  0  0  0  0  0
   25.1398  -21.4924   -7.1102 N   0  0  0  0  0  0  0  0  0  0  0  0
   23.7583  -20.9649   -5.2575 C   0  0  0  0  0  0  0  0  0  0  0  0
   22.6725  -20.8897   -4.6367 O   0  0  0  0  0  0  0  0  0  0  0  0
   24.9171  -20.4367   -4.6724 O   0  0  0  0  0  0  0  0  0  0  0  0
  1  2  1  0
  3  2  1  0
  4  5  1  0
  4  3  1  0
  5  1  1  0
  6  8  1  0
  5  6  1  1
  7  6  2  0
  9  8  1  0
  9 10  1  1
 10 11  1  0
 11 12  2  0
 11 16  1  0
 12 13  1  0
 13 14  2  0
 15 14  1  0
 16 15  2  0
 17 18  2  0
 17  9  1  0
 20 19  1  1
 20 22  1  0
 20 21  1  0
 21 17  1  0
 22 24  1  0
 23 22  2  0
M  END
$$$$
