PFA.pdb
     RDKit          3D

 24 25  0  0  1  0  0  0  0  0999 V2000
   27.4354  -20.0630  -15.4632 N   0  0  0  0  0  0  0  0  0  0  0  0
   28.7786  -19.7417  -15.9214 C   0  0  0  0  0  0  0  0  0  0  0  0
   29.5004  -21.0962  -15.9780 C   0  0  0  0  0  0  0  0  0  0  0  0
   28.8895  -21.7159  -14.7128 C   0  0  0  0  0  0  0  0  0  0  0  0
   27.4279  -21.3912  -14.9678 C   0  0  1  0  0  0  0  0  0  0  0  0
   26.6707  -21.5864  -13.7221 C   0  0  0  0  0  0  0  0  0  0  0  0
   26.5759  -22.7251  -13.1999 O   0  0  0  0  0  0  0  0  0  0  0  0
   26.0304  -20.5025  -13.0797 N   0  0  0  0  0  0  0  0  0  0  0  0
   25.3163  -20.5892  -11.8362 C   0  0  1  0  0  0  0  0  0  0  0  0
   25.7341  -19.5076  -10.9044 C   0  0  0  0  0  0  0  0  0  0  0  0
   26.5925  -20.0270   -9.8125 C   0  0  0  0  0  0  0  0  0  0  0  0
   27.7729  -20.6601  -10.1233 C   0  0  0  0  0  0  0  0  0  0  0  0
   28.6142  -21.1664   -9.1434 C   0  0  0  0  0  0  0  0  0  0  0  0
   28.2332  -21.0176   -7.8292 C   0  0  0  0  0  0  0  0  0  0  0  0
   27.0620  -20.3916   -7.4747 C   0  0  0  0  0  0  0  0  0  0  0  0
   26.2501  -19.8996   -8.4951 C   0  0  0  0  0  0  0  0  0  0  0  0
   23.8509  -20.6783  -12.0226 C   0  0  0  0  0  0  0  0  0  0  0  0
   23.3776  -20.0945  -13.0413 O   0  0  0  0  0  0  0  0  0  0  0  0
   20.8279  -22.4190  -10.6475 C   0  0  0  0  0  0  0  0  0  0  0  0
   21.5628  -21.4155  -11.5068 C   0  0  2  0  0  0  0  0  0  0  0  0
   22.9701  -21.3475  -11.1718 N   0  0  0  0  0  0  0  0  0  0  0  0
   20.9668  -20.0904  -11.3331 C   0  0  0  0  0  0  0  0  0  0  0  0
   21.6193  -19.1856  -10.7624 O   0  0  0  0  0  0  0  0  0  0  0  0
   19.6735  -19.8115  -11.7954 O   0  0  0  0  0  0  0  0  0  0  0  0
  1  2  1  0
  3  2  1  0
  4  5  1  0
  4  3  1  0
  5  1  1  0
  6  8  1  0
  5  6  1  1
  7  6  2  0
  9  8  1  0
  9 10  1  1
 10 11  1  0
 11 12  2  0
 11 16  1  0
 12 13  1  0
 13 14  2  0
 15 14  1  0
 16 15  2  0
 17 18  2  0
 17  9  1  0
 20 19  1  1
 20 22  1  0
 20 21  1  0
 21 17  1  0
 22 24  1  0
 23 22  2  0
M  END
$$$$
