PFA.pdb
     RDKit          3D

 24 25  0  0  1  0  0  0  0  0999 V2000
   21.3485   -8.8395  -20.5456 N   0  0  0  0  0  0  0  0  0  0  0  0
   21.2861   -9.8913  -21.5492 C   0  0  0  0  0  0  0  0  0  0  0  0
   19.8143   -9.9184  -21.9874 C   0  0  0  0  0  0  0  0  0  0  0  0
   19.1781   -9.6728  -20.6117 C   0  0  0  0  0  0  0  0  0  0  0  0
   20.0278   -8.4976  -20.1603 C   0  0  1  0  0  0  0  0  0  0  0  0
   19.8338   -8.2944  -18.7165 C   0  0  0  0  0  0  0  0  0  0  0  0
   18.6890   -8.0783  -18.2466 O   0  0  0  0  0  0  0  0  0  0  0  0
   20.9258   -8.3360  -17.8204 N   0  0  0  0  0  0  0  0  0  0  0  0
   20.8258   -8.1889  -16.3948 C   0  0  1  0  0  0  0  0  0  0  0  0
   21.3961   -9.3712  -15.6950 C   0  0  0  0  0  0  0  0  0  0  0  0
   20.6238  -10.6036  -15.9841 C   0  0  0  0  0  0  0  0  0  0  0  0
   21.1512  -11.5487  -16.8325 C   0  0  0  0  0  0  0  0  0  0  0  0
   20.4730  -12.7193  -17.1395 C   0  0  0  0  0  0  0  0  0  0  0  0
   19.2379  -12.9164  -16.5650 C   0  0  0  0  0  0  0  0  0  0  0  0
   18.6743  -11.9977  -15.7119 C   0  0  0  0  0  0  0  0  0  0  0  0
   19.3943  -10.8371  -15.4342 C   0  0  0  0  0  0  0  0  0  0  0  0
   21.3649   -6.8975  -15.9134 C   0  0  0  0  0  0  0  0  0  0  0  0
   22.5107   -6.5721  -16.3423 O   0  0  0  0  0  0  0  0  0  0  0  0
   20.2723   -3.6623  -14.5725 C   0  0  0  0  0  0  0  0  0  0  0  0
   21.3120   -4.7501  -14.7173 C   0  0  2  0  0  0  0  0  0  0  0  0
   20.7127   -6.0292  -15.0370 N   0  0  0  0  0  0  0  0  0  0  0  0
   22.0679   -4.8762  -13.4706 C   0  0  0  0  0  0  0  0  0  0  0  0
   21.9245   -5.8965  -12.7576 O   0  0  0  0  0  0  0  0  0  0  0  0
   22.9542   -3.8728  -13.0562 O   0  0  0  0  0  0  0  0  0  0  0  0
  1  2  1  0
  3  2  1  0
  4  5  1  0
  4  3  1  0
  5  1  1  0
  6  8  1  0
  5  6  1  1
  7  6  2  0
  9  8  1  0
  9 10  1  1
 10 11  1  0
 11 12  2  0
 11 16  1  0
 12 13  1  0
 13 14  2  0
 15 14  1  0
 16 15  2  0
 17 18  2  0
 17  9  1  0
 20 19  1  1
 20 22  1  0
 20 21  1  0
 21 17  1  0
 22 24  1  0
 23 22  2  0
M  END
$$$$
