PFA.pdb
     RDKit          3D

 24 25  0  0  1  0  0  0  0  0999 V2000
   25.2859  -12.6222  -17.2125 N   0  0  0  0  0  0  0  0  0  0  0  0
   26.6903  -12.9022  -16.9549 C   0  0  0  0  0  0  0  0  0  0  0  0
   26.9203  -12.4236  -15.5137 C   0  0  0  0  0  0  0  0  0  0  0  0
   26.0417  -11.1653  -15.5647 C   0  0  0  0  0  0  0  0  0  0  0  0
   24.7969  -11.7666  -16.1935 C   0  0  1  0  0  0  0  0  0  0  0  0
   23.9242  -10.6785  -16.6603 C   0  0  0  0  0  0  0  0  0  0  0  0
   24.1337  -10.1157  -17.7637 O   0  0  0  0  0  0  0  0  0  0  0  0
   22.8293  -10.2368  -15.8834 N   0  0  0  0  0  0  0  0  0  0  0  0
   21.8740   -9.2467  -16.2968 C   0  0  1  0  0  0  0  0  0  0  0  0
   20.4913   -9.7945  -16.2680 C   0  0  0  0  0  0  0  0  0  0  0  0
   19.5049   -8.8187  -16.7911 C   0  0  0  0  0  0  0  0  0  0  0  0
   19.5422   -8.4657  -18.1197 C   0  0  0  0  0  0  0  0  0  0  0  0
   18.6454   -7.5575  -18.6631 C   0  0  0  0  0  0  0  0  0  0  0  0
   17.7004   -7.0081  -17.8267 C   0  0  0  0  0  0  0  0  0  0  0  0
   17.6280   -7.3332  -16.4931 C   0  0  0  0  0  0  0  0  0  0  0  0
   18.5509   -8.2505  -15.9938 C   0  0  0  0  0  0  0  0  0  0  0  0
   22.0211   -7.9687  -15.5652 C   0  0  0  0  0  0  0  0  0  0  0  0
   22.0587   -8.0454  -14.3021 O   0  0  0  0  0  0  0  0  0  0  0  0
   22.9345   -4.3964  -16.1242 C   0  0  0  0  0  0  0  0  0  0  0  0
   22.3559   -5.5445  -15.3288 C   0  0  2  0  0  0  0  0  0  0  0  0
   22.1196   -6.7088  -16.1571 N   0  0  0  0  0  0  0  0  0  0  0  0
   21.0928   -5.1306  -14.7167 C   0  0  0  0  0  0  0  0  0  0  0  0
   20.0078   -5.4354  -15.2643 O   0  0  0  0  0  0  0  0  0  0  0  0
   21.0725   -4.3963  -13.5232 O   0  0  0  0  0  0  0  0  0  0  0  0
  1  2  1  0
  3  2  1  0
  4  5  1  0
  4  3  1  0
  5  1  1  0
  6  8  1  0
  5  6  1  6
  7  6  2  0
  9  8  1  0
  9 10  1  1
 10 11  1  0
 11 12  2  0
 11 16  1  0
 12 13  1  0
 13 14  2  0
 15 14  1  0
 16 15  2  0
 17 18  2  0
 17  9  1  0
 20 19  1  6
 20 22  1  0
 20 21  1  0
 21 17  1  0
 22 24  1  0
 23 22  2  0
M  END
$$$$
