PFA.pdb
     RDKit          3D

 24 25  0  0  1  0  0  0  0  0999 V2000
   25.1478  -32.7897   -7.9082 N   0  0  0  0  0  0  0  0  0  0  0  0
   25.7177  -32.1991   -9.1097 C   0  0  0  0  0  0  0  0  0  0  0  0
   26.7391  -33.2356   -9.6009 C   0  0  0  0  0  0  0  0  0  0  0  0
   27.2755  -33.6721   -8.2299 C   0  0  0  0  0  0  0  0  0  0  0  0
   25.9543  -33.8861   -7.5120 C   0  0  1  0  0  0  0  0  0  0  0  0
   26.2064  -33.9828   -6.0662 C   0  0  0  0  0  0  0  0  0  0  0  0
   26.8993  -34.9194   -5.5963 O   0  0  0  0  0  0  0  0  0  0  0  0
   25.6779  -33.0283   -5.1678 N   0  0  0  0  0  0  0  0  0  0  0  0
   25.8594  -33.0514   -3.7428 C   0  0  1  0  0  0  0  0  0  0  0  0
   26.2067  -31.7000   -3.2272 C   0  0  0  0  0  0  0  0  0  0  0  0
   26.1205  -31.6398   -1.7480 C   0  0  0  0  0  0  0  0  0  0  0  0
   27.0465  -32.3157   -0.9887 C   0  0  0  0  0  0  0  0  0  0  0  0
   27.0138  -32.2956    0.3981 C   0  0  0  0  0  0  0  0  0  0  0  0
   26.0151  -31.5703    1.0072 C   0  0  0  0  0  0  0  0  0  0  0  0
   25.0698  -30.8804    0.2861 C   0  0  0  0  0  0  0  0  0  0  0  0
   25.1445  -30.9311   -1.1047 C   0  0  0  0  0  0  0  0  0  0  0  0
   24.7266  -33.6847   -3.0317 C   0  0  0  0  0  0  0  0  0  0  0  0
   23.5852  -33.1721   -3.2242 O   0  0  0  0  0  0  0  0  0  0  0  0
   23.3529  -36.7195   -1.8536 C   0  0  0  0  0  0  0  0  0  0  0  0
   23.6418  -35.2772   -1.5046 C   0  0  2  0  0  0  0  0  0  0  0  0
   24.8249  -34.7859   -2.1801 N   0  0  0  0  0  0  0  0  0  0  0  0
   23.8307  -35.1499   -0.0591 C   0  0  0  0  0  0  0  0  0  0  0  0
   24.9658  -34.8798    0.3977 O   0  0  0  0  0  0  0  0  0  0  0  0
   22.7612  -35.3249    0.8295 O   0  0  0  0  0  0  0  0  0  0  0  0
  1  2  1  0
  3  2  1  0
  4  5  1  0
  4  3  1  0
  5  1  1  0
  6  8  1  0
  5  6  1  1
  7  6  2  0
  9  8  1  0
  9 10  1  1
 10 11  1  0
 11 12  2  0
 11 16  1  0
 12 13  1  0
 13 14  2  0
 15 14  1  0
 16 15  2  0
 17 18  2  0
 17  9  1  0
 20 19  1  1
 20 22  1  0
 20 21  1  0
 21 17  1  0
 22 24  1  0
 23 22  2  0
M  END
$$$$
