PFA.pdb
     RDKit          3D

 24 25  0  0  1  0  0  0  0  0999 V2000
   26.1910  -19.5451  -12.8495 N   0  0  0  0  0  0  0  0  0  0  0  0
   27.0577  -19.2957  -13.9915 C   0  0  0  0  0  0  0  0  0  0  0  0
   27.3995  -20.6937  -14.5280 C   0  0  0  0  0  0  0  0  0  0  0  0
   27.5397  -21.4114  -13.1778 C   0  0  0  0  0  0  0  0  0  0  0  0
   26.2668  -20.9196  -12.5109 C   0  0  1  0  0  0  0  0  0  0  0  0
   26.3429  -21.2020  -11.0694 C   0  0  0  0  0  0  0  0  0  0  0  0
   26.3182  -22.3839  -10.6444 O   0  0  0  0  0  0  0  0  0  0  0  0
   26.4452  -20.1555  -10.1251 N   0  0  0  0  0  0  0  0  0  0  0  0
   26.5935  -20.3383   -8.7079 C   0  0  1  0  0  0  0  0  0  0  0  0
   27.4469  -19.2719   -8.1186 C   0  0  0  0  0  0  0  0  0  0  0  0
   27.7785  -19.5566   -6.7017 C   0  0  0  0  0  0  0  0  0  0  0  0
   28.6323  -20.5922   -6.4020 C   0  0  0  0  0  0  0  0  0  0  0  0
   28.9767  -20.9045   -5.0949 C   0  0  0  0  0  0  0  0  0  0  0  0
   28.4343  -20.1400   -4.0870 C   0  0  0  0  0  0  0  0  0  0  0  0
   27.5771  -19.0963   -4.3425 C   0  0  0  0  0  0  0  0  0  0  0  0
   27.2612  -18.8215   -5.6718 C   0  0  0  0  0  0  0  0  0  0  0  0
   25.2976  -20.5119   -8.0145 C   0  0  0  0  0  0  0  0  0  0  0  0
   24.3925  -19.6730   -8.2967 O   0  0  0  0  0  0  0  0  0  0  0  0
   23.2659  -23.0294   -6.2606 C   0  0  0  0  0  0  0  0  0  0  0  0
   23.6812  -21.5980   -6.5137 C   0  0  2  0  0  0  0  0  0  0  0  0
   25.0076  -21.5156   -7.0892 N   0  0  0  0  0  0  0  0  0  0  0  0
   23.6601  -20.8507   -5.2557 C   0  0  0  0  0  0  0  0  0  0  0  0
   24.7303  -20.4065   -4.7789 O   0  0  0  0  0  0  0  0  0  0  0  0
   22.4597  -20.6205   -4.5699 O   0  0  0  0  0  0  0  0  0  0  0  0
  1  2  1  0
  3  2  1  0
  4  5  1  0
  4  3  1  0
  5  1  1  0
  6  8  1  0
  5  6  1  1
  7  6  2  0
  9  8  1  0
  9 10  1  1
 10 11  1  0
 11 12  2  0
 11 16  1  0
 12 13  1  0
 13 14  2  0
 15 14  1  0
 16 15  2  0
 17 18  2  0
 17  9  1  0
 20 19  1  1
 20 22  1  0
 20 21  1  0
 21 17  1  0
 22 24  1  0
 23 22  2  0
M  END
$$$$
