PFA.pdb
     RDKit          3D

 24 25  0  0  1  0  0  0  0  0999 V2000
   30.0402  -20.2998  -11.6861 N   0  0  0  0  0  0  0  0  0  0  0  0
   31.4800  -20.2389  -11.4848 C   0  0  0  0  0  0  0  0  0  0  0  0
   31.9011  -21.7005  -11.2721 C   0  0  0  0  0  0  0  0  0  0  0  0
   30.6928  -22.1510  -10.4385 C   0  0  0  0  0  0  0  0  0  0  0  0
   29.5799  -21.5847  -11.3030 C   0  0  1  0  0  0  0  0  0  0  0  0
   28.3263  -21.5927  -10.5338 C   0  0  0  0  0  0  0  0  0  0  0  0
   27.8248  -22.6730  -10.1344 O   0  0  0  0  0  0  0  0  0  0  0  0
   27.6527  -20.3896  -10.2236 N   0  0  0  0  0  0  0  0  0  0  0  0
   26.4272  -20.3018   -9.4790 C   0  0  1  0  0  0  0  0  0  0  0  0
   26.4977  -19.2194   -8.4610 C   0  0  0  0  0  0  0  0  0  0  0  0
   27.0579  -19.7096   -7.1786 C   0  0  0  0  0  0  0  0  0  0  0  0
   28.3101  -19.2981   -6.7864 C   0  0  0  0  0  0  0  0  0  0  0  0
   28.8841  -19.7253   -5.5980 C   0  0  0  0  0  0  0  0  0  0  0  0
   28.1583  -20.5860   -4.8062 C   0  0  0  0  0  0  0  0  0  0  0  0
   26.9038  -21.0219   -5.1605 C   0  0  0  0  0  0  0  0  0  0  0  0
   26.3696  -20.5648   -6.3639 C   0  0  0  0  0  0  0  0  0  0  0  0
   25.2331  -20.2207  -10.3494 C   0  0  0  0  0  0  0  0  0  0  0  0
   25.1980  -19.2545  -11.1666 O   0  0  0  0  0  0  0  0  0  0  0  0
   22.9163  -22.2309  -12.1272 C   0  0  0  0  0  0  0  0  0  0  0  0
   23.0968  -20.9759  -11.3039 C   0  0  2  0  0  0  0  0  0  0  0  0
   24.1631  -21.1165  -10.3340 N   0  0  0  0  0  0  0  0  0  0  0  0
   21.8512  -20.6659  -10.6014 C   0  0  0  0  0  0  0  0  0  0  0  0
   21.8408  -20.6117   -9.3496 O   0  0  0  0  0  0  0  0  0  0  0  0
   20.6629  -20.4267  -11.3049 O   0  0  0  0  0  0  0  0  0  0  0  0
  1  2  1  0
  3  2  1  0
  4  5  1  0
  4  3  1  0
  5  1  1  0
  6  8  1  0
  5  6  1  1
  7  6  2  0
  9  8  1  0
  9 10  1  6
 10 11  1  0
 11 12  2  0
 11 16  1  0
 12 13  1  0
 13 14  2  0
 15 14  1  0
 16 15  2  0
 17 18  2  0
 17  9  1  0
 20 19  1  1
 20 22  1  0
 20 21  1  0
 21 17  1  0
 22 24  1  0
 23 22  2  0
M  END
$$$$
