PFA.pdb
     RDKit          3D

 24 25  0  0  1  0  0  0  0  0999 V2000
   26.1583  -19.4930  -12.7971 N   0  0  0  0  0  0  0  0  0  0  0  0
   26.9081  -18.9950  -13.9404 C   0  0  0  0  0  0  0  0  0  0  0  0
   27.5850  -20.2416  -14.5295 C   0  0  0  0  0  0  0  0  0  0  0  0
   27.9325  -20.9400  -13.2069 C   0  0  0  0  0  0  0  0  0  0  0  0
   26.5905  -20.8117  -12.5074 C   0  0  1  0  0  0  0  0  0  0  0  0
   26.7665  -21.1089  -11.0777 C   0  0  0  0  0  0  0  0  0  0  0  0
   27.0010  -22.2804  -10.6894 O   0  0  0  0  0  0  0  0  0  0  0  0
   26.6768  -20.0887  -10.1039 N   0  0  0  0  0  0  0  0  0  0  0  0
   26.8794  -20.2775   -8.6941 C   0  0  1  0  0  0  0  0  0  0  0  0
   27.6675  -19.1573   -8.1136 C   0  0  0  0  0  0  0  0  0  0  0  0
   28.0433  -19.4252   -6.7044 C   0  0  0  0  0  0  0  0  0  0  0  0
   27.4021  -18.7487   -5.6933 C   0  0  0  0  0  0  0  0  0  0  0  0
   27.7134  -18.9581   -4.3577 C   0  0  0  0  0  0  0  0  0  0  0  0
   28.6964  -19.8752   -4.0628 C   0  0  0  0  0  0  0  0  0  0  0  0
   29.3620  -20.5729   -5.0424 C   0  0  0  0  0  0  0  0  0  0  0  0
   29.0139  -20.3277   -6.3695 C   0  0  0  0  0  0  0  0  0  0  0  0
   25.6209  -20.5565   -7.9673 C   0  0  0  0  0  0  0  0  0  0  0  0
   24.6278  -19.8295   -8.2637 O   0  0  0  0  0  0  0  0  0  0  0  0
   24.0749  -23.1261   -5.7272 C   0  0  0  0  0  0  0  0  0  0  0  0
   24.1352  -21.8029   -6.4559 C   0  0  2  0  0  0  0  0  0  0  0  0
   25.4537  -21.5453   -6.9968 N   0  0  0  0  0  0  0  0  0  0  0  0
   23.7762  -20.7204   -5.5391 C   0  0  0  0  0  0  0  0  0  0  0  0
   24.6672  -19.9563   -5.1007 O   0  0  0  0  0  0  0  0  0  0  0  0
   22.4479  -20.5200   -5.1396 O   0  0  0  0  0  0  0  0  0  0  0  0
  1  2  1  0
  3  2  1  0
  4  5  1  0
  4  3  1  0
  5  1  1  0
  6  8  1  0
  5  6  1  1
  7  6  2  0
  9  8  1  0
  9 10  1  1
 10 11  1  0
 11 12  2  0
 11 16  1  0
 12 13  1  0
 13 14  2  0
 15 14  1  0
 16 15  2  0
 17 18  2  0
 17  9  1  0
 20 19  1  1
 20 22  1  0
 20 21  1  0
 21 17  1  0
 22 24  1  0
 23 22  2  0
M  END
$$$$
