PFA.pdb
     RDKit          3D

 24 25  0  0  1  0  0  0  0  0999 V2000
   30.9279  -21.0958  -10.2603 N   0  0  0  0  0  0  0  0  0  0  0  0
   32.3040  -21.1575   -9.7913 C   0  0  0  0  0  0  0  0  0  0  0  0
   32.4911  -22.6126   -9.3370 C   0  0  0  0  0  0  0  0  0  0  0  0
   31.1054  -22.8191   -8.7085 C   0  0  0  0  0  0  0  0  0  0  0  0
   30.2469  -22.2627   -9.8310 C   0  0  1  0  0  0  0  0  0  0  0  0
   28.8848  -22.0372   -9.3240 C   0  0  0  0  0  0  0  0  0  0  0  0
   28.2015  -22.9900   -8.8730 O   0  0  0  0  0  0  0  0  0  0  0  0
   28.3081  -20.7469   -9.3300 N   0  0  0  0  0  0  0  0  0  0  0  0
   26.9657  -20.4443   -8.9174 C   0  0  1  0  0  0  0  0  0  0  0  0
   26.9480  -19.3249   -7.9378 C   0  0  0  0  0  0  0  0  0  0  0  0
   27.6581  -19.6819   -6.6859 C   0  0  0  0  0  0  0  0  0  0  0  0
   28.8629  -19.0847   -6.3981 C   0  0  0  0  0  0  0  0  0  0  0  0
   29.5713  -19.3810   -5.2427 C   0  0  0  0  0  0  0  0  0  0  0  0
   29.0306  -20.3031   -4.3757 C   0  0  0  0  0  0  0  0  0  0  0  0
   27.8295  -20.9233   -4.6249 C   0  0  0  0  0  0  0  0  0  0  0  0
   27.1552  -20.5924   -5.7989 C   0  0  0  0  0  0  0  0  0  0  0  0
   26.0463  -20.2470  -10.0602 C   0  0  0  0  0  0  0  0  0  0  0  0
   26.2036  -19.1850  -10.7311 O   0  0  0  0  0  0  0  0  0  0  0  0
   24.2964  -22.0659  -12.5864 C   0  0  0  0  0  0  0  0  0  0  0  0
   24.2826  -20.8764  -11.6534 C   0  0  2  0  0  0  0  0  0  0  0  0
   25.0374  -21.1315  -10.4440 N   0  0  0  0  0  0  0  0  0  0  0  0
   22.9022  -20.5501  -11.2939 C   0  0  0  0  0  0  0  0  0  0  0  0
   22.0736  -20.2780  -12.1936 O   0  0  0  0  0  0  0  0  0  0  0  0
   22.4861  -20.5360   -9.9557 O   0  0  0  0  0  0  0  0  0  0  0  0
  1  2  1  0
  3  2  1  0
  4  5  1  0
  4  3  1  0
  5  1  1  0
  6  8  1  0
  5  6  1  1
  7  6  2  0
  9  8  1  0
  9 10  1  6
 10 11  1  0
 11 12  2  0
 11 16  1  0
 12 13  1  0
 13 14  2  0
 15 14  1  0
 16 15  2  0
 17 18  2  0
 17  9  1  0
 20 19  1  6
 20 22  1  0
 20 21  1  0
 21 17  1  0
 22 24  1  0
 23 22  2  0
M  END
$$$$
