TET.pdb
     RDKit          3D

 24 23  0  0  1  0  0  0  0  0999 V2000
    8.9919  -12.8224   19.6346 C   0  0  0  0  0  0  0  0  0  0  0  0
    7.8224  -13.6019   19.0726 C   0  0  1  0  0  0  0  0  0  0  0  0
    7.3000  -12.9611   17.9905 O   0  0  0  0  0  0  0  0  0  0  0  0
    8.2707  -15.0039   18.8369 C   0  0  2  0  0  0  0  0  0  0  0  0
    7.2549  -15.8206   18.2031 N   0  0  0  0  0  0  0  0  0  0  0  0
    8.8506  -15.7227   19.9503 C   0  0  0  0  0  0  0  0  0  0  0  0
    8.0713  -16.3412   20.7202 O   0  0  0  0  0  0  0  0  0  0  0  0
   10.2341  -15.8036   20.2717 N   0  0  0  0  0  0  0  0  0  0  0  0
   10.6977  -16.5983   21.3626 C   0  0  1  0  0  0  0  0  0  0  0  0
   12.1371  -16.9544   21.3594 C   0  0  0  0  0  0  0  0  0  0  0  0
   12.6105  -17.7691   20.1955 C   0  0  0  0  0  0  0  0  0  0  0  0
   14.0728  -17.9572   20.3796 C   0  0  0  0  0  0  0  0  0  0  0  0
   14.5486  -18.9382   21.0135 O   0  0  0  0  0  0  0  0  0  0  0  0
   10.3941  -15.9596   22.6871 C   0  0  0  0  0  0  0  0  0  0  0  0
   10.4170  -14.7073   22.7606 O   0  0  0  0  0  0  0  0  0  0  0  0
   14.9225  -17.0101   19.8268 O   0  0  0  0  0  0  0  0  0  0  0  0
    7.2453  -16.3438   24.2077 C   0  0  0  0  0  0  0  0  0  0  0  0
    8.2997  -15.3890   24.7249 C   0  0  1  0  0  0  0  0  0  0  0  0
    7.8144  -14.8082   25.8949 O   0  0  0  0  0  0  0  0  0  0  0  0
    9.5728  -16.0992   25.0420 C   0  0  2  0  0  0  0  0  0  0  0  0
   10.0902  -16.7061   23.8352 N   0  0  0  0  0  0  0  0  0  0  0  0
    9.4034  -17.1199   26.1103 C   0  0  0  0  0  0  0  0  0  0  0  0
    9.0449  -16.7283   27.3828 O   0  0  0  0  0  0  0  0  0  0  0  0
    9.5846  -18.3344   25.8608 O   0  0  0  0  0  0  0  0  0  0  0  0
  2  1  1  6
  2  3  1  0
  2  4  1  0
  4  5  1  1
  6  7  2  0
  6  4  1  0
  8  6  1  0
  9  8  1  0
  9 14  1  0
  9 10  1  6
 11 10  1  0
 12 11  1  0
 13 12  2  0
 14 21  1  0
 15 14  2  0
 16 12  1  0
 18 17  1  1
 18 20  1  0
 18 19  1  0
 20 22  1  0
 20 21  1  6
 22 24  2  0
 22 23  1  0
M  END
$$$$
