TET.pdb
     RDKit          3D

 24 23  0  0  1  0  0  0  0  0999 V2000
    8.7679  -12.6110   19.8495 C   0  0  0  0  0  0  0  0  0  0  0  0
    7.8575  -13.3634   18.9027 C   0  0  1  0  0  0  0  0  0  0  0  0
    7.7186  -12.6798   17.7332 O   0  0  0  0  0  0  0  0  0  0  0  0
    8.3699  -14.7576   18.7774 C   0  0  2  0  0  0  0  0  0  0  0  0
    7.6627  -15.5291   17.7748 N   0  0  0  0  0  0  0  0  0  0  0  0
    8.5053  -15.5376   19.9881 C   0  0  0  0  0  0  0  0  0  0  0  0
    7.4932  -16.1593   20.4028 O   0  0  0  0  0  0  0  0  0  0  0  0
    9.6837  -15.6767   20.7730 N   0  0  0  0  0  0  0  0  0  0  0  0
    9.7095  -16.5082   21.9325 C   0  0  1  0  0  0  0  0  0  0  0  0
   10.7441  -17.5700   21.9645 C   0  0  0  0  0  0  0  0  0  0  0  0
   10.9105  -18.3643   20.7060 C   0  0  0  0  0  0  0  0  0  0  0  0
   12.2074  -19.0792   20.8270 C   0  0  0  0  0  0  0  0  0  0  0  0
   13.0416  -19.1203   19.8821 O   0  0  0  0  0  0  0  0  0  0  0  0
    9.8493  -15.7043   23.1929 C   0  0  0  0  0  0  0  0  0  0  0  0
   10.7204  -14.8019   23.2271 O   0  0  0  0  0  0  0  0  0  0  0  0
   12.4875  -19.7141   22.0282 O   0  0  0  0  0  0  0  0  0  0  0  0
    6.6499  -14.9781   25.5977 C   0  0  0  0  0  0  0  0  0  0  0  0
    7.9432  -14.1930   25.5521 C   0  0  1  0  0  0  0  0  0  0  0  0
    8.0178  -13.4233   26.7113 O   0  0  0  0  0  0  0  0  0  0  0  0
    9.1300  -15.0959   25.5064 C   0  0  2  0  0  0  0  0  0  0  0  0
    9.0494  -15.9251   24.3239 N   0  0  0  0  0  0  0  0  0  0  0  0
    9.2526  -15.9358   26.7276 C   0  0  0  0  0  0  0  0  0  0  0  0
    9.4360  -15.3375   27.9562 O   0  0  0  0  0  0  0  0  0  0  0  0
    9.1903  -17.1846   26.6466 O   0  0  0  0  0  0  0  0  0  0  0  0
  2  1  1  1
  2  3  1  0
  2  4  1  0
  4  5  1  6
  6  7  2  0
  6  4  1  0
  8  6  1  0
  9  8  1  0
  9 14  1  0
  9 10  1  6
 11 10  1  0
 12 11  1  0
 13 12  2  0
 14 21  1  0
 15 14  2  0
 16 12  1  0
 18 17  1  1
 18 20  1  0
 18 19  1  0
 20 22  1  0
 20 21  1  6
 22 24  2  0
 22 23  1  0
M  END
$$$$
