TET.pdb
     RDKit          3D

 24 23  0  0  1  0  0  0  0  0999 V2000
    9.7286  -12.5442   19.3787 C   0  0  0  0  0  0  0  0  0  0  0  0
    8.5210  -13.2273   18.7733 C   0  0  1  0  0  0  0  0  0  0  0  0
    7.9492  -12.4316   17.8276 O   0  0  0  0  0  0  0  0  0  0  0  0
    8.9385  -14.5812   18.3098 C   0  0  2  0  0  0  0  0  0  0  0  0
    7.8967  -15.2706   17.5751 N   0  0  0  0  0  0  0  0  0  0  0  0
    9.5237  -15.4766   19.2836 C   0  0  0  0  0  0  0  0  0  0  0  0
    8.7475  -16.2111   19.9475 O   0  0  0  0  0  0  0  0  0  0  0  0
   10.9094  -15.6149   19.5748 N   0  0  0  0  0  0  0  0  0  0  0  0
   11.3718  -16.5314   20.5661 C   0  0  1  0  0  0  0  0  0  0  0  0
   12.7979  -16.9302   20.4872 C   0  0  0  0  0  0  0  0  0  0  0  0
   13.2506  -17.9537   21.4821 C   0  0  0  0  0  0  0  0  0  0  0  0
   14.6262  -18.3494   21.0835 C   0  0  0  0  0  0  0  0  0  0  0  0
   14.8543  -19.0340   20.0491 O   0  0  0  0  0  0  0  0  0  0  0  0
   11.1221  -16.0227   21.9565 C   0  0  0  0  0  0  0  0  0  0  0  0
   11.8215  -15.0679   22.3731 O   0  0  0  0  0  0  0  0  0  0  0  0
   15.6776  -17.9406   21.8909 O   0  0  0  0  0  0  0  0  0  0  0  0
    8.1078  -14.5238   23.4695 C   0  0  0  0  0  0  0  0  0  0  0  0
    8.4747  -15.7367   24.2972 C   0  0  1  0  0  0  0  0  0  0  0  0
    7.7075  -16.8097   23.8480 O   0  0  0  0  0  0  0  0  0  0  0  0
    9.9164  -16.0886   24.1432 C   0  0  2  0  0  0  0  0  0  0  0  0
   10.1450  -16.5728   22.7994 N   0  0  0  0  0  0  0  0  0  0  0  0
   10.3669  -17.0913   25.1448 C   0  0  0  0  0  0  0  0  0  0  0  0
   10.8772  -18.3009   24.7231 O   0  0  0  0  0  0  0  0  0  0  0  0
   10.2855  -16.8436   26.3704 O   0  0  0  0  0  0  0  0  0  0  0  0
  2  1  1  6
  2  3  1  0
  2  4  1  0
  4  5  1  1
  6  7  2  0
  6  4  1  0
  8  6  1  0
  9  8  1  0
  9 14  1  0
  9 10  1  6
 11 10  1  0
 12 11  1  0
 13 12  2  0
 14 21  1  0
 15 14  2  0
 16 12  1  0
 18 17  1  6
 18 20  1  0
 18 19  1  0
 20 22  1  0
 20 21  1  6
 22 24  2  0
 22 23  1  0
M  END
$$$$
