TET.pdb
     RDKit          3D

 24 23  0  0  1  0  0  0  0  0999 V2000
    8.5799  -12.6394   20.2572 C   0  0  0  0  0  0  0  0  0  0  0  0
    7.7184  -13.4941   19.3525 C   0  0  1  0  0  0  0  0  0  0  0  0
    7.7326  -13.0050   18.0816 O   0  0  0  0  0  0  0  0  0  0  0  0
    8.1538  -14.9119   19.5023 C   0  0  2  0  0  0  0  0  0  0  0  0
    7.4516  -15.8135   18.6109 N   0  0  0  0  0  0  0  0  0  0  0  0
    8.1853  -15.4703   20.8363 C   0  0  0  0  0  0  0  0  0  0  0  0
    7.0909  -15.8032   21.3599 O   0  0  0  0  0  0  0  0  0  0  0  0
    9.3447  -15.6850   21.6324 N   0  0  0  0  0  0  0  0  0  0  0  0
    9.2487  -16.1959   22.9613 C   0  0  1  0  0  0  0  0  0  0  0  0
   10.2921  -17.1643   23.3768 C   0  0  0  0  0  0  0  0  0  0  0  0
   10.1898  -18.5358   22.7845 C   0  0  0  0  0  0  0  0  0  0  0  0
   11.3302  -19.3166   23.3299 C   0  0  0  0  0  0  0  0  0  0  0  0
   11.5129  -20.5300   23.0385 O   0  0  0  0  0  0  0  0  0  0  0  0
    9.2229  -15.0952   23.9821 C   0  0  0  0  0  0  0  0  0  0  0  0
   10.0227  -14.1385   23.8428 O   0  0  0  0  0  0  0  0  0  0  0  0
   12.2093  -18.6682   24.1849 O   0  0  0  0  0  0  0  0  0  0  0  0
    6.7295  -12.2290   26.8652 C   0  0  0  0  0  0  0  0  0  0  0  0
    6.8633  -13.4514   25.9826 C   0  0  1  0  0  0  0  0  0  0  0  0
    6.5546  -13.0730   24.6776 O   0  0  0  0  0  0  0  0  0  0  0  0
    8.2541  -13.9910   26.0025 C   0  0  2  0  0  0  0  0  0  0  0  0
    8.3459  -15.0988   25.0769 N   0  0  0  0  0  0  0  0  0  0  0  0
    8.6821  -14.4093   27.3639 C   0  0  0  0  0  0  0  0  0  0  0  0
    9.0337  -15.7215   27.5997 O   0  0  0  0  0  0  0  0  0  0  0  0
    8.7252  -13.5759   28.2986 O   0  0  0  0  0  0  0  0  0  0  0  0
  2  1  1  1
  2  3  1  0
  2  4  1  0
  4  5  1  6
  6  7  2  0
  6  4  1  0
  8  6  1  0
  9  8  1  0
  9 14  1  0
  9 10  1  1
 11 10  1  0
 12 11  1  0
 13 12  2  0
 14 21  1  0
 15 14  2  0
 16 12  1  0
 18 17  1  1
 18 20  1  0
 18 19  1  0
 20 22  1  0
 20 21  1  6
 22 24  2  0
 22 23  1  0
M  END
$$$$
