TET.pdb
     RDKit          3D

 24 23  0  0  1  0  0  0  0  0999 V2000
    8.5193  -12.5271   20.5086 C   0  0  0  0  0  0  0  0  0  0  0  0
    7.6274  -13.4651   19.7237 C   0  0  1  0  0  0  0  0  0  0  0  0
    7.5532  -13.0722   18.4219 O   0  0  0  0  0  0  0  0  0  0  0  0
    8.1071  -14.8582   19.9501 C   0  0  2  0  0  0  0  0  0  0  0  0
    7.4256  -15.8302   19.1185 N   0  0  0  0  0  0  0  0  0  0  0  0
    8.1661  -15.3379   21.3135 C   0  0  0  0  0  0  0  0  0  0  0  0
    7.0852  -15.6621   21.8696 O   0  0  0  0  0  0  0  0  0  0  0  0
    9.3392  -15.4827   22.1053 N   0  0  0  0  0  0  0  0  0  0  0  0
    9.2756  -15.9741   23.4436 C   0  0  1  0  0  0  0  0  0  0  0  0
   10.3382  -16.9240   23.8528 C   0  0  0  0  0  0  0  0  0  0  0  0
   10.3423  -18.2477   23.1526 C   0  0  0  0  0  0  0  0  0  0  0  0
   11.4764  -19.0215   23.7206 C   0  0  0  0  0  0  0  0  0  0  0  0
   11.3029  -19.9531   24.5529 O   0  0  0  0  0  0  0  0  0  0  0  0
    9.2573  -14.8580   24.4478 C   0  0  0  0  0  0  0  0  0  0  0  0
   10.2191  -14.0523   24.4562 O   0  0  0  0  0  0  0  0  0  0  0  0
   12.7584  -18.6905   23.3066 O   0  0  0  0  0  0  0  0  0  0  0  0
    6.6186  -12.1356   25.1719 C   0  0  0  0  0  0  0  0  0  0  0  0
    6.8639  -12.9949   26.3936 C   0  0  1  0  0  0  0  0  0  0  0  0
    5.9031  -14.0041   26.4070 O   0  0  0  0  0  0  0  0  0  0  0  0
    8.2144  -13.6277   26.3553 C   0  0  2  0  0  0  0  0  0  0  0  0
    8.2139  -14.6864   25.3695 N   0  0  0  0  0  0  0  0  0  0  0  0
    8.6359  -14.1487   27.6829 C   0  0  0  0  0  0  0  0  0  0  0  0
    8.7737  -13.2831   28.7474 O   0  0  0  0  0  0  0  0  0  0  0  0
    8.8667  -15.3702   27.8402 O   0  0  0  0  0  0  0  0  0  0  0  0
  2  1  1  1
  2  3  1  0
  2  4  1  0
  4  5  1  6
  6  7  2  0
  6  4  1  0
  8  6  1  0
  9  8  1  0
  9 14  1  0
  9 10  1  1
 11 10  1  0
 12 11  1  0
 13 12  2  0
 14 21  1  0
 15 14  2  0
 16 12  1  0
 18 17  1  6
 18 20  1  0
 18 19  1  0
 20 22  1  0
 20 21  1  6
 22 24  2  0
 22 23  1  0
M  END
$$$$
