TET.pdb
     RDKit          3D

 24 23  0  0  1  0  0  0  0  0999 V2000
    8.7737  -12.7041   19.7442 C   0  0  0  0  0  0  0  0  0  0  0  0
    7.8340  -13.4844   18.8502 C   0  0  1  0  0  0  0  0  0  0  0  0
    7.5212  -12.7589   17.7410 O   0  0  0  0  0  0  0  0  0  0  0  0
    8.4408  -14.8219   18.5955 C   0  0  2  0  0  0  0  0  0  0  0  0
    7.7232  -15.5837   17.5929 N   0  0  0  0  0  0  0  0  0  0  0  0
    8.7235  -15.6628   19.7380 C   0  0  0  0  0  0  0  0  0  0  0  0
    7.8628  -16.5208   20.0634 O   0  0  0  0  0  0  0  0  0  0  0  0
    9.8930  -15.6193   20.5470 N   0  0  0  0  0  0  0  0  0  0  0  0
   10.0738  -16.5192   21.6397 C   0  0  1  0  0  0  0  0  0  0  0  0
   11.3387  -17.2929   21.6596 C   0  0  0  0  0  0  0  0  0  0  0  0
   11.5987  -18.1591   20.4661 C   0  0  0  0  0  0  0  0  0  0  0  0
   12.9305  -18.7823   20.6797 C   0  0  0  0  0  0  0  0  0  0  0  0
   13.0662  -19.8919   21.2638 O   0  0  0  0  0  0  0  0  0  0  0  0
    9.9510  -15.8216   22.9635 C   0  0  0  0  0  0  0  0  0  0  0  0
   10.7807  -14.9216   23.2387 O   0  0  0  0  0  0  0  0  0  0  0  0
   14.0462  -18.1031   20.2124 O   0  0  0  0  0  0  0  0  0  0  0  0
    7.2616  -13.6973   24.2761 C   0  0  0  0  0  0  0  0  0  0  0  0
    7.4354  -14.8565   25.2337 C   0  0  1  0  0  0  0  0  0  0  0  0
    6.5189  -15.8448   24.8802 O   0  0  0  0  0  0  0  0  0  0  0  0
    8.8088  -15.4334   25.1509 C   0  0  2  0  0  0  0  0  0  0  0  0
    8.9519  -16.1383   23.8959 N   0  0  0  0  0  0  0  0  0  0  0  0
    9.1176  -16.3324   26.2946 C   0  0  0  0  0  0  0  0  0  0  0  0
    9.1160  -15.8329   27.5798 O   0  0  0  0  0  0  0  0  0  0  0  0
    9.3794  -17.5418   26.0974 O   0  0  0  0  0  0  0  0  0  0  0  0
  2  1  1  1
  2  3  1  0
  2  4  1  0
  4  5  1  6
  6  7  2  0
  6  4  1  0
  8  6  1  0
  9  8  1  0
  9 14  1  0
  9 10  1  6
 11 10  1  0
 12 11  1  0
 13 12  2  0
 14 21  1  0
 15 14  2  0
 16 12  1  0
 18 17  1  6
 18 20  1  0
 18 19  1  0
 20 22  1  0
 20 21  1  6
 22 24  2  0
 22 23  1  0
M  END
$$$$
