TET.pdb
     RDKit          3D

 24 23  0  0  1  0  0  0  0  0999 V2000
    7.4436  -12.8044   19.1201 C   0  0  0  0  0  0  0  0  0  0  0  0
    8.8107  -13.1149   18.5490 C   0  0  1  0  0  0  0  0  0  0  0  0
    9.7879  -12.6523   19.3770 O   0  0  0  0  0  0  0  0  0  0  0  0
    8.8638  -14.5723   18.2406 C   0  0  2  0  0  0  0  0  0  0  0  0
    7.8577  -14.9815   17.2809 N   0  0  0  0  0  0  0  0  0  0  0  0
    8.8821  -15.4968   19.3530 C   0  0  0  0  0  0  0  0  0  0  0  0
    7.7920  -16.0200   19.7002 O   0  0  0  0  0  0  0  0  0  0  0  0
   10.0240  -15.8819   20.1093 N   0  0  0  0  0  0  0  0  0  0  0  0
    9.9091  -16.7452   21.2398 C   0  0  1  0  0  0  0  0  0  0  0  0
   10.9194  -17.8244   21.3558 C   0  0  0  0  0  0  0  0  0  0  0  0
   12.3236  -17.4526   20.9917 C   0  0  0  0  0  0  0  0  0  0  0  0
   13.1338  -18.6917   21.1177 C   0  0  0  0  0  0  0  0  0  0  0  0
   13.5392  -19.1178   22.2334 O   0  0  0  0  0  0  0  0  0  0  0  0
    9.9178  -15.9786   22.5308 C   0  0  0  0  0  0  0  0  0  0  0  0
   10.7433  -15.0425   22.6589 O   0  0  0  0  0  0  0  0  0  0  0  0
   13.4415  -19.3855   19.9565 O   0  0  0  0  0  0  0  0  0  0  0  0
    7.2943  -13.8618   24.0106 C   0  0  0  0  0  0  0  0  0  0  0  0
    7.6201  -14.9606   24.9994 C   0  0  1  0  0  0  0  0  0  0  0  0
    6.7209  -16.0045   24.7910 O   0  0  0  0  0  0  0  0  0  0  0  0
    9.0041  -15.4816   24.8019 C   0  0  2  0  0  0  0  0  0  0  0  0
    9.0452  -16.2700   23.5897 N   0  0  0  0  0  0  0  0  0  0  0  0
    9.4819  -16.2799   25.9621 C   0  0  0  0  0  0  0  0  0  0  0  0
    9.5455  -15.7025   27.2126 O   0  0  0  0  0  0  0  0  0  0  0  0
    9.8271  -17.4748   25.8101 O   0  0  0  0  0  0  0  0  0  0  0  0
  2  1  1  1
  2  3  1  0
  2  4  1  0
  4  5  1  6
  6  7  2  0
  6  4  1  0
  8  6  1  0
  9  8  1  0
  9 14  1  0
  9 10  1  1
 11 10  1  0
 12 11  1  0
 13 12  2  0
 14 21  1  0
 15 14  2  0
 16 12  1  0
 18 17  1  6
 18 20  1  0
 18 19  1  0
 20 22  1  0
 20 21  1  6
 22 24  2  0
 22 23  1  0
M  END
$$$$
