TET.pdb
     RDKit          3D

 24 23  0  0  1  0  0  0  0  0999 V2000
    8.5637  -12.5213   20.4089 C   0  0  0  0  0  0  0  0  0  0  0  0
    7.6929  -13.3826   19.5195 C   0  0  1  0  0  0  0  0  0  0  0  0
    7.7497  -12.9449   18.2312 O   0  0  0  0  0  0  0  0  0  0  0  0
    8.0773  -14.8068   19.7339 C   0  0  2  0  0  0  0  0  0  0  0  0
    7.3942  -15.7155   18.8349 N   0  0  0  0  0  0  0  0  0  0  0  0
    8.0243  -15.3236   21.0839 C   0  0  0  0  0  0  0  0  0  0  0  0
    6.9005  -15.6530   21.5433 O   0  0  0  0  0  0  0  0  0  0  0  0
    9.1297  -15.5004   21.9620 N   0  0  0  0  0  0  0  0  0  0  0  0
    8.9506  -15.9816   23.2935 C   0  0  1  0  0  0  0  0  0  0  0  0
    9.8481  -17.0789   23.7286 C   0  0  0  0  0  0  0  0  0  0  0  0
   11.0370  -17.3410   22.8567 C   0  0  0  0  0  0  0  0  0  0  0  0
   11.8349  -18.3937   23.5371 C   0  0  0  0  0  0  0  0  0  0  0  0
   12.9910  -18.1719   23.9897 O   0  0  0  0  0  0  0  0  0  0  0  0
    9.0635  -14.8785   24.3057 C   0  0  0  0  0  0  0  0  0  0  0  0
   10.0139  -14.0670   24.1948 O   0  0  0  0  0  0  0  0  0  0  0  0
   11.2685  -19.6533   23.6673 O   0  0  0  0  0  0  0  0  0  0  0  0
    7.1252  -11.8675   25.2540 C   0  0  0  0  0  0  0  0  0  0  0  0
    7.1203  -12.8390   26.4148 C   0  0  1  0  0  0  0  0  0  0  0  0
    5.9825  -13.6354   26.3017 O   0  0  0  0  0  0  0  0  0  0  0  0
    8.3214  -13.7238   26.3928 C   0  0  2  0  0  0  0  0  0  0  0  0
    8.1536  -14.7250   25.3623 N   0  0  0  0  0  0  0  0  0  0  0  0
    8.5787  -14.3656   27.7094 C   0  0  0  0  0  0  0  0  0  0  0  0
    8.6171  -15.7405   27.8067 O   0  0  0  0  0  0  0  0  0  0  0  0
    8.7610  -13.6640   28.7315 O   0  0  0  0  0  0  0  0  0  0  0  0
  2  1  1  1
  2  3  1  0
  2  4  1  0
  4  5  1  6
  6  7  2  0
  6  4  1  0
  8  6  1  0
  9  8  1  0
  9 14  1  0
  9 10  1  1
 11 10  1  0
 12 11  1  0
 13 12  2  0
 14 21  1  0
 15 14  2  0
 16 12  1  0
 18 17  1  6
 18 20  1  0
 18 19  1  0
 20 22  1  0
 20 21  1  6
 22 24  2  0
 22 23  1  0
M  END
$$$$
