TET.pdb
     RDKit          3D

 24 23  0  0  1  0  0  0  0  0999 V2000
    8.8713  -12.1896   20.1487 C   0  0  0  0  0  0  0  0  0  0  0  0
    8.0241  -12.9410   19.1443 C   0  0  1  0  0  0  0  0  0  0  0  0
    8.1126  -12.3577   17.9170 O   0  0  0  0  0  0  0  0  0  0  0  0
    8.4048  -14.3811   19.2024 C   0  0  2  0  0  0  0  0  0  0  0  0
    7.7386  -15.1805   18.1936 N   0  0  0  0  0  0  0  0  0  0  0  0
    8.3272  -15.0480   20.4837 C   0  0  0  0  0  0  0  0  0  0  0  0
    7.2515  -15.6295   20.7792 O   0  0  0  0  0  0  0  0  0  0  0  0
    9.3580  -15.1151   21.4620 N   0  0  0  0  0  0  0  0  0  0  0  0
    9.2010  -15.8833   22.6543 C   0  0  1  0  0  0  0  0  0  0  0  0
   10.1143  -17.0392   22.8238 C   0  0  0  0  0  0  0  0  0  0  0  0
    9.9293  -17.8461   24.0716 C   0  0  0  0  0  0  0  0  0  0  0  0
   10.8702  -18.9921   23.9759 C   0  0  0  0  0  0  0  0  0  0  0  0
   12.1214  -18.8338   23.9641 O   0  0  0  0  0  0  0  0  0  0  0  0
    9.3171  -15.0325   23.8859 C   0  0  0  0  0  0  0  0  0  0  0  0
   10.4283  -14.5096   24.1428 O   0  0  0  0  0  0  0  0  0  0  0  0
   10.3314  -20.2681   23.8986 O   0  0  0  0  0  0  0  0  0  0  0  0
    6.5883  -12.3915   25.3737 C   0  0  0  0  0  0  0  0  0  0  0  0
    7.0290  -13.4748   26.3346 C   0  0  1  0  0  0  0  0  0  0  0  0
    6.0947  -14.5068   26.2741 O   0  0  0  0  0  0  0  0  0  0  0  0
    8.3657  -14.0243   25.9640 C   0  0  2  0  0  0  0  0  0  0  0  0
    8.2379  -14.8047   24.7527 N   0  0  0  0  0  0  0  0  0  0  0  0
    8.9662  -14.8409   27.0522 C   0  0  0  0  0  0  0  0  0  0  0  0
    9.2022  -14.2725   28.2861 O   0  0  0  0  0  0  0  0  0  0  0  0
    9.2591  -16.0430   26.8545 O   0  0  0  0  0  0  0  0  0  0  0  0
  2  1  1  1
  2  3  1  0
  2  4  1  0
  4  5  1  6
  6  7  2  0
  6  4  1  0
  8  6  1  0
  9  8  1  0
  9 14  1  0
  9 10  1  1
 11 10  1  0
 12 11  1  0
 13 12  2  0
 14 21  1  0
 15 14  2  0
 16 12  1  0
 18 17  1  6
 18 20  1  0
 18 19  1  0
 20 22  1  0
 20 21  1  6
 22 24  2  0
 22 23  1  0
M  END
$$$$
