TET.pdb
     RDKit          3D

 24 23  0  0  1  0  0  0  0  0999 V2000
    8.0800  -13.4366   18.7203 C   0  0  0  0  0  0  0  0  0  0  0  0
    8.4396  -13.7130   20.1645 C   0  0  1  0  0  0  0  0  0  0  0  0
    8.3853  -12.5656   20.8958 O   0  0  0  0  0  0  0  0  0  0  0  0
    7.5787  -14.8286   20.6508 C   0  0  2  0  0  0  0  0  0  0  0  0
    6.1649  -14.5724   20.4607 N   0  0  0  0  0  0  0  0  0  0  0  0
    7.8095  -15.3239   21.9901 C   0  0  0  0  0  0  0  0  0  0  0  0
    6.9228  -15.1100   22.8566 O   0  0  0  0  0  0  0  0  0  0  0  0
    8.9549  -16.0392   22.4379 N   0  0  0  0  0  0  0  0  0  0  0  0
    9.0416  -16.5431   23.7701 C   0  0  1  0  0  0  0  0  0  0  0  0
    9.9165  -17.7223   23.9778 C   0  0  0  0  0  0  0  0  0  0  0  0
    9.9749  -18.2602   25.3741 C   0  0  0  0  0  0  0  0  0  0  0  0
   10.8723  -19.4437   25.3327 C   0  0  0  0  0  0  0  0  0  0  0  0
   10.8303  -20.2851   24.3941 O   0  0  0  0  0  0  0  0  0  0  0  0
    9.4755  -15.4831   24.7409 C   0  0  0  0  0  0  0  0  0  0  0  0
   10.4959  -14.8075   24.4640 O   0  0  0  0  0  0  0  0  0  0  0  0
   11.7776  -19.6069   26.3710 O   0  0  0  0  0  0  0  0  0  0  0  0
    7.7256  -12.3976   26.1275 C   0  0  0  0  0  0  0  0  0  0  0  0
    8.0736  -13.3536   27.2482 C   0  0  1  0  0  0  0  0  0  0  0  0
    6.9639  -14.1640   27.4796 O   0  0  0  0  0  0  0  0  0  0  0  0
    9.2286  -14.2254   26.8849 C   0  0  2  0  0  0  0  0  0  0  0  0
    8.7882  -15.2245   25.9361 N   0  0  0  0  0  0  0  0  0  0  0  0
    9.8504  -14.8692   28.0726 C   0  0  0  0  0  0  0  0  0  0  0  0
   10.3463  -14.0885   29.0953 O   0  0  0  0  0  0  0  0  0  0  0  0
    9.9266  -16.1175   28.1495 O   0  0  0  0  0  0  0  0  0  0  0  0
  2  1  1  6
  2  3  1  0
  2  4  1  0
  4  5  1  1
  6  7  2  0
  6  4  1  0
  8  6  1  0
  9  8  1  0
  9 14  1  0
  9 10  1  6
 11 10  1  0
 12 11  1  0
 13 12  2  0
 14 21  1  0
 15 14  2  0
 16 12  1  0
 18 17  1  6
 18 20  1  0
 18 19  1  0
 20 22  1  0
 20 21  1  6
 22 24  2  0
 22 23  1  0
M  END
$$$$
