TET.pdb
     RDKit          3D

 24 23  0  0  1  0  0  0  0  0999 V2000
    8.4487  -12.3950   20.2363 C   0  0  0  0  0  0  0  0  0  0  0  0
    7.7669  -13.2994   19.2320 C   0  0  1  0  0  0  0  0  0  0  0  0
    7.9128  -12.8051   17.9715 O   0  0  0  0  0  0  0  0  0  0  0  0
    8.2693  -14.6870   19.4423 C   0  0  2  0  0  0  0  0  0  0  0  0
    7.7464  -15.6279   18.4718 N   0  0  0  0  0  0  0  0  0  0  0  0
    8.1648  -15.2477   20.7716 C   0  0  0  0  0  0  0  0  0  0  0  0
    7.1130  -15.8726   21.0648 O   0  0  0  0  0  0  0  0  0  0  0  0
    9.1439  -15.1640   21.8004 N   0  0  0  0  0  0  0  0  0  0  0  0
    8.9589  -15.8158   23.0563 C   0  0  1  0  0  0  0  0  0  0  0  0
    9.8396  -16.9749   23.3384 C   0  0  0  0  0  0  0  0  0  0  0  0
   11.3121  -16.7221   23.2371 C   0  0  0  0  0  0  0  0  0  0  0  0
   11.9817  -18.0244   23.4886 C   0  0  0  0  0  0  0  0  0  0  0  0
   12.6740  -18.2345   24.5216 O   0  0  0  0  0  0  0  0  0  0  0  0
    9.0900  -14.8594   24.2063 C   0  0  0  0  0  0  0  0  0  0  0  0
   10.0452  -14.0459   24.1950 O   0  0  0  0  0  0  0  0  0  0  0  0
   11.8254  -19.0267   22.5423 O   0  0  0  0  0  0  0  0  0  0  0  0
    6.7758  -12.1835   25.3534 C   0  0  0  0  0  0  0  0  0  0  0  0
    6.9836  -13.1638   26.4877 C   0  0  1  0  0  0  0  0  0  0  0  0
    5.9550  -14.1024   26.4363 O   0  0  0  0  0  0  0  0  0  0  0  0
    8.2855  -13.8811   26.3593 C   0  0  2  0  0  0  0  0  0  0  0  0
    8.1921  -14.8440   25.2839 N   0  0  0  0  0  0  0  0  0  0  0  0
    8.6947  -14.5471   27.6245 C   0  0  0  0  0  0  0  0  0  0  0  0
    8.8520  -13.8007   28.7731 O   0  0  0  0  0  0  0  0  0  0  0  0
    8.8975  -15.7833   27.6530 O   0  0  0  0  0  0  0  0  0  0  0  0
  2  1  1  1
  2  3  1  0
  2  4  1  0
  4  5  1  6
  6  7  2  0
  6  4  1  0
  8  6  1  0
  9  8  1  0
  9 14  1  0
  9 10  1  1
 11 10  1  0
 12 11  1  0
 13 12  2  0
 14 21  1  0
 15 14  2  0
 16 12  1  0
 18 17  1  6
 18 20  1  0
 18 19  1  0
 20 22  1  0
 20 21  1  6
 22 24  2  0
 22 23  1  0
M  END
$$$$
