TET.pdb
     RDKit          3D

 24 23  0  0  1  0  0  0  0  0999 V2000
    7.5732  -12.6220   17.7348 C   0  0  0  0  0  0  0  0  0  0  0  0
    7.7684  -13.9003   18.5216 C   0  0  1  0  0  0  0  0  0  0  0  0
    8.0729  -14.9312   17.6856 O   0  0  0  0  0  0  0  0  0  0  0  0
    8.7598  -13.6324   19.6021 C   0  0  2  0  0  0  0  0  0  0  0  0
   10.0631  -13.2585   19.0899 N   0  0  0  0  0  0  0  0  0  0  0  0
    8.9105  -14.6276   20.6409 C   0  0  0  0  0  0  0  0  0  0  0  0
    7.8823  -14.9709   21.2794 O   0  0  0  0  0  0  0  0  0  0  0  0
   10.1214  -15.2691   21.0235 N   0  0  0  0  0  0  0  0  0  0  0  0
   10.1267  -16.3504   21.9547 C   0  0  1  0  0  0  0  0  0  0  0  0
   11.3194  -17.2314   21.9416 C   0  0  0  0  0  0  0  0  0  0  0  0
   11.2859  -18.3978   22.8801 C   0  0  0  0  0  0  0  0  0  0  0  0
   12.5553  -19.1419   22.6733 C   0  0  0  0  0  0  0  0  0  0  0  0
   12.7709  -19.8254   21.6356 O   0  0  0  0  0  0  0  0  0  0  0  0
    9.9338  -15.8734   23.3652 C   0  0  0  0  0  0  0  0  0  0  0  0
   10.7374  -15.0233   23.8187 O   0  0  0  0  0  0  0  0  0  0  0  0
   13.5196  -19.0667   23.6677 O   0  0  0  0  0  0  0  0  0  0  0  0
    7.1705  -14.0154   24.7473 C   0  0  0  0  0  0  0  0  0  0  0  0
    7.3033  -15.2553   25.6052 C   0  0  1  0  0  0  0  0  0  0  0  0
    6.3967  -16.2020   25.1326 O   0  0  0  0  0  0  0  0  0  0  0  0
    8.6765  -15.8329   25.5233 C   0  0  2  0  0  0  0  0  0  0  0  0
    8.8978  -16.3412   24.1872 N   0  0  0  0  0  0  0  0  0  0  0  0
    8.9057  -16.8995   26.5339 C   0  0  0  0  0  0  0  0  0  0  0  0
    9.2502  -18.1703   26.1243 O   0  0  0  0  0  0  0  0  0  0  0  0
    8.7876  -16.6503   27.7562 O   0  0  0  0  0  0  0  0  0  0  0  0
  2  1  1  6
  2  3  1  0
  2  4  1  0
  4  5  1  6
  6  7  2  0
  6  4  1  0
  8  6  1  0
  9  8  1  0
  9 14  1  0
  9 10  1  1
 11 10  1  0
 12 11  1  0
 13 12  2  0
 14 21  1  0
 15 14  2  0
 16 12  1  0
 18 17  1  6
 18 20  1  0
 18 19  1  0
 20 22  1  0
 20 21  1  6
 22 24  2  0
 22 23  1  0
M  END
$$$$
