VFR.pdb
     RDKit          3D

 30 30  0  0  1  0  0  0  0  0999 V2000
    9.2311  -12.4179   20.2272 C   0  0  0  0  0  0  0  0  0  0  0  0
    7.9138  -13.1346   20.2966 C   0  0  1  0  0  0  0  0  0  0  0  0
    7.0563  -13.0137   19.0912 C   0  0  0  0  0  0  0  0  0  0  0  0
    8.1823  -14.5596   20.7177 C   0  0  2  0  0  0  0  0  0  0  0  0
    6.8541  -15.2086   20.7067 N   0  0  0  0  0  0  0  0  0  0  0  0
    8.7139  -14.7035   22.0768 C   0  0  0  0  0  0  0  0  0  0  0  0
    9.9436  -14.4523   22.3353 O   0  0  0  0  0  0  0  0  0  0  0  0
    7.9434  -15.1204   23.2011 N   0  0  0  0  0  0  0  0  0  0  0  0
    8.5510  -15.4000   24.4998 C   0  0  1  0  0  0  0  0  0  0  0  0
    7.5423  -15.2580   25.6097 C   0  0  0  0  0  0  0  0  0  0  0  0
    7.1870  -13.8706   25.9033 C   0  0  0  0  0  0  0  0  0  0  0  0
    8.1312  -12.9771   26.3456 C   0  0  0  0  0  0  0  0  0  0  0  0
    7.7655  -11.6581   26.6196 C   0  0  0  0  0  0  0  0  0  0  0  0
    6.4677  -11.2282   26.4550 C   0  0  0  0  0  0  0  0  0  0  0  0
    5.5114  -12.1078   26.0137 C   0  0  0  0  0  0  0  0  0  0  0  0
    5.8930  -13.4022   25.7497 C   0  0  0  0  0  0  0  0  0  0  0  0
    9.1878  -16.7089   24.5036 C   0  0  0  0  0  0  0  0  0  0  0  0
    8.8638  -17.6436   23.6910 O   0  0  0  0  0  0  0  0  0  0  0  0
   16.3591  -17.7017   22.5041 N   0  0  0  0  0  0  0  0  0  0  0  0
   15.8501  -18.8015   21.7393 C   0  0  0  0  0  0  0  0  0  0  0  0
   16.6562  -19.6822   21.2703 N   0  0  0  0  0  0  0  0  0  0  0  0
   14.4603  -18.8990   21.5111 N   0  0  0  0  0  0  0  0  0  0  0  0
   13.5655  -17.9085   22.0589 C   0  0  0  0  0  0  0  0  0  0  0  0
   13.0125  -18.4371   23.3600 C   0  0  0  0  0  0  0  0  0  0  0  0
   11.9228  -17.5500   23.8437 C   0  0  0  0  0  0  0  0  0  0  0  0
   11.2196  -18.0767   25.0832 C   0  0  2  0  0  0  0  0  0  0  0  0
   10.2301  -17.0356   25.4230 N   0  0  0  0  0  0  0  0  0  0  0  0
   12.1542  -18.1829   26.2153 C   0  0  0  0  0  0  0  0  0  0  0  0
   13.0306  -19.0782   26.2927 O   0  0  0  0  0  0  0  0  0  0  0  0
   12.1029  -17.2805   27.2589 O   0  0  0  0  0  0  0  0  0  0  0  0
  2  1  1  6
  3  2  1  0
  4  2  1  0
  4  5  1  1
  6  4  1  0
  7  6  2  0
  8  6  1  0
  9  8  1  0
 10 11  1  0
  9 10  1  1
 11 12  2  0
 12 13  1  0
 14 13  2  0
 15 14  1  0
 16 11  1  0
 16 15  2  0
 17  9  1  0
 17 27  1  0
 18 17  2  0
 19 20  1  0
 20 22  1  0
 21 20  2  0
 22 23  1  0
 23 24  1  0
 24 25  1  0
 26 25  1  6
 26 27  1  0
 26 28  1  0
 28 30  1  0
 29 28  2  0
M  END
$$$$
