VFR.pdb
     RDKit          3D

 30 30  0  0  1  0  0  0  0  0999 V2000
    8.3824  -12.2280   20.1632 C   0  0  0  0  0  0  0  0  0  0  0  0
    7.2478  -13.2055   20.0586 C   0  0  1  0  0  0  0  0  0  0  0  0
    6.5016  -13.1833   18.7757 C   0  0  0  0  0  0  0  0  0  0  0  0
    7.7732  -14.5690   20.4388 C   0  0  2  0  0  0  0  0  0  0  0  0
    6.6028  -15.4650   20.3252 N   0  0  0  0  0  0  0  0  0  0  0  0
    8.2550  -14.6730   21.8199 C   0  0  0  0  0  0  0  0  0  0  0  0
    9.4063  -14.2201   22.1539 O   0  0  0  0  0  0  0  0  0  0  0  0
    7.5170  -15.2650   22.8860 N   0  0  0  0  0  0  0  0  0  0  0  0
    8.0707  -15.4065   24.2304 C   0  0  1  0  0  0  0  0  0  0  0  0
    7.0149  -15.1645   25.2774 C   0  0  0  0  0  0  0  0  0  0  0  0
    6.9731  -13.7844   25.7579 C   0  0  0  0  0  0  0  0  0  0  0  0
    5.8598  -13.0031   25.5691 C   0  0  0  0  0  0  0  0  0  0  0  0
    5.8459  -11.6881   26.0370 C   0  0  0  0  0  0  0  0  0  0  0  0
    6.9330  -11.1511   26.6897 C   0  0  0  0  0  0  0  0  0  0  0  0
    8.0538  -11.9178   26.8871 C   0  0  0  0  0  0  0  0  0  0  0  0
    8.0463  -13.2104   26.4183 C   0  0  0  0  0  0  0  0  0  0  0  0
    8.7150  -16.7017   24.3924 C   0  0  0  0  0  0  0  0  0  0  0  0
    8.1086  -17.8113   24.1923 O   0  0  0  0  0  0  0  0  0  0  0  0
   16.3782  -18.9718   21.5527 N   0  0  0  0  0  0  0  0  0  0  0  0
   15.8140  -20.2027   22.0220 C   0  0  0  0  0  0  0  0  0  0  0  0
   16.3089  -21.3216   21.6362 N   0  0  0  0  0  0  0  0  0  0  0  0
   14.7143  -20.1652   22.9064 N   0  0  0  0  0  0  0  0  0  0  0  0
   14.1708  -18.8982   23.3323 C   0  0  0  0  0  0  0  0  0  0  0  0
   12.9072  -19.1632   24.1140 C   0  0  0  0  0  0  0  0  0  0  0  0
   12.0102  -17.9806   24.0410 C   0  0  0  0  0  0  0  0  0  0  0  0
   10.7289  -18.1433   24.8408 C   0  0  2  0  0  0  0  0  0  0  0  0
   10.0825  -16.8175   24.7860 N   0  0  0  0  0  0  0  0  0  0  0  0
   11.0218  -18.4329   26.2539 C   0  0  0  0  0  0  0  0  0  0  0  0
   10.8551  -17.5911   27.1699 O   0  0  0  0  0  0  0  0  0  0  0  0
   11.5007  -19.6704   26.6354 O   0  0  0  0  0  0  0  0  0  0  0  0
  2  1  1  6
  3  2  1  0
  4  2  1  0
  4  5  1  1
  6  4  1  0
  7  6  2  0
  8  6  1  0
  9  8  1  0
 10 11  1  0
  9 10  1  1
 11 12  2  0
 12 13  1  0
 14 13  2  0
 15 14  1  0
 16 11  1  0
 16 15  2  0
 17  9  1  0
 17 27  1  0
 18 17  2  0
 19 20  1  0
 20 22  1  0
 21 20  2  0
 22 23  1  0
 23 24  1  0
 24 25  1  0
 26 25  1  6
 26 27  1  0
 26 28  1  0
 28 30  1  0
 29 28  2  0
M  END
$$$$
