VFR.pdb
     RDKit          3D

 30 30  0  0  1  0  0  0  0  0999 V2000
    8.9657  -12.4610   20.0652 C   0  0  0  0  0  0  0  0  0  0  0  0
    7.7145  -13.2857   20.1560 C   0  0  1  0  0  0  0  0  0  0  0  0
    6.8693  -13.3007   18.9359 C   0  0  0  0  0  0  0  0  0  0  0  0
    8.0986  -14.6588   20.6527 C   0  0  2  0  0  0  0  0  0  0  0  0
    6.8144  -15.3774   20.7941 N   0  0  0  0  0  0  0  0  0  0  0  0
    8.7400  -14.6724   21.9714 C   0  0  0  0  0  0  0  0  0  0  0  0
    9.9700  -14.3408   22.1113 O   0  0  0  0  0  0  0  0  0  0  0  0
    8.0826  -15.0410   23.1811 N   0  0  0  0  0  0  0  0  0  0  0  0
    8.7860  -15.1065   24.4597 C   0  0  1  0  0  0  0  0  0  0  0  0
    7.8732  -14.7308   25.5979 C   0  0  0  0  0  0  0  0  0  0  0  0
    8.5475  -14.6729   26.8938 C   0  0  0  0  0  0  0  0  0  0  0  0
    8.7401  -15.8079   27.6422 C   0  0  0  0  0  0  0  0  0  0  0  0
    9.3862  -15.7250   28.8768 C   0  0  0  0  0  0  0  0  0  0  0  0
    9.8391  -14.5203   29.3662 C   0  0  0  0  0  0  0  0  0  0  0  0
    9.6551  -13.3761   28.6312 C   0  0  0  0  0  0  0  0  0  0  0  0
    9.0164  -13.4801   27.4180 C   0  0  0  0  0  0  0  0  0  0  0  0
    9.3904  -16.4165   24.6529 C   0  0  0  0  0  0  0  0  0  0  0  0
    8.7108  -17.5012   24.6727 O   0  0  0  0  0  0  0  0  0  0  0  0
   11.1007  -17.7086   19.3765 N   0  0  0  0  0  0  0  0  0  0  0  0
   11.6114  -19.0248   19.6223 C   0  0  0  0  0  0  0  0  0  0  0  0
   11.2571  -19.9999   18.8679 N   0  0  0  0  0  0  0  0  0  0  0  0
   12.5015  -19.2299   20.6988 N   0  0  0  0  0  0  0  0  0  0  0  0
   12.8496  -18.1331   21.5693 C   0  0  0  0  0  0  0  0  0  0  0  0
   11.7715  -17.9989   22.6170 C   0  0  0  0  0  0  0  0  0  0  0  0
   12.3642  -18.1368   23.9728 C   0  0  0  0  0  0  0  0  0  0  0  0
   11.3649  -17.9134   25.0951 C   0  0  2  0  0  0  0  0  0  0  0  0
   10.7979  -16.5765   24.8308 N   0  0  0  0  0  0  0  0  0  0  0  0
   12.0418  -17.8549   26.4008 C   0  0  0  0  0  0  0  0  0  0  0  0
   12.2742  -16.7764   26.9993 O   0  0  0  0  0  0  0  0  0  0  0  0
   12.4555  -19.0106   27.0328 O   0  0  0  0  0  0  0  0  0  0  0  0
  2  1  1  6
  3  2  1  0
  4  2  1  0
  4  5  1  1
  6  4  1  0
  7  6  2  0
  8  6  1  0
  9  8  1  0
 10 11  1  0
  9 10  1  1
 11 12  2  0
 12 13  1  0
 14 13  2  0
 15 14  1  0
 16 11  1  0
 16 15  2  0
 17  9  1  0
 17 27  1  0
 18 17  2  0
 19 20  1  0
 20 22  1  0
 21 20  2  0
 22 23  1  0
 23 24  1  0
 24 25  1  0
 26 25  1  6
 26 27  1  0
 26 28  1  0
 28 30  1  0
 29 28  2  0
M  END
$$$$
