VFR.pdb
     RDKit          3D

 30 30  0  0  1  0  0  0  0  0999 V2000
    7.3600  -17.7346   20.0235 C   0  0  0  0  0  0  0  0  0  0  0  0
    8.0387  -16.8572   19.0118 C   0  0  1  0  0  0  0  0  0  0  0  0
    7.7851  -17.2055   17.5915 C   0  0  0  0  0  0  0  0  0  0  0  0
    7.7235  -15.4214   19.3568 C   0  0  2  0  0  0  0  0  0  0  0  0
    8.5553  -14.6238   18.4308 N   0  0  0  0  0  0  0  0  0  0  0  0
    8.1021  -15.0242   20.7167 C   0  0  0  0  0  0  0  0  0  0  0  0
    9.3270  -15.0412   21.0932 O   0  0  0  0  0  0  0  0  0  0  0  0
    7.1794  -14.5958   21.7150 N   0  0  0  0  0  0  0  0  0  0  0  0
    7.6039  -14.2500   23.0693 C   0  0  1  0  0  0  0  0  0  0  0  0
    6.5922  -13.3588   23.7414 C   0  0  0  0  0  0  0  0  0  0  0  0
    6.9607  -12.9793   25.1043 C   0  0  0  0  0  0  0  0  0  0  0  0
    7.5118  -11.7504   25.3718 C   0  0  0  0  0  0  0  0  0  0  0  0
    7.8556  -11.4131   26.6819 C   0  0  0  0  0  0  0  0  0  0  0  0
    7.6529  -12.2923   27.7221 C   0  0  0  0  0  0  0  0  0  0  0  0
    7.1030  -13.5246   27.4727 C   0  0  0  0  0  0  0  0  0  0  0  0
    6.7718  -13.8365   26.1752 C   0  0  0  0  0  0  0  0  0  0  0  0
    7.8802  -15.4483   23.8483 C   0  0  0  0  0  0  0  0  0  0  0  0
    7.0446  -16.4110   23.9654 O   0  0  0  0  0  0  0  0  0  0  0  0
   14.0796  -19.6538   21.7183 N   0  0  0  0  0  0  0  0  0  0  0  0
   13.9333  -19.8159   23.1346 C   0  0  0  0  0  0  0  0  0  0  0  0
   14.5189  -20.7889   23.7312 N   0  0  0  0  0  0  0  0  0  0  0  0
   13.1407  -18.8972   23.8563 N   0  0  0  0  0  0  0  0  0  0  0  0
   12.4507  -17.8361   23.1637 C   0  0  0  0  0  0  0  0  0  0  0  0
   11.6467  -17.0548   24.1742 C   0  0  0  0  0  0  0  0  0  0  0  0
   10.3053  -17.6728   24.3399 C   0  0  0  0  0  0  0  0  0  0  0  0
    9.3871  -16.8870   25.2604 C   0  0  2  0  0  0  0  0  0  0  0  0
    9.1180  -15.6294   24.5362 N   0  0  0  0  0  0  0  0  0  0  0  0
   10.0721  -16.5355   26.5149 C   0  0  0  0  0  0  0  0  0  0  0  0
   10.4340  -15.3651   26.7879 O   0  0  0  0  0  0  0  0  0  0  0  0
   10.3480  -17.5014   27.4621 O   0  0  0  0  0  0  0  0  0  0  0  0
  2  1  1  1
  3  2  1  0
  4  2  1  0
  4  5  1  6
  6  4  1  0
  7  6  2  0
  8  6  1  0
  9  8  1  0
 10 11  1  0
  9 10  1  1
 11 12  2  0
 12 13  1  0
 14 13  2  0
 15 14  1  0
 16 11  1  0
 16 15  2  0
 17  9  1  0
 17 27  1  0
 18 17  2  0
 19 20  1  0
 20 22  1  0
 21 20  2  0
 22 23  1  0
 23 24  1  0
 24 25  1  0
 26 25  1  6
 26 27  1  0
 26 28  1  0
 28 30  1  0
 29 28  2  0
M  END
$$$$
