VFR.pdb
     RDKit          3D

 30 30  0  0  1  0  0  0  0  0999 V2000
    8.1519  -18.6324   18.8006 C   0  0  0  0  0  0  0  0  0  0  0  0
    8.5180  -18.1051   20.1577 C   0  0  1  0  0  0  0  0  0  0  0  0
    9.5908  -18.8487   20.8641 C   0  0  0  0  0  0  0  0  0  0  0  0
    8.7836  -16.6247   20.0244 C   0  0  2  0  0  0  0  0  0  0  0  0
   10.0729  -16.5400   19.3062 N   0  0  0  0  0  0  0  0  0  0  0  0
    8.9602  -15.9202   21.2983 C   0  0  0  0  0  0  0  0  0  0  0  0
   10.1070  -15.8611   21.8672 O   0  0  0  0  0  0  0  0  0  0  0  0
    7.9130  -15.2564   22.0014 N   0  0  0  0  0  0  0  0  0  0  0  0
    8.1277  -14.6243   23.3008 C   0  0  1  0  0  0  0  0  0  0  0  0
    6.9869  -13.7037   23.6484 C   0  0  0  0  0  0  0  0  0  0  0  0
    7.1004  -13.1082   24.9788 C   0  0  0  0  0  0  0  0  0  0  0  0
    8.0042  -12.1055   25.2302 C   0  0  0  0  0  0  0  0  0  0  0  0
    8.0930  -11.5545   26.5096 C   0  0  0  0  0  0  0  0  0  0  0  0
    7.2877  -11.9972   27.5351 C   0  0  0  0  0  0  0  0  0  0  0  0
    6.3789  -12.9985   27.3014 C   0  0  0  0  0  0  0  0  0  0  0  0
    6.3078  -13.5272   26.0341 C   0  0  0  0  0  0  0  0  0  0  0  0
    8.3571  -15.6248   24.3329 C   0  0  0  0  0  0  0  0  0  0  0  0
    7.5367  -16.5775   24.5741 O   0  0  0  0  0  0  0  0  0  0  0  0
   14.8097  -19.5203   22.8299 N   0  0  0  0  0  0  0  0  0  0  0  0
   13.5759  -19.5403   22.1012 C   0  0  0  0  0  0  0  0  0  0  0  0
   13.5363  -20.0476   20.9237 N   0  0  0  0  0  0  0  0  0  0  0  0
   12.4155  -18.9967   22.6936 N   0  0  0  0  0  0  0  0  0  0  0  0
   12.4605  -18.4938   24.0453 C   0  0  0  0  0  0  0  0  0  0  0  0
   11.0706  -18.0510   24.4328 C   0  0  0  0  0  0  0  0  0  0  0  0
   11.1216  -17.2766   25.7001 C   0  0  0  0  0  0  0  0  0  0  0  0
    9.7774  -16.7000   26.1109 C   0  0  2  0  0  0  0  0  0  0  0  0
    9.5285  -15.6087   25.1489 N   0  0  0  0  0  0  0  0  0  0  0  0
    9.8490  -16.0977   27.4520 C   0  0  0  0  0  0  0  0  0  0  0  0
   10.0066  -14.8664   27.6376 O   0  0  0  0  0  0  0  0  0  0  0  0
    9.7417  -16.8815   28.5836 O   0  0  0  0  0  0  0  0  0  0  0  0
  2  1  1  6
  3  2  1  0
  4  2  1  0
  4  5  1  6
  6  4  1  0
  7  6  2  0
  8  6  1  0
  9  8  1  0
 10 11  1  0
  9 10  1  1
 11 12  2  0
 12 13  1  0
 14 13  2  0
 15 14  1  0
 16 11  1  0
 16 15  2  0
 17  9  1  0
 17 27  1  0
 18 17  2  0
 19 20  1  0
 20 22  1  0
 21 20  2  0
 22 23  1  0
 23 24  1  0
 24 25  1  0
 26 25  1  6
 26 27  1  0
 26 28  1  0
 28 30  1  0
 29 28  2  0
M  END
$$$$
