VFR.pdb
     RDKit          3D

 30 30  0  0  1  0  0  0  0  0999 V2000
    8.8732  -11.9561   19.2379 C   0  0  0  0  0  0  0  0  0  0  0  0
    8.0991  -13.1961   18.8960 C   0  0  1  0  0  0  0  0  0  0  0  0
    7.8041  -13.3878   17.4540 C   0  0  0  0  0  0  0  0  0  0  0  0
    8.7953  -14.3706   19.5408 C   0  0  2  0  0  0  0  0  0  0  0  0
    7.9009  -15.5200   19.2873 N   0  0  0  0  0  0  0  0  0  0  0  0
    8.9483  -14.2646   20.9954 C   0  0  0  0  0  0  0  0  0  0  0  0
    9.9750  -13.6978   21.5123 O   0  0  0  0  0  0  0  0  0  0  0  0
    8.0051  -14.7622   21.9411 N   0  0  0  0  0  0  0  0  0  0  0  0
    8.1748  -14.5767   23.3801 C   0  0  1  0  0  0  0  0  0  0  0  0
    6.8510  -14.3177   24.0510 C   0  0  0  0  0  0  0  0  0  0  0  0
    6.9764  -13.8238   25.4213 C   0  0  0  0  0  0  0  0  0  0  0  0
    6.6896  -12.5172   25.7312 C   0  0  0  0  0  0  0  0  0  0  0  0
    6.8183  -12.0708   27.0475 C   0  0  0  0  0  0  0  0  0  0  0  0
    7.2300  -12.9181   28.0518 C   0  0  0  0  0  0  0  0  0  0  0  0
    7.5207  -14.2270   27.7597 C   0  0  0  0  0  0  0  0  0  0  0  0
    7.3873  -14.6460   26.4569 C   0  0  0  0  0  0  0  0  0  0  0  0
    8.8747  -15.7086   23.9700 C   0  0  0  0  0  0  0  0  0  0  0  0
    8.3647  -16.8803   24.0460 O   0  0  0  0  0  0  0  0  0  0  0  0
   13.0038  -14.4324   18.9491 N   0  0  0  0  0  0  0  0  0  0  0  0
   13.0357  -15.3115   20.0804 C   0  0  0  0  0  0  0  0  0  0  0  0
   12.4761  -16.4637   20.0114 N   0  0  0  0  0  0  0  0  0  0  0  0
   13.6856  -14.8930   21.2617 N   0  0  0  0  0  0  0  0  0  0  0  0
   13.7207  -15.7599   22.4146 C   0  0  0  0  0  0  0  0  0  0  0  0
   12.3167  -15.8899   22.9529 C   0  0  0  0  0  0  0  0  0  0  0  0
   12.3443  -16.5545   24.2818 C   0  0  0  0  0  0  0  0  0  0  0  0
   10.9632  -16.7869   24.8704 C   0  0  2  0  0  0  0  0  0  0  0  0
   10.1927  -15.5824   24.5043 N   0  0  0  0  0  0  0  0  0  0  0  0
   11.0186  -16.8450   26.3401 C   0  0  0  0  0  0  0  0  0  0  0  0
   11.5955  -17.7691   26.9635 O   0  0  0  0  0  0  0  0  0  0  0  0
   10.4258  -15.8620   27.1073 O   0  0  0  0  0  0  0  0  0  0  0  0
  2  1  1  6
  3  2  1  0
  4  2  1  0
  4  5  1  1
  6  4  1  0
  7  6  2  0
  8  6  1  0
  9  8  1  0
 10 11  1  0
  9 10  1  1
 11 12  2  0
 12 13  1  0
 14 13  2  0
 15 14  1  0
 16 11  1  0
 16 15  2  0
 17  9  1  0
 17 27  1  0
 18 17  2  0
 19 20  1  0
 20 22  1  0
 21 20  2  0
 22 23  1  0
 23 24  1  0
 24 25  1  0
 26 25  1  6
 26 27  1  0
 26 28  1  0
 28 30  1  0
 29 28  2  0
M  END
$$$$
