VFR.pdb
     RDKit          3D

 30 30  0  0  1  0  0  0  0  0999 V2000
    8.6081  -12.3386   20.3112 C   0  0  0  0  0  0  0  0  0  0  0  0
    7.5314  -13.3848   20.3065 C   0  0  1  0  0  0  0  0  0  0  0  0
    6.7614  -13.5034   19.0432 C   0  0  0  0  0  0  0  0  0  0  0  0
    8.1434  -14.6829   20.7758 C   0  0  2  0  0  0  0  0  0  0  0  0
    7.0200  -15.6438   20.7840 N   0  0  0  0  0  0  0  0  0  0  0  0
    8.6800  -14.6455   22.1401 C   0  0  0  0  0  0  0  0  0  0  0  0
    9.7584  -14.0073   22.4087 O   0  0  0  0  0  0  0  0  0  0  0  0
    8.0767  -15.2903   23.2588 N   0  0  0  0  0  0  0  0  0  0  0  0
    8.6712  -15.2513   24.5927 C   0  0  1  0  0  0  0  0  0  0  0  0
    7.6063  -15.2326   25.6581 C   0  0  0  0  0  0  0  0  0  0  0  0
    7.1786  -13.8861   26.0342 C   0  0  0  0  0  0  0  0  0  0  0  0
    5.8478  -13.5827   26.1838 C   0  0  0  0  0  0  0  0  0  0  0  0
    5.4660  -12.2889   26.5427 C   0  0  0  0  0  0  0  0  0  0  0  0
    6.4016  -11.3006   26.7521 C   0  0  0  0  0  0  0  0  0  0  0  0
    7.7359  -11.5865   26.6070 C   0  0  0  0  0  0  0  0  0  0  0  0
    8.0902  -12.8671   26.2530 C   0  0  0  0  0  0  0  0  0  0  0  0
    9.6084  -16.3500   24.7753 C   0  0  0  0  0  0  0  0  0  0  0  0
   10.4327  -16.4072   25.7531 O   0  0  0  0  0  0  0  0  0  0  0  0
   15.8420  -19.4389   24.6222 N   0  0  0  0  0  0  0  0  0  0  0  0
   15.9317  -19.9837   23.2998 C   0  0  0  0  0  0  0  0  0  0  0  0
   16.7603  -20.9315   23.0531 N   0  0  0  0  0  0  0  0  0  0  0  0
   15.1025  -19.4651   22.2818 N   0  0  0  0  0  0  0  0  0  0  0  0
   14.2107  -18.3664   22.5641 C   0  0  0  0  0  0  0  0  0  0  0  0
   13.0860  -18.8794   23.4301 C   0  0  0  0  0  0  0  0  0  0  0  0
   11.8820  -18.0265   23.2527 C   0  0  0  0  0  0  0  0  0  0  0  0
   10.6780  -18.5079   24.0443 C   0  0  2  0  0  0  0  0  0  0  0  0
    9.6651  -17.4492   23.8660 N   0  0  0  0  0  0  0  0  0  0  0  0
   10.9873  -18.5847   25.4812 C   0  0  0  0  0  0  0  0  0  0  0  0
   10.5350  -17.7672   26.3194 O   0  0  0  0  0  0  0  0  0  0  0  0
   11.8043  -19.5826   25.9742 O   0  0  0  0  0  0  0  0  0  0  0  0
  2  1  1  6
  3  2  1  0
  4  2  1  0
  4  5  1  1
  6  4  1  0
  7  6  2  0
  8  6  1  0
  9  8  1  0
 10 11  1  0
  9 10  1  1
 11 12  2  0
 12 13  1  0
 14 13  2  0
 15 14  1  0
 16 11  1  0
 16 15  2  0
 17  9  1  0
 17 27  1  0
 18 17  2  0
 19 20  1  0
 20 22  1  0
 21 20  2  0
 22 23  1  0
 23 24  1  0
 24 25  1  0
 26 25  1  6
 26 27  1  0
 26 28  1  0
 28 30  1  0
 29 28  2  0
M  END
$$$$
