VFR.pdb
     RDKit          3D

 30 30  0  0  1  0  0  0  0  0999 V2000
    7.7280  -20.7449   23.3401 C   0  0  0  0  0  0  0  0  0  0  0  0
    7.1825  -20.5115   21.9611 C   0  0  1  0  0  0  0  0  0  0  0  0
    6.6539  -21.7145   21.2710 C   0  0  0  0  0  0  0  0  0  0  0  0
    6.2000  -19.3675   22.0381 C   0  0  2  0  0  0  0  0  0  0  0  0
    5.8224  -19.1045   20.6332 N   0  0  0  0  0  0  0  0  0  0  0  0
    6.7583  -18.1194   22.5683 C   0  0  0  0  0  0  0  0  0  0  0  0
    7.5375  -17.3901   21.8588 O   0  0  0  0  0  0  0  0  0  0  0  0
    6.4980  -17.6140   23.8754 N   0  0  0  0  0  0  0  0  0  0  0  0
    7.1424  -16.4059   24.3846 C   0  0  1  0  0  0  0  0  0  0  0  0
    6.2285  -15.6608   25.3222 C   0  0  0  0  0  0  0  0  0  0  0  0
    6.8367  -14.4663   25.9057 C   0  0  0  0  0  0  0  0  0  0  0  0
    6.7259  -13.2437   25.2906 C   0  0  0  0  0  0  0  0  0  0  0  0
    7.3168  -12.1188   25.8684 C   0  0  0  0  0  0  0  0  0  0  0  0
    8.0149  -12.2075   27.0520 C   0  0  0  0  0  0  0  0  0  0  0  0
    8.1354  -13.4215   27.6803 C   0  0  0  0  0  0  0  0  0  0  0  0
    7.5458  -14.5166   27.0941 C   0  0  0  0  0  0  0  0  0  0  0  0
    8.4215  -16.7218   25.0036 C   0  0  0  0  0  0  0  0  0  0  0  0
    8.5664  -17.6581   25.8645 O   0  0  0  0  0  0  0  0  0  0  0  0
   15.9673  -15.5608   24.6501 N   0  0  0  0  0  0  0  0  0  0  0  0
   16.2357  -16.3142   23.4610 C   0  0  0  0  0  0  0  0  0  0  0  0
   17.3797  -16.8725   23.3018 N   0  0  0  0  0  0  0  0  0  0  0  0
   15.2313  -16.4302   22.4758 N   0  0  0  0  0  0  0  0  0  0  0  0
   13.9688  -15.7526   22.6459 C   0  0  0  0  0  0  0  0  0  0  0  0
   13.1959  -16.4565   23.7345 C   0  0  0  0  0  0  0  0  0  0  0  0
   11.7839  -15.9930   23.7327 C   0  0  0  0  0  0  0  0  0  0  0  0
   10.9293  -16.6535   24.8010 C   0  0  2  0  0  0  0  0  0  0  0  0
    9.6109  -16.0005   24.6823 N   0  0  0  0  0  0  0  0  0  0  0  0
   11.4470  -16.3602   26.1472 C   0  0  0  0  0  0  0  0  0  0  0  0
   10.9650  -15.4635   26.8814 O   0  0  0  0  0  0  0  0  0  0  0  0
   12.5061  -17.0775   26.6670 O   0  0  0  0  0  0  0  0  0  0  0  0
  2  1  1  1
  3  2  1  0
  4  2  1  0
  4  5  1  6
  6  4  1  0
  7  6  2  0
  8  6  1  0
  9  8  1  0
 10 11  1  0
  9 10  1  1
 11 12  2  0
 12 13  1  0
 14 13  2  0
 15 14  1  0
 16 11  1  0
 16 15  2  0
 17  9  1  0
 17 27  1  0
 18 17  2  0
 19 20  1  0
 20 22  1  0
 21 20  2  0
 22 23  1  0
 23 24  1  0
 24 25  1  0
 26 25  1  6
 26 27  1  0
 26 28  1  0
 28 30  1  0
 29 28  2  0
M  END
$$$$
