VFR.pdb
     RDKit          3D

 30 30  0  0  1  0  0  0  0  0999 V2000
    5.4757  -22.7276   23.8579 C   0  0  0  0  0  0  0  0  0  0  0  0
    6.1346  -21.3787   23.8633 C   0  0  1  0  0  0  0  0  0  0  0  0
    7.0620  -21.1160   22.7347 C   0  0  0  0  0  0  0  0  0  0  0  0
    5.0551  -20.3354   24.0254 C   0  0  2  0  0  0  0  0  0  0  0  0
    4.1877  -20.5086   22.8409 N   0  0  0  0  0  0  0  0  0  0  0  0
    5.5371  -18.9507   23.9998 C   0  0  0  0  0  0  0  0  0  0  0  0
    5.6162  -18.2988   22.8993 O   0  0  0  0  0  0  0  0  0  0  0  0
    5.9486  -18.2216   25.1533 N   0  0  0  0  0  0  0  0  0  0  0  0
    6.6889  -16.9659   25.0565 C   0  0  1  0  0  0  0  0  0  0  0  0
    6.8109  -16.3057   26.4051 C   0  0  0  0  0  0  0  0  0  0  0  0
    7.1089  -14.8763   26.3318 C   0  0  0  0  0  0  0  0  0  0  0  0
    6.2199  -13.9967   25.7648 C   0  0  0  0  0  0  0  0  0  0  0  0
    6.5291  -12.6367   25.7067 C   0  0  0  0  0  0  0  0  0  0  0  0
    7.7159  -12.1522   26.2094 C   0  0  0  0  0  0  0  0  0  0  0  0
    8.6157  -13.0173   26.7796 C   0  0  0  0  0  0  0  0  0  0  0  0
    8.2914  -14.3526   26.8266 C   0  0  0  0  0  0  0  0  0  0  0  0
    7.9863  -17.1755   24.4307 C   0  0  0  0  0  0  0  0  0  0  0  0
    8.2578  -18.2033   23.7174 O   0  0  0  0  0  0  0  0  0  0  0  0
    8.8681  -13.9460   17.8253 N   0  0  0  0  0  0  0  0  0  0  0  0
    8.4287  -13.0436   18.8482 C   0  0  0  0  0  0  0  0  0  0  0  0
    7.9584  -11.8938   18.5283 N   0  0  0  0  0  0  0  0  0  0  0  0
    8.5218  -13.4357   20.2012 N   0  0  0  0  0  0  0  0  0  0  0  0
    9.8020  -13.7868   20.7667 C   0  0  0  0  0  0  0  0  0  0  0  0
    9.5908  -14.1844   22.2072 C   0  0  0  0  0  0  0  0  0  0  0  0
    9.5206  -15.6647   22.3180 C   0  0  0  0  0  0  0  0  0  0  0  0
   10.1516  -16.2066   23.5893 C   0  0  2  0  0  0  0  0  0  0  0  0
    9.0502  -16.2339   24.5716 N   0  0  0  0  0  0  0  0  0  0  0  0
   11.1780  -15.2854   24.1033 C   0  0  0  0  0  0  0  0  0  0  0  0
   10.9323  -14.4028   24.9612 O   0  0  0  0  0  0  0  0  0  0  0  0
   12.4809  -15.3591   23.6525 O   0  0  0  0  0  0  0  0  0  0  0  0
  2  1  1  6
  3  2  1  0
  4  2  1  0
  4  5  1  6
  6  4  1  0
  7  6  2  0
  8  6  1  0
  9  8  1  0
 10 11  1  0
  9 10  1  1
 11 12  2  0
 12 13  1  0
 14 13  2  0
 15 14  1  0
 16 11  1  0
 16 15  2  0
 17  9  1  0
 17 27  1  0
 18 17  2  0
 19 20  1  0
 20 22  1  0
 21 20  2  0
 22 23  1  0
 23 24  1  0
 24 25  1  0
 26 25  1  6
 26 27  1  0
 26 28  1  0
 28 30  1  0
 29 28  2  0
M  END
$$$$
