VFR.pdb
     RDKit          3D

 30 30  0  0  1  0  0  0  0  0999 V2000
    8.3851  -16.6246   19.6558 C   0  0  0  0  0  0  0  0  0  0  0  0
    8.5867  -15.4553   18.7361 C   0  0  1  0  0  0  0  0  0  0  0  0
    8.2565  -15.6999   17.3099 C   0  0  0  0  0  0  0  0  0  0  0  0
    7.8753  -14.2657   19.3349 C   0  0  2  0  0  0  0  0  0  0  0  0
    8.3853  -13.1045   18.5753 N   0  0  0  0  0  0  0  0  0  0  0  0
    8.1844  -14.0182   20.7469 C   0  0  0  0  0  0  0  0  0  0  0  0
    9.3779  -13.7428   21.1236 O   0  0  0  0  0  0  0  0  0  0  0  0
    7.2234  -14.0575   21.7987 N   0  0  0  0  0  0  0  0  0  0  0  0
    7.5971  -13.8849   23.2004 C   0  0  1  0  0  0  0  0  0  0  0  0
    6.4946  -13.2099   23.9740 C   0  0  0  0  0  0  0  0  0  0  0  0
    6.8007  -13.0297   25.3922 C   0  0  0  0  0  0  0  0  0  0  0  0
    6.2607  -13.8598   26.3433 C   0  0  0  0  0  0  0  0  0  0  0  0
    6.5685  -13.6656   27.6909 C   0  0  0  0  0  0  0  0  0  0  0  0
    7.4090  -12.6515   28.0924 C   0  0  0  0  0  0  0  0  0  0  0  0
    7.9576  -11.8127   27.1550 C   0  0  0  0  0  0  0  0  0  0  0  0
    7.6413  -12.0216   25.8333 C   0  0  0  0  0  0  0  0  0  0  0  0
    7.9830  -15.1565   23.7947 C   0  0  0  0  0  0  0  0  0  0  0  0
    7.2498  -16.2042   23.7352 O   0  0  0  0  0  0  0  0  0  0  0  0
   11.3516  -21.3805   23.2421 N   0  0  0  0  0  0  0  0  0  0  0  0
   11.4551  -20.7574   21.9557 C   0  0  0  0  0  0  0  0  0  0  0  0
   11.1766  -21.4256   20.8967 N   0  0  0  0  0  0  0  0  0  0  0  0
   11.8658  -19.4092   21.8727 N   0  0  0  0  0  0  0  0  0  0  0  0
   12.1512  -18.6642   23.0749 C   0  0  0  0  0  0  0  0  0  0  0  0
   10.8460  -18.3785   23.7767 C   0  0  0  0  0  0  0  0  0  0  0  0
   10.8751  -17.0131   24.3625 C   0  0  0  0  0  0  0  0  0  0  0  0
    9.5833  -16.6279   25.0631 C   0  0  2  0  0  0  0  0  0  0  0  0
    9.2212  -15.3182   24.4869 N   0  0  0  0  0  0  0  0  0  0  0  0
    9.8035  -16.4296   26.5048 C   0  0  0  0  0  0  0  0  0  0  0  0
   10.1131  -15.3184   26.9995 O   0  0  0  0  0  0  0  0  0  0  0  0
    9.6735  -17.4819   27.3892 O   0  0  0  0  0  0  0  0  0  0  0  0
  2  1  1  1
  3  2  1  0
  4  2  1  0
  4  5  1  6
  6  4  1  0
  7  6  2  0
  8  6  1  0
  9  8  1  0
 10 11  1  0
  9 10  1  1
 11 12  2  0
 12 13  1  0
 14 13  2  0
 15 14  1  0
 16 11  1  0
 16 15  2  0
 17  9  1  0
 17 27  1  0
 18 17  2  0
 19 20  1  0
 20 22  1  0
 21 20  2  0
 22 23  1  0
 23 24  1  0
 24 25  1  0
 26 25  1  6
 26 27  1  0
 26 28  1  0
 28 30  1  0
 29 28  2  0
M  END
$$$$
