VFR.pdb
     RDKit          3D

 30 30  0  0  1  0  0  0  0  0999 V2000
    8.1461  -19.0365   19.2173 C   0  0  0  0  0  0  0  0  0  0  0  0
    8.7656  -18.4091   20.4323 C   0  0  1  0  0  0  0  0  0  0  0  0
   10.0111  -19.0531   20.9192 C   0  0  0  0  0  0  0  0  0  0  0  0
    8.9025  -16.9283   20.1714 C   0  0  2  0  0  0  0  0  0  0  0  0
   10.1438  -16.8021   19.3785 N   0  0  0  0  0  0  0  0  0  0  0  0
    9.0833  -16.1115   21.3758 C   0  0  0  0  0  0  0  0  0  0  0  0
   10.2318  -16.0021   21.9337 O   0  0  0  0  0  0  0  0  0  0  0  0
    8.0386  -15.3859   22.0190 N   0  0  0  0  0  0  0  0  0  0  0  0
    8.2305  -14.7236   23.3069 C   0  0  1  0  0  0  0  0  0  0  0  0
    7.1333  -13.7252   23.5694 C   0  0  0  0  0  0  0  0  0  0  0  0
    7.2359  -13.0728   24.8737 C   0  0  0  0  0  0  0  0  0  0  0  0
    8.2175  -12.1464   25.1259 C   0  0  0  0  0  0  0  0  0  0  0  0
    8.2939  -11.5385   26.3801 C   0  0  0  0  0  0  0  0  0  0  0  0
    7.3994  -11.8493   27.3798 C   0  0  0  0  0  0  0  0  0  0  0  0
    6.4120  -12.7729   27.1449 C   0  0  0  0  0  0  0  0  0  0  0  0
    6.3547  -13.3596   25.9027 C   0  0  0  0  0  0  0  0  0  0  0  0
    8.3497  -15.7001   24.3798 C   0  0  0  0  0  0  0  0  0  0  0  0
    7.4137  -16.5188   24.6837 O   0  0  0  0  0  0  0  0  0  0  0  0
   14.4337  -17.4465   21.9652 N   0  0  0  0  0  0  0  0  0  0  0  0
   13.3194  -18.2675   21.5940 C   0  0  0  0  0  0  0  0  0  0  0  0
   13.2752  -18.7962   20.4260 N   0  0  0  0  0  0  0  0  0  0  0  0
   12.2799  -18.4825   22.5247 N   0  0  0  0  0  0  0  0  0  0  0  0
   12.3040  -17.8149   23.8037 C   0  0  0  0  0  0  0  0  0  0  0  0
   11.0889  -18.2480   24.5872 C   0  0  0  0  0  0  0  0  0  0  0  0
   11.0291  -17.5104   25.8760 C   0  0  0  0  0  0  0  0  0  0  0  0
    9.6685  -16.8964   26.1587 C   0  0  2  0  0  0  0  0  0  0  0  0
    9.5349  -15.8103   25.1682 N   0  0  0  0  0  0  0  0  0  0  0  0
    9.6346  -16.2809   27.4952 C   0  0  0  0  0  0  0  0  0  0  0  0
    9.6475  -16.9535   28.5549 O   0  0  0  0  0  0  0  0  0  0  0  0
    9.5877  -14.9084   27.6383 O   0  0  0  0  0  0  0  0  0  0  0  0
  2  1  1  6
  3  2  1  0
  4  2  1  0
  4  5  1  6
  6  4  1  0
  7  6  2  0
  8  6  1  0
  9  8  1  0
 10 11  1  0
  9 10  1  1
 11 12  2  0
 12 13  1  0
 14 13  2  0
 15 14  1  0
 16 11  1  0
 16 15  2  0
 17  9  1  0
 17 27  1  0
 18 17  2  0
 19 20  1  0
 20 22  1  0
 21 20  2  0
 22 23  1  0
 23 24  1  0
 24 25  1  0
 26 25  1  6
 26 27  1  0
 26 28  1  0
 28 30  1  0
 29 28  2  0
M  END
$$$$
