VFR.pdb
     RDKit          3D

 30 30  0  0  1  0  0  0  0  0999 V2000
    8.7395  -12.0968   20.0609 C   0  0  0  0  0  0  0  0  0  0  0  0
    7.5629  -13.0252   19.9736 C   0  0  1  0  0  0  0  0  0  0  0  0
    6.7715  -12.9375   18.7210 C   0  0  0  0  0  0  0  0  0  0  0  0
    8.0460  -14.4186   20.2974 C   0  0  2  0  0  0  0  0  0  0  0  0
    6.8328  -15.2603   20.2259 N   0  0  0  0  0  0  0  0  0  0  0  0
    8.5923  -14.5753   21.6492 C   0  0  0  0  0  0  0  0  0  0  0  0
    9.7982  -14.2351   21.9181 O   0  0  0  0  0  0  0  0  0  0  0  0
    7.8625  -15.1008   22.7550 N   0  0  0  0  0  0  0  0  0  0  0  0
    8.4442  -15.2073   24.0907 C   0  0  1  0  0  0  0  0  0  0  0  0
    7.3713  -15.2098   25.1483 C   0  0  0  0  0  0  0  0  0  0  0  0
    7.0566  -13.8791   25.6655 C   0  0  0  0  0  0  0  0  0  0  0  0
    8.0454  -13.0516   26.1375 C   0  0  0  0  0  0  0  0  0  0  0  0
    7.7179  -11.7859   26.6266 C   0  0  0  0  0  0  0  0  0  0  0  0
    6.4140  -11.3438   26.6470 C   0  0  0  0  0  0  0  0  0  0  0  0
    5.4132  -12.1578   26.1791 C   0  0  0  0  0  0  0  0  0  0  0  0
    5.7577  -13.4004   25.7017 C   0  0  0  0  0  0  0  0  0  0  0  0
    9.3106  -16.3730   24.1878 C   0  0  0  0  0  0  0  0  0  0  0  0
    8.9090  -17.5623   23.9364 O   0  0  0  0  0  0  0  0  0  0  0  0
   15.5610  -14.5465   20.7483 N   0  0  0  0  0  0  0  0  0  0  0  0
   14.4766  -15.2966   20.1869 C   0  0  0  0  0  0  0  0  0  0  0  0
   13.9370  -14.9158   19.0871 N   0  0  0  0  0  0  0  0  0  0  0  0
   14.0149  -16.4499   20.8574 N   0  0  0  0  0  0  0  0  0  0  0  0
   14.7130  -16.9384   22.0219 C   0  0  0  0  0  0  0  0  0  0  0  0
   13.7204  -17.6574   22.9026 C   0  0  0  0  0  0  0  0  0  0  0  0
   12.6634  -16.7129   23.3488 C   0  0  0  0  0  0  0  0  0  0  0  0
   11.6290  -17.3501   24.2611 C   0  0  2  0  0  0  0  0  0  0  0  0
   10.6815  -16.2614   24.5704 N   0  0  0  0  0  0  0  0  0  0  0  0
   12.2376  -17.7789   25.5308 C   0  0  0  0  0  0  0  0  0  0  0  0
   13.1011  -18.6873   25.5990 O   0  0  0  0  0  0  0  0  0  0  0  0
   11.8751  -17.1840   26.7227 O   0  0  0  0  0  0  0  0  0  0  0  0
  2  1  1  6
  3  2  1  0
  4  2  1  0
  4  5  1  1
  6  4  1  0
  7  6  2  0
  8  6  1  0
  9  8  1  0
 10 11  1  0
  9 10  1  1
 11 12  2  0
 12 13  1  0
 14 13  2  0
 15 14  1  0
 16 11  1  0
 16 15  2  0
 17  9  1  0
 17 27  1  0
 18 17  2  0
 19 20  1  0
 20 22  1  0
 21 20  2  0
 22 23  1  0
 23 24  1  0
 24 25  1  0
 26 25  1  6
 26 27  1  0
 26 28  1  0
 28 30  1  0
 29 28  2  0
M  END
$$$$
