VFR.pdb
     RDKit          3D

 30 30  0  0  1  0  0  0  0  0999 V2000
    7.1675  -15.6759   17.9260 C   0  0  0  0  0  0  0  0  0  0  0  0
    7.5712  -15.8159   19.3652 C   0  0  1  0  0  0  0  0  0  0  0  0
    8.4008  -17.0049   19.6834 C   0  0  0  0  0  0  0  0  0  0  0  0
    8.1815  -14.5069   19.8055 C   0  0  2  0  0  0  0  0  0  0  0  0
    9.4671  -14.4315   19.0797 N   0  0  0  0  0  0  0  0  0  0  0  0
    8.4965  -14.4320   21.2358 C   0  0  0  0  0  0  0  0  0  0  0  0
    9.6291  -14.8296   21.6846 O   0  0  0  0  0  0  0  0  0  0  0  0
    7.6074  -13.9277   22.2291 N   0  0  0  0  0  0  0  0  0  0  0  0
    7.9701  -13.8758   23.6433 C   0  0  1  0  0  0  0  0  0  0  0  0
    7.0069  -13.0132   24.4164 C   0  0  0  0  0  0  0  0  0  0  0  0
    7.3112  -12.9313   25.8440 C   0  0  0  0  0  0  0  0  0  0  0  0
    6.3679  -13.2548   26.7880 C   0  0  0  0  0  0  0  0  0  0  0  0
    6.6840  -13.1672   28.1448 C   0  0  0  0  0  0  0  0  0  0  0  0
    7.9313  -12.7602   28.5625 C   0  0  0  0  0  0  0  0  0  0  0  0
    8.8860  -12.4333   27.6326 C   0  0  0  0  0  0  0  0  0  0  0  0
    8.5539  -12.5265   26.3016 C   0  0  0  0  0  0  0  0  0  0  0  0
    8.0736  -15.2161   24.2018 C   0  0  0  0  0  0  0  0  0  0  0  0
    7.1255  -16.0737   24.1352 O   0  0  0  0  0  0  0  0  0  0  0  0
    9.9053  -20.4792   21.6951 N   0  0  0  0  0  0  0  0  0  0  0  0
   10.6330  -19.5957   20.8328 C   0  0  0  0  0  0  0  0  0  0  0  0
   10.4602  -19.6546   19.5630 N   0  0  0  0  0  0  0  0  0  0  0  0
   11.5359  -18.6687   21.3973 N   0  0  0  0  0  0  0  0  0  0  0  0
   11.6583  -18.5584   22.8307 C   0  0  0  0  0  0  0  0  0  0  0  0
   10.3908  -17.9400   23.3684 C   0  0  0  0  0  0  0  0  0  0  0  0
   10.5422  -17.6574   24.8195 C   0  0  0  0  0  0  0  0  0  0  0  0
    9.3114  -17.0220   25.4434 C   0  0  2  0  0  0  0  0  0  0  0  0
    9.2559  -15.6656   24.8640 N   0  0  0  0  0  0  0  0  0  0  0  0
    9.4742  -16.8735   26.8987 C   0  0  0  0  0  0  0  0  0  0  0  0
   10.1149  -15.9278   27.4189 O   0  0  0  0  0  0  0  0  0  0  0  0
    8.9143  -17.7886   27.7678 O   0  0  0  0  0  0  0  0  0  0  0  0
  2  1  1  6
  3  2  1  0
  4  2  1  0
  4  5  1  6
  6  4  1  0
  7  6  2  0
  8  6  1  0
  9  8  1  0
 10 11  1  0
  9 10  1  1
 11 12  2  0
 12 13  1  0
 14 13  2  0
 15 14  1  0
 16 11  1  0
 16 15  2  0
 17  9  1  0
 17 27  1  0
 18 17  2  0
 19 20  1  0
 20 22  1  0
 21 20  2  0
 22 23  1  0
 23 24  1  0
 24 25  1  0
 26 25  1  6
 26 27  1  0
 26 28  1  0
 28 30  1  0
 29 28  2  0
M  END
$$$$
