VFR.pdb
     RDKit          3D

 30 30  0  0  1  0  0  0  0  0999 V2000
    8.8212  -19.4348   21.7638 C   0  0  0  0  0  0  0  0  0  0  0  0
    9.0851  -18.8496   20.4067 C   0  0  1  0  0  0  0  0  0  0  0  0
    8.8873  -19.7742   19.2627 C   0  0  0  0  0  0  0  0  0  0  0  0
    8.3041  -17.5620   20.2966 C   0  0  2  0  0  0  0  0  0  0  0  0
    8.7719  -16.9483   19.0357 N   0  0  0  0  0  0  0  0  0  0  0  0
    8.5718  -16.5937   21.3649 C   0  0  0  0  0  0  0  0  0  0  0  0
    9.6922  -15.9749   21.4302 O   0  0  0  0  0  0  0  0  0  0  0  0
    7.6465  -16.2580   22.3957 N   0  0  0  0  0  0  0  0  0  0  0  0
    7.9749  -15.3093   23.4568 C   0  0  1  0  0  0  0  0  0  0  0  0
    6.7343  -14.6326   23.9791 C   0  0  0  0  0  0  0  0  0  0  0  0
    6.9864  -13.7406   25.1097 C   0  0  0  0  0  0  0  0  0  0  0  0
    6.7549  -14.1507   26.3995 C   0  0  0  0  0  0  0  0  0  0  0  0
    7.0031  -13.2790   27.4611 C   0  0  0  0  0  0  0  0  0  0  0  0
    7.4793  -12.0056   27.2430 C   0  0  0  0  0  0  0  0  0  0  0  0
    7.7164  -11.5794   25.9602 C   0  0  0  0  0  0  0  0  0  0  0  0
    7.4651  -12.4539   24.9293 C   0  0  0  0  0  0  0  0  0  0  0  0
    8.7315  -15.9586   24.5174 C   0  0  0  0  0  0  0  0  0  0  0  0
    8.3658  -17.0584   25.0611 O   0  0  0  0  0  0  0  0  0  0  0  0
   17.0345  -18.1642   24.9040 N   0  0  0  0  0  0  0  0  0  0  0  0
   16.7881  -16.7867   24.5948 C   0  0  0  0  0  0  0  0  0  0  0  0
   17.7599  -16.0253   24.2462 N   0  0  0  0  0  0  0  0  0  0  0  0
   15.4713  -16.2849   24.6803 N   0  0  0  0  0  0  0  0  0  0  0  0
   14.3506  -17.1934   24.7047 C   0  0  0  0  0  0  0  0  0  0  0  0
   13.3713  -16.7102   25.7465 C   0  0  0  0  0  0  0  0  0  0  0  0
   12.2397  -16.0064   25.0887 C   0  0  0  0  0  0  0  0  0  0  0  0
   10.9000  -16.2562   25.7601 C   0  0  2  0  0  0  0  0  0  0  0  0
    9.9468  -15.4046   25.0218 N   0  0  0  0  0  0  0  0  0  0  0  0
   10.9149  -15.7926   27.1570 C   0  0  0  0  0  0  0  0  0  0  0  0
   10.3948  -14.7096   27.5203 O   0  0  0  0  0  0  0  0  0  0  0  0
   11.5140  -16.5491   28.1444 O   0  0  0  0  0  0  0  0  0  0  0  0
  2  1  1  1
  3  2  1  0
  4  2  1  0
  4  5  1  6
  6  4  1  0
  7  6  2  0
  8  6  1  0
  9  8  1  0
 10 11  1  0
  9 10  1  1
 11 12  2  0
 12 13  1  0
 14 13  2  0
 15 14  1  0
 16 11  1  0
 16 15  2  0
 17  9  1  0
 17 27  1  0
 18 17  2  0
 19 20  1  0
 20 22  1  0
 21 20  2  0
 22 23  1  0
 23 24  1  0
 24 25  1  0
 26 25  1  6
 26 27  1  0
 26 28  1  0
 28 30  1  0
 29 28  2  0
M  END
$$$$
