IRI.pdb
     RDKit          3D

 28 27  0  0  1  0  0  0  0  0999 V2000
    8.1649  -12.1286   18.3704 C   0  0  0  0  0  0  0  0  0  0  0  0
    8.2210  -13.6056   18.5357 C   0  0  0  0  0  0  0  0  0  0  0  0
    7.7916  -14.0823   19.9073 C   0  0  2  0  0  0  0  0  0  0  0  0
    8.6536  -13.5069   20.9972 C   0  0  0  0  0  0  0  0  0  0  0  0
    7.8873  -15.5968   19.9908 C   0  0  2  0  0  0  0  0  0  0  0  0
    7.0457  -16.2265   18.9874 N   0  0  0  0  0  0  0  0  0  0  0  0
    7.4484  -16.0212   21.3549 C   0  0  0  0  0  0  0  0  0  0  0  0
    6.2627  -15.8898   21.7461 O   0  0  0  0  0  0  0  0  0  0  0  0
   11.1352  -20.3458   26.6545 N   0  0  0  0  0  0  0  0  0  0  0  0
   11.9495  -20.5779   25.4938 C   0  0  0  0  0  0  0  0  0  0  0  0
   13.2034  -20.8634   25.6271 N   0  0  0  0  0  0  0  0  0  0  0  0
   11.3768  -20.4939   24.1909 N   0  0  0  0  0  0  0  0  0  0  0  0
    9.9597  -20.1543   24.1223 C   0  0  0  0  0  0  0  0  0  0  0  0
    9.7575  -18.6767   23.9333 C   0  0  0  0  0  0  0  0  0  0  0  0
    8.2900  -18.3823   23.8520 C   0  0  0  0  0  0  0  0  0  0  0  0
    8.0294  -16.9361   23.6385 C   0  0  2  0  0  0  0  0  0  0  0  0
    8.4017  -16.5914   22.2376 N   0  0  0  0  0  0  0  0  0  0  0  0
    8.7135  -16.0050   24.5349 C   0  0  0  0  0  0  0  0  0  0  0  0
    9.8567  -15.5863   24.2568 O   0  0  0  0  0  0  0  0  0  0  0  0
   13.8245  -20.9932   24.8211 C   0  0  0  0  0  0  0  0  0  0  0  0
    6.5245  -11.6100   26.0055 C   0  0  0  0  0  0  0  0  0  0  0  0
    7.5116  -12.6856   25.7036 C   0  0  2  0  0  0  0  0  0  0  0  0
    7.9135  -13.4818   26.8985 C   0  0  0  0  0  0  0  0  0  0  0  0
    8.5422  -12.5434   27.9529 C   0  0  2  0  0  0  0  0  0  0  0  0
    8.8090  -14.6506   26.6588 N   0  0  0  0  0  0  0  0  0  0  0  0
    8.1151  -15.5447   25.7418 C   0  0  0  0  0  0  0  0  0  0  0  0
    9.2596  -15.3977   27.8341 O   0  0  0  0  0  0  0  0  0  0  0  0
   10.3306  -14.9700   28.6130 O   0  0  0  0  0  0  0  0  0  0  0  0
  1  2  1  0
  3  2  1  0
  3  4  1  1
  5  3  1  0
  5  6  1  6
  7  5  1  0
  8  7  2  0
  9 10  1  0
 10 11  2  0
 12 13  1  0
 12 10  1  0
 13 14  1  0
 14 15  1  0
 16 15  1  1
 16 17  1  0
 17  7  1  0
 18 16  1  0
 18 19  2  0
 21 20  1  0
 21 22  1  0
 22 23  1  1
 24 22  1  0
 24 25  1  6
 25 18  1  0
 26 24  1  0
 27 26  1  0
 28 26  2  0
M  END
$$$$
