IRI.pdb
     RDKit          3D

 28 27  0  0  1  0  0  0  0  0999 V2000
    8.0083  -12.2296   18.4085 C   0  0  0  0  0  0  0  0  0  0  0  0
    8.0051  -13.7051   18.5955 C   0  0  0  0  0  0  0  0  0  0  0  0
    7.6232  -14.1415   19.9943 C   0  0  2  0  0  0  0  0  0  0  0  0
    8.5689  -13.5982   21.0300 C   0  0  0  0  0  0  0  0  0  0  0  0
    7.6450  -15.6578   20.0958 C   0  0  2  0  0  0  0  0  0  0  0  0
    6.7165  -16.2550   19.1508 N   0  0  0  0  0  0  0  0  0  0  0  0
    7.2625  -16.0413   21.4888 C   0  0  0  0  0  0  0  0  0  0  0  0
    6.1471  -15.7422   21.9815 O   0  0  0  0  0  0  0  0  0  0  0  0
    6.4915  -20.5425   27.5202 N   0  0  0  0  0  0  0  0  0  0  0  0
    6.3461  -21.3174   26.3192 C   0  0  0  0  0  0  0  0  0  0  0  0
    5.3366  -22.1128   26.1781 N   0  0  0  0  0  0  0  0  0  0  0  0
    7.3151  -21.2114   25.2788 N   0  0  0  0  0  0  0  0  0  0  0  0
    8.4631  -20.3507   25.5424 C   0  0  0  0  0  0  0  0  0  0  0  0
    8.1110  -18.8988   25.3756 C   0  0  0  0  0  0  0  0  0  0  0  0
    8.1690  -18.5372   23.9220 C   0  0  0  0  0  0  0  0  0  0  0  0
    7.8798  -17.0976   23.7007 C   0  0  2  0  0  0  0  0  0  0  0  0
    8.1890  -16.7672   22.2811 N   0  0  0  0  0  0  0  0  0  0  0  0
    8.5874  -16.1453   24.5556 C   0  0  0  0  0  0  0  0  0  0  0  0
    9.7813  -15.8588   24.3275 O   0  0  0  0  0  0  0  0  0  0  0  0
    5.2389  -22.7358   25.3690 C   0  0  0  0  0  0  0  0  0  0  0  0
    5.9323  -11.8888   26.5066 C   0  0  0  0  0  0  0  0  0  0  0  0
    7.0375  -12.7406   25.9822 C   0  0  2  0  0  0  0  0  0  0  0  0
    7.6861  -13.5880   27.0236 C   0  0  0  0  0  0  0  0  0  0  0  0
    8.3388  -12.6805   28.0904 C   0  0  2  0  0  0  0  0  0  0  0  0
    8.6698  -14.6040   26.5486 N   0  0  0  0  0  0  0  0  0  0  0  0
    7.9556  -15.5157   25.6651 C   0  0  0  0  0  0  0  0  0  0  0  0
    9.3885  -15.3655   27.5712 O   0  0  0  0  0  0  0  0  0  0  0  0
    8.9005  -16.5682   28.0731 O   0  0  0  0  0  0  0  0  0  0  0  0
  1  2  1  0
  3  2  1  0
  3  4  1  1
  5  3  1  0
  5  6  1  6
  7  5  1  0
  8  7  2  0
  9 10  1  0
 10 11  2  0
 12 13  1  0
 12 10  1  0
 13 14  1  0
 14 15  1  0
 16 15  1  1
 16 17  1  0
 17  7  1  0
 18 16  1  0
 18 19  2  0
 21 20  1  0
 21 22  1  0
 22 23  1  1
 24 22  1  0
 24 25  1  6
 25 18  1  0
 26 24  1  0
 27 26  1  0
 28 26  2  0
M  END
$$$$
