IRI.pdb
     RDKit          3D

 28 27  0  0  1  0  0  0  0  0999 V2000
    7.4984  -11.8247   18.5646 C   0  0  0  0  0  0  0  0  0  0  0  0
    8.1396  -13.1650   18.6310 C   0  0  0  0  0  0  0  0  0  0  0  0
    7.9255  -13.8786   19.9493 C   0  0  2  0  0  0  0  0  0  0  0  0
    8.4981  -13.1059   21.1056 C   0  0  0  0  0  0  0  0  0  0  0  0
    8.5974  -15.2417   19.9239 C   0  0  2  0  0  0  0  0  0  0  0  0
    8.0477  -16.0720   18.8656 N   0  0  0  0  0  0  0  0  0  0  0  0
    8.3756  -15.8999   21.2473 C   0  0  0  0  0  0  0  0  0  0  0  0
    7.2270  -16.1796   21.6700 O   0  0  0  0  0  0  0  0  0  0  0  0
    8.4618  -21.8377   22.7484 N   0  0  0  0  0  0  0  0  0  0  0  0
    9.2650  -21.9842   21.5662 C   0  0  0  0  0  0  0  0  0  0  0  0
    8.9512  -22.8650   20.6732 N   0  0  0  0  0  0  0  0  0  0  0  0
   10.4111  -21.1582   21.3743 N   0  0  0  0  0  0  0  0  0  0  0  0
   10.7090  -20.2002   22.4334 C   0  0  0  0  0  0  0  0  0  0  0  0
    9.7486  -19.0439   22.4142 C   0  0  0  0  0  0  0  0  0  0  0  0
   10.1327  -18.0611   23.4789 C   0  0  0  0  0  0  0  0  0  0  0  0
    9.3183  -16.8217   23.4039 C   0  0  2  0  0  0  0  0  0  0  0  0
    9.4988  -16.2197   22.0530 N   0  0  0  0  0  0  0  0  0  0  0  0
    9.5951  -15.7911   24.4037 C   0  0  0  0  0  0  0  0  0  0  0  0
   10.6841  -15.1800   24.3951 O   0  0  0  0  0  0  0  0  0  0  0  0
    9.5269  -23.0299   19.8404 C   0  0  0  0  0  0  0  0  0  0  0  0
    5.9121  -12.2571   26.7605 C   0  0  0  0  0  0  0  0  0  0  0  0
    6.6554  -13.5207   26.4902 C   0  0  2  0  0  0  0  0  0  0  0  0
    8.1279  -13.3314   26.3523 C   0  0  0  0  0  0  0  0  0  0  0  0
    8.4326  -12.6420   25.0033 C   0  0  1  0  0  0  0  0  0  0  0  0
    8.9806  -14.5456   26.5074 N   0  0  0  0  0  0  0  0  0  0  0  0
    8.6507  -15.4471   25.4119 C   0  0  0  0  0  0  0  0  0  0  0  0
    8.8963  -15.2615   27.7813 O   0  0  0  0  0  0  0  0  0  0  0  0
    9.3391  -14.6977   28.9740 O   0  0  0  0  0  0  0  0  0  0  0  0
  1  2  1  0
  3  2  1  0
  3  4  1  1
  5  3  1  0
  5  6  1  6
  7  5  1  0
  8  7  2  0
  9 10  1  0
 10 11  2  0
 12 13  1  0
 12 10  1  0
 13 14  1  0
 14 15  1  0
 16 15  1  1
 16 17  1  0
 17  7  1  0
 18 16  1  0
 18 19  2  0
 21 20  1  0
 21 22  1  0
 22 23  1  1
 24 22  1  0
 24 25  1  6
 25 18  1  0
 26 24  1  0
 27 26  1  0
 28 26  2  0
M  END
$$$$
