IRI.pdb
     RDKit          3D

 28 27  0  0  1  0  0  0  0  0999 V2000
    6.8845  -11.1220   19.0126 C   0  0  0  0  0  0  0  0  0  0  0  0
    7.1245  -12.5621   18.7291 C   0  0  0  0  0  0  0  0  0  0  0  0
    7.3900  -13.3913   19.9681 C   0  0  2  0  0  0  0  0  0  0  0  0
    8.6226  -12.9324   20.6976 C   0  0  0  0  0  0  0  0  0  0  0  0
    7.5901  -14.8500   19.5910 C   0  0  2  0  0  0  0  0  0  0  0  0
    6.4175  -15.3767   18.9132 N   0  0  0  0  0  0  0  0  0  0  0  0
    7.8413  -15.6288   20.8416 C   0  0  0  0  0  0  0  0  0  0  0  0
    6.9093  -15.9961   21.5983 O   0  0  0  0  0  0  0  0  0  0  0  0
   13.0099  -16.1324   19.1965 N   0  0  0  0  0  0  0  0  0  0  0  0
   14.2403  -16.3098   19.9167 C   0  0  0  0  0  0  0  0  0  0  0  0
   15.3592  -15.9259   19.3947 N   0  0  0  0  0  0  0  0  0  0  0  0
   14.2311  -16.9101   21.2098 N   0  0  0  0  0  0  0  0  0  0  0  0
   13.0390  -17.6715   21.5666 C   0  0  0  0  0  0  0  0  0  0  0  0
   11.8535  -16.7707   21.7740 C   0  0  0  0  0  0  0  0  0  0  0  0
   10.6637  -17.5962   22.1611 C   0  0  0  0  0  0  0  0  0  0  0  0
    9.4681  -16.7534   22.4160 C   0  0  2  0  0  0  0  0  0  0  0  0
    9.1761  -15.9646   21.1860 N   0  0  0  0  0  0  0  0  0  0  0  0
    9.5446  -15.8270   23.5449 C   0  0  0  0  0  0  0  0  0  0  0  0
   10.0838  -14.7090   23.4082 O   0  0  0  0  0  0  0  0  0  0  0  0
   16.2647  -16.1196   19.8362 C   0  0  0  0  0  0  0  0  0  0  0  0
    6.6606  -12.1965   26.3745 C   0  0  0  0  0  0  0  0  0  0  0  0
    7.8514  -13.0601   26.6165 C   0  0  2  0  0  0  0  0  0  0  0  0
    7.9983  -14.1677   25.6292 C   0  0  0  0  0  0  0  0  0  0  0  0
    6.6234  -14.8335   25.3963 C   0  0  2  0  0  0  0  0  0  0  0  0
    9.0231  -15.2086   25.9324 N   0  0  0  0  0  0  0  0  0  0  0  0
    9.0166  -16.1555   24.8255 C   0  0  0  0  0  0  0  0  0  0  0  0
    8.8891  -15.9272   27.2005 O   0  0  0  0  0  0  0  0  0  0  0  0
    9.3001  -15.3724   28.4087 O   0  0  0  0  0  0  0  0  0  0  0  0
  1  2  1  0
  3  2  1  0
  3  4  1  6
  5  3  1  0
  5  6  1  1
  7  5  1  0
  8  7  2  0
  9 10  1  0
 10 11  2  0
 12 13  1  0
 12 10  1  0
 13 14  1  0
 14 15  1  0
 16 15  1  6
 16 17  1  0
 17  7  1  0
 18 16  1  0
 18 19  2  0
 21 20  1  0
 21 22  1  0
 22 23  1  6
 24 22  1  0
 24 25  1  1
 25 18  1  0
 26 24  1  0
 27 26  1  0
 28 26  2  0
M  END
$$$$
