IRI.pdb
     RDKit          3D

 28 27  0  0  1  0  0  0  0  0999 V2000
    8.1406  -11.9217   18.6853 C   0  0  0  0  0  0  0  0  0  0  0  0
    8.1245  -13.4077   18.7428 C   0  0  0  0  0  0  0  0  0  0  0  0
    7.8933  -13.9615   20.1331 C   0  0  2  0  0  0  0  0  0  0  0  0
    8.9226  -13.4682   21.1125 C   0  0  0  0  0  0  0  0  0  0  0  0
    7.9628  -15.4796   20.1121 C   0  0  2  0  0  0  0  0  0  0  0  0
    6.9510  -16.0336   19.2283 N   0  0  0  0  0  0  0  0  0  0  0  0
    7.7448  -15.9796   21.5036 C   0  0  0  0  0  0  0  0  0  0  0  0
    6.6277  -15.9073   22.0720 O   0  0  0  0  0  0  0  0  0  0  0  0
   13.1829  -18.9320   24.3164 N   0  0  0  0  0  0  0  0  0  0  0  0
   13.3493  -19.6085   23.0599 C   0  0  0  0  0  0  0  0  0  0  0  0
   14.5057  -19.6292   22.4819 N   0  0  0  0  0  0  0  0  0  0  0  0
   12.2391  -20.2592   22.4462 N   0  0  0  0  0  0  0  0  0  0  0  0
   10.9391  -20.0670   23.0798 C   0  0  0  0  0  0  0  0  0  0  0  0
   10.4876  -18.6363   22.9841 C   0  0  0  0  0  0  0  0  0  0  0  0
    9.1289  -18.5015   23.6027 C   0  0  0  0  0  0  0  0  0  0  0  0
    8.6516  -17.0955   23.5825 C   0  0  2  0  0  0  0  0  0  0  0  0
    8.8349  -16.5549   22.2062 N   0  0  0  0  0  0  0  0  0  0  0  0
    9.2844  -16.1723   24.5236 C   0  0  0  0  0  0  0  0  0  0  0  0
   10.2297  -15.4446   24.1545 O   0  0  0  0  0  0  0  0  0  0  0  0
   14.6636  -20.1096   21.5894 C   0  0  0  0  0  0  0  0  0  0  0  0
    6.6692  -12.5021   26.6195 C   0  0  0  0  0  0  0  0  0  0  0  0
    7.8101  -13.3404   26.1529 C   0  0  2  0  0  0  0  0  0  0  0  0
    8.4280  -14.1643   27.2311 C   0  0  0  0  0  0  0  0  0  0  0  0
    8.9809  -13.2345   28.3345 C   0  0  2  0  0  0  0  0  0  0  0  0
    9.4766  -15.1407   26.8156 N   0  0  0  0  0  0  0  0  0  0  0  0
    8.8564  -16.0662   25.8772 C   0  0  0  0  0  0  0  0  0  0  0  0
   10.1500  -15.8888   27.8782 O   0  0  0  0  0  0  0  0  0  0  0  0
   11.1858  -15.3365   28.6255 O   0  0  0  0  0  0  0  0  0  0  0  0
  1  2  1  0
  3  2  1  0
  3  4  1  1
  5  3  1  0
  5  6  1  6
  7  5  1  0
  8  7  2  0
  9 10  1  0
 10 11  2  0
 12 13  1  0
 12 10  1  0
 13 14  1  0
 14 15  1  0
 16 15  1  6
 16 17  1  0
 17  7  1  0
 18 16  1  0
 18 19  2  0
 21 20  1  0
 21 22  1  0
 22 23  1  1
 24 22  1  0
 24 25  1  6
 25 18  1  0
 26 24  1  0
 27 26  1  0
 28 26  2  0
M  END
$$$$
