IRI.pdb
     RDKit          3D

 28 27  0  0  1  0  0  0  0  0999 V2000
    7.6624  -11.9823   18.7189 C   0  0  0  0  0  0  0  0  0  0  0  0
    7.9668  -13.4378   18.7469 C   0  0  0  0  0  0  0  0  0  0  0  0
    7.8423  -14.0603   20.1217 C   0  0  2  0  0  0  0  0  0  0  0  0
    8.7890  -13.4350   21.1091 C   0  0  0  0  0  0  0  0  0  0  0  0
    8.1552  -15.5461   20.0558 C   0  0  2  0  0  0  0  0  0  0  0  0
    7.2196  -16.2357   19.1834 N   0  0  0  0  0  0  0  0  0  0  0  0
    8.0630  -16.1078   21.4378 C   0  0  0  0  0  0  0  0  0  0  0  0
    6.9609  -16.3491   21.9886 O   0  0  0  0  0  0  0  0  0  0  0  0
   11.2427  -22.0333   28.0140 N   0  0  0  0  0  0  0  0  0  0  0  0
   11.5148  -21.1052   26.9516 C   0  0  0  0  0  0  0  0  0  0  0  0
   12.5923  -20.3908   26.9736 N   0  0  0  0  0  0  0  0  0  0  0  0
   10.5969  -20.9691   25.8692 N   0  0  0  0  0  0  0  0  0  0  0  0
   10.9891  -20.0678   24.7912 C   0  0  0  0  0  0  0  0  0  0  0  0
   10.2560  -18.7581   24.8761 C   0  0  0  0  0  0  0  0  0  0  0  0
    9.9909  -18.2464   23.4923 C   0  0  0  0  0  0  0  0  0  0  0  0
    9.2121  -16.9823   23.5125 C   0  0  2  0  0  0  0  0  0  0  0  0
    9.2591  -16.3775   22.1516 N   0  0  0  0  0  0  0  0  0  0  0  0
    9.6307  -15.9669   24.4780 C   0  0  0  0  0  0  0  0  0  0  0  0
   10.7652  -15.4511   24.3993 O   0  0  0  0  0  0  0  0  0  0  0  0
   12.8164  -19.7144   26.2357 C   0  0  0  0  0  0  0  0  0  0  0  0
    6.6122  -11.9090   25.9589 C   0  0  0  0  0  0  0  0  0  0  0  0
    7.7372  -12.8402   25.6600 C   0  0  2  0  0  0  0  0  0  0  0  0
    8.1800  -13.6415   26.8368 C   0  0  0  0  0  0  0  0  0  0  0  0
    8.6067  -12.6881   27.9756 C   0  0  2  0  0  0  0  0  0  0  0  0
    9.2458  -14.6575   26.5974 N   0  0  0  0  0  0  0  0  0  0  0  0
    8.7768  -15.5312   25.5304 C   0  0  0  0  0  0  0  0  0  0  0  0
    9.6718  -15.4604   27.7447 O   0  0  0  0  0  0  0  0  0  0  0  0
   10.7388  -15.0814   28.5537 O   0  0  0  0  0  0  0  0  0  0  0  0
  1  2  1  0
  3  2  1  0
  3  4  1  1
  5  3  1  0
  5  6  1  6
  7  5  1  0
  8  7  2  0
  9 10  1  0
 10 11  2  0
 12 13  1  0
 12 10  1  0
 13 14  1  0
 14 15  1  0
 16 15  1  6
 16 17  1  0
 17  7  1  0
 18 16  1  0
 18 19  2  0
 21 20  1  0
 21 22  1  0
 22 23  1  1
 24 22  1  0
 24 25  1  6
 25 18  1  0
 26 24  1  0
 27 26  1  0
 28 26  2  0
M  END
$$$$
