IRI.pdb
     RDKit          3D

 28 27  0  0  1  0  0  0  0  0999 V2000
    6.8501  -12.5179   17.3563 C   0  0  0  0  0  0  0  0  0  0  0  0
    8.0219  -13.1655   18.0039 C   0  0  0  0  0  0  0  0  0  0  0  0
    7.7442  -13.6660   19.4058 C   0  0  2  0  0  0  0  0  0  0  0  0
    7.3364  -12.5514   20.3297 C   0  0  0  0  0  0  0  0  0  0  0  0
    8.9879  -14.3186   19.9866 C   0  0  2  0  0  0  0  0  0  0  0  0
    9.5144  -15.3282   19.0837 N   0  0  0  0  0  0  0  0  0  0  0  0
    8.6221  -14.9504   21.2906 C   0  0  0  0  0  0  0  0  0  0  0  0
    8.0484  -14.3101   22.2055 O   0  0  0  0  0  0  0  0  0  0  0  0
   11.8115  -19.6353   25.7904 N   0  0  0  0  0  0  0  0  0  0  0  0
   10.9142  -20.6878   26.1793 C   0  0  0  0  0  0  0  0  0  0  0  0
   11.1031  -21.3250   27.2884 N   0  0  0  0  0  0  0  0  0  0  0  0
    9.8125  -21.0330   25.3430 N   0  0  0  0  0  0  0  0  0  0  0  0
    9.7552  -20.3822   24.0385 C   0  0  0  0  0  0  0  0  0  0  0  0
    9.2416  -18.9737   24.1493 C   0  0  0  0  0  0  0  0  0  0  0  0
    9.2578  -18.3309   22.7953 C   0  0  0  0  0  0  0  0  0  0  0  0
    8.7150  -16.9494   22.8351 C   0  0  2  0  0  0  0  0  0  0  0  0
    8.9325  -16.3185   21.5029 N   0  0  0  0  0  0  0  0  0  0  0  0
    9.2606  -16.0572   23.8572 C   0  0  0  0  0  0  0  0  0  0  0  0
   10.4422  -15.6602   23.7826 O   0  0  0  0  0  0  0  0  0  0  0  0
   10.5511  -22.1501   27.5470 C   0  0  0  0  0  0  0  0  0  0  0  0
    6.0901  -12.2464   25.8874 C   0  0  0  0  0  0  0  0  0  0  0  0
    7.2709  -13.0109   25.3939 C   0  0  2  0  0  0  0  0  0  0  0  0
    7.9277  -13.8417   26.4434 C   0  0  0  0  0  0  0  0  0  0  0  0
    8.4270  -12.9268   27.5843 C   0  0  2  0  0  0  0  0  0  0  0  0
    9.0277  -14.7450   25.9969 N   0  0  0  0  0  0  0  0  0  0  0  0
    8.4808  -15.6116   24.9617 C   0  0  0  0  0  0  0  0  0  0  0  0
    9.6851  -15.5539   27.0245 O   0  0  0  0  0  0  0  0  0  0  0  0
    9.3293  -16.8786   27.2588 O   0  0  0  0  0  0  0  0  0  0  0  0
  1  2  1  0
  3  2  1  0
  3  4  1  1
  5  3  1  0
  5  6  1  6
  7  5  1  0
  8  7  2  0
  9 10  1  0
 10 11  2  0
 12 13  1  0
 12 10  1  0
 13 14  1  0
 14 15  1  0
 16 15  1  6
 16 17  1  0
 17  7  1  0
 18 16  1  0
 18 19  2  0
 21 20  1  0
 21 22  1  0
 22 23  1  1
 24 22  1  0
 24 25  1  6
 25 18  1  0
 26 24  1  0
 27 26  1  0
 28 26  2  0
M  END
$$$$
