IRI.pdb
     RDKit          3D

 28 27  0  0  1  0  0  0  0  0999 V2000
    8.3614  -12.0279   18.2671 C   0  0  0  0  0  0  0  0  0  0  0  0
    8.2741  -13.5043   18.4236 C   0  0  0  0  0  0  0  0  0  0  0  0
    7.6655  -13.9430   19.7390 C   0  0  2  0  0  0  0  0  0  0  0  0
    8.4136  -13.3840   20.9180 C   0  0  0  0  0  0  0  0  0  0  0  0
    7.6903  -15.4586   19.8498 C   0  0  2  0  0  0  0  0  0  0  0  0
    6.9168  -16.0701   18.7823 N   0  0  0  0  0  0  0  0  0  0  0  0
    7.1133  -15.8428   21.1738 C   0  0  0  0  0  0  0  0  0  0  0  0
    5.9199  -15.5992   21.4784 O   0  0  0  0  0  0  0  0  0  0  0  0
    8.6123  -20.3070   27.2128 N   0  0  0  0  0  0  0  0  0  0  0  0
    8.9720  -20.8100   25.9160 C   0  0  0  0  0  0  0  0  0  0  0  0
   10.1483  -21.3083   25.7163 N   0  0  0  0  0  0  0  0  0  0  0  0
    8.0325  -20.7610   24.8448 N   0  0  0  0  0  0  0  0  0  0  0  0
    6.7494  -20.1288   25.1315 C   0  0  0  0  0  0  0  0  0  0  0  0
    6.8382  -18.6320   25.0237 C   0  0  0  0  0  0  0  0  0  0  0  0
    7.3574  -18.2614   23.6672 C   0  0  0  0  0  0  0  0  0  0  0  0
    7.4444  -16.7891   23.4943 C   0  0  2  0  0  0  0  0  0  0  0  0
    7.9400  -16.5043   22.1183 N   0  0  0  0  0  0  0  0  0  0  0  0
    8.2886  -16.0640   24.4428 C   0  0  0  0  0  0  0  0  0  0  0  0
    9.5207  -15.9822   24.2564 O   0  0  0  0  0  0  0  0  0  0  0  0
   10.4380  -21.6811   24.8057 C   0  0  0  0  0  0  0  0  0  0  0  0
    6.1976  -11.5940   26.4076 C   0  0  0  0  0  0  0  0  0  0  0  0
    7.1398  -12.6250   25.8866 C   0  0  2  0  0  0  0  0  0  0  0  0
    7.7397  -13.4802   26.9505 C   0  0  0  0  0  0  0  0  0  0  0  0
    8.5494  -12.5952   27.9247 C   0  0  2  0  0  0  0  0  0  0  0  0
    8.5720  -14.6329   26.4986 N   0  0  0  0  0  0  0  0  0  0  0  0
    7.7505  -15.4315   25.5991 C   0  0  0  0  0  0  0  0  0  0  0  0
    9.1458  -15.4891   27.5378 O   0  0  0  0  0  0  0  0  0  0  0  0
   10.3707  -15.2045   28.1336 O   0  0  0  0  0  0  0  0  0  0  0  0
  1  2  1  0
  3  2  1  0
  3  4  1  1
  5  3  1  0
  5  6  1  6
  7  5  1  0
  8  7  2  0
  9 10  1  0
 10 11  2  0
 12 13  1  0
 12 10  1  0
 13 14  1  0
 14 15  1  0
 16 15  1  1
 16 17  1  0
 17  7  1  0
 18 16  1  0
 18 19  2  0
 21 20  1  0
 21 22  1  0
 22 23  1  1
 24 22  1  0
 24 25  1  6
 25 18  1  0
 26 24  1  0
 27 26  1  0
 28 26  2  0
M  END
$$$$
