IRI.pdb
     RDKit          3D

 28 27  0  0  1  0  0  0  0  0999 V2000
    6.1455  -10.7167   26.5266 C   0  0  0  0  0  0  0  0  0  0  0  0
    5.6556  -11.8243   25.6634 C   0  0  0  0  0  0  0  0  0  0  0  0
    6.6492  -12.9553   25.5003 C   0  0  2  0  0  0  0  0  0  0  0  0
    7.8360  -12.5452   24.6724 C   0  0  0  0  0  0  0  0  0  0  0  0
    5.9897  -14.1388   24.8117 C   0  0  2  0  0  0  0  0  0  0  0  0
    4.8174  -14.5808   25.5479 N   0  0  0  0  0  0  0  0  0  0  0  0
    6.9845  -15.2514   24.7333 C   0  0  0  0  0  0  0  0  0  0  0  0
    7.1372  -16.0778   25.6660 O   0  0  0  0  0  0  0  0  0  0  0  0
    9.1399  -17.3313   17.8600 N   0  0  0  0  0  0  0  0  0  0  0  0
    8.6010  -18.3016   18.7722 C   0  0  0  0  0  0  0  0  0  0  0  0
    7.3779  -18.7015   18.6466 N   0  0  0  0  0  0  0  0  0  0  0  0
    9.4138  -18.8267   19.8192 N   0  0  0  0  0  0  0  0  0  0  0  0
   10.4189  -17.9284   20.3771 C   0  0  0  0  0  0  0  0  0  0  0  0
   10.1974  -17.7010   21.8465 C   0  0  0  0  0  0  0  0  0  0  0  0
    9.1558  -16.6394   22.0336 C   0  0  0  0  0  0  0  0  0  0  0  0
    8.8147  -16.4492   23.4662 C   0  0  2  0  0  0  0  0  0  0  0  0
    7.7828  -15.3791   23.5673 N   0  0  0  0  0  0  0  0  0  0  0  0
    9.9163  -16.1075   24.3652 C   0  0  0  0  0  0  0  0  0  0  0  0
   10.7917  -15.2914   24.0086 O   0  0  0  0  0  0  0  0  0  0  0  0
    6.9749  -19.4289   19.2473 C   0  0  0  0  0  0  0  0  0  0  0  0
   10.7496  -13.7852   29.5037 C   0  0  0  0  0  0  0  0  0  0  0  0
   11.4286  -14.6888   28.5318 C   0  0  2  0  0  0  0  0  0  0  0  0
   10.5064  -15.2843   27.5228 C   0  0  0  0  0  0  0  0  0  0  0  0
    9.2762  -15.8823   28.2417 C   0  0  2  0  0  0  0  0  0  0  0  0
   11.0893  -16.2911   26.5889 N   0  0  0  0  0  0  0  0  0  0  0  0
   10.0350  -16.6812   25.6626 C   0  0  0  0  0  0  0  0  0  0  0  0
   11.6918  -17.4841   27.1855 O   0  0  0  0  0  0  0  0  0  0  0  0
   12.9707  -17.4679   27.7339 O   0  0  0  0  0  0  0  0  0  0  0  0
  1  2  1  0
  3  2  1  0
  3  4  1  6
  5  3  1  0
  5  6  1  1
  7  5  1  0
  8  7  2  0
  9 10  1  0
 10 11  2  0
 12 13  1  0
 12 10  1  0
 13 14  1  0
 14 15  1  0
 16 15  1  6
 16 17  1  0
 17  7  1  0
 18 16  1  0
 18 19  2  0
 21 20  1  0
 21 22  1  0
 22 23  1  6
 24 22  1  0
 24 25  1  1
 25 18  1  0
 26 24  1  0
 27 26  1  0
 28 26  2  0
M  END
$$$$
