IRI.pdb
     RDKit          3D

 28 27  0  0  1  0  0  0  0  0999 V2000
    7.8304  -11.7650   18.9072 C   0  0  0  0  0  0  0  0  0  0  0  0
    7.8835  -13.2513   18.9103 C   0  0  0  0  0  0  0  0  0  0  0  0
    7.8850  -13.8583   20.2976 C   0  0  2  0  0  0  0  0  0  0  0  0
    9.0109  -13.3274   21.1417 C   0  0  0  0  0  0  0  0  0  0  0  0
    8.0421  -15.3675   20.2105 C   0  0  2  0  0  0  0  0  0  0  0  0
    6.9555  -15.9596   19.4486 N   0  0  0  0  0  0  0  0  0  0  0  0
    8.0441  -15.9210   21.5988 C   0  0  0  0  0  0  0  0  0  0  0  0
    7.0007  -15.9842   22.2942 O   0  0  0  0  0  0  0  0  0  0  0  0
   12.7305  -22.3390   24.4409 N   0  0  0  0  0  0  0  0  0  0  0  0
   11.8009  -21.9406   23.4205 C   0  0  0  0  0  0  0  0  0  0  0  0
   11.6777  -22.6453   22.3435 N   0  0  0  0  0  0  0  0  0  0  0  0
   11.0111  -20.7662   23.5925 N   0  0  0  0  0  0  0  0  0  0  0  0
   11.3112  -19.9439   24.7596 C   0  0  0  0  0  0  0  0  0  0  0  0
   10.3883  -18.7607   24.8500 C   0  0  0  0  0  0  0  0  0  0  0  0
   10.2107  -18.1636   23.4866 C   0  0  0  0  0  0  0  0  0  0  0  0
    9.3011  -16.9903   23.5135 C   0  0  2  0  0  0  0  0  0  0  0  0
    9.2642  -16.3907   22.1500 N   0  0  0  0  0  0  0  0  0  0  0  0
    9.6215  -15.9311   24.4695 C   0  0  0  0  0  0  0  0  0  0  0  0
   10.6700  -15.2644   24.3445 O   0  0  0  0  0  0  0  0  0  0  0  0
   11.0331  -22.3852   21.5892 C   0  0  0  0  0  0  0  0  0  0  0  0
    6.0772  -12.3631   25.6875 C   0  0  0  0  0  0  0  0  0  0  0  0
    7.3705  -13.0742   25.4777 C   0  0  2  0  0  0  0  0  0  0  0  0
    7.8996  -13.7299   26.7078 C   0  0  0  0  0  0  0  0  0  0  0  0
    8.1660  -12.6569   27.7874 C   0  0  2  0  0  0  0  0  0  0  0  0
    9.1024  -14.5973   26.5445 N   0  0  0  0  0  0  0  0  0  0  0  0
    8.7660  -15.6208   25.5642 C   0  0  0  0  0  0  0  0  0  0  0  0
    9.6409  -15.2251   27.7521 O   0  0  0  0  0  0  0  0  0  0  0  0
   10.5499  -14.5722   28.5792 O   0  0  0  0  0  0  0  0  0  0  0  0
  1  2  1  0
  3  2  1  0
  3  4  1  1
  5  3  1  0
  5  6  1  6
  7  5  1  0
  8  7  2  0
  9 10  1  0
 10 11  2  0
 12 13  1  0
 12 10  1  0
 13 14  1  0
 14 15  1  0
 16 15  1  6
 16 17  1  0
 17  7  1  0
 18 16  1  0
 18 19  2  0
 21 20  1  0
 21 22  1  0
 22 23  1  1
 24 22  1  0
 24 25  1  6
 25 18  1  0
 26 24  1  0
 27 26  1  0
 28 26  2  0
M  END
$$$$
