IRI.pdb
     RDKit          3D

 28 27  0  0  1  0  0  0  0  0999 V2000
    8.2409  -11.7734   18.1802 C   0  0  0  0  0  0  0  0  0  0  0  0
    8.3534  -13.2552   18.2392 C   0  0  0  0  0  0  0  0  0  0  0  0
    7.8204  -13.8564   19.5227 C   0  0  2  0  0  0  0  0  0  0  0  0
    8.5592  -13.3481   20.7301 C   0  0  0  0  0  0  0  0  0  0  0  0
    7.9642  -15.3692   19.4936 C   0  0  2  0  0  0  0  0  0  0  0  0
    7.1425  -15.9489   18.4446 N   0  0  0  0  0  0  0  0  0  0  0  0
    7.5397  -15.9075   20.8216 C   0  0  0  0  0  0  0  0  0  0  0  0
    6.3389  -15.9113   21.1879 O   0  0  0  0  0  0  0  0  0  0  0  0
    6.8015  -21.2790   23.3496 N   0  0  0  0  0  0  0  0  0  0  0  0
    6.9247  -21.4865   24.7659 C   0  0  0  0  0  0  0  0  0  0  0  0
    5.9779  -22.0754   25.4205 N   0  0  0  0  0  0  0  0  0  0  0  0
    8.0920  -21.0433   25.4540 N   0  0  0  0  0  0  0  0  0  0  0  0
    9.0184  -20.2093   24.6961 C   0  0  0  0  0  0  0  0  0  0  0  0
    8.5390  -18.7866   24.6185 C   0  0  0  0  0  0  0  0  0  0  0  0
    8.5777  -18.3262   23.1925 C   0  0  0  0  0  0  0  0  0  0  0  0
    8.1540  -16.9092   23.0597 C   0  0  2  0  0  0  0  0  0  0  0  0
    8.5248  -16.4317   21.6978 N   0  0  0  0  0  0  0  0  0  0  0  0
    8.6955  -15.9661   24.0373 C   0  0  0  0  0  0  0  0  0  0  0  0
    9.8941  -15.6198   23.9830 O   0  0  0  0  0  0  0  0  0  0  0  0
    6.0817  -22.3538   26.4023 C   0  0  0  0  0  0  0  0  0  0  0  0
    6.5788  -11.1478   27.0069 C   0  0  0  0  0  0  0  0  0  0  0  0
    7.6633  -12.1698   26.9661 C   0  0  2  0  0  0  0  0  0  0  0  0
    7.3542  -13.3361   26.0903 C   0  0  0  0  0  0  0  0  0  0  0  0
    6.0090  -13.9610   26.5235 C   0  0  2  0  0  0  0  0  0  0  0  0
    8.3984  -14.3966   25.9873 N   0  0  0  0  0  0  0  0  0  0  0  0
    7.8926  -15.4127   25.0744 C   0  0  0  0  0  0  0  0  0  0  0  0
    8.8365  -15.0245   27.2348 O   0  0  0  0  0  0  0  0  0  0  0  0
    9.6696  -14.3693   28.1365 O   0  0  0  0  0  0  0  0  0  0  0  0
  1  2  1  0
  3  2  1  0
  3  4  1  1
  5  3  1  0
  5  6  1  6
  7  5  1  0
  8  7  2  0
  9 10  1  0
 10 11  2  0
 12 13  1  0
 12 10  1  0
 13 14  1  0
 14 15  1  0
 16 15  1  1
 16 17  1  0
 17  7  1  0
 18 16  1  0
 18 19  2  0
 21 20  1  0
 21 22  1  0
 22 23  1  6
 24 22  1  0
 24 25  1  1
 25 18  1  0
 26 24  1  0
 27 26  1  0
 28 26  2  0
M  END
$$$$
