IRI.pdb
     RDKit          3D

 28 27  0  0  1  0  0  0  0  0999 V2000
    5.3023  -10.9090   27.5906 C   0  0  0  0  0  0  0  0  0  0  0  0
    4.9650  -12.2033   26.9403 C   0  0  0  0  0  0  0  0  0  0  0  0
    6.1584  -12.9090   26.3314 C   0  0  2  0  0  0  0  0  0  0  0  0
    6.7996  -12.0914   25.2439 C   0  0  0  0  0  0  0  0  0  0  0  0
    5.7310  -14.2351   25.7242 C   0  0  2  0  0  0  0  0  0  0  0  0
    5.2371  -15.1401   26.7484 N   0  0  0  0  0  0  0  0  0  0  0  0
    6.9139  -14.8432   25.0425 C   0  0  0  0  0  0  0  0  0  0  0  0
    7.6629  -15.6714   25.6164 O   0  0  0  0  0  0  0  0  0  0  0  0
    9.8355  -15.3584   17.1142 N   0  0  0  0  0  0  0  0  0  0  0  0
    8.7266  -14.7277   17.7751 C   0  0  0  0  0  0  0  0  0  0  0  0
    8.4214  -13.5010   17.5034 N   0  0  0  0  0  0  0  0  0  0  0  0
    7.9591  -15.4531   18.7329 N   0  0  0  0  0  0  0  0  0  0  0  0
    8.7078  -16.1847   19.7490 C   0  0  0  0  0  0  0  0  0  0  0  0
    9.3690  -15.2503   20.7234 C   0  0  0  0  0  0  0  0  0  0  0  0
    8.3213  -14.5907   21.5685 C   0  0  0  0  0  0  0  0  0  0  0  0
    8.2593  -15.1813   22.9295 C   0  0  2  0  0  0  0  0  0  0  0  0
    7.2010  -14.4733   23.7032 N   0  0  0  0  0  0  0  0  0  0  0  0
    9.4929  -15.1559   23.7145 C   0  0  0  0  0  0  0  0  0  0  0  0
   10.3803  -14.3126   23.4681 O   0  0  0  0  0  0  0  0  0  0  0  0
    7.5779  -13.0511   17.8754 C   0  0  0  0  0  0  0  0  0  0  0  0
    9.9041  -14.3160   28.7405 C   0  0  0  0  0  0  0  0  0  0  0  0
   10.2543  -14.4763   27.3004 C   0  0  2  0  0  0  0  0  0  0  0  0
   10.6810  -15.8583   26.9383 C   0  0  0  0  0  0  0  0  0  0  0  0
   11.8819  -16.2719   27.8184 C   0  0  2  0  0  0  0  0  0  0  0  0
   10.9915  -16.1126   25.5014 N   0  0  0  0  0  0  0  0  0  0  0  0
    9.7297  -16.0760   24.7746 C   0  0  0  0  0  0  0  0  0  0  0  0
   11.7118  -17.3463   25.1829 O   0  0  0  0  0  0  0  0  0  0  0  0
   13.0990  -17.4295   25.2564 O   0  0  0  0  0  0  0  0  0  0  0  0
  1  2  1  0
  3  2  1  0
  3  4  1  6
  5  3  1  0
  5  6  1  1
  7  5  1  0
  8  7  2  0
  9 10  1  0
 10 11  2  0
 12 13  1  0
 12 10  1  0
 13 14  1  0
 14 15  1  0
 16 15  1  6
 16 17  1  0
 17  7  1  0
 18 16  1  0
 18 19  2  0
 21 20  1  0
 21 22  1  0
 22 23  1  6
 24 22  1  0
 24 25  1  6
 25 18  1  0
 26 24  1  0
 27 26  1  0
 28 26  2  0
M  END
$$$$
