IRI.pdb
     RDKit          3D

 28 27  0  0  1  0  0  0  0  0999 V2000
    6.5580  -10.7786   27.2789 C   0  0  0  0  0  0  0  0  0  0  0  0
    5.9681  -11.8854   26.4795 C   0  0  0  0  0  0  0  0  0  0  0  0
    6.9596  -12.9710   26.1169 C   0  0  2  0  0  0  0  0  0  0  0  0
    8.1097  -12.4344   25.3099 C   0  0  0  0  0  0  0  0  0  0  0  0
    6.2780  -14.0507   25.2925 C   0  0  2  0  0  0  0  0  0  0  0  0
    5.0998  -14.5589   25.9746 N   0  0  0  0  0  0  0  0  0  0  0  0
    7.2532  -15.1624   25.0754 C   0  0  0  0  0  0  0  0  0  0  0  0
    7.4414  -16.0623   25.9303 O   0  0  0  0  0  0  0  0  0  0  0  0
    9.3706  -13.5287   19.0270 N   0  0  0  0  0  0  0  0  0  0  0  0
    8.0682  -13.9416   18.5827 C   0  0  0  0  0  0  0  0  0  0  0  0
    7.4914  -13.3265   17.6026 N   0  0  0  0  0  0  0  0  0  0  0  0
    7.4077  -15.0316   19.2217 N   0  0  0  0  0  0  0  0  0  0  0  0
    8.2421  -15.9200   20.0233 C   0  0  0  0  0  0  0  0  0  0  0  0
    8.4685  -15.3654   21.4021 C   0  0  0  0  0  0  0  0  0  0  0  0
    9.3222  -16.3158   22.1862 C   0  0  0  0  0  0  0  0  0  0  0  0
    9.0263  -16.2508   23.6398 C   0  0  2  0  0  0  0  0  0  0  0  0
    7.9908  -15.2032   23.8641 N   0  0  0  0  0  0  0  0  0  0  0  0
   10.1541  -15.9759   24.5292 C   0  0  0  0  0  0  0  0  0  0  0  0
   11.1781  -15.4098   24.0930 O   0  0  0  0  0  0  0  0  0  0  0  0
    6.5539  -13.5801   17.2724 C   0  0  0  0  0  0  0  0  0  0  0  0
    9.9762  -14.3716   29.8489 C   0  0  0  0  0  0  0  0  0  0  0  0
    9.9258  -15.2955   28.6801 C   0  0  2  0  0  0  0  0  0  0  0  0
   11.0479  -15.1045   27.7171 C   0  0  0  0  0  0  0  0  0  0  0  0
   10.8439  -13.7803   26.9473 C   0  0  1  0  0  0  0  0  0  0  0  0
   11.3083  -16.2164   26.7572 N   0  0  0  0  0  0  0  0  0  0  0  0
   10.1321  -16.3359   25.9063 C   0  0  0  0  0  0  0  0  0  0  0  0
   11.6444  -17.5229   27.3251 O   0  0  0  0  0  0  0  0  0  0  0  0
   10.8222  -18.6330   27.1568 O   0  0  0  0  0  0  0  0  0  0  0  0
  1  2  1  0
  3  2  1  0
  3  4  1  6
  5  3  1  0
  5  6  1  1
  7  5  1  0
  8  7  2  0
  9 10  1  0
 10 11  2  0
 12 13  1  0
 12 10  1  0
 13 14  1  0
 14 15  1  0
 16 15  1  6
 16 17  1  0
 17  7  1  0
 18 16  1  0
 18 19  2  0
 21 20  1  0
 21 22  1  0
 22 23  1  1
 24 22  1  0
 24 25  1  6
 25 18  1  0
 26 24  1  0
 27 26  1  0
 28 26  2  0
M  END
$$$$
