IRI.pdb
     RDKit          3D

 28 27  0  0  1  0  0  0  0  0999 V2000
    8.5623  -12.4115   18.0033 C   0  0  0  0  0  0  0  0  0  0  0  0
    8.4632  -13.8682   18.2861 C   0  0  0  0  0  0  0  0  0  0  0  0
    7.7741  -14.1896   19.5956 C   0  0  2  0  0  0  0  0  0  0  0  0
    8.5045  -13.6045   20.7730 C   0  0  0  0  0  0  0  0  0  0  0  0
    7.7017  -15.6945   19.7956 C   0  0  2  0  0  0  0  0  0  0  0  0
    6.9183  -16.3210   18.7441 N   0  0  0  0  0  0  0  0  0  0  0  0
    7.0690  -15.9625   21.1229 C   0  0  0  0  0  0  0  0  0  0  0  0
    5.8844  -15.6334   21.3769 O   0  0  0  0  0  0  0  0  0  0  0  0
    9.4631  -18.9127   26.5640 N   0  0  0  0  0  0  0  0  0  0  0  0
    8.8097  -20.1695   26.8044 C   0  0  0  0  0  0  0  0  0  0  0  0
    9.5101  -21.2313   27.0363 N   0  0  0  0  0  0  0  0  0  0  0  0
    7.3864  -20.2495   26.7880 N   0  0  0  0  0  0  0  0  0  0  0  0
    6.7277  -19.8917   25.5364 C   0  0  0  0  0  0  0  0  0  0  0  0
    6.8185  -18.4149   25.2706 C   0  0  0  0  0  0  0  0  0  0  0  0
    7.1730  -18.1899   23.8316 C   0  0  0  0  0  0  0  0  0  0  0  0
    7.3006  -16.7446   23.5154 C   0  0  2  0  0  0  0  0  0  0  0  0
    7.8309  -16.6100   22.1295 N   0  0  0  0  0  0  0  0  0  0  0  0
    8.1436  -15.9482   24.4062 C   0  0  0  0  0  0  0  0  0  0  0  0
    9.3832  -15.9337   24.2559 O   0  0  0  0  0  0  0  0  0  0  0  0
    9.0793  -22.1506   27.1829 C   0  0  0  0  0  0  0  0  0  0  0  0
    5.9679  -11.9008   27.8745 C   0  0  0  0  0  0  0  0  0  0  0  0
    6.3600  -13.1283   27.1249 C   0  0  2  0  0  0  0  0  0  0  0  0
    7.7468  -13.0793   26.5795 C   0  0  0  0  0  0  0  0  0  0  0  0
    7.7549  -12.2575   25.2709 C   0  0  1  0  0  0  0  0  0  0  0  0
    8.4324  -14.3866   26.3638 N   0  0  0  0  0  0  0  0  0  0  0  0
    7.5957  -15.1691   25.4642 C   0  0  0  0  0  0  0  0  0  0  0  0
    8.7538  -15.1755   27.5541 O   0  0  0  0  0  0  0  0  0  0  0  0
    9.6794  -14.7412   28.4980 O   0  0  0  0  0  0  0  0  0  0  0  0
  1  2  1  0
  3  2  1  0
  3  4  1  1
  5  3  1  0
  5  6  1  6
  7  5  1  0
  8  7  2  0
  9 10  1  0
 10 11  2  0
 12 13  1  0
 12 10  1  0
 13 14  1  0
 14 15  1  0
 16 15  1  1
 16 17  1  0
 17  7  1  0
 18 16  1  0
 18 19  2  0
 21 20  1  0
 21 22  1  0
 22 23  1  1
 24 22  1  0
 24 25  1  6
 25 18  1  0
 26 24  1  0
 27 26  1  0
 28 26  2  0
M  END
$$$$
