IRI.pdb
     RDKit          3D

 28 27  0  0  1  0  0  0  0  0999 V2000
    8.8120  -12.4423   17.8665 C   0  0  0  0  0  0  0  0  0  0  0  0
    7.4999  -13.0070   18.2805 C   0  0  0  0  0  0  0  0  0  0  0  0
    7.5295  -13.6913   19.6310 C   0  0  2  0  0  0  0  0  0  0  0  0
    8.2638  -12.8745   20.6585 C   0  0  0  0  0  0  0  0  0  0  0  0
    8.2273  -15.0371   19.5228 C   0  0  2  0  0  0  0  0  0  0  0  0
    7.5790  -15.8801   18.5325 N   0  0  0  0  0  0  0  0  0  0  0  0
    8.1773  -15.7016   20.8605 C   0  0  0  0  0  0  0  0  0  0  0  0
    7.0933  -16.0196   21.4083 O   0  0  0  0  0  0  0  0  0  0  0  0
    9.8334  -21.0559   25.9177 N   0  0  0  0  0  0  0  0  0  0  0  0
   11.1894  -20.6835   26.2122 C   0  0  0  0  0  0  0  0  0  0  0  0
   11.6917  -20.9298   27.3778 N   0  0  0  0  0  0  0  0  0  0  0  0
   11.9855  -20.0408   25.2193 N   0  0  0  0  0  0  0  0  0  0  0  0
   11.3258  -19.7291   23.9560 C   0  0  0  0  0  0  0  0  0  0  0  0
   10.3982  -18.5544   24.0959 C   0  0  0  0  0  0  0  0  0  0  0  0
   10.3460  -17.8051   22.7988 C   0  0  0  0  0  0  0  0  0  0  0  0
    9.3889  -16.6712   22.8559 C   0  0  2  0  0  0  0  0  0  0  0  0
    9.3938  -15.9828   21.5345 N   0  0  0  0  0  0  0  0  0  0  0  0
    9.6190  -15.6677   23.8943 C   0  0  0  0  0  0  0  0  0  0  0  0
   10.6523  -14.9666   23.8763 O   0  0  0  0  0  0  0  0  0  0  0  0
   12.6301  -20.6154   27.6476 C   0  0  0  0  0  0  0  0  0  0  0  0
    6.6090  -11.6772   27.1894 C   0  0  0  0  0  0  0  0  0  0  0  0
    7.7774  -12.6022   27.2303 C   0  0  2  0  0  0  0  0  0  0  0  0
    7.7250  -13.6789   26.2003 C   0  0  0  0  0  0  0  0  0  0  0  0
    6.5047  -14.5879   26.4696 C   0  0  2  0  0  0  0  0  0  0  0  0
    8.9520  -14.5106   26.0322 N   0  0  0  0  0  0  0  0  0  0  0  0
    8.6905  -15.4516   24.9515 C   0  0  0  0  0  0  0  0  0  0  0  0
    9.4361  -15.2309   27.2108 O   0  0  0  0  0  0  0  0  0  0  0  0
   10.1439  -14.5930   28.2250 O   0  0  0  0  0  0  0  0  0  0  0  0
  1  2  1  0
  3  2  1  0
  3  4  1  1
  5  3  1  0
  5  6  1  6
  7  5  1  0
  8  7  2  0
  9 10  1  0
 10 11  2  0
 12 13  1  0
 12 10  1  0
 13 14  1  0
 14 15  1  0
 16 15  1  6
 16 17  1  0
 17  7  1  0
 18 16  1  0
 18 19  2  0
 21 20  1  0
 21 22  1  0
 22 23  1  6
 24 22  1  0
 24 25  1  1
 25 18  1  0
 26 24  1  0
 27 26  1  0
 28 26  2  0
M  END
$$$$
