IRI.pdb
     RDKit          3D

 28 27  0  0  1  0  0  0  0  0999 V2000
    6.7242  -20.5224   28.9165 C   0  0  0  0  0  0  0  0  0  0  0  0
    6.4378  -20.5481   27.4573 C   0  0  0  0  0  0  0  0  0  0  0  0
    7.2505  -19.5505   26.6589 C   0  0  2  0  0  0  0  0  0  0  0  0
    7.0191  -18.1385   27.1223 C   0  0  0  0  0  0  0  0  0  0  0  0
    6.8742  -19.6238   25.1882 C   0  0  2  0  0  0  0  0  0  0  0  0
    7.0057  -20.9809   24.6854 N   0  0  0  0  0  0  0  0  0  0  0  0
    7.7813  -18.7137   24.4249 C   0  0  0  0  0  0  0  0  0  0  0  0
    8.9980  -18.9723   24.2544 O   0  0  0  0  0  0  0  0  0  0  0  0
    7.4514  -14.7609   17.1849 N   0  0  0  0  0  0  0  0  0  0  0  0
    8.0223  -13.6245   17.8532 C   0  0  0  0  0  0  0  0  0  0  0  0
    8.3158  -12.5578   17.1842 N   0  0  0  0  0  0  0  0  0  0  0  0
    8.2669  -13.6698   19.2570 N   0  0  0  0  0  0  0  0  0  0  0  0
    7.8815  -14.8962   19.9468 C   0  0  0  0  0  0  0  0  0  0  0  0
    8.1199  -14.7919   21.4274 C   0  0  0  0  0  0  0  0  0  0  0  0
    7.3237  -15.8468   22.1345 C   0  0  0  0  0  0  0  0  0  0  0  0
    8.1340  -16.5553   23.1574 C   0  0  2  0  0  0  0  0  0  0  0  0
    7.2515  -17.5181   23.8744 N   0  0  0  0  0  0  0  0  0  0  0  0
    8.8080  -15.7242   24.1542 C   0  0  0  0  0  0  0  0  0  0  0  0
    9.8682  -15.1300   23.8674 O   0  0  0  0  0  0  0  0  0  0  0  0
    8.7594  -11.7422   17.6204 C   0  0  0  0  0  0  0  0  0  0  0  0
    5.9781  -12.2349   26.5354 C   0  0  0  0  0  0  0  0  0  0  0  0
    7.1377  -12.9778   25.9646 C   0  0  2  0  0  0  0  0  0  0  0  0
    7.8993  -13.7668   26.9749 C   0  0  0  0  0  0  0  0  0  0  0  0
    8.5257  -12.8060   28.0104 C   0  0  2  0  0  0  0  0  0  0  0  0
    8.9383  -14.7025   26.4549 N   0  0  0  0  0  0  0  0  0  0  0  0
    8.2924  -15.5606   25.4709 C   0  0  0  0  0  0  0  0  0  0  0  0
    9.6493  -15.5223   27.4372 O   0  0  0  0  0  0  0  0  0  0  0  0
   10.5892  -14.9792   28.3080 O   0  0  0  0  0  0  0  0  0  0  0  0
  1  2  1  0
  3  2  1  0
  3  4  1  1
  5  3  1  0
  5  6  1  6
  7  5  1  0
  8  7  2  0
  9 10  1  0
 10 11  2  0
 12 13  1  0
 12 10  1  0
 13 14  1  0
 14 15  1  0
 16 15  1  6
 16 17  1  0
 17  7  1  0
 18 16  1  0
 18 19  2  0
 21 20  1  0
 21 22  1  0
 22 23  1  1
 24 22  1  0
 24 25  1  6
 25 18  1  0
 26 24  1  0
 27 26  1  0
 28 26  2  0
M  END
$$$$
