HYC.pdb
     RDKit          3D

 29 30  0  0  1  0  0  0  0  0999 V2000
   22.4635  -13.1146  -17.2093 N   0  0  0  0  0  0  0  0  0  0  0  0
   23.0764  -11.9838  -16.5602 C   0  0  1  0  0  0  0  0  0  0  0  0
   24.3737  -11.6808  -17.2800 C   0  0  0  0  0  0  0  0  0  0  0  0
   25.2912  -12.8292  -17.0614 C   0  0  0  0  0  0  0  0  0  0  0  0
   25.6837  -13.3714  -15.8436 C   0  0  0  0  0  0  0  0  0  0  0  0
   26.5288  -14.4098  -16.0706 N   0  0  0  0  0  0  0  0  0  0  0  0
   26.6658  -14.5191  -17.4119 C   0  0  0  0  0  0  0  0  0  0  0  0
   25.9226  -13.5707  -17.9880 N   0  0  0  0  0  0  0  0  0  0  0  0
   22.1707  -10.7910  -16.5669 C   0  0  0  0  0  0  0  0  0  0  0  0
   21.6735  -10.3779  -17.6427 O   0  0  0  0  0  0  0  0  0  0  0  0
   16.0641  -12.6025  -17.1228 O   0  0  0  0  0  0  0  0  0  0  0  0
   16.9687  -11.7698  -16.4710 C   0  0  0  0  0  0  0  0  0  0  0  0
   17.0035  -10.4237  -16.7621 C   0  0  0  0  0  0  0  0  0  0  0  0
   17.9030   -9.6089  -16.1109 C   0  0  0  0  0  0  0  0  0  0  0  0
   18.7987  -10.0963  -15.1502 C   0  0  0  0  0  0  0  0  0  0  0  0
   19.7172   -9.1323  -14.5049 C   0  0  0  0  0  0  0  0  0  0  0  0
   21.0225   -8.9540  -15.2707 C   0  0  2  0  0  0  0  0  0  0  0  0
   21.8466  -10.0945  -15.3725 N   0  0  0  0  0  0  0  0  0  0  0  0
   21.6976   -7.6765  -14.9780 C   0  0  0  0  0  0  0  0  0  0  0  0
   22.5145   -7.5856  -13.9969 O   0  0  0  0  0  0  0  0  0  0  0  0
   18.7266  -11.4428  -14.8939 C   0  0  0  0  0  0  0  0  0  0  0  0
   17.8318  -12.2790  -15.5355 C   0  0  0  0  0  0  0  0  0  0  0  0
   21.5167   -6.4868  -15.7165 N   0  0  0  0  0  0  0  0  0  0  0  0
   22.2101   -5.2723  -15.3858 C   0  0  1  0  0  0  0  0  0  0  0  0
   22.0954   -4.2223  -16.4662 C   0  0  0  0  0  0  0  0  0  0  0  0
   22.7790   -2.6384  -15.9974 S   0  0  0  0  0  0  0  0  0  0  0  0
   21.6609   -4.6503  -14.1332 C   0  0  0  0  0  0  0  0  0  0  0  0
   20.4198   -4.6434  -13.9221 O   0  0  0  0  0  0  0  0  0  0  0  0
   22.5000   -4.0768  -13.1927 O   0  0  0  0  0  0  0  0  0  0  0  0
  2  1  1  6
  2  3  1  0
  2  9  1  0
  3  4  1  0
  4  5  2  0
  6  5  1  0
  7  6  1  0
  8  7  2  0
  8  4  1  0
  9 10  2  0
  9 18  1  0
 12 11  1  0
 12 22  2  0
 13 12  1  0
 14 13  2  0
 14 15  1  0
 15 21  2  0
 16 15  1  0
 17 16  1  1
 18 17  1  0
 19 17  1  0
 19 20  2  0
 21 22  1  0
 23 19  1  0
 24 23  1  0
 24 25  1  6
 26 25  1  0
 27 24  1  0
 28 27  2  0
 29 27  1  0
M  END
$$$$
