HYC.pdb
     RDKit          3D

 29 30  0  0  1  0  0  0  0  0999 V2000
   28.5983  -22.0849  -16.7809 N   0  0  0  0  0  0  0  0  0  0  0  0
   28.2955  -20.6777  -16.7187 C   0  0  1  0  0  0  0  0  0  0  0  0
   27.8455  -20.2372  -18.0957 C   0  0  0  0  0  0  0  0  0  0  0  0
   28.9656  -20.4883  -19.0396 C   0  0  0  0  0  0  0  0  0  0  0  0
   28.9226  -21.2222  -20.2187 C   0  0  0  0  0  0  0  0  0  0  0  0
   30.1531  -21.2146  -20.7926 N   0  0  0  0  0  0  0  0  0  0  0  0
   30.9586  -20.4864  -19.9860 C   0  0  0  0  0  0  0  0  0  0  0  0
   30.2367  -20.0607  -18.9462 N   0  0  0  0  0  0  0  0  0  0  0  0
   27.2416  -20.3888  -15.6945 C   0  0  0  0  0  0  0  0  0  0  0  0
   26.7450  -19.2398  -15.6019 O   0  0  0  0  0  0  0  0  0  0  0  0
   19.9310  -20.1253  -11.3149 O   0  0  0  0  0  0  0  0  0  0  0  0
   21.0422  -20.6059  -12.0009 C   0  0  0  0  0  0  0  0  0  0  0  0
   21.2809  -20.2063  -13.2976 C   0  0  0  0  0  0  0  0  0  0  0  0
   22.3838  -20.6885  -13.9671 C   0  0  0  0  0  0  0  0  0  0  0  0
   23.2883  -21.5818  -13.3782 C   0  0  0  0  0  0  0  0  0  0  0  0
   24.4451  -22.0308  -14.1843 C   0  0  0  0  0  0  0  0  0  0  0  0
   25.7193  -21.2539  -13.8760 C   0  0  2  0  0  0  0  0  0  0  0  0
   26.7730  -21.3908  -14.8040 N   0  0  0  0  0  0  0  0  0  0  0  0
   26.0886  -21.2868  -12.4492 C   0  0  0  0  0  0  0  0  0  0  0  0
   26.7874  -22.2526  -11.9832 O   0  0  0  0  0  0  0  0  0  0  0  0
   23.0092  -21.9507  -12.0860 C   0  0  0  0  0  0  0  0  0  0  0  0
   21.9081  -21.4793  -11.3953 C   0  0  0  0  0  0  0  0  0  0  0  0
   25.7244  -20.3031  -11.5041 N   0  0  0  0  0  0  0  0  0  0  0  0
   25.9457  -20.4814  -10.0954 C   0  0  1  0  0  0  0  0  0  0  0  0
   26.5563  -19.2635   -9.4420 C   0  0  0  0  0  0  0  0  0  0  0  0
   26.6562  -19.3837   -7.6612 S   0  0  0  0  0  0  0  0  0  0  0  0
   24.6593  -20.7504   -9.3673 C   0  0  0  0  0  0  0  0  0  0  0  0
   23.6077  -20.1405   -9.6947 O   0  0  0  0  0  0  0  0  0  0  0  0
   24.6029  -21.6663   -8.3303 O   0  0  0  0  0  0  0  0  0  0  0  0
  2  1  1  6
  2  3  1  0
  2  9  1  0
  3  4  1  0
  4  5  2  0
  6  5  1  0
  7  6  1  0
  8  7  2  0
  8  4  1  0
  9 10  2  0
  9 18  1  0
 12 11  1  0
 12 22  2  0
 13 12  1  0
 14 13  2  0
 14 15  1  0
 15 21  2  0
 16 15  1  0
 17 16  1  1
 18 17  1  0
 19 17  1  0
 19 20  2  0
 21 22  1  0
 23 19  1  0
 24 23  1  0
 24 25  1  1
 26 25  1  0
 27 24  1  0
 28 27  2  0
 29 27  1  0
M  END
$$$$
