HYC.pdb
     RDKit          3D

 29 30  0  0  1  0  0  0  0  0999 V2000
   26.4121  -19.6890  -18.1647 N   0  0  0  0  0  0  0  0  0  0  0  0
   27.1608  -19.9629  -16.9646 C   0  0  1  0  0  0  0  0  0  0  0  0
   28.3735  -19.0563  -16.9555 C   0  0  0  0  0  0  0  0  0  0  0  0
   29.2465  -19.4570  -18.0894 C   0  0  0  0  0  0  0  0  0  0  0  0
   29.8435  -20.6950  -18.2938 C   0  0  0  0  0  0  0  0  0  0  0  0
   30.5623  -20.6577  -19.4452 N   0  0  0  0  0  0  0  0  0  0  0  0
   30.4196  -19.4140  -19.9576 C   0  0  0  0  0  0  0  0  0  0  0  0
   29.6331  -18.7108  -19.1387 N   0  0  0  0  0  0  0  0  0  0  0  0
   26.3270  -19.7522  -15.7385 C   0  0  0  0  0  0  0  0  0  0  0  0
   25.9807  -18.5948  -15.3981 O   0  0  0  0  0  0  0  0  0  0  0  0
   21.0603  -17.5133  -17.5122 O   0  0  0  0  0  0  0  0  0  0  0  0
   21.6850  -18.3695  -16.6104 C   0  0  0  0  0  0  0  0  0  0  0  0
   22.3416  -19.4925  -17.0640 C   0  0  0  0  0  0  0  0  0  0  0  0
   22.9564  -20.3329  -16.1626 C   0  0  0  0  0  0  0  0  0  0  0  0
   22.9434  -20.0925  -14.7824 C   0  0  0  0  0  0  0  0  0  0  0  0
   23.6428  -21.0554  -13.9032 C   0  0  0  0  0  0  0  0  0  0  0  0
   25.1283  -20.7506  -13.7538 C   0  0  2  0  0  0  0  0  0  0  0  0
   25.9044  -20.8393  -14.9285 N   0  0  0  0  0  0  0  0  0  0  0  0
   25.7179  -21.3214  -12.5291 C   0  0  0  0  0  0  0  0  0  0  0  0
   25.9334  -22.5799  -12.4399 O   0  0  0  0  0  0  0  0  0  0  0  0
   22.2776  -18.9623  -14.3784 C   0  0  0  0  0  0  0  0  0  0  0  0
   21.6536  -18.1049  -15.2656 C   0  0  0  0  0  0  0  0  0  0  0  0
   26.0843  -20.5708  -11.3908 N   0  0  0  0  0  0  0  0  0  0  0  0
   26.1561  -21.1588  -10.0815 C   0  0  1  0  0  0  0  0  0  0  0  0
   27.3305  -20.6513   -9.2776 C   0  0  0  0  0  0  0  0  0  0  0  0
   28.8854  -20.7339  -10.1558 S   0  0  0  0  0  0  0  0  0  0  0  0
   24.9273  -20.8511   -9.2734 C   0  0  0  0  0  0  0  0  0  0  0  0
   24.0674  -20.0432   -9.7125 O   0  0  0  0  0  0  0  0  0  0  0  0
   24.7160  -21.4439   -8.0400 O   0  0  0  0  0  0  0  0  0  0  0  0
  2  1  1  6
  2  3  1  0
  2  9  1  0
  3  4  1  0
  4  5  2  0
  6  5  1  0
  7  6  1  0
  8  7  2  0
  8  4  1  0
  9 10  2  0
  9 18  1  0
 12 11  1  0
 12 22  2  0
 13 12  1  0
 14 13  2  0
 14 15  1  0
 15 21  2  0
 16 15  1  0
 17 16  1  6
 18 17  1  0
 19 17  1  0
 19 20  2  0
 21 22  1  0
 23 19  1  0
 24 23  1  0
 24 25  1  1
 26 25  1  0
 27 24  1  0
 28 27  2  0
 29 27  1  0
M  END
$$$$
