HYC.pdb
     RDKit          3D

 29 30  0  0  1  0  0  0  0  0999 V2000
   25.2116  -21.0111  -14.2890 N   0  0  0  0  0  0  0  0  0  0  0  0
   26.4033  -20.8789  -13.4903 C   0  0  1  0  0  0  0  0  0  0  0  0
   27.3700  -19.9871  -14.2407 C   0  0  0  0  0  0  0  0  0  0  0  0
   27.8771  -20.7520  -15.4095 C   0  0  0  0  0  0  0  0  0  0  0  0
   27.5323  -22.0459  -15.7809 C   0  0  0  0  0  0  0  0  0  0  0  0
   28.2133  -22.3821  -16.9066 N   0  0  0  0  0  0  0  0  0  0  0  0
   28.9754  -21.3150  -17.2383 C   0  0  0  0  0  0  0  0  0  0  0  0
   28.7641  -20.3522  -16.3372 N   0  0  0  0  0  0  0  0  0  0  0  0
   26.0963  -20.3147  -12.1373 C   0  0  0  0  0  0  0  0  0  0  0  0
   25.7327  -19.1196  -12.0159 O   0  0  0  0  0  0  0  0  0  0  0  0
   19.9584  -19.4461  -11.6659 O   0  0  0  0  0  0  0  0  0  0  0  0
   21.1146  -19.8869  -11.0290 C   0  0  0  0  0  0  0  0  0  0  0  0
   21.5956  -19.2156   -9.9263 C   0  0  0  0  0  0  0  0  0  0  0  0
   22.7408  -19.6606   -9.3038 C   0  0  0  0  0  0  0  0  0  0  0  0
   23.4497  -20.7838   -9.7497 C   0  0  0  0  0  0  0  0  0  0  0  0
   24.6634  -21.1807   -9.0021 C   0  0  0  0  0  0  0  0  0  0  0  0
   25.9477  -20.6675   -9.6421 C   0  0  2  0  0  0  0  0  0  0  0  0
   26.2043  -21.1011  -10.9598 N   0  0  0  0  0  0  0  0  0  0  0  0
   27.0944  -20.6580   -8.7157 C   0  0  0  0  0  0  0  0  0  0  0  0
   28.0011  -21.5577   -8.7984 O   0  0  0  0  0  0  0  0  0  0  0  0
   22.9323  -21.4194  -10.8506 C   0  0  0  0  0  0  0  0  0  0  0  0
   21.7845  -20.9901  -11.4909 C   0  0  0  0  0  0  0  0  0  0  0  0
   27.2937  -19.7014   -7.6967 N   0  0  0  0  0  0  0  0  0  0  0  0
   28.1625  -19.9489   -6.5790 C   0  0  1  0  0  0  0  0  0  0  0  0
   28.7018  -18.6774   -5.9664 C   0  0  0  0  0  0  0  0  0  0  0  0
   29.6151  -17.6614   -7.1193 S   0  0  0  0  0  0  0  0  0  0  0  0
   27.4458  -20.6770   -5.4773 C   0  0  0  0  0  0  0  0  0  0  0  0
   26.2194  -20.9398   -5.5862 O   0  0  0  0  0  0  0  0  0  0  0  0
   28.1122  -21.0711   -4.3293 O   0  0  0  0  0  0  0  0  0  0  0  0
  2  1  1  6
  2  3  1  0
  2  9  1  0
  3  4  1  0
  4  5  2  0
  6  5  1  0
  7  6  1  0
  8  7  2  0
  8  4  1  0
  9 10  2  0
  9 18  1  0
 12 11  1  0
 12 22  2  0
 13 12  1  0
 14 13  2  0
 14 15  1  0
 15 21  2  0
 16 15  1  0
 17 16  1  1
 18 17  1  0
 19 17  1  0
 19 20  2  0
 21 22  1  0
 23 19  1  0
 24 23  1  0
 24 25  1  1
 26 25  1  0
 27 24  1  0
 28 27  2  0
 29 27  1  0
M  END
$$$$
