HYC.pdb
     RDKit          3D

 29 30  0  0  1  0  0  0  0  0999 V2000
   23.5787  -24.1203  -15.3763 N   0  0  0  0  0  0  0  0  0  0  0  0
   24.0251  -22.9546  -16.0957 C   0  0  1  0  0  0  0  0  0  0  0  0
   24.5953  -23.4155  -17.4206 C   0  0  0  0  0  0  0  0  0  0  0  0
   25.8555  -24.1513  -17.1394 C   0  0  0  0  0  0  0  0  0  0  0  0
   26.0216  -25.5275  -17.0432 C   0  0  0  0  0  0  0  0  0  0  0  0
   27.3244  -25.8007  -16.7751 N   0  0  0  0  0  0  0  0  0  0  0  0
   27.9684  -24.6134  -16.7037 C   0  0  0  0  0  0  0  0  0  0  0  0
   27.0800  -23.6406  -16.9229 N   0  0  0  0  0  0  0  0  0  0  0  0
   22.9083  -21.9790  -16.3053 C   0  0  0  0  0  0  0  0  0  0  0  0
   21.7624  -22.3842  -16.6183 O   0  0  0  0  0  0  0  0  0  0  0  0
   19.1318  -21.8504  -11.0921 O   0  0  0  0  0  0  0  0  0  0  0  0
   19.7607  -21.0911  -12.0743 C   0  0  0  0  0  0  0  0  0  0  0  0
   21.1256  -20.9077  -12.0386 C   0  0  0  0  0  0  0  0  0  0  0  0
   21.7376  -20.1543  -13.0158 C   0  0  0  0  0  0  0  0  0  0  0  0
   21.0218  -19.5565  -14.0614 C   0  0  0  0  0  0  0  0  0  0  0  0
   21.7794  -18.7747  -15.0635 C   0  0  0  0  0  0  0  0  0  0  0  0
   22.1187  -19.5812  -16.3111 C   0  0  2  0  0  0  0  0  0  0  0  0
   23.1034  -20.5800  -16.1592 N   0  0  0  0  0  0  0  0  0  0  0  0
   22.1972  -18.7578  -17.5313 C   0  0  0  0  0  0  0  0  0  0  0  0
   23.2598  -18.0963  -17.7989 O   0  0  0  0  0  0  0  0  0  0  0  0
   19.6656  -19.7674  -14.0550 C   0  0  0  0  0  0  0  0  0  0  0  0
   19.0306  -20.5198  -13.0842 C   0  0  0  0  0  0  0  0  0  0  0  0
   21.1575  -18.6256  -18.4773 N   0  0  0  0  0  0  0  0  0  0  0  0
   21.3140  -17.8512  -19.6778 C   0  0  1  0  0  0  0  0  0  0  0  0
   20.5337  -18.4156  -20.8420 C   0  0  0  0  0  0  0  0  0  0  0  0
   20.8673  -20.1441  -21.1537 S   0  0  0  0  0  0  0  0  0  0  0  0
   20.8292  -16.4417  -19.4888 C   0  0  0  0  0  0  0  0  0  0  0  0
   20.3039  -16.0942  -18.3987 O   0  0  0  0  0  0  0  0  0  0  0  0
   20.9484  -15.5031  -20.4999 O   0  0  0  0  0  0  0  0  0  0  0  0
  2  1  1  6
  2  3  1  0
  2  9  1  0
  3  4  1  0
  4  5  2  0
  6  5  1  0
  7  6  1  0
  8  7  2  0
  8  4  1  0
  9 10  2  0
  9 18  1  0
 12 11  1  0
 12 22  2  0
 13 12  1  0
 14 13  2  0
 14 15  1  0
 15 21  2  0
 16 15  1  0
 17 16  1  1
 18 17  1  0
 19 17  1  0
 19 20  2  0
 21 22  1  0
 23 19  1  0
 24 23  1  0
 24 25  1  6
 26 25  1  0
 27 24  1  0
 28 27  2  0
 29 27  1  0
M  END
$$$$
