HYC.pdb
     RDKit          3D

 29 30  0  0  1  0  0  0  0  0999 V2000
   20.9215  -15.7597  -22.8644 N   0  0  0  0  0  0  0  0  0  0  0  0
   21.1819  -14.4306  -22.3728 C   0  0  1  0  0  0  0  0  0  0  0  0
   21.6507  -13.5866  -23.5393 C   0  0  0  0  0  0  0  0  0  0  0  0
   22.9866  -14.0890  -23.9533 C   0  0  0  0  0  0  0  0  0  0  0  0
   23.3349  -14.6363  -25.1821 C   0  0  0  0  0  0  0  0  0  0  0  0
   24.6504  -14.9723  -25.1628 N   0  0  0  0  0  0  0  0  0  0  0  0
   25.1227  -14.6411  -23.9393 C   0  0  0  0  0  0  0  0  0  0  0  0
   24.1198  -14.1163  -23.2305 N   0  0  0  0  0  0  0  0  0  0  0  0
   19.9648  -13.8335  -21.7365 C   0  0  0  0  0  0  0  0  0  0  0  0
   18.9363  -13.6101  -22.4202 O   0  0  0  0  0  0  0  0  0  0  0  0
   15.3928  -18.2544  -19.8445 O   0  0  0  0  0  0  0  0  0  0  0  0
   16.1215  -17.1153  -19.5158 C   0  0  0  0  0  0  0  0  0  0  0  0
   15.4687  -15.9454  -19.1942 C   0  0  0  0  0  0  0  0  0  0  0  0
   16.2000  -14.8240  -18.8705 C   0  0  0  0  0  0  0  0  0  0  0  0
   17.6009  -14.8203  -18.8536 C   0  0  0  0  0  0  0  0  0  0  0  0
   18.2874  -13.5630  -18.4832 C   0  0  0  0  0  0  0  0  0  0  0  0
   18.8847  -12.8382  -19.6832 C   0  0  2  0  0  0  0  0  0  0  0  0
   19.9315  -13.5032  -20.3558 N   0  0  0  0  0  0  0  0  0  0  0  0
   19.0581  -11.3913  -19.4604 C   0  0  0  0  0  0  0  0  0  0  0  0
   20.2068  -10.9162  -19.1553 O   0  0  0  0  0  0  0  0  0  0  0  0
   18.2062  -16.0079  -19.1805 C   0  0  0  0  0  0  0  0  0  0  0  0
   17.4920  -17.1455  -19.5087 C   0  0  0  0  0  0  0  0  0  0  0  0
   18.0234  -10.4357  -19.5575 N   0  0  0  0  0  0  0  0  0  0  0  0
   18.2508   -9.0388  -19.3081 C   0  0  1  0  0  0  0  0  0  0  0  0
   18.5957   -8.2707  -20.5627 C   0  0  0  0  0  0  0  0  0  0  0  0
   18.4154   -6.5007  -20.3880 S   0  0  0  0  0  0  0  0  0  0  0  0
   17.0308   -8.3785  -18.7311 C   0  0  0  0  0  0  0  0  0  0  0  0
   17.0894   -7.1899  -18.3202 O   0  0  0  0  0  0  0  0  0  0  0  0
   15.8269   -9.0564  -18.6397 O   0  0  0  0  0  0  0  0  0  0  0  0
  2  1  1  6
  2  3  1  0
  2  9  1  0
  3  4  1  0
  4  5  2  0
  6  5  1  0
  7  6  1  0
  8  7  2  0
  8  4  1  0
  9 10  2  0
  9 18  1  0
 12 11  1  0
 12 22  2  0
 13 12  1  0
 14 13  2  0
 14 15  1  0
 15 21  2  0
 16 15  1  0
 17 16  1  1
 18 17  1  0
 19 17  1  0
 19 20  2  0
 21 22  1  0
 23 19  1  0
 24 23  1  0
 24 25  1  6
 26 25  1  0
 27 24  1  0
 28 27  2  0
 29 27  1  0
M  END
$$$$
