HYC.pdb
     RDKit          3D

 29 30  0  0  1  0  0  0  0  0999 V2000
   22.3337  -37.6131  -10.7519 N   0  0  0  0  0  0  0  0  0  0  0  0
   22.0572  -37.3027   -9.3724 C   0  0  1  0  0  0  0  0  0  0  0  0
   21.9662  -38.6084   -8.6109 C   0  0  0  0  0  0  0  0  0  0  0  0
   20.7365  -39.3104   -9.0620 C   0  0  0  0  0  0  0  0  0  0  0  0
   20.6482  -40.5879   -9.6015 C   0  0  0  0  0  0  0  0  0  0  0  0
   19.3488  -40.8623   -9.8849 N   0  0  0  0  0  0  0  0  0  0  0  0
   18.6303  -39.7730   -9.5287 C   0  0  0  0  0  0  0  0  0  0  0  0
   19.4710  -38.8574   -9.0403 N   0  0  0  0  0  0  0  0  0  0  0  0
   23.1132  -36.4160   -8.7879 C   0  0  0  0  0  0  0  0  0  0  0  0
   24.3247  -36.6158   -9.0479 O   0  0  0  0  0  0  0  0  0  0  0  0
   25.9730  -32.3130  -12.9619 O   0  0  0  0  0  0  0  0  0  0  0  0
   25.4187  -32.4728  -11.6955 C   0  0  0  0  0  0  0  0  0  0  0  0
   24.0789  -32.7628  -11.5585 C   0  0  0  0  0  0  0  0  0  0  0  0
   23.5408  -32.9189  -10.3002 C   0  0  0  0  0  0  0  0  0  0  0  0
   24.3081  -32.7937   -9.1347 C   0  0  0  0  0  0  0  0  0  0  0  0
   23.6314  -32.9896   -7.8335 C   0  0  0  0  0  0  0  0  0  0  0  0
   23.6975  -34.4306   -7.3423 C   0  0  2  0  0  0  0  0  0  0  0  0
   22.7858  -35.3323   -7.9305 N   0  0  0  0  0  0  0  0  0  0  0  0
   23.8844  -34.5390   -5.8840 C   0  0  0  0  0  0  0  0  0  0  0  0
   22.9124  -34.8952   -5.1313 O   0  0  0  0  0  0  0  0  0  0  0  0
   25.6368  -32.5047   -9.3215 C   0  0  0  0  0  0  0  0  0  0  0  0
   26.1978  -32.3438  -10.5749 C   0  0  0  0  0  0  0  0  0  0  0  0
   25.0958  -34.2731   -5.2093 N   0  0  0  0  0  0  0  0  0  0  0  0
   25.2090  -34.3716   -3.7800 C   0  0  1  0  0  0  0  0  0  0  0  0
   26.6027  -34.0663   -3.2828 C   0  0  0  0  0  0  0  0  0  0  0  0
   27.1418  -32.4014   -3.6478 S   0  0  0  0  0  0  0  0  0  0  0  0
   24.2926  -33.4022   -3.0887 C   0  0  0  0  0  0  0  0  0  0  0  0
   23.7089  -32.5030   -3.7487 O   0  0  0  0  0  0  0  0  0  0  0  0
   24.0724  -33.4760   -1.7236 O   0  0  0  0  0  0  0  0  0  0  0  0
  2  1  1  6
  2  3  1  0
  2  9  1  0
  3  4  1  0
  4  5  2  0
  6  5  1  0
  7  6  1  0
  8  7  2  0
  8  4  1  0
  9 10  2  0
  9 18  1  0
 12 11  1  0
 12 22  2  0
 13 12  1  0
 14 13  2  0
 14 15  1  0
 15 21  2  0
 16 15  1  0
 17 16  1  1
 18 17  1  0
 19 17  1  0
 19 20  2  0
 21 22  1  0
 23 19  1  0
 24 23  1  0
 24 25  1  6
 26 25  1  0
 27 24  1  0
 28 27  2  0
 29 27  1  0
M  END
$$$$
