HYC.pdb
     RDKit          3D

 29 30  0  0  1  0  0  0  0  0999 V2000
   19.7977  -11.7532  -17.9521 N   0  0  0  0  0  0  0  0  0  0  0  0
   19.6027  -10.7373  -16.9493 C   0  0  1  0  0  0  0  0  0  0  0  0
   19.6975   -9.3877  -17.6295 C   0  0  0  0  0  0  0  0  0  0  0  0
   19.9648   -9.6258  -19.0718 C   0  0  0  0  0  0  0  0  0  0  0  0
   19.0280   -9.8307  -20.0775 C   0  0  0  0  0  0  0  0  0  0  0  0
   19.6747  -10.0105  -21.2579 N   0  0  0  0  0  0  0  0  0  0  0  0
   20.9991   -9.9200  -20.9983 C   0  0  0  0  0  0  0  0  0  0  0  0
   21.1557   -9.6907  -19.6920 N   0  0  0  0  0  0  0  0  0  0  0  0
   18.2834  -10.8956  -16.2582 C   0  0  0  0  0  0  0  0  0  0  0  0
   17.2793  -11.3006  -16.8930 O   0  0  0  0  0  0  0  0  0  0  0  0
   12.0068  -12.6384  -10.5064 O   0  0  0  0  0  0  0  0  0  0  0  0
   13.2516  -12.3402  -11.0526 C   0  0  0  0  0  0  0  0  0  0  0  0
   13.7313  -13.0683  -12.1192 C   0  0  0  0  0  0  0  0  0  0  0  0
   14.9647  -12.7646  -12.6518 C   0  0  0  0  0  0  0  0  0  0  0  0
   15.7658  -11.7312  -12.1488 C   0  0  0  0  0  0  0  0  0  0  0  0
   17.0707  -11.4838  -12.8012 C   0  0  0  0  0  0  0  0  0  0  0  0
   16.9396  -10.7435  -14.1266 C   0  0  2  0  0  0  0  0  0  0  0  0
   18.1239  -10.5972  -14.8791 N   0  0  0  0  0  0  0  0  0  0  0  0
   16.0580   -9.5645  -14.0485 C   0  0  0  0  0  0  0  0  0  0  0  0
   16.4905   -8.4638  -13.5589 O   0  0  0  0  0  0  0  0  0  0  0  0
   15.2460  -11.0341  -11.0868 C   0  0  0  0  0  0  0  0  0  0  0  0
   14.0107  -11.3219  -10.5365 C   0  0  0  0  0  0  0  0  0  0  0  0
   14.7156   -9.5371  -14.4853 N   0  0  0  0  0  0  0  0  0  0  0  0
   13.9064   -8.3537  -14.3859 C   0  0  1  0  0  0  0  0  0  0  0  0
   12.4970   -8.5669  -14.8869 C   0  0  0  0  0  0  0  0  0  0  0  0
   11.5165   -7.0723  -14.9168 S   0  0  0  0  0  0  0  0  0  0  0  0
   13.7824   -7.8914  -12.9617 C   0  0  0  0  0  0  0  0  0  0  0  0
   13.4589   -8.7062  -12.0581 O   0  0  0  0  0  0  0  0  0  0  0  0
   14.0191   -6.5718  -12.6153 O   0  0  0  0  0  0  0  0  0  0  0  0
  2  1  1  6
  2  3  1  0
  2  9  1  0
  3  4  1  0
  4  5  2  0
  6  5  1  0
  7  6  1  0
  8  7  2  0
  8  4  1  0
  9 10  2  0
  9 18  1  0
 12 11  1  0
 12 22  2  0
 13 12  1  0
 14 13  2  0
 14 15  1  0
 15 21  2  0
 16 15  1  0
 17 16  1  1
 18 17  1  0
 19 17  1  0
 19 20  2  0
 21 22  1  0
 23 19  1  0
 24 23  1  0
 24 25  1  1
 26 25  1  0
 27 24  1  0
 28 27  2  0
 29 27  1  0
M  END
$$$$
