HYC.pdb
     RDKit          3D

 29 30  0  0  1  0  0  0  0  0999 V2000
   23.6346  -19.2794  -19.6485 N   0  0  0  0  0  0  0  0  0  0  0  0
   24.1920  -20.3716  -18.8921 C   0  0  1  0  0  0  0  0  0  0  0  0
   25.2955  -20.9956  -19.7201 C   0  0  0  0  0  0  0  0  0  0  0  0
   24.6565  -21.7683  -20.8169 C   0  0  0  0  0  0  0  0  0  0  0  0
   24.9292  -23.0783  -21.1917 C   0  0  0  0  0  0  0  0  0  0  0  0
   24.1325  -23.4168  -22.2379 N   0  0  0  0  0  0  0  0  0  0  0  0
   23.3696  -22.3352  -22.5170 C   0  0  0  0  0  0  0  0  0  0  0  0
   23.6934  -21.3616  -21.6621 N   0  0  0  0  0  0  0  0  0  0  0  0
   24.7146  -19.9098  -17.5667 C   0  0  0  0  0  0  0  0  0  0  0  0
   25.5965  -19.0188  -17.5080 O   0  0  0  0  0  0  0  0  0  0  0  0
   18.2155  -20.2263  -15.7618 O   0  0  0  0  0  0  0  0  0  0  0  0
   19.5367  -20.0029  -15.3863 C   0  0  0  0  0  0  0  0  0  0  0  0
   20.1923  -18.8662  -15.8060 C   0  0  0  0  0  0  0  0  0  0  0  0
   21.5000  -18.6553  -15.4284 C   0  0  0  0  0  0  0  0  0  0  0  0
   22.2043  -19.5601  -14.6234 C   0  0  0  0  0  0  0  0  0  0  0  0
   23.6030  -19.2318  -14.2696 C   0  0  0  0  0  0  0  0  0  0  0  0
   24.6205  -20.0567  -15.0483 C   0  0  2  0  0  0  0  0  0  0  0  0
   24.2374  -20.4563  -16.3459 N   0  0  0  0  0  0  0  0  0  0  0  0
   25.3029  -21.0684  -14.2212 C   0  0  0  0  0  0  0  0  0  0  0  0
   25.0688  -22.3144  -14.3979 O   0  0  0  0  0  0  0  0  0  0  0  0
   21.5099  -20.6768  -14.2301 C   0  0  0  0  0  0  0  0  0  0  0  0
   20.1973  -20.9087  -14.5974 C   0  0  0  0  0  0  0  0  0  0  0  0
   26.2358  -20.7747  -13.2029 N   0  0  0  0  0  0  0  0  0  0  0  0
   26.4627  -21.6651  -12.0979 C   0  0  1  0  0  0  0  0  0  0  0  0
   27.6129  -21.2264  -11.2219 C   0  0  0  0  0  0  0  0  0  0  0  0
   27.3231  -19.6711  -10.3895 S   0  0  0  0  0  0  0  0  0  0  0  0
   25.2585  -21.7474  -11.2031 C   0  0  0  0  0  0  0  0  0  0  0  0
   24.3266  -20.9088  -11.3179 O   0  0  0  0  0  0  0  0  0  0  0  0
   25.1487  -22.7381  -10.2419 O   0  0  0  0  0  0  0  0  0  0  0  0
  2  1  1  6
  2  3  1  0
  2  9  1  0
  3  4  1  0
  4  5  2  0
  6  5  1  0
  7  6  1  0
  8  7  2  0
  8  4  1  0
  9 10  2  0
  9 18  1  0
 12 11  1  0
 12 22  2  0
 13 12  1  0
 14 13  2  0
 14 15  1  0
 15 21  2  0
 16 15  1  0
 17 16  1  1
 18 17  1  0
 19 17  1  0
 19 20  2  0
 21 22  1  0
 23 19  1  0
 24 23  1  0
 24 25  1  1
 26 25  1  0
 27 24  1  0
 28 27  2  0
 29 27  1  0
M  END
$$$$
