HYC.pdb
     RDKit          3D

 29 30  0  0  1  0  0  0  0  0999 V2000
   24.6972  -11.1949  -21.2027 N   0  0  0  0  0  0  0  0  0  0  0  0
   24.9864  -10.0651  -20.3567 C   0  0  1  0  0  0  0  0  0  0  0  0
   25.7569   -9.0534  -21.1786 C   0  0  0  0  0  0  0  0  0  0  0  0
   27.1576   -9.5365  -21.2938 C   0  0  0  0  0  0  0  0  0  0  0  0
   27.7176  -10.6461  -20.6727 C   0  0  0  0  0  0  0  0  0  0  0  0
   29.0226  -10.7470  -21.0344 N   0  0  0  0  0  0  0  0  0  0  0  0
   29.2795   -9.7156  -21.8709 C   0  0  0  0  0  0  0  0  0  0  0  0
   28.1589   -9.0037  -22.0155 N   0  0  0  0  0  0  0  0  0  0  0  0
   23.7333   -9.4603  -19.8028 C   0  0  0  0  0  0  0  0  0  0  0  0
   22.7509   -9.2387  -20.5519 O   0  0  0  0  0  0  0  0  0  0  0  0
   19.2207  -13.5062  -20.2778 O   0  0  0  0  0  0  0  0  0  0  0  0
   19.8195  -12.5381  -19.4774 C   0  0  0  0  0  0  0  0  0  0  0  0
   19.2205  -11.3083  -19.3140 C   0  0  0  0  0  0  0  0  0  0  0  0
   19.8222  -10.3576  -18.5196 C   0  0  0  0  0  0  0  0  0  0  0  0
   21.0360  -10.5896  -17.8595 C   0  0  0  0  0  0  0  0  0  0  0  0
   21.5908   -9.5020  -17.0235 C   0  0  0  0  0  0  0  0  0  0  0  0
   22.4836   -8.5483  -17.8079 C   0  0  2  0  0  0  0  0  0  0  0  0
   23.6135   -9.1206  -18.4291 N   0  0  0  0  0  0  0  0  0  0  0  0
   22.6875   -7.2547  -17.1310 C   0  0  0  0  0  0  0  0  0  0  0  0
   23.7133   -7.0667  -16.3890 O   0  0  0  0  0  0  0  0  0  0  0  0
   21.5943  -11.8286  -18.0521 C   0  0  0  0  0  0  0  0  0  0  0  0
   21.0079  -12.7976  -18.8451 C   0  0  0  0  0  0  0  0  0  0  0  0
   21.8128   -6.1509  -17.2312 N   0  0  0  0  0  0  0  0  0  0  0  0
   22.1035   -4.8896  -16.6069 C   0  0  1  0  0  0  0  0  0  0  0  0
   21.3243   -3.7455  -17.2125 C   0  0  0  0  0  0  0  0  0  0  0  0
   21.5328   -2.1992  -16.3400 S   0  0  0  0  0  0  0  0  0  0  0  0
   21.7577   -4.9082  -15.1448 C   0  0  0  0  0  0  0  0  0  0  0  0
   20.9211   -5.7388  -14.7032 O   0  0  0  0  0  0  0  0  0  0  0  0
   22.3463   -4.0205  -14.2598 O   0  0  0  0  0  0  0  0  0  0  0  0
  2  1  1  6
  2  3  1  0
  2  9  1  0
  3  4  1  0
  4  5  2  0
  6  5  1  0
  7  6  1  0
  8  7  2  0
  8  4  1  0
  9 10  2  0
  9 18  1  0
 12 11  1  0
 12 22  2  0
 13 12  1  0
 14 13  2  0
 14 15  1  0
 15 21  2  0
 16 15  1  0
 17 16  1  1
 18 17  1  0
 19 17  1  0
 19 20  2  0
 21 22  1  0
 23 19  1  0
 24 23  1  0
 24 25  1  6
 26 25  1  0
 27 24  1  0
 28 27  2  0
 29 27  1  0
M  END
$$$$
