HYC.pdb
     RDKit          3D

 29 30  0  0  1  0  0  0  0  0999 V2000
   23.7707  -12.9038  -17.4171 N   0  0  0  0  0  0  0  0  0  0  0  0
   22.6686  -12.0541  -17.7899 C   0  0  1  0  0  0  0  0  0  0  0  0
   21.4646  -12.9372  -18.0418 C   0  0  0  0  0  0  0  0  0  0  0  0
   21.7694  -13.7930  -19.2179 C   0  0  0  0  0  0  0  0  0  0  0  0
   21.8458  -13.3976  -20.5478 C   0  0  0  0  0  0  0  0  0  0  0  0
   22.1471  -14.4759  -21.3160 N   0  0  0  0  0  0  0  0  0  0  0  0
   22.2585  -15.5344  -20.4812 C   0  0  0  0  0  0  0  0  0  0  0  0
   22.0308  -15.1116  -19.2350 N   0  0  0  0  0  0  0  0  0  0  0  0
   22.3745  -11.0402  -16.7275 C   0  0  0  0  0  0  0  0  0  0  0  0
   21.9881  -11.4062  -15.5909 O   0  0  0  0  0  0  0  0  0  0  0  0
   28.2461  -11.1375  -16.1609 O   0  0  0  0  0  0  0  0  0  0  0  0
   27.1094  -10.3534  -15.9884 C   0  0  0  0  0  0  0  0  0  0  0  0
   26.6525   -9.5613  -17.0188 C   0  0  0  0  0  0  0  0  0  0  0  0
   25.5265   -8.7893  -16.8369 C   0  0  0  0  0  0  0  0  0  0  0  0
   24.8137   -8.7736  -15.6309 C   0  0  0  0  0  0  0  0  0  0  0  0
   23.6122   -7.9142  -15.5456 C   0  0  0  0  0  0  0  0  0  0  0  0
   22.3455   -8.6181  -16.0169 C   0  0  2  0  0  0  0  0  0  0  0  0
   22.5204   -9.6478  -16.9652 N   0  0  0  0  0  0  0  0  0  0  0  0
   21.2192   -7.6949  -16.2459 C   0  0  0  0  0  0  0  0  0  0  0  0
   21.0622   -7.1352  -17.3862 O   0  0  0  0  0  0  0  0  0  0  0  0
   25.3065   -9.5784  -14.6343 C   0  0  0  0  0  0  0  0  0  0  0  0
   26.4348  -10.3612  -14.7950 C   0  0  0  0  0  0  0  0  0  0  0  0
   20.2513   -7.3553  -15.2758 N   0  0  0  0  0  0  0  0  0  0  0  0
   19.0922   -6.5694  -15.5988 C   0  0  1  0  0  0  0  0  0  0  0  0
   17.8209   -7.1361  -15.0112 C   0  0  0  0  0  0  0  0  0  0  0  0
   17.5107   -8.8323  -15.4831 S   0  0  0  0  0  0  0  0  0  0  0  0
   19.2139   -5.1685  -15.0694 C   0  0  0  0  0  0  0  0  0  0  0  0
   20.2345   -4.8252  -14.4173 O   0  0  0  0  0  0  0  0  0  0  0  0
   18.2155   -4.2336  -15.2853 O   0  0  0  0  0  0  0  0  0  0  0  0
  2  1  1  1
  2  3  1  0
  2  9  1  0
  3  4  1  0
  4  5  2  0
  6  5  1  0
  7  6  1  0
  8  7  2  0
  8  4  1  0
  9 10  2  0
  9 18  1  0
 12 11  1  0
 12 22  2  0
 13 12  1  0
 14 13  2  0
 14 15  1  0
 15 21  2  0
 16 15  1  0
 17 16  1  6
 18 17  1  0
 19 17  1  0
 19 20  2  0
 21 22  1  0
 23 19  1  0
 24 23  1  0
 24 25  1  1
 26 25  1  0
 27 24  1  0
 28 27  2  0
 29 27  1  0
M  END
$$$$
