HYC.pdb
     RDKit          3D

 29 30  0  0  1  0  0  0  0  0999 V2000
   23.8849  -12.5548  -18.8533 N   0  0  0  0  0  0  0  0  0  0  0  0
   23.1741  -11.4027  -19.3465 C   0  0  1  0  0  0  0  0  0  0  0  0
   21.7906  -11.8537  -19.7654 C   0  0  0  0  0  0  0  0  0  0  0  0
   21.9331  -12.6546  -21.0091 C   0  0  0  0  0  0  0  0  0  0  0  0
   21.9051  -14.0390  -21.1250 C   0  0  0  0  0  0  0  0  0  0  0  0
   22.0700  -14.3797  -22.4291 N   0  0  0  0  0  0  0  0  0  0  0  0
   22.1999  -13.2261  -23.1233 C   0  0  0  0  0  0  0  0  0  0  0  0
   22.1162  -12.2075  -22.2636 N   0  0  0  0  0  0  0  0  0  0  0  0
   23.0935  -10.3238  -18.3109 C   0  0  0  0  0  0  0  0  0  0  0  0
   22.6681  -10.5812  -17.1585 O   0  0  0  0  0  0  0  0  0  0  0  0
   28.1703  -11.5949  -15.2624 O   0  0  0  0  0  0  0  0  0  0  0  0
   27.3703  -10.5737  -15.7661 C   0  0  0  0  0  0  0  0  0  0  0  0
   26.4021   -9.9982  -14.9727 C   0  0  0  0  0  0  0  0  0  0  0  0
   25.6160   -8.9882  -15.4816 C   0  0  0  0  0  0  0  0  0  0  0  0
   25.7596   -8.5126  -16.7916 C   0  0  0  0  0  0  0  0  0  0  0  0
   24.8682   -7.4178  -17.2344 C   0  0  0  0  0  0  0  0  0  0  0  0
   23.4978   -7.9131  -17.6803 C   0  0  2  0  0  0  0  0  0  0  0  0
   23.4901   -8.9896  -18.5920 N   0  0  0  0  0  0  0  0  0  0  0  0
   22.5422   -6.8212  -17.9409 C   0  0  0  0  0  0  0  0  0  0  0  0
   22.5005   -6.2575  -19.0893 O   0  0  0  0  0  0  0  0  0  0  0  0
   26.7366   -9.1161  -17.5432 C   0  0  0  0  0  0  0  0  0  0  0  0
   27.5369  -10.1313  -17.0529 C   0  0  0  0  0  0  0  0  0  0  0  0
   21.6248   -6.3159  -16.9941 N   0  0  0  0  0  0  0  0  0  0  0  0
   20.6867   -5.2776  -17.3215 C   0  0  1  0  0  0  0  0  0  0  0  0
   19.4385   -5.3299  -16.4717 C   0  0  0  0  0  0  0  0  0  0  0  0
   18.2968   -3.9935  -16.7976 S   0  0  0  0  0  0  0  0  0  0  0  0
   21.2822   -3.9140  -17.1128 C   0  0  0  0  0  0  0  0  0  0  0  0
   21.8226   -3.6212  -16.0142 O   0  0  0  0  0  0  0  0  0  0  0  0
   21.2497   -2.9590  -18.1150 O   0  0  0  0  0  0  0  0  0  0  0  0
  2  1  1  1
  2  3  1  0
  2  9  1  0
  3  4  1  0
  4  5  2  0
  6  5  1  0
  7  6  1  0
  8  7  2  0
  8  4  1  0
  9 10  2  0
  9 18  1  0
 12 11  1  0
 12 22  2  0
 13 12  1  0
 14 13  2  0
 14 15  1  0
 15 21  2  0
 16 15  1  0
 17 16  1  6
 18 17  1  0
 19 17  1  0
 19 20  2  0
 21 22  1  0
 23 19  1  0
 24 23  1  0
 24 25  1  1
 26 25  1  0
 27 24  1  0
 28 27  2  0
 29 27  1  0
M  END
$$$$
