HYC.pdb
     RDKit          3D

 29 30  0  0  1  0  0  0  0  0999 V2000
   16.2163   -9.7740  -12.9268 N   0  0  0  0  0  0  0  0  0  0  0  0
   16.9407   -8.5743  -12.5926 C   0  0  1  0  0  0  0  0  0  0  0  0
   17.3992   -7.9323  -13.8851 C   0  0  0  0  0  0  0  0  0  0  0  0
   18.3755   -8.8517  -14.5255 C   0  0  0  0  0  0  0  0  0  0  0  0
   19.4873   -9.4405  -13.9355 C   0  0  0  0  0  0  0  0  0  0  0  0
   20.1219  -10.2129  -14.8545 N   0  0  0  0  0  0  0  0  0  0  0  0
   19.4193  -10.1113  -16.0059 C   0  0  0  0  0  0  0  0  0  0  0  0
   18.3822   -9.2971  -15.7939 N   0  0  0  0  0  0  0  0  0  0  0  0
   16.0959   -7.6280  -11.7965 C   0  0  0  0  0  0  0  0  0  0  0  0
   14.9136   -7.3880  -12.1428 O   0  0  0  0  0  0  0  0  0  0  0  0
   10.9084   -9.8223   -8.2498 O   0  0  0  0  0  0  0  0  0  0  0  0
   12.0581   -9.0396   -8.2945 C   0  0  0  0  0  0  0  0  0  0  0  0
   11.9653   -7.6681   -8.2025 C   0  0  0  0  0  0  0  0  0  0  0  0
   13.1098   -6.9032   -8.2480 C   0  0  0  0  0  0  0  0  0  0  0  0
   14.3848   -7.4672   -8.3861 C   0  0  0  0  0  0  0  0  0  0  0  0
   15.5486   -6.5539   -8.4153 C   0  0  0  0  0  0  0  0  0  0  0  0
   15.8877   -6.0710   -9.8203 C   0  0  2  0  0  0  0  0  0  0  0  0
   16.5956   -6.9774  -10.6374 N   0  0  0  0  0  0  0  0  0  0  0  0
   16.3277   -4.6646   -9.8605 C   0  0  0  0  0  0  0  0  0  0  0  0
   17.4751   -4.3316   -9.4014 O   0  0  0  0  0  0  0  0  0  0  0  0
   14.4269   -8.8363   -8.4736 C   0  0  0  0  0  0  0  0  0  0  0  0
   13.2911   -9.6234   -8.4303 C   0  0  0  0  0  0  0  0  0  0  0  0
   15.5623   -3.6000  -10.3842 N   0  0  0  0  0  0  0  0  0  0  0  0
   16.1205   -2.2928  -10.5960 C   0  0  1  0  0  0  0  0  0  0  0  0
   15.5654   -1.6136  -11.8262 C   0  0  0  0  0  0  0  0  0  0  0  0
   15.5907   -2.6472  -13.2847 S   0  0  0  0  0  0  0  0  0  0  0  0
   15.8285   -1.3774   -9.4409 C   0  0  0  0  0  0  0  0  0  0  0  0
   15.0750   -1.7581   -8.5069 O   0  0  0  0  0  0  0  0  0  0  0  0
   16.3766   -0.1073   -9.3790 O   0  0  0  0  0  0  0  0  0  0  0  0
  2  1  1  6
  2  3  1  0
  2  9  1  0
  3  4  1  0
  4  5  2  0
  6  5  1  0
  7  6  1  0
  8  7  2  0
  8  4  1  0
  9 10  2  0
  9 18  1  0
 12 11  1  0
 12 22  2  0
 13 12  1  0
 14 13  2  0
 14 15  1  0
 15 21  2  0
 16 15  1  0
 17 16  1  1
 18 17  1  0
 19 17  1  0
 19 20  2  0
 21 22  1  0
 23 19  1  0
 24 23  1  0
 24 25  1  6
 26 25  1  0
 27 24  1  0
 28 27  2  0
 29 27  1  0
M  END
$$$$
