HYC.pdb
     RDKit          3D

 29 30  0  0  1  0  0  0  0  0999 V2000
   26.6417  -21.5170  -17.5683 N   0  0  0  0  0  0  0  0  0  0  0  0
   26.0497  -22.2436  -16.4741 C   0  0  1  0  0  0  0  0  0  0  0  0
   27.1616  -22.9543  -15.7317 C   0  0  0  0  0  0  0  0  0  0  0  0
   27.4782  -24.2008  -16.4763 C   0  0  0  0  0  0  0  0  0  0  0  0
   26.8593  -24.6722  -17.6276 C   0  0  0  0  0  0  0  0  0  0  0  0
   27.4384  -25.8438  -17.9962 N   0  0  0  0  0  0  0  0  0  0  0  0
   28.4077  -26.1055  -17.0896 C   0  0  0  0  0  0  0  0  0  0  0  0
   28.4190  -25.1178  -16.1908 N   0  0  0  0  0  0  0  0  0  0  0  0
   25.2924  -21.3328  -15.5576 C   0  0  0  0  0  0  0  0  0  0  0  0
   25.7711  -20.2192  -15.2320 O   0  0  0  0  0  0  0  0  0  0  0  0
   22.1934  -17.4082  -19.4507 O   0  0  0  0  0  0  0  0  0  0  0  0
   22.1183  -18.1425  -18.2710 C   0  0  0  0  0  0  0  0  0  0  0  0
   21.7825  -19.4782  -18.3078 C   0  0  0  0  0  0  0  0  0  0  0  0
   21.7111  -20.1952  -17.1340 C   0  0  0  0  0  0  0  0  0  0  0  0
   21.9688  -19.6171  -15.8841 C   0  0  0  0  0  0  0  0  0  0  0  0
   21.8721  -20.4807  -14.6865 C   0  0  0  0  0  0  0  0  0  0  0  0
   23.2336  -20.9151  -14.1577 C   0  0  2  0  0  0  0  0  0  0  0  0
   24.0232  -21.6918  -15.0315 N   0  0  0  0  0  0  0  0  0  0  0  0
   23.2000  -21.3393  -12.7462 C   0  0  0  0  0  0  0  0  0  0  0  0
   22.6316  -22.4367  -12.4133 O   0  0  0  0  0  0  0  0  0  0  0  0
   22.2994  -18.2851  -15.8979 C   0  0  0  0  0  0  0  0  0  0  0  0
   22.3768  -17.5462  -17.0640 C   0  0  0  0  0  0  0  0  0  0  0  0
   23.7645  -20.6108  -11.6766 N   0  0  0  0  0  0  0  0  0  0  0  0
   23.6161  -21.0273  -10.3092 C   0  0  1  0  0  0  0  0  0  0  0  0
   24.6619  -20.4261   -9.3994 C   0  0  0  0  0  0  0  0  0  0  0  0
   26.2901  -20.3535  -10.1339 S   0  0  0  0  0  0  0  0  0  0  0  0
   22.2836  -20.6143   -9.7512 C   0  0  0  0  0  0  0  0  0  0  0  0
   21.5362  -19.8408  -10.4053 O   0  0  0  0  0  0  0  0  0  0  0  0
   21.8530  -21.0711   -8.5169 O   0  0  0  0  0  0  0  0  0  0  0  0
  2  1  1  6
  2  3  1  0
  2  9  1  0
  3  4  1  0
  4  5  2  0
  6  5  1  0
  7  6  1  0
  8  7  2  0
  8  4  1  0
  9 10  2  0
  9 18  1  0
 12 11  1  0
 12 22  2  0
 13 12  1  0
 14 13  2  0
 14 15  1  0
 15 21  2  0
 16 15  1  0
 17 16  1  6
 18 17  1  0
 19 17  1  0
 19 20  2  0
 21 22  1  0
 23 19  1  0
 24 23  1  0
 24 25  1  1
 26 25  1  0
 27 24  1  0
 28 27  2  0
 29 27  1  0
M  END
$$$$
