GQA.pdb
     RDKit          3D

 19 18  0  0  1  0  0  0  0  0999 V2000
    7.3673  -18.9157   19.2342 N   0  0  0  0  0  0  0  0  0  0  0  0
    6.4797  -17.9201   19.7682 C   0  0  0  0  0  0  0  0  0  0  0  0
    7.3175  -16.8151   20.3102 C   0  0  0  0  0  0  0  0  0  0  0  0
    8.5278  -17.0752   20.5678 O   0  0  0  0  0  0  0  0  0  0  0  0
    8.7047  -13.9384   17.5361 N   0  0  0  0  0  0  0  0  0  0  0  0
    8.5040  -13.1217   18.6782 C   0  0  0  0  0  0  0  0  0  0  0  0
    9.4504  -12.4633   19.1662 O   0  0  0  0  0  0  0  0  0  0  0  0
    7.1515  -13.0146   19.3457 C   0  0  0  0  0  0  0  0  0  0  0  0
    7.3036  -13.1530   20.8239 C   0  0  0  0  0  0  0  0  0  0  0  0
    7.6885  -14.5532   21.2203 C   0  0  2  0  0  0  0  0  0  0  0  0
    6.8085  -15.5132   20.5393 N   0  0  0  0  0  0  0  0  0  0  0  0
    7.6853  -14.7868   22.6655 C   0  0  0  0  0  0  0  0  0  0  0  0
    6.7018  -15.3266   23.2200 O   0  0  0  0  0  0  0  0  0  0  0  0
    7.3124  -14.7495   25.4562 C   0  0  0  0  0  0  0  0  0  0  0  0
    8.7428  -14.7897   24.9135 C   0  0  2  0  0  0  0  0  0  0  0  0
    8.7718  -14.4254   23.5154 N   0  0  0  0  0  0  0  0  0  0  0  0
    9.2305  -16.1663   25.1128 C   0  0  0  0  0  0  0  0  0  0  0  0
    9.4182  -16.9071   24.1145 O   0  0  0  0  0  0  0  0  0  0  0  0
    9.4715  -16.6137   26.3966 O   0  0  0  0  0  0  0  0  0  0  0  0
  1  2  1  0
  2  3  1  0
  3 11  1  0
  3  4  2  0
  5  6  1  0
  6  7  2  0
  8  9  1  0
  8  6  1  0
 10  9  1  1
 11 10  1  0
 12 10  1  0
 12 16  1  0
 13 12  2  0
 15 16  1  0
 15 17  1  0
 15 14  1  6
 17 19  1  0
 18 17  2  0
M  END
$$$$
