GQA.pdb
     RDKit          3D

 19 18  0  0  1  0  0  0  0  0999 V2000
   10.8336  -19.5279   16.2415 N   0  0  0  0  0  0  0  0  0  0  0  0
    9.9286  -19.4133   17.3515 C   0  0  0  0  0  0  0  0  0  0  0  0
   10.2236  -18.1270   18.0409 C   0  0  0  0  0  0  0  0  0  0  0  0
   11.3567  -17.6041   17.8371 O   0  0  0  0  0  0  0  0  0  0  0  0
    7.9635  -11.8646   20.3916 N   0  0  0  0  0  0  0  0  0  0  0  0
    7.8997  -13.2175   20.8124 C   0  0  0  0  0  0  0  0  0  0  0  0
    6.8623  -13.6716   21.3460 O   0  0  0  0  0  0  0  0  0  0  0  0
    9.0714  -14.1567   20.6349 C   0  0  0  0  0  0  0  0  0  0  0  0
    8.6276  -15.3919   19.9246 C   0  0  0  0  0  0  0  0  0  0  0  0
    9.7705  -16.3404   19.6794 C   0  0  2  0  0  0  0  0  0  0  0  0
    9.2928  -17.4893   18.8973 N   0  0  0  0  0  0  0  0  0  0  0  0
   10.4443  -16.7913   20.8983 C   0  0  0  0  0  0  0  0  0  0  0  0
   10.0066  -17.7718   21.5410 O   0  0  0  0  0  0  0  0  0  0  0  0
   13.7037  -16.2107   22.6958 C   0  0  0  0  0  0  0  0  0  0  0  0
   12.2599  -16.7075   22.5920 C   0  0  2  0  0  0  0  0  0  0  0  0
   11.6121  -16.1616   21.4213 N   0  0  0  0  0  0  0  0  0  0  0  0
   11.5766  -16.2769   23.8250 C   0  0  0  0  0  0  0  0  0  0  0  0
   10.6301  -15.4525   23.7526 O   0  0  0  0  0  0  0  0  0  0  0  0
   11.9926  -16.7904   25.0372 O   0  0  0  0  0  0  0  0  0  0  0  0
  1  2  1  0
  2  3  1  0
  3 11  1  0
  3  4  2  0
  5  6  1  0
  6  7  2  0
  8  9  1  0
  8  6  1  0
 10  9  1  1
 11 10  1  0
 12 10  1  0
 12 16  1  0
 13 12  2  0
 15 16  1  0
 15 17  1  0
 15 14  1  1
 17 19  1  0
 18 17  2  0
M  END
$$$$
