GQA.pdb
     RDKit          3D

 19 18  0  0  1  0  0  0  0  0999 V2000
    4.2385  -19.0553   22.4025 N   0  0  0  0  0  0  0  0  0  0  0  0
    4.3653  -17.6341   22.5713 C   0  0  0  0  0  0  0  0  0  0  0  0
    5.7805  -17.2719   22.2835 C   0  0  0  0  0  0  0  0  0  0  0  0
    6.6028  -18.2192   22.1245 O   0  0  0  0  0  0  0  0  0  0  0  0
    6.5177  -12.3798   18.4964 N   0  0  0  0  0  0  0  0  0  0  0  0
    7.5047  -13.2315   19.0547 C   0  0  0  0  0  0  0  0  0  0  0  0
    8.7222  -12.9935   18.8865 O   0  0  0  0  0  0  0  0  0  0  0  0
    7.1294  -14.4498   19.8679 C   0  0  0  0  0  0  0  0  0  0  0  0
    7.8354  -14.4187   21.1825 C   0  0  0  0  0  0  0  0  0  0  0  0
    7.6521  -15.7011   21.9491 C   0  0  2  0  0  0  0  0  0  0  0  0
    6.2196  -15.9287   22.1853 N   0  0  0  0  0  0  0  0  0  0  0  0
    8.3970  -15.7558   23.2082 C   0  0  0  0  0  0  0  0  0  0  0  0
    7.8140  -15.5718   24.3000 O   0  0  0  0  0  0  0  0  0  0  0  0
    9.9160  -17.3685   25.3127 C   0  0  0  0  0  0  0  0  0  0  0  0
   10.4449  -16.1458   24.5594 C   0  0  2  0  0  0  0  0  0  0  0  0
    9.7977  -16.0151   23.2739 N   0  0  0  0  0  0  0  0  0  0  0  0
   11.8974  -16.3427   24.4038 C   0  0  0  0  0  0  0  0  0  0  0  0
   12.3813  -16.4991   23.2540 O   0  0  0  0  0  0  0  0  0  0  0  0
   12.6978  -16.3510   25.5288 O   0  0  0  0  0  0  0  0  0  0  0  0
  1  2  1  0
  2  3  1  0
  3 11  1  0
  3  4  2  0
  5  6  1  0
  6  7  2  0
  8  9  1  0
  8  6  1  0
 10  9  1  1
 11 10  1  0
 12 10  1  0
 12 16  1  0
 13 12  2  0
 15 16  1  0
 15 17  1  0
 15 14  1  6
 17 19  1  0
 18 17  2  0
M  END
$$$$
