GQA.pdb
     RDKit          3D

 19 18  0  0  1  0  0  0  0  0999 V2000
   15.4063  -18.3206   16.6061 N   0  0  0  0  0  0  0  0  0  0  0  0
   15.3967  -18.9798   17.8827 C   0  0  0  0  0  0  0  0  0  0  0  0
   14.0970  -18.6692   18.5391 C   0  0  0  0  0  0  0  0  0  0  0  0
   13.4203  -17.7115   18.0659 O   0  0  0  0  0  0  0  0  0  0  0  0
    8.3265  -19.3567   19.0360 N   0  0  0  0  0  0  0  0  0  0  0  0
    9.1613  -20.3359   19.6324 C   0  0  0  0  0  0  0  0  0  0  0  0
    9.1628  -21.5150   19.2118 O   0  0  0  0  0  0  0  0  0  0  0  0
   10.0743  -19.9979   20.7894 C   0  0  0  0  0  0  0  0  0  0  0  0
   11.4896  -20.2967   20.4221 C   0  0  0  0  0  0  0  0  0  0  0  0
   12.2802  -19.0419   20.1647 C   0  0  2  0  0  0  0  0  0  0  0  0
   13.6101  -19.3990   19.6513 N   0  0  0  0  0  0  0  0  0  0  0  0
   12.3965  -18.1604   21.3277 C   0  0  0  0  0  0  0  0  0  0  0  0
   13.4160  -18.1956   22.0525 O   0  0  0  0  0  0  0  0  0  0  0  0
   10.4709  -15.3431   22.9730 C   0  0  0  0  0  0  0  0  0  0  0  0
   11.5575  -16.4174   22.8865 C   0  0  2  0  0  0  0  0  0  0  0  0
   11.3847  -17.2282   21.7028 N   0  0  0  0  0  0  0  0  0  0  0  0
   11.4420  -17.2328   24.1089 C   0  0  0  0  0  0  0  0  0  0  0  0
   10.9891  -18.4031   24.0320 O   0  0  0  0  0  0  0  0  0  0  0  0
   11.8354  -16.6912   25.3165 O   0  0  0  0  0  0  0  0  0  0  0  0
  1  2  1  0
  2  3  1  0
  3 11  1  0
  3  4  2  0
  5  6  1  0
  6  7  2  0
  8  9  1  0
  8  6  1  0
 10  9  1  1
 11 10  1  0
 12 10  1  0
 12 16  1  0
 13 12  2  0
 15 16  1  0
 15 17  1  0
 15 14  1  1
 17 19  1  0
 18 17  2  0
M  END
$$$$
