GQA.pdb
     RDKit          3D

 19 18  0  0  1  0  0  0  0  0999 V2000
   10.0975  -20.5761   20.2466 N   0  0  0  0  0  0  0  0  0  0  0  0
    8.8565  -19.9603   20.6271 C   0  0  0  0  0  0  0  0  0  0  0  0
    9.1436  -18.5374   20.9578 C   0  0  0  0  0  0  0  0  0  0  0  0
   10.3210  -18.2500   21.3185 O   0  0  0  0  0  0  0  0  0  0  0  0
    7.7476  -11.4569   19.7313 N   0  0  0  0  0  0  0  0  0  0  0  0
    7.8987  -12.8514   19.5214 C   0  0  0  0  0  0  0  0  0  0  0  0
    7.6509  -13.3592   18.4043 O   0  0  0  0  0  0  0  0  0  0  0  0
    8.3608  -13.7719   20.6285 C   0  0  0  0  0  0  0  0  0  0  0  0
    7.9067  -15.1661   20.3508 C   0  0  0  0  0  0  0  0  0  0  0  0
    8.5565  -16.1629   21.2728 C   0  0  2  0  0  0  0  0  0  0  0  0
    8.1585  -17.5223   20.8814 N   0  0  0  0  0  0  0  0  0  0  0  0
    8.2788  -15.9331   22.6917 C   0  0  0  0  0  0  0  0  0  0  0  0
    7.2767  -16.4493   23.2350 O   0  0  0  0  0  0  0  0  0  0  0  0
    7.2882  -14.7831   25.1308 C   0  0  0  0  0  0  0  0  0  0  0  0
    8.7919  -14.9855   24.9302 C   0  0  2  0  0  0  0  0  0  0  0  0
    9.1081  -15.1283   23.5273 N   0  0  0  0  0  0  0  0  0  0  0  0
    9.1576  -16.1993   25.6822 C   0  0  0  0  0  0  0  0  0  0  0  0
    8.9634  -16.2405   26.9236 O   0  0  0  0  0  0  0  0  0  0  0  0
    9.7078  -17.2687   25.0039 O   0  0  0  0  0  0  0  0  0  0  0  0
  1  2  1  0
  2  3  1  0
  3 11  1  0
  3  4  2  0
  5  6  1  0
  6  7  2  0
  8  9  1  0
  8  6  1  0
 10  9  1  6
 11 10  1  0
 12 10  1  0
 12 16  1  0
 13 12  2  0
 15 16  1  0
 15 17  1  0
 15 14  1  6
 17 19  1  0
 18 17  2  0
M  END
$$$$
