GQA.pdb
     RDKit          3D

 19 18  0  0  1  0  0  0  0  0999 V2000
    7.5766  -19.2603   19.0540 N   0  0  0  0  0  0  0  0  0  0  0  0
    6.8154  -18.3546   19.8691 C   0  0  0  0  0  0  0  0  0  0  0  0
    7.6881  -17.1895   20.1817 C   0  0  0  0  0  0  0  0  0  0  0  0
    8.9004  -17.2593   19.8289 O   0  0  0  0  0  0  0  0  0  0  0  0
    9.0440  -11.9600   19.2547 N   0  0  0  0  0  0  0  0  0  0  0  0
    8.1106  -13.0219   19.1415 C   0  0  0  0  0  0  0  0  0  0  0  0
    8.1929  -13.8465   18.2031 O   0  0  0  0  0  0  0  0  0  0  0  0
    6.9893  -13.1987   20.1403 C   0  0  0  0  0  0  0  0  0  0  0  0
    7.5378  -13.7009   21.4342 C   0  0  0  0  0  0  0  0  0  0  0  0
    8.2036  -15.0421   21.2794 C   0  0  2  0  0  0  0  0  0  0  0  0
    7.2093  -16.0341   20.8468 N   0  0  0  0  0  0  0  0  0  0  0  0
    8.9032  -15.5035   22.4797 C   0  0  0  0  0  0  0  0  0  0  0  0
    8.2649  -15.7862   23.5183 O   0  0  0  0  0  0  0  0  0  0  0  0
   10.5192  -17.6254   23.9910 C   0  0  0  0  0  0  0  0  0  0  0  0
   10.9317  -16.1716   23.7489 C   0  0  2  0  0  0  0  0  0  0  0  0
   10.3193  -15.6579   22.5450 N   0  0  0  0  0  0  0  0  0  0  0  0
   12.4017  -16.1631   23.6410 C   0  0  0  0  0  0  0  0  0  0  0  0
   12.9400  -15.8795   22.5408 O   0  0  0  0  0  0  0  0  0  0  0  0
   13.1582  -16.4681   24.7550 O   0  0  0  0  0  0  0  0  0  0  0  0
  1  2  1  0
  2  3  1  0
  3 11  1  0
  3  4  2  0
  5  6  1  0
  6  7  2  0
  8  9  1  0
  8  6  1  0
 10  9  1  1
 11 10  1  0
 12 10  1  0
 12 16  1  0
 13 12  2  0
 15 16  1  0
 15 17  1  0
 15 14  1  6
 17 19  1  0
 18 17  2  0
M  END
$$$$
