GQA.pdb
     RDKit          3D

 19 18  0  0  1  0  0  0  0  0999 V2000
    0.3069  -21.1523   17.9567 N   0  0  0  0  0  0  0  0  0  0  0  0
    0.1908  -20.6680   19.3044 C   0  0  0  0  0  0  0  0  0  0  0  0
    1.5666  -20.3958   19.8043 C   0  0  0  0  0  0  0  0  0  0  0  0
    2.5242  -20.9783   19.2189 O   0  0  0  0  0  0  0  0  0  0  0  0
    5.5224  -18.0930   19.7114 N   0  0  0  0  0  0  0  0  0  0  0  0
    5.9499  -17.9445   21.0555 C   0  0  0  0  0  0  0  0  0  0  0  0
    7.1672  -17.8447   21.3307 O   0  0  0  0  0  0  0  0  0  0  0  0
    4.9618  -17.9012   22.1992 C   0  0  0  0  0  0  0  0  0  0  0  0
    3.5712  -18.0283   21.6724 C   0  0  0  0  0  0  0  0  0  0  0  0
    3.2049  -19.4614   21.3933 C   0  0  2  0  0  0  0  0  0  0  0  0
    1.8255  -19.5240   20.8903 N   0  0  0  0  0  0  0  0  0  0  0  0
    3.3764  -20.3557   22.5395 C   0  0  0  0  0  0  0  0  0  0  0  0
    2.6415  -20.2466   23.5465 O   0  0  0  0  0  0  0  0  0  0  0  0
    4.5033  -23.7104   23.3369 C   0  0  0  0  0  0  0  0  0  0  0  0
    4.4610  -22.2366   23.7471 C   0  0  2  0  0  0  0  0  0  0  0  0
    4.3647  -21.3828   22.5851 N   0  0  0  0  0  0  0  0  0  0  0  0
    5.7018  -21.9723   24.4975 C   0  0  0  0  0  0  0  0  0  0  0  0
    6.5372  -21.1501   24.0427 O   0  0  0  0  0  0  0  0  0  0  0  0
    5.9203  -22.6362   25.6883 O   0  0  0  0  0  0  0  0  0  0  0  0
  1  2  1  0
  2  3  1  0
  3 11  1  0
  3  4  2  0
  5  6  1  0
  6  7  2  0
  8  9  1  0
  8  6  1  0
 10  9  1  1
 11 10  1  0
 12 10  1  0
 12 16  1  0
 13 12  2  0
 15 16  1  0
 15 17  1  0
 15 14  1  6
 17 19  1  0
 18 17  2  0
M  END
$$$$
