GQA.pdb
     RDKit          3D

 19 18  0  0  1  0  0  0  0  0999 V2000
    9.7480  -19.5483   17.9058 N   0  0  0  0  0  0  0  0  0  0  0  0
    8.6969  -18.9332   18.6681 C   0  0  0  0  0  0  0  0  0  0  0  0
    9.2918  -17.7890   19.4122 C   0  0  0  0  0  0  0  0  0  0  0  0
   10.5318  -17.8349   19.6559 O   0  0  0  0  0  0  0  0  0  0  0  0
    6.2128  -12.8947   19.4919 N   0  0  0  0  0  0  0  0  0  0  0  0
    7.2364  -13.1665   18.5487 C   0  0  0  0  0  0  0  0  0  0  0  0
    7.0638  -12.9255   17.3324 O   0  0  0  0  0  0  0  0  0  0  0  0
    8.5648  -13.7528   18.9705 C   0  0  0  0  0  0  0  0  0  0  0  0
    8.4588  -14.3049   20.3530 C   0  0  0  0  0  0  0  0  0  0  0  0
    9.2415  -15.5811   20.5099 C   0  0  2  0  0  0  0  0  0  0  0  0
    8.5259  -16.6782   19.8435 N   0  0  0  0  0  0  0  0  0  0  0  0
    9.5414  -15.9306   21.8995 C   0  0  0  0  0  0  0  0  0  0  0  0
    8.6207  -16.2274   22.6932 O   0  0  0  0  0  0  0  0  0  0  0  0
   10.6415  -17.8408   23.9767 C   0  0  0  0  0  0  0  0  0  0  0  0
   11.0887  -16.3893   23.7883 C   0  0  2  0  0  0  0  0  0  0  0  0
   10.8658  -15.9559   22.4279 N   0  0  0  0  0  0  0  0  0  0  0  0
   12.5214  -16.3420   24.1315 C   0  0  0  0  0  0  0  0  0  0  0  0
   13.3645  -16.0836   23.2354 O   0  0  0  0  0  0  0  0  0  0  0  0
   12.9076  -16.5834   25.4350 O   0  0  0  0  0  0  0  0  0  0  0  0
  1  2  1  0
  2  3  1  0
  3 11  1  0
  3  4  2  0
  5  6  1  0
  6  7  2  0
  8  9  1  0
  8  6  1  0
 10  9  1  1
 11 10  1  0
 12 10  1  0
 12 16  1  0
 13 12  2  0
 15 16  1  0
 15 17  1  0
 15 14  1  6
 17 19  1  0
 18 17  2  0
M  END
$$$$
