GQA.pdb
     RDKit          3D

 19 18  0  0  1  0  0  0  0  0999 V2000
    7.8959  -25.9097   24.7773 N   0  0  0  0  0  0  0  0  0  0  0  0
    8.9011  -26.5354   25.5911 C   0  0  0  0  0  0  0  0  0  0  0  0
    9.1507  -25.6469   26.7594 C   0  0  0  0  0  0  0  0  0  0  0  0
    8.3439  -24.6913   26.9466 O   0  0  0  0  0  0  0  0  0  0  0  0
    8.7683  -26.7415   32.9417 N   0  0  0  0  0  0  0  0  0  0  0  0
    9.7629  -26.1736   32.1051 C   0  0  0  0  0  0  0  0  0  0  0  0
   10.8013  -25.6755   32.5958 O   0  0  0  0  0  0  0  0  0  0  0  0
    9.6100  -26.1474   30.6010 C   0  0  0  0  0  0  0  0  0  0  0  0
   10.7996  -25.4923   29.9821 C   0  0  0  0  0  0  0  0  0  0  0  0
   10.4563  -24.8184   28.6807 C   0  0  2  0  0  0  0  0  0  0  0  0
   10.2399  -25.8380   27.6447 N   0  0  0  0  0  0  0  0  0  0  0  0
   11.4469  -23.8358   28.2375 C   0  0  0  0  0  0  0  0  0  0  0  0
   12.5303  -24.2081   27.7340 O   0  0  0  0  0  0  0  0  0  0  0  0
   11.6995  -20.0914   27.7616 C   0  0  0  0  0  0  0  0  0  0  0  0
   12.2451  -21.5200   27.8228 C   0  0  2  0  0  0  0  0  0  0  0  0
   11.2499  -22.4276   28.3464 N   0  0  0  0  0  0  0  0  0  0  0  0
   13.4350  -21.4796   28.6918 C   0  0  0  0  0  0  0  0  0  0  0  0
   13.3848  -22.0005   29.8349 O   0  0  0  0  0  0  0  0  0  0  0  0
   14.5833  -20.8682   28.2293 O   0  0  0  0  0  0  0  0  0  0  0  0
  1  2  1  0
  2  3  1  0
  3 11  1  0
  3  4  2  0
  5  6  1  0
  6  7  2  0
  8  9  1  0
  8  6  1  0
 10  9  1  1
 11 10  1  0
 12 10  1  0
 12 16  1  0
 13 12  2  0
 15 16  1  0
 15 17  1  0
 15 14  1  1
 17 19  1  0
 18 17  2  0
M  END
$$$$
