GQA.pdb
     RDKit          3D

 19 18  0  0  1  0  0  0  0  0999 V2000
    9.0845  -15.9448   14.7507 N   0  0  0  0  0  0  0  0  0  0  0  0
    8.5989  -16.6003   15.9334 C   0  0  0  0  0  0  0  0  0  0  0  0
    9.1805  -15.8955   17.1088 C   0  0  0  0  0  0  0  0  0  0  0  0
   10.2340  -15.2220   16.9207 O   0  0  0  0  0  0  0  0  0  0  0  0
    7.6671  -11.7595   19.0715 N   0  0  0  0  0  0  0  0  0  0  0  0
    7.6799  -12.5877   20.2228 C   0  0  0  0  0  0  0  0  0  0  0  0
    8.1162  -12.1566   21.3142 O   0  0  0  0  0  0  0  0  0  0  0  0
    7.1719  -14.0112   20.1783 C   0  0  0  0  0  0  0  0  0  0  0  0
    8.2593  -14.9501   20.5827 C   0  0  0  0  0  0  0  0  0  0  0  0
    9.2448  -15.1817   19.4686 C   0  0  2  0  0  0  0  0  0  0  0  0
    8.6002  -15.9573   18.3996 N   0  0  0  0  0  0  0  0  0  0  0  0
   10.4877  -15.8266   19.8954 C   0  0  0  0  0  0  0  0  0  0  0  0
   10.5325  -17.0641   20.0753 O   0  0  0  0  0  0  0  0  0  0  0  0
   14.1450  -15.0191   20.1940 C   0  0  0  0  0  0  0  0  0  0  0  0
   12.8869  -15.8187   20.5405 C   0  0  2  0  0  0  0  0  0  0  0  0
   11.6976  -15.1086   20.1285 N   0  0  0  0  0  0  0  0  0  0  0  0
   12.9046  -16.0204   22.0005 C   0  0  0  0  0  0  0  0  0  0  0  0
   11.9698  -15.5555   22.7010 O   0  0  0  0  0  0  0  0  0  0  0  0
   13.9517  -16.7181   22.5690 O   0  0  0  0  0  0  0  0  0  0  0  0
  1  2  1  0
  2  3  1  0
  3 11  1  0
  3  4  2  0
  5  6  1  0
  6  7  2  0
  8  9  1  0
  8  6  1  0
 10  9  1  1
 11 10  1  0
 12 10  1  0
 12 16  1  0
 13 12  2  0
 15 16  1  0
 15 17  1  0
 15 14  1  1
 17 19  1  0
 18 17  2  0
M  END
$$$$
