CPI.pdb
     RDKit          3D

 22 22  0  0  1  0  0  0  0  0999 V2000
   25.0543  -20.6988   -8.9477 N   0  0  0  0  0  0  0  0  0  0  0  0
   24.7721  -21.0566  -10.2966 C   0  0  1  0  0  0  0  0  0  0  0  0
   23.2791  -21.0788  -10.5890 C   0  0  0  0  0  0  0  0  0  0  0  0
   22.3394  -21.6408   -9.1497 S   0  0  0  0  0  0  0  0  0  0  0  0
   25.5045  -20.2556  -11.3075 C   0  0  0  0  0  0  0  0  0  0  0  0
   25.6853  -19.0037  -11.1253 O   0  0  0  0  0  0  0  0  0  0  0  0
   26.0346  -20.8073  -12.5026 N   0  0  0  0  0  0  0  0  0  0  0  0
   25.8451  -22.1687  -12.9239 C   0  0  0  0  0  0  0  0  0  0  0  0
   26.6501  -22.3739  -14.1856 C   0  0  0  0  0  0  0  0  0  0  0  0
   27.6282  -21.2202  -14.2163 C   0  0  0  0  0  0  0  0  0  0  0  0
   26.8315  -20.1542  -13.4917 C   0  0  1  0  0  0  0  0  0  0  0  0
   26.0172  -19.4621  -14.5224 C   0  0  0  0  0  0  0  0  0  0  0  0
   24.9129  -19.9809  -14.8279 O   0  0  0  0  0  0  0  0  0  0  0  0
   24.4733  -13.7487  -15.7022 C   0  0  0  0  0  0  0  0  0  0  0  0
   24.5573  -15.1442  -16.2150 C   0  0  0  0  0  0  0  0  0  0  0  0
   25.3838  -16.1020  -15.4378 C   0  0  2  0  0  0  0  0  0  0  0  0
   26.6500  -15.4873  -14.8962 C   0  0  0  0  0  0  0  0  0  0  0  0
   25.4826  -17.4559  -15.9796 C   0  0  2  0  0  0  0  0  0  0  0  0
   26.4260  -18.2673  -15.1605 N   0  0  0  0  0  0  0  0  0  0  0  0
   25.8553  -17.5275  -17.3889 C   0  0  0  0  0  0  0  0  0  0  0  0
   27.1135  -17.5174  -17.6519 O   0  0  0  0  0  0  0  0  0  0  0  0
   25.0078  -17.6119  -18.4594 O   0  0  0  0  0  0  0  0  0  0  0  0
  2  1  1  1
  2  5  1  0
  2  3  1  0
  3  4  1  0
  5  6  2  0
  7  5  1  0
  7 11  1  0
  8  7  1  0
  9 10  1  0
  9  8  1  0
 10 11  1  0
 11 12  1  6
 12 19  1  0
 12 13  2  0
 14 15  1  0
 15 16  1  0
 16 17  1  6
 18 16  1  0
 18 19  1  1
 20 18  1  0
 20 22  1  0
 21 20  2  0
M  END
$$$$
