CPI.pdb
     RDKit          3D

 22 22  0  0  1  0  0  0  0  0999 V2000
   22.8099  -21.9648  -12.5237 N   0  0  0  0  0  0  0  0  0  0  0  0
   23.7964  -20.9775  -12.2420 C   0  0  1  0  0  0  0  0  0  0  0  0
   23.1892  -19.6004  -12.0180 C   0  0  0  0  0  0  0  0  0  0  0  0
   22.4003  -18.9811  -13.5229 S   0  0  0  0  0  0  0  0  0  0  0  0
   24.7263  -21.3383  -11.1444 C   0  0  0  0  0  0  0  0  0  0  0  0
   24.2944  -21.9655  -10.1181 O   0  0  0  0  0  0  0  0  0  0  0  0
   26.1096  -21.0219  -11.1606 N   0  0  0  0  0  0  0  0  0  0  0  0
   26.7523  -20.2361  -12.1785 C   0  0  0  0  0  0  0  0  0  0  0  0
   28.2329  -20.2212  -11.8789 C   0  0  0  0  0  0  0  0  0  0  0  0
   28.4478  -21.3685  -10.9166 C   0  0  0  0  0  0  0  0  0  0  0  0
   27.1070  -21.4015  -10.2114 C   0  0  1  0  0  0  0  0  0  0  0  0
   27.2064  -20.4559   -9.0711 C   0  0  0  0  0  0  0  0  0  0  0  0
   26.6417  -19.3392   -9.1981 O   0  0  0  0  0  0  0  0  0  0  0  0
   28.8235  -20.6407   -3.0359 C   0  0  0  0  0  0  0  0  0  0  0  0
   27.8801  -20.2422   -4.1170 C   0  0  0  0  0  0  0  0  0  0  0  0
   28.1112  -20.8219   -5.4643 C   0  0  2  0  0  0  0  0  0  0  0  0
   29.4888  -21.4141   -5.6254 C   0  0  0  0  0  0  0  0  0  0  0  0
   27.5799  -20.0609   -6.5935 C   0  0  2  0  0  0  0  0  0  0  0  0
   27.8967  -20.7553   -7.8729 N   0  0  0  0  0  0  0  0  0  0  0  0
   28.0186  -18.6705   -6.6575 C   0  0  0  0  0  0  0  0  0  0  0  0
   29.0319  -18.4214   -7.4082 O   0  0  0  0  0  0  0  0  0  0  0  0
   27.4612  -17.6026   -6.0092 O   0  0  0  0  0  0  0  0  0  0  0  0
  2  1  1  1
  2  5  1  0
  2  3  1  0
  3  4  1  0
  5  6  2  0
  7  5  1  0
  7 11  1  0
  8  7  1  0
  9 10  1  0
  9  8  1  0
 10 11  1  0
 11 12  1  1
 12 19  1  0
 12 13  2  0
 14 15  1  0
 15 16  1  0
 16 17  1  6
 18 16  1  0
 18 19  1  6
 20 18  1  0
 20 22  1  0
 21 20  2  0
M  END
$$$$
