CPI.pdb
     RDKit          3D

 22 22  0  0  1  0  0  0  0  0999 V2000
   19.5961  -23.3454   -9.6768 N   0  0  0  0  0  0  0  0  0  0  0  0
   20.1643  -22.0985  -10.0634 C   0  0  1  0  0  0  0  0  0  0  0  0
   20.9775  -21.4620   -8.9460 C   0  0  0  0  0  0  0  0  0  0  0  0
   20.0009  -21.3104   -7.4315 S   0  0  0  0  0  0  0  0  0  0  0  0
   20.9366  -22.1450  -11.3289 C   0  0  0  0  0  0  0  0  0  0  0  0
   21.7549  -23.1023  -11.5459 O   0  0  0  0  0  0  0  0  0  0  0  0
   20.8219  -21.1634  -12.3472 N   0  0  0  0  0  0  0  0  0  0  0  0
   19.9388  -20.0305  -12.2890 C   0  0  0  0  0  0  0  0  0  0  0  0
   20.0480  -19.2966  -13.6049 C   0  0  0  0  0  0  0  0  0  0  0  0
   20.6886  -20.2871  -14.5520 C   0  0  0  0  0  0  0  0  0  0  0  0
   21.5282  -21.0994  -13.5870 C   0  0  1  0  0  0  0  0  0  0  0  0
   22.8330  -20.4005  -13.4710 C   0  0  0  0  0  0  0  0  0  0  0  0
   22.8100  -19.1919  -13.1233 O   0  0  0  0  0  0  0  0  0  0  0  0
   25.9161  -21.2501   -9.8921 C   0  0  0  0  0  0  0  0  0  0  0  0
   25.2384  -20.7856  -11.1341 C   0  0  0  0  0  0  0  0  0  0  0  0
   26.0554  -20.7369  -12.3730 C   0  0  2  0  0  0  0  0  0  0  0  0
   27.4457  -20.1993  -12.1442 C   0  0  0  0  0  0  0  0  0  0  0  0
   25.3649  -20.2974  -13.5839 C   0  0  2  0  0  0  0  0  0  0  0  0
   24.0745  -21.0273  -13.7306 N   0  0  0  0  0  0  0  0  0  0  0  0
   26.1459  -20.4111  -14.8115 C   0  0  0  0  0  0  0  0  0  0  0  0
   26.1957  -21.5748  -15.3554 O   0  0  0  0  0  0  0  0  0  0  0  0
   26.8245  -19.4090  -15.4492 O   0  0  0  0  0  0  0  0  0  0  0  0
  2  1  1  1
  2  5  1  0
  2  3  1  0
  3  4  1  0
  5  6  2  0
  7  5  1  0
  7 11  1  0
  8  7  1  0
  9 10  1  0
  9  8  1  0
 10 11  1  0
 11 12  1  1
 12 19  1  0
 12 13  2  0
 14 15  1  0
 15 16  1  0
 16 17  1  1
 18 16  1  0
 18 19  1  6
 20 18  1  0
 20 22  1  0
 21 20  2  0
M  END
$$$$
