CPI.pdb
     RDKit          3D

 22 22  0  0  1  0  0  0  0  0999 V2000
   26.6641  -23.6608  -17.9577 N   0  0  0  0  0  0  0  0  0  0  0  0
   26.0136  -22.5765  -17.3031 C   0  0  1  0  0  0  0  0  0  0  0  0
   24.5586  -22.8840  -16.9811 C   0  0  0  0  0  0  0  0  0  0  0  0
   23.6518  -23.3812  -18.4647 S   0  0  0  0  0  0  0  0  0  0  0  0
   26.7301  -22.0645  -16.1096 C   0  0  0  0  0  0  0  0  0  0  0  0
   27.4427  -22.8546  -15.4016 O   0  0  0  0  0  0  0  0  0  0  0  0
   26.6738  -20.7103  -15.6894 N   0  0  0  0  0  0  0  0  0  0  0  0
   25.9147  -19.6844  -16.3512 C   0  0  0  0  0  0  0  0  0  0  0  0
   26.2049  -18.3770  -15.6520 C   0  0  0  0  0  0  0  0  0  0  0  0
   27.4690  -18.6301  -14.8604 C   0  0  0  0  0  0  0  0  0  0  0  0
   27.3305  -20.1111  -14.5715 C   0  0  1  0  0  0  0  0  0  0  0  0
   26.5476  -20.2247  -13.3151 C   0  0  0  0  0  0  0  0  0  0  0  0
   25.3036  -20.3749  -13.4233 O   0  0  0  0  0  0  0  0  0  0  0  0
   29.7913  -21.2954   -9.0012 C   0  0  0  0  0  0  0  0  0  0  0  0
   28.6603  -21.5840   -9.9258 C   0  0  0  0  0  0  0  0  0  0  0  0
   27.4027  -20.8235   -9.7145 C   0  0  2  0  0  0  0  0  0  0  0  0
   26.8077  -21.0327   -8.3446 C   0  0  0  0  0  0  0  0  0  0  0  0
   26.4741  -20.7867  -10.8426 C   0  0  2  0  0  0  0  0  0  0  0  0
   27.1337  -20.1717  -12.0284 N   0  0  0  0  0  0  0  0  0  0  0  0
   25.2061  -20.1165  -10.5725 C   0  0  0  0  0  0  0  0  0  0  0  0
   24.1728  -20.8707  -10.4466 O   0  0  0  0  0  0  0  0  0  0  0  0
   25.0017  -18.7713  -10.4314 O   0  0  0  0  0  0  0  0  0  0  0  0
  2  1  1  1
  2  5  1  0
  2  3  1  0
  3  4  1  0
  5  6  2  0
  7  5  1  0
  7 11  1  0
  8  7  1  0
  9 10  1  0
  9  8  1  0
 10 11  1  0
 11 12  1  1
 12 19  1  0
 12 13  2  0
 14 15  1  0
 15 16  1  0
 16 17  1  1
 18 16  1  0
 18 19  1  6
 20 18  1  0
 20 22  1  0
 21 20  2  0
M  END
$$$$
