CPI.pdb
     RDKit          3D

 22 22  0  0  1  0  0  0  0  0999 V2000
   25.2715  -19.1353  -18.1533 N   0  0  0  0  0  0  0  0  0  0  0  0
   24.4532  -20.0469  -17.4277 C   0  0  1  0  0  0  0  0  0  0  0  0
   23.8501  -21.1205  -18.3215 C   0  0  0  0  0  0  0  0  0  0  0  0
   22.8132  -20.3908  -19.6111 S   0  0  0  0  0  0  0  0  0  0  0  0
   25.1096  -20.6450  -16.2397 C   0  0  0  0  0  0  0  0  0  0  0  0
   24.6050  -21.6772  -15.6800 O   0  0  0  0  0  0  0  0  0  0  0  0
   26.3001  -20.1284  -15.6657 N   0  0  0  0  0  0  0  0  0  0  0  0
   27.0187  -18.9900  -16.1700 C   0  0  0  0  0  0  0  0  0  0  0  0
   28.2719  -18.8354  -15.3406 C   0  0  0  0  0  0  0  0  0  0  0  0
   28.4447  -20.1665  -14.6429 C   0  0  0  0  0  0  0  0  0  0  0  0
   27.0013  -20.6105  -14.5186 C   0  0  1  0  0  0  0  0  0  0  0  0
   26.4909  -20.0362  -13.2481 C   0  0  0  0  0  0  0  0  0  0  0  0
   26.0947  -18.8427  -13.2738 O   0  0  0  0  0  0  0  0  0  0  0  0
   22.3039  -21.1047  -12.7329 C   0  0  0  0  0  0  0  0  0  0  0  0
   23.6173  -20.4733  -12.4266 C   0  0  0  0  0  0  0  0  0  0  0  0
   24.2065  -20.7505  -11.0922 C   0  0  2  0  0  0  0  0  0  0  0  0
   23.2430  -20.5075   -9.9579 C   0  0  0  0  0  0  0  0  0  0  0  0
   25.5878  -20.3154  -10.8943 C   0  0  2  0  0  0  0  0  0  0  0  0
   26.4339  -20.7633  -12.0357 N   0  0  0  0  0  0  0  0  0  0  0  0
   26.1886  -20.7347   -9.6321 C   0  0  0  0  0  0  0  0  0  0  0  0
   25.7498  -20.1618   -8.5683 O   0  0  0  0  0  0  0  0  0  0  0  0
   27.1640  -21.6783   -9.4600 O   0  0  0  0  0  0  0  0  0  0  0  0
  2  1  1  6
  2  5  1  0
  2  3  1  0
  3  4  1  0
  5  6  2  0
  7  5  1  0
  7 11  1  0
  8  7  1  0
  9 10  1  0
  9  8  1  0
 10 11  1  0
 11 12  1  1
 12 19  1  0
 12 13  2  0
 14 15  1  0
 15 16  1  0
 16 17  1  1
 18 16  1  0
 18 19  1  6
 20 18  1  0
 20 22  1  0
 21 20  2  0
M  END
$$$$
