CPI.pdb
     RDKit          3D

 22 22  0  0  1  0  0  0  0  0999 V2000
   26.2267  -17.2162  -17.8950 N   0  0  0  0  0  0  0  0  0  0  0  0
   26.5857  -17.2104  -16.5172 C   0  0  1  0  0  0  0  0  0  0  0  0
   26.0056  -16.0165  -15.7733 C   0  0  0  0  0  0  0  0  0  0  0  0
   27.1072  -14.5858  -15.8735 S   0  0  0  0  0  0  0  0  0  0  0  0
   26.2956  -18.4785  -15.8047 C   0  0  0  0  0  0  0  0  0  0  0  0
   25.1802  -19.0752  -15.9860 O   0  0  0  0  0  0  0  0  0  0  0  0
   27.2061  -19.0918  -14.9055 N   0  0  0  0  0  0  0  0  0  0  0  0
   28.5057  -18.5695  -14.5815 C   0  0  0  0  0  0  0  0  0  0  0  0
   29.1871  -19.5670  -13.6745 C   0  0  0  0  0  0  0  0  0  0  0  0
   28.4051  -20.8503  -13.8484 C   0  0  0  0  0  0  0  0  0  0  0  0
   27.0290  -20.3022  -14.1680 C   0  0  1  0  0  0  0  0  0  0  0  0
   26.3468  -20.0890  -12.8667 C   0  0  0  0  0  0  0  0  0  0  0  0
   26.6287  -19.0393  -12.2338 O   0  0  0  0  0  0  0  0  0  0  0  0
   21.3806  -22.3692  -11.4265 C   0  0  0  0  0  0  0  0  0  0  0  0
   22.5193  -21.8223  -12.2150 C   0  0  0  0  0  0  0  0  0  0  0  0
   23.1065  -20.5387  -11.7545 C   0  0  2  0  0  0  0  0  0  0  0  0
   22.7695  -19.3770  -12.6553 C   0  0  0  0  0  0  0  0  0  0  0  0
   24.4720  -20.6030  -11.2373 C   0  0  2  0  0  0  0  0  0  0  0  0
   25.4119  -21.0009  -12.3224 N   0  0  0  0  0  0  0  0  0  0  0  0
   24.6492  -21.4725  -10.0786 C   0  0  0  0  0  0  0  0  0  0  0  0
   24.0970  -21.0896   -8.9828 O   0  0  0  0  0  0  0  0  0  0  0  0
   25.3344  -22.6558  -10.0367 O   0  0  0  0  0  0  0  0  0  0  0  0
  2  1  1  6
  2  5  1  0
  2  3  1  0
  3  4  1  0
  5  6  2  0
  7  5  1  0
  7 11  1  0
  8  7  1  0
  9 10  1  0
  9  8  1  0
 10 11  1  0
 11 12  1  1
 12 19  1  0
 12 13  2  0
 14 15  1  0
 15 16  1  0
 16 17  1  6
 18 16  1  0
 18 19  1  6
 20 18  1  0
 20 22  1  0
 21 20  2  0
M  END
$$$$
