CPI.pdb
     RDKit          3D

 22 22  0  0  1  0  0  0  0  0999 V2000
   18.1061  -11.5586  -15.4882 N   0  0  0  0  0  0  0  0  0  0  0  0
   18.2940  -10.1659  -15.2597 C   0  0  1  0  0  0  0  0  0  0  0  0
   17.2916   -9.3138  -16.0241 C   0  0  0  0  0  0  0  0  0  0  0  0
   17.5263   -9.4729  -17.8102 S   0  0  0  0  0  0  0  0  0  0  0  0
   18.3415   -9.7825  -13.8277 C   0  0  0  0  0  0  0  0  0  0  0  0
   17.6906  -10.4593  -12.9607 O   0  0  0  0  0  0  0  0  0  0  0  0
   19.0870   -8.6770  -13.3423 N   0  0  0  0  0  0  0  0  0  0  0  0
   19.8462   -7.7809  -14.1714 C   0  0  0  0  0  0  0  0  0  0  0  0
   20.5651   -6.8130  -13.2612 C   0  0  0  0  0  0  0  0  0  0  0  0
   20.5259   -7.4602  -11.8944 C   0  0  0  0  0  0  0  0  0  0  0  0
   19.2322   -8.2436  -11.9891 C   0  0  1  0  0  0  0  0  0  0  0  0
   18.1491   -7.3234  -11.5597 C   0  0  0  0  0  0  0  0  0  0  0  0
   17.7993   -6.4277  -12.3705 O   0  0  0  0  0  0  0  0  0  0  0  0
   13.8534   -9.4578   -9.6600 C   0  0  0  0  0  0  0  0  0  0  0  0
   14.8751   -8.5410  -10.2370 C   0  0  0  0  0  0  0  0  0  0  0  0
   15.2535   -7.3547   -9.4282 C   0  0  2  0  0  0  0  0  0  0  0  0
   14.0638   -6.6176   -8.8664 C   0  0  0  0  0  0  0  0  0  0  0  0
   16.3517   -6.5429   -9.9490 C   0  0  2  0  0  0  0  0  0  0  0  0
   17.5087   -7.4127  -10.3012 N   0  0  0  0  0  0  0  0  0  0  0  0
   16.7877   -5.4630   -9.0693 C   0  0  0  0  0  0  0  0  0  0  0  0
   17.6039   -5.7819   -8.1288 O   0  0  0  0  0  0  0  0  0  0  0  0
   16.4259   -4.1459   -9.1440 O   0  0  0  0  0  0  0  0  0  0  0  0
  2  1  1  1
  2  5  1  0
  2  3  1  0
  3  4  1  0
  5  6  2  0
  7  5  1  0
  7 11  1  0
  8  7  1  0
  9 10  1  0
  9  8  1  0
 10 11  1  0
 11 12  1  6
 12 19  1  0
 12 13  2  0
 14 15  1  0
 15 16  1  0
 16 17  1  6
 18 16  1  0
 18 19  1  1
 20 18  1  0
 20 22  1  0
 21 20  2  0
M  END
$$$$
