CPI.pdb
     RDKit          3D

 22 22  0  0  1  0  0  0  0  0999 V2000
   19.4134  -15.1571  -18.6887 N   0  0  0  0  0  0  0  0  0  0  0  0
   18.8926  -13.8355  -18.7851 C   0  0  1  0  0  0  0  0  0  0  0  0
   17.6376  -13.6456  -17.9460 C   0  0  0  0  0  0  0  0  0  0  0  0
   16.3760  -14.8699  -18.3705 S   0  0  0  0  0  0  0  0  0  0  0  0
   19.8847  -12.7665  -18.5152 C   0  0  0  0  0  0  0  0  0  0  0  0
   20.9539  -13.0325  -17.8676 O   0  0  0  0  0  0  0  0  0  0  0  0
   19.7181  -11.4239  -18.9434 N   0  0  0  0  0  0  0  0  0  0  0  0
   18.5961  -10.9464  -19.7049 C   0  0  0  0  0  0  0  0  0  0  0  0
   18.8530   -9.4955  -20.0381 C   0  0  0  0  0  0  0  0  0  0  0  0
   20.3357   -9.2996  -19.8112 C   0  0  0  0  0  0  0  0  0  0  0  0
   20.5916  -10.3167  -18.7174 C   0  0  1  0  0  0  0  0  0  0  0  0
   20.3261   -9.6273  -17.4295 C   0  0  0  0  0  0  0  0  0  0  0  0
   19.1639   -9.7172  -16.9571 O   0  0  0  0  0  0  0  0  0  0  0  0
   23.5461  -11.1920  -14.1431 C   0  0  0  0  0  0  0  0  0  0  0  0
   22.5383  -10.4775  -14.9746 C   0  0  0  0  0  0  0  0  0  0  0  0
   21.9837   -9.2133  -14.4279 C   0  0  2  0  0  0  0  0  0  0  0  0
   21.5652   -9.3264  -12.9835 C   0  0  0  0  0  0  0  0  0  0  0  0
   21.1029   -8.4581  -15.3168 C   0  0  2  0  0  0  0  0  0  0  0  0
   21.3083   -8.8891  -16.7280 N   0  0  0  0  0  0  0  0  0  0  0  0
   21.2248   -7.0073  -15.2145 C   0  0  0  0  0  0  0  0  0  0  0  0
   22.0182   -6.4369  -16.0496 O   0  0  0  0  0  0  0  0  0  0  0  0
   20.5785   -6.1891  -14.3290 O   0  0  0  0  0  0  0  0  0  0  0  0
  2  1  1  1
  2  5  1  0
  2  3  1  0
  3  4  1  0
  5  6  2  0
  7  5  1  0
  7 11  1  0
  8  7  1  0
  9 10  1  0
  9  8  1  0
 10 11  1  0
 11 12  1  1
 12 19  1  0
 12 13  2  0
 14 15  1  0
 15 16  1  0
 16 17  1  1
 18 16  1  0
 18 19  1  6
 20 18  1  0
 20 22  1  0
 21 20  2  0
M  END
$$$$
