CPI.pdb
     RDKit          3D

 22 22  0  0  1  0  0  0  0  0999 V2000
   22.8705  -11.6845  -20.5564 N   0  0  0  0  0  0  0  0  0  0  0  0
   22.3764  -10.3594  -20.3920 C   0  0  1  0  0  0  0  0  0  0  0  0
   20.8573  -10.3130  -20.3206 C   0  0  0  0  0  0  0  0  0  0  0  0
   20.1145  -10.7518  -21.9101 S   0  0  0  0  0  0  0  0  0  0  0  0
   22.9890   -9.6141  -19.2654 C   0  0  0  0  0  0  0  0  0  0  0  0
   23.5590  -10.2468  -18.3125 O   0  0  0  0  0  0  0  0  0  0  0  0
   22.9829   -8.1980  -19.1742 N   0  0  0  0  0  0  0  0  0  0  0  0
   22.4442   -7.3207  -20.1776 C   0  0  0  0  0  0  0  0  0  0  0  0
   22.7259   -5.9012  -19.7439 C   0  0  0  0  0  0  0  0  0  0  0  0
   23.8070   -6.0217  -18.6926 C   0  0  0  0  0  0  0  0  0  0  0  0
   23.4885   -7.3854  -18.1139 C   0  0  1  0  0  0  0  0  0  0  0  0
   22.4941   -7.1639  -17.0339 C   0  0  0  0  0  0  0  0  0  0  0  0
   21.2822   -7.1182  -17.3674 O   0  0  0  0  0  0  0  0  0  0  0  0
   22.8830  -10.5487  -13.4465 C   0  0  0  0  0  0  0  0  0  0  0  0
   22.4367   -9.4431  -14.3385 C   0  0  0  0  0  0  0  0  0  0  0  0
   22.0737   -8.1567  -13.6920 C   0  0  2  0  0  0  0  0  0  0  0  0
   21.1289   -8.3249  -12.5287 C   0  0  0  0  0  0  0  0  0  0  0  0
   21.8260   -7.0308  -14.5905 C   0  0  2  0  0  0  0  0  0  0  0  0
   22.8488   -7.0056  -15.6734 N   0  0  0  0  0  0  0  0  0  0  0  0
   21.7575   -5.7275  -13.9372 C   0  0  0  0  0  0  0  0  0  0  0  0
   22.8791   -5.1680  -13.6519 O   0  0  0  0  0  0  0  0  0  0  0  0
   20.6264   -5.0346  -13.6029 O   0  0  0  0  0  0  0  0  0  0  0  0
  2  1  1  1
  2  5  1  0
  2  3  1  0
  3  4  1  0
  5  6  2  0
  7  5  1  0
  7 11  1  0
  8  7  1  0
  9 10  1  0
  9  8  1  0
 10 11  1  0
 11 12  1  1
 12 19  1  0
 12 13  2  0
 14 15  1  0
 15 16  1  0
 16 17  1  6
 18 16  1  0
 18 19  1  6
 20 18  1  0
 20 22  1  0
 21 20  2  0
M  END
$$$$
