VCC.pdb
     RDKit          3D

 20 19  0  0  1  0  0  0  0  0999 V2000
   15.5096   -9.3346  -15.3280 C   0  0  0  0  0  0  0  0  0  0  0  0
   16.0998  -10.7036  -15.2407 C   0  0  1  0  0  0  0  0  0  0  0  0
   15.5693  -11.5478  -16.3528 C   0  0  0  0  0  0  0  0  0  0  0  0
   17.6195  -10.6717  -15.1938 C   0  0  2  0  0  0  0  0  0  0  0  0
   18.1398  -12.0024  -15.0565 N   0  0  0  0  0  0  0  0  0  0  0  0
   18.0382   -9.7948  -14.0580 C   0  0  0  0  0  0  0  0  0  0  0  0
   17.8556  -10.1252  -12.8589 O   0  0  0  0  0  0  0  0  0  0  0  0
   18.6606   -8.5523  -14.3562 N   0  0  0  0  0  0  0  0  0  0  0  0
   19.0447   -7.5896  -13.3803 C   0  0  1  0  0  0  0  0  0  0  0  0
   20.1968   -6.7591  -13.9381 C   0  0  0  0  0  0  0  0  0  0  0  0
   21.7142   -7.7430  -13.9311 S   0  0  0  0  0  0  0  0  0  0  0  0
   17.9666   -6.7130  -12.9194 C   0  0  0  0  0  0  0  0  0  0  0  0
   17.0459   -6.2506  -13.6334 O   0  0  0  0  0  0  0  0  0  0  0  0
   17.9533   -6.3478  -11.5421 N   0  0  0  0  0  0  0  0  0  0  0  0
   16.8882   -5.5149  -11.0184 C   0  0  1  0  0  0  0  0  0  0  0  0
   16.9310   -5.4545   -9.5030 C   0  0  0  0  0  0  0  0  0  0  0  0
   16.8261   -7.0867   -8.7612 S   0  0  0  0  0  0  0  0  0  0  0  0
   17.0731   -4.1462  -11.5673 C   0  0  0  0  0  0  0  0  0  0  0  0
   16.1414   -3.1291  -11.3551 O   0  0  0  0  0  0  0  0  0  0  0  0
   18.0865   -3.8442  -12.2526 O   0  0  0  0  0  0  0  0  0  0  0  0
  2  1  1  6
  2  3  1  0
  4  2  1  0
  4  5  1  1
  6  4  1  0
  7  6  2  0
  8  6  1  0
  9 12  1  0
  9  8  1  0
  9 10  1  6
 11 10  1  0
 12 14  1  0
 13 12  2  0
 14 15  1  0
 15 16  1  1
 16 17  1  0
 18 15  1  0
 18 19  1  0
 20 18  2  0
M  END
$$$$
