VCC.pdb
     RDKit          3D

 20 19  0  0  1  0  0  0  0  0999 V2000
   18.8026  -13.3499  -19.4344 C   0  0  0  0  0  0  0  0  0  0  0  0
   18.8358  -12.3438  -18.3314 C   0  0  1  0  0  0  0  0  0  0  0  0
   17.5333  -12.3610  -17.6005 C   0  0  0  0  0  0  0  0  0  0  0  0
   20.0330  -12.5372  -17.4138 C   0  0  2  0  0  0  0  0  0  0  0  0
   19.9609  -13.8164  -16.7668 N   0  0  0  0  0  0  0  0  0  0  0  0
   20.0542  -11.4176  -16.4236 C   0  0  0  0  0  0  0  0  0  0  0  0
   19.3157  -11.4138  -15.4064 O   0  0  0  0  0  0  0  0  0  0  0  0
   20.9408  -10.3301  -16.6507 N   0  0  0  0  0  0  0  0  0  0  0  0
   21.0652   -9.2003  -15.7936 C   0  0  1  0  0  0  0  0  0  0  0  0
   22.5420   -8.9876  -15.4741 C   0  0  0  0  0  0  0  0  0  0  0  0
   23.0910  -10.2316  -14.2816 S   0  0  0  0  0  0  0  0  0  0  0  0
   20.4771   -7.9639  -16.3119 C   0  0  0  0  0  0  0  0  0  0  0  0
   20.6162   -7.5214  -17.4764 O   0  0  0  0  0  0  0  0  0  0  0  0
   19.6757   -7.1890  -15.4243 N   0  0  0  0  0  0  0  0  0  0  0  0
   19.0246   -5.9819  -15.8946 C   0  0  1  0  0  0  0  0  0  0  0  0
   17.8086   -5.6478  -15.0511 C   0  0  0  0  0  0  0  0  0  0  0  0
   17.1199   -4.0427  -15.4693 S   0  0  0  0  0  0  0  0  0  0  0  0
   20.0070   -4.8710  -15.7971 C   0  0  0  0  0  0  0  0  0  0  0  0
   20.1546   -3.9195  -16.8074 O   0  0  0  0  0  0  0  0  0  0  0  0
   20.7537   -4.7403  -14.7904 O   0  0  0  0  0  0  0  0  0  0  0  0
  2  1  1  6
  2  3  1  0
  4  2  1  0
  4  5  1  1
  6  4  1  0
  7  6  2  0
  8  6  1  0
  9 12  1  0
  9  8  1  0
  9 10  1  6
 11 10  1  0
 12 14  1  0
 13 12  2  0
 14 15  1  0
 15 16  1  1
 16 17  1  0
 18 15  1  0
 18 19  1  0
 20 18  2  0
M  END
$$$$
