VCC.pdb
     RDKit          3D

 20 19  0  0  1  0  0  0  0  0999 V2000
   20.7927  -10.8505  -20.2767 C   0  0  0  0  0  0  0  0  0  0  0  0
   20.5293  -12.2757  -19.9170 C   0  0  1  0  0  0  0  0  0  0  0  0
   20.6722  -13.1321  -21.1324 C   0  0  0  0  0  0  0  0  0  0  0  0
   21.3938  -12.7442  -18.7569 C   0  0  2  0  0  0  0  0  0  0  0  0
   21.1301  -14.1251  -18.4674 N   0  0  0  0  0  0  0  0  0  0  0  0
   21.1151  -11.8693  -17.5773 C   0  0  0  0  0  0  0  0  0  0  0  0
   20.0132  -11.8970  -16.9730 O   0  0  0  0  0  0  0  0  0  0  0  0
   22.1353  -10.9837  -17.1356 N   0  0  0  0  0  0  0  0  0  0  0  0
   21.9818  -10.0418  -16.0793 C   0  0  1  0  0  0  0  0  0  0  0  0
   23.2964   -9.9493  -15.3102 C   0  0  0  0  0  0  0  0  0  0  0  0
   23.4604  -11.3778  -14.2133 S   0  0  0  0  0  0  0  0  0  0  0  0
   21.5469   -8.7083  -16.4989 C   0  0  0  0  0  0  0  0  0  0  0  0
   22.0836   -8.0131  -17.3932 O   0  0  0  0  0  0  0  0  0  0  0  0
   20.4170   -8.1427  -15.8402 N   0  0  0  0  0  0  0  0  0  0  0  0
   19.8435   -6.8982  -16.3143 C   0  0  1  0  0  0  0  0  0  0  0  0
   18.3759   -6.7923  -15.9447 C   0  0  0  0  0  0  0  0  0  0  0  0
   17.4288   -8.1973  -16.5403 S   0  0  0  0  0  0  0  0  0  0  0  0
   20.5901   -5.7837  -15.6744 C   0  0  0  0  0  0  0  0  0  0  0  0
   21.5793   -6.0067  -14.7156 O   0  0  0  0  0  0  0  0  0  0  0  0
   20.3595   -4.5813  -15.9730 O   0  0  0  0  0  0  0  0  0  0  0  0
  2  1  1  6
  2  3  1  0
  4  2  1  0
  4  5  1  1
  6  4  1  0
  7  6  2  0
  8  6  1  0
  9 12  1  0
  9  8  1  0
  9 10  1  6
 11 10  1  0
 12 14  1  0
 13 12  2  0
 14 15  1  0
 15 16  1  1
 16 17  1  0
 18 15  1  0
 18 19  1  0
 20 18  2  0
M  END
$$$$
