VCC.pdb
     RDKit          3D

 20 19  0  0  1  0  0  0  0  0999 V2000
   19.8354  -15.6229  -17.2013 C   0  0  0  0  0  0  0  0  0  0  0  0
   19.4577  -14.1863  -17.3539 C   0  0  1  0  0  0  0  0  0  0  0  0
   19.5434  -13.7976  -18.7935 C   0  0  0  0  0  0  0  0  0  0  0  0
   18.1015  -13.8806  -16.7373 C   0  0  2  0  0  0  0  0  0  0  0  0
   17.0736  -14.6291  -17.4029 N   0  0  0  0  0  0  0  0  0  0  0  0
   17.8617  -12.4081  -16.8311 C   0  0  0  0  0  0  0  0  0  0  0  0
   17.3432  -11.8812  -17.8478 O   0  0  0  0  0  0  0  0  0  0  0  0
   18.2356  -11.5901  -15.7306 N   0  0  0  0  0  0  0  0  0  0  0  0
   18.0971  -10.1737  -15.6967 C   0  0  1  0  0  0  0  0  0  0  0  0
   16.8035   -9.8250  -14.9665 C   0  0  0  0  0  0  0  0  0  0  0  0
   16.6672   -8.0297  -14.7956 S   0  0  0  0  0  0  0  0  0  0  0  0
   19.2245   -9.4568  -15.0980 C   0  0  0  0  0  0  0  0  0  0  0  0
   19.6805   -9.6454  -13.9457 O   0  0  0  0  0  0  0  0  0  0  0  0
   19.8658   -8.4564  -15.8843 N   0  0  0  0  0  0  0  0  0  0  0  0
   21.0265   -7.7564  -15.3692 C   0  0  1  0  0  0  0  0  0  0  0  0
   22.0177   -7.4458  -16.4750 C   0  0  0  0  0  0  0  0  0  0  0  0
   22.6389   -8.9367  -17.2603 S   0  0  0  0  0  0  0  0  0  0  0  0
   20.5550   -6.4835  -14.7641 C   0  0  0  0  0  0  0  0  0  0  0  0
   21.3381   -5.7513  -13.8706 O   0  0  0  0  0  0  0  0  0  0  0  0
   19.4196   -6.0081  -15.0343 O   0  0  0  0  0  0  0  0  0  0  0  0
  2  1  1  6
  2  3  1  0
  4  2  1  0
  4  5  1  6
  6  4  1  0
  7  6  2  0
  8  6  1  0
  9 12  1  0
  9  8  1  0
  9 10  1  1
 11 10  1  0
 12 14  1  0
 13 12  2  0
 14 15  1  0
 15 16  1  6
 16 17  1  0
 18 15  1  0
 18 19  1  0
 20 18  2  0
M  END
$$$$
