VCC.pdb
     RDKit          3D

 20 19  0  0  1  0  0  0  0  0999 V2000
   18.8313  -12.1318  -16.1689 C   0  0  0  0  0  0  0  0  0  0  0  0
   19.0103  -10.8913  -15.3570 C   0  0  1  0  0  0  0  0  0  0  0  0
   20.1390  -11.0811  -14.3974 C   0  0  0  0  0  0  0  0  0  0  0  0
   19.1736   -9.6545  -16.2268 C   0  0  2  0  0  0  0  0  0  0  0  0
   20.3523   -9.7700  -17.0376 N   0  0  0  0  0  0  0  0  0  0  0  0
   19.2309   -8.4555  -15.3360 C   0  0  0  0  0  0  0  0  0  0  0  0
   18.2691   -8.1293  -14.5954 O   0  0  0  0  0  0  0  0  0  0  0  0
   20.4146   -7.6687  -15.3358 N   0  0  0  0  0  0  0  0  0  0  0  0
   20.5781   -6.4606  -14.6008 C   0  0  1  0  0  0  0  0  0  0  0  0
   22.0466   -6.3185  -14.2114 C   0  0  0  0  0  0  0  0  0  0  0  0
   22.2435   -4.9185  -13.0836 S   0  0  0  0  0  0  0  0  0  0  0  0
   20.1182   -5.2523  -15.2879 C   0  0  0  0  0  0  0  0  0  0  0  0
   20.5269   -4.8450  -16.4006 O   0  0  0  0  0  0  0  0  0  0  0  0
   19.1202   -4.4642  -14.6449 N   0  0  0  0  0  0  0  0  0  0  0  0
   18.5268   -3.3347  -15.3336 C   0  0  1  0  0  0  0  0  0  0  0  0
   17.1260   -3.0529  -14.8235 C   0  0  0  0  0  0  0  0  0  0  0  0
   16.1616   -4.5568  -14.6395 S   0  0  0  0  0  0  0  0  0  0  0  0
   19.3863   -2.1488  -15.0812 C   0  0  0  0  0  0  0  0  0  0  0  0
   20.5260   -2.2152  -14.2784 O   0  0  0  0  0  0  0  0  0  0  0  0
   19.1203   -1.0249  -15.5852 O   0  0  0  0  0  0  0  0  0  0  0  0
  2  1  1  6
  2  3  1  0
  4  2  1  0
  4  5  1  1
  6  4  1  0
  7  6  2  0
  8  6  1  0
  9 12  1  0
  9  8  1  0
  9 10  1  6
 11 10  1  0
 12 14  1  0
 13 12  2  0
 14 15  1  0
 15 16  1  1
 16 17  1  0
 18 15  1  0
 18 19  1  0
 20 18  2  0
M  END
$$$$
