VCC.pdb
     RDKit          3D

 20 19  0  0  1  0  0  0  0  0999 V2000
   19.5530  -12.8339  -20.2265 C   0  0  0  0  0  0  0  0  0  0  0  0
   19.6760  -11.8537  -19.1066 C   0  0  1  0  0  0  0  0  0  0  0  0
   18.3778  -11.1377  -18.9250 C   0  0  0  0  0  0  0  0  0  0  0  0
   20.1782  -12.5041  -17.8270 C   0  0  2  0  0  0  0  0  0  0  0  0
   19.2372  -13.4852  -17.3665 N   0  0  0  0  0  0  0  0  0  0  0  0
   20.4016  -11.4323  -16.8092 C   0  0  0  0  0  0  0  0  0  0  0  0
   19.4651  -10.9764  -16.1055 O   0  0  0  0  0  0  0  0  0  0  0  0
   21.7174  -10.9217  -16.6419 N   0  0  0  0  0  0  0  0  0  0  0  0
   22.0651   -9.8695  -15.7484 C   0  0  1  0  0  0  0  0  0  0  0  0
   23.4189  -10.1870  -15.1202 C   0  0  0  0  0  0  0  0  0  0  0  0
   23.2282  -11.5097  -13.9018 S   0  0  0  0  0  0  0  0  0  0  0  0
   22.0861   -8.5331  -16.3459 C   0  0  0  0  0  0  0  0  0  0  0  0
   22.6687   -8.2184  -17.4103 O   0  0  0  0  0  0  0  0  0  0  0  0
   21.3873   -7.4933  -15.6671 N   0  0  0  0  0  0  0  0  0  0  0  0
   21.2567   -6.1839  -16.2760 C   0  0  1  0  0  0  0  0  0  0  0  0
   19.8002   -5.8257  -16.5045 C   0  0  0  0  0  0  0  0  0  0  0  0
   19.5926   -4.0947  -16.9358 S   0  0  0  0  0  0  0  0  0  0  0  0
   21.8642   -5.1923  -15.3505 C   0  0  0  0  0  0  0  0  0  0  0  0
   22.5348   -4.0589  -15.8126 O   0  0  0  0  0  0  0  0  0  0  0  0
   21.7990   -5.3342  -14.1000 O   0  0  0  0  0  0  0  0  0  0  0  0
  2  1  1  6
  2  3  1  0
  4  2  1  0
  4  5  1  1
  6  4  1  0
  7  6  2  0
  8  6  1  0
  9 12  1  0
  9  8  1  0
  9 10  1  6
 11 10  1  0
 12 14  1  0
 13 12  2  0
 14 15  1  0
 15 16  1  1
 16 17  1  0
 18 15  1  0
 18 19  1  0
 20 18  2  0
M  END
$$$$
