VCC.pdb
     RDKit          3D

 20 19  0  0  1  0  0  0  0  0999 V2000
   22.4683  -36.1347  -12.1541 C   0  0  0  0  0  0  0  0  0  0  0  0
   23.5535  -35.6063  -11.2748 C   0  0  1  0  0  0  0  0  0  0  0  0
   24.7195  -36.5395  -11.3050 C   0  0  0  0  0  0  0  0  0  0  0  0
   23.9305  -34.1753  -11.6250 C   0  0  2  0  0  0  0  0  0  0  0  0
   24.4181  -34.1062  -12.9732 N   0  0  0  0  0  0  0  0  0  0  0  0
   24.9533  -33.7029  -10.6426 C   0  0  0  0  0  0  0  0  0  0  0  0
   26.1735  -33.6281  -10.9354 O   0  0  0  0  0  0  0  0  0  0  0  0
   24.5202  -33.3300   -9.3412 N   0  0  0  0  0  0  0  0  0  0  0  0
   25.3842  -32.8794   -8.3035 C   0  0  1  0  0  0  0  0  0  0  0  0
   24.6592  -31.8100   -7.4918 C   0  0  0  0  0  0  0  0  0  0  0  0
   24.4247  -30.3317   -8.5067 S   0  0  0  0  0  0  0  0  0  0  0  0
   25.8874  -33.9313   -7.4182 C   0  0  0  0  0  0  0  0  0  0  0  0
   25.2897  -34.9965   -7.1367 O   0  0  0  0  0  0  0  0  0  0  0  0
   27.1660  -33.7374   -6.8197 N   0  0  0  0  0  0  0  0  0  0  0  0
   27.7283  -34.7557   -5.9540 C   0  0  1  0  0  0  0  0  0  0  0  0
   29.2042  -34.5107   -5.7024 C   0  0  0  0  0  0  0  0  0  0  0  0
   30.1569  -34.5189   -7.2249 S   0  0  0  0  0  0  0  0  0  0  0  0
   26.9972  -34.7039   -4.6611 C   0  0  0  0  0  0  0  0  0  0  0  0
   26.9493  -35.7941   -3.7911 O   0  0  0  0  0  0  0  0  0  0  0  0
   26.3851  -33.6656   -4.2932 O   0  0  0  0  0  0  0  0  0  0  0  0
  2  1  1  6
  2  3  1  0
  4  2  1  0
  4  5  1  6
  6  4  1  0
  7  6  2  0
  8  6  1  0
  9 12  1  0
  9  8  1  0
  9 10  1  1
 11 10  1  0
 12 14  1  0
 13 12  2  0
 14 15  1  0
 15 16  1  1
 16 17  1  0
 18 15  1  0
 18 19  1  0
 20 18  2  0
M  END
$$$$
