VCC.pdb
     RDKit          3D

 20 19  0  0  1  0  0  0  0  0999 V2000
   22.0140  -22.3157  -15.2479 C   0  0  0  0  0  0  0  0  0  0  0  0
   21.0425  -21.5804  -14.3844 C   0  0  1  0  0  0  0  0  0  0  0  0
   19.6977  -22.2222  -14.4875 C   0  0  0  0  0  0  0  0  0  0  0  0
   21.5306  -21.4544  -12.9496 C   0  0  2  0  0  0  0  0  0  0  0  0
   20.5857  -20.7089  -12.1676 N   0  0  0  0  0  0  0  0  0  0  0  0
   22.8744  -20.7999  -12.9642 C   0  0  0  0  0  0  0  0  0  0  0  0
   23.0068  -19.5523  -13.0409 O   0  0  0  0  0  0  0  0  0  0  0  0
   24.0295  -21.6246  -12.8884 N   0  0  0  0  0  0  0  0  0  0  0  0
   25.3666  -21.1496  -13.0027 C   0  0  1  0  0  0  0  0  0  0  0  0
   26.1588  -21.6172  -11.7852 C   0  0  0  0  0  0  0  0  0  0  0  0
   27.8519  -20.9895  -11.8842 S   0  0  0  0  0  0  0  0  0  0  0  0
   26.0569  -21.5374  -14.2342 C   0  0  0  0  0  0  0  0  0  0  0  0
   26.3862  -22.7049  -14.5499 O   0  0  0  0  0  0  0  0  0  0  0  0
   26.3876  -20.5064  -15.1606 N   0  0  0  0  0  0  0  0  0  0  0  0
   26.9835  -20.8388  -16.4399 C   0  0  1  0  0  0  0  0  0  0  0  0
   26.5404  -19.8716  -17.5216 C   0  0  0  0  0  0  0  0  0  0  0  0
   24.8063  -20.0788  -17.9404 S   0  0  0  0  0  0  0  0  0  0  0  0
   28.4595  -20.7568  -16.2861 C   0  0  0  0  0  0  0  0  0  0  0  0
   29.2906  -21.8574  -16.4999 O   0  0  0  0  0  0  0  0  0  0  0  0
   29.0270  -19.6819  -15.9536 O   0  0  0  0  0  0  0  0  0  0  0  0
  2  1  1  6
  2  3  1  0
  4  2  1  0
  4  5  1  1
  6  4  1  0
  7  6  2  0
  8  6  1  0
  9 12  1  0
  9  8  1  0
  9 10  1  1
 11 10  1  0
 12 14  1  0
 13 12  2  0
 14 15  1  0
 15 16  1  6
 16 17  1  0
 18 15  1  0
 18 19  1  0
 20 18  2  0
M  END
$$$$
