VCC.pdb
     RDKit          3D

 20 19  0  0  1  0  0  0  0  0999 V2000
   27.2633  -15.0752  -15.4979 C   0  0  0  0  0  0  0  0  0  0  0  0
   26.5658  -14.0380  -16.3151 C   0  0  1  0  0  0  0  0  0  0  0  0
   27.5396  -13.4032  -17.2531 C   0  0  0  0  0  0  0  0  0  0  0  0
   25.3385  -14.5930  -17.0211 C   0  0  2  0  0  0  0  0  0  0  0  0
   25.7244  -15.5962  -17.9723 N   0  0  0  0  0  0  0  0  0  0  0  0
   24.6175  -13.4589  -17.6757 C   0  0  0  0  0  0  0  0  0  0  0  0
   24.6668  -13.2661  -18.9168 O   0  0  0  0  0  0  0  0  0  0  0  0
   23.8567  -12.5792  -16.8588 N   0  0  0  0  0  0  0  0  0  0  0  0
   23.0943  -11.4819  -17.3499 C   0  0  1  0  0  0  0  0  0  0  0  0
   21.7538  -12.0047  -17.8579 C   0  0  0  0  0  0  0  0  0  0  0  0
   20.6830  -10.6128  -18.2900 S   0  0  0  0  0  0  0  0  0  0  0  0
   22.8826  -10.3974  -16.3894 C   0  0  0  0  0  0  0  0  0  0  0  0
   22.3808  -10.5212  -15.2475 O   0  0  0  0  0  0  0  0  0  0  0  0
   23.2776   -9.0840  -16.7761 N   0  0  0  0  0  0  0  0  0  0  0  0
   23.2485   -8.0003  -15.8133 C   0  0  1  0  0  0  0  0  0  0  0  0
   24.2901   -6.9464  -16.1390 C   0  0  0  0  0  0  0  0  0  0  0  0
   25.9513   -7.6283  -16.1678 S   0  0  0  0  0  0  0  0  0  0  0  0
   21.8970   -7.3843  -15.8666 C   0  0  0  0  0  0  0  0  0  0  0  0
   21.4178   -6.5563  -14.8505 O   0  0  0  0  0  0  0  0  0  0  0  0
   21.1210   -7.5852  -16.8390 O   0  0  0  0  0  0  0  0  0  0  0  0
  2  1  1  6
  2  3  1  0
  4  2  1  0
  4  5  1  6
  6  4  1  0
  7  6  2  0
  8  6  1  0
  9 12  1  0
  9  8  1  0
  9 10  1  1
 11 10  1  0
 12 14  1  0
 13 12  2  0
 14 15  1  0
 15 16  1  6
 16 17  1  0
 18 15  1  0
 18 19  1  0
 20 18  2  0
M  END
$$$$
