VCC.pdb
     RDKit          3D

 20 19  0  0  1  0  0  0  0  0999 V2000
   20.7303  -11.0141  -19.8225 C   0  0  0  0  0  0  0  0  0  0  0  0
   19.9434  -12.1043  -19.1726 C   0  0  1  0  0  0  0  0  0  0  0  0
   20.1867  -13.3915  -19.8900 C   0  0  0  0  0  0  0  0  0  0  0  0
   20.2161  -12.1972  -17.6793 C   0  0  2  0  0  0  0  0  0  0  0  0
   19.5204  -13.3195  -17.1167 N   0  0  0  0  0  0  0  0  0  0  0  0
   19.7973  -10.9115  -17.0423 C   0  0  0  0  0  0  0  0  0  0  0  0
   18.6283  -10.4630  -17.1531 O   0  0  0  0  0  0  0  0  0  0  0  0
   20.7595  -10.1836  -16.2910 N   0  0  0  0  0  0  0  0  0  0  0  0
   20.4990   -8.9505  -15.6291 C   0  0  1  0  0  0  0  0  0  0  0  0
   21.3177   -8.9024  -14.3423 C   0  0  0  0  0  0  0  0  0  0  0  0
   20.8469   -7.4474  -13.3768 S   0  0  0  0  0  0  0  0  0  0  0  0
   20.7500   -7.7528  -16.4328 C   0  0  0  0  0  0  0  0  0  0  0  0
   21.8027   -7.5066  -17.0672 O   0  0  0  0  0  0  0  0  0  0  0  0
   19.7148   -6.7764  -16.5070 N   0  0  0  0  0  0  0  0  0  0  0  0
   19.9220   -5.5484  -17.2496 C   0  0  1  0  0  0  0  0  0  0  0  0
   19.0308   -5.4896  -18.4760 C   0  0  0  0  0  0  0  0  0  0  0  0
   19.8657   -6.0992  -19.9446 S   0  0  0  0  0  0  0  0  0  0  0  0
   19.5893   -4.4138  -16.3492 C   0  0  0  0  0  0  0  0  0  0  0  0
   19.9279   -3.0959  -16.6592 O   0  0  0  0  0  0  0  0  0  0  0  0
   18.9829   -4.5954  -15.2595 O   0  0  0  0  0  0  0  0  0  0  0  0
  2  1  1  6
  2  3  1  0
  4  2  1  0
  4  5  1  1
  6  4  1  0
  7  6  2  0
  8  6  1  0
  9 12  1  0
  9  8  1  0
  9 10  1  1
 11 10  1  0
 12 14  1  0
 13 12  2  0
 14 15  1  0
 15 16  1  6
 16 17  1  0
 18 15  1  0
 18 19  1  0
 20 18  2  0
M  END
$$$$
