VCC.pdb
     RDKit          3D

 20 19  0  0  1  0  0  0  0  0999 V2000
   25.2546  -13.7502  -18.5778 C   0  0  0  0  0  0  0  0  0  0  0  0
   24.2757  -12.6276  -18.4718 C   0  0  1  0  0  0  0  0  0  0  0  0
   22.8984  -13.1803  -18.3024 C   0  0  0  0  0  0  0  0  0  0  0  0
   24.6545  -11.6364  -17.3824 C   0  0  2  0  0  0  0  0  0  0  0  0
   24.7210  -12.2982  -16.1105 N   0  0  0  0  0  0  0  0  0  0  0  0
   23.6475  -10.5317  -17.3786 C   0  0  0  0  0  0  0  0  0  0  0  0
   23.5119   -9.7507  -18.3541 O   0  0  0  0  0  0  0  0  0  0  0  0
   22.8246  -10.3702  -16.2310 N   0  0  0  0  0  0  0  0  0  0  0  0
   21.8888   -9.3122  -16.0539 C   0  0  1  0  0  0  0  0  0  0  0  0
   20.5686   -9.9019  -15.5665 C   0  0  0  0  0  0  0  0  0  0  0  0
   19.4093   -8.5663  -15.1885 S   0  0  0  0  0  0  0  0  0  0  0  0
   22.3275   -8.2434  -15.1547 C   0  0  0  0  0  0  0  0  0  0  0  0
   22.7564   -8.4014  -13.9876 O   0  0  0  0  0  0  0  0  0  0  0  0
   22.2656   -6.9044  -15.6382 N   0  0  0  0  0  0  0  0  0  0  0  0
   22.7663   -5.8119  -14.8268 C   0  0  1  0  0  0  0  0  0  0  0  0
   23.7617   -4.9651  -15.5974 C   0  0  0  0  0  0  0  0  0  0  0  0
   25.2237   -5.8995  -16.0607 S   0  0  0  0  0  0  0  0  0  0  0  0
   21.6057   -4.9689  -14.4377 C   0  0  0  0  0  0  0  0  0  0  0  0
   21.6080   -4.1920  -13.2784 O   0  0  0  0  0  0  0  0  0  0  0  0
   20.5629   -4.9198  -15.1436 O   0  0  0  0  0  0  0  0  0  0  0  0
  2  1  1  1
  2  3  1  0
  4  2  1  0
  4  5  1  1
  6  4  1  0
  7  6  2  0
  8  6  1  0
  9 12  1  0
  9  8  1  0
  9 10  1  1
 11 10  1  0
 12 14  1  0
 13 12  2  0
 14 15  1  0
 15 16  1  6
 16 17  1  0
 18 15  1  0
 18 19  1  0
 20 18  2  0
M  END
$$$$
