VCC.pdb
     RDKit          3D

 20 19  0  0  1  0  0  0  0  0999 V2000
   17.6737  -10.3699  -19.3030 C   0  0  0  0  0  0  0  0  0  0  0  0
   17.6049  -11.6890  -18.6065 C   0  0  1  0  0  0  0  0  0  0  0  0
   17.4437  -12.7786  -19.6153 C   0  0  0  0  0  0  0  0  0  0  0  0
   18.7894  -11.9108  -17.6788 C   0  0  2  0  0  0  0  0  0  0  0  0
   18.6823  -13.1887  -17.0341 N   0  0  0  0  0  0  0  0  0  0  0  0
   18.8278  -10.7930  -16.6871 C   0  0  0  0  0  0  0  0  0  0  0  0
   17.9776  -10.6893  -15.7670 O   0  0  0  0  0  0  0  0  0  0  0  0
   19.8621   -9.8246  -16.7987 N   0  0  0  0  0  0  0  0  0  0  0  0
   20.0165   -8.7079  -15.9295 C   0  0  1  0  0  0  0  0  0  0  0  0
   21.3755   -8.8058  -15.2424 C   0  0  0  0  0  0  0  0  0  0  0  0
   21.5894   -7.4066  -14.1167 S   0  0  0  0  0  0  0  0  0  0  0  0
   19.8676   -7.4003  -16.5709 C   0  0  0  0  0  0  0  0  0  0  0  0
   20.4777   -7.0165  -17.5964 O   0  0  0  0  0  0  0  0  0  0  0  0
   18.9528   -6.4768  -15.9871 N   0  0  0  0  0  0  0  0  0  0  0  0
   18.7260   -5.1850  -16.6053 C   0  0  1  0  0  0  0  0  0  0  0  0
   17.2994   -4.7150  -16.3912 C   0  0  0  0  0  0  0  0  0  0  0  0
   16.9362   -3.2218  -17.3206 S   0  0  0  0  0  0  0  0  0  0  0  0
   19.6597   -4.2135  -15.9780 C   0  0  0  0  0  0  0  0  0  0  0  0
   20.5040   -3.4002  -16.7352 O   0  0  0  0  0  0  0  0  0  0  0  0
   19.7287   -4.0823  -14.7266 O   0  0  0  0  0  0  0  0  0  0  0  0
  2  1  1  6
  2  3  1  0
  4  2  1  0
  4  5  1  1
  6  4  1  0
  7  6  2  0
  8  6  1  0
  9 12  1  0
  9  8  1  0
  9 10  1  6
 11 10  1  0
 12 14  1  0
 13 12  2  0
 14 15  1  0
 15 16  1  1
 16 17  1  0
 18 15  1  0
 18 19  1  0
 20 18  2  0
M  END
$$$$
