VCC.pdb
     RDKit          3D

 20 19  0  0  1  0  0  0  0  0999 V2000
   28.0761  -22.8267  -16.4147 C   0  0  0  0  0  0  0  0  0  0  0  0
   26.7761  -22.4640  -15.7757 C   0  0  1  0  0  0  0  0  0  0  0  0
   25.7799  -22.1162  -16.8329 C   0  0  0  0  0  0  0  0  0  0  0  0
   26.2810  -23.5450  -14.8275 C   0  0  2  0  0  0  0  0  0  0  0  0
   25.9713  -24.7415  -15.5573 N   0  0  0  0  0  0  0  0  0  0  0  0
   25.0884  -23.0202  -14.0950 C   0  0  0  0  0  0  0  0  0  0  0  0
   23.9211  -23.4019  -14.3628 O   0  0  0  0  0  0  0  0  0  0  0  0
   25.2941  -22.0608  -13.0667 N   0  0  0  0  0  0  0  0  0  0  0  0
   24.2490  -21.4113  -12.3509 C   0  0  1  0  0  0  0  0  0  0  0  0
   24.8550  -20.6736  -11.1605 C   0  0  0  0  0  0  0  0  0  0  0  0
   25.8495  -21.8203  -10.1773 S   0  0  0  0  0  0  0  0  0  0  0  0
   23.4295  -20.4970  -13.1482 C   0  0  0  0  0  0  0  0  0  0  0  0
   23.7702  -19.3509  -13.5245 O   0  0  0  0  0  0  0  0  0  0  0  0
   22.1309  -20.9381  -13.5351 N   0  0  0  0  0  0  0  0  0  0  0  0
   21.2737  -20.0772  -14.3265 C   0  0  1  0  0  0  0  0  0  0  0  0
   21.1225  -20.6017  -15.7421 C   0  0  0  0  0  0  0  0  0  0  0  0
   20.9175  -22.3856  -15.7804 S   0  0  0  0  0  0  0  0  0  0  0  0
   19.9394  -20.0434  -13.6729 C   0  0  0  0  0  0  0  0  0  0  0  0
   19.6202  -20.8689  -12.5938 O   0  0  0  0  0  0  0  0  0  0  0  0
   19.0332  -19.2622  -14.0685 O   0  0  0  0  0  0  0  0  0  0  0  0
  2  1  1  6
  2  3  1  0
  4  2  1  0
  4  5  1  6
  6  4  1  0
  7  6  2  0
  8  6  1  0
  9 12  1  0
  9  8  1  0
  9 10  1  1
 11 10  1  0
 12 14  1  0
 13 12  2  0
 14 15  1  0
 15 16  1  6
 16 17  1  0
 18 15  1  0
 18 19  1  0
 20 18  2  0
M  END
$$$$
