QGA.pdb
     RDKit          3D

 19 18  0  0  1  0  0  0  0  0999 V2000
    5.3625  -23.5509   23.1833 N   0  0  0  0  0  0  0  0  0  0  0  0
    5.1359  -22.1867   22.7990 C   0  0  0  0  0  0  0  0  0  0  0  0
    5.0378  -21.9386   21.5844 O   0  0  0  0  0  0  0  0  0  0  0  0
    5.0334  -21.1941   23.8653 C   0  0  0  0  0  0  0  0  0  0  0  0
    5.2772  -19.8101   23.3662 C   0  0  0  0  0  0  0  0  0  0  0  0
    6.7017  -19.3371   23.4139 C   0  0  2  0  0  0  0  0  0  0  0  0
    7.3355  -19.5177   24.6850 N   0  0  0  0  0  0  0  0  0  0  0  0
    6.7275  -17.8850   23.0553 C   0  0  0  0  0  0  0  0  0  0  0  0
    6.1618  -17.5152   21.9997 O   0  0  0  0  0  0  0  0  0  0  0  0
    7.3783  -16.9322   23.8880 N   0  0  0  0  0  0  0  0  0  0  0  0
    7.3339  -15.5381   23.5019 C   0  0  0  0  0  0  0  0  0  0  0  0
    7.9469  -14.6700   24.5290 C   0  0  0  0  0  0  0  0  0  0  0  0
    9.1950  -14.6741   24.6448 O   0  0  0  0  0  0  0  0  0  0  0  0
    6.5684  -12.1102   26.8633 C   0  0  0  0  0  0  0  0  0  0  0  0
    7.6643  -13.0302   26.3755 C   0  0  2  0  0  0  0  0  0  0  0  0
    7.1006  -13.8698   25.3397 N   0  0  0  0  0  0  0  0  0  0  0  0
    8.2034  -13.8810   27.4672 C   0  0  0  0  0  0  0  0  0  0  0  0
    7.9507  -15.1089   27.5642 O   0  0  0  0  0  0  0  0  0  0  0  0
    9.0122  -13.3080   28.4131 O   0  0  0  0  0  0  0  0  0  0  0  0
  1  2  1  0
  2  3  2  0
  4  5  1  0
  4  2  1  0
  6  7  1  1
  6  5  1  0
  8  9  2  0
  8  6  1  0
 10  8  1  0
 11 10  1  0
 11 12  1  0
 12 16  1  0
 13 12  2  0
 15 14  1  1
 15 17  1  0
 16 15  1  0
 17 18  2  0
 17 19  1  0
M  END
$$$$
