QGA.pdb
     RDKit          3D

 19 18  0  0  1  0  0  0  0  0999 V2000
   10.4943  -20.2328   20.3729 N   0  0  0  0  0  0  0  0  0  0  0  0
    9.4456  -19.6357   21.1499 C   0  0  0  0  0  0  0  0  0  0  0  0
    9.3848  -19.9277   22.3572 O   0  0  0  0  0  0  0  0  0  0  0  0
    8.5320  -18.7264   20.4635 C   0  0  0  0  0  0  0  0  0  0  0  0
    8.8255  -17.2979   20.7754 C   0  0  0  0  0  0  0  0  0  0  0  0
    8.3903  -16.8198   22.1308 C   0  0  2  0  0  0  0  0  0  0  0  0
    7.0534  -17.1938   22.4814 N   0  0  0  0  0  0  0  0  0  0  0  0
    8.5066  -15.3287   22.1634 C   0  0  0  0  0  0  0  0  0  0  0  0
    9.6333  -14.8086   21.9867 O   0  0  0  0  0  0  0  0  0  0  0  0
    7.3679  -14.5060   22.3896 N   0  0  0  0  0  0  0  0  0  0  0  0
    7.5362  -13.0695   22.3345 C   0  0  0  0  0  0  0  0  0  0  0  0
    7.7217  -12.4920   23.6824 C   0  0  0  0  0  0  0  0  0  0  0  0
    7.8583  -11.2503   23.7848 O   0  0  0  0  0  0  0  0  0  0  0  0
    6.5492  -12.5040   26.6858 C   0  0  0  0  0  0  0  0  0  0  0  0
    7.9185  -12.8332   26.1366 C   0  0  2  0  0  0  0  0  0  0  0  0
    7.7375  -13.3638   24.8019 N   0  0  0  0  0  0  0  0  0  0  0  0
    8.6297  -13.8308   26.9764 C   0  0  0  0  0  0  0  0  0  0  0  0
    8.9918  -13.5953   28.1573 O   0  0  0  0  0  0  0  0  0  0  0  0
    8.9062  -15.0635   26.4462 O   0  0  0  0  0  0  0  0  0  0  0  0
  1  2  1  0
  2  3  2  0
  4  5  1  0
  4  2  1  0
  6  7  1  6
  6  5  1  0
  8  9  2  0
  8  6  1  0
 10  8  1  0
 11 10  1  0
 11 12  1  0
 12 16  1  0
 13 12  2  0
 15 14  1  1
 15 17  1  0
 16 15  1  0
 17 18  2  0
 17 19  1  0
M  END
$$$$
