QGA.pdb
     RDKit          3D

 19 18  0  0  1  0  0  0  0  0999 V2000
    8.3918  -12.7602   18.7045 N   0  0  0  0  0  0  0  0  0  0  0  0
    7.8953  -13.7841   17.8298 C   0  0  0  0  0  0  0  0  0  0  0  0
    8.2442  -13.7422   16.6369 O   0  0  0  0  0  0  0  0  0  0  0  0
    7.0212  -14.8003   18.4092 C   0  0  0  0  0  0  0  0  0  0  0  0
    7.1005  -14.8231   19.8983 C   0  0  0  0  0  0  0  0  0  0  0  0
    8.4443  -15.1592   20.4784 C   0  0  2  0  0  0  0  0  0  0  0  0
    9.1970  -16.0992   19.7039 N   0  0  0  0  0  0  0  0  0  0  0  0
    8.2384  -15.7107   21.8536 C   0  0  0  0  0  0  0  0  0  0  0  0
    8.0790  -16.9466   21.9893 O   0  0  0  0  0  0  0  0  0  0  0  0
    8.2216  -14.8593   22.9936 N   0  0  0  0  0  0  0  0  0  0  0  0
    8.1709  -15.4683   24.3055 C   0  0  0  0  0  0  0  0  0  0  0  0
    8.0854  -14.4508   25.3740 C   0  0  0  0  0  0  0  0  0  0  0  0
    8.4153  -14.7797   26.5377 O   0  0  0  0  0  0  0  0  0  0  0  0
    6.9906  -10.8774   25.4059 C   0  0  0  0  0  0  0  0  0  0  0  0
    7.4770  -12.1441   26.0722 C   0  0  2  0  0  0  0  0  0  0  0  0
    7.6350  -13.1471   25.0404 N   0  0  0  0  0  0  0  0  0  0  0  0
    6.5232  -12.6336   27.1002 C   0  0  0  0  0  0  0  0  0  0  0  0
    5.6475  -13.5034   26.8602 O   0  0  0  0  0  0  0  0  0  0  0  0
    6.5962  -12.1183   28.3676 O   0  0  0  0  0  0  0  0  0  0  0  0
  1  2  1  0
  2  3  2  0
  4  5  1  0
  4  2  1  0
  6  7  1  6
  6  5  1  0
  8  9  2  0
  8  6  1  0
 10  8  1  0
 11 10  1  0
 11 12  1  0
 12 16  1  0
 13 12  2  0
 15 14  1  6
 15 17  1  0
 16 15  1  0
 17 18  2  0
 17 19  1  0
M  END
$$$$
