QGA.pdb
     RDKit          3D

 19 18  0  0  1  0  0  0  0  0999 V2000
    6.1245  -23.6681   23.8788 N   0  0  0  0  0  0  0  0  0  0  0  0
    6.6113  -22.6961   22.9417 C   0  0  0  0  0  0  0  0  0  0  0  0
    6.7545  -23.0558   21.7599 O   0  0  0  0  0  0  0  0  0  0  0  0
    6.8972  -21.3562   23.4474 C   0  0  0  0  0  0  0  0  0  0  0  0
    6.0780  -20.3140   22.7642 C   0  0  0  0  0  0  0  0  0  0  0  0
    6.7545  -18.9925   22.5375 C   0  0  2  0  0  0  0  0  0  0  0  0
    8.1783  -19.0320   22.6821 N   0  0  0  0  0  0  0  0  0  0  0  0
    6.1906  -18.0030   23.5075 C   0  0  0  0  0  0  0  0  0  0  0  0
    4.9731  -17.7141   23.4338 O   0  0  0  0  0  0  0  0  0  0  0  0
    7.0100  -17.3947   24.4991 N   0  0  0  0  0  0  0  0  0  0  0  0
    6.3821  -16.5243   25.4701 C   0  0  0  0  0  0  0  0  0  0  0  0
    7.0167  -15.1898   25.4942 C   0  0  0  0  0  0  0  0  0  0  0  0
    8.0807  -15.0244   24.8525 O   0  0  0  0  0  0  0  0  0  0  0  0
    6.0092  -11.9022   26.9345 C   0  0  0  0  0  0  0  0  0  0  0  0
    7.0221  -12.8505   26.3347 C   0  0  2  0  0  0  0  0  0  0  0  0
    6.3980  -14.1533   26.2402 N   0  0  0  0  0  0  0  0  0  0  0  0
    8.2521  -12.9469   27.1618 C   0  0  0  0  0  0  0  0  0  0  0  0
    8.5240  -13.9520   27.8668 O   0  0  0  0  0  0  0  0  0  0  0  0
    9.1329  -11.8975   27.1604 O   0  0  0  0  0  0  0  0  0  0  0  0
  1  2  1  0
  2  3  2  0
  4  5  1  0
  4  2  1  0
  6  7  1  1
  6  5  1  0
  8  9  2  0
  8  6  1  0
 10  8  1  0
 11 10  1  0
 11 12  1  0
 12 16  1  0
 13 12  2  0
 15 14  1  1
 15 17  1  0
 16 15  1  0
 17 18  2  0
 17 19  1  0
M  END
$$$$
