QGA.pdb
     RDKit          3D

 19 18  0  0  1  0  0  0  0  0999 V2000
    8.0013  -12.3032   18.1666 N   0  0  0  0  0  0  0  0  0  0  0  0
    8.3748  -13.4270   18.9776 C   0  0  0  0  0  0  0  0  0  0  0  0
    9.0317  -14.3344   18.4378 O   0  0  0  0  0  0  0  0  0  0  0  0
    7.9580  -13.4165   20.3772 C   0  0  0  0  0  0  0  0  0  0  0  0
    8.4345  -14.6240   21.1115 C   0  0  0  0  0  0  0  0  0  0  0  0
    7.3658  -15.5621   21.5942 C   0  0  2  0  0  0  0  0  0  0  0  0
    6.0397  -15.1876   21.2053 N   0  0  0  0  0  0  0  0  0  0  0  0
    7.4382  -15.6296   23.0869 C   0  0  0  0  0  0  0  0  0  0  0  0
    6.7288  -14.8457   23.7603 O   0  0  0  0  0  0  0  0  0  0  0  0
    8.2919  -16.5610   23.7414 N   0  0  0  0  0  0  0  0  0  0  0  0
    8.1989  -16.6848   25.1804 C   0  0  0  0  0  0  0  0  0  0  0  0
    9.1870  -15.8247   25.8648 C   0  0  0  0  0  0  0  0  0  0  0  0
   10.1602  -15.3928   25.2034 O   0  0  0  0  0  0  0  0  0  0  0  0
    9.2171  -13.5752   28.5999 C   0  0  0  0  0  0  0  0  0  0  0  0
    9.9634  -14.7182   27.9507 C   0  0  2  0  0  0  0  0  0  0  0  0
    8.9944  -15.5236   27.2381 N   0  0  0  0  0  0  0  0  0  0  0  0
   10.6711  -15.5594   28.9498 C   0  0  0  0  0  0  0  0  0  0  0  0
   10.3457  -16.7492   29.1938 O   0  0  0  0  0  0  0  0  0  0  0  0
   11.7256  -15.0203   29.6387 O   0  0  0  0  0  0  0  0  0  0  0  0
  1  2  1  0
  2  3  2  0
  4  5  1  0
  4  2  1  0
  6  7  1  1
  6  5  1  0
  8  9  2  0
  8  6  1  0
 10  8  1  0
 11 10  1  0
 11 12  1  0
 12 16  1  0
 13 12  2  0
 15 14  1  1
 15 17  1  0
 16 15  1  0
 17 18  2  0
 17 19  1  0
M  END
$$$$
