QGA.pdb
     RDKit          3D

 19 18  0  0  1  0  0  0  0  0999 V2000
    7.7871  -13.3599   22.1064 N   0  0  0  0  0  0  0  0  0  0  0  0
    7.2018  -14.3602   22.9531 C   0  0  0  0  0  0  0  0  0  0  0  0
    7.1017  -14.1026   24.1656 O   0  0  0  0  0  0  0  0  0  0  0  0
    6.7643  -15.6037   22.3245 C   0  0  0  0  0  0  0  0  0  0  0  0
    6.9094  -15.5615   20.8408 C   0  0  0  0  0  0  0  0  0  0  0  0
    7.0772  -16.8896   20.1603 C   0  0  2  0  0  0  0  0  0  0  0  0
    6.6008  -18.0026   20.9246 N   0  0  0  0  0  0  0  0  0  0  0  0
    8.5301  -17.0853   19.8625 C   0  0  0  0  0  0  0  0  0  0  0  0
    9.1152  -16.2450   19.1396 O   0  0  0  0  0  0  0  0  0  0  0  0
    9.2450  -18.1996   20.3839 N   0  0  0  0  0  0  0  0  0  0  0  0
   10.6843  -18.2240   20.2337 C   0  0  0  0  0  0  0  0  0  0  0  0
   11.3655  -17.7141   21.4422 C   0  0  0  0  0  0  0  0  0  0  0  0
   12.6163  -17.6324   21.4312 O   0  0  0  0  0  0  0  0  0  0  0  0
   10.3343  -15.6916   24.2726 C   0  0  0  0  0  0  0  0  0  0  0  0
   11.2101  -16.8080   23.7515 C   0  0  2  0  0  0  0  0  0  0  0  0
   10.5788  -17.3392   22.5620 N   0  0  0  0  0  0  0  0  0  0  0  0
   11.3813  -17.8935   24.7509 C   0  0  0  0  0  0  0  0  0  0  0  0
   10.7634  -18.9866   24.6844 O   0  0  0  0  0  0  0  0  0  0  0  0
   12.2495  -17.7009   25.7931 O   0  0  0  0  0  0  0  0  0  0  0  0
  1  2  1  0
  2  3  2  0
  4  5  1  0
  4  2  1  0
  6  7  1  1
  6  5  1  0
  8  9  2  0
  8  6  1  0
 10  8  1  0
 11 10  1  0
 11 12  1  0
 12 16  1  0
 13 12  2  0
 15 14  1  1
 15 17  1  0
 16 15  1  0
 17 18  2  0
 17 19  1  0
M  END
$$$$
