QGA.pdb
     RDKit          3D

 19 18  0  0  1  0  0  0  0  0999 V2000
   10.6670  -19.3295   17.9849 N   0  0  0  0  0  0  0  0  0  0  0  0
    9.9619  -19.2471   19.2323 C   0  0  0  0  0  0  0  0  0  0  0  0
   10.0723  -20.2021   20.0210 O   0  0  0  0  0  0  0  0  0  0  0  0
    9.1716  -18.0447   19.4819 C   0  0  0  0  0  0  0  0  0  0  0  0
    9.8232  -17.1434   20.4754 C   0  0  0  0  0  0  0  0  0  0  0  0
    9.9248  -17.6756   21.8760 C   0  0  2  0  0  0  0  0  0  0  0  0
    8.8895  -18.6002   22.2267 N   0  0  0  0  0  0  0  0  0  0  0  0
    9.8896  -16.5180   22.8228 C   0  0  0  0  0  0  0  0  0  0  0  0
   10.7512  -15.6155   22.7029 O   0  0  0  0  0  0  0  0  0  0  0  0
    8.9024  -16.4315   23.8439 N   0  0  0  0  0  0  0  0  0  0  0  0
    8.8518  -15.2311   24.6509 C   0  0  0  0  0  0  0  0  0  0  0  0
    9.7472  -15.3262   25.8230 C   0  0  0  0  0  0  0  0  0  0  0  0
   10.8201  -15.9630   25.7028 O   0  0  0  0  0  0  0  0  0  0  0  0
    9.8362  -13.4389   29.0057 C   0  0  0  0  0  0  0  0  0  0  0  0
   10.2927  -14.5848   28.1319 C   0  0  2  0  0  0  0  0  0  0  0  0
    9.3572  -14.6950   27.0326 N   0  0  0  0  0  0  0  0  0  0  0  0
   10.3382  -15.8689   28.8771 C   0  0  0  0  0  0  0  0  0  0  0  0
    9.4647  -16.7643   28.7488 O   0  0  0  0  0  0  0  0  0  0  0  0
   11.3754  -16.0932   29.7438 O   0  0  0  0  0  0  0  0  0  0  0  0
  1  2  1  0
  2  3  2  0
  4  5  1  0
  4  2  1  0
  6  7  1  1
  6  5  1  0
  8  9  2  0
  8  6  1  0
 10  8  1  0
 11 10  1  0
 11 12  1  0
 12 16  1  0
 13 12  2  0
 15 14  1  1
 15 17  1  0
 16 15  1  0
 17 18  2  0
 17 19  1  0
M  END
$$$$
