QGA.pdb
     RDKit          3D

 19 18  0  0  1  0  0  0  0  0999 V2000
    9.1687  -20.0233   21.3119 N   0  0  0  0  0  0  0  0  0  0  0  0
    9.6558  -20.8190   22.4026 C   0  0  0  0  0  0  0  0  0  0  0  0
    9.1950  -21.9670   22.5295 O   0  0  0  0  0  0  0  0  0  0  0  0
   10.6596  -20.2203   23.2782 C   0  0  0  0  0  0  0  0  0  0  0  0
   11.0699  -18.8640   22.8133 C   0  0  0  0  0  0  0  0  0  0  0  0
   10.9780  -17.7655   23.8331 C   0  0  2  0  0  0  0  0  0  0  0  0
   10.5627  -18.2056   25.1308 N   0  0  0  0  0  0  0  0  0  0  0  0
   10.0132  -16.7379   23.3320 C   0  0  0  0  0  0  0  0  0  0  0  0
   10.3581  -16.0033   22.3767 O   0  0  0  0  0  0  0  0  0  0  0  0
    8.7262  -16.5875   23.9199 N   0  0  0  0  0  0  0  0  0  0  0  0
    7.9038  -15.4738   23.4978 C   0  0  0  0  0  0  0  0  0  0  0  0
    8.0375  -14.3217   24.4140 C   0  0  0  0  0  0  0  0  0  0  0  0
    9.1896  -13.9323   24.7173 O   0  0  0  0  0  0  0  0  0  0  0  0
    5.5577  -11.9953   25.9508 C   0  0  0  0  0  0  0  0  0  0  0  0
    6.9527  -12.5525   25.7822 C   0  0  2  0  0  0  0  0  0  0  0  0
    6.8601  -13.7054   24.9115 N   0  0  0  0  0  0  0  0  0  0  0  0
    7.5513  -12.9563   27.0803 C   0  0  0  0  0  0  0  0  0  0  0  0
    7.6870  -14.1577   27.4254 O   0  0  0  0  0  0  0  0  0  0  0  0
    7.9761  -11.9808   27.9435 O   0  0  0  0  0  0  0  0  0  0  0  0
  1  2  1  0
  2  3  2  0
  4  5  1  0
  4  2  1  0
  6  7  1  1
  6  5  1  0
  8  9  2  0
  8  6  1  0
 10  8  1  0
 11 10  1  0
 11 12  1  0
 12 16  1  0
 13 12  2  0
 15 14  1  1
 15 17  1  0
 16 15  1  0
 17 18  2  0
 17 19  1  0
M  END
$$$$
