QGA.pdb
     RDKit          3D

 19 18  0  0  1  0  0  0  0  0999 V2000
    5.7042  -18.7250   18.7930 N   0  0  0  0  0  0  0  0  0  0  0  0
    5.2407  -20.0833   18.8042 C   0  0  0  0  0  0  0  0  0  0  0  0
    4.1305  -20.3178   18.2956 O   0  0  0  0  0  0  0  0  0  0  0  0
    6.1115  -21.0878   19.4088 C   0  0  0  0  0  0  0  0  0  0  0  0
    7.4218  -20.5124   19.8284 C   0  0  0  0  0  0  0  0  0  0  0  0
    8.4370  -21.4952   20.3370 C   0  0  2  0  0  0  0  0  0  0  0  0
    7.8858  -22.5383   21.1481 N   0  0  0  0  0  0  0  0  0  0  0  0
    9.4604  -20.7462   21.1305 C   0  0  0  0  0  0  0  0  0  0  0  0
   10.0417  -19.7723   20.5969 O   0  0  0  0  0  0  0  0  0  0  0  0
    9.7767  -21.1223   22.4658 N   0  0  0  0  0  0  0  0  0  0  0  0
   10.6168  -20.2402   23.2475 C   0  0  0  0  0  0  0  0  0  0  0  0
   10.8953  -20.8006   24.5865 C   0  0  0  0  0  0  0  0  0  0  0  0
   10.1924  -21.7566   24.9902 O   0  0  0  0  0  0  0  0  0  0  0  0
   13.5463  -20.1207   27.1241 C   0  0  0  0  0  0  0  0  0  0  0  0
   12.2726  -20.7866   26.6556 C   0  0  2  0  0  0  0  0  0  0  0  0
   11.9437  -20.2355   25.3580 N   0  0  0  0  0  0  0  0  0  0  0  0
   11.1455  -20.5549   27.5949 C   0  0  0  0  0  0  0  0  0  0  0  0
   10.2397  -19.7099   27.3794 O   0  0  0  0  0  0  0  0  0  0  0  0
   11.0851  -21.2914   28.7486 O   0  0  0  0  0  0  0  0  0  0  0  0
  1  2  1  0
  2  3  2  0
  4  5  1  0
  4  2  1  0
  6  7  1  1
  6  5  1  0
  8  9  2  0
  8  6  1  0
 10  8  1  0
 11 10  1  0
 11 12  1  0
 12 16  1  0
 13 12  2  0
 15 14  1  1
 15 17  1  0
 16 15  1  0
 17 18  2  0
 17 19  1  0
M  END
$$$$
