QGA.pdb
     RDKit          3D

 19 18  0  0  1  0  0  0  0  0999 V2000
    7.1952  -20.7427   26.9508 N   0  0  0  0  0  0  0  0  0  0  0  0
    8.3293  -19.9891   26.4972 C   0  0  0  0  0  0  0  0  0  0  0  0
    9.3149  -19.9197   27.2524 O   0  0  0  0  0  0  0  0  0  0  0  0
    8.2407  -19.3645   25.1801 C   0  0  0  0  0  0  0  0  0  0  0  0
    6.9070  -19.5791   24.5481 C   0  0  0  0  0  0  0  0  0  0  0  0
    6.7140  -18.9549   23.1959 C   0  0  2  0  0  0  0  0  0  0  0  0
    7.8652  -19.0291   22.3479 N   0  0  0  0  0  0  0  0  0  0  0  0
    6.3395  -17.5196   23.3895 C   0  0  0  0  0  0  0  0  0  0  0  0
    5.3141  -17.2496   24.0579 O   0  0  0  0  0  0  0  0  0  0  0  0
    7.1240  -16.4720   22.8309 N   0  0  0  0  0  0  0  0  0  0  0  0
    6.7468  -15.1041   23.1160 C   0  0  0  0  0  0  0  0  0  0  0  0
    7.5371  -14.5440   24.2323 C   0  0  0  0  0  0  0  0  0  0  0  0
    8.6731  -15.0235   24.4575 O   0  0  0  0  0  0  0  0  0  0  0  0
    6.9830  -11.6731   26.5508 C   0  0  0  0  0  0  0  0  0  0  0  0
    7.7376  -12.8964   26.0827 C   0  0  2  0  0  0  0  0  0  0  0  0
    6.9797  -13.4896   25.0013 N   0  0  0  0  0  0  0  0  0  0  0  0
    7.9138  -13.8918   27.1711 C   0  0  0  0  0  0  0  0  0  0  0  0
    7.1723  -14.8987   27.3023 O   0  0  0  0  0  0  0  0  0  0  0  0
    8.9274  -13.7098   28.0748 O   0  0  0  0  0  0  0  0  0  0  0  0
  1  2  1  0
  2  3  2  0
  4  5  1  0
  4  2  1  0
  6  7  1  6
  6  5  1  0
  8  9  2  0
  8  6  1  0
 10  8  1  0
 11 10  1  0
 11 12  1  0
 12 16  1  0
 13 12  2  0
 15 14  1  1
 15 17  1  0
 16 15  1  0
 17 18  2  0
 17 19  1  0
M  END
$$$$
