QGA.pdb
     RDKit          3D

 19 18  0  0  1  0  0  0  0  0999 V2000
    7.1199  -13.7669   16.7354 N   0  0  0  0  0  0  0  0  0  0  0  0
    8.0074  -13.8474   17.8605 C   0  0  0  0  0  0  0  0  0  0  0  0
    8.8163  -14.7914   17.8903 O   0  0  0  0  0  0  0  0  0  0  0  0
    7.8954  -12.8107   18.8830 C   0  0  0  0  0  0  0  0  0  0  0  0
    7.5123  -13.3732   20.2100 C   0  0  0  0  0  0  0  0  0  0  0  0
    8.5694  -14.1765   20.9117 C   0  0  2  0  0  0  0  0  0  0  0  0
    8.7237  -15.5075   20.4070 N   0  0  0  0  0  0  0  0  0  0  0  0
    8.2237  -14.2407   22.3657 C   0  0  0  0  0  0  0  0  0  0  0  0
    7.9871  -13.1718   22.9762 O   0  0  0  0  0  0  0  0  0  0  0  0
    8.1614  -15.4847   23.0537 N   0  0  0  0  0  0  0  0  0  0  0  0
    7.7506  -15.4827   24.4415 C   0  0  0  0  0  0  0  0  0  0  0  0
    8.8770  -15.1564   25.3411 C   0  0  0  0  0  0  0  0  0  0  0  0
   10.0380  -15.1634   24.8688 O   0  0  0  0  0  0  0  0  0  0  0  0
    9.0963  -13.1931   28.3448 C   0  0  0  0  0  0  0  0  0  0  0  0
    9.6515  -14.3638   27.5660 C   0  0  2  0  0  0  0  0  0  0  0  0
    8.5993  -14.8494   26.6984 N   0  0  0  0  0  0  0  0  0  0  0  0
   10.1062  -15.4605   28.4587 C   0  0  0  0  0  0  0  0  0  0  0  0
   11.0444  -15.3241   29.2846 O   0  0  0  0  0  0  0  0  0  0  0  0
    9.4792  -16.6763   28.3833 O   0  0  0  0  0  0  0  0  0  0  0  0
  1  2  1  0
  2  3  2  0
  4  5  1  0
  4  2  1  0
  6  7  1  6
  6  5  1  0
  8  9  2  0
  8  6  1  0
 10  8  1  0
 11 10  1  0
 11 12  1  0
 12 16  1  0
 13 12  2  0
 15 14  1  1
 15 17  1  0
 16 15  1  0
 17 18  2  0
 17 19  1  0
M  END
$$$$
