QGA.pdb
     RDKit          3D

 19 18  0  0  1  0  0  0  0  0999 V2000
   10.6519  -20.6027   26.7895 N   0  0  0  0  0  0  0  0  0  0  0  0
   10.6382  -19.1963   27.0760 C   0  0  0  0  0  0  0  0  0  0  0  0
   10.8350  -18.8458   28.2528 O   0  0  0  0  0  0  0  0  0  0  0  0
   10.3984  -18.2835   25.9615 C   0  0  0  0  0  0  0  0  0  0  0  0
   10.1842  -19.0122   24.6781 C   0  0  0  0  0  0  0  0  0  0  0  0
    8.7531  -19.2242   24.2752 C   0  0  2  0  0  0  0  0  0  0  0  0
    8.5899  -20.0043   23.0859 N   0  0  0  0  0  0  0  0  0  0  0  0
    8.1178  -17.8849   24.0741 C   0  0  0  0  0  0  0  0  0  0  0  0
    8.4636  -17.1967   23.0851 O   0  0  0  0  0  0  0  0  0  0  0  0
    7.1387  -17.3906   24.9806 N   0  0  0  0  0  0  0  0  0  0  0  0
    6.4257  -16.1810   24.6297 C   0  0  0  0  0  0  0  0  0  0  0  0
    7.0724  -14.9828   25.2048 C   0  0  0  0  0  0  0  0  0  0  0  0
    8.1941  -15.1144   25.7485 O   0  0  0  0  0  0  0  0  0  0  0  0
    6.1243  -11.3703   25.2803 C   0  0  0  0  0  0  0  0  0  0  0  0
    7.0232  -12.5343   25.6298 C   0  0  2  0  0  0  0  0  0  0  0  0
    6.3995  -13.7365   25.1185 N   0  0  0  0  0  0  0  0  0  0  0  0
    7.2229  -12.6624   27.0961 C   0  0  0  0  0  0  0  0  0  0  0  0
    6.5662  -13.4649   27.8072 O   0  0  0  0  0  0  0  0  0  0  0  0
    8.1628  -11.8739   27.7060 O   0  0  0  0  0  0  0  0  0  0  0  0
  1  2  1  0
  2  3  2  0
  4  5  1  0
  4  2  1  0
  6  7  1  6
  6  5  1  0
  8  9  2  0
  8  6  1  0
 10  8  1  0
 11 10  1  0
 11 12  1  0
 12 16  1  0
 13 12  2  0
 15 14  1  1
 15 17  1  0
 16 15  1  0
 17 18  2  0
 17 19  1  0
M  END
$$$$
