QGA.pdb
     RDKit          3D

 19 18  0  0  1  0  0  0  0  0999 V2000
    8.6428  -13.1525   18.6363 N   0  0  0  0  0  0  0  0  0  0  0  0
    7.7230  -14.2342   18.4271 C   0  0  0  0  0  0  0  0  0  0  0  0
    6.9999  -14.1887   17.4165 O   0  0  0  0  0  0  0  0  0  0  0  0
    7.7098  -15.3088   19.4160 C   0  0  0  0  0  0  0  0  0  0  0  0
    8.6176  -15.0232   20.5642 C   0  0  0  0  0  0  0  0  0  0  0  0
    7.9697  -14.9838   21.9184 C   0  0  2  0  0  0  0  0  0  0  0  0
    7.0548  -13.8972   22.0975 N   0  0  0  0  0  0  0  0  0  0  0  0
    9.0468  -14.8933   22.9527 C   0  0  0  0  0  0  0  0  0  0  0  0
    9.6203  -13.7930   23.1302 O   0  0  0  0  0  0  0  0  0  0  0  0
    9.4220  -16.0270   23.7264 N   0  0  0  0  0  0  0  0  0  0  0  0
   10.7571  -16.0673   24.2837 C   0  0  0  0  0  0  0  0  0  0  0  0
   10.7867  -15.5353   25.6623 C   0  0  0  0  0  0  0  0  0  0  0  0
   11.8130  -15.7314   26.3546 O   0  0  0  0  0  0  0  0  0  0  0  0
    8.5195  -13.2567   27.5392 C   0  0  0  0  0  0  0  0  0  0  0  0
    9.6817  -14.2200   27.4588 C   0  0  2  0  0  0  0  0  0  0  0  0
    9.6559  -14.8266   26.1446 N   0  0  0  0  0  0  0  0  0  0  0  0
    9.5996  -15.2789   28.4972 C   0  0  0  0  0  0  0  0  0  0  0  0
   10.0381  -15.1249   29.6656 O   0  0  0  0  0  0  0  0  0  0  0  0
    9.0218  -16.4782   28.1734 O   0  0  0  0  0  0  0  0  0  0  0  0
  1  2  1  0
  2  3  2  0
  4  5  1  0
  4  2  1  0
  6  7  1  6
  6  5  1  0
  8  9  2  0
  8  6  1  0
 10  8  1  0
 11 10  1  0
 11 12  1  0
 12 16  1  0
 13 12  2  0
 15 14  1  6
 15 17  1  0
 16 15  1  0
 17 18  2  0
 17 19  1  0
M  END
$$$$
