QGA.pdb
     RDKit          3D

 19 18  0  0  1  0  0  0  0  0999 V2000
    5.2234  -22.6878   23.1723 N   0  0  0  0  0  0  0  0  0  0  0  0
    4.6104  -21.4174   22.9069 C   0  0  0  0  0  0  0  0  0  0  0  0
    3.6298  -21.3991   22.1423 O   0  0  0  0  0  0  0  0  0  0  0  0
    5.1830  -20.2431   23.5594 C   0  0  0  0  0  0  0  0  0  0  0  0
    5.0945  -19.0273   22.7003 C   0  0  0  0  0  0  0  0  0  0  0  0
    6.3976  -18.5045   22.1674 C   0  0  2  0  0  0  0  0  0  0  0  0
    7.5546  -19.0889   22.7755 N   0  0  0  0  0  0  0  0  0  0  0  0
    6.4302  -17.0233   22.3748 C   0  0  0  0  0  0  0  0  0  0  0  0
    5.4130  -16.3518   22.0826 O   0  0  0  0  0  0  0  0  0  0  0  0
    7.5875  -16.3776   22.8928 N   0  0  0  0  0  0  0  0  0  0  0  0
    7.5767  -14.9347   23.0059 C   0  0  0  0  0  0  0  0  0  0  0  0
    8.3174  -14.4778   24.2005 C   0  0  0  0  0  0  0  0  0  0  0  0
    9.5639  -14.6086   24.2147 O   0  0  0  0  0  0  0  0  0  0  0  0
    7.3817  -12.3328   27.0582 C   0  0  0  0  0  0  0  0  0  0  0  0
    8.2892  -13.3596   26.4203 C   0  0  2  0  0  0  0  0  0  0  0  0
    7.5898  -13.9115   25.2792 N   0  0  0  0  0  0  0  0  0  0  0  0
    8.6429  -14.4517   27.3629 C   0  0  0  0  0  0  0  0  0  0  0  0
    8.1715  -15.6137   27.2697 O   0  0  0  0  0  0  0  0  0  0  0  0
    9.5212  -14.1872   28.3807 O   0  0  0  0  0  0  0  0  0  0  0  0
  1  2  1  0
  2  3  2  0
  4  5  1  0
  4  2  1  0
  6  7  1  1
  6  5  1  0
  8  9  2  0
  8  6  1  0
 10  8  1  0
 11 10  1  0
 11 12  1  0
 12 16  1  0
 13 12  2  0
 15 14  1  1
 15 17  1  0
 16 15  1  0
 17 18  2  0
 17 19  1  0
M  END
$$$$
