MNF.pdb
     RDKit          3D

 28 28  0  0  1  0  0  0  0  0999 V2000
   26.6744  -14.4519  -15.1300 C   0  0  0  0  0  0  0  0  0  0  0  0
   27.5610  -15.7356  -16.0738 S   0  0  0  0  0  0  0  0  0  0  0  0
   26.4544  -17.1417  -16.4258 C   0  0  0  0  0  0  0  0  0  0  0  0
   27.2833  -18.2035  -17.1148 C   0  0  0  0  0  0  0  0  0  0  0  0
   26.4331  -19.3959  -17.5160 C   0  0  2  0  0  0  0  0  0  0  0  0
   25.4047  -18.8228  -18.4033 N   0  0  0  0  0  0  0  0  0  0  0  0
   25.7550  -20.0161  -16.3869 C   0  0  0  0  0  0  0  0  0  0  0  0
   24.7110  -19.4673  -15.8958 O   0  0  0  0  0  0  0  0  0  0  0  0
   23.8099  -23.1654  -12.8296 N   0  0  0  0  0  0  0  0  0  0  0  0
   24.4125  -23.9351  -13.8583 C   0  0  0  0  0  0  0  0  0  0  0  0
   24.1510  -25.1480  -13.9683 O   0  0  0  0  0  0  0  0  0  0  0  0
   25.3350  -23.2640  -14.7695 C   0  0  0  0  0  0  0  0  0  0  0  0
   25.4063  -21.7626  -14.6019 C   0  0  2  0  0  0  0  0  0  0  0  0
   26.1251  -21.2213  -15.7215 N   0  0  0  0  0  0  0  0  0  0  0  0
   26.1175  -21.5309  -13.3073 C   0  0  0  0  0  0  0  0  0  0  0  0
   27.2682  -22.0281  -13.2165 O   0  0  0  0  0  0  0  0  0  0  0  0
   25.5812  -20.8099  -12.2253 N   0  0  0  0  0  0  0  0  0  0  0  0
   26.1269  -20.9113  -10.8675 C   0  0  1  0  0  0  0  0  0  0  0  0
   26.9511  -19.6855  -10.5372 C   0  0  0  0  0  0  0  0  0  0  0  0
   27.5083  -19.7066   -9.1654 C   0  0  0  0  0  0  0  0  0  0  0  0
   26.9261  -18.9721   -8.1552 C   0  0  0  0  0  0  0  0  0  0  0  0
   27.4326  -18.9869   -6.8713 C   0  0  0  0  0  0  0  0  0  0  0  0
   28.5531  -19.7460   -6.5467 C   0  0  0  0  0  0  0  0  0  0  0  0
   29.1308  -20.4786   -7.5614 C   0  0  0  0  0  0  0  0  0  0  0  0
   28.6223  -20.4617   -8.8444 C   0  0  0  0  0  0  0  0  0  0  0  0
   25.0693  -21.1811   -9.8900 C   0  0  0  0  0  0  0  0  0  0  0  0
   25.2025  -21.8928   -8.7362 O   0  0  0  0  0  0  0  0  0  0  0  0
   23.9098  -20.7084  -10.1354 O   0  0  0  0  0  0  0  0  0  0  0  0
  1  2  1  0
  3  2  1  0
  4  3  1  0
  5  6  1  6
  5  4  1  0
  7  5  1  0
  8  7  2  0
  9 10  1  0
 10 12  1  0
 10 11  2  0
 13 12  1  6
 13 15  1  0
 13 14  1  0
 14  7  1  0
 15 16  2  0
 17 18  1  0
 17 15  1  0
 18 19  1  1
 20 19  1  0
 21 20  2  0
 22 21  1  0
 23 24  1  0
 23 22  2  0
 24 25  2  0
 25 20  1  0
 26 18  1  0
 27 26  1  0
 28 26  2  0
M  END
$$$$
