MNF.pdb
     RDKit          3D

 28 28  0  0  1  0  0  0  0  0999 V2000
   25.6850  -17.4754  -17.6898 C   0  0  0  0  0  0  0  0  0  0  0  0
   27.4863  -17.1930  -17.6880 S   0  0  0  0  0  0  0  0  0  0  0  0
   28.3035  -18.3189  -16.5089 C   0  0  0  0  0  0  0  0  0  0  0  0
   27.2145  -19.0938  -15.8000 C   0  0  0  0  0  0  0  0  0  0  0  0
   27.7972  -20.1129  -14.8370 C   0  0  2  0  0  0  0  0  0  0  0  0
   28.3083  -21.1839  -15.7118 N   0  0  0  0  0  0  0  0  0  0  0  0
   26.7981  -20.6956  -13.9529 C   0  0  0  0  0  0  0  0  0  0  0  0
   26.0869  -21.6759  -14.3598 O   0  0  0  0  0  0  0  0  0  0  0  0
   25.0790  -21.7245   -8.4009 N   0  0  0  0  0  0  0  0  0  0  0  0
   24.5916  -20.9663   -9.4971 C   0  0  0  0  0  0  0  0  0  0  0  0
   23.3662  -20.8042   -9.6514 O   0  0  0  0  0  0  0  0  0  0  0  0
   25.5635  -20.3915  -10.4227 C   0  0  0  0  0  0  0  0  0  0  0  0
   25.3931  -20.8205  -11.8629 C   0  0  2  0  0  0  0  0  0  0  0  0
   26.4935  -20.2922  -12.6200 N   0  0  0  0  0  0  0  0  0  0  0  0
   24.0805  -20.2560  -12.3031 C   0  0  0  0  0  0  0  0  0  0  0  0
   23.9965  -19.0021  -12.3091 O   0  0  0  0  0  0  0  0  0  0  0  0
   22.9751  -21.0317  -12.6965 N   0  0  0  0  0  0  0  0  0  0  0  0
   21.7149  -20.4304  -13.1460 C   0  0  1  0  0  0  0  0  0  0  0  0
   21.9613  -19.4997  -14.3139 C   0  0  0  0  0  0  0  0  0  0  0  0
   22.2265  -20.2122  -15.5847 C   0  0  0  0  0  0  0  0  0  0  0  0
   23.4816  -20.1983  -16.1535 C   0  0  0  0  0  0  0  0  0  0  0  0
   23.7433  -20.8622  -17.3350 C   0  0  0  0  0  0  0  0  0  0  0  0
   22.7476  -21.5731  -17.9986 C   0  0  0  0  0  0  0  0  0  0  0  0
   21.4945  -21.5834  -17.4246 C   0  0  0  0  0  0  0  0  0  0  0  0
   21.2356  -20.9183  -16.2432 C   0  0  0  0  0  0  0  0  0  0  0  0
   20.7072  -21.4571  -13.4236 C   0  0  0  0  0  0  0  0  0  0  0  0
   20.9210  -22.8014  -13.4750 O   0  0  0  0  0  0  0  0  0  0  0  0
   19.5129  -21.0631  -13.6394 O   0  0  0  0  0  0  0  0  0  0  0  0
  1  2  1  0
  3  2  1  0
  4  3  1  0
  5  6  1  6
  5  4  1  0
  7  5  1  0
  8  7  2  0
  9 10  1  0
 10 12  1  0
 10 11  2  0
 13 12  1  1
 13 15  1  0
 13 14  1  0
 14  7  1  0
 15 16  2  0
 17 18  1  0
 17 15  1  0
 18 19  1  6
 20 19  1  0
 21 20  2  0
 22 21  1  0
 23 24  1  0
 23 22  2  0
 24 25  2  0
 25 20  1  0
 26 18  1  0
 27 26  1  0
 28 26  2  0
M  END
$$$$
