MNF.pdb
     RDKit          3D

 28 28  0  0  1  0  0  0  0  0999 V2000
   28.4714  -15.8392  -15.1890 C   0  0  0  0  0  0  0  0  0  0  0  0
   28.8050  -17.0712  -16.4912 S   0  0  0  0  0  0  0  0  0  0  0  0
   27.2751  -17.9627  -16.9276 C   0  0  0  0  0  0  0  0  0  0  0  0
   26.4178  -18.0190  -15.6823 C   0  0  0  0  0  0  0  0  0  0  0  0
   26.8600  -19.1377  -14.7557 C   0  0  2  0  0  0  0  0  0  0  0  0
   26.5013  -20.3697  -15.4817 N   0  0  0  0  0  0  0  0  0  0  0  0
   26.1451  -19.1413  -13.4874 C   0  0  0  0  0  0  0  0  0  0  0  0
   26.1062  -18.0785  -12.7793 O   0  0  0  0  0  0  0  0  0  0  0  0
   21.2759  -21.1862  -10.7549 N   0  0  0  0  0  0  0  0  0  0  0  0
   22.2394  -20.4600  -11.5021 C   0  0  0  0  0  0  0  0  0  0  0  0
   21.9715  -19.3216  -11.9311 O   0  0  0  0  0  0  0  0  0  0  0  0
   23.5360  -21.0855  -11.7453 C   0  0  0  0  0  0  0  0  0  0  0  0
   24.7157  -20.1423  -11.6674 C   0  0  2  0  0  0  0  0  0  0  0  0
   25.4455  -20.2361  -12.9010 N   0  0  0  0  0  0  0  0  0  0  0  0
   25.5245  -20.5979  -10.4954 C   0  0  0  0  0  0  0  0  0  0  0  0
   26.1075  -21.7035  -10.6273 O   0  0  0  0  0  0  0  0  0  0  0  0
   25.6597  -19.8761   -9.2958 N   0  0  0  0  0  0  0  0  0  0  0  0
   26.4998  -20.3449   -8.1885 C   0  0  1  0  0  0  0  0  0  0  0  0
   27.2545  -19.1869   -7.5718 C   0  0  0  0  0  0  0  0  0  0  0  0
   28.0027  -19.5599   -6.3496 C   0  0  0  0  0  0  0  0  0  0  0  0
   29.1919  -20.2513   -6.4329 C   0  0  0  0  0  0  0  0  0  0  0  0
   29.9016  -20.6008   -5.3017 C   0  0  0  0  0  0  0  0  0  0  0  0
   29.4427  -20.2674   -4.0308 C   0  0  0  0  0  0  0  0  0  0  0  0
   28.2528  -19.5758   -3.9541 C   0  0  0  0  0  0  0  0  0  0  0  0
   27.5452  -19.2279   -5.0868 C   0  0  0  0  0  0  0  0  0  0  0  0
   25.7162  -21.1116   -7.2165 C   0  0  0  0  0  0  0  0  0  0  0  0
   24.3593  -21.2294   -7.1904 O   0  0  0  0  0  0  0  0  0  0  0  0
   26.3579  -21.7305   -6.3037 O   0  0  0  0  0  0  0  0  0  0  0  0
  1  2  1  0
  3  2  1  0
  4  3  1  0
  5  6  1  6
  5  4  1  0
  7  5  1  0
  8  7  2  0
  9 10  1  0
 10 12  1  0
 10 11  2  0
 13 12  1  6
 13 15  1  0
 13 14  1  0
 14  7  1  0
 15 16  2  0
 17 18  1  0
 17 15  1  0
 18 19  1  1
 20 19  1  0
 21 20  2  0
 22 21  1  0
 23 24  1  0
 23 22  2  0
 24 25  2  0
 25 20  1  0
 26 18  1  0
 27 26  1  0
 28 26  2  0
M  END
$$$$
