MNF.pdb
     RDKit          3D

 28 28  0  0  1  0  0  0  0  0999 V2000
   12.0917  -16.1965    5.2333 C   0  0  0  0  0  0  0  0  0  0  0  0
   12.1991  -14.7619    6.3534 S   0  0  0  0  0  0  0  0  0  0  0  0
   13.2590  -13.4680    5.6268 C   0  0  0  0  0  0  0  0  0  0  0  0
   14.6955  -13.8711    5.8782 C   0  0  0  0  0  0  0  0  0  0  0  0
   15.6651  -12.8979    5.2313 C   0  0  2  0  0  0  0  0  0  0  0  0
   15.4771  -13.1104    3.7846 N   0  0  0  0  0  0  0  0  0  0  0  0
   17.0563  -13.1860    5.5491 C   0  0  0  0  0  0  0  0  0  0  0  0
   17.7048  -14.0319    4.8446 O   0  0  0  0  0  0  0  0  0  0  0  0
   21.9160  -11.1152    8.6868 N   0  0  0  0  0  0  0  0  0  0  0  0
   21.3083  -11.7124    7.5519 C   0  0  0  0  0  0  0  0  0  0  0  0
   22.0105  -12.2561    6.6784 O   0  0  0  0  0  0  0  0  0  0  0  0
   19.8527  -11.6678    7.4472 C   0  0  0  0  0  0  0  0  0  0  0  0
   19.2305  -12.8787    6.7885 C   0  0  2  0  0  0  0  0  0  0  0  0
   17.8307  -12.6163    6.6016 N   0  0  0  0  0  0  0  0  0  0  0  0
   19.4723  -14.0201    7.7237 C   0  0  0  0  0  0  0  0  0  0  0  0
   18.6275  -14.1650    8.6428 O   0  0  0  0  0  0  0  0  0  0  0  0
   20.5596  -14.9071    7.6285 N   0  0  0  0  0  0  0  0  0  0  0  0
   20.7238  -16.0472    8.5368 C   0  0  1  0  0  0  0  0  0  0  0  0
   21.0377  -17.3042    7.7543 C   0  0  0  0  0  0  0  0  0  0  0  0
   19.8460  -17.9109    7.1180 C   0  0  0  0  0  0  0  0  0  0  0  0
   18.9560  -18.6607    7.8559 C   0  0  0  0  0  0  0  0  0  0  0  0
   17.8390  -19.2275    7.2761 C   0  0  0  0  0  0  0  0  0  0  0  0
   17.5677  -19.0629    5.9209 C   0  0  0  0  0  0  0  0  0  0  0  0
   18.4615  -18.3117    5.1883 C   0  0  0  0  0  0  0  0  0  0  0  0
   19.5778  -17.7463    5.7707 C   0  0  0  0  0  0  0  0  0  0  0  0
   21.7061  -15.7537    9.5835 C   0  0  0  0  0  0  0  0  0  0  0  0
   21.6838  -16.2227   10.8623 O   0  0  0  0  0  0  0  0  0  0  0  0
   22.6781  -14.9862    9.2766 O   0  0  0  0  0  0  0  0  0  0  0  0
  1  2  1  0
  3  2  1  0
  4  3  1  0
  5  6  1  6
  5  4  1  0
  7  5  1  0
  8  7  2  0
  9 10  1  0
 10 12  1  0
 10 11  2  0
 13 12  1  1
 13 15  1  0
 13 14  1  0
 14  7  1  0
 15 16  2  0
 17 18  1  0
 17 15  1  0
 18 19  1  6
 20 19  1  0
 21 20  2  0
 22 21  1  0
 23 24  1  0
 23 22  2  0
 24 25  2  0
 25 20  1  0
 26 18  1  0
 27 26  1  0
 28 26  2  0
M  END
$$$$
