MNF.pdb
     RDKit          3D

 28 28  0  0  1  0  0  0  0  0999 V2000
   15.1944  -15.0727  -14.4987 C   0  0  0  0  0  0  0  0  0  0  0  0
   16.4555  -13.9540  -15.1933 S   0  0  0  0  0  0  0  0  0  0  0  0
   15.7411  -12.3039  -15.4974 C   0  0  0  0  0  0  0  0  0  0  0  0
   16.8519  -11.4251  -16.0294 C   0  0  0  0  0  0  0  0  0  0  0  0
   16.3587  -10.0160  -16.3066 C   0  0  2  0  0  0  0  0  0  0  0  0
   15.4542  -10.1715  -17.4603 N   0  0  0  0  0  0  0  0  0  0  0  0
   17.4267   -9.1060  -16.6945 C   0  0  0  0  0  0  0  0  0  0  0  0
   17.8302   -9.0830  -17.9065 O   0  0  0  0  0  0  0  0  0  0  0  0
   16.7921   -4.5728  -15.6276 N   0  0  0  0  0  0  0  0  0  0  0  0
   17.7586   -5.2214  -16.4395 C   0  0  0  0  0  0  0  0  0  0  0  0
   17.6587   -5.1875  -17.6807 O   0  0  0  0  0  0  0  0  0  0  0  0
   18.8576   -5.9182  -15.7775 C   0  0  0  0  0  0  0  0  0  0  0  0
   19.1461   -7.3000  -16.3202 C   0  0  2  0  0  0  0  0  0  0  0  0
   18.1188   -8.1879  -15.8517 N   0  0  0  0  0  0  0  0  0  0  0  0
   20.4963   -7.6698  -15.7952 C   0  0  0  0  0  0  0  0  0  0  0  0
   20.5851   -7.7938  -14.5477 O   0  0  0  0  0  0  0  0  0  0  0  0
   21.6309   -7.8781  -16.6000 N   0  0  0  0  0  0  0  0  0  0  0  0
   22.9441   -8.2064  -16.0348 C   0  0  1  0  0  0  0  0  0  0  0  0
   23.4060   -9.5615  -16.5261 C   0  0  0  0  0  0  0  0  0  0  0  0
   24.7996   -9.8805  -16.1401 C   0  0  0  0  0  0  0  0  0  0  0  0
   25.8476   -9.6143  -16.9943 C   0  0  0  0  0  0  0  0  0  0  0  0
   27.1515   -9.9023  -16.6448 C   0  0  0  0  0  0  0  0  0  0  0  0
   27.4587  -10.4735  -15.4134 C   0  0  0  0  0  0  0  0  0  0  0  0
   26.4062  -10.7371  -14.5633 C   0  0  0  0  0  0  0  0  0  0  0  0
   25.1033  -10.4484  -14.9156 C   0  0  0  0  0  0  0  0  0  0  0  0
   23.9122   -7.1359  -16.2868 C   0  0  0  0  0  0  0  0  0  0  0  0
   24.9289   -6.7599  -15.4619 O   0  0  0  0  0  0  0  0  0  0  0  0
   23.7991   -6.4888  -17.3806 O   0  0  0  0  0  0  0  0  0  0  0  0
  1  2  1  0
  3  2  1  0
  4  3  1  0
  5  6  1  6
  5  4  1  0
  7  5  1  0
  8  7  2  0
  9 10  1  0
 10 12  1  0
 10 11  2  0
 13 12  1  1
 13 15  1  0
 13 14  1  0
 14  7  1  0
 15 16  2  0
 17 18  1  0
 17 15  1  0
 18 19  1  6
 20 19  1  0
 21 20  2  0
 22 21  1  0
 23 24  1  0
 23 22  2  0
 24 25  2  0
 25 20  1  0
 26 18  1  0
 27 26  1  0
 28 26  2  0
M  END
$$$$
