MNF.pdb
     RDKit          3D

 28 28  0  0  1  0  0  0  0  0999 V2000
   31.8195  -22.4753   -9.9691 C   0  0  0  0  0  0  0  0  0  0  0  0
   30.3043  -21.8234  -10.7460 S   0  0  0  0  0  0  0  0  0  0  0  0
   30.6313  -20.2001  -11.5100 C   0  0  0  0  0  0  0  0  0  0  0  0
   29.3274  -19.7121  -12.1022 C   0  0  0  0  0  0  0  0  0  0  0  0
   28.9198  -20.5441  -13.3052 C   0  0  2  0  0  0  0  0  0  0  0  0
   29.9726  -20.2760  -14.3018 N   0  0  0  0  0  0  0  0  0  0  0  0
   27.6464  -20.1307  -13.8770 C   0  0  0  0  0  0  0  0  0  0  0  0
   27.4770  -18.9158  -14.2341 O   0  0  0  0  0  0  0  0  0  0  0  0
   26.6203  -19.6425  -16.9183 N   0  0  0  0  0  0  0  0  0  0  0  0
   25.8131  -20.8015  -17.0568 C   0  0  0  0  0  0  0  0  0  0  0  0
   25.8263  -21.4509  -18.1198 O   0  0  0  0  0  0  0  0  0  0  0  0
   24.9802  -21.1994  -15.9256 C   0  0  0  0  0  0  0  0  0  0  0  0
   25.2652  -20.4553  -14.6402 C   0  0  2  0  0  0  0  0  0  0  0  0
   26.5016  -20.9499  -14.1018 N   0  0  0  0  0  0  0  0  0  0  0  0
   24.1040  -20.7363  -13.7412 C   0  0  0  0  0  0  0  0  0  0  0  0
   24.0573  -21.8921  -13.2498 O   0  0  0  0  0  0  0  0  0  0  0  0
   23.0977  -19.8042  -13.4299 N   0  0  0  0  0  0  0  0  0  0  0  0
   21.9378  -20.1494  -12.6010 C   0  0  1  0  0  0  0  0  0  0  0  0
   21.4053  -18.9182  -11.8998 C   0  0  0  0  0  0  0  0  0  0  0  0
   20.1672  -19.1731  -11.1285 C   0  0  0  0  0  0  0  0  0  0  0  0
   20.2257  -19.6284   -9.8291 C   0  0  0  0  0  0  0  0  0  0  0  0
   19.0794  -19.8652   -9.0976 C   0  0  0  0  0  0  0  0  0  0  0  0
   17.8176  -19.6525   -9.6451 C   0  0  0  0  0  0  0  0  0  0  0  0
   17.7657  -19.1969  -10.9450 C   0  0  0  0  0  0  0  0  0  0  0  0
   18.9136  -18.9612  -11.6742 C   0  0  0  0  0  0  0  0  0  0  0  0
   20.9211  -20.8591  -13.3815 C   0  0  0  0  0  0  0  0  0  0  0  0
   20.1205  -21.8661  -12.9334 O   0  0  0  0  0  0  0  0  0  0  0  0
   20.7643  -20.5070  -14.5978 O   0  0  0  0  0  0  0  0  0  0  0  0
  1  2  1  0
  3  2  1  0
  4  3  1  0
  5  6  1  6
  5  4  1  0
  7  5  1  0
  8  7  2  0
  9 10  1  0
 10 12  1  0
 10 11  2  0
 13 12  1  6
 13 15  1  0
 13 14  1  0
 14  7  1  0
 15 16  2  0
 17 18  1  0
 17 15  1  0
 18 19  1  6
 20 19  1  0
 21 20  2  0
 22 21  1  0
 23 24  1  0
 23 22  2  0
 24 25  2  0
 25 20  1  0
 26 18  1  0
 27 26  1  0
 28 26  2  0
M  END
$$$$
