MNF.pdb
     RDKit          3D

 28 28  0  0  1  0  0  0  0  0999 V2000
   16.8521  -13.8142  -13.7869 C   0  0  0  0  0  0  0  0  0  0  0  0
   16.1477  -13.9614  -15.4622 S   0  0  0  0  0  0  0  0  0  0  0  0
   16.9584  -12.7859  -16.5965 C   0  0  0  0  0  0  0  0  0  0  0  0
   17.8711  -11.9141  -15.7622 C   0  0  0  0  0  0  0  0  0  0  0  0
   18.5575  -10.8590  -16.6115 C   0  0  2  0  0  0  0  0  0  0  0  0
   19.0897  -11.6125  -17.7614 N   0  0  0  0  0  0  0  0  0  0  0  0
   19.6793  -10.2253  -15.9336 C   0  0  0  0  0  0  0  0  0  0  0  0
   19.6074   -9.9825  -14.6813 O   0  0  0  0  0  0  0  0  0  0  0  0
   23.3773  -11.5192  -15.6584 N   0  0  0  0  0  0  0  0  0  0  0  0
   23.9465  -10.5060  -16.4728 C   0  0  0  0  0  0  0  0  0  0  0  0
   25.0274  -10.7064  -17.0587 O   0  0  0  0  0  0  0  0  0  0  0  0
   23.2300   -9.2400  -16.5979 C   0  0  0  0  0  0  0  0  0  0  0  0
   21.9567   -9.1533  -15.7863 C   0  0  2  0  0  0  0  0  0  0  0  0
   20.9142   -9.8177  -16.5176 N   0  0  0  0  0  0  0  0  0  0  0  0
   21.6838   -7.6936  -15.6121 C   0  0  0  0  0  0  0  0  0  0  0  0
   21.2630   -7.0885  -16.6301 O   0  0  0  0  0  0  0  0  0  0  0  0
   21.8684   -6.9899  -14.4083 N   0  0  0  0  0  0  0  0  0  0  0  0
   21.3861   -5.6175  -14.2199 C   0  0  1  0  0  0  0  0  0  0  0  0
   19.8756   -5.5972  -14.1267 C   0  0  0  0  0  0  0  0  0  0  0  0
   19.3601   -6.1440  -12.8507 C   0  0  0  0  0  0  0  0  0  0  0  0
   18.9771   -7.4640  -12.7514 C   0  0  0  0  0  0  0  0  0  0  0  0
   18.4997   -7.9874  -11.5668 C   0  0  0  0  0  0  0  0  0  0  0  0
   18.3866   -7.2005  -10.4244 C   0  0  0  0  0  0  0  0  0  0  0  0
   18.7714   -5.8811  -10.5300 C   0  0  0  0  0  0  0  0  0  0  0  0
   19.2482   -5.3604  -11.7160 C   0  0  0  0  0  0  0  0  0  0  0  0
   22.0473   -4.9751  -13.0811 C   0  0  0  0  0  0  0  0  0  0  0  0
   22.8935   -5.5755  -12.1984 O   0  0  0  0  0  0  0  0  0  0  0  0
   21.8134   -3.7354  -12.8905 O   0  0  0  0  0  0  0  0  0  0  0  0
  1  2  1  0
  3  2  1  0
  4  3  1  0
  5  6  1  6
  5  4  1  0
  7  5  1  0
  8  7  2  0
  9 10  1  0
 10 12  1  0
 10 11  2  0
 13 12  1  6
 13 15  1  0
 13 14  1  0
 14  7  1  0
 15 16  2  0
 17 18  1  0
 17 15  1  0
 18 19  1  1
 20 19  1  0
 21 20  2  0
 22 21  1  0
 23 24  1  0
 23 22  2  0
 24 25  2  0
 25 20  1  0
 26 18  1  0
 27 26  1  0
 28 26  2  0
M  END
$$$$
