MNF.pdb
     RDKit          3D

 28 28  0  0  1  0  0  0  0  0999 V2000
   29.4092  -17.8699  -14.8368 C   0  0  0  0  0  0  0  0  0  0  0  0
   28.8696  -18.3354  -16.5151 S   0  0  0  0  0  0  0  0  0  0  0  0
   27.1863  -17.7114  -16.8358 C   0  0  0  0  0  0  0  0  0  0  0  0
   26.4719  -17.6425  -15.5039 C   0  0  0  0  0  0  0  0  0  0  0  0
   25.6413  -18.8892  -15.2559 C   0  0  2  0  0  0  0  0  0  0  0  0
   24.5333  -18.7820  -16.2225 N   0  0  0  0  0  0  0  0  0  0  0  0
   25.0666  -18.9325  -13.9190 C   0  0  0  0  0  0  0  0  0  0  0  0
   24.8011  -17.8422  -13.3081 O   0  0  0  0  0  0  0  0  0  0  0  0
   22.0248  -19.8171   -9.9004 N   0  0  0  0  0  0  0  0  0  0  0  0
   22.3037  -21.0602  -10.5257 C   0  0  0  0  0  0  0  0  0  0  0  0
   21.9249  -22.1245  -10.0008 O   0  0  0  0  0  0  0  0  0  0  0  0
   23.0383  -21.0464  -11.7873 C   0  0  0  0  0  0  0  0  0  0  0  0
   24.1778  -20.0535  -11.8427 C   0  0  2  0  0  0  0  0  0  0  0  0
   24.7447  -20.0966  -13.1618 N   0  0  0  0  0  0  0  0  0  0  0  0
   25.1501  -20.4909  -10.7944 C   0  0  0  0  0  0  0  0  0  0  0  0
   25.7180  -21.5933  -10.9982 O   0  0  0  0  0  0  0  0  0  0  0  0
   25.4493  -19.7555   -9.6334 N   0  0  0  0  0  0  0  0  0  0  0  0
   26.3142  -20.2823   -8.5722 C   0  0  1  0  0  0  0  0  0  0  0  0
   26.9837  -19.1485   -7.8257 C   0  0  0  0  0  0  0  0  0  0  0  0
   27.7780  -19.6023   -6.6613 C   0  0  0  0  0  0  0  0  0  0  0  0
   28.8756  -20.4183   -6.8299 C   0  0  0  0  0  0  0  0  0  0  0  0
   29.6273  -20.8444   -5.7535 C   0  0  0  0  0  0  0  0  0  0  0  0
   29.3052  -20.4653   -4.4537 C   0  0  0  0  0  0  0  0  0  0  0  0
   28.2065  -19.6490   -4.2916 C   0  0  0  0  0  0  0  0  0  0  0  0
   27.4565  -19.2246   -5.3698 C   0  0  0  0  0  0  0  0  0  0  0  0
   25.5806  -21.2007   -7.6976 C   0  0  0  0  0  0  0  0  0  0  0  0
   24.3344  -21.0008   -7.1850 O   0  0  0  0  0  0  0  0  0  0  0  0
   26.1567  -22.2942   -7.3806 O   0  0  0  0  0  0  0  0  0  0  0  0
  1  2  1  0
  3  2  1  0
  4  3  1  0
  5  6  1  6
  5  4  1  0
  7  5  1  0
  8  7  2  0
  9 10  1  0
 10 12  1  0
 10 11  2  0
 13 12  1  6
 13 15  1  0
 13 14  1  0
 14  7  1  0
 15 16  2  0
 17 18  1  0
 17 15  1  0
 18 19  1  1
 20 19  1  0
 21 20  2  0
 22 21  1  0
 23 24  1  0
 23 22  2  0
 24 25  2  0
 25 20  1  0
 26 18  1  0
 27 26  1  0
 28 26  2  0
M  END
$$$$
