MNF.pdb
     RDKit          3D

 28 28  0  0  1  0  0  0  0  0999 V2000
   17.6113  -24.1932    2.8866 C   0  0  0  0  0  0  0  0  0  0  0  0
   16.0355  -24.6360    2.0833 S   0  0  0  0  0  0  0  0  0  0  0  0
   15.8415  -23.7189    0.5190 C   0  0  0  0  0  0  0  0  0  0  0  0
   15.6732  -22.2577    0.8735 C   0  0  0  0  0  0  0  0  0  0  0  0
   14.2493  -21.9527    1.3037 C   0  0  2  0  0  0  0  0  0  0  0  0
   13.5123  -21.8102    0.0348 N   0  0  0  0  0  0  0  0  0  0  0  0
   14.1322  -20.6980    2.0327 C   0  0  0  0  0  0  0  0  0  0  0  0
   13.9692  -19.6054    1.3909 O   0  0  0  0  0  0  0  0  0  0  0  0
   12.7796  -18.5706    7.6687 N   0  0  0  0  0  0  0  0  0  0  0  0
   13.1472  -18.3838    6.3108 C   0  0  0  0  0  0  0  0  0  0  0  0
   13.1335  -17.2437    5.8091 O   0  0  0  0  0  0  0  0  0  0  0  0
   13.5368  -19.5580    5.5354 C   0  0  0  0  0  0  0  0  0  0  0  0
   13.9100  -19.2694    4.0985 C   0  0  2  0  0  0  0  0  0  0  0  0
   14.1789  -20.5206    3.4464 N   0  0  0  0  0  0  0  0  0  0  0  0
   15.1191  -18.3921    4.1603 C   0  0  0  0  0  0  0  0  0  0  0  0
   16.2067  -18.9727    4.4045 O   0  0  0  0  0  0  0  0  0  0  0  0
   15.0997  -16.9992    3.9656 N   0  0  0  0  0  0  0  0  0  0  0  0
   16.3085  -16.1752    4.0721 C   0  0  1  0  0  0  0  0  0  0  0  0
   16.1901  -14.9485    3.1934 C   0  0  0  0  0  0  0  0  0  0  0  0
   17.4087  -14.1072    3.1948 C   0  0  0  0  0  0  0  0  0  0  0  0
   17.4139  -12.8728    3.8072 C   0  0  0  0  0  0  0  0  0  0  0  0
   18.5444  -12.0809    3.8199 C   0  0  0  0  0  0  0  0  0  0  0  0
   19.7251  -12.4996    3.2136 C   0  0  0  0  0  0  0  0  0  0  0  0
   19.7136  -13.7353    2.6029 C   0  0  0  0  0  0  0  0  0  0  0  0
   18.5816  -14.5249    2.5916 C   0  0  0  0  0  0  0  0  0  0  0  0
   16.6145  -15.8613    5.4702 C   0  0  0  0  0  0  0  0  0  0  0  0
   15.8140  -15.1782    6.3353 O   0  0  0  0  0  0  0  0  0  0  0  0
   17.7356  -16.2617    5.9291 O   0  0  0  0  0  0  0  0  0  0  0  0
  1  2  1  0
  3  2  1  0
  4  3  1  0
  5  6  1  6
  5  4  1  0
  7  5  1  0
  8  7  2  0
  9 10  1  0
 10 12  1  0
 10 11  2  0
 13 12  1  1
 13 15  1  0
 13 14  1  0
 14  7  1  0
 15 16  2  0
 17 18  1  0
 17 15  1  0
 18 19  1  6
 20 19  1  0
 21 20  2  0
 22 21  1  0
 23 24  1  0
 23 22  2  0
 24 25  2  0
 25 20  1  0
 26 18  1  0
 27 26  1  0
 28 26  2  0
M  END
$$$$
