MNF.pdb
     RDKit          3D

 28 28  0  0  1  0  0  0  0  0999 V2000
   21.5678   -4.5575  -13.8117 C   0  0  0  0  0  0  0  0  0  0  0  0
   22.7110   -5.9734  -13.6981 S   0  0  0  0  0  0  0  0  0  0  0  0
   23.2754   -6.4677  -15.3602 C   0  0  0  0  0  0  0  0  0  0  0  0
   22.0567   -6.9283  -16.1294 C   0  0  0  0  0  0  0  0  0  0  0  0
   21.7319   -8.3818  -15.8338 C   0  0  2  0  0  0  0  0  0  0  0  0
   22.8510   -9.1303  -16.4346 N   0  0  0  0  0  0  0  0  0  0  0  0
   20.5012   -8.8298  -16.4694 C   0  0  0  0  0  0  0  0  0  0  0  0
   20.5563   -9.4857  -17.5645 O   0  0  0  0  0  0  0  0  0  0  0  0
   18.4662  -11.1247  -18.5672 N   0  0  0  0  0  0  0  0  0  0  0  0
   18.4181  -11.6824  -17.2631 C   0  0  0  0  0  0  0  0  0  0  0  0
   18.5854  -12.9058  -17.0982 O   0  0  0  0  0  0  0  0  0  0  0  0
   18.1702  -10.7842  -16.1391 C   0  0  0  0  0  0  0  0  0  0  0  0
   18.0296   -9.3263  -16.5160 C   0  0  2  0  0  0  0  0  0  0  0  0
   19.1704   -8.6199  -16.0036 N   0  0  0  0  0  0  0  0  0  0  0  0
   16.7515   -8.8659  -15.8915 C   0  0  0  0  0  0  0  0  0  0  0  0
   16.6739   -8.9915  -14.6434 O   0  0  0  0  0  0  0  0  0  0  0  0
   15.6708   -8.3190  -16.6066 N   0  0  0  0  0  0  0  0  0  0  0  0
   14.4582   -7.8291  -15.9425 C   0  0  1  0  0  0  0  0  0  0  0  0
   13.9496   -6.5791  -16.6278 C   0  0  0  0  0  0  0  0  0  0  0  0
   12.6889   -6.0640  -16.0463 C   0  0  0  0  0  0  0  0  0  0  0  0
   12.7042   -5.0522  -15.1109 C   0  0  0  0  0  0  0  0  0  0  0  0
   11.5361   -4.5597  -14.5648 C   0  0  0  0  0  0  0  0  0  0  0  0
   10.2952   -5.0670  -14.9388 C   0  0  0  0  0  0  0  0  0  0  0  0
   10.2865   -6.0787  -15.8749 C   0  0  0  0  0  0  0  0  0  0  0  0
   11.4561   -6.5693  -16.4191 C   0  0  0  0  0  0  0  0  0  0  0  0
   13.4484   -8.8854  -15.8364 C   0  0  0  0  0  0  0  0  0  0  0  0
   12.5312   -9.0246  -14.8389 O   0  0  0  0  0  0  0  0  0  0  0  0
   13.4186   -9.7630  -16.7622 O   0  0  0  0  0  0  0  0  0  0  0  0
  1  2  1  0
  3  2  1  0
  4  3  1  0
  5  6  1  6
  5  4  1  0
  7  5  1  0
  8  7  2  0
  9 10  1  0
 10 12  1  0
 10 11  2  0
 13 12  1  1
 13 15  1  0
 13 14  1  0
 14  7  1  0
 15 16  2  0
 17 18  1  0
 17 15  1  0
 18 19  1  6
 20 19  1  0
 21 20  2  0
 22 21  1  0
 23 24  1  0
 23 22  2  0
 24 25  2  0
 25 20  1  0
 26 18  1  0
 27 26  1  0
 28 26  2  0
M  END
$$$$
