MNF.pdb
     RDKit          3D

 28 28  0  0  1  0  0  0  0  0999 V2000
   30.0148  -22.1651  -13.4861 C   0  0  0  0  0  0  0  0  0  0  0  0
   29.5936  -22.7189  -15.1715 S   0  0  0  0  0  0  0  0  0  0  0  0
   28.4349  -21.5475  -15.9530 C   0  0  0  0  0  0  0  0  0  0  0  0
   27.9585  -20.6001  -14.8737 C   0  0  0  0  0  0  0  0  0  0  0  0
   26.4718  -20.3189  -15.0005 C   0  0  2  0  0  0  0  0  0  0  0  0
   26.4034  -19.1235  -15.8606 N   0  0  0  0  0  0  0  0  0  0  0  0
   25.8447  -19.9914  -13.7281 C   0  0  0  0  0  0  0  0  0  0  0  0
   25.7989  -18.7753  -13.3391 O   0  0  0  0  0  0  0  0  0  0  0  0
   21.5553  -19.6718  -11.8154 N   0  0  0  0  0  0  0  0  0  0  0  0
   22.2367  -20.8542  -12.2045 C   0  0  0  0  0  0  0  0  0  0  0  0
   21.8715  -21.4841  -13.2153 O   0  0  0  0  0  0  0  0  0  0  0  0
   23.3643  -21.2984  -11.3904 C   0  0  0  0  0  0  0  0  0  0  0  0
   24.6315  -20.4939  -11.5756 C   0  0  2  0  0  0  0  0  0  0  0  0
   25.2431  -20.9008  -12.8100 N   0  0  0  0  0  0  0  0  0  0  0  0
   25.4880  -20.8048  -10.3902 C   0  0  0  0  0  0  0  0  0  0  0  0
   25.7683  -22.0179  -10.2186 O   0  0  0  0  0  0  0  0  0  0  0  0
   25.9775  -19.8411   -9.4902 N   0  0  0  0  0  0  0  0  0  0  0  0
   26.6989  -20.2056   -8.2662 C   0  0  1  0  0  0  0  0  0  0  0  0
   27.3709  -18.9886   -7.6675 C   0  0  0  0  0  0  0  0  0  0  0  0
   28.0580  -19.2699   -6.3863 C   0  0  0  0  0  0  0  0  0  0  0  0
   27.5521  -18.7972   -5.1949 C   0  0  0  0  0  0  0  0  0  0  0  0
   28.1801  -19.0563   -3.9934 C   0  0  0  0  0  0  0  0  0  0  0  0
   29.3509  -19.8068   -3.9387 C   0  0  0  0  0  0  0  0  0  0  0  0
   29.8519  -20.2770   -5.1337 C   0  0  0  0  0  0  0  0  0  0  0  0
   29.2219  -20.0161   -6.3337 C   0  0  0  0  0  0  0  0  0  0  0  0
   25.8236  -20.9083   -7.3245 C   0  0  0  0  0  0  0  0  0  0  0  0
   24.5051  -20.6472   -7.1032 O   0  0  0  0  0  0  0  0  0  0  0  0
   26.3374  -21.8563   -6.6423 O   0  0  0  0  0  0  0  0  0  0  0  0
  1  2  1  0
  3  2  1  0
  4  3  1  0
  5  6  1  6
  5  4  1  0
  7  5  1  0
  8  7  2  0
  9 10  1  0
 10 12  1  0
 10 11  2  0
 13 12  1  1
 13 15  1  0
 13 14  1  0
 14  7  1  0
 15 16  2  0
 17 18  1  0
 17 15  1  0
 18 19  1  1
 20 19  1  0
 21 20  2  0
 22 21  1  0
 23 24  1  0
 23 22  2  0
 24 25  2  0
 25 20  1  0
 26 18  1  0
 27 26  1  0
 28 26  2  0
M  END
$$$$
