MNF.pdb
     RDKit          3D

 28 28  0  0  1  0  0  0  0  0999 V2000
   36.5018  -13.5390  -10.5133 C   0  0  0  0  0  0  0  0  0  0  0  0
   38.0342  -12.6188  -10.1536 S   0  0  0  0  0  0  0  0  0  0  0  0
   39.2334  -13.6938   -9.2980 C   0  0  0  0  0  0  0  0  0  0  0  0
   39.6922  -12.9569   -8.0588 C   0  0  0  0  0  0  0  0  0  0  0  0
   40.1147  -11.5353   -8.3845 C   0  0  2  0  0  0  0  0  0  0  0  0
   41.1824  -11.6979   -9.3881 N   0  0  0  0  0  0  0  0  0  0  0  0
   40.6788  -10.8338   -7.2404 C   0  0  0  0  0  0  0  0  0  0  0  0
   40.0535  -10.8337   -6.1263 O   0  0  0  0  0  0  0  0  0  0  0  0
   44.8538  -10.5978   -4.5962 N   0  0  0  0  0  0  0  0  0  0  0  0
   44.5473  -10.2436   -5.9358 C   0  0  0  0  0  0  0  0  0  0  0  0
   44.9381  -10.9585   -6.8781 O   0  0  0  0  0  0  0  0  0  0  0  0
   43.7685   -9.0302   -6.1658 C   0  0  0  0  0  0  0  0  0  0  0  0
   42.2694   -9.2259   -6.1257 C   0  0  2  0  0  0  0  0  0  0  0  0
   41.9046  -10.1071   -7.1997 N   0  0  0  0  0  0  0  0  0  0  0  0
   41.6765   -7.8627   -6.2859 C   0  0  0  0  0  0  0  0  0  0  0  0
   41.5419   -7.4582   -7.4682 O   0  0  0  0  0  0  0  0  0  0  0  0
   41.2767   -7.0406   -5.2170 N   0  0  0  0  0  0  0  0  0  0  0  0
   40.6396   -5.7360   -5.4263 C   0  0  1  0  0  0  0  0  0  0  0  0
   39.1396   -5.8483   -5.2582 C   0  0  0  0  0  0  0  0  0  0  0  0
   38.4310   -4.5621   -5.4487 C   0  0  0  0  0  0  0  0  0  0  0  0
   38.3140   -3.6601   -4.4135 C   0  0  0  0  0  0  0  0  0  0  0  0
   37.6603   -2.4557   -4.5792 C   0  0  0  0  0  0  0  0  0  0  0  0
   37.0933   -2.1050   -5.8009 C   0  0  0  0  0  0  0  0  0  0  0  0
   37.2139   -3.0112   -6.8325 C   0  0  0  0  0  0  0  0  0  0  0  0
   37.8679   -4.2149   -6.6638 C   0  0  0  0  0  0  0  0  0  0  0  0
   41.2445   -4.7082   -4.5752 C   0  0  0  0  0  0  0  0  0  0  0  0
   41.8390   -4.9118   -3.3665 O   0  0  0  0  0  0  0  0  0  0  0  0
   41.2157   -3.5049   -4.9987 O   0  0  0  0  0  0  0  0  0  0  0  0
  1  2  1  0
  3  2  1  0
  4  3  1  0
  5  6  1  6
  5  4  1  0
  7  5  1  0
  8  7  2  0
  9 10  1  0
 10 12  1  0
 10 11  2  0
 13 12  1  6
 13 15  1  0
 13 14  1  0
 14  7  1  0
 15 16  2  0
 17 18  1  0
 17 15  1  0
 18 19  1  1
 20 19  1  0
 21 20  2  0
 22 21  1  0
 23 24  1  0
 23 22  2  0
 24 25  2  0
 25 20  1  0
 26 18  1  0
 27 26  1  0
 28 26  2  0
M  END
$$$$
