LCG.pdb
     RDKit          3D

 19 18  0  0  1  0  0  0  0  0999 V2000
   28.0894  -17.4767  -17.4899 C   0  0  0  0  0  0  0  0  0  0  0  0
   27.1492  -17.2794  -16.3452 C   0  0  2  0  0  0  0  0  0  0  0  0
   27.8339  -16.7363  -15.1205 C   0  0  0  0  0  0  0  0  0  0  0  0
   26.4063  -18.5744  -16.0077 C   0  0  0  0  0  0  0  0  0  0  0  0
   27.4291  -19.4719  -15.2970 C   0  0  2  0  0  0  0  0  0  0  0  0
   28.1025  -20.3103  -16.2488 N   0  0  0  0  0  0  0  0  0  0  0  0
   26.6497  -20.3126  -14.3556 C   0  0  0  0  0  0  0  0  0  0  0  0
   25.9850  -21.2882  -14.8106 O   0  0  0  0  0  0  0  0  0  0  0  0
   26.5855  -20.1123  -12.9678 N   0  0  0  0  0  0  0  0  0  0  0  0
   25.6667  -20.7872  -12.1059 C   0  0  1  0  0  0  0  0  0  0  0  0
   25.9865  -20.6446  -10.6414 C   0  0  0  0  0  0  0  0  0  0  0  0
   24.5839  -21.1055   -9.5968 S   0  0  0  0  0  0  0  0  0  0  0  0
   24.2577  -20.4130  -12.3421 C   0  0  0  0  0  0  0  0  0  0  0  0
   23.9418  -19.2039  -12.1995 O   0  0  0  0  0  0  0  0  0  0  0  0
   23.2623  -21.3480  -12.7172 N   0  0  0  0  0  0  0  0  0  0  0  0
   21.9324  -20.9635  -13.1264 C   0  0  0  0  0  0  0  0  0  0  0  0
   20.9589  -21.4101  -12.0893 C   0  0  0  0  0  0  0  0  0  0  0  0
   19.8628  -22.1704  -12.3957 O   0  0  0  0  0  0  0  0  0  0  0  0
   21.1396  -21.0827  -10.8827 O   0  0  0  0  0  0  0  0  0  0  0  0
  2  1  1  6
  3  2  1  0
  4  2  1  0
  4  5  1  0
  5  6  1  6
  7  5  1  0
  7  8  2  0
  9  7  1  0
 10  9  1  0
 10 13  1  0
 10 11  1  1
 12 11  1  0
 13 14  2  0
 13 15  1  0
 15 16  1  0
 17 18  1  0
 17 16  1  0
 19 17  2  0
M  END
$$$$
