LCG.pdb
     RDKit          3D

 19 18  0  0  1  0  0  0  0  0999 V2000
   26.4214  -24.0231  -16.0643 C   0  0  0  0  0  0  0  0  0  0  0  0
   25.2342  -24.5888  -16.7740 C   0  0  2  0  0  0  0  0  0  0  0  0
   24.0469  -24.7649  -15.8668 C   0  0  0  0  0  0  0  0  0  0  0  0
   25.5776  -25.9124  -17.4619 C   0  0  0  0  0  0  0  0  0  0  0  0
   26.7653  -25.6091  -18.3861 C   0  0  2  0  0  0  0  0  0  0  0  0
   26.3296  -24.8494  -19.5242 N   0  0  0  0  0  0  0  0  0  0  0  0
   27.2809  -26.9261  -18.8335 C   0  0  0  0  0  0  0  0  0  0  0  0
   26.6120  -27.5929  -19.6753 O   0  0  0  0  0  0  0  0  0  0  0  0
   28.4781  -27.5099  -18.3908 N   0  0  0  0  0  0  0  0  0  0  0  0
   28.9445  -28.7927  -18.8143 C   0  0  1  0  0  0  0  0  0  0  0  0
   30.2548  -28.7516  -19.5551 C   0  0  0  0  0  0  0  0  0  0  0  0
   30.1531  -27.7381  -21.0496 S   0  0  0  0  0  0  0  0  0  0  0  0
   29.0285  -29.7780  -17.7173 C   0  0  0  0  0  0  0  0  0  0  0  0
   29.6420  -29.4394  -16.6728 O   0  0  0  0  0  0  0  0  0  0  0  0
   28.4540  -31.0702  -17.7936 N   0  0  0  0  0  0  0  0  0  0  0  0
   28.4428  -31.9955  -16.6856 C   0  0  0  0  0  0  0  0  0  0  0  0
   29.7145  -32.7736  -16.6920 C   0  0  0  0  0  0  0  0  0  0  0  0
   29.9818  -33.7439  -15.7644 O   0  0  0  0  0  0  0  0  0  0  0  0
   30.5839  -32.5397  -17.5782 O   0  0  0  0  0  0  0  0  0  0  0  0
  2  1  1  1
  3  2  1  0
  4  2  1  0
  4  5  1  0
  5  6  1  6
  7  5  1  0
  7  8  2  0
  9  7  1  0
 10  9  1  0
 10 13  1  0
 10 11  1  1
 12 11  1  0
 13 14  2  0
 13 15  1  0
 15 16  1  0
 17 18  1  0
 17 16  1  0
 19 17  2  0
M  END
$$$$
