LCG.pdb
     RDKit          3D

 19 18  0  0  1  0  0  0  0  0999 V2000
   27.2534  -21.6814  -18.8794 C   0  0  0  0  0  0  0  0  0  0  0  0
   27.7769  -21.0484  -17.6310 C   0  0  2  0  0  0  0  0  0  0  0  0
   28.2827  -19.6499  -17.8590 C   0  0  0  0  0  0  0  0  0  0  0  0
   28.8672  -21.9089  -16.9877 C   0  0  0  0  0  0  0  0  0  0  0  0
   28.2856  -23.3270  -16.9006 C   0  0  2  0  0  0  0  0  0  0  0  0
   27.3033  -23.3992  -15.8556 N   0  0  0  0  0  0  0  0  0  0  0  0
   29.4269  -24.2167  -16.5745 C   0  0  0  0  0  0  0  0  0  0  0  0
   30.0084  -24.0845  -15.4587 O   0  0  0  0  0  0  0  0  0  0  0  0
   29.9288  -25.2182  -17.4202 N   0  0  0  0  0  0  0  0  0  0  0  0
   30.9109  -26.1781  -17.0247 C   0  0  1  0  0  0  0  0  0  0  0  0
   30.3349  -27.4078  -16.3738 C   0  0  0  0  0  0  0  0  0  0  0  0
   29.4325  -27.0087  -14.8581 S   0  0  0  0  0  0  0  0  0  0  0  0
   31.8156  -26.5780  -18.1214 C   0  0  0  0  0  0  0  0  0  0  0  0
   31.2938  -26.9840  -19.1914 O   0  0  0  0  0  0  0  0  0  0  0  0
   33.2269  -26.5234  -18.0177 N   0  0  0  0  0  0  0  0  0  0  0  0
   34.1116  -26.8366  -19.1146 C   0  0  0  0  0  0  0  0  0  0  0  0
   35.5210  -26.7749  -18.6324 C   0  0  0  0  0  0  0  0  0  0  0  0
   36.4030  -27.8044  -18.8204 O   0  0  0  0  0  0  0  0  0  0  0  0
   35.9284  -25.7429  -18.0282 O   0  0  0  0  0  0  0  0  0  0  0  0
  2  1  1  6
  3  2  1  0
  4  2  1  0
  4  5  1  0
  5  6  1  1
  7  5  1  0
  7  8  2  0
  9  7  1  0
 10  9  1  0
 10 13  1  0
 10 11  1  6
 12 11  1  0
 13 14  2  0
 13 15  1  0
 15 16  1  0
 17 18  1  0
 17 16  1  0
 19 17  2  0
M  END
$$$$
