LCG.pdb
     RDKit          3D

 19 18  0  0  1  0  0  0  0  0999 V2000
   16.1340  -12.5927  -16.3975 C   0  0  0  0  0  0  0  0  0  0  0  0
   17.4759  -13.2396  -16.5151 C   0  0  2  0  0  0  0  0  0  0  0  0
   17.4524  -14.6952  -16.1351 C   0  0  0  0  0  0  0  0  0  0  0  0
   18.5263  -12.4923  -15.6897 C   0  0  0  0  0  0  0  0  0  0  0  0
   18.4790  -11.0352  -16.1706 C   0  0  2  0  0  0  0  0  0  0  0  0
   18.9165  -10.9466  -17.5355 N   0  0  0  0  0  0  0  0  0  0  0  0
   19.4156  -10.2867  -15.2972 C   0  0  0  0  0  0  0  0  0  0  0  0
   19.2566  -10.3355  -14.0430 O   0  0  0  0  0  0  0  0  0  0  0  0
   20.4905   -9.5092  -15.7559 N   0  0  0  0  0  0  0  0  0  0  0  0
   21.3703   -8.7793  -14.8983 C   0  0  1  0  0  0  0  0  0  0  0  0
   22.8273   -9.0988  -15.1043 C   0  0  0  0  0  0  0  0  0  0  0  0
   23.3406  -10.5495  -14.1539 S   0  0  0  0  0  0  0  0  0  0  0  0
   21.1720   -7.3171  -14.9615 C   0  0  0  0  0  0  0  0  0  0  0  0
   20.8355   -6.8198  -16.0667 O   0  0  0  0  0  0  0  0  0  0  0  0
   21.3432   -6.4651  -13.8434 N   0  0  0  0  0  0  0  0  0  0  0  0
   21.0965   -5.0434  -13.8893 C   0  0  0  0  0  0  0  0  0  0  0  0
   22.2062   -4.3836  -14.6350 C   0  0  0  0  0  0  0  0  0  0  0  0
   22.1706   -3.0586  -14.9758 O   0  0  0  0  0  0  0  0  0  0  0  0
   23.2201   -5.0588  -14.9698 O   0  0  0  0  0  0  0  0  0  0  0  0
  2  1  1  1
  3  2  1  0
  4  2  1  0
  4  5  1  0
  5  6  1  6
  7  5  1  0
  7  8  2  0
  9  7  1  0
 10  9  1  0
 10 13  1  0
 10 11  1  6
 12 11  1  0
 13 14  2  0
 13 15  1  0
 15 16  1  0
 17 18  1  0
 17 16  1  0
 19 17  2  0
M  END
$$$$
