LCG.pdb
     RDKit          3D

 19 18  0  0  1  0  0  0  0  0999 V2000
   23.1314  -21.1651  -15.0210 C   0  0  0  0  0  0  0  0  0  0  0  0
   22.2330  -19.9709  -15.0216 C   0  0  2  0  0  0  0  0  0  0  0  0
   22.9799  -18.6842  -14.7977 C   0  0  0  0  0  0  0  0  0  0  0  0
   21.1112  -20.1199  -13.9909 C   0  0  0  0  0  0  0  0  0  0  0  0
   20.3872  -21.4266  -14.3446 C   0  0  2  0  0  0  0  0  0  0  0  0
   19.6779  -21.2830  -15.5850 N   0  0  0  0  0  0  0  0  0  0  0  0
   19.4227  -21.6695  -13.2440 C   0  0  0  0  0  0  0  0  0  0  0  0
   18.2469  -21.2142  -13.3472 O   0  0  0  0  0  0  0  0  0  0  0  0
   19.7115  -22.3796  -12.0682 N   0  0  0  0  0  0  0  0  0  0  0  0
   18.7168  -22.8575  -11.1602 C   0  0  1  0  0  0  0  0  0  0  0  0
   17.6959  -23.7641  -11.7953 C   0  0  0  0  0  0  0  0  0  0  0  0
   16.1474  -23.7949  -10.8614 S   0  0  0  0  0  0  0  0  0  0  0  0
   19.2813  -23.5124   -9.9628 C   0  0  0  0  0  0  0  0  0  0  0  0
   20.0007  -24.5294  -10.1368 O   0  0  0  0  0  0  0  0  0  0  0  0
   19.0484  -23.0475   -8.6456 N   0  0  0  0  0  0  0  0  0  0  0  0
   19.6938  -23.6113   -7.4839 C   0  0  0  0  0  0  0  0  0  0  0  0
   18.6699  -24.3022   -6.6490 C   0  0  0  0  0  0  0  0  0  0  0  0
   18.9889  -24.9383   -5.4798 O   0  0  0  0  0  0  0  0  0  0  0  0
   17.4628  -24.3085   -7.0216 O   0  0  0  0  0  0  0  0  0  0  0  0
  2  1  1  1
  3  2  1  0
  4  2  1  0
  4  5  1  0
  5  6  1  6
  7  5  1  0
  7  8  2  0
  9  7  1  0
 10  9  1  0
 10 13  1  0
 10 11  1  6
 12 11  1  0
 13 14  2  0
 13 15  1  0
 15 16  1  0
 17 18  1  0
 17 16  1  0
 19 17  2  0
M  END
$$$$
