LCG.pdb
     RDKit          3D

 19 18  0  0  1  0  0  0  0  0999 V2000
   27.6834  -12.8539  -15.0664 C   0  0  0  0  0  0  0  0  0  0  0  0
   27.2412  -12.5953  -16.4702 C   0  0  2  0  0  0  0  0  0  0  0  0
   28.3638  -12.7228  -17.4638 C   0  0  0  0  0  0  0  0  0  0  0  0
   26.5727  -11.2242  -16.5977 C   0  0  0  0  0  0  0  0  0  0  0  0
   25.4167  -11.2255  -15.5875 C   0  0  2  0  0  0  0  0  0  0  0  0
   24.5417  -12.3374  -15.8332 N   0  0  0  0  0  0  0  0  0  0  0  0
   24.6824   -9.9553  -15.8060 C   0  0  0  0  0  0  0  0  0  0  0  0
   25.3104   -8.8606  -15.7174 O   0  0  0  0  0  0  0  0  0  0  0  0
   23.3153   -9.8627  -16.1105 N   0  0  0  0  0  0  0  0  0  0  0  0
   22.6568   -8.6437  -16.4611 C   0  0  1  0  0  0  0  0  0  0  0  0
   21.4573   -8.8325  -17.3516 C   0  0  0  0  0  0  0  0  0  0  0  0
   21.8411   -9.8568  -18.7920 S   0  0  0  0  0  0  0  0  0  0  0  0
   22.2797   -7.8233  -15.2925 C   0  0  0  0  0  0  0  0  0  0  0  0
   21.8931   -8.4234  -14.2568 O   0  0  0  0  0  0  0  0  0  0  0  0
   22.3351   -6.4082  -15.2915 N   0  0  0  0  0  0  0  0  0  0  0  0
   22.0704   -5.6088  -14.1190 C   0  0  0  0  0  0  0  0  0  0  0  0
   22.2393   -4.1689  -14.4668 C   0  0  0  0  0  0  0  0  0  0  0  0
   22.0178   -3.1677  -13.5602 O   0  0  0  0  0  0  0  0  0  0  0  0
   22.5987   -3.8477  -15.6345 O   0  0  0  0  0  0  0  0  0  0  0  0
  2  1  1  1
  3  2  1  0
  4  2  1  0
  4  5  1  0
  5  6  1  6
  7  5  1  0
  7  8  2  0
  9  7  1  0
 10  9  1  0
 10 13  1  0
 10 11  1  1
 12 11  1  0
 13 14  2  0
 13 15  1  0
 15 16  1  0
 17 18  1  0
 17 16  1  0
 19 17  2  0
M  END
$$$$
