LCG.pdb
     RDKit          3D

 19 18  0  0  1  0  0  0  0  0999 V2000
   17.6979  -13.9221  -18.5009 C   0  0  0  0  0  0  0  0  0  0  0  0
   18.4636  -12.6631  -18.7497 C   0  0  2  0  0  0  0  0  0  0  0  0
   19.3907  -12.7728  -19.9296 C   0  0  0  0  0  0  0  0  0  0  0  0
   19.2395  -12.2300  -17.5034 C   0  0  0  0  0  0  0  0  0  0  0  0
   20.2453  -11.1733  -17.9814 C   0  0  2  0  0  0  0  0  0  0  0  0
   21.3807  -11.8065  -18.5917 N   0  0  0  0  0  0  0  0  0  0  0  0
   20.6765  -10.4409  -16.7657 C   0  0  0  0  0  0  0  0  0  0  0  0
   19.7970  -10.0117  -15.9639 O   0  0  0  0  0  0  0  0  0  0  0  0
   22.0112  -10.1770  -16.4209 N   0  0  0  0  0  0  0  0  0  0  0  0
   22.4076   -9.4973  -15.2278 C   0  0  1  0  0  0  0  0  0  0  0  0
   23.5911  -10.1197  -14.5355 C   0  0  0  0  0  0  0  0  0  0  0  0
   23.2664  -11.8323  -14.0531 S   0  0  0  0  0  0  0  0  0  0  0  0
   22.6556   -8.0553  -15.4288 C   0  0  0  0  0  0  0  0  0  0  0  0
   23.4565   -7.7209  -16.3392 O   0  0  0  0  0  0  0  0  0  0  0  0
   22.0364   -7.0487  -14.6485 N   0  0  0  0  0  0  0  0  0  0  0  0
   22.2487   -5.6377  -14.8679 C   0  0  0  0  0  0  0  0  0  0  0  0
   21.4180   -4.8670  -13.8990 C   0  0  0  0  0  0  0  0  0  0  0  0
   21.4874   -3.5036  -13.8002 O   0  0  0  0  0  0  0  0  0  0  0  0
   20.6187   -5.4806  -13.1372 O   0  0  0  0  0  0  0  0  0  0  0  0
  2  1  1  1
  3  2  1  0
  4  2  1  0
  4  5  1  0
  5  6  1  1
  7  5  1  0
  7  8  2  0
  9  7  1  0
 10  9  1  0
 10 13  1  0
 10 11  1  6
 12 11  1  0
 13 14  2  0
 13 15  1  0
 15 16  1  0
 17 18  1  0
 17 16  1  0
 19 17  2  0
M  END
$$$$
