LCG.pdb
     RDKit          3D

 19 18  0  0  1  0  0  0  0  0999 V2000
   22.5573  -11.6298  -14.1943 C   0  0  0  0  0  0  0  0  0  0  0  0
   23.4733  -11.1647  -15.2795 C   0  0  2  0  0  0  0  0  0  0  0  0
   24.9004  -11.5833  -15.0518 C   0  0  0  0  0  0  0  0  0  0  0  0
   23.3882   -9.6477  -15.4652 C   0  0  0  0  0  0  0  0  0  0  0  0
   21.9051   -9.3377  -15.7122 C   0  0  2  0  0  0  0  0  0  0  0  0
   21.4049  -10.1308  -16.7999 N   0  0  0  0  0  0  0  0  0  0  0  0
   21.8433   -7.9003  -16.0736 C   0  0  0  0  0  0  0  0  0  0  0  0
   22.3436   -7.0474  -15.2844 O   0  0  0  0  0  0  0  0  0  0  0  0
   21.2621   -7.3936  -17.2464 N   0  0  0  0  0  0  0  0  0  0  0  0
   21.2680   -6.0106  -17.6067 C   0  0  1  0  0  0  0  0  0  0  0  0
   21.5389   -5.7615  -19.0668 C   0  0  0  0  0  0  0  0  0  0  0  0
   23.1265   -6.4551  -19.5861 S   0  0  0  0  0  0  0  0  0  0  0  0
   20.0415   -5.2939  -17.2030 C   0  0  0  0  0  0  0  0  0  0  0  0
   18.9363   -5.7864  -17.5467 O   0  0  0  0  0  0  0  0  0  0  0  0
   20.0598   -4.0915  -16.4550 N   0  0  0  0  0  0  0  0  0  0  0  0
   18.8636   -3.3700  -16.0910 C   0  0  0  0  0  0  0  0  0  0  0  0
   19.2430   -2.1916  -15.2603 C   0  0  0  0  0  0  0  0  0  0  0  0
   18.3117   -1.3325  -14.7429 O   0  0  0  0  0  0  0  0  0  0  0  0
   20.4622   -1.9666  -15.0178 O   0  0  0  0  0  0  0  0  0  0  0  0
  2  1  1  1
  3  2  1  0
  4  2  1  0
  4  5  1  0
  5  6  1  6
  7  5  1  0
  7  8  2  0
  9  7  1  0
 10  9  1  0
 10 13  1  0
 10 11  1  6
 12 11  1  0
 13 14  2  0
 13 15  1  0
 15 16  1  0
 17 18  1  0
 17 16  1  0
 19 17  2  0
M  END
$$$$
