LCG.pdb
     RDKit          3D

 19 18  0  0  1  0  0  0  0  0999 V2000
   24.0901  -11.4211  -17.8200 C   0  0  0  0  0  0  0  0  0  0  0  0
   22.7707  -11.4603  -18.5206 C   0  0  2  0  0  0  0  0  0  0  0  0
   22.9010  -11.2953  -20.0104 C   0  0  0  0  0  0  0  0  0  0  0  0
   21.8094  -10.4133  -17.9526 C   0  0  0  0  0  0  0  0  0  0  0  0
   21.7396  -10.6830  -16.4429 C   0  0  2  0  0  0  0  0  0  0  0  0
   20.9724  -11.8689  -16.1837 N   0  0  0  0  0  0  0  0  0  0  0  0
   21.0564   -9.5075  -15.8496 C   0  0  0  0  0  0  0  0  0  0  0  0
   19.9816   -9.0938  -16.3732 O   0  0  0  0  0  0  0  0  0  0  0  0
   21.5129   -8.7976  -14.7281 N   0  0  0  0  0  0  0  0  0  0  0  0
   20.8358   -7.6708  -14.1672 C   0  0  1  0  0  0  0  0  0  0  0  0
   20.1688   -7.9546  -12.8474 C   0  0  0  0  0  0  0  0  0  0  0  0
   20.0304   -9.7297  -12.5295 S   0  0  0  0  0  0  0  0  0  0  0  0
   21.6930   -6.4749  -14.0400 C   0  0  0  0  0  0  0  0  0  0  0  0
   22.9299   -6.6541  -13.8990 O   0  0  0  0  0  0  0  0  0  0  0  0
   21.1849   -5.1533  -14.0700 N   0  0  0  0  0  0  0  0  0  0  0  0
   22.0278   -3.9824  -14.0216 C   0  0  0  0  0  0  0  0  0  0  0  0
   21.1670   -2.7653  -14.0411 C   0  0  0  0  0  0  0  0  0  0  0  0
   21.6695   -1.5116  -13.8200 O   0  0  0  0  0  0  0  0  0  0  0  0
   19.9296   -2.8806  -14.2682 O   0  0  0  0  0  0  0  0  0  0  0  0
  2  1  1  1
  3  2  1  0
  4  2  1  0
  4  5  1  0
  5  6  1  6
  7  5  1  0
  7  8  2  0
  9  7  1  0
 10  9  1  0
 10 13  1  0
 10 11  1  1
 12 11  1  0
 13 14  2  0
 13 15  1  0
 15 16  1  0
 17 18  1  0
 17 16  1  0
 19 17  2  0
M  END
$$$$
