LCG.pdb
     RDKit          3D

 19 18  0  0  1  0  0  0  0  0999 V2000
   17.8222  -12.8799  -18.0776 C   0  0  0  0  0  0  0  0  0  0  0  0
   17.1420  -12.9541  -16.7490 C   0  0  2  0  0  0  0  0  0  0  0  0
   15.7514  -13.5210  -16.8412 C   0  0  0  0  0  0  0  0  0  0  0  0
   17.1132  -11.5859  -16.0632 C   0  0  0  0  0  0  0  0  0  0  0  0
   18.5454  -11.0409  -16.1537 C   0  0  2  0  0  0  0  0  0  0  0  0
   19.4304  -11.8286  -15.3421 N   0  0  0  0  0  0  0  0  0  0  0  0
   18.4885   -9.6548  -15.6285 C   0  0  0  0  0  0  0  0  0  0  0  0
   17.6672   -8.8388  -16.1387 O   0  0  0  0  0  0  0  0  0  0  0  0
   19.2888   -9.1593  -14.5873 N   0  0  0  0  0  0  0  0  0  0  0  0
   19.2089   -7.8233  -14.0861 C   0  0  1  0  0  0  0  0  0  0  0  0
   18.3849   -7.6901  -12.8328 C   0  0  0  0  0  0  0  0  0  0  0  0
   18.9583   -8.8029  -11.5273 S   0  0  0  0  0  0  0  0  0  0  0  0
   20.5290   -7.1947  -13.8780 C   0  0  0  0  0  0  0  0  0  0  0  0
   21.5010   -7.9486  -13.6157 O   0  0  0  0  0  0  0  0  0  0  0  0
   20.7409   -5.7969  -13.9608 N   0  0  0  0  0  0  0  0  0  0  0  0
   22.0336   -5.1821  -13.7741 C   0  0  0  0  0  0  0  0  0  0  0  0
   21.8880   -3.7032  -13.8940 C   0  0  0  0  0  0  0  0  0  0  0  0
   22.9389   -2.8478  -13.7012 O   0  0  0  0  0  0  0  0  0  0  0  0
   20.7618   -3.2092  -14.1831 O   0  0  0  0  0  0  0  0  0  0  0  0
  2  1  1  6
  3  2  1  0
  4  2  1  0
  4  5  1  0
  5  6  1  1
  7  5  1  0
  7  8  2  0
  9  7  1  0
 10  9  1  0
 10 13  1  0
 10 11  1  1
 12 11  1  0
 13 14  2  0
 13 15  1  0
 15 16  1  0
 17 18  1  0
 17 16  1  0
 19 17  2  0
M  END
$$$$
