LCG.pdb
     RDKit          3D

 19 18  0  0  1  0  0  0  0  0999 V2000
   20.4661  -10.4222  -19.3658 C   0  0  0  0  0  0  0  0  0  0  0  0
   19.9007  -11.1576  -18.1941 C   0  0  2  0  0  0  0  0  0  0  0  0
   18.6822  -11.9650  -18.5503 C   0  0  0  0  0  0  0  0  0  0  0  0
   19.5864  -10.2035  -17.0392 C   0  0  0  0  0  0  0  0  0  0  0  0
   20.8706   -9.3972  -16.7997 C   0  0  2  0  0  0  0  0  0  0  0  0
   21.8974  -10.2443  -16.2609 N   0  0  0  0  0  0  0  0  0  0  0  0
   20.5168   -8.3510  -15.8093 C   0  0  0  0  0  0  0  0  0  0  0  0
   19.5761   -7.5478  -16.0750 O   0  0  0  0  0  0  0  0  0  0  0  0
   21.1534   -8.1721  -14.5712 N   0  0  0  0  0  0  0  0  0  0  0  0
   20.8403   -7.1184  -13.6580 C   0  0  1  0  0  0  0  0  0  0  0  0
   20.8932   -7.5296  -12.2104 C   0  0  0  0  0  0  0  0  0  0  0  0
   19.6664   -8.8017  -11.8255 S   0  0  0  0  0  0  0  0  0  0  0  0
   21.6605   -5.9064  -13.8570 C   0  0  0  0  0  0  0  0  0  0  0  0
   22.8409   -6.0593  -14.2637 O   0  0  0  0  0  0  0  0  0  0  0  0
   21.1778   -4.5978  -13.6116 N   0  0  0  0  0  0  0  0  0  0  0  0
   21.9408   -3.4076  -13.9034 C   0  0  0  0  0  0  0  0  0  0  0  0
   21.3653   -2.7475  -15.1100 C   0  0  0  0  0  0  0  0  0  0  0  0
   21.6143   -1.4365  -15.4141 O   0  0  0  0  0  0  0  0  0  0  0  0
   20.6207   -3.4093  -15.8869 O   0  0  0  0  0  0  0  0  0  0  0  0
  2  1  1  6
  3  2  1  0
  4  2  1  0
  4  5  1  0
  5  6  1  1
  7  5  1  0
  7  8  2  0
  9  7  1  0
 10  9  1  0
 10 13  1  0
 10 11  1  1
 12 11  1  0
 13 14  2  0
 13 15  1  0
 15 16  1  0
 17 18  1  0
 17 16  1  0
 19 17  2  0
M  END
$$$$
