LCG.pdb
     RDKit          3D

 19 18  0  0  1  0  0  0  0  0999 V2000
   32.8194  -12.1012  -17.2367 C   0  0  0  0  0  0  0  0  0  0  0  0
   32.7015  -11.4805  -18.5910 C   0  0  2  0  0  0  0  0  0  0  0  0
   33.6742  -12.0614  -19.5809 C   0  0  0  0  0  0  0  0  0  0  0  0
   32.8606   -9.9597  -18.5201 C   0  0  0  0  0  0  0  0  0  0  0  0
   31.8724   -9.4840  -17.4460 C   0  0  2  0  0  0  0  0  0  0  0  0
   30.5230   -9.6031  -17.9228 N   0  0  0  0  0  0  0  0  0  0  0  0
   32.1909   -8.0559  -17.2022 C   0  0  0  0  0  0  0  0  0  0  0  0
   31.8207   -7.1917  -18.0488 O   0  0  0  0  0  0  0  0  0  0  0  0
   32.8857   -7.5699  -16.0837 N   0  0  0  0  0  0  0  0  0  0  0  0
   33.1955   -6.1905  -15.8744 C   0  0  1  0  0  0  0  0  0  0  0  0
   32.3945   -5.5453  -14.7746 C   0  0  0  0  0  0  0  0  0  0  0  0
   32.7392   -3.7750  -14.6388 S   0  0  0  0  0  0  0  0  0  0  0  0
   34.6335   -5.9396  -15.6499 C   0  0  0  0  0  0  0  0  0  0  0  0
   35.2372   -6.6848  -14.8360 O   0  0  0  0  0  0  0  0  0  0  0  0
   35.3495   -4.9083  -16.3051 N   0  0  0  0  0  0  0  0  0  0  0  0
   36.7110   -4.5600  -15.9750 C   0  0  0  0  0  0  0  0  0  0  0  0
   37.1748   -3.4886  -16.9023 C   0  0  0  0  0  0  0  0  0  0  0  0
   38.3722   -3.5611  -17.5614 O   0  0  0  0  0  0  0  0  0  0  0  0
   36.4478   -2.4737  -17.0955 O   0  0  0  0  0  0  0  0  0  0  0  0
  2  1  1  1
  3  2  1  0
  4  2  1  0
  4  5  1  0
  5  6  1  6
  7  5  1  0
  7  8  2  0
  9  7  1  0
 10  9  1  0
 10 13  1  0
 10 11  1  1
 12 11  1  0
 13 14  2  0
 13 15  1  0
 15 16  1  0
 17 18  1  0
 17 16  1  0
 19 17  2  0
M  END
$$$$
