LCG.pdb
     RDKit          3D

 19 18  0  0  1  0  0  0  0  0999 V2000
   15.4510  -13.4084   -9.9665 C   0  0  0  0  0  0  0  0  0  0  0  0
   14.8230  -12.9284  -11.2347 C   0  0  2  0  0  0  0  0  0  0  0  0
   15.2193  -13.7566  -12.4267 C   0  0  0  0  0  0  0  0  0  0  0  0
   15.1384  -11.4518  -11.4858 C   0  0  0  0  0  0  0  0  0  0  0  0
   14.5689  -10.6903  -10.2806 C   0  0  2  0  0  0  0  0  0  0  0  0
   13.1333  -10.7138  -10.3096 N   0  0  0  0  0  0  0  0  0  0  0  0
   15.0475   -9.2930  -10.4175 C   0  0  0  0  0  0  0  0  0  0  0  0
   14.5176   -8.5458  -11.2902 O   0  0  0  0  0  0  0  0  0  0  0  0
   16.0641   -8.7149   -9.6413 N   0  0  0  0  0  0  0  0  0  0  0  0
   16.5933   -7.4065   -9.8661 C   0  0  1  0  0  0  0  0  0  0  0  0
   16.3007   -6.4310   -8.7570 C   0  0  0  0  0  0  0  0  0  0  0  0
   14.5393   -6.3818   -8.3493 S   0  0  0  0  0  0  0  0  0  0  0  0
   18.0409   -7.4014  -10.1588 C   0  0  0  0  0  0  0  0  0  0  0  0
   18.8162   -7.8655   -9.2837 O   0  0  0  0  0  0  0  0  0  0  0  0
   18.5831   -6.9019  -11.3680 N   0  0  0  0  0  0  0  0  0  0  0  0
   19.9909   -6.9548  -11.6830 C   0  0  0  0  0  0  0  0  0  0  0  0
   20.2129   -6.3219  -13.0145 C   0  0  0  0  0  0  0  0  0  0  0  0
   21.4636   -6.0135  -13.4771 O   0  0  0  0  0  0  0  0  0  0  0  0
   19.2218   -6.0558  -13.7512 O   0  0  0  0  0  0  0  0  0  0  0  0
  2  1  1  1
  3  2  1  0
  4  2  1  0
  4  5  1  0
  5  6  1  6
  7  5  1  0
  7  8  2  0
  9  7  1  0
 10  9  1  0
 10 13  1  0
 10 11  1  1
 12 11  1  0
 13 14  2  0
 13 15  1  0
 15 16  1  0
 17 18  1  0
 17 16  1  0
 19 17  2  0
M  END
$$$$
