YLM.pdb
     RDKit          3D

 29 29  0  0  1  0  0  0  0  0999 V2000
   29.5946  -15.8853  -18.8058 O   0  0  0  0  0  0  0  0  0  0  0  0
   28.7652  -16.6682  -18.0160 C   0  0  0  0  0  0  0  0  0  0  0  0
   28.4351  -16.2880  -16.7107 C   0  0  0  0  0  0  0  0  0  0  0  0
   27.6149  -17.0615  -15.9286 C   0  0  0  0  0  0  0  0  0  0  0  0
   27.0810  -18.2345  -16.3790 C   0  0  0  0  0  0  0  0  0  0  0  0
   26.2029  -19.1113  -15.6024 C   0  0  0  0  0  0  0  0  0  0  0  0
   26.8939  -19.8746  -14.4981 C   0  0  2  0  0  0  0  0  0  0  0  0
   27.6917  -20.9067  -15.1765 N   0  0  0  0  0  0  0  0  0  0  0  0
   25.9187  -20.5825  -13.6401 C   0  0  0  0  0  0  0  0  0  0  0  0
   25.5397  -21.7545  -13.9884 O   0  0  0  0  0  0  0  0  0  0  0  0
   27.4031  -18.6250  -17.6804 C   0  0  0  0  0  0  0  0  0  0  0  0
   28.2282  -17.8548  -18.4782 C   0  0  0  0  0  0  0  0  0  0  0  0
   26.2453  -21.9361   -9.5153 C   0  0  0  0  0  0  0  0  0  0  0  0
   25.8823  -20.4417   -9.4862 C   0  0  2  0  0  0  0  0  0  0  0  0
   26.0109  -20.0102   -8.0762 C   0  0  0  0  0  0  0  0  0  0  0  0
   24.5878  -20.2900  -10.1510 C   0  0  0  0  0  0  0  0  0  0  0  0
   24.4597  -20.6279  -11.5880 C   0  0  2  0  0  0  0  0  0  0  0  0
   25.4011  -19.9967  -12.4536 N   0  0  0  0  0  0  0  0  0  0  0  0
   23.0674  -20.5710  -12.1080 C   0  0  0  0  0  0  0  0  0  0  0  0
   22.6202  -19.4698  -12.5813 O   0  0  0  0  0  0  0  0  0  0  0  0
   19.4259  -25.2738  -15.0339 C   0  0  0  0  0  0  0  0  0  0  0  0
   18.5261  -24.8762  -13.5231 S   0  0  0  0  0  0  0  0  0  0  0  0
   18.8758  -23.1794  -13.0648 C   0  0  0  0  0  0  0  0  0  0  0  0
   20.2922  -22.9553  -12.7621 C   0  0  0  0  0  0  0  0  0  0  0  0
   20.7702  -21.5601  -12.5126 C   0  0  2  0  0  0  0  0  0  0  0  0
   22.1947  -21.6872  -12.1087 N   0  0  0  0  0  0  0  0  0  0  0  0
   20.0943  -20.9198  -11.4003 C   0  0  0  0  0  0  0  0  0  0  0  0
   20.6194  -20.9973  -10.2398 O   0  0  0  0  0  0  0  0  0  0  0  0
   18.9132  -20.2007  -11.4291 O   0  0  0  0  0  0  0  0  0  0  0  0
  2  3  2  0
  2  1  1  0
  4  3  1  0
  5  4  2  0
  6  5  1  0
  7  9  1  0
  7  6  1  0
  7  8  1  6
  9 10  2  0
 11  5  1  0
 11 12  2  0
 12  2  1  0
 14 13  1  1
 14 15  1  0
 16 14  1  0
 17 16  1  1
 18 17  1  0
 18  9  1  0
 19 20  2  0
 19 17  1  0
 22 23  1  0
 22 21  1  0
 23 24  1  0
 25 24  1  1
 25 27  1  0
 25 26  1  0
 26 19  1  0
 27 29  1  0
 28 27  2  0
M  END
$$$$
