YLM.pdb
     RDKit          3D

 29 29  0  0  1  0  0  0  0  0999 V2000
   23.9839  -28.0849  -22.1993 O   0  0  0  0  0  0  0  0  0  0  0  0
   24.1396  -27.3625  -21.0252 C   0  0  0  0  0  0  0  0  0  0  0  0
   24.0783  -25.9648  -21.0193 C   0  0  0  0  0  0  0  0  0  0  0  0
   24.2321  -25.2492  -19.8587 C   0  0  0  0  0  0  0  0  0  0  0  0
   24.4515  -25.8583  -18.6568 C   0  0  0  0  0  0  0  0  0  0  0  0
   24.6278  -25.1618  -17.3813 C   0  0  0  0  0  0  0  0  0  0  0  0
   26.0260  -24.6491  -17.1331 C   0  0  2  0  0  0  0  0  0  0  0  0
   26.7738  -25.7967  -16.5985 N   0  0  0  0  0  0  0  0  0  0  0  0
   26.0392  -23.6042  -16.0861 C   0  0  0  0  0  0  0  0  0  0  0  0
   26.2323  -23.9614  -14.8721 O   0  0  0  0  0  0  0  0  0  0  0  0
   24.5148  -27.2532  -18.6494 C   0  0  0  0  0  0  0  0  0  0  0  0
   24.3615  -27.9855  -19.8117 C   0  0  0  0  0  0  0  0  0  0  0  0
   27.6084  -17.9576  -16.5714 C   0  0  0  0  0  0  0  0  0  0  0  0
   27.5191  -19.2512  -15.7444 C   0  0  2  0  0  0  0  0  0  0  0  0
   28.7169  -20.0491  -16.0904 C   0  0  0  0  0  0  0  0  0  0  0  0
   26.1972  -19.8330  -15.9782 C   0  0  0  0  0  0  0  0  0  0  0  0
   25.8832  -21.1761  -15.4367 C   0  0  2  0  0  0  0  0  0  0  0  0
   25.8449  -22.2312  -16.3954 N   0  0  0  0  0  0  0  0  0  0  0  0
   24.7280  -21.2034  -14.5003 C   0  0  0  0  0  0  0  0  0  0  0  0
   23.5734  -21.5354  -14.9398 O   0  0  0  0  0  0  0  0  0  0  0  0
   25.8965  -20.5301   -8.4058 C   0  0  0  0  0  0  0  0  0  0  0  0
   24.1171  -20.5951   -8.1239 S   0  0  0  0  0  0  0  0  0  0  0  0
   23.2792  -20.7020   -9.7044 C   0  0  0  0  0  0  0  0  0  0  0  0
   24.2096  -20.7712  -10.8348 C   0  0  0  0  0  0  0  0  0  0  0  0
   23.6628  -20.9352  -12.2172 C   0  0  2  0  0  0  0  0  0  0  0  0
   24.8372  -20.8771  -13.1258 N   0  0  0  0  0  0  0  0  0  0  0  0
   22.7936  -19.8446  -12.6161 C   0  0  0  0  0  0  0  0  0  0  0  0
   23.3142  -18.8200  -13.1709 O   0  0  0  0  0  0  0  0  0  0  0  0
   21.4198  -19.7640  -12.4779 O   0  0  0  0  0  0  0  0  0  0  0  0
  2  3  2  0
  2  1  1  0
  4  3  1  0
  5  4  2  0
  6  5  1  0
  7  9  1  0
  7  6  1  0
  7  8  1  1
  9 10  2  0
 11  5  1  0
 11 12  2  0
 12  2  1  0
 14 13  1  6
 14 15  1  0
 16 14  1  0
 17 16  1  6
 18 17  1  0
 18  9  1  0
 19 20  2  0
 19 17  1  0
 22 23  1  0
 22 21  1  0
 23 24  1  0
 25 24  1  1
 25 27  1  0
 25 26  1  0
 26 19  1  0
 27 29  1  0
 28 27  2  0
M  END
$$$$
