YLM.pdb
     RDKit          3D

 29 29  0  0  1  0  0  0  0  0999 V2000
   11.8252  -21.2146   -6.4549 O   0  0  0  0  0  0  0  0  0  0  0  0
   12.4415  -22.2476   -5.7637 C   0  0  0  0  0  0  0  0  0  0  0  0
   11.9471  -23.5551   -5.8200 C   0  0  0  0  0  0  0  0  0  0  0  0
   12.5557  -24.5777   -5.1368 C   0  0  0  0  0  0  0  0  0  0  0  0
   13.6680  -24.3753   -4.3715 C   0  0  0  0  0  0  0  0  0  0  0  0
   14.3675  -25.4145   -3.6141 C   0  0  0  0  0  0  0  0  0  0  0  0
   15.6446  -25.9055   -4.2524 C   0  0  2  0  0  0  0  0  0  0  0  0
   15.2218  -26.6660   -5.4376 N   0  0  0  0  0  0  0  0  0  0  0  0
   16.3597  -26.8522   -3.3688 C   0  0  0  0  0  0  0  0  0  0  0  0
   16.0850  -28.0989   -3.4633 O   0  0  0  0  0  0  0  0  0  0  0  0
   14.1713  -23.0744   -4.3071 C   0  0  0  0  0  0  0  0  0  0  0  0
   13.5673  -22.0358   -4.9906 C   0  0  0  0  0  0  0  0  0  0  0  0
   21.6716  -26.9064   -0.3075 C   0  0  0  0  0  0  0  0  0  0  0  0
   20.3572  -27.6814   -0.5009 C   0  0  2  0  0  0  0  0  0  0  0  0
   20.7394  -29.0553   -0.8974 C   0  0  0  0  0  0  0  0  0  0  0  0
   19.5139  -26.8993   -1.4052 C   0  0  0  0  0  0  0  0  0  0  0  0
   18.0946  -27.2806   -1.5945 C   0  0  2  0  0  0  0  0  0  0  0  0
   17.3318  -26.4128   -2.4305 N   0  0  0  0  0  0  0  0  0  0  0  0
   17.3859  -27.6437   -0.3383 C   0  0  0  0  0  0  0  0  0  0  0  0
   16.9761  -26.7151    0.4404 O   0  0  0  0  0  0  0  0  0  0  0  0
   14.5950  -33.8648    3.7153 C   0  0  0  0  0  0  0  0  0  0  0  0
   15.0917  -33.1036    2.1584 S   0  0  0  0  0  0  0  0  0  0  0  0
   15.5590  -31.4008    2.4641 C   0  0  0  0  0  0  0  0  0  0  0  0
   16.0960  -30.7385    1.2720 C   0  0  0  0  0  0  0  0  0  0  0  0
   16.5296  -29.3102    1.3672 C   0  0  2  0  0  0  0  0  0  0  0  0
   17.1351  -28.9830    0.0501 N   0  0  0  0  0  0  0  0  0  0  0  0
   17.5742  -29.0994    2.3514 C   0  0  0  0  0  0  0  0  0  0  0  0
   17.2636  -28.5615    3.4662 O   0  0  0  0  0  0  0  0  0  0  0  0
   18.9148  -29.4220    2.2442 O   0  0  0  0  0  0  0  0  0  0  0  0
  2  3  2  0
  2  1  1  0
  4  3  1  0
  5  4  2  0
  6  5  1  0
  7  9  1  0
  7  6  1  0
  7  8  1  6
  9 10  2  0
 11  5  1  0
 11 12  2  0
 12  2  1  0
 14 13  1  6
 14 15  1  0
 16 14  1  0
 17 16  1  1
 18 17  1  0
 18  9  1  0
 19 20  2  0
 19 17  1  0
 22 23  1  0
 22 21  1  0
 23 24  1  0
 25 24  1  6
 25 27  1  0
 25 26  1  0
 26 19  1  0
 27 29  1  0
 28 27  2  0
M  END
$$$$
