YLM.pdb
     RDKit          3D

 29 29  0  0  1  0  0  0  0  0999 V2000
   19.3080  -19.1151  -15.6772 O   0  0  0  0  0  0  0  0  0  0  0  0
   20.2297  -19.4827  -14.7077 C   0  0  0  0  0  0  0  0  0  0  0  0
   21.2590  -18.6183  -14.3197 C   0  0  0  0  0  0  0  0  0  0  0  0
   22.1712  -18.9807  -13.3609 C   0  0  0  0  0  0  0  0  0  0  0  0
   22.1234  -20.1950  -12.7389 C   0  0  0  0  0  0  0  0  0  0  0  0
   23.0617  -20.6508  -11.7119 C   0  0  0  0  0  0  0  0  0  0  0  0
   24.4422  -20.9833  -12.2249 C   0  0  2  0  0  0  0  0  0  0  0  0
   24.2914  -22.2464  -12.9623 N   0  0  0  0  0  0  0  0  0  0  0  0
   25.3817  -21.2464  -11.1129 C   0  0  0  0  0  0  0  0  0  0  0  0
   25.1932  -22.2858  -10.3898 O   0  0  0  0  0  0  0  0  0  0  0  0
   21.1005  -21.0670  -13.1175 C   0  0  0  0  0  0  0  0  0  0  0  0
   20.1755  -20.7137  -14.0819 C   0  0  0  0  0  0  0  0  0  0  0  0
   29.5954  -22.5576  -10.7175 C   0  0  0  0  0  0  0  0  0  0  0  0
   29.4706  -21.1090  -11.2192 C   0  0  2  0  0  0  0  0  0  0  0  0
   30.8187  -20.7128  -11.6844 C   0  0  0  0  0  0  0  0  0  0  0  0
   28.8376  -20.3279  -10.1563 C   0  0  0  0  0  0  0  0  0  0  0  0
   27.4258  -20.5950   -9.7941 C   0  0  2  0  0  0  0  0  0  0  0  0
   26.4740  -20.3815  -10.8345 N   0  0  0  0  0  0  0  0  0  0  0  0
   27.0052  -20.0046   -8.4955 C   0  0  0  0  0  0  0  0  0  0  0  0
   26.2459  -18.9751   -8.4922 O   0  0  0  0  0  0  0  0  0  0  0  0
   30.3027  -21.9992   -3.5084 C   0  0  0  0  0  0  0  0  0  0  0  0
   29.1547  -21.0189   -2.5229 S   0  0  0  0  0  0  0  0  0  0  0  0
   28.2170  -19.9485   -3.6120 C   0  0  0  0  0  0  0  0  0  0  0  0
   28.0241  -20.5262   -4.9451 C   0  0  0  0  0  0  0  0  0  0  0  0
   27.3657  -19.7026   -6.0059 C   0  0  2  0  0  0  0  0  0  0  0  0
   27.4051  -20.5280   -7.2410 N   0  0  0  0  0  0  0  0  0  0  0  0
   28.0945  -18.4867   -6.3135 C   0  0  0  0  0  0  0  0  0  0  0  0
   28.9484  -18.5096   -7.2616 O   0  0  0  0  0  0  0  0  0  0  0  0
   27.9798  -17.2533   -5.6984 O   0  0  0  0  0  0  0  0  0  0  0  0
  2  3  2  0
  2  1  1  0
  4  3  1  0
  5  4  2  0
  6  5  1  0
  7  9  1  0
  7  6  1  0
  7  8  1  6
  9 10  2  0
 11  5  1  0
 11 12  2  0
 12  2  1  0
 14 13  1  1
 14 15  1  0
 16 14  1  0
 17 16  1  6
 18 17  1  0
 18  9  1  0
 19 20  2  0
 19 17  1  0
 22 23  1  0
 22 21  1  0
 23 24  1  0
 25 24  1  1
 25 27  1  0
 25 26  1  0
 26 19  1  0
 27 29  1  0
 28 27  2  0
M  END
$$$$
