YLM.pdb
     RDKit          3D

 29 29  0  0  1  0  0  0  0  0999 V2000
   17.4549  -20.3891  -15.5710 O   0  0  0  0  0  0  0  0  0  0  0  0
   17.9454  -19.0950  -15.6672 C   0  0  0  0  0  0  0  0  0  0  0  0
   18.4267  -18.4156  -14.5430 C   0  0  0  0  0  0  0  0  0  0  0  0
   18.9121  -17.1356  -14.6369 C   0  0  0  0  0  0  0  0  0  0  0  0
   18.9509  -16.4617  -15.8235 C   0  0  0  0  0  0  0  0  0  0  0  0
   19.4506  -15.0970  -15.9991 C   0  0  0  0  0  0  0  0  0  0  0  0
   20.7523  -14.9969  -16.7572 C   0  0  2  0  0  0  0  0  0  0  0  0
   21.7559  -15.6414  -15.8973 N   0  0  0  0  0  0  0  0  0  0  0  0
   21.1724  -13.5883  -16.9238 C   0  0  0  0  0  0  0  0  0  0  0  0
   21.5083  -12.9260  -15.8811 O   0  0  0  0  0  0  0  0  0  0  0  0
   18.4732  -17.1291  -16.9533 C   0  0  0  0  0  0  0  0  0  0  0  0
   17.9818  -18.4185  -16.8718 C   0  0  0  0  0  0  0  0  0  0  0  0
   24.5105  -11.5099  -19.1094 C   0  0  0  0  0  0  0  0  0  0  0  0
   23.4247  -11.9652  -20.0991 C   0  0  2  0  0  0  0  0  0  0  0  0
   23.9747  -11.7356  -21.4539 C   0  0  0  0  0  0  0  0  0  0  0  0
   22.1790  -11.2952  -19.7249 C   0  0  0  0  0  0  0  0  0  0  0  0
   21.5512  -11.5961  -18.4168 C   0  0  2  0  0  0  0  0  0  0  0  0
   21.2104  -12.9638  -18.1994 N   0  0  0  0  0  0  0  0  0  0  0  0
   20.4613  -10.6603  -18.0317 C   0  0  0  0  0  0  0  0  0  0  0  0
   19.3171  -10.7663  -18.5938 O   0  0  0  0  0  0  0  0  0  0  0  0
   15.4913   -7.0305  -14.2234 C   0  0  0  0  0  0  0  0  0  0  0  0
   16.5520   -8.3919  -14.7447 S   0  0  0  0  0  0  0  0  0  0  0  0
   18.2531   -7.8290  -14.7721 C   0  0  0  0  0  0  0  0  0  0  0  0
   19.1622   -8.8041  -15.3811 C   0  0  0  0  0  0  0  0  0  0  0  0
   19.5628   -8.6297  -16.8115 C   0  0  2  0  0  0  0  0  0  0  0  0
   20.6226   -9.6412  -17.0605 N   0  0  0  0  0  0  0  0  0  0  0  0
   20.1705   -7.3396  -17.0767 C   0  0  0  0  0  0  0  0  0  0  0  0
   19.4629   -6.4331  -17.6301 O   0  0  0  0  0  0  0  0  0  0  0  0
   21.4636   -6.9395  -16.7930 O   0  0  0  0  0  0  0  0  0  0  0  0
  2  3  2  0
  2  1  1  0
  4  3  1  0
  5  4  2  0
  6  5  1  0
  7  9  1  0
  7  6  1  0
  7  8  1  1
  9 10  2  0
 11  5  1  0
 11 12  2  0
 12  2  1  0
 14 13  1  1
 14 15  1  0
 16 14  1  0
 17 16  1  6
 18 17  1  0
 18  9  1  0
 19 20  2  0
 19 17  1  0
 22 23  1  0
 22 21  1  0
 23 24  1  0
 25 24  1  1
 25 27  1  0
 25 26  1  0
 26 19  1  0
 27 29  1  0
 28 27  2  0
M  END
$$$$
