YLM.pdb
     RDKit          3D

 29 29  0  0  1  0  0  0  0  0999 V2000
   18.1368  -16.7381  -15.1826 O   0  0  0  0  0  0  0  0  0  0  0  0
   19.2235  -17.4876  -14.7560 C   0  0  0  0  0  0  0  0  0  0  0  0
   20.5026  -16.9274  -14.6696 C   0  0  0  0  0  0  0  0  0  0  0  0
   21.5782  -17.6676  -14.2478 C   0  0  0  0  0  0  0  0  0  0  0  0
   21.4586  -18.9804  -13.8927 C   0  0  0  0  0  0  0  0  0  0  0  0
   22.5592  -19.8315  -13.4375 C   0  0  0  0  0  0  0  0  0  0  0  0
   23.7449  -19.8784  -14.3708 C   0  0  2  0  0  0  0  0  0  0  0  0
   23.2612  -20.5547  -15.5835 N   0  0  0  0  0  0  0  0  0  0  0  0
   24.8327  -20.7155  -13.8190 C   0  0  0  0  0  0  0  0  0  0  0  0
   24.7150  -21.9883  -13.8860 O   0  0  0  0  0  0  0  0  0  0  0  0
   20.1869  -19.5512  -13.9747 C   0  0  0  0  0  0  0  0  0  0  0  0
   19.0954  -18.8162  -14.3980 C   0  0  0  0  0  0  0  0  0  0  0  0
   28.4956  -21.1215  -15.3861 C   0  0  0  0  0  0  0  0  0  0  0  0
   28.6755  -19.9256  -14.4358 C   0  0  2  0  0  0  0  0  0  0  0  0
   29.9955  -19.3365  -14.7544 C   0  0  0  0  0  0  0  0  0  0  0  0
   28.4308  -20.4039  -13.0749 C   0  0  0  0  0  0  0  0  0  0  0  0
   27.0835  -20.8966  -12.7041 C   0  0  2  0  0  0  0  0  0  0  0  0
   25.9896  -20.1439  -13.2244 N   0  0  0  0  0  0  0  0  0  0  0  0
   26.9269  -21.2226  -11.2615 C   0  0  0  0  0  0  0  0  0  0  0  0
   27.4280  -22.3082  -10.8067 O   0  0  0  0  0  0  0  0  0  0  0  0
   29.3291  -19.5921   -5.3249 C   0  0  0  0  0  0  0  0  0  0  0  0
   27.8647  -18.6881   -5.8617 S   0  0  0  0  0  0  0  0  0  0  0  0
   26.7349  -19.8277   -6.6593 C   0  0  0  0  0  0  0  0  0  0  0  0
   26.8263  -19.7851   -8.1215 C   0  0  0  0  0  0  0  0  0  0  0  0
   26.0478  -20.7757   -8.9276 C   0  0  2  0  0  0  0  0  0  0  0  0
   26.2426  -20.3833  -10.3476 N   0  0  0  0  0  0  0  0  0  0  0  0
   24.6193  -20.7060   -8.6854 C   0  0  0  0  0  0  0  0  0  0  0  0
   24.1818  -20.9994   -7.5231 O   0  0  0  0  0  0  0  0  0  0  0  0
   23.6269  -20.3429   -9.5776 O   0  0  0  0  0  0  0  0  0  0  0  0
  2  3  2  0
  2  1  1  0
  4  3  1  0
  5  4  2  0
  6  5  1  0
  7  9  1  0
  7  6  1  0
  7  8  1  6
  9 10  2  0
 11  5  1  0
 11 12  2  0
 12  2  1  0
 14 13  1  6
 14 15  1  0
 16 14  1  0
 17 16  1  1
 18 17  1  0
 18  9  1  0
 19 20  2  0
 19 17  1  0
 22 23  1  0
 22 21  1  0
 23 24  1  0
 25 24  1  1
 25 27  1  0
 25 26  1  0
 26 19  1  0
 27 29  1  0
 28 27  2  0
M  END
$$$$
