YLM.pdb
     RDKit          3D

 29 29  0  0  1  0  0  0  0  0999 V2000
   19.8097  -25.6930  -19.8486 O   0  0  0  0  0  0  0  0  0  0  0  0
   20.3957  -26.7467  -19.1623 C   0  0  0  0  0  0  0  0  0  0  0  0
   21.7792  -26.8028  -18.9624 C   0  0  0  0  0  0  0  0  0  0  0  0
   22.3599  -27.8444  -18.2837 C   0  0  0  0  0  0  0  0  0  0  0  0
   21.6242  -28.8738  -17.7711 C   0  0  0  0  0  0  0  0  0  0  0  0
   22.1736  -30.0172  -17.0405 C   0  0  0  0  0  0  0  0  0  0  0  0
   22.8589  -31.0463  -17.9070 C   0  0  2  0  0  0  0  0  0  0  0  0
   21.7738  -31.8325  -18.5123 N   0  0  0  0  0  0  0  0  0  0  0  0
   23.6654  -31.9838  -17.0951 C   0  0  0  0  0  0  0  0  0  0  0  0
   23.1306  -33.0881  -16.7300 O   0  0  0  0  0  0  0  0  0  0  0  0
   20.2420  -28.8294  -17.9641 C   0  0  0  0  0  0  0  0  0  0  0  0
   19.6449  -27.7857  -18.6459 C   0  0  0  0  0  0  0  0  0  0  0  0
   29.6227  -32.5869  -15.4963 C   0  0  0  0  0  0  0  0  0  0  0  0
   28.2162  -33.1871  -15.3319 C   0  0  2  0  0  0  0  0  0  0  0  0
   28.3306  -34.6184  -15.6916 C   0  0  0  0  0  0  0  0  0  0  0  0
   27.2875  -32.3461  -16.0872 C   0  0  0  0  0  0  0  0  0  0  0  0
   25.8276  -32.5488  -15.9344 C   0  0  2  0  0  0  0  0  0  0  0  0
   25.0028  -31.6883  -16.7175 N   0  0  0  0  0  0  0  0  0  0  0  0
   25.3701  -32.6621  -14.5238 C   0  0  0  0  0  0  0  0  0  0  0  0
   25.2808  -31.6058  -13.8076 O   0  0  0  0  0  0  0  0  0  0  0  0
   20.3910  -36.4664   -9.9616 C   0  0  0  0  0  0  0  0  0  0  0  0
   21.1278  -36.0857  -11.5623 S   0  0  0  0  0  0  0  0  0  0  0  0
   22.6248  -35.1350  -11.3047 C   0  0  0  0  0  0  0  0  0  0  0  0
   23.2463  -34.7063  -12.5609 C   0  0  0  0  0  0  0  0  0  0  0  0
   24.5443  -33.9646  -12.5136 C   0  0  2  0  0  0  0  0  0  0  0  0
   25.0215  -33.8952  -13.9193 N   0  0  0  0  0  0  0  0  0  0  0  0
   25.5742  -34.6709  -11.7756 C   0  0  0  0  0  0  0  0  0  0  0  0
   26.3020  -35.5145  -12.3978 O   0  0  0  0  0  0  0  0  0  0  0  0
   25.8925  -34.5436  -10.4357 O   0  0  0  0  0  0  0  0  0  0  0  0
  2  3  2  0
  2  1  1  0
  4  3  1  0
  5  4  2  0
  6  5  1  0
  7  9  1  0
  7  6  1  0
  7  8  1  1
  9 10  2  0
 11  5  1  0
 11 12  2  0
 12  2  1  0
 14 13  1  6
 14 15  1  0
 16 14  1  0
 17 16  1  1
 18 17  1  0
 18  9  1  0
 19 20  2  0
 19 17  1  0
 22 23  1  0
 22 21  1  0
 23 24  1  0
 25 24  1  6
 25 27  1  0
 25 26  1  0
 26 19  1  0
 27 29  1  0
 28 27  2  0
M  END
$$$$
