YLM.pdb
     RDKit          3D

 29 29  0  0  1  0  0  0  0  0999 V2000
   17.9892  -17.0027  -15.6740 O   0  0  0  0  0  0  0  0  0  0  0  0
   19.0824  -17.7189  -15.2086 C   0  0  0  0  0  0  0  0  0  0  0  0
   20.3532  -17.1383  -15.1362 C   0  0  0  0  0  0  0  0  0  0  0  0
   21.4352  -17.8456  -14.6761 C   0  0  0  0  0  0  0  0  0  0  0  0
   21.3302  -19.1440  -14.2674 C   0  0  0  0  0  0  0  0  0  0  0  0
   22.4384  -19.9604  -13.7690 C   0  0  0  0  0  0  0  0  0  0  0  0
   23.6654  -19.9588  -14.6487 C   0  0  2  0  0  0  0  0  0  0  0  0
   23.2509  -20.6124  -15.8988 N   0  0  0  0  0  0  0  0  0  0  0  0
   24.7450  -20.7881  -14.0697 C   0  0  0  0  0  0  0  0  0  0  0  0
   24.6281  -22.0618  -14.1207 O   0  0  0  0  0  0  0  0  0  0  0  0
   20.0669  -19.7350  -14.3348 C   0  0  0  0  0  0  0  0  0  0  0  0
   18.9691  -19.0331  -14.7964 C   0  0  0  0  0  0  0  0  0  0  0  0
   28.5738  -21.2246  -15.4503 C   0  0  0  0  0  0  0  0  0  0  0  0
   28.6749  -19.9914  -14.5367 C   0  0  2  0  0  0  0  0  0  0  0  0
   30.0134  -19.4062  -14.7752 C   0  0  0  0  0  0  0  0  0  0  0  0
   28.3273  -20.4180  -13.1811 C   0  0  0  0  0  0  0  0  0  0  0  0
   26.9731  -20.9539  -12.9077 C   0  0  2  0  0  0  0  0  0  0  0  0
   25.8933  -20.2083  -13.4664 N   0  0  0  0  0  0  0  0  0  0  0  0
   26.7404  -21.3337  -11.4887 C   0  0  0  0  0  0  0  0  0  0  0  0
   27.3030  -22.3830  -11.0209 O   0  0  0  0  0  0  0  0  0  0  0  0
   29.1090  -19.1875   -7.0317 C   0  0  0  0  0  0  0  0  0  0  0  0
   27.6078  -19.2298   -6.0344 S   0  0  0  0  0  0  0  0  0  0  0  0
   26.3572  -20.1759   -6.9017 C   0  0  0  0  0  0  0  0  0  0  0  0
   26.5254  -20.1361   -8.3572 C   0  0  0  0  0  0  0  0  0  0  0  0
   25.6743  -21.0207   -9.2117 C   0  0  2  0  0  0  0  0  0  0  0  0
   25.9169  -20.5851  -10.6116 N   0  0  0  0  0  0  0  0  0  0  0  0
   24.2543  -20.8400   -8.9766 C   0  0  0  0  0  0  0  0  0  0  0  0
   23.5542  -20.2669   -9.8766 O   0  0  0  0  0  0  0  0  0  0  0  0
   23.5247  -21.2270   -7.8672 O   0  0  0  0  0  0  0  0  0  0  0  0
  2  3  2  0
  2  1  1  0
  4  3  1  0
  5  4  2  0
  6  5  1  0
  7  9  1  0
  7  6  1  0
  7  8  1  6
  9 10  2  0
 11  5  1  0
 11 12  2  0
 12  2  1  0
 14 13  1  6
 14 15  1  0
 16 14  1  0
 17 16  1  1
 18 17  1  0
 18  9  1  0
 19 20  2  0
 19 17  1  0
 22 23  1  0
 22 21  1  0
 23 24  1  0
 25 24  1  1
 25 27  1  0
 25 26  1  0
 26 19  1  0
 27 29  1  0
 28 27  2  0
M  END
$$$$
