YLM.pdb
     RDKit          3D

 29 29  0  0  1  0  0  0  0  0999 V2000
   15.1389  -23.0188  -15.3542 O   0  0  0  0  0  0  0  0  0  0  0  0
   16.4672  -22.6208  -15.3119 C   0  0  0  0  0  0  0  0  0  0  0  0
   17.4002  -23.2894  -14.5119 C   0  0  0  0  0  0  0  0  0  0  0  0
   18.7142  -22.8967  -14.4692 C   0  0  0  0  0  0  0  0  0  0  0  0
   19.1780  -21.8406  -15.1995 C   0  0  0  0  0  0  0  0  0  0  0  0
   20.5619  -21.3636  -15.2020 C   0  0  0  0  0  0  0  0  0  0  0  0
   20.9657  -20.5998  -13.9638 C   0  0  2  0  0  0  0  0  0  0  0  0
   20.1946  -19.3486  -14.0077 N   0  0  0  0  0  0  0  0  0  0  0  0
   22.3956  -20.2231  -14.0049 C   0  0  0  0  0  0  0  0  0  0  0  0
   22.7573  -19.2933  -14.8070 O   0  0  0  0  0  0  0  0  0  0  0  0
   18.2564  -21.1649  -16.0021 C   0  0  0  0  0  0  0  0  0  0  0  0
   16.9301  -21.5507  -16.0538 C   0  0  0  0  0  0  0  0  0  0  0  0
   27.5747  -21.6265  -10.8791 C   0  0  0  0  0  0  0  0  0  0  0  0
   27.0303  -21.0091  -12.1784 C   0  0  2  0  0  0  0  0  0  0  0  0
   27.6745  -19.6830  -12.3100 C   0  0  0  0  0  0  0  0  0  0  0  0
   25.5700  -21.0769  -12.1200 C   0  0  0  0  0  0  0  0  0  0  0  0
   24.7713  -20.6726  -13.3008 C   0  0  2  0  0  0  0  0  0  0  0  0
   23.3628  -20.8629  -13.1840 N   0  0  0  0  0  0  0  0  0  0  0  0
   25.3139  -21.1528  -14.5997 C   0  0  0  0  0  0  0  0  0  0  0  0
   25.0536  -22.3446  -14.9850 O   0  0  0  0  0  0  0  0  0  0  0  0
   22.6259  -19.6695  -19.0090 C   0  0  0  0  0  0  0  0  0  0  0  0
   23.5324  -21.0480  -19.7358 S   0  0  0  0  0  0  0  0  0  0  0  0
   25.1674  -21.1211  -19.0060 C   0  0  0  0  0  0  0  0  0  0  0  0
   25.1565  -20.8535  -17.5650 C   0  0  0  0  0  0  0  0  0  0  0  0
   26.4568  -20.7788  -16.8298 C   0  0  2  0  0  0  0  0  0  0  0  0
   26.1159  -20.3501  -15.4483 N   0  0  0  0  0  0  0  0  0  0  0  0
   27.3480  -19.7624  -17.3559 C   0  0  0  0  0  0  0  0  0  0  0  0
   27.4352  -18.6481  -16.7400 O   0  0  0  0  0  0  0  0  0  0  0  0
   28.1547  -19.8427  -18.4765 O   0  0  0  0  0  0  0  0  0  0  0  0
  2  3  2  0
  2  1  1  0
  4  3  1  0
  5  4  2  0
  6  5  1  0
  7  9  1  0
  7  6  1  0
  7  8  1  6
  9 10  2  0
 11  5  1  0
 11 12  2  0
 12  2  1  0
 14 13  1  1
 14 15  1  0
 16 14  1  0
 17 16  1  1
 18 17  1  0
 18  9  1  0
 19 20  2  0
 19 17  1  0
 22 23  1  0
 22 21  1  0
 23 24  1  0
 25 24  1  6
 25 27  1  0
 25 26  1  0
 26 19  1  0
 27 29  1  0
 28 27  2  0
M  END
$$$$
