YLM.pdb
     RDKit          3D

 29 29  0  0  1  0  0  0  0  0999 V2000
   30.7718  -16.5969  -18.7261 O   0  0  0  0  0  0  0  0  0  0  0  0
   29.5700  -16.6688  -18.0368 C   0  0  0  0  0  0  0  0  0  0  0  0
   29.4024  -17.5455  -16.9595 C   0  0  0  0  0  0  0  0  0  0  0  0
   28.2143  -17.6175  -16.2769 C   0  0  0  0  0  0  0  0  0  0  0  0
   27.1404  -16.8431  -16.6099 C   0  0  0  0  0  0  0  0  0  0  0  0
   25.8437  -16.8677  -15.9310 C   0  0  0  0  0  0  0  0  0  0  0  0
   25.3357  -18.2494  -15.5960 C   0  0  2  0  0  0  0  0  0  0  0  0
   25.3479  -18.9890  -16.8668 N   0  0  0  0  0  0  0  0  0  0  0  0
   23.9300  -18.2105  -15.1368 C   0  0  0  0  0  0  0  0  0  0  0  0
   23.6276  -17.4305  -14.1679 O   0  0  0  0  0  0  0  0  0  0  0  0
   27.2951  -15.9638  -17.6836 C   0  0  0  0  0  0  0  0  0  0  0  0
   28.4867  -15.8820  -18.3792 C   0  0  0  0  0  0  0  0  0  0  0  0
   19.8886  -16.9425  -16.4855 C   0  0  0  0  0  0  0  0  0  0  0  0
   20.3105  -18.1868  -17.2850 C   0  0  2  0  0  0  0  0  0  0  0  0
   19.2797  -18.3786  -18.3298 C   0  0  0  0  0  0  0  0  0  0  0  0
   20.5474  -19.2666  -16.3266 C   0  0  0  0  0  0  0  0  0  0  0  0
   21.5772  -19.0978  -15.2747 C   0  0  2  0  0  0  0  0  0  0  0  0
   22.9223  -19.0097  -15.7405 N   0  0  0  0  0  0  0  0  0  0  0  0
   21.4255  -20.0188  -14.1167 C   0  0  0  0  0  0  0  0  0  0  0  0
   21.5719  -21.2772  -14.2940 O   0  0  0  0  0  0  0  0  0  0  0  0
   23.4873  -21.9348   -7.3201 C   0  0  0  0  0  0  0  0  0  0  0  0
   23.4805  -21.1713   -8.9532 S   0  0  0  0  0  0  0  0  0  0  0  0
   21.9061  -20.3544   -9.2091 C   0  0  0  0  0  0  0  0  0  0  0  0
   21.7992  -19.7333  -10.5324 C   0  0  0  0  0  0  0  0  0  0  0  0
   21.1524  -20.4973  -11.6437 C   0  0  2  0  0  0  0  0  0  0  0  0
   21.1232  -19.5723  -12.8064 N   0  0  0  0  0  0  0  0  0  0  0  0
   19.7696  -20.8375  -11.3680 C   0  0  0  0  0  0  0  0  0  0  0  0
   19.5235  -21.8797  -10.6740 O   0  0  0  0  0  0  0  0  0  0  0  0
   18.6350  -20.1535  -11.7651 O   0  0  0  0  0  0  0  0  0  0  0  0
  2  3  2  0
  2  1  1  0
  4  3  1  0
  5  4  2  0
  6  5  1  0
  7  9  1  0
  7  6  1  0
  7  8  1  6
  9 10  2  0
 11  5  1  0
 11 12  2  0
 12  2  1  0
 14 13  1  1
 14 15  1  0
 16 14  1  0
 17 16  1  6
 18 17  1  0
 18  9  1  0
 19 20  2  0
 19 17  1  0
 22 23  1  0
 22 21  1  0
 23 24  1  0
 25 24  1  1
 25 27  1  0
 25 26  1  0
 26 19  1  0
 27 29  1  0
 28 27  2  0
M  END
$$$$
