YLM.pdb
     RDKit          3D

 29 29  0  0  1  0  0  0  0  0999 V2000
   20.3357  -19.4671  -14.2537 O   0  0  0  0  0  0  0  0  0  0  0  0
   21.1957  -19.7252  -13.1961 C   0  0  0  0  0  0  0  0  0  0  0  0
   22.2781  -18.8833  -12.9186 C   0  0  0  0  0  0  0  0  0  0  0  0
   23.1293  -19.1375  -11.8729 C   0  0  0  0  0  0  0  0  0  0  0  0
   22.9668  -20.2173  -11.0535 C   0  0  0  0  0  0  0  0  0  0  0  0
   23.8346  -20.5531   -9.9234 C   0  0  0  0  0  0  0  0  0  0  0  0
   25.3097  -20.5629  -10.2449 C   0  0  2  0  0  0  0  0  0  0  0  0
   25.4956  -21.6711  -11.1933 N   0  0  0  0  0  0  0  0  0  0  0  0
   26.1201  -20.8822   -9.0492 C   0  0  0  0  0  0  0  0  0  0  0  0
   26.3460  -22.1126   -8.7779 O   0  0  0  0  0  0  0  0  0  0  0  0
   21.8899  -21.0654  -11.3202 C   0  0  0  0  0  0  0  0  0  0  0  0
   21.0253  -20.8202  -12.3704 C   0  0  0  0  0  0  0  0  0  0  0  0
   28.5482  -19.1489   -4.4276 C   0  0  0  0  0  0  0  0  0  0  0  0
   29.4349  -19.4118   -5.6565 C   0  0  2  0  0  0  0  0  0  0  0  0
   30.6262  -18.5470   -5.5019 C   0  0  0  0  0  0  0  0  0  0  0  0
   28.5988  -19.2480   -6.8459 C   0  0  0  0  0  0  0  0  0  0  0  0
   27.4082  -20.1112   -7.0273 C   0  0  2  0  0  0  0  0  0  0  0  0
   26.6456  -19.8656   -8.2072 N   0  0  0  0  0  0  0  0  0  0  0  0
   26.5632  -20.2514   -5.8114 C   0  0  0  0  0  0  0  0  0  0  0  0
   25.7865  -19.2923   -5.4746 O   0  0  0  0  0  0  0  0  0  0  0  0
   25.1475  -26.0210   -3.2031 C   0  0  0  0  0  0  0  0  0  0  0  0
   25.3743  -25.0569   -1.6968 S   0  0  0  0  0  0  0  0  0  0  0  0
   25.1526  -23.3197   -2.0765 C   0  0  0  0  0  0  0  0  0  0  0  0
   25.8321  -22.9192   -3.3119 C   0  0  0  0  0  0  0  0  0  0  0  0
   25.7329  -21.4982   -3.7681 C   0  0  2  0  0  0  0  0  0  0  0  0
   26.5706  -21.4074   -4.9922 N   0  0  0  0  0  0  0  0  0  0  0  0
   26.3031  -20.5580   -2.8221 C   0  0  0  0  0  0  0  0  0  0  0  0
   27.5713  -20.4210   -2.7860 O   0  0  0  0  0  0  0  0  0  0  0  0
   25.6310  -19.7512   -1.9220 O   0  0  0  0  0  0  0  0  0  0  0  0
  2  3  2  0
  2  1  1  0
  4  3  1  0
  5  4  2  0
  6  5  1  0
  7  9  1  0
  7  6  1  0
  7  8  1  6
  9 10  2  0
 11  5  1  0
 11 12  2  0
 12  2  1  0
 14 13  1  1
 14 15  1  0
 16 14  1  0
 17 16  1  1
 18 17  1  0
 18  9  1  0
 19 20  2  0
 19 17  1  0
 22 23  1  0
 22 21  1  0
 23 24  1  0
 25 24  1  1
 25 27  1  0
 25 26  1  0
 26 19  1  0
 27 29  1  0
 28 27  2  0
M  END
$$$$
