DCS.pdb
     RDKit          3D

 21 20  0  0  1  0  0  0  0  0999 V2000
   16.0410  -12.1852  -13.0284 N   0  0  0  0  0  0  0  0  0  0  0  0
   16.8332  -10.9860  -13.1955 C   0  0  1  0  0  0  0  0  0  0  0  0
   16.9563  -10.6446  -14.6708 C   0  0  0  0  0  0  0  0  0  0  0  0
   17.8121  -11.6511  -15.3238 C   0  0  0  0  0  0  0  0  0  0  0  0
   17.3296  -12.4516  -16.1945 O   0  0  0  0  0  0  0  0  0  0  0  0
   16.1805   -9.8946  -12.4384 C   0  0  0  0  0  0  0  0  0  0  0  0
   14.9370   -9.7505  -12.5172 O   0  0  0  0  0  0  0  0  0  0  0  0
   19.1589  -11.8028  -15.0545 O   0  0  0  0  0  0  0  0  0  0  0  0
   16.8764   -8.9861  -11.6167 N   0  0  0  0  0  0  0  0  0  0  0  0
   16.2500   -7.8891  -10.8831 C   0  0  1  0  0  0  0  0  0  0  0  0
   16.7360   -8.0459   -9.4536 C   0  0  0  0  0  0  0  0  0  0  0  0
   16.2484   -6.7037   -8.3746 S   0  0  0  0  0  0  0  0  0  0  0  0
   16.5652   -6.5937  -11.4871 C   0  0  0  0  0  0  0  0  0  0  0  0
   17.7972   -6.3316  -11.7115 O   0  0  0  0  0  0  0  0  0  0  0  0
   14.5825   -4.7494  -14.3256 O   0  0  0  0  0  0  0  0  0  0  0  0
   14.8586   -3.8538  -13.3025 C   0  0  0  0  0  0  0  0  0  0  0  0
   16.0497   -4.3393  -12.4659 C   0  0  2  0  0  0  0  0  0  0  0  0
   15.6593   -5.5943  -11.8531 N   0  0  0  0  0  0  0  0  0  0  0  0
   16.2652   -3.2864  -11.4153 C   0  0  0  0  0  0  0  0  0  0  0  0
   16.7725   -2.0469  -11.7756 O   0  0  0  0  0  0  0  0  0  0  0  0
   16.0039   -3.4788  -10.2094 O   0  0  0  0  0  0  0  0  0  0  0  0
  2  1  1  6
  3  2  1  0
  3  4  1  0
  4  5  2  0
  4  8  1  0
  6  2  1  0
  7  6  2  0
  9  6  1  0
 10 13  1  0
 10  9  1  0
 10 11  1  1
 12 11  1  0
 13 18  1  0
 14 13  2  0
 16 15  1  0
 17 16  1  6
 17 19  1  0
 18 17  1  0
 19 21  2  0
 19 20  1  0
M  END
$$$$
