DCS.pdb
     RDKit          3D

 21 20  0  0  1  0  0  0  0  0999 V2000
   23.8083  -10.7832  -17.2561 N   0  0  0  0  0  0  0  0  0  0  0  0
   24.0797   -9.4710  -16.7100 C   0  0  1  0  0  0  0  0  0  0  0  0
   25.3220   -8.8840  -17.3585 C   0  0  0  0  0  0  0  0  0  0  0  0
   26.4965   -9.6674  -16.9357 C   0  0  0  0  0  0  0  0  0  0  0  0
   26.3636  -10.6795  -16.1677 O   0  0  0  0  0  0  0  0  0  0  0  0
   22.8914   -8.6206  -16.9448 C   0  0  0  0  0  0  0  0  0  0  0  0
   22.4291   -8.5182  -18.1062 O   0  0  0  0  0  0  0  0  0  0  0  0
   27.7908   -9.3782  -17.3238 O   0  0  0  0  0  0  0  0  0  0  0  0
   22.2294   -7.9022  -15.9297 N   0  0  0  0  0  0  0  0  0  0  0  0
   21.0330   -7.0904  -16.1383 C   0  0  1  0  0  0  0  0  0  0  0  0
   19.9432   -7.7873  -15.3439 C   0  0  0  0  0  0  0  0  0  0  0  0
   18.3554   -6.9650  -15.4223 S   0  0  0  0  0  0  0  0  0  0  0  0
   21.2596   -5.6964  -15.7543 C   0  0  0  0  0  0  0  0  0  0  0  0
   21.9383   -5.4800  -14.6916 O   0  0  0  0  0  0  0  0  0  0  0  0
   22.0805   -1.1589  -16.6813 O   0  0  0  0  0  0  0  0  0  0  0  0
   21.8398   -2.4751  -17.0483 C   0  0  0  0  0  0  0  0  0  0  0  0
   21.0419   -3.2029  -15.9584 C   0  0  2  0  0  0  0  0  0  0  0  0
   20.8123   -4.5559  -16.4272 N   0  0  0  0  0  0  0  0  0  0  0  0
   19.7408   -2.4596  -15.8416 C   0  0  0  0  0  0  0  0  0  0  0  0
   19.6156   -1.4295  -14.9214 O   0  0  0  0  0  0  0  0  0  0  0  0
   18.7476   -2.7311  -16.5481 O   0  0  0  0  0  0  0  0  0  0  0  0
  2  1  1  6
  3  2  1  0
  3  4  1  0
  4  5  2  0
  4  8  1  0
  6  2  1  0
  7  6  2  0
  9  6  1  0
 10 13  1  0
 10  9  1  0
 10 11  1  1
 12 11  1  0
 13 18  1  0
 14 13  2  0
 16 15  1  0
 17 16  1  6
 17 19  1  0
 18 17  1  0
 19 21  2  0
 19 20  1  0
M  END
$$$$
