DCS.pdb
     RDKit          3D

 21 20  0  0  1  0  0  0  0  0999 V2000
   18.8976  -11.0556  -16.6173 N   0  0  0  0  0  0  0  0  0  0  0  0
   19.2133   -9.8454  -17.3448 C   0  0  1  0  0  0  0  0  0  0  0  0
   18.0884   -9.5091  -18.3091 C   0  0  0  0  0  0  0  0  0  0  0  0
   18.0642  -10.5167  -19.3843 C   0  0  0  0  0  0  0  0  0  0  0  0
   16.9624  -11.0410  -19.7623 O   0  0  0  0  0  0  0  0  0  0  0  0
   19.4277   -8.7605  -16.3613 C   0  0  0  0  0  0  0  0  0  0  0  0
   18.5753   -8.5700  -15.4612 O   0  0  0  0  0  0  0  0  0  0  0  0
   19.1939  -10.9589  -20.0459 O   0  0  0  0  0  0  0  0  0  0  0  0
   20.5494   -7.9080  -16.3674 N   0  0  0  0  0  0  0  0  0  0  0  0
   20.7361   -6.7823  -15.4554 C   0  0  1  0  0  0  0  0  0  0  0  0
   22.0497   -7.0642  -14.7487 C   0  0  0  0  0  0  0  0  0  0  0  0
   22.5642   -5.7608  -13.6354 S   0  0  0  0  0  0  0  0  0  0  0  0
   20.6987   -5.5048  -16.1687 C   0  0  0  0  0  0  0  0  0  0  0  0
   21.3293   -5.4307  -17.2794 O   0  0  0  0  0  0  0  0  0  0  0  0
   18.6245   -1.2726  -17.1134 O   0  0  0  0  0  0  0  0  0  0  0  0
   18.6667   -2.4872  -16.4439 C   0  0  0  0  0  0  0  0  0  0  0  0
   20.0717   -3.0990  -16.5219 C   0  0  2  0  0  0  0  0  0  0  0  0
   20.0417   -4.3378  -15.7688 N   0  0  0  0  0  0  0  0  0  0  0  0
   20.9856   -2.1050  -15.8619 C   0  0  0  0  0  0  0  0  0  0  0  0
   21.6504   -1.1625  -16.6320 O   0  0  0  0  0  0  0  0  0  0  0  0
   21.1784   -2.0874  -14.6282 O   0  0  0  0  0  0  0  0  0  0  0  0
  2  1  1  1
  3  2  1  0
  3  4  1  0
  4  5  2  0
  4  8  1  0
  6  2  1  0
  7  6  2  0
  9  6  1  0
 10 13  1  0
 10  9  1  0
 10 11  1  6
 12 11  1  0
 13 18  1  0
 14 13  2  0
 16 15  1  0
 17 16  1  1
 17 19  1  0
 18 17  1  0
 19 21  2  0
 19 20  1  0
M  END
$$$$
