DCS.pdb
     RDKit          3D

 21 20  0  0  1  0  0  0  0  0999 V2000
   28.1839  -21.4356  -16.0459 N   0  0  0  0  0  0  0  0  0  0  0  0
   27.3937  -20.4351  -15.3616 C   0  0  1  0  0  0  0  0  0  0  0  0
   26.6229  -19.6007  -16.3706 C   0  0  0  0  0  0  0  0  0  0  0  0
   27.5770  -18.7877  -17.1457 C   0  0  0  0  0  0  0  0  0  0  0  0
   28.2138  -17.8272  -16.5947 O   0  0  0  0  0  0  0  0  0  0  0  0
   26.4837  -21.1303  -14.4240 C   0  0  0  0  0  0  0  0  0  0  0  0
   26.0631  -22.2762  -14.7121 O   0  0  0  0  0  0  0  0  0  0  0  0
   27.8486  -18.9938  -18.4848 O   0  0  0  0  0  0  0  0  0  0  0  0
   26.0480  -20.5800  -13.2024 N   0  0  0  0  0  0  0  0  0  0  0  0
   25.1153  -21.2342  -12.2880 C   0  0  1  0  0  0  0  0  0  0  0  0
   25.5483  -20.7900  -10.9026 C   0  0  0  0  0  0  0  0  0  0  0  0
   24.4013  -21.2474   -9.6070 S   0  0  0  0  0  0  0  0  0  0  0  0
   23.7270  -20.9086  -12.6177 C   0  0  0  0  0  0  0  0  0  0  0  0
   23.4073  -19.6708  -12.6681 O   0  0  0  0  0  0  0  0  0  0  0  0
   19.2536  -22.3580  -13.9258 O   0  0  0  0  0  0  0  0  0  0  0  0
   20.5862  -22.6524  -13.6759 C   0  0  0  0  0  0  0  0  0  0  0  0
   21.3286  -21.4091  -13.1684 C   0  0  2  0  0  0  0  0  0  0  0  0
   22.6939  -21.8100  -12.8888 N   0  0  0  0  0  0  0  0  0  0  0  0
   20.6291  -21.0069  -11.9004 C   0  0  0  0  0  0  0  0  0  0  0  0
   19.5683  -20.1150  -11.9514 O   0  0  0  0  0  0  0  0  0  0  0  0
   20.9647  -21.4468  -10.7808 O   0  0  0  0  0  0  0  0  0  0  0  0
  2  1  1  6
  3  2  1  0
  3  4  1  0
  4  5  2  0
  4  8  1  0
  6  2  1  0
  7  6  2  0
  9  6  1  0
 10 13  1  0
 10  9  1  0
 10 11  1  1
 12 11  1  0
 13 18  1  0
 14 13  2  0
 16 15  1  0
 17 16  1  1
 17 19  1  0
 18 17  1  0
 19 21  2  0
 19 20  1  0
M  END
$$$$
