DCS.pdb
     RDKit          3D

 21 20  0  0  1  0  0  0  0  0999 V2000
   19.6382  -12.4686  -16.8470 N   0  0  0  0  0  0  0  0  0  0  0  0
   18.7669  -11.3206  -16.7175 C   0  0  1  0  0  0  0  0  0  0  0  0
   17.3305  -11.7763  -16.5246 C   0  0  0  0  0  0  0  0  0  0  0  0
   16.7236  -12.0143  -17.8463 C   0  0  0  0  0  0  0  0  0  0  0  0
   17.1728  -11.4238  -18.8862 O   0  0  0  0  0  0  0  0  0  0  0  0
   19.2387  -10.5124  -15.5710 C   0  0  0  0  0  0  0  0  0  0  0  0
   19.1031  -10.9595  -14.4070 O   0  0  0  0  0  0  0  0  0  0  0  0
   15.6567  -12.8665  -18.0576 O   0  0  0  0  0  0  0  0  0  0  0  0
   19.8433   -9.2465  -15.7009 N   0  0  0  0  0  0  0  0  0  0  0  0
   20.3447   -8.4520  -14.5823 C   0  0  1  0  0  0  0  0  0  0  0  0
   21.5130   -9.2477  -14.0291 C   0  0  0  0  0  0  0  0  0  0  0  0
   22.8858   -9.3998  -15.1674 S   0  0  0  0  0  0  0  0  0  0  0  0
   20.6880   -7.0931  -15.0037 C   0  0  0  0  0  0  0  0  0  0  0  0
   21.2428   -6.9526  -16.1480 O   0  0  0  0  0  0  0  0  0  0  0  0
   18.6434   -3.8149  -14.8918 O   0  0  0  0  0  0  0  0  0  0  0  0
   19.8618   -3.5893  -14.2676 C   0  0  0  0  0  0  0  0  0  0  0  0
   20.9089   -4.6052  -14.7427 C   0  0  2  0  0  0  0  0  0  0  0  0
   20.4751   -5.9119  -14.2874 N   0  0  0  0  0  0  0  0  0  0  0  0
   22.1926   -4.2129  -14.0665 C   0  0  0  0  0  0  0  0  0  0  0  0
   22.9221   -3.1347  -14.5449 O   0  0  0  0  0  0  0  0  0  0  0  0
   22.6423   -4.8242  -13.0747 O   0  0  0  0  0  0  0  0  0  0  0  0
  2  1  1  1
  3  2  1  0
  3  4  1  0
  4  5  2  0
  4  8  1  0
  6  2  1  0
  7  6  2  0
  9  6  1  0
 10 13  1  0
 10  9  1  0
 10 11  1  6
 12 11  1  0
 13 18  1  0
 14 13  2  0
 16 15  1  0
 17 16  1  1
 17 19  1  0
 18 17  1  0
 19 21  2  0
 19 20  1  0
M  END
$$$$
