DCS.pdb
     RDKit          3D

 21 20  0  0  1  0  0  0  0  0999 V2000
   18.7139  -10.8891  -16.7042 N   0  0  0  0  0  0  0  0  0  0  0  0
   17.6756  -10.1209  -16.0519 C   0  0  1  0  0  0  0  0  0  0  0  0
   16.9280  -10.9941  -15.0586 C   0  0  0  0  0  0  0  0  0  0  0  0
   16.1531  -12.0048  -15.8002 C   0  0  0  0  0  0  0  0  0  0  0  0
   16.1140  -11.9892  -17.0770 O   0  0  0  0  0  0  0  0  0  0  0  0
   18.3110   -8.9623  -15.3854 C   0  0  0  0  0  0  0  0  0  0  0  0
   17.7063   -8.3832  -14.4516 O   0  0  0  0  0  0  0  0  0  0  0  0
   15.4319  -13.0150  -15.1931 O   0  0  0  0  0  0  0  0  0  0  0  0
   19.5772   -8.4541  -15.7366 N   0  0  0  0  0  0  0  0  0  0  0  0
   20.2304   -7.3308  -15.0690 C   0  0  1  0  0  0  0  0  0  0  0  0
   21.6706   -7.7713  -14.8794 C   0  0  0  0  0  0  0  0  0  0  0  0
   21.9023   -8.9161  -13.5233 S   0  0  0  0  0  0  0  0  0  0  0  0
   20.0757   -6.0920  -15.8330 C   0  0  0  0  0  0  0  0  0  0  0  0
   20.3510   -6.1308  -17.0818 O   0  0  0  0  0  0  0  0  0  0  0  0
   18.6232   -2.6757  -14.1644 O   0  0  0  0  0  0  0  0  0  0  0  0
   18.3562   -2.8371  -15.5163 C   0  0  0  0  0  0  0  0  0  0  0  0
   19.4450   -3.6869  -16.1847 C   0  0  2  0  0  0  0  0  0  0  0  0
   19.6541   -4.8515  -15.3463 N   0  0  0  0  0  0  0  0  0  0  0  0
   20.6772   -2.8266  -16.2053 C   0  0  0  0  0  0  0  0  0  0  0  0
   20.7145   -1.6950  -17.0063 O   0  0  0  0  0  0  0  0  0  0  0  0
   21.6891   -3.0878  -15.5218 O   0  0  0  0  0  0  0  0  0  0  0  0
  2  1  1  1
  3  2  1  0
  3  4  1  0
  4  5  2  0
  4  8  1  0
  6  2  1  0
  7  6  2  0
  9  6  1  0
 10 13  1  0
 10  9  1  0
 10 11  1  6
 12 11  1  0
 13 18  1  0
 14 13  2  0
 16 15  1  0
 17 16  1  1
 17 19  1  0
 18 17  1  0
 19 21  2  0
 19 20  1  0
M  END
$$$$
