DCS.pdb
     RDKit          3D

 21 20  0  0  1  0  0  0  0  0999 V2000
   23.4875  -19.0048  -16.2121 N   0  0  0  0  0  0  0  0  0  0  0  0
   22.3203  -18.2689  -15.7765 C   0  0  1  0  0  0  0  0  0  0  0  0
   21.7725  -18.8729  -14.4946 C   0  0  0  0  0  0  0  0  0  0  0  0
   21.1791  -20.1866  -14.8015 C   0  0  0  0  0  0  0  0  0  0  0  0
   20.9536  -20.5343  -16.0098 O   0  0  0  0  0  0  0  0  0  0  0  0
   22.7132  -16.8548  -15.5857 C   0  0  0  0  0  0  0  0  0  0  0  0
   21.9447  -16.0822  -14.9647 O   0  0  0  0  0  0  0  0  0  0  0  0
   20.8316  -21.1145  -13.8384 O   0  0  0  0  0  0  0  0  0  0  0  0
   23.9187  -16.3052  -16.0649 N   0  0  0  0  0  0  0  0  0  0  0  0
   24.2830  -14.8946  -15.9585 C   0  0  1  0  0  0  0  0  0  0  0  0
   25.7885  -14.8632  -16.1496 C   0  0  0  0  0  0  0  0  0  0  0  0
   26.7095  -15.4025  -14.7128 S   0  0  0  0  0  0  0  0  0  0  0  0
   23.5377  -14.0767  -16.9165 C   0  0  0  0  0  0  0  0  0  0  0  0
   23.4481  -14.5090  -18.1173 O   0  0  0  0  0  0  0  0  0  0  0  0
   20.1799  -10.7090  -17.7484 O   0  0  0  0  0  0  0  0  0  0  0  0
   21.0602  -11.3292  -16.8735 C   0  0  0  0  0  0  0  0  0  0  0  0
   22.1014  -12.1502  -17.6457 C   0  0  2  0  0  0  0  0  0  0  0  0
   22.9018  -12.8577  -16.6651 N   0  0  0  0  0  0  0  0  0  0  0  0
   22.9422  -11.1482  -18.3860 C   0  0  0  0  0  0  0  0  0  0  0  0
   24.1052  -10.6626  -17.8072 O   0  0  0  0  0  0  0  0  0  0  0  0
   22.6369  -10.7240  -19.5201 O   0  0  0  0  0  0  0  0  0  0  0  0
  2  1  1  1
  3  2  1  0
  3  4  1  0
  4  5  2  0
  4  8  1  0
  6  2  1  0
  7  6  2  0
  9  6  1  0
 10 13  1  0
 10  9  1  0
 10 11  1  6
 12 11  1  0
 13 18  1  0
 14 13  2  0
 16 15  1  0
 17 16  1  1
 17 19  1  0
 18 17  1  0
 19 21  2  0
 19 20  1  0
M  END
$$$$
