DCS.pdb
     RDKit          3D

 21 20  0  0  1  0  0  0  0  0999 V2000
   13.0147   -9.5478   -9.7248 N   0  0  0  0  0  0  0  0  0  0  0  0
   14.4164   -9.7386  -10.0288 C   0  0  1  0  0  0  0  0  0  0  0  0
   14.5689  -10.6691  -11.2201 C   0  0  0  0  0  0  0  0  0  0  0  0
   14.1578  -12.0268  -10.8208 C   0  0  0  0  0  0  0  0  0  0  0  0
   13.4455  -12.7479  -11.5984 O   0  0  0  0  0  0  0  0  0  0  0  0
   15.0135   -8.4111  -10.2970 C   0  0  0  0  0  0  0  0  0  0  0  0
   14.5176   -7.6836  -11.1903 O   0  0  0  0  0  0  0  0  0  0  0  0
   14.4991  -12.6073   -9.6142 O   0  0  0  0  0  0  0  0  0  0  0  0
   16.1259   -7.8975   -9.6015 N   0  0  0  0  0  0  0  0  0  0  0  0
   16.7379   -6.5980   -9.8671 C   0  0  1  0  0  0  0  0  0  0  0  0
   16.5058   -5.7899   -8.6032 C   0  0  0  0  0  0  0  0  0  0  0  0
   14.7891   -5.3700   -8.3204 S   0  0  0  0  0  0  0  0  0  0  0  0
   18.1457   -6.7371  -10.2423 C   0  0  0  0  0  0  0  0  0  0  0  0
   18.8534   -7.5714   -9.5789 O   0  0  0  0  0  0  0  0  0  0  0  0
   21.1361   -8.2043  -13.0419 O   0  0  0  0  0  0  0  0  0  0  0  0
   19.9613   -7.8227  -12.4100 C   0  0  0  0  0  0  0  0  0  0  0  0
   20.1183   -6.4383  -11.7673 C   0  0  2  0  0  0  0  0  0  0  0  0
   18.8162   -6.0519  -11.2593 N   0  0  0  0  0  0  0  0  0  0  0  0
   20.5425   -5.5194  -12.8784 C   0  0  0  0  0  0  0  0  0  0  0  0
   19.5924   -5.0048  -13.7479 O   0  0  0  0  0  0  0  0  0  0  0  0
   21.7337   -5.1910  -13.0593 O   0  0  0  0  0  0  0  0  0  0  0  0
  2  1  1  6
  3  2  1  0
  3  4  1  0
  4  5  2  0
  4  8  1  0
  6  2  1  0
  7  6  2  0
  9  6  1  0
 10 13  1  0
 10  9  1  0
 10 11  1  1
 12 11  1  0
 13 18  1  0
 14 13  2  0
 16 15  1  0
 17 16  1  6
 17 19  1  0
 18 17  1  0
 19 21  2  0
 19 20  1  0
M  END
$$$$
