DCS.pdb
     RDKit          3D

 21 20  0  0  1  0  0  0  0  0999 V2000
   19.5948  -13.3881  -15.9563 N   0  0  0  0  0  0  0  0  0  0  0  0
   19.2285  -12.0556  -16.3853 C   0  0  1  0  0  0  0  0  0  0  0  0
   17.7454  -11.8228  -16.1521 C   0  0  0  0  0  0  0  0  0  0  0  0
   16.9774  -12.7506  -17.0015 C   0  0  0  0  0  0  0  0  0  0  0  0
   17.3335  -12.9780  -18.2070 O   0  0  0  0  0  0  0  0  0  0  0  0
   20.0552  -11.0866  -15.6316 C   0  0  0  0  0  0  0  0  0  0  0  0
   19.9728  -11.0511  -14.3806 O   0  0  0  0  0  0  0  0  0  0  0  0
   15.8492  -13.4248  -16.5749 O   0  0  0  0  0  0  0  0  0  0  0  0
   20.9483  -10.1809  -16.2374 N   0  0  0  0  0  0  0  0  0  0  0  0
   21.8748   -9.3205  -15.5058 C   0  0  1  0  0  0  0  0  0  0  0  0
   23.2357   -9.6009  -16.1170 C   0  0  0  0  0  0  0  0  0  0  0  0
   24.0253  -11.0732  -15.4752 S   0  0  0  0  0  0  0  0  0  0  0  0
   21.4642   -7.9171  -15.5695 C   0  0  0  0  0  0  0  0  0  0  0  0
   21.0594   -7.4715  -16.6984 O   0  0  0  0  0  0  0  0  0  0  0  0
   19.6935   -3.9474  -13.6249 O   0  0  0  0  0  0  0  0  0  0  0  0
   20.0729   -5.2808  -13.5690 C   0  0  0  0  0  0  0  0  0  0  0  0
   21.0872   -5.6012  -14.6748 C   0  0  2  0  0  0  0  0  0  0  0  0
   21.4632   -6.9932  -14.5207 N   0  0  0  0  0  0  0  0  0  0  0  0
   22.2670   -4.7067  -14.4163 C   0  0  0  0  0  0  0  0  0  0  0  0
   22.3765   -3.4986  -15.0886 O   0  0  0  0  0  0  0  0  0  0  0  0
   23.1714   -5.0060  -13.6088 O   0  0  0  0  0  0  0  0  0  0  0  0
  2  1  1  1
  3  2  1  0
  3  4  1  0
  4  5  2  0
  4  8  1  0
  6  2  1  0
  7  6  2  0
  9  6  1  0
 10 13  1  0
 10  9  1  0
 10 11  1  6
 12 11  1  0
 13 18  1  0
 14 13  2  0
 16 15  1  0
 17 16  1  1
 17 19  1  0
 18 17  1  0
 19 21  2  0
 19 20  1  0
M  END
$$$$
