DCS.pdb
     RDKit          3D

 21 20  0  0  1  0  0  0  0  0999 V2000
   18.1468  -13.3272  -17.0524 N   0  0  0  0  0  0  0  0  0  0  0  0
   19.3455  -12.6757  -16.5705 C   0  0  1  0  0  0  0  0  0  0  0  0
   20.5666  -13.2487  -17.2697 C   0  0  0  0  0  0  0  0  0  0  0  0
   20.7341  -14.6550  -16.8618 C   0  0  0  0  0  0  0  0  0  0  0  0
   20.8943  -15.5730  -17.7355 O   0  0  0  0  0  0  0  0  0  0  0  0
   19.2102  -11.2228  -16.8179 C   0  0  0  0  0  0  0  0  0  0  0  0
   18.7422  -10.8270  -17.9121 O   0  0  0  0  0  0  0  0  0  0  0  0
   20.7313  -15.0768  -15.5459 O   0  0  0  0  0  0  0  0  0  0  0  0
   19.5798  -10.2320  -15.8870 N   0  0  0  0  0  0  0  0  0  0  0  0
   19.3910   -8.7976  -16.0890 C   0  0  1  0  0  0  0  0  0  0  0  0
   18.0415   -8.4884  -15.4666 C   0  0  0  0  0  0  0  0  0  0  0  0
   17.7266   -6.7388  -15.2591 S   0  0  0  0  0  0  0  0  0  0  0  0
   20.5027   -8.0283  -15.5282 C   0  0  0  0  0  0  0  0  0  0  0  0
   20.9235   -8.3606  -14.3666 O   0  0  0  0  0  0  0  0  0  0  0  0
   23.7996   -4.4514  -15.9818 O   0  0  0  0  0  0  0  0  0  0  0  0
   22.7278   -5.1655  -16.4977 C   0  0  0  0  0  0  0  0  0  0  0  0
   22.3054   -6.2800  -15.5313 C   0  0  2  0  0  0  0  0  0  0  0  0
   21.1683   -6.9549  -16.1268 N   0  0  0  0  0  0  0  0  0  0  0  0
   21.8986   -5.5856  -14.2621 C   0  0  0  0  0  0  0  0  0  0  0  0
   22.7895   -5.5096  -13.2019 O   0  0  0  0  0  0  0  0  0  0  0  0
   20.7739   -5.0634  -14.1141 O   0  0  0  0  0  0  0  0  0  0  0  0
  2  1  1  6
  3  2  1  0
  3  4  1  0
  4  5  2  0
  4  8  1  0
  6  2  1  0
  7  6  2  0
  9  6  1  0
 10 13  1  0
 10  9  1  0
 10 11  1  1
 12 11  1  0
 13 18  1  0
 14 13  2  0
 16 15  1  0
 17 16  1  6
 17 19  1  0
 18 17  1  0
 19 21  2  0
 19 20  1  0
M  END
$$$$
