DCS.pdb
     RDKit          3D

 21 20  0  0  1  0  0  0  0  0999 V2000
   23.7624  -13.5022  -18.2544 N   0  0  0  0  0  0  0  0  0  0  0  0
   23.6540  -12.1287  -18.6965 C   0  0  1  0  0  0  0  0  0  0  0  0
   22.3511  -11.9258  -19.4511 C   0  0  0  0  0  0  0  0  0  0  0  0
   22.3727  -12.7519  -20.6714 C   0  0  0  0  0  0  0  0  0  0  0  0
   23.3774  -12.7248  -21.4598 O   0  0  0  0  0  0  0  0  0  0  0  0
   23.7329  -11.2546  -17.5048 C   0  0  0  0  0  0  0  0  0  0  0  0
   23.0312  -11.5210  -16.5000 O   0  0  0  0  0  0  0  0  0  0  0  0
   21.3422  -13.5927  -21.0461 O   0  0  0  0  0  0  0  0  0  0  0  0
   24.5612  -10.1180  -17.4205 N   0  0  0  0  0  0  0  0  0  0  0  0
   24.6886   -9.2752  -16.2341 C   0  0  1  0  0  0  0  0  0  0  0  0
   26.1837   -9.1157  -16.0254 C   0  0  0  0  0  0  0  0  0  0  0  0
   26.9988  -10.6110  -15.4749 S   0  0  0  0  0  0  0  0  0  0  0  0
   23.9656   -8.0129  -16.3954 C   0  0  0  0  0  0  0  0  0  0  0  0
   24.2183   -7.3175  -17.4392 O   0  0  0  0  0  0  0  0  0  0  0  0
   20.8381   -6.9983  -14.0319 O   0  0  0  0  0  0  0  0  0  0  0  0
   20.8563   -6.4411  -15.3025 C   0  0  0  0  0  0  0  0  0  0  0  0
   22.2992   -6.2370  -15.7827 C   0  0  2  0  0  0  0  0  0  0  0  0
   23.0147   -7.4719  -15.5256 N   0  0  0  0  0  0  0  0  0  0  0  0
   22.8546   -5.1230  -14.9404 C   0  0  0  0  0  0  0  0  0  0  0  0
   22.3590   -3.8359  -15.0859 O   0  0  0  0  0  0  0  0  0  0  0  0
   23.7593   -5.3053  -14.0991 O   0  0  0  0  0  0  0  0  0  0  0  0
  2  1  1  1
  3  2  1  0
  3  4  1  0
  4  5  2  0
  4  8  1  0
  6  2  1  0
  7  6  2  0
  9  6  1  0
 10 13  1  0
 10  9  1  0
 10 11  1  6
 12 11  1  0
 13 18  1  0
 14 13  2  0
 16 15  1  0
 17 16  1  1
 17 19  1  0
 18 17  1  0
 19 21  2  0
 19 20  1  0
M  END
$$$$
