DCS.pdb
     RDKit          3D

 21 20  0  0  1  0  0  0  0  0999 V2000
   19.6789  -12.6652  -16.6480 N   0  0  0  0  0  0  0  0  0  0  0  0
   19.5631  -11.2848  -17.0663 C   0  0  1  0  0  0  0  0  0  0  0  0
   18.2227  -11.0569  -17.7442 C   0  0  0  0  0  0  0  0  0  0  0  0
   18.1865  -11.8260  -19.0008 C   0  0  0  0  0  0  0  0  0  0  0  0
   18.9388  -11.5072  -19.9827 O   0  0  0  0  0  0  0  0  0  0  0  0
   19.7193  -10.4274  -15.8701 C   0  0  0  0  0  0  0  0  0  0  0  0
   18.9468  -10.5868  -14.8949 O   0  0  0  0  0  0  0  0  0  0  0  0
   17.3633  -12.9162  -19.2087 O   0  0  0  0  0  0  0  0  0  0  0  0
   20.6986   -9.4218  -15.7496 N   0  0  0  0  0  0  0  0  0  0  0  0
   20.8917   -8.5953  -14.5606 C   0  0  1  0  0  0  0  0  0  0  0  0
   22.0362   -9.2509  -13.8093 C   0  0  0  0  0  0  0  0  0  0  0  0
   23.4394   -9.6567  -14.8434 S   0  0  0  0  0  0  0  0  0  0  0  0
   21.1288   -7.1954  -14.9158 C   0  0  0  0  0  0  0  0  0  0  0  0
   21.8192   -6.9624  -15.9675 O   0  0  0  0  0  0  0  0  0  0  0  0
   18.6417   -4.2097  -14.8096 O   0  0  0  0  0  0  0  0  0  0  0  0
   19.8131   -3.8255  -14.1731 C   0  0  0  0  0  0  0  0  0  0  0  0
   20.9868   -4.7053  -14.6238 C   0  0  2  0  0  0  0  0  0  0  0  0
   20.6794   -6.0656  -14.2265 N   0  0  0  0  0  0  0  0  0  0  0  0
   22.1868   -4.1978  -13.8747 C   0  0  0  0  0  0  0  0  0  0  0  0
   22.7524   -2.9801  -14.2227 O   0  0  0  0  0  0  0  0  0  0  0  0
   22.7091   -4.8333  -12.9352 O   0  0  0  0  0  0  0  0  0  0  0  0
  2  1  1  1
  3  2  1  0
  3  4  1  0
  4  5  2  0
  4  8  1  0
  6  2  1  0
  7  6  2  0
  9  6  1  0
 10 13  1  0
 10  9  1  0
 10 11  1  6
 12 11  1  0
 13 18  1  0
 14 13  2  0
 16 15  1  0
 17 16  1  1
 17 19  1  0
 18 17  1  0
 19 21  2  0
 19 20  1  0
M  END
$$$$
