DCS.pdb
     RDKit          3D

 21 20  0  0  1  0  0  0  0  0999 V2000
   24.1413  -21.1619  -10.5045 N   0  0  0  0  0  0  0  0  0  0  0  0
   23.5862  -20.8382  -11.8010 C   0  0  1  0  0  0  0  0  0  0  0  0
   22.3169  -20.0202  -11.6345 C   0  0  0  0  0  0  0  0  0  0  0  0
   21.1982  -20.9310  -11.3331 C   0  0  0  0  0  0  0  0  0  0  0  0
   21.3911  -22.1896  -11.2308 O   0  0  0  0  0  0  0  0  0  0  0  0
   24.6124  -20.0978  -12.5685 C   0  0  0  0  0  0  0  0  0  0  0  0
   24.6915  -18.8521  -12.4456 O   0  0  0  0  0  0  0  0  0  0  0  0
   19.8960  -20.5092  -11.1439 O   0  0  0  0  0  0  0  0  0  0  0  0
   25.5270  -20.7108  -13.4476 N   0  0  0  0  0  0  0  0  0  0  0  0
   26.5586  -19.9967  -14.1957 C   0  0  1  0  0  0  0  0  0  0  0  0
   27.7268  -20.9630  -14.2722 C   0  0  0  0  0  0  0  0  0  0  0  0
   28.4297  -21.3728  -12.6780 S   0  0  0  0  0  0  0  0  0  0  0  0
   26.0614  -19.5496  -15.4977 C   0  0  0  0  0  0  0  0  0  0  0  0
   25.2499  -20.3215  -16.1161 O   0  0  0  0  0  0  0  0  0  0  0  0
   25.2997  -15.7747  -16.4183 O   0  0  0  0  0  0  0  0  0  0  0  0
   25.9282  -16.4058  -17.4822 C   0  0  0  0  0  0  0  0  0  0  0  0
   25.7514  -17.9271  -17.3891 C   0  0  2  0  0  0  0  0  0  0  0  0
   26.3766  -18.3560  -16.1529 N   0  0  0  0  0  0  0  0  0  0  0  0
   26.4835  -18.4950  -18.5726 C   0  0  0  0  0  0  0  0  0  0  0  0
   25.8609  -18.5410  -19.8110 O   0  0  0  0  0  0  0  0  0  0  0  0
   27.6489  -18.9361  -18.4917 O   0  0  0  0  0  0  0  0  0  0  0  0
  2  1  1  1
  3  2  1  0
  3  4  1  0
  4  5  2  0
  4  8  1  0
  6  2  1  0
  7  6  2  0
  9  6  1  0
 10 13  1  0
 10  9  1  0
 10 11  1  6
 12 11  1  0
 13 18  1  0
 14 13  2  0
 16 15  1  0
 17 16  1  6
 17 19  1  0
 18 17  1  0
 19 21  2  0
 19 20  1  0
M  END
$$$$
