DCS.pdb
     RDKit          3D

 21 20  0  0  1  0  0  0  0  0999 V2000
   18.6057  -11.1501  -15.5669 N   0  0  0  0  0  0  0  0  0  0  0  0
   17.9747   -9.8718  -15.8146 C   0  0  1  0  0  0  0  0  0  0  0  0
   16.4753   -9.9799  -15.5943 C   0  0  0  0  0  0  0  0  0  0  0  0
   15.8949  -10.8134  -16.6623 C   0  0  0  0  0  0  0  0  0  0  0  0
   15.0020  -11.6870  -16.3955 O   0  0  0  0  0  0  0  0  0  0  0  0
   18.5859   -8.8741  -14.9083 C   0  0  0  0  0  0  0  0  0  0  0  0
   18.3070   -8.9025  -13.6858 O   0  0  0  0  0  0  0  0  0  0  0  0
   16.2589  -10.7184  -17.9919 O   0  0  0  0  0  0  0  0  0  0  0  0
   19.4797   -7.8721  -15.3350 N   0  0  0  0  0  0  0  0  0  0  0  0
   20.1673   -6.9437  -14.4410 C   0  0  1  0  0  0  0  0  0  0  0  0
   21.5776   -7.4913  -14.3166 C   0  0  0  0  0  0  0  0  0  0  0  0
   22.7003   -6.4021  -13.4470 S   0  0  0  0  0  0  0  0  0  0  0  0
   20.0972   -5.5699  -14.9410 C   0  0  0  0  0  0  0  0  0  0  0  0
   20.4875   -5.3581  -16.1408 O   0  0  0  0  0  0  0  0  0  0  0  0
   18.6946   -0.9407  -14.4256 O   0  0  0  0  0  0  0  0  0  0  0  0
   18.7100   -2.2496  -13.9655 C   0  0  0  0  0  0  0  0  0  0  0  0
   19.7016   -3.0956  -14.7750 C   0  0  2  0  0  0  0  0  0  0  0  0
   19.6447   -4.4447  -14.2462 N   0  0  0  0  0  0  0  0  0  0  0  0
   21.0537   -2.4894  -14.5238 C   0  0  0  0  0  0  0  0  0  0  0  0
   21.5844   -1.5872  -15.4335 O   0  0  0  0  0  0  0  0  0  0  0  0
   21.7353   -2.7654  -13.5145 O   0  0  0  0  0  0  0  0  0  0  0  0
  2  1  1  1
  3  2  1  0
  3  4  1  0
  4  5  2  0
  4  8  1  0
  6  2  1  0
  7  6  2  0
  9  6  1  0
 10 13  1  0
 10  9  1  0
 10 11  1  6
 12 11  1  0
 13 18  1  0
 14 13  2  0
 16 15  1  0
 17 16  1  1
 17 19  1  0
 18 17  1  0
 19 21  2  0
 19 20  1  0
M  END
$$$$
