DCS.pdb
     RDKit          3D

 21 20  0  0  1  0  0  0  0  0999 V2000
   15.0457  -11.9570  -12.6375 N   0  0  0  0  0  0  0  0  0  0  0  0
   15.9787  -10.8878  -12.3546 C   0  0  1  0  0  0  0  0  0  0  0  0
   16.7087  -10.4842  -13.6244 C   0  0  0  0  0  0  0  0  0  0  0  0
   17.5604  -11.6046  -14.0620 C   0  0  0  0  0  0  0  0  0  0  0  0
   17.9299  -12.5049  -13.2345 O   0  0  0  0  0  0  0  0  0  0  0  0
   15.2190   -9.7543  -11.7817 C   0  0  0  0  0  0  0  0  0  0  0  0
   14.2054   -9.3270  -12.3843 O   0  0  0  0  0  0  0  0  0  0  0  0
   18.0110  -11.7640  -15.3584 O   0  0  0  0  0  0  0  0  0  0  0  0
   15.5646   -9.1081  -10.5783 N   0  0  0  0  0  0  0  0  0  0  0  0
   14.7615   -8.0688   -9.9389 C   0  0  1  0  0  0  0  0  0  0  0  0
   14.2529   -8.7005   -8.6558 C   0  0  0  0  0  0  0  0  0  0  0  0
   13.1040  -10.0470   -8.9206 S   0  0  0  0  0  0  0  0  0  0  0  0
   15.5351   -6.8423   -9.7403 C   0  0  0  0  0  0  0  0  0  0  0  0
   16.6883   -6.9536   -9.1974 O   0  0  0  0  0  0  0  0  0  0  0  0
   14.4723   -3.4300  -11.4591 O   0  0  0  0  0  0  0  0  0  0  0  0
   15.7900   -3.4269  -11.0247 C   0  0  0  0  0  0  0  0  0  0  0  0
   15.9668   -4.3700   -9.8274 C   0  0  2  0  0  0  0  0  0  0  0  0
   15.1520   -5.5423  -10.0819 N   0  0  0  0  0  0  0  0  0  0  0  0
   15.4459   -3.6169   -8.6357 C   0  0  0  0  0  0  0  0  0  0  0  0
   16.1264   -2.4998   -8.1749 O   0  0  0  0  0  0  0  0  0  0  0  0
   14.4086   -3.9564   -8.0288 O   0  0  0  0  0  0  0  0  0  0  0  0
  2  1  1  6
  3  2  1  0
  3  4  1  0
  4  5  2  0
  4  8  1  0
  6  2  1  0
  7  6  2  0
  9  6  1  0
 10 13  1  0
 10  9  1  0
 10 11  1  1
 12 11  1  0
 13 18  1  0
 14 13  2  0
 16 15  1  0
 17 16  1  6
 17 19  1  0
 18 17  1  0
 19 21  2  0
 19 20  1  0
M  END
$$$$
