YTQ.pdb
     RDKit          3D

 29 29  0  0  1  0  0  0  0  0999 V2000
    8.0231  -12.0711   16.7596 O   0  0  0  0  0  0  0  0  0  0  0  0
    7.8151  -12.8096   17.9269 C   0  0  0  0  0  0  0  0  0  0  0  0
    7.2775  -14.0792   17.8600 C   0  0  0  0  0  0  0  0  0  0  0  0
    7.0623  -14.8289   18.9980 C   0  0  0  0  0  0  0  0  0  0  0  0
    7.3908  -14.2987   20.2241 C   0  0  0  0  0  0  0  0  0  0  0  0
    7.1763  -15.0678   21.4665 C   0  0  0  0  0  0  0  0  0  0  0  0
    7.8655  -16.4221   21.4169 C   0  0  2  0  0  0  0  0  0  0  0  0
    7.1179  -17.3915   20.6848 N   0  0  0  0  0  0  0  0  0  0  0  0
    8.1195  -16.8226   22.8255 C   0  0  0  0  0  0  0  0  0  0  0  0
    7.1358  -17.1859   23.5196 O   0  0  0  0  0  0  0  0  0  0  0  0
    7.9268  -13.0393   20.3209 C   0  0  0  0  0  0  0  0  0  0  0  0
    8.1351  -12.3038   19.1719 C   0  0  0  0  0  0  0  0  0  0  0  0
    9.9356  -19.4964   24.0198 C   0  0  0  0  0  0  0  0  0  0  0  0
   10.6216  -18.3712   24.7672 C   0  0  1  0  0  0  0  0  0  0  0  0
   11.7957  -18.0691   24.0998 O   0  0  0  0  0  0  0  0  0  0  0  0
    9.6521  -17.2002   24.7915 C   0  0  2  0  0  0  0  0  0  0  0  0
    9.3937  -16.8200   23.4290 N   0  0  0  0  0  0  0  0  0  0  0  0
   10.2177  -16.0644   25.5871 C   0  0  0  0  0  0  0  0  0  0  0  0
   11.0661  -15.2923   25.0693 O   0  0  0  0  0  0  0  0  0  0  0  0
    7.1556  -12.0022   26.3486 N   0  0  0  0  0  0  0  0  0  0  0  0
    7.2103  -12.8709   27.4658 C   0  0  0  0  0  0  0  0  0  0  0  0
    6.5222  -12.6466   28.4680 O   0  0  0  0  0  0  0  0  0  0  0  0
    8.0985  -14.0533   27.4281 C   0  0  0  0  0  0  0  0  0  0  0  0
    9.4982  -13.6224   27.7873 C   0  0  0  0  0  0  0  0  0  0  0  0
   10.4649  -14.7990   27.7561 C   0  0  2  0  0  0  0  0  0  0  0  0
    9.8401  -15.8090   26.9182 N   0  0  0  0  0  0  0  0  0  0  0  0
   10.6578  -15.2471   29.1360 C   0  0  0  0  0  0  0  0  0  0  0  0
   10.3424  -16.5392   29.4964 O   0  0  0  0  0  0  0  0  0  0  0  0
   11.1085  -14.4647   29.9957 O   0  0  0  0  0  0  0  0  0  0  0  0
  2  1  1  0
  3  2  2  0
  4  3  1  0
  5 11  1  0
  5  4  2  0
  6  7  1  0
  6  5  1  0
  7  9  1  0
  7  8  1  1
  9 17  1  0
 10  9  2  0
 11 12  2  0
 12  2  1  0
 14 13  1  6
 15 14  1  0
 16 18  1  0
 16 14  1  0
 16 17  1  6
 18 26  1  0
 19 18  2  0
 20 21  1  0
 21 23  1  0
 21 22  2  0
 23 24  1  0
 25 24  1  1
 25 27  1  0
 26 25  1  0
 27 29  2  0
 27 28  1  0
M  END
$$$$
