YTQ.pdb
     RDKit          3D

 29 29  0  0  1  0  0  0  0  0999 V2000
    8.2402  -12.1814   17.7524 O   0  0  0  0  0  0  0  0  0  0  0  0
    8.0970  -12.9373   18.9181 C   0  0  0  0  0  0  0  0  0  0  0  0
    7.6520  -14.2422   18.8505 C   0  0  0  0  0  0  0  0  0  0  0  0
    7.5021  -15.0099   19.9869 C   0  0  0  0  0  0  0  0  0  0  0  0
    7.8027  -14.4620   21.2125 C   0  0  0  0  0  0  0  0  0  0  0  0
    7.6559  -15.2492   22.4533 C   0  0  0  0  0  0  0  0  0  0  0  0
    7.0081  -16.5994   22.1905 C   0  0  2  0  0  0  0  0  0  0  0  0
    5.6330  -16.4868   21.8283 N   0  0  0  0  0  0  0  0  0  0  0  0
    7.2252  -17.4206   23.4102 C   0  0  0  0  0  0  0  0  0  0  0  0
    6.2296  -18.0024   23.9117 O   0  0  0  0  0  0  0  0  0  0  0  0
    8.2471  -13.1675   21.3100 C   0  0  0  0  0  0  0  0  0  0  0  0
    8.3910  -12.4145   20.1625 C   0  0  0  0  0  0  0  0  0  0  0  0
    7.2475  -19.9465   23.6733 C   0  0  0  0  0  0  0  0  0  0  0  0
    8.6051  -19.9513   24.3459 C   0  0  1  0  0  0  0  0  0  0  0  0
    9.5626  -20.1784   23.3729 O   0  0  0  0  0  0  0  0  0  0  0  0
    8.7717  -18.5970   25.0168 C   0  0  2  0  0  0  0  0  0  0  0  0
    8.4770  -17.5863   24.0373 N   0  0  0  0  0  0  0  0  0  0  0  0
   10.1562  -18.4490   25.5680 C   0  0  0  0  0  0  0  0  0  0  0  0
   11.1131  -18.1632   24.8021 O   0  0  0  0  0  0  0  0  0  0  0  0
    8.6570  -14.2109   26.9582 N   0  0  0  0  0  0  0  0  0  0  0  0
    9.6225  -14.0689   27.9846 C   0  0  0  0  0  0  0  0  0  0  0  0
    9.9605  -12.9459   28.3756 O   0  0  0  0  0  0  0  0  0  0  0  0
   10.2274  -15.2757   28.5895 C   0  0  0  0  0  0  0  0  0  0  0  0
    9.8326  -16.4800   27.7725 C   0  0  0  0  0  0  0  0  0  0  0  0
   10.9196  -17.5466   27.7973 C   0  0  2  0  0  0  0  0  0  0  0  0
   10.4505  -18.6173   26.9337 N   0  0  0  0  0  0  0  0  0  0  0  0
   11.0875  -17.9719   29.1877 C   0  0  0  0  0  0  0  0  0  0  0  0
   10.4262  -19.0860   29.6571 O   0  0  0  0  0  0  0  0  0  0  0  0
   11.8291  -17.3307   29.9579 O   0  0  0  0  0  0  0  0  0  0  0  0
  2  1  1  0
  3  2  2  0
  4  3  1  0
  5 11  1  0
  5  4  2  0
  6  7  1  0
  6  5  1  0
  7  9  1  0
  7  8  1  1
  9 17  1  0
 10  9  2  0
 11 12  2  0
 12  2  1  0
 14 13  1  6
 15 14  1  0
 16 18  1  0
 16 14  1  0
 16 17  1  6
 18 26  1  0
 19 18  2  0
 20 21  1  0
 21 23  1  0
 21 22  2  0
 23 24  1  0
 25 24  1  1
 25 27  1  0
 26 25  1  0
 27 29  2  0
 27 28  1  0
M  END
$$$$
