YTQ.pdb
     RDKit          3D

 29 29  0  0  1  0  0  0  0  0999 V2000
    8.2669  -11.2474   18.5536 O   0  0  0  0  0  0  0  0  0  0  0  0
    8.4171  -12.3479   19.4006 C   0  0  0  0  0  0  0  0  0  0  0  0
    7.3074  -13.0282   19.8601 C   0  0  0  0  0  0  0  0  0  0  0  0
    7.4288  -14.1179   20.6975 C   0  0  0  0  0  0  0  0  0  0  0  0
    8.6825  -14.5338   21.0817 C   0  0  0  0  0  0  0  0  0  0  0  0
    8.8564  -15.6954   21.9770 C   0  0  0  0  0  0  0  0  0  0  0  0
    9.3641  -16.9153   21.2250 C   0  0  2  0  0  0  0  0  0  0  0  0
    8.4784  -17.3265   20.1851 N   0  0  0  0  0  0  0  0  0  0  0  0
    9.6026  -17.9734   22.2412 C   0  0  0  0  0  0  0  0  0  0  0  0
    8.6007  -18.5567   22.7284 O   0  0  0  0  0  0  0  0  0  0  0  0
    9.8033  -13.8767   20.6406 C   0  0  0  0  0  0  0  0  0  0  0  0
    9.6628  -12.7887   19.8034 C   0  0  0  0  0  0  0  0  0  0  0  0
   11.1630  -20.9651   21.6248 C   0  0  0  0  0  0  0  0  0  0  0  0
   11.9947  -20.4723   22.7914 C   0  0  1  0  0  0  0  0  0  0  0  0
   13.1430  -19.8921   22.2818 O   0  0  0  0  0  0  0  0  0  0  0  0
   11.1363  -19.4794   23.5589 C   0  0  2  0  0  0  0  0  0  0  0  0
   10.8811  -18.3617   22.6909 N   0  0  0  0  0  0  0  0  0  0  0  0
   11.8215  -19.0565   24.8216 C   0  0  0  0  0  0  0  0  0  0  0  0
   12.4509  -17.9675   24.8638 O   0  0  0  0  0  0  0  0  0  0  0  0
   10.9073  -21.7606   30.3249 N   0  0  0  0  0  0  0  0  0  0  0  0
   11.9467  -20.8679   30.6837 C   0  0  0  0  0  0  0  0  0  0  0  0
   12.3333  -20.7953   31.8556 O   0  0  0  0  0  0  0  0  0  0  0  0
   12.5704  -20.0188   29.6452 C   0  0  0  0  0  0  0  0  0  0  0  0
   11.8726  -20.2650   28.3313 C   0  0  0  0  0  0  0  0  0  0  0  0
   12.5488  -19.5088   27.1951 C   0  0  2  0  0  0  0  0  0  0  0  0
   11.7975  -19.8340   25.9942 N   0  0  0  0  0  0  0  0  0  0  0  0
   13.9400  -19.9592   27.1330 C   0  0  0  0  0  0  0  0  0  0  0  0
   14.9306  -19.2417   27.7676 O   0  0  0  0  0  0  0  0  0  0  0  0
   14.2400  -20.9944   26.5063 O   0  0  0  0  0  0  0  0  0  0  0  0
  2  1  1  0
  3  2  2  0
  4  3  1  0
  5 11  1  0
  5  4  2  0
  6  7  1  0
  6  5  1  0
  7  9  1  0
  7  8  1  6
  9 17  1  0
 10  9  2  0
 11 12  2  0
 12  2  1  0
 14 13  1  6
 15 14  1  0
 16 18  1  0
 16 14  1  0
 16 17  1  6
 18 26  1  0
 19 18  2  0
 20 21  1  0
 21 23  1  0
 21 22  2  0
 23 24  1  0
 25 24  1  1
 25 27  1  0
 26 25  1  0
 27 29  2  0
 27 28  1  0
M  END
$$$$
