YTQ.pdb
     RDKit          3D

 29 29  0  0  1  0  0  0  0  0999 V2000
   18.0677  -14.8388   16.6815 O   0  0  0  0  0  0  0  0  0  0  0  0
   16.9005  -14.7474   17.4433 C   0  0  0  0  0  0  0  0  0  0  0  0
   16.3975  -15.8632   18.0815 C   0  0  0  0  0  0  0  0  0  0  0  0
   15.2466  -15.7994   18.8396 C   0  0  0  0  0  0  0  0  0  0  0  0
   14.5877  -14.5979   18.9611 C   0  0  0  0  0  0  0  0  0  0  0  0
   13.3526  -14.4865   19.7629 C   0  0  0  0  0  0  0  0  0  0  0  0
   12.1990  -15.2479   19.1295 C   0  0  2  0  0  0  0  0  0  0  0  0
   11.6183  -14.5487   18.0300 N   0  0  0  0  0  0  0  0  0  0  0  0
   11.2283  -15.5335   20.2181 C   0  0  0  0  0  0  0  0  0  0  0  0
   10.1015  -14.9780   20.1613 O   0  0  0  0  0  0  0  0  0  0  0  0
   15.0646  -13.4723   18.3378 C   0  0  0  0  0  0  0  0  0  0  0  0
   16.2173  -13.5550   17.5835 C   0  0  0  0  0  0  0  0  0  0  0  0
    9.4169  -18.1702   20.8682 C   0  0  0  0  0  0  0  0  0  0  0  0
   10.0791  -18.0780   22.2277 C   0  0  1  0  0  0  0  0  0  0  0  0
   11.1104  -19.0000   22.2635 O   0  0  0  0  0  0  0  0  0  0  0  0
   10.5748  -16.6490   22.3827 C   0  0  2  0  0  0  0  0  0  0  0  0
   11.4938  -16.3876   21.3080 N   0  0  0  0  0  0  0  0  0  0  0  0
   11.2173  -16.4566   23.7217 C   0  0  0  0  0  0  0  0  0  0  0  0
   12.4468  -16.6815   23.8698 O   0  0  0  0  0  0  0  0  0  0  0  0
    9.5980  -14.1180   30.5647 N   0  0  0  0  0  0  0  0  0  0  0  0
    9.6260  -14.0610   29.1498 C   0  0  0  0  0  0  0  0  0  0  0  0
    8.8347  -13.3360   28.5364 O   0  0  0  0  0  0  0  0  0  0  0  0
   10.6109  -14.8764   28.4060 C   0  0  0  0  0  0  0  0  0  0  0  0
   10.1331  -15.0408   26.9852 C   0  0  0  0  0  0  0  0  0  0  0  0
   11.0684  -15.9396   26.1870 C   0  0  2  0  0  0  0  0  0  0  0  0
   10.4991  -16.0261   24.8525 N   0  0  0  0  0  0  0  0  0  0  0  0
   11.1204  -17.2350   26.8663 C   0  0  0  0  0  0  0  0  0  0  0  0
   10.2887  -18.2599   26.4706 O   0  0  0  0  0  0  0  0  0  0  0  0
   11.9165  -17.4216   27.8074 O   0  0  0  0  0  0  0  0  0  0  0  0
  2  1  1  0
  3  2  2  0
  4  3  1  0
  5 11  1  0
  5  4  2  0
  6  7  1  0
  6  5  1  0
  7  9  1  0
  7  8  1  6
  9 17  1  0
 10  9  2  0
 11 12  2  0
 12  2  1  0
 14 13  1  6
 15 14  1  0
 16 18  1  0
 16 14  1  0
 16 17  1  6
 18 26  1  0
 19 18  2  0
 20 21  1  0
 21 23  1  0
 21 22  2  0
 23 24  1  0
 25 24  1  1
 25 27  1  0
 26 25  1  0
 27 29  2  0
 27 28  1  0
M  END
$$$$
