YTQ.pdb
     RDKit          3D

 29 29  0  0  1  0  0  0  0  0999 V2000
    7.9628  -12.1096   17.1016 O   0  0  0  0  0  0  0  0  0  0  0  0
    7.9565  -12.8302   18.2981 C   0  0  0  0  0  0  0  0  0  0  0  0
    9.1140  -13.4257   18.7573 C   0  0  0  0  0  0  0  0  0  0  0  0
    9.1342  -14.1427   19.9358 C   0  0  0  0  0  0  0  0  0  0  0  0
    7.9758  -14.2659   20.6674 C   0  0  0  0  0  0  0  0  0  0  0  0
    7.9542  -15.0249   21.9340 C   0  0  0  0  0  0  0  0  0  0  0  0
    8.2500  -16.4996   21.7122 C   0  0  2  0  0  0  0  0  0  0  0  0
    7.2645  -17.1413   20.9048 N   0  0  0  0  0  0  0  0  0  0  0  0
    8.3914  -17.1130   23.0587 C   0  0  0  0  0  0  0  0  0  0  0  0
    7.3921  -17.0920   23.8218 O   0  0  0  0  0  0  0  0  0  0  0  0
    6.8104  -13.6845   20.2354 C   0  0  0  0  0  0  0  0  0  0  0  0
    6.8090  -12.9710   19.0541 C   0  0  0  0  0  0  0  0  0  0  0  0
    9.8962  -20.4167   23.9204 C   0  0  0  0  0  0  0  0  0  0  0  0
   10.6271  -19.4345   24.8128 C   0  0  1  0  0  0  0  0  0  0  0  0
   11.8726  -19.1987   24.2576 O   0  0  0  0  0  0  0  0  0  0  0  0
    9.7751  -18.1769   24.8781 C   0  0  2  0  0  0  0  0  0  0  0  0
    9.5754  -17.7154   23.5309 N   0  0  0  0  0  0  0  0  0  0  0  0
   10.4357  -17.1366   25.7290 C   0  0  0  0  0  0  0  0  0  0  0  0
   10.8799  -16.0819   25.2053 O   0  0  0  0  0  0  0  0  0  0  0  0
    7.5816  -13.7053   27.3830 N   0  0  0  0  0  0  0  0  0  0  0  0
    8.8477  -13.0909   27.2241 C   0  0  0  0  0  0  0  0  0  0  0  0
    8.9302  -11.9020   26.8955 O   0  0  0  0  0  0  0  0  0  0  0  0
   10.0766  -13.8816   27.4540 C   0  0  0  0  0  0  0  0  0  0  0  0
    9.6889  -15.2476   27.9614 C   0  0  0  0  0  0  0  0  0  0  0  0
   10.8925  -16.1793   28.0185 C   0  0  2  0  0  0  0  0  0  0  0  0
   10.5896  -17.2810   27.1202 N   0  0  0  0  0  0  0  0  0  0  0  0
   11.0516  -16.6085   29.4087 C   0  0  0  0  0  0  0  0  0  0  0  0
   10.7451  -17.9010   29.7752 O   0  0  0  0  0  0  0  0  0  0  0  0
   11.4651  -15.8094   30.2718 O   0  0  0  0  0  0  0  0  0  0  0  0
  2  1  1  0
  3  2  2  0
  4  3  1  0
  5 11  1  0
  5  4  2  0
  6  7  1  0
  6  5  1  0
  7  9  1  0
  7  8  1  1
  9 17  1  0
 10  9  2  0
 11 12  2  0
 12  2  1  0
 14 13  1  6
 15 14  1  0
 16 18  1  0
 16 14  1  0
 16 17  1  6
 18 26  1  0
 19 18  2  0
 20 21  1  0
 21 23  1  0
 21 22  2  0
 23 24  1  0
 25 24  1  1
 25 27  1  0
 26 25  1  0
 27 29  2  0
 27 28  1  0
M  END
$$$$
