YTQ.pdb
     RDKit          3D

 29 29  0  0  1  0  0  0  0  0999 V2000
    9.0779  -11.4704   19.0903 O   0  0  0  0  0  0  0  0  0  0  0  0
    8.4579  -12.5524   19.7196 C   0  0  0  0  0  0  0  0  0  0  0  0
    7.3824  -13.1801   19.1241 C   0  0  0  0  0  0  0  0  0  0  0  0
    6.7527  -14.2505   19.7249 C   0  0  0  0  0  0  0  0  0  0  0  0
    7.2073  -14.7005   20.9428 C   0  0  0  0  0  0  0  0  0  0  0  0
    6.5614  -15.8431   21.6198 C   0  0  0  0  0  0  0  0  0  0  0  0
    6.8392  -17.1540   20.9016 C   0  0  2  0  0  0  0  0  0  0  0  0
    5.7285  -17.6004   20.1257 N   0  0  0  0  0  0  0  0  0  0  0  0
    7.2545  -18.1304   21.9424 C   0  0  0  0  0  0  0  0  0  0  0  0
    6.4971  -19.1091   22.1655 O   0  0  0  0  0  0  0  0  0  0  0  0
    8.2743  -14.0960   21.5581 C   0  0  0  0  0  0  0  0  0  0  0  0
    8.8919  -13.0265   20.9423 C   0  0  0  0  0  0  0  0  0  0  0  0
   10.6589  -20.9710   22.3621 C   0  0  0  0  0  0  0  0  0  0  0  0
    9.7633  -19.8456   21.8861 C   0  0  1  0  0  0  0  0  0  0  0  0
    8.7504  -20.3999   21.1233 O   0  0  0  0  0  0  0  0  0  0  0  0
    9.2352  -19.1446   23.1277 C   0  0  2  0  0  0  0  0  0  0  0  0
    8.4434  -18.0257   22.6929 N   0  0  0  0  0  0  0  0  0  0  0  0
   10.3656  -18.7149   24.0109 C   0  0  0  0  0  0  0  0  0  0  0  0
   11.3325  -18.0691   23.5292 O   0  0  0  0  0  0  0  0  0  0  0  0
   10.7092  -20.3191   30.0195 N   0  0  0  0  0  0  0  0  0  0  0  0
   11.9021  -19.5625   29.9175 C   0  0  0  0  0  0  0  0  0  0  0  0
   12.6148  -19.3795   30.9109 O   0  0  0  0  0  0  0  0  0  0  0  0
   12.2933  -18.9894   28.6110 C   0  0  0  0  0  0  0  0  0  0  0  0
   11.2241  -19.3123   27.5979 C   0  0  0  0  0  0  0  0  0  0  0  0
   11.5153  -18.6527   26.2562 C   0  0  2  0  0  0  0  0  0  0  0  0
   10.4039  -19.0033   25.3876 N   0  0  0  0  0  0  0  0  0  0  0  0
   12.7959  -19.1753   25.7774 C   0  0  0  0  0  0  0  0  0  0  0  0
   13.9521  -18.4466   25.9535 O   0  0  0  0  0  0  0  0  0  0  0  0
   12.8512  -20.2826   25.2071 O   0  0  0  0  0  0  0  0  0  0  0  0
  2  1  1  0
  3  2  2  0
  4  3  1  0
  5 11  1  0
  5  4  2  0
  6  7  1  0
  6  5  1  0
  7  9  1  0
  7  8  1  1
  9 17  1  0
 10  9  2  0
 11 12  2  0
 12  2  1  0
 14 13  1  1
 15 14  1  0
 16 18  1  0
 16 14  1  0
 16 17  1  6
 18 26  1  0
 19 18  2  0
 20 21  1  0
 21 23  1  0
 21 22  2  0
 23 24  1  0
 25 24  1  1
 25 27  1  0
 26 25  1  0
 27 29  2  0
 27 28  1  0
M  END
$$$$
