YTQ.pdb
     RDKit          3D

 29 29  0  0  1  0  0  0  0  0999 V2000
    7.9105  -11.6522   17.6948 O   0  0  0  0  0  0  0  0  0  0  0  0
    7.9698  -12.5747   18.7420 C   0  0  0  0  0  0  0  0  0  0  0  0
    6.8100  -13.1192   19.2555 C   0  0  0  0  0  0  0  0  0  0  0  0
    6.8416  -14.0321   20.2894 C   0  0  0  0  0  0  0  0  0  0  0  0
    8.0549  -14.4064   20.8186 C   0  0  0  0  0  0  0  0  0  0  0  0
    8.1328  -15.3804   21.9260 C   0  0  0  0  0  0  0  0  0  0  0  0
    8.3248  -16.7996   21.4156 C   0  0  2  0  0  0  0  0  0  0  0  0
    7.2014  -17.2726   20.6745 N   0  0  0  0  0  0  0  0  0  0  0  0
    8.6380  -17.6399   22.6009 C   0  0  0  0  0  0  0  0  0  0  0  0
    7.7016  -17.9052   23.3971 O   0  0  0  0  0  0  0  0  0  0  0  0
    9.2239  -13.8815   20.3281 C   0  0  0  0  0  0  0  0  0  0  0  0
    9.1732  -12.9696   19.2936 C   0  0  0  0  0  0  0  0  0  0  0  0
   10.4110  -20.8765   22.6512 C   0  0  0  0  0  0  0  0  0  0  0  0
   11.1734  -20.0370   23.6558 C   0  0  1  0  0  0  0  0  0  0  0  0
   12.3290  -19.5841   23.0438 O   0  0  0  0  0  0  0  0  0  0  0  0
   10.2541  -18.8991   24.0704 C   0  0  2  0  0  0  0  0  0  0  0  0
    9.9186  -18.1562   22.8857 N   0  0  0  0  0  0  0  0  0  0  0  0
   10.9161  -18.0350   25.0987 C   0  0  0  0  0  0  0  0  0  0  0  0
   11.7404  -17.1521   24.7451 O   0  0  0  0  0  0  0  0  0  0  0  0
    9.3332  -13.7345   28.1195 N   0  0  0  0  0  0  0  0  0  0  0  0
   10.2442  -14.1662   29.1144 C   0  0  0  0  0  0  0  0  0  0  0  0
   10.2890  -13.5983   30.2115 O   0  0  0  0  0  0  0  0  0  0  0  0
   11.1458  -15.3048   28.8336 C   0  0  0  0  0  0  0  0  0  0  0  0
   10.5010  -16.1931   27.7996 C   0  0  0  0  0  0  0  0  0  0  0  0
   11.3627  -17.4135   27.5032 C   0  0  2  0  0  0  0  0  0  0  0  0
   10.6577  -18.1621   26.4760 N   0  0  0  0  0  0  0  0  0  0  0  0
   11.5087  -18.1632   28.7517 C   0  0  0  0  0  0  0  0  0  0  0  0
   12.4775  -17.8082   29.6650 O   0  0  0  0  0  0  0  0  0  0  0  0
   10.7587  -19.1280   28.9990 O   0  0  0  0  0  0  0  0  0  0  0  0
  2  1  1  0
  3  2  2  0
  4  3  1  0
  5 11  1  0
  5  4  2  0
  6  7  1  0
  6  5  1  0
  7  9  1  0
  7  8  1  1
  9 17  1  0
 10  9  2  0
 11 12  2  0
 12  2  1  0
 14 13  1  6
 15 14  1  0
 16 18  1  0
 16 14  1  0
 16 17  1  6
 18 26  1  0
 19 18  2  0
 20 21  1  0
 21 23  1  0
 21 22  2  0
 23 24  1  0
 25 24  1  1
 25 27  1  0
 26 25  1  0
 27 29  2  0
 27 28  1  0
M  END
$$$$
