YTQ.pdb
     RDKit          3D

 29 29  0  0  1  0  0  0  0  0999 V2000
    7.7832  -13.6637   15.5074 O   0  0  0  0  0  0  0  0  0  0  0  0
    7.9084  -13.7147   16.8976 C   0  0  0  0  0  0  0  0  0  0  0  0
    7.0972  -12.9358   17.6979 C   0  0  0  0  0  0  0  0  0  0  0  0
    7.2010  -12.9679   19.0732 C   0  0  0  0  0  0  0  0  0  0  0  0
    8.1329  -13.7939   19.6577 C   0  0  0  0  0  0  0  0  0  0  0  0
    8.2767  -13.8580   21.1261 C   0  0  0  0  0  0  0  0  0  0  0  0
    7.9115  -15.2305   21.6686 C   0  0  2  0  0  0  0  0  0  0  0  0
    6.5870  -15.6252   21.3155 N   0  0  0  0  0  0  0  0  0  0  0  0
    8.1340  -15.1811   23.1373 C   0  0  0  0  0  0  0  0  0  0  0  0
    7.8894  -14.1008   23.7327 O   0  0  0  0  0  0  0  0  0  0  0  0
    8.9528  -14.5793   18.8872 C   0  0  0  0  0  0  0  0  0  0  0  0
    8.8348  -14.5342   17.5129 C   0  0  0  0  0  0  0  0  0  0  0  0
    6.9241  -14.5971   25.2682 C   0  0  0  0  0  0  0  0  0  0  0  0
    7.3112  -15.9270   25.8820 C   0  0  1  0  0  0  0  0  0  0  0  0
    6.3480  -16.8561   25.5297 O   0  0  0  0  0  0  0  0  0  0  0  0
    8.6853  -16.2829   25.3370 C   0  0  2  0  0  0  0  0  0  0  0  0
    8.6016  -16.2697   23.9016 N   0  0  0  0  0  0  0  0  0  0  0  0
    9.1282  -17.6164   25.8550 C   0  0  0  0  0  0  0  0  0  0  0  0
    8.8780  -18.6622   25.2011 O   0  0  0  0  0  0  0  0  0  0  0  0
   12.9478  -20.6685   24.8673 N   0  0  0  0  0  0  0  0  0  0  0  0
   13.2014  -19.3383   25.2825 C   0  0  0  0  0  0  0  0  0  0  0  0
   14.1641  -18.7122   24.8251 O   0  0  0  0  0  0  0  0  0  0  0  0
   12.3051  -18.6987   26.2703 C   0  0  0  0  0  0  0  0  0  0  0  0
   11.1924  -19.6578   26.6109 C   0  0  0  0  0  0  0  0  0  0  0  0
   10.2258  -19.0492   27.6184 C   0  0  2  0  0  0  0  0  0  0  0  0
    9.8280  -17.7647   27.0668 N   0  0  0  0  0  0  0  0  0  0  0  0
   10.9375  -18.9237   28.8912 C   0  0  0  0  0  0  0  0  0  0  0  0
   11.1991  -17.6785   29.4200 O   0  0  0  0  0  0  0  0  0  0  0  0
   11.3125  -19.9411   29.5066 O   0  0  0  0  0  0  0  0  0  0  0  0
  2  1  1  0
  3  2  2  0
  4  3  1  0
  5 11  1  0
  5  4  2  0
  6  7  1  0
  6  5  1  0
  7  9  1  0
  7  8  1  1
  9 17  1  0
 10  9  2  0
 11 12  2  0
 12  2  1  0
 14 13  1  6
 15 14  1  0
 16 18  1  0
 16 14  1  0
 16 17  1  6
 18 26  1  0
 19 18  2  0
 20 21  1  0
 21 23  1  0
 21 22  2  0
 23 24  1  0
 25 24  1  6
 25 27  1  0
 26 25  1  0
 27 29  2  0
 27 28  1  0
M  END
$$$$
