YTQ.pdb
     RDKit          3D

 29 29  0  0  1  0  0  0  0  0999 V2000
    7.7044  -11.2506   18.3314 O   0  0  0  0  0  0  0  0  0  0  0  0
    8.1182  -12.3556   19.0789 C   0  0  0  0  0  0  0  0  0  0  0  0
    7.2524  -12.9551   19.9714 C   0  0  0  0  0  0  0  0  0  0  0  0
    7.6367  -14.0474   20.7215 C   0  0  0  0  0  0  0  0  0  0  0  0
    8.9095  -14.5484   20.5757 C   0  0  0  0  0  0  0  0  0  0  0  0
    9.3608  -15.7159   21.3595 C   0  0  0  0  0  0  0  0  0  0  0  0
    9.6350  -16.9190   20.4713 C   0  0  2  0  0  0  0  0  0  0  0  0
    8.4739  -17.3578   19.7684 N   0  0  0  0  0  0  0  0  0  0  0  0
   10.2203  -17.9691   21.3451 C   0  0  0  0  0  0  0  0  0  0  0  0
    9.4653  -18.5229   22.1847 O   0  0  0  0  0  0  0  0  0  0  0  0
    9.7915  -13.9729   19.6961 C   0  0  0  0  0  0  0  0  0  0  0  0
    9.3897  -12.8809   18.9542 C   0  0  0  0  0  0  0  0  0  0  0  0
   11.9851  -20.8537   20.0113 C   0  0  0  0  0  0  0  0  0  0  0  0
   12.9388  -20.3233   21.0622 C   0  0  1  0  0  0  0  0  0  0  0  0
   13.9110  -19.5777   20.4188 O   0  0  0  0  0  0  0  0  0  0  0  0
   12.1135  -19.4878   22.0279 C   0  0  2  0  0  0  0  0  0  0  0  0
   11.5675  -18.3810   21.2898 N   0  0  0  0  0  0  0  0  0  0  0  0
   12.9549  -19.0271   23.1779 C   0  0  0  0  0  0  0  0  0  0  0  0
   13.5484  -17.9187   23.1213 O   0  0  0  0  0  0  0  0  0  0  0  0
   10.3791  -20.7716   28.7222 N   0  0  0  0  0  0  0  0  0  0  0  0
   11.6711  -20.8693   28.1502 C   0  0  0  0  0  0  0  0  0  0  0  0
   12.4958  -21.6733   28.5992 O   0  0  0  0  0  0  0  0  0  0  0  0
   12.0310  -20.0010   27.0079 C   0  0  0  0  0  0  0  0  0  0  0  0
   13.4792  -20.2328   26.6573 C   0  0  0  0  0  0  0  0  0  0  0  0
   13.9130  -19.3576   25.4887 C   0  0  2  0  0  0  0  0  0  0  0  0
   13.1208  -19.7891   24.3491 N   0  0  0  0  0  0  0  0  0  0  0  0
   15.3485  -19.5648   25.2925 C   0  0  0  0  0  0  0  0  0  0  0  0
   16.2558  -19.0079   26.1673 O   0  0  0  0  0  0  0  0  0  0  0  0
   15.7618  -20.2459   24.3335 O   0  0  0  0  0  0  0  0  0  0  0  0
  2  1  1  0
  3  2  2  0
  4  3  1  0
  5 11  1  0
  5  4  2  0
  6  7  1  0
  6  5  1  0
  7  9  1  0
  7  8  1  1
  9 17  1  0
 10  9  2  0
 11 12  2  0
 12  2  1  0
 14 13  1  6
 15 14  1  0
 16 18  1  0
 16 14  1  0
 16 17  1  6
 18 26  1  0
 19 18  2  0
 20 21  1  0
 21 23  1  0
 21 22  2  0
 23 24  1  0
 25 24  1  1
 25 27  1  0
 26 25  1  0
 27 29  2  0
 27 28  1  0
M  END
$$$$
