YTQ.pdb
     RDKit          3D

 29 29  0  0  1  0  0  0  0  0999 V2000
    6.7767  -26.0012   27.9660 O   0  0  0  0  0  0  0  0  0  0  0  0
    6.4644  -24.8070   27.3121 C   0  0  0  0  0  0  0  0  0  0  0  0
    5.1861  -24.5861   26.8406 C   0  0  0  0  0  0  0  0  0  0  0  0
    4.8521  -23.4154   26.1916 C   0  0  0  0  0  0  0  0  0  0  0  0
    5.8144  -22.4490   26.0113 C   0  0  0  0  0  0  0  0  0  0  0  0
    5.4987  -21.1819   25.3217 C   0  0  0  0  0  0  0  0  0  0  0  0
    5.6107  -21.3191   23.8116 C   0  0  2  0  0  0  0  0  0  0  0  0
    4.9866  -22.5044   23.3209 N   0  0  0  0  0  0  0  0  0  0  0  0
    7.0581  -21.2424   23.4830 C   0  0  0  0  0  0  0  0  0  0  0  0
    7.6392  -22.3028   23.1376 O   0  0  0  0  0  0  0  0  0  0  0  0
    7.0934  -22.6412   26.4695 C   0  0  0  0  0  0  0  0  0  0  0  0
    7.4093  -23.8185   27.1165 C   0  0  0  0  0  0  0  0  0  0  0  0
    9.0966  -17.5414   23.5060 C   0  0  0  0  0  0  0  0  0  0  0  0
    9.3817  -18.6032   22.4635 C   0  0  1  0  0  0  0  0  0  0  0  0
   10.6746  -18.4166   22.0069 O   0  0  0  0  0  0  0  0  0  0  0  0
    9.1966  -19.9511   23.1423 C   0  0  2  0  0  0  0  0  0  0  0  0
    7.8172  -20.0555   23.5349 N   0  0  0  0  0  0  0  0  0  0  0  0
   10.1189  -20.0815   24.3149 C   0  0  0  0  0  0  0  0  0  0  0  0
    9.7382  -19.7238   25.4600 O   0  0  0  0  0  0  0  0  0  0  0  0
   15.8902  -23.8790   26.2358 N   0  0  0  0  0  0  0  0  0  0  0  0
   14.4826  -23.7351   26.1721 C   0  0  0  0  0  0  0  0  0  0  0  0
   13.7618  -24.7160   25.9568 O   0  0  0  0  0  0  0  0  0  0  0  0
   13.8761  -22.3997   26.3652 C   0  0  0  0  0  0  0  0  0  0  0  0
   12.9470  -22.1155   25.2120 C   0  0  0  0  0  0  0  0  0  0  0  0
   12.3447  -20.7205   25.3171 C   0  0  2  0  0  0  0  0  0  0  0  0
   11.4233  -20.5966   24.2000 N   0  0  0  0  0  0  0  0  0  0  0  0
   13.4465  -19.7592   25.2527 C   0  0  0  0  0  0  0  0  0  0  0  0
   14.2899  -19.5973   26.3303 O   0  0  0  0  0  0  0  0  0  0  0  0
   13.6308  -19.0796   24.2238 O   0  0  0  0  0  0  0  0  0  0  0  0
  2  1  1  0
  3  2  2  0
  4  3  1  0
  5 11  1  0
  5  4  2  0
  6  7  1  0
  6  5  1  0
  7  9  1  0
  7  8  1  1
  9 17  1  0
 10  9  2  0
 11 12  2  0
 12  2  1  0
 14 13  1  1
 15 14  1  0
 16 18  1  0
 16 14  1  0
 16 17  1  1
 18 26  1  0
 19 18  2  0
 20 21  1  0
 21 23  1  0
 21 22  2  0
 23 24  1  0
 25 24  1  6
 25 27  1  0
 26 25  1  0
 27 29  2  0
 27 28  1  0
M  END
$$$$
