YTQ.pdb
     RDKit          3D

 29 29  0  0  1  0  0  0  0  0999 V2000
    5.0626  -10.1968   27.8519 O   0  0  0  0  0  0  0  0  0  0  0  0
    5.7641  -11.2326   27.2306 C   0  0  0  0  0  0  0  0  0  0  0  0
    6.1440  -11.1198   25.9084 C   0  0  0  0  0  0  0  0  0  0  0  0
    6.8374  -12.1284   25.2717 C   0  0  0  0  0  0  0  0  0  0  0  0
    7.1560  -13.2697   25.9706 C   0  0  0  0  0  0  0  0  0  0  0  0
    7.8970  -14.3729   25.3266 C   0  0  0  0  0  0  0  0  0  0  0  0
    6.9595  -15.4379   24.7802 C   0  0  2  0  0  0  0  0  0  0  0  0
    6.3882  -16.2454   25.8081 N   0  0  0  0  0  0  0  0  0  0  0  0
    7.7384  -16.2222   23.7867 C   0  0  0  0  0  0  0  0  0  0  0  0
    8.3411  -17.2492   24.1910 O   0  0  0  0  0  0  0  0  0  0  0  0
    6.7913  -13.4093   27.2860 C   0  0  0  0  0  0  0  0  0  0  0  0
    6.0981  -12.3901   27.9065 C   0  0  0  0  0  0  0  0  0  0  0  0
    7.2380  -15.2393   20.0642 C   0  0  0  0  0  0  0  0  0  0  0  0
    8.6642  -15.7363   20.1840 C   0  0  1  0  0  0  0  0  0  0  0  0
    9.5037  -14.6367   20.1493 O   0  0  0  0  0  0  0  0  0  0  0  0
    8.7595  -16.4958   21.4978 C   0  0  2  0  0  0  0  0  0  0  0  0
    7.8423  -15.8851   22.4217 N   0  0  0  0  0  0  0  0  0  0  0  0
   10.1643  -16.4775   22.0162 C   0  0  0  0  0  0  0  0  0  0  0  0
   10.5679  -15.5090   22.7112 O   0  0  0  0  0  0  0  0  0  0  0  0
   12.3739  -20.9340   24.9110 N   0  0  0  0  0  0  0  0  0  0  0  0
   13.6076  -20.2471   24.8003 C   0  0  0  0  0  0  0  0  0  0  0  0
   14.5967  -20.6296   25.4355 O   0  0  0  0  0  0  0  0  0  0  0  0
   13.7077  -19.0645   23.9172 C   0  0  0  0  0  0  0  0  0  0  0  0
   12.3724  -18.8372   23.2546 C   0  0  0  0  0  0  0  0  0  0  0  0
   12.3974  -17.5981   22.3693 C   0  0  2  0  0  0  0  0  0  0  0  0
   11.0806  -17.5142   21.7598 N   0  0  0  0  0  0  0  0  0  0  0  0
   13.4665  -17.7806   21.3864 C   0  0  0  0  0  0  0  0  0  0  0  0
   14.7846  -17.6314   21.7593 O   0  0  0  0  0  0  0  0  0  0  0  0
   13.1939  -18.0721   20.2053 O   0  0  0  0  0  0  0  0  0  0  0  0
  2  1  1  0
  3  2  2  0
  4  3  1  0
  5 11  1  0
  5  4  2  0
  6  7  1  0
  6  5  1  0
  7  9  1  0
  7  8  1  1
  9 17  1  0
 10  9  2  0
 11 12  2  0
 12  2  1  0
 14 13  1  1
 15 14  1  0
 16 18  1  0
 16 14  1  0
 16 17  1  1
 18 26  1  0
 19 18  2  0
 20 21  1  0
 21 23  1  0
 21 22  2  0
 23 24  1  0
 25 24  1  1
 25 27  1  0
 26 25  1  0
 27 29  2  0
 27 28  1  0
M  END
$$$$
