YTQ.pdb
     RDKit          3D

 29 29  0  0  1  0  0  0  0  0999 V2000
    7.6867  -11.7946   17.4366 O   0  0  0  0  0  0  0  0  0  0  0  0
    7.8210  -12.6743   18.5132 C   0  0  0  0  0  0  0  0  0  0  0  0
    9.0416  -13.2582   18.7860 C   0  0  0  0  0  0  0  0  0  0  0  0
    9.2004  -14.1303   19.8432 C   0  0  0  0  0  0  0  0  0  0  0  0
    8.1187  -14.4230   20.6412 C   0  0  0  0  0  0  0  0  0  0  0  0
    8.2458  -15.3514   21.7826 C   0  0  0  0  0  0  0  0  0  0  0  0
    8.4389  -16.7874   21.3221 C   0  0  2  0  0  0  0  0  0  0  0  0
    7.3181  -17.2852   20.5935 N   0  0  0  0  0  0  0  0  0  0  0  0
    8.7473  -17.5866   22.5367 C   0  0  0  0  0  0  0  0  0  0  0  0
    7.7849  -17.9570   23.2563 O   0  0  0  0  0  0  0  0  0  0  0  0
    6.8934  -13.8574   20.3937 C   0  0  0  0  0  0  0  0  0  0  0  0
    6.7532  -12.9873   19.3318 C   0  0  0  0  0  0  0  0  0  0  0  0
   10.3873  -20.7066   22.7163 C   0  0  0  0  0  0  0  0  0  0  0  0
   11.2151  -19.8948   23.6915 C   0  0  1  0  0  0  0  0  0  0  0  0
   12.3765  -19.5075   23.0462 O   0  0  0  0  0  0  0  0  0  0  0  0
   10.3641  -18.7075   24.1134 C   0  0  2  0  0  0  0  0  0  0  0  0
   10.0506  -17.9535   22.9298 N   0  0  0  0  0  0  0  0  0  0  0  0
   11.0870  -17.8749   25.1268 C   0  0  0  0  0  0  0  0  0  0  0  0
   11.9401  -17.0276   24.7546 O   0  0  0  0  0  0  0  0  0  0  0  0
    8.7588  -13.2169   27.6162 N   0  0  0  0  0  0  0  0  0  0  0  0
    9.5389  -14.1818   28.2992 C   0  0  0  0  0  0  0  0  0  0  0  0
    9.4358  -14.3180   29.5235 O   0  0  0  0  0  0  0  0  0  0  0  0
   10.4818  -15.0298   27.5375 C   0  0  0  0  0  0  0  0  0  0  0  0
   10.5981  -16.3671   28.2246 C   0  0  0  0  0  0  0  0  0  0  0  0
   11.6058  -17.2659   27.5199 C   0  0  2  0  0  0  0  0  0  0  0  0
   10.8560  -17.9937   26.5097 N   0  0  0  0  0  0  0  0  0  0  0  0
   12.1950  -18.1444   28.5313 C   0  0  0  0  0  0  0  0  0  0  0  0
   13.1345  -17.6554   29.4128 O   0  0  0  0  0  0  0  0  0  0  0  0
   11.8524  -19.3410   28.6037 O   0  0  0  0  0  0  0  0  0  0  0  0
  2  1  1  0
  3  2  2  0
  4  3  1  0
  5 11  1  0
  5  4  2  0
  6  7  1  0
  6  5  1  0
  7  9  1  0
  7  8  1  1
  9 17  1  0
 10  9  2  0
 11 12  2  0
 12  2  1  0
 14 13  1  6
 15 14  1  0
 16 18  1  0
 16 14  1  0
 16 17  1  6
 18 26  1  0
 19 18  2  0
 20 21  1  0
 21 23  1  0
 21 22  2  0
 23 24  1  0
 25 24  1  1
 25 27  1  0
 26 25  1  0
 27 29  2  0
 27 28  1  0
M  END
$$$$
