YTQ.pdb
     RDKit          3D

 29 29  0  0  1  0  0  0  0  0999 V2000
    7.5278  -11.9692   17.3737 O   0  0  0  0  0  0  0  0  0  0  0  0
    7.6300  -12.8466   18.4557 C   0  0  0  0  0  0  0  0  0  0  0  0
    8.4420  -12.5365   19.5280 C   0  0  0  0  0  0  0  0  0  0  0  0
    8.5603  -13.3860   20.6087 C   0  0  0  0  0  0  0  0  0  0  0  0
    7.8536  -14.5662   20.6162 C   0  0  0  0  0  0  0  0  0  0  0  0
    7.9521  -15.5035   21.7532 C   0  0  0  0  0  0  0  0  0  0  0  0
    8.4799  -16.8618   21.3196 C   0  0  2  0  0  0  0  0  0  0  0  0
    7.5200  -17.6118   20.5773 N   0  0  0  0  0  0  0  0  0  0  0  0
    8.9357  -17.5552   22.5527 C   0  0  0  0  0  0  0  0  0  0  0  0
    8.0866  -18.2170   23.2027 O   0  0  0  0  0  0  0  0  0  0  0  0
    7.0388  -14.9005   19.5641 C   0  0  0  0  0  0  0  0  0  0  0  0
    6.9327  -14.0385   18.4915 C   0  0  0  0  0  0  0  0  0  0  0  0
   11.5950  -19.8846   23.1586 C   0  0  0  0  0  0  0  0  0  0  0  0
   11.9212  -18.8042   24.1694 C   0  0  1  0  0  0  0  0  0  0  0  0
   12.9843  -18.0670   23.6780 O   0  0  0  0  0  0  0  0  0  0  0  0
   10.6651  -17.9647   24.3411 C   0  0  2  0  0  0  0  0  0  0  0  0
   10.2594  -17.5158   23.0366 N   0  0  0  0  0  0  0  0  0  0  0  0
   10.9213  -16.8170   25.2683 C   0  0  0  0  0  0  0  0  0  0  0  0
   11.1609  -15.6720   24.8039 O   0  0  0  0  0  0  0  0  0  0  0  0
    8.0077  -13.3066   26.1337 N   0  0  0  0  0  0  0  0  0  0  0  0
    8.3435  -13.0643   27.4882 C   0  0  0  0  0  0  0  0  0  0  0  0
    7.9903  -12.0179   28.0435 O   0  0  0  0  0  0  0  0  0  0  0  0
    9.1221  -14.0736   28.2388 C   0  0  0  0  0  0  0  0  0  0  0  0
    9.3903  -15.2515   27.3363 C   0  0  0  0  0  0  0  0  0  0  0  0
   10.7719  -15.8402   27.5900 C   0  0  2  0  0  0  0  0  0  0  0  0
   10.9078  -16.9558   26.6684 N   0  0  0  0  0  0  0  0  0  0  0  0
   10.8234  -16.2541   28.9930 C   0  0  0  0  0  0  0  0  0  0  0  0
   10.7266  -17.5875   29.3269 O   0  0  0  0  0  0  0  0  0  0  0  0
   10.9549  -15.4050   29.8963 O   0  0  0  0  0  0  0  0  0  0  0  0
  2  1  1  0
  3  2  2  0
  4  3  1  0
  5 11  1  0
  5  4  2  0
  6  7  1  0
  6  5  1  0
  7  9  1  0
  7  8  1  1
  9 17  1  0
 10  9  2  0
 11 12  2  0
 12  2  1  0
 14 13  1  6
 15 14  1  0
 16 18  1  0
 16 14  1  0
 16 17  1  6
 18 26  1  0
 19 18  2  0
 20 21  1  0
 21 23  1  0
 21 22  2  0
 23 24  1  0
 25 24  1  1
 25 27  1  0
 26 25  1  0
 27 29  2  0
 27 28  1  0
M  END
$$$$
