YTQ.pdb
     RDKit          3D

 29 29  0  0  1  0  0  0  0  0999 V2000
    3.4311  -22.9238   16.5576 O   0  0  0  0  0  0  0  0  0  0  0  0
    4.3774  -22.0594   17.1129 C   0  0  0  0  0  0  0  0  0  0  0  0
    3.9922  -20.8263   17.5990 C   0  0  0  0  0  0  0  0  0  0  0  0
    4.9072  -19.9544   18.1521 C   0  0  0  0  0  0  0  0  0  0  0  0
    6.2308  -20.3232   18.2198 C   0  0  0  0  0  0  0  0  0  0  0  0
    7.2423  -19.4195   18.8039 C   0  0  0  0  0  0  0  0  0  0  0  0
    7.4013  -18.1479   17.9858 C   0  0  2  0  0  0  0  0  0  0  0  0
    7.7880  -18.4079   16.6376 N   0  0  0  0  0  0  0  0  0  0  0  0
    8.3705  -17.2898   18.7161 C   0  0  0  0  0  0  0  0  0  0  0  0
    9.5453  -17.2217   18.2727 O   0  0  0  0  0  0  0  0  0  0  0  0
    6.6425  -21.5427   17.7445 C   0  0  0  0  0  0  0  0  0  0  0  0
    5.7131  -22.4020   17.1945 C   0  0  0  0  0  0  0  0  0  0  0  0
    7.7210  -13.8027   19.4667 C   0  0  0  0  0  0  0  0  0  0  0  0
    8.1669  -14.3535   20.8058 C   0  0  1  0  0  0  0  0  0  0  0  0
    7.0364  -14.5856   21.5695 O   0  0  0  0  0  0  0  0  0  0  0  0
    8.9458  -15.6283   20.5230 C   0  0  2  0  0  0  0  0  0  0  0  0
    8.0531  -16.5494   19.8732 N   0  0  0  0  0  0  0  0  0  0  0  0
    9.5037  -16.1970   21.7911 C   0  0  0  0  0  0  0  0  0  0  0  0
    8.8724  -17.0904   22.4134 O   0  0  0  0  0  0  0  0  0  0  0  0
   15.2058  -14.8673   23.4569 N   0  0  0  0  0  0  0  0  0  0  0  0
   14.9838  -16.1696   22.9463 C   0  0  0  0  0  0  0  0  0  0  0  0
   15.9188  -16.8236   22.4706 O   0  0  0  0  0  0  0  0  0  0  0  0
   13.6222  -16.7464   22.9850 C   0  0  0  0  0  0  0  0  0  0  0  0
   12.6990  -15.7699   23.6691 C   0  0  0  0  0  0  0  0  0  0  0  0
   11.2520  -16.2416   23.6101 C   0  0  2  0  0  0  0  0  0  0  0  0
   10.7293  -15.7732   22.3374 N   0  0  0  0  0  0  0  0  0  0  0  0
   10.5528  -15.6621   24.7580 C   0  0  0  0  0  0  0  0  0  0  0  0
   10.7233  -16.1969   26.0164 O   0  0  0  0  0  0  0  0  0  0  0  0
    9.7982  -14.6812   24.6069 O   0  0  0  0  0  0  0  0  0  0  0  0
  2  1  1  0
  3  2  2  0
  4  3  1  0
  5 11  1  0
  5  4  2  0
  6  7  1  0
  6  5  1  0
  7  9  1  0
  7  8  1  6
  9 17  1  0
 10  9  2  0
 11 12  2  0
 12  2  1  0
 14 13  1  6
 15 14  1  0
 16 18  1  0
 16 14  1  0
 16 17  1  1
 18 26  1  0
 19 18  2  0
 20 21  1  0
 21 23  1  0
 21 22  2  0
 23 24  1  0
 25 24  1  1
 25 27  1  0
 26 25  1  0
 27 29  2  0
 27 28  1  0
M  END
$$$$
