YTQ.pdb
     RDKit          3D

 29 29  0  0  1  0  0  0  0  0999 V2000
    7.5304  -11.5152   17.4487 O   0  0  0  0  0  0  0  0  0  0  0  0
    7.7608  -12.4734   18.4386 C   0  0  0  0  0  0  0  0  0  0  0  0
    6.7124  -12.9590   19.1938 C   0  0  0  0  0  0  0  0  0  0  0  0
    6.9135  -13.9054   20.1773 C   0  0  0  0  0  0  0  0  0  0  0  0
    8.1860  -14.3739   20.4089 C   0  0  0  0  0  0  0  0  0  0  0  0
    8.4446  -15.3865   21.4523 C   0  0  0  0  0  0  0  0  0  0  0  0
    8.6821  -16.7639   20.8540 C   0  0  2  0  0  0  0  0  0  0  0  0
    7.5463  -17.2579   20.1464 N   0  0  0  0  0  0  0  0  0  0  0  0
    9.1027  -17.6476   21.9726 C   0  0  0  0  0  0  0  0  0  0  0  0
    8.2170  -18.0465   22.7712 O   0  0  0  0  0  0  0  0  0  0  0  0
    9.2472  -13.9092   19.6737 C   0  0  0  0  0  0  0  0  0  0  0  0
    9.0272  -12.9625   18.6939 C   0  0  0  0  0  0  0  0  0  0  0  0
   11.0022  -20.7519   21.6443 C   0  0  0  0  0  0  0  0  0  0  0  0
   11.7932  -19.9674   22.6710 C   0  0  1  0  0  0  0  0  0  0  0  0
   12.8733  -19.3895   22.0271 O   0  0  0  0  0  0  0  0  0  0  0  0
   10.8490  -18.9316   23.2604 C   0  0  2  0  0  0  0  0  0  0  0  0
   10.4316  -18.0645   22.1920 N   0  0  0  0  0  0  0  0  0  0  0  0
   11.5218  -18.1716   24.3615 C   0  0  0  0  0  0  0  0  0  0  0  0
   12.1747  -17.1278   24.1003 O   0  0  0  0  0  0  0  0  0  0  0  0
    9.9796  -18.3595   30.2883 N   0  0  0  0  0  0  0  0  0  0  0  0
   11.2278  -17.7041   30.4242 C   0  0  0  0  0  0  0  0  0  0  0  0
   11.6153  -17.3186   31.5330 O   0  0  0  0  0  0  0  0  0  0  0  0
   12.0694  -17.4819   29.2282 C   0  0  0  0  0  0  0  0  0  0  0  0
   11.3508  -18.0259   28.0193 C   0  0  0  0  0  0  0  0  0  0  0  0
   12.2253  -17.9497   26.7746 C   0  0  2  0  0  0  0  0  0  0  0  0
   11.4603  -18.5745   25.7083 N   0  0  0  0  0  0  0  0  0  0  0  0
   13.4719  -18.6583   27.0682 C   0  0  0  0  0  0  0  0  0  0  0  0
   14.5058  -18.0082   27.7064 O   0  0  0  0  0  0  0  0  0  0  0  0
   13.6086  -19.8543   26.7438 O   0  0  0  0  0  0  0  0  0  0  0  0
  2  1  1  0
  3  2  2  0
  4  3  1  0
  5 11  1  0
  5  4  2  0
  6  7  1  0
  6  5  1  0
  7  9  1  0
  7  8  1  1
  9 17  1  0
 10  9  2  0
 11 12  2  0
 12  2  1  0
 14 13  1  6
 15 14  1  0
 16 18  1  0
 16 14  1  0
 16 17  1  6
 18 26  1  0
 19 18  2  0
 20 21  1  0
 21 23  1  0
 21 22  2  0
 23 24  1  0
 25 24  1  1
 25 27  1  0
 26 25  1  0
 27 29  2  0
 27 28  1  0
M  END
$$$$
