VLR.pdb
     RDKit          3D

 27 26  0  0  1  0  0  0  0  0999 V2000
    7.1139  -15.9021   19.9430 C   0  0  0  0  0  0  0  0  0  0  0  0
    7.8880  -14.7223   19.4279 C   0  0  1  0  0  0  0  0  0  0  0  0
    7.4362  -14.4890   17.9912 C   0  0  0  0  0  0  0  0  0  0  0  0
    7.6519  -13.4590   20.1863 C   0  0  2  0  0  0  0  0  0  0  0  0
    8.4712  -12.3854   19.5972 N   0  0  0  0  0  0  0  0  0  0  0  0
    7.9583  -13.5246   21.6258 C   0  0  0  0  0  0  0  0  0  0  0  0
    9.1896  -13.6437   21.9568 O   0  0  0  0  0  0  0  0  0  0  0  0
    5.5866  -12.6560   27.2519 C   0  0  0  0  0  0  0  0  0  0  0  0
    6.8081  -13.1282   26.4480 C   0  0  2  0  0  0  0  0  0  0  0  0
    7.9495  -12.2515   26.8798 C   0  0  0  0  0  0  0  0  0  0  0  0
    6.4306  -13.0210   25.0164 C   0  0  0  0  0  0  0  0  0  0  0  0
    7.4253  -13.5925   24.0365 C   0  0  2  0  0  0  0  0  0  0  0  0
    7.0191  -13.4671   22.6794 N   0  0  0  0  0  0  0  0  0  0  0  0
    7.8515  -14.9781   24.3642 C   0  0  0  0  0  0  0  0  0  0  0  0
    7.0342  -15.9447   24.3281 O   0  0  0  0  0  0  0  0  0  0  0  0
   14.1884  -19.6132   21.1516 N   0  0  0  0  0  0  0  0  0  0  0  0
   13.4972  -20.4687   22.0418 C   0  0  0  0  0  0  0  0  0  0  0  0
   13.6588  -21.7580   21.9583 N   0  0  0  0  0  0  0  0  0  0  0  0
   12.6113  -19.9616   23.0489 N   0  0  0  0  0  0  0  0  0  0  0  0
   12.3478  -18.5517   23.1735 C   0  0  0  0  0  0  0  0  0  0  0  0
   11.2313  -18.3520   24.1656 C   0  0  0  0  0  0  0  0  0  0  0  0
   10.7501  -16.9089   24.0057 C   0  0  0  0  0  0  0  0  0  0  0  0
    9.5647  -16.6941   24.9688 C   0  0  2  0  0  0  0  0  0  0  0  0
    9.1881  -15.2994   24.7322 N   0  0  0  0  0  0  0  0  0  0  0  0
   10.1210  -16.9221   26.3137 C   0  0  0  0  0  0  0  0  0  0  0  0
   10.3418  -18.0756   26.7039 O   0  0  0  0  0  0  0  0  0  0  0  0
   10.3916  -15.8466   27.1274 O   0  0  0  0  0  0  0  0  0  0  0  0
  2  1  1  1
  2  4  1  0
  2  3  1  0
  4  6  1  0
  4  5  1  6
  6  7  2  0
  9  8  1  1
 10  9  1  0
 11  9  1  0
 12 11  1  1
 13 12  1  0
 13  6  1  0
 14 12  1  0
 14 15  2  0
 16 17  1  0
 17 19  1  0
 17 18  2  0
 19 20  1  0
 21 20  1  0
 21 22  1  0
 23 22  1  6
 23 24  1  0
 23 25  1  0
 24 14  1  0
 25 26  2  0
 25 27  1  0
M  END
$$$$
