VLR.pdb
     RDKit          3D

 27 26  0  0  1  0  0  0  0  0999 V2000
    7.0388  -14.6407   18.0895 C   0  0  0  0  0  0  0  0  0  0  0  0
    7.2949  -14.6901   19.5688 C   0  0  1  0  0  0  0  0  0  0  0  0
    8.4212  -15.6927   19.7902 C   0  0  0  0  0  0  0  0  0  0  0  0
    7.7269  -13.3886   20.1574 C   0  0  2  0  0  0  0  0  0  0  0  0
    8.9589  -12.9426   19.4834 N   0  0  0  0  0  0  0  0  0  0  0  0
    7.9864  -13.4110   21.6073 C   0  0  0  0  0  0  0  0  0  0  0  0
    9.2008  -13.5686   21.9818 O   0  0  0  0  0  0  0  0  0  0  0  0
    5.4458  -12.3974   27.1413 C   0  0  0  0  0  0  0  0  0  0  0  0
    6.6526  -12.9777   26.3874 C   0  0  2  0  0  0  0  0  0  0  0  0
    7.8538  -12.2316   26.8961 C   0  0  0  0  0  0  0  0  0  0  0  0
    6.3624  -12.8050   24.9419 C   0  0  0  0  0  0  0  0  0  0  0  0
    7.3680  -13.4174   23.9986 C   0  0  2  0  0  0  0  0  0  0  0  0
    7.0190  -13.2731   22.6275 N   0  0  0  0  0  0  0  0  0  0  0  0
    7.7218  -14.8204   24.3382 C   0  0  0  0  0  0  0  0  0  0  0  0
    6.8587  -15.7462   24.2962 O   0  0  0  0  0  0  0  0  0  0  0  0
   13.9033  -18.9413   20.5045 N   0  0  0  0  0  0  0  0  0  0  0  0
   12.7220  -19.7095   20.6330 C   0  0  0  0  0  0  0  0  0  0  0  0
   12.5542  -20.7686   19.8944 N   0  0  0  0  0  0  0  0  0  0  0  0
   11.6859  -19.3604   21.5608 N   0  0  0  0  0  0  0  0  0  0  0  0
   11.7469  -18.1442   22.3287 C   0  0  0  0  0  0  0  0  0  0  0  0
   10.5478  -18.0840   23.2394 C   0  0  0  0  0  0  0  0  0  0  0  0
   10.6499  -16.7723   24.0195 C   0  0  0  0  0  0  0  0  0  0  0  0
    9.3700  -16.6229   24.8670 C   0  0  2  0  0  0  0  0  0  0  0  0
    9.0363  -15.2046   24.7245 N   0  0  0  0  0  0  0  0  0  0  0  0
    9.7754  -16.9864   26.2358 C   0  0  0  0  0  0  0  0  0  0  0  0
   10.0866  -18.1550   26.4986 O   0  0  0  0  0  0  0  0  0  0  0  0
    9.8052  -16.0197   27.2140 O   0  0  0  0  0  0  0  0  0  0  0  0
  2  1  1  6
  2  4  1  0
  2  3  1  0
  4  6  1  0
  4  5  1  6
  6  7  2  0
  9  8  1  1
 10  9  1  0
 11  9  1  0
 12 11  1  1
 13 12  1  0
 13  6  1  0
 14 12  1  0
 14 15  2  0
 16 17  1  0
 17 19  1  0
 17 18  2  0
 19 20  1  0
 21 20  1  0
 21 22  1  0
 23 22  1  6
 23 24  1  0
 23 25  1  0
 24 14  1  0
 25 26  2  0
 25 27  1  0
M  END
$$$$
