VLR.pdb
     RDKit          3D

 27 26  0  0  1  0  0  0  0  0999 V2000
    7.9075  -19.0810   20.3015 C   0  0  0  0  0  0  0  0  0  0  0  0
    8.3239  -18.0661   21.3277 C   0  0  1  0  0  0  0  0  0  0  0  0
    9.8455  -17.9912   21.2847 C   0  0  0  0  0  0  0  0  0  0  0  0
    7.7970  -16.6927   21.0767 C   0  0  2  0  0  0  0  0  0  0  0  0
    8.3179  -16.2072   19.7868 N   0  0  0  0  0  0  0  0  0  0  0  0
    8.1334  -15.6938   22.1059 C   0  0  0  0  0  0  0  0  0  0  0  0
    9.2558  -15.0885   21.9888 O   0  0  0  0  0  0  0  0  0  0  0  0
    5.9177  -12.7247   27.0502 C   0  0  0  0  0  0  0  0  0  0  0  0
    7.0996  -12.8691   26.0788 C   0  0  2  0  0  0  0  0  0  0  0  0
    7.3751  -11.4871   25.5569 C   0  0  0  0  0  0  0  0  0  0  0  0
    6.6802  -13.8620   25.0581 C   0  0  0  0  0  0  0  0  0  0  0  0
    7.7832  -14.3961   24.1781 C   0  0  2  0  0  0  0  0  0  0  0  0
    7.3314  -15.3381   23.2131 N   0  0  0  0  0  0  0  0  0  0  0  0
    8.9579  -14.8976   24.9380 C   0  0  0  0  0  0  0  0  0  0  0  0
    9.7437  -14.1041   25.5353 O   0  0  0  0  0  0  0  0  0  0  0  0
   10.3098  -19.5757   31.2843 N   0  0  0  0  0  0  0  0  0  0  0  0
   11.0302  -20.4165   30.4034 C   0  0  0  0  0  0  0  0  0  0  0  0
   11.5051  -21.5502   30.8330 N   0  0  0  0  0  0  0  0  0  0  0  0
   11.2610  -20.0618   29.0332 N   0  0  0  0  0  0  0  0  0  0  0  0
   10.7974  -18.8094   28.4956 C   0  0  0  0  0  0  0  0  0  0  0  0
   11.2344  -18.7067   27.0571 C   0  0  0  0  0  0  0  0  0  0  0  0
   10.0522  -18.1315   26.2754 C   0  0  0  0  0  0  0  0  0  0  0  0
   10.4388  -16.7147   25.8040 C   0  0  2  0  0  0  0  0  0  0  0  0
    9.2664  -16.2829   25.0411 N   0  0  0  0  0  0  0  0  0  0  0  0
   11.6352  -16.9058   24.9659 C   0  0  0  0  0  0  0  0  0  0  0  0
   11.5390  -17.4773   23.8724 O   0  0  0  0  0  0  0  0  0  0  0  0
   12.8537  -16.4451   25.4075 O   0  0  0  0  0  0  0  0  0  0  0  0
  2  1  1  6
  2  4  1  0
  2  3  1  0
  4  6  1  0
  4  5  1  6
  6  7  2  0
  9  8  1  1
 10  9  1  0
 11  9  1  0
 12 11  1  1
 13 12  1  0
 13  6  1  0
 14 12  1  0
 14 15  2  0
 16 17  1  0
 17 19  1  0
 17 18  2  0
 19 20  1  0
 21 20  1  0
 21 22  1  0
 23 22  1  6
 23 24  1  0
 23 25  1  0
 24 14  1  0
 25 26  2  0
 25 27  1  0
M  END
$$$$
