VLR.pdb
     RDKit          3D

 27 26  0  0  1  0  0  0  0  0999 V2000
    5.0868  -20.7715   24.9289 C   0  0  0  0  0  0  0  0  0  0  0  0
    6.0121  -19.5930   24.8215 C   0  0  1  0  0  0  0  0  0  0  0  0
    7.0193  -19.9190   23.7252 C   0  0  0  0  0  0  0  0  0  0  0  0
    5.3347  -18.3171   24.4474 C   0  0  2  0  0  0  0  0  0  0  0  0
    4.5226  -18.5415   23.2386 N   0  0  0  0  0  0  0  0  0  0  0  0
    6.2359  -17.1821   24.1835 C   0  0  0  0  0  0  0  0  0  0  0  0
    6.5633  -16.9664   22.9644 O   0  0  0  0  0  0  0  0  0  0  0  0
    6.4986  -12.5100   24.7305 C   0  0  0  0  0  0  0  0  0  0  0  0
    6.6235  -13.3959   25.9799 C   0  0  2  0  0  0  0  0  0  0  0  0
    6.6386  -12.4555   27.1520 C   0  0  0  0  0  0  0  0  0  0  0  0
    7.8560  -14.2025   25.7963 C   0  0  0  0  0  0  0  0  0  0  0  0
    7.7518  -15.3330   24.8025 C   0  0  2  0  0  0  0  0  0  0  0  0
    6.7740  -16.3050   25.1513 N   0  0  0  0  0  0  0  0  0  0  0  0
    9.0608  -15.9541   24.4716 C   0  0  0  0  0  0  0  0  0  0  0  0
    9.5465  -16.8846   25.1802 O   0  0  0  0  0  0  0  0  0  0  0  0
    8.8314  -12.2268   18.7208 N   0  0  0  0  0  0  0  0  0  0  0  0
    8.6898  -13.5609   18.2714 C   0  0  0  0  0  0  0  0  0  0  0  0
    8.0244  -13.8100   17.1803 N   0  0  0  0  0  0  0  0  0  0  0  0
    9.2605  -14.6671   18.9834 N   0  0  0  0  0  0  0  0  0  0  0  0
   10.1335  -14.4625   20.1097 C   0  0  0  0  0  0  0  0  0  0  0  0
   10.5933  -15.8044   20.6181 C   0  0  0  0  0  0  0  0  0  0  0  0
   11.5761  -15.5328   21.7583 C   0  0  0  0  0  0  0  0  0  0  0  0
   11.0645  -16.2711   23.0122 C   0  0  2  0  0  0  0  0  0  0  0  0
    9.8378  -15.5475   23.3510 N   0  0  0  0  0  0  0  0  0  0  0  0
   12.1306  -16.1021   24.0146 C   0  0  0  0  0  0  0  0  0  0  0  0
   11.8980  -15.4961   25.0683 O   0  0  0  0  0  0  0  0  0  0  0  0
   13.3805  -16.6217   23.7702 O   0  0  0  0  0  0  0  0  0  0  0  0
  2  1  1  6
  2  4  1  0
  2  3  1  0
  4  6  1  0
  4  5  1  6
  6  7  2  0
  9  8  1  6
 10  9  1  0
 11  9  1  0
 12 11  1  1
 13 12  1  0
 13  6  1  0
 14 12  1  0
 14 15  2  0
 16 17  1  0
 17 19  1  0
 17 18  2  0
 19 20  1  0
 21 20  1  0
 21 22  1  0
 23 22  1  6
 23 24  1  0
 23 25  1  0
 24 14  1  0
 25 26  2  0
 25 27  1  0
M  END
$$$$
