VLR.pdb
     RDKit          3D

 27 26  0  0  1  0  0  0  0  0999 V2000
    7.0470  -14.4232   19.2290 C   0  0  0  0  0  0  0  0  0  0  0  0
    7.4418  -14.6755   20.6562 C   0  0  1  0  0  0  0  0  0  0  0  0
    8.6202  -15.6415   20.6258 C   0  0  0  0  0  0  0  0  0  0  0  0
    7.8783  -13.4539   21.3939 C   0  0  2  0  0  0  0  0  0  0  0  0
    9.0659  -12.8902   20.7283 N   0  0  0  0  0  0  0  0  0  0  0  0
    8.2115  -13.6637   22.8135 C   0  0  0  0  0  0  0  0  0  0  0  0
    9.4531  -13.6808   23.1265 O   0  0  0  0  0  0  0  0  0  0  0  0
    7.2875  -11.4549   26.7540 C   0  0  0  0  0  0  0  0  0  0  0  0
    6.1474  -12.3397   26.2259 C   0  0  2  0  0  0  0  0  0  0  0  0
    4.9746  -12.0834   27.1298 C   0  0  0  0  0  0  0  0  0  0  0  0
    6.6635  -13.7315   26.2335 C   0  0  0  0  0  0  0  0  0  0  0  0
    7.7250  -14.0375   25.2060 C   0  0  2  0  0  0  0  0  0  0  0  0
    7.2876  -13.8470   23.8662 N   0  0  0  0  0  0  0  0  0  0  0  0
    8.3713  -15.3620   25.3975 C   0  0  0  0  0  0  0  0  0  0  0  0
    8.8172  -15.7204   26.5274 O   0  0  0  0  0  0  0  0  0  0  0  0
   11.2050  -21.3309   19.3889 N   0  0  0  0  0  0  0  0  0  0  0  0
   11.3962  -21.8963   20.6718 C   0  0  0  0  0  0  0  0  0  0  0  0
   11.8450  -23.1134   20.7833 N   0  0  0  0  0  0  0  0  0  0  0  0
   11.1099  -21.1679   21.8734 N   0  0  0  0  0  0  0  0  0  0  0  0
   10.5367  -19.8479   21.8304 C   0  0  0  0  0  0  0  0  0  0  0  0
   10.2500  -19.3967   23.2392 C   0  0  0  0  0  0  0  0  0  0  0  0
    9.6312  -18.0014   23.1398 C   0  0  0  0  0  0  0  0  0  0  0  0
    9.2538  -17.5466   24.5644 C   0  0  2  0  0  0  0  0  0  0  0  0
    8.5251  -16.2976   24.3364 N   0  0  0  0  0  0  0  0  0  0  0  0
   10.5405  -17.3473   25.2536 C   0  0  0  0  0  0  0  0  0  0  0  0
   10.9163  -18.1596   26.1082 O   0  0  0  0  0  0  0  0  0  0  0  0
   11.3165  -16.2558   24.9396 O   0  0  0  0  0  0  0  0  0  0  0  0
  2  1  1  6
  2  4  1  0
  2  3  1  0
  4  6  1  0
  4  5  1  6
  6  7  2  0
  9  8  1  1
 10  9  1  0
 11  9  1  0
 12 11  1  1
 13 12  1  0
 13  6  1  0
 14 12  1  0
 14 15  2  0
 16 17  1  0
 17 19  1  0
 17 18  2  0
 19 20  1  0
 21 20  1  0
 21 22  1  0
 23 22  1  6
 23 24  1  0
 23 25  1  0
 24 14  1  0
 25 26  2  0
 25 27  1  0
M  END
$$$$
