VLR.pdb
     RDKit          3D

 27 26  0  0  1  0  0  0  0  0999 V2000
    7.1016  -17.3269   19.0534 C   0  0  0  0  0  0  0  0  0  0  0  0
    7.4773  -16.8523   20.4282 C   0  0  1  0  0  0  0  0  0  0  0  0
    8.6686  -17.6907   20.8761 C   0  0  0  0  0  0  0  0  0  0  0  0
    7.8863  -15.4184   20.4884 C   0  0  2  0  0  0  0  0  0  0  0  0
    9.0786  -15.2237   19.6448 N   0  0  0  0  0  0  0  0  0  0  0  0
    8.1969  -14.9105   21.8359 C   0  0  0  0  0  0  0  0  0  0  0  0
    9.4206  -14.9565   22.2106 O   0  0  0  0  0  0  0  0  0  0  0  0
    5.6368  -12.4570   26.9018 C   0  0  0  0  0  0  0  0  0  0  0  0
    6.9069  -13.0754   26.2968 C   0  0  2  0  0  0  0  0  0  0  0  0
    8.0178  -12.1081   26.5941 C   0  0  0  0  0  0  0  0  0  0  0  0
    6.6195  -13.2901   24.8564 C   0  0  0  0  0  0  0  0  0  0  0  0
    7.6373  -14.1123   24.1053 C   0  0  2  0  0  0  0  0  0  0  0  0
    7.2695  -14.3744   22.7568 N   0  0  0  0  0  0  0  0  0  0  0  0
    8.0458  -15.3489   24.8213 C   0  0  0  0  0  0  0  0  0  0  0  0
    7.2675  -16.3436   24.9149 O   0  0  0  0  0  0  0  0  0  0  0  0
   14.0523  -21.1832   26.2408 N   0  0  0  0  0  0  0  0  0  0  0  0
   13.3188  -21.2101   25.0312 C   0  0  0  0  0  0  0  0  0  0  0  0
   13.2151  -22.3214   24.3608 N   0  0  0  0  0  0  0  0  0  0  0  0
   12.6746  -20.0410   24.5071 N   0  0  0  0  0  0  0  0  0  0  0  0
   12.8155  -18.7585   25.1459 C   0  0  0  0  0  0  0  0  0  0  0  0
   11.5387  -18.4383   25.8793 C   0  0  0  0  0  0  0  0  0  0  0  0
   10.9921  -17.1450   25.2723 C   0  0  0  0  0  0  0  0  0  0  0  0
    9.7055  -16.7690   26.0353 C   0  0  2  0  0  0  0  0  0  0  0  0
    9.3214  -15.4897   25.4361 N   0  0  0  0  0  0  0  0  0  0  0  0
   10.1205  -16.6460   27.4434 C   0  0  0  0  0  0  0  0  0  0  0  0
   10.3090  -15.5268   27.9368 O   0  0  0  0  0  0  0  0  0  0  0  0
   10.2951  -17.7808   28.2010 O   0  0  0  0  0  0  0  0  0  0  0  0
  2  1  1  6
  2  4  1  0
  2  3  1  0
  4  6  1  0
  4  5  1  6
  6  7  2  0
  9  8  1  1
 10  9  1  0
 11  9  1  0
 12 11  1  1
 13 12  1  0
 13  6  1  0
 14 12  1  0
 14 15  2  0
 16 17  1  0
 17 19  1  0
 17 18  2  0
 19 20  1  0
 21 20  1  0
 21 22  1  0
 23 22  1  6
 23 24  1  0
 23 25  1  0
 24 14  1  0
 25 26  2  0
 25 27  1  0
M  END
$$$$
