VLR.pdb
     RDKit          3D

 27 26  0  0  1  0  0  0  0  0999 V2000
    8.7319  -19.6304   15.6339 C   0  0  0  0  0  0  0  0  0  0  0  0
    9.0395  -18.9563   16.9407 C   0  0  1  0  0  0  0  0  0  0  0  0
   10.2992  -19.6133   17.4922 C   0  0  0  0  0  0  0  0  0  0  0  0
    9.3074  -17.4929   16.8245 C   0  0  2  0  0  0  0  0  0  0  0  0
   10.4645  -17.2859   15.9362 N   0  0  0  0  0  0  0  0  0  0  0  0
    9.5834  -16.8025   18.0963 C   0  0  0  0  0  0  0  0  0  0  0  0
   10.7789  -16.8693   18.5505 O   0  0  0  0  0  0  0  0  0  0  0  0
    8.8239  -12.3614   19.4183 C   0  0  0  0  0  0  0  0  0  0  0  0
    7.6749  -13.3789   19.4946 C   0  0  2  0  0  0  0  0  0  0  0  0
    6.4383  -12.5817   19.8005 C   0  0  0  0  0  0  0  0  0  0  0  0
    8.0646  -14.3696   20.5290 C   0  0  0  0  0  0  0  0  0  0  0  0
    9.0333  -15.4346   20.0779 C   0  0  2  0  0  0  0  0  0  0  0  0
    8.6511  -16.0701   18.8643 N   0  0  0  0  0  0  0  0  0  0  0  0
    9.3694  -16.4188   21.1397 C   0  0  0  0  0  0  0  0  0  0  0  0
    8.8811  -17.5872   21.1334 O   0  0  0  0  0  0  0  0  0  0  0  0
   15.6631  -19.5283   19.3628 N   0  0  0  0  0  0  0  0  0  0  0  0
   15.6897  -20.1896   20.6133 C   0  0  0  0  0  0  0  0  0  0  0  0
   16.7319  -20.8923   20.9528 N   0  0  0  0  0  0  0  0  0  0  0  0
   14.5946  -20.1140   21.5361 N   0  0  0  0  0  0  0  0  0  0  0  0
   13.4153  -19.3442   21.2374 C   0  0  0  0  0  0  0  0  0  0  0  0
   13.3228  -18.1991   22.2125 C   0  0  0  0  0  0  0  0  0  0  0  0
   12.2454  -17.2519   21.6817 C   0  0  0  0  0  0  0  0  0  0  0  0
   11.1367  -17.1480   22.7490 C   0  0  2  0  0  0  0  0  0  0  0  0
   10.2511  -16.1125   22.2137 N   0  0  0  0  0  0  0  0  0  0  0  0
   11.8314  -16.7343   23.9803 C   0  0  0  0  0  0  0  0  0  0  0  0
   11.7557  -15.5616   24.3686 O   0  0  0  0  0  0  0  0  0  0  0  0
   12.5610  -17.6587   24.6912 O   0  0  0  0  0  0  0  0  0  0  0  0
  2  1  1  6
  2  4  1  0
  2  3  1  0
  4  6  1  0
  4  5  1  6
  6  7  2  0
  9  8  1  1
 10  9  1  0
 11  9  1  0
 12 11  1  1
 13 12  1  0
 13  6  1  0
 14 12  1  0
 14 15  2  0
 16 17  1  0
 17 19  1  0
 17 18  2  0
 19 20  1  0
 21 20  1  0
 21 22  1  0
 23 22  1  6
 23 24  1  0
 23 25  1  0
 24 14  1  0
 25 26  2  0
 25 27  1  0
M  END
$$$$
