VLR.pdb
     RDKit          3D

 27 26  0  0  1  0  0  0  0  0999 V2000
    7.7606  -13.6224   17.9908 C   0  0  0  0  0  0  0  0  0  0  0  0
    8.4119  -13.4650   19.3353 C   0  0  1  0  0  0  0  0  0  0  0  0
    7.6787  -12.3385   20.0536 C   0  0  0  0  0  0  0  0  0  0  0  0
    8.3305  -14.6794   20.1988 C   0  0  2  0  0  0  0  0  0  0  0  0
    6.9752  -15.2488   20.0994 N   0  0  0  0  0  0  0  0  0  0  0  0
    8.6246  -14.4561   21.6250 C   0  0  0  0  0  0  0  0  0  0  0  0
    9.8153  -14.0946   21.9270 O   0  0  0  0  0  0  0  0  0  0  0  0
    5.9312  -12.9583   26.8990 C   0  0  0  0  0  0  0  0  0  0  0  0
    7.2721  -13.2173   26.1944 C   0  0  2  0  0  0  0  0  0  0  0  0
    8.0541  -11.9397   26.3145 C   0  0  0  0  0  0  0  0  0  0  0  0
    6.9403  -13.6315   24.8081 C   0  0  0  0  0  0  0  0  0  0  0  0
    8.0735  -14.2449   24.0233 C   0  0  2  0  0  0  0  0  0  0  0  0
    7.7136  -14.6023   22.6947 N   0  0  0  0  0  0  0  0  0  0  0  0
    8.7527  -15.3590   24.7349 C   0  0  0  0  0  0  0  0  0  0  0  0
    8.1749  -16.4701   24.9229 O   0  0  0  0  0  0  0  0  0  0  0  0
   12.0268  -20.5839   30.1817 N   0  0  0  0  0  0  0  0  0  0  0  0
   10.7265  -20.0627   29.9825 C   0  0  0  0  0  0  0  0  0  0  0  0
    9.6919  -20.7124   30.4328 N   0  0  0  0  0  0  0  0  0  0  0  0
   10.5012  -18.8260   29.2924 N   0  0  0  0  0  0  0  0  0  0  0  0
   11.2807  -18.4593   28.1389 C   0  0  0  0  0  0  0  0  0  0  0  0
   10.4038  -18.5355   26.9158 C   0  0  0  0  0  0  0  0  0  0  0  0
    9.8814  -17.1213   26.6570 C   0  0  0  0  0  0  0  0  0  0  0  0
   10.8152  -16.4509   25.6287 C   0  0  2  0  0  0  0  0  0  0  0  0
   10.0782  -15.2471   25.2404 N   0  0  0  0  0  0  0  0  0  0  0  0
   10.9413  -17.4292   24.5346 C   0  0  0  0  0  0  0  0  0  0  0  0
    9.9278  -17.8554   23.9666 O   0  0  0  0  0  0  0  0  0  0  0  0
   12.1896  -17.8621   24.1519 O   0  0  0  0  0  0  0  0  0  0  0  0
  2  1  1  6
  2  4  1  0
  2  3  1  0
  4  6  1  0
  4  5  1  1
  6  7  2  0
  9  8  1  1
 10  9  1  0
 11  9  1  0
 12 11  1  1
 13 12  1  0
 13  6  1  0
 14 12  1  0
 14 15  2  0
 16 17  1  0
 17 19  1  0
 17 18  2  0
 19 20  1  0
 21 20  1  0
 21 22  1  0
 23 22  1  1
 23 24  1  0
 23 25  1  0
 24 14  1  0
 25 26  2  0
 25 27  1  0
M  END
$$$$
