DQQ.pdb
     RDKit          3D

 27 26  0  0  1  0  0  0  0  0999 V2000
    9.3836  -17.2409   16.6783 N   0  0  0  0  0  0  0  0  0  0  0  0
   10.5710  -17.1714   17.4628 C   0  0  1  0  0  0  0  0  0  0  0  0
   11.6752  -16.3762   16.7556 C   0  0  0  0  0  0  0  0  0  0  0  0
   11.8717  -16.8735   15.3886 C   0  0  0  0  0  0  0  0  0  0  0  0
   12.0847  -18.0895   15.2015 O   0  0  0  0  0  0  0  0  0  0  0  0
   10.3486  -16.4728   18.7707 C   0  0  0  0  0  0  0  0  0  0  0  0
   11.3189  -16.1593   19.5095 O   0  0  0  0  0  0  0  0  0  0  0  0
   11.8194  -15.9968   14.3292 O   0  0  0  0  0  0  0  0  0  0  0  0
    8.7639  -12.1377   18.6168 N   0  0  0  0  0  0  0  0  0  0  0  0
    8.2111  -12.7089   19.7913 C   0  0  0  0  0  0  0  0  0  0  0  0
    8.6247  -12.2368   20.9011 O   0  0  0  0  0  0  0  0  0  0  0  0
    7.2058  -13.7886   19.7038 C   0  0  0  0  0  0  0  0  0  0  0  0
    7.4976  -14.8955   20.6215 C   0  0  0  0  0  0  0  0  0  0  0  0
    8.8247  -15.5641   20.5763 C   0  0  2  0  0  0  0  0  0  0  0  0
    9.0604  -16.1312   19.2425 N   0  0  0  0  0  0  0  0  0  0  0  0
    9.2412  -16.4260   21.6513 C   0  0  0  0  0  0  0  0  0  0  0  0
    9.0141  -17.6624   21.6193 O   0  0  0  0  0  0  0  0  0  0  0  0
   15.2082  -18.1816   25.3465 N   0  0  0  0  0  0  0  0  0  0  0  0
   14.3472  -17.4589   24.4715 C   0  0  0  0  0  0  0  0  0  0  0  0
   14.8385  -16.7072   23.5842 O   0  0  0  0  0  0  0  0  0  0  0  0
   12.8719  -17.5918   24.6051 C   0  0  0  0  0  0  0  0  0  0  0  0
   12.1088  -16.7628   23.6307 C   0  0  0  0  0  0  0  0  0  0  0  0
   10.6224  -16.8589   23.7158 C   0  0  2  0  0  0  0  0  0  0  0  0
    9.9307  -15.9547   22.8176 N   0  0  0  0  0  0  0  0  0  0  0  0
   10.2599  -16.3994   25.1096 C   0  0  0  0  0  0  0  0  0  0  0  0
    9.6486  -15.3173   25.2739 O   0  0  0  0  0  0  0  0  0  0  0  0
   10.5766  -17.1309   26.2416 O   0  0  0  0  0  0  0  0  0  0  0  0
  2  1  1  6
  2  3  1  0
  3  4  1  0
  4  8  1  0
  5  4  2  0
  6  2  1  0
  7  6  2  0
  9 10  1  0
 10 12  1  0
 10 11  2  0
 12 13  1  0
 14 13  1  1
 14 15  1  0
 15  6  1  0
 16 17  2  0
 16 14  1  0
 18 19  1  0
 19 20  2  0
 21 19  1  0
 21 22  1  0
 23 22  1  1
 23 24  1  0
 24 16  1  0
 25 23  1  0
 26 25  2  0
 27 25  1  0
M  END
$$$$
