DQQ.pdb
     RDKit          3D

 27 26  0  0  1  0  0  0  0  0999 V2000
    9.5496  -19.5190   20.5755 N   0  0  0  0  0  0  0  0  0  0  0  0
   10.5531  -18.5941   20.1658 C   0  0  1  0  0  0  0  0  0  0  0  0
   10.9614  -18.8074   18.7031 C   0  0  0  0  0  0  0  0  0  0  0  0
   12.2384  -19.5271   18.6256 C   0  0  0  0  0  0  0  0  0  0  0  0
   12.7362  -20.0092   19.6642 O   0  0  0  0  0  0  0  0  0  0  0  0
   10.0839  -17.1724   20.2479 C   0  0  0  0  0  0  0  0  0  0  0  0
    9.7188  -16.5513   19.2151 O   0  0  0  0  0  0  0  0  0  0  0  0
   12.8728  -19.6631   17.4120 O   0  0  0  0  0  0  0  0  0  0  0  0
    7.8992  -12.7054   19.9155 N   0  0  0  0  0  0  0  0  0  0  0  0
    7.7174  -13.8062   19.0398 C   0  0  0  0  0  0  0  0  0  0  0  0
    7.4648  -13.5269   17.8217 O   0  0  0  0  0  0  0  0  0  0  0  0
    7.8267  -15.1929   19.5388 C   0  0  0  0  0  0  0  0  0  0  0  0
    7.9788  -15.2486   20.9970 C   0  0  0  0  0  0  0  0  0  0  0  0
    9.3339  -15.1702   21.6033 C   0  0  2  0  0  0  0  0  0  0  0  0
   10.0247  -16.4588   21.4668 N   0  0  0  0  0  0  0  0  0  0  0  0
    9.5203  -14.5491   22.8883 C   0  0  0  0  0  0  0  0  0  0  0  0
    9.7622  -13.3190   22.9876 O   0  0  0  0  0  0  0  0  0  0  0  0
    5.4048  -12.9900   26.1349 N   0  0  0  0  0  0  0  0  0  0  0  0
    6.4200  -12.7069   27.0933 C   0  0  0  0  0  0  0  0  0  0  0  0
    6.1621  -11.9677   28.0836 O   0  0  0  0  0  0  0  0  0  0  0  0
    7.7809  -13.2829   26.9253 C   0  0  0  0  0  0  0  0  0  0  0  0
    7.9766  -13.9774   25.6220 C   0  0  0  0  0  0  0  0  0  0  0  0
    9.3219  -14.5838   25.4016 C   0  0  2  0  0  0  0  0  0  0  0  0
    9.4484  -15.2664   24.1286 N   0  0  0  0  0  0  0  0  0  0  0  0
    9.4647  -15.6604   26.4531 C   0  0  0  0  0  0  0  0  0  0  0  0
    9.3462  -16.8672   26.1350 O   0  0  0  0  0  0  0  0  0  0  0  0
    9.7262  -15.3743   27.7822 O   0  0  0  0  0  0  0  0  0  0  0  0
  2  1  1  6
  2  3  1  0
  3  4  1  0
  4  8  1  0
  5  4  2  0
  6  2  1  0
  7  6  2  0
  9 10  1  0
 10 12  1  0
 10 11  2  0
 12 13  1  0
 14 13  1  1
 14 15  1  0
 15  6  1  0
 16 17  2  0
 16 14  1  0
 18 19  1  0
 19 20  2  0
 21 19  1  0
 21 22  1  0
 23 22  1  6
 23 24  1  0
 24 16  1  0
 25 23  1  0
 26 25  2  0
 27 25  1  0
M  END
$$$$
