DQQ.pdb
     RDKit          3D

 27 26  0  0  1  0  0  0  0  0999 V2000
   12.0127  -17.9766   19.5768 N   0  0  0  0  0  0  0  0  0  0  0  0
   12.9684  -17.6804   20.5913 C   0  0  1  0  0  0  0  0  0  0  0  0
   14.0215  -16.6767   20.1062 C   0  0  0  0  0  0  0  0  0  0  0  0
   14.9065  -17.2992   19.1143 C   0  0  0  0  0  0  0  0  0  0  0  0
   14.4200  -17.7655   18.0632 O   0  0  0  0  0  0  0  0  0  0  0  0
   12.3401  -17.0506   21.7982 C   0  0  0  0  0  0  0  0  0  0  0  0
   13.0499  -16.5923   22.7318 O   0  0  0  0  0  0  0  0  0  0  0  0
   16.2605  -17.3626   19.3520 O   0  0  0  0  0  0  0  0  0  0  0  0
    6.7837  -14.3734   21.7591 N   0  0  0  0  0  0  0  0  0  0  0  0
    7.0247  -14.3285   23.1561 C   0  0  0  0  0  0  0  0  0  0  0  0
    6.2036  -13.6451   23.8521 O   0  0  0  0  0  0  0  0  0  0  0  0
    8.1708  -15.0502   23.7472 C   0  0  0  0  0  0  0  0  0  0  0  0
    9.0161  -15.6814   22.7276 C   0  0  0  0  0  0  0  0  0  0  0  0
   10.3192  -16.2827   23.1153 C   0  0  2  0  0  0  0  0  0  0  0  0
   10.9399  -16.9363   21.9560 N   0  0  0  0  0  0  0  0  0  0  0  0
   10.4368  -17.0384   24.3348 C   0  0  0  0  0  0  0  0  0  0  0  0
   10.3088  -18.2894   24.3399 O   0  0  0  0  0  0  0  0  0  0  0  0
   11.9714  -14.2475   29.5219 N   0  0  0  0  0  0  0  0  0  0  0  0
   10.6500  -14.1187   29.0056 C   0  0  0  0  0  0  0  0  0  0  0  0
    9.9940  -13.0601   29.2119 O   0  0  0  0  0  0  0  0  0  0  0  0
   10.0465  -15.2315   28.2247 C   0  0  0  0  0  0  0  0  0  0  0  0
   10.9524  -16.4024   28.0593 C   0  0  0  0  0  0  0  0  0  0  0  0
   10.7408  -17.2224   26.8310 C   0  0  2  0  0  0  0  0  0  0  0  0
   10.7014  -16.4394   25.6111 N   0  0  0  0  0  0  0  0  0  0  0  0
    9.3604  -17.8227   26.9703 C   0  0  0  0  0  0  0  0  0  0  0  0
    8.4270  -17.4263   26.2332 O   0  0  0  0  0  0  0  0  0  0  0  0
    9.0677  -18.8123   27.8931 O   0  0  0  0  0  0  0  0  0  0  0  0
  2  1  1  6
  2  3  1  0
  3  4  1  0
  4  8  1  0
  5  4  2  0
  6  2  1  0
  7  6  2  0
  9 10  1  0
 10 12  1  0
 10 11  2  0
 12 13  1  0
 14 13  1  6
 14 15  1  0
 15  6  1  0
 16 17  2  0
 16 14  1  0
 18 19  1  0
 19 20  2  0
 21 19  1  0
 21 22  1  0
 23 22  1  1
 23 24  1  0
 24 16  1  0
 25 23  1  0
 26 25  2  0
 27 25  1  0
M  END
$$$$
