DQQ.pdb
     RDKit          3D

 27 26  0  0  1  0  0  0  0  0999 V2000
   11.0163  -14.1514   18.7420 N   0  0  0  0  0  0  0  0  0  0  0  0
   11.4802  -15.2018   19.5857 C   0  0  1  0  0  0  0  0  0  0  0  0
   12.9103  -14.9478   20.0775 C   0  0  0  0  0  0  0  0  0  0  0  0
   13.8597  -15.0270   18.9607 C   0  0  0  0  0  0  0  0  0  0  0  0
   14.2854  -13.9751   18.4400 O   0  0  0  0  0  0  0  0  0  0  0  0
   10.6492  -15.3446   20.8255 C   0  0  0  0  0  0  0  0  0  0  0  0
   10.3870  -14.3462   21.5467 O   0  0  0  0  0  0  0  0  0  0  0  0
   14.2702  -16.2570   18.4998 O   0  0  0  0  0  0  0  0  0  0  0  0
    7.3015  -20.4507   22.1756 N   0  0  0  0  0  0  0  0  0  0  0  0
    6.9816  -19.6533   23.3041 C   0  0  0  0  0  0  0  0  0  0  0  0
    6.0824  -20.1092   24.0848 O   0  0  0  0  0  0  0  0  0  0  0  0
    7.6740  -18.3695   23.5412 C   0  0  0  0  0  0  0  0  0  0  0  0
    8.6372  -18.0533   22.4806 C   0  0  0  0  0  0  0  0  0  0  0  0
    9.3260  -16.7358   22.4753 C   0  0  2  0  0  0  0  0  0  0  0  0
   10.1208  -16.5853   21.2498 N   0  0  0  0  0  0  0  0  0  0  0  0
    9.9943  -16.2603   23.6582 C   0  0  0  0  0  0  0  0  0  0  0  0
   10.9452  -15.4409   23.5834 O   0  0  0  0  0  0  0  0  0  0  0  0
    6.2697  -12.9832   25.7060 N   0  0  0  0  0  0  0  0  0  0  0  0
    7.0307  -12.9345   26.9092 C   0  0  0  0  0  0  0  0  0  0  0  0
    6.7278  -12.1062   27.8125 O   0  0  0  0  0  0  0  0  0  0  0  0
    8.1798  -13.8596   27.0985 C   0  0  0  0  0  0  0  0  0  0  0  0
    8.4104  -14.7674   25.9402 C   0  0  0  0  0  0  0  0  0  0  0  0
    9.5413  -15.7303   26.0812 C   0  0  2  0  0  0  0  0  0  0  0  0
    9.6388  -16.6743   24.9849 N   0  0  0  0  0  0  0  0  0  0  0  0
    9.2232  -16.5618   27.3030 C   0  0  0  0  0  0  0  0  0  0  0  0
    8.5021  -17.5817   27.1969 O   0  0  0  0  0  0  0  0  0  0  0  0
    9.6996  -16.2462   28.5640 O   0  0  0  0  0  0  0  0  0  0  0  0
  2  1  1  6
  2  3  1  0
  3  4  1  0
  4  8  1  0
  5  4  2  0
  6  2  1  0
  7  6  2  0
  9 10  1  0
 10 12  1  0
 10 11  2  0
 12 13  1  0
 14 13  1  1
 14 15  1  0
 15  6  1  0
 16 17  2  0
 16 14  1  0
 18 19  1  0
 19 20  2  0
 21 19  1  0
 21 22  1  0
 23 22  1  6
 23 24  1  0
 24 16  1  0
 25 23  1  0
 26 25  2  0
 27 25  1  0
M  END
$$$$
