DQQ.pdb
     RDKit          3D

 27 26  0  0  1  0  0  0  0  0999 V2000
   11.4173  -18.3657   19.4955 N   0  0  0  0  0  0  0  0  0  0  0  0
   11.9605  -17.5515   20.5311 C   0  0  1  0  0  0  0  0  0  0  0  0
   12.6155  -16.2821   19.9732 C   0  0  0  0  0  0  0  0  0  0  0  0
   13.9122  -16.5987   19.3623 C   0  0  0  0  0  0  0  0  0  0  0  0
   14.5939  -17.5394   19.8199 O   0  0  0  0  0  0  0  0  0  0  0  0
   10.9104  -17.0733   21.4886 C   0  0  0  0  0  0  0  0  0  0  0  0
   10.5074  -15.8805   21.4635 O   0  0  0  0  0  0  0  0  0  0  0  0
   14.3626  -15.8574   18.2940 O   0  0  0  0  0  0  0  0  0  0  0  0
    6.9882  -20.9624   24.2641 N   0  0  0  0  0  0  0  0  0  0  0  0
    6.5899  -19.7700   24.9208 C   0  0  0  0  0  0  0  0  0  0  0  0
    5.6470  -19.8786   25.7722 O   0  0  0  0  0  0  0  0  0  0  0  0
    7.2543  -18.4849   24.6193 C   0  0  0  0  0  0  0  0  0  0  0  0
    8.3193  -18.6305   23.6208 C   0  0  0  0  0  0  0  0  0  0  0  0
    9.2211  -17.4854   23.3283 C   0  0  2  0  0  0  0  0  0  0  0  0
   10.3219  -17.9176   22.4578 N   0  0  0  0  0  0  0  0  0  0  0  0
    9.6348  -16.5981   24.3837 C   0  0  0  0  0  0  0  0  0  0  0  0
   10.7208  -16.7734   24.9929 O   0  0  0  0  0  0  0  0  0  0  0  0
    6.6860  -11.2624   26.5411 N   0  0  0  0  0  0  0  0  0  0  0  0
    6.1737  -12.5734   26.7601 C   0  0  0  0  0  0  0  0  0  0  0  0
    4.9794  -12.7274   27.1390 O   0  0  0  0  0  0  0  0  0  0  0  0
    7.0467  -13.7576   26.5414 C   0  0  0  0  0  0  0  0  0  0  0  0
    8.4205  -13.4080   26.0840 C   0  0  0  0  0  0  0  0  0  0  0  0
    9.3377  -14.5582   25.8355 C   0  0  2  0  0  0  0  0  0  0  0  0
    8.8593  -15.4712   24.8156 N   0  0  0  0  0  0  0  0  0  0  0  0
    9.3516  -15.3575   27.1186 C   0  0  0  0  0  0  0  0  0  0  0  0
    9.8961  -14.8865   28.1448 O   0  0  0  0  0  0  0  0  0  0  0  0
    8.7794  -16.6141   27.2202 O   0  0  0  0  0  0  0  0  0  0  0  0
  2  1  1  6
  2  3  1  0
  3  4  1  0
  4  8  1  0
  5  4  2  0
  6  2  1  0
  7  6  2  0
  9 10  1  0
 10 12  1  0
 10 11  2  0
 12 13  1  0
 14 13  1  1
 14 15  1  0
 15  6  1  0
 16 17  2  0
 16 14  1  0
 18 19  1  0
 19 20  2  0
 21 19  1  0
 21 22  1  0
 23 22  1  1
 23 24  1  0
 24 16  1  0
 25 23  1  0
 26 25  2  0
 27 25  1  0
M  END
$$$$
