DQQ.pdb
     RDKit          3D

 27 26  0  0  1  0  0  0  0  0999 V2000
   12.5394  -19.0026   21.0687 N   0  0  0  0  0  0  0  0  0  0  0  0
   12.8676  -17.6894   21.5138 C   0  0  1  0  0  0  0  0  0  0  0  0
   12.6854  -16.6490   20.4020 C   0  0  0  0  0  0  0  0  0  0  0  0
   13.7483  -16.7782   19.3979 C   0  0  0  0  0  0  0  0  0  0  0  0
   14.2364  -17.9027   19.1608 O   0  0  0  0  0  0  0  0  0  0  0  0
   11.9868  -17.2332   22.6381 C   0  0  0  0  0  0  0  0  0  0  0  0
   12.0207  -16.0415   23.0435 O   0  0  0  0  0  0  0  0  0  0  0  0
   14.1952  -15.6615   18.7294 O   0  0  0  0  0  0  0  0  0  0  0  0
    6.3762  -19.5418   24.4416 N   0  0  0  0  0  0  0  0  0  0  0  0
    7.4617  -20.2824   24.9754 C   0  0  0  0  0  0  0  0  0  0  0  0
    7.1768  -21.4088   25.5003 O   0  0  0  0  0  0  0  0  0  0  0  0
    8.8404  -19.7549   24.9073 C   0  0  0  0  0  0  0  0  0  0  0  0
    8.8971  -18.4252   24.2897 C   0  0  0  0  0  0  0  0  0  0  0  0
   10.1577  -17.6388   24.3406 C   0  0  2  0  0  0  0  0  0  0  0  0
   11.0831  -18.0980   23.2971 N   0  0  0  0  0  0  0  0  0  0  0  0
   10.7975  -17.3721   25.6022 C   0  0  0  0  0  0  0  0  0  0  0  0
   11.7385  -18.0941   26.0200 O   0  0  0  0  0  0  0  0  0  0  0  0
    9.3774  -12.4900   27.3227 N   0  0  0  0  0  0  0  0  0  0  0  0
    8.5723  -13.6049   27.6941 C   0  0  0  0  0  0  0  0  0  0  0  0
    7.3871  -13.6950   27.2688 O   0  0  0  0  0  0  0  0  0  0  0  0
    9.1299  -14.6602   28.5816 C   0  0  0  0  0  0  0  0  0  0  0  0
   10.6025  -14.8374   28.4434 C   0  0  0  0  0  0  0  0  0  0  0  0
   11.0477  -16.0841   27.7553 C   0  0  2  0  0  0  0  0  0  0  0  0
   10.4210  -16.2887   26.4637 N   0  0  0  0  0  0  0  0  0  0  0  0
   10.5680  -17.2258   28.6222 C   0  0  0  0  0  0  0  0  0  0  0  0
    9.5735  -17.9040   28.2721 O   0  0  0  0  0  0  0  0  0  0  0  0
   11.1864  -17.5688   29.8124 O   0  0  0  0  0  0  0  0  0  0  0  0
  2  1  1  6
  2  3  1  0
  3  4  1  0
  4  8  1  0
  5  4  2  0
  6  2  1  0
  7  6  2  0
  9 10  1  0
 10 12  1  0
 10 11  2  0
 12 13  1  0
 14 13  1  1
 14 15  1  0
 15  6  1  0
 16 17  2  0
 16 14  1  0
 18 19  1  0
 19 20  2  0
 21 19  1  0
 21 22  1  0
 23 22  1  1
 23 24  1  0
 24 16  1  0
 25 23  1  0
 26 25  2  0
 27 25  1  0
M  END
$$$$
