DQQ.pdb
     RDKit          3D

 27 26  0  0  1  0  0  0  0  0999 V2000
   10.0463  -16.9006   14.9706 N   0  0  0  0  0  0  0  0  0  0  0  0
   11.4422  -16.6229   15.0371 C   0  0  1  0  0  0  0  0  0  0  0  0
   11.9265  -15.8405   13.8103 C   0  0  0  0  0  0  0  0  0  0  0  0
   13.3438  -16.1196   13.5492 C   0  0  0  0  0  0  0  0  0  0  0  0
   14.0033  -15.3358   12.8353 O   0  0  0  0  0  0  0  0  0  0  0  0
   11.7973  -15.7731   16.2203 C   0  0  0  0  0  0  0  0  0  0  0  0
   13.0002  -15.5687   16.5320 O   0  0  0  0  0  0  0  0  0  0  0  0
   13.9302  -17.2398   14.0924 O   0  0  0  0  0  0  0  0  0  0  0  0
    7.9291  -12.0875   19.7579 N   0  0  0  0  0  0  0  0  0  0  0  0
    7.5798  -13.2363   19.0031 C   0  0  0  0  0  0  0  0  0  0  0  0
    6.3335  -13.4627   18.8577 O   0  0  0  0  0  0  0  0  0  0  0  0
    8.6257  -14.1038   18.4221 C   0  0  0  0  0  0  0  0  0  0  0  0
    9.9774  -13.5990   18.6880 C   0  0  0  0  0  0  0  0  0  0  0  0
   11.1603  -14.3762   18.2331 C   0  0  2  0  0  0  0  0  0  0  0  0
   10.8209  -15.1628   17.0404 N   0  0  0  0  0  0  0  0  0  0  0  0
   11.9696  -15.0915   19.1846 C   0  0  0  0  0  0  0  0  0  0  0  0
   11.9199  -16.3452   19.2687 O   0  0  0  0  0  0  0  0  0  0  0  0
   17.8954  -13.8236   22.1194 N   0  0  0  0  0  0  0  0  0  0  0  0
   17.2201  -15.0766   22.0628 C   0  0  0  0  0  0  0  0  0  0  0  0
   17.8407  -16.1097   21.6869 O   0  0  0  0  0  0  0  0  0  0  0  0
   15.7859  -15.1648   22.4468 C   0  0  0  0  0  0  0  0  0  0  0  0
   14.8763  -14.4298   21.5243 C   0  0  0  0  0  0  0  0  0  0  0  0
   13.7098  -15.2022   21.0058 C   0  0  2  0  0  0  0  0  0  0  0  0
   12.8745  -14.4470   20.0922 N   0  0  0  0  0  0  0  0  0  0  0  0
   12.8385  -15.4872   22.2078 C   0  0  0  0  0  0  0  0  0  0  0  0
   13.2645  -16.2201   23.1313 O   0  0  0  0  0  0  0  0  0  0  0  0
   11.5627  -14.9671   22.3437 O   0  0  0  0  0  0  0  0  0  0  0  0
  2  1  1  6
  2  3  1  0
  3  4  1  0
  4  8  1  0
  5  4  2  0
  6  2  1  0
  7  6  2  0
  9 10  1  0
 10 12  1  0
 10 11  2  0
 12 13  1  0
 14 13  1  1
 14 15  1  0
 15  6  1  0
 16 17  2  0
 16 14  1  0
 18 19  1  0
 19 20  2  0
 21 19  1  0
 21 22  1  0
 23 22  1  1
 23 24  1  0
 24 16  1  0
 25 23  1  0
 26 25  2  0
 27 25  1  0
M  END
$$$$
