DQQ.pdb
     RDKit          3D

 27 26  0  0  1  0  0  0  0  0999 V2000
   15.7946  -25.4258   24.3264 N   0  0  0  0  0  0  0  0  0  0  0  0
   15.6325  -25.8410   25.6798 C   0  0  1  0  0  0  0  0  0  0  0  0
   16.8799  -26.5595   26.2084 C   0  0  0  0  0  0  0  0  0  0  0  0
   16.9216  -27.9433   25.7204 C   0  0  0  0  0  0  0  0  0  0  0  0
   16.4200  -28.2191   24.6108 O   0  0  0  0  0  0  0  0  0  0  0  0
   15.4130  -24.6838   26.6074 C   0  0  0  0  0  0  0  0  0  0  0  0
   16.3872  -24.0597   27.1046 O   0  0  0  0  0  0  0  0  0  0  0  0
   17.5117  -28.9206   26.4888 O   0  0  0  0  0  0  0  0  0  0  0  0
   10.6453  -20.6259   26.2040 N   0  0  0  0  0  0  0  0  0  0  0  0
   11.6478  -20.0570   27.0303 C   0  0  0  0  0  0  0  0  0  0  0  0
   11.7520  -18.7865   27.0036 O   0  0  0  0  0  0  0  0  0  0  0  0
   12.5076  -20.9147   27.8723 C   0  0  0  0  0  0  0  0  0  0  0  0
   12.9468  -22.1242   27.1674 C   0  0  0  0  0  0  0  0  0  0  0  0
   13.9008  -23.0574   27.8225 C   0  0  2  0  0  0  0  0  0  0  0  0
   14.1234  -24.2333   26.9717 N   0  0  0  0  0  0  0  0  0  0  0  0
   13.7637  -23.3742   29.2200 C   0  0  0  0  0  0  0  0  0  0  0  0
   12.8883  -24.1832   29.6209 O   0  0  0  0  0  0  0  0  0  0  0  0
   17.1650  -23.8859   35.7711 N   0  0  0  0  0  0  0  0  0  0  0  0
   16.8680  -23.0852   34.6310 C   0  0  0  0  0  0  0  0  0  0  0  0
   17.6846  -22.1995   34.2538 O   0  0  0  0  0  0  0  0  0  0  0  0
   15.5968  -23.2946   33.8877 C   0  0  0  0  0  0  0  0  0  0  0  0
   15.6976  -22.9790   32.4354 C   0  0  0  0  0  0  0  0  0  0  0  0
   14.4525  -23.1759   31.6373 C   0  0  2  0  0  0  0  0  0  0  0  0
   14.5934  -22.8052   30.2425 N   0  0  0  0  0  0  0  0  0  0  0  0
   13.4396  -22.2114   32.2111 C   0  0  0  0  0  0  0  0  0  0  0  0
   13.1896  -21.1370   31.6156 O   0  0  0  0  0  0  0  0  0  0  0  0
   12.7574  -22.4607   33.3897 O   0  0  0  0  0  0  0  0  0  0  0  0
  2  1  1  6
  2  3  1  0
  3  4  1  0
  4  8  1  0
  5  4  2  0
  6  2  1  0
  7  6  2  0
  9 10  1  0
 10 12  1  0
 10 11  2  0
 12 13  1  0
 14 13  1  6
 14 15  1  0
 15  6  1  0
 16 17  2  0
 16 14  1  0
 18 19  1  0
 19 20  2  0
 21 19  1  0
 21 22  1  0
 23 22  1  1
 23 24  1  0
 24 16  1  0
 25 23  1  0
 26 25  2  0
 27 25  1  0
M  END
$$$$
