DQQ.pdb
     RDKit          3D

 27 26  0  0  1  0  0  0  0  0999 V2000
   11.9011  -17.8280   19.1371 N   0  0  0  0  0  0  0  0  0  0  0  0
   12.7435  -17.3535   20.1837 C   0  0  1  0  0  0  0  0  0  0  0  0
   13.9541  -16.5869   19.6373 C   0  0  0  0  0  0  0  0  0  0  0  0
   14.8973  -17.5081   18.9920 C   0  0  0  0  0  0  0  0  0  0  0  0
   16.0227  -17.0926   18.6456 O   0  0  0  0  0  0  0  0  0  0  0  0
   12.0364  -16.3921   21.0913 C   0  0  0  0  0  0  0  0  0  0  0  0
   12.6665  -15.7565   21.9772 O   0  0  0  0  0  0  0  0  0  0  0  0
   14.5330  -18.8174   18.7756 O   0  0  0  0  0  0  0  0  0  0  0  0
    6.3085  -13.8374   20.3571 N   0  0  0  0  0  0  0  0  0  0  0  0
    7.4269  -13.8695   19.4855 C   0  0  0  0  0  0  0  0  0  0  0  0
    7.2211  -13.4963   18.2838 O   0  0  0  0  0  0  0  0  0  0  0  0
    8.7504  -14.3108   19.9728 C   0  0  0  0  0  0  0  0  0  0  0  0
    8.7127  -14.7348   21.3770 C   0  0  0  0  0  0  0  0  0  0  0  0
    9.9176  -15.3450   21.9983 C   0  0  2  0  0  0  0  0  0  0  0  0
   10.6467  -16.1470   21.0075 N   0  0  0  0  0  0  0  0  0  0  0  0
    9.8313  -15.9673   23.2934 C   0  0  0  0  0  0  0  0  0  0  0  0
    9.7636  -17.2175   23.4113 O   0  0  0  0  0  0  0  0  0  0  0  0
   10.4376  -13.2384   29.1384 N   0  0  0  0  0  0  0  0  0  0  0  0
   10.5119  -14.6388   29.3890 C   0  0  0  0  0  0  0  0  0  0  0  0
   10.8185  -15.0569   30.5400 O   0  0  0  0  0  0  0  0  0  0  0  0
   10.2278  -15.6047   28.2942 C   0  0  0  0  0  0  0  0  0  0  0  0
   10.1280  -14.9693   26.9507 C   0  0  0  0  0  0  0  0  0  0  0  0
    9.8371  -15.8904   25.8135 C   0  0  2  0  0  0  0  0  0  0  0  0
    9.8144  -15.2291   24.5232 N   0  0  0  0  0  0  0  0  0  0  0  0
    8.4271  -16.3874   26.0375 C   0  0  0  0  0  0  0  0  0  0  0  0
    8.2035  -17.2734   26.8956 O   0  0  0  0  0  0  0  0  0  0  0  0
    7.3437  -15.9017   25.3254 O   0  0  0  0  0  0  0  0  0  0  0  0
  2  1  1  6
  2  3  1  0
  3  4  1  0
  4  8  1  0
  5  4  2  0
  6  2  1  0
  7  6  2  0
  9 10  1  0
 10 12  1  0
 10 11  2  0
 12 13  1  0
 14 13  1  6
 14 15  1  0
 15  6  1  0
 16 17  2  0
 16 14  1  0
 18 19  1  0
 19 20  2  0
 21 19  1  0
 21 22  1  0
 23 22  1  1
 23 24  1  0
 24 16  1  0
 25 23  1  0
 26 25  2  0
 27 25  1  0
M  END
$$$$
