DQQ.pdb
     RDKit          3D

 27 26  0  0  1  0  0  0  0  0999 V2000
    6.8862  -15.9225   21.0627 N   0  0  0  0  0  0  0  0  0  0  0  0
    8.2974  -15.8006   20.9080 C   0  0  1  0  0  0  0  0  0  0  0  0
    8.6660  -14.7617   19.8419 C   0  0  0  0  0  0  0  0  0  0  0  0
    8.3738  -15.2774   18.4990 C   0  0  0  0  0  0  0  0  0  0  0  0
    7.9305  -14.5026   17.6260 O   0  0  0  0  0  0  0  0  0  0  0  0
    8.9697  -15.3397   22.1664 C   0  0  0  0  0  0  0  0  0  0  0  0
   10.2030  -15.0857   22.1850 O   0  0  0  0  0  0  0  0  0  0  0  0
    8.5907  -16.6066   18.2161 O   0  0  0  0  0  0  0  0  0  0  0  0
    7.2331  -12.3165   27.4630 N   0  0  0  0  0  0  0  0  0  0  0  0
    6.3265  -12.8926   26.5367 C   0  0  0  0  0  0  0  0  0  0  0  0
    5.0880  -12.6674   26.7395 O   0  0  0  0  0  0  0  0  0  0  0  0
    6.8195  -13.7014   25.4025 C   0  0  0  0  0  0  0  0  0  0  0  0
    8.2842  -13.7826   25.3727 C   0  0  0  0  0  0  0  0  0  0  0  0
    8.9487  -14.9056   24.6603 C   0  0  2  0  0  0  0  0  0  0  0  0
    8.2718  -15.1662   23.3835 N   0  0  0  0  0  0  0  0  0  0  0  0
    9.3172  -16.1012   25.3722 C   0  0  0  0  0  0  0  0  0  0  0  0
    8.5119  -17.0590   25.4961 O   0  0  0  0  0  0  0  0  0  0  0  0
   14.1007  -19.5659   23.4891 N   0  0  0  0  0  0  0  0  0  0  0  0
   13.7896  -19.0391   24.7755 C   0  0  0  0  0  0  0  0  0  0  0  0
   14.6653  -19.0401   25.6847 O   0  0  0  0  0  0  0  0  0  0  0  0
   12.4342  -18.4888   25.0442 C   0  0  0  0  0  0  0  0  0  0  0  0
   12.2307  -18.0724   26.4599 C   0  0  0  0  0  0  0  0  0  0  0  0
   10.9052  -17.4655   26.7772 C   0  0  2  0  0  0  0  0  0  0  0  0
   10.6009  -16.2905   25.9839 N   0  0  0  0  0  0  0  0  0  0  0  0
   11.0088  -16.9743   28.2031 C   0  0  0  0  0  0  0  0  0  0  0  0
   10.9321  -15.7479   28.4509 O   0  0  0  0  0  0  0  0  0  0  0  0
   11.1884  -17.8314   29.2755 O   0  0  0  0  0  0  0  0  0  0  0  0
  2  1  1  1
  2  3  1  0
  3  4  1  0
  4  8  1  0
  5  4  2  0
  6  2  1  0
  7  6  2  0
  9 10  1  0
 10 12  1  0
 10 11  2  0
 12 13  1  0
 14 13  1  1
 14 15  1  0
 15  6  1  0
 16 17  2  0
 16 14  1  0
 18 19  1  0
 19 20  2  0
 21 19  1  0
 21 22  1  0
 23 22  1  6
 23 24  1  0
 24 16  1  0
 25 23  1  0
 26 25  2  0
 27 25  1  0
M  END
$$$$
