DQQ.pdb
     RDKit          3D

 27 26  0  0  1  0  0  0  0  0999 V2000
   11.3662  -15.7324   18.1787 N   0  0  0  0  0  0  0  0  0  0  0  0
   11.8525  -15.7597   19.5177 C   0  0  1  0  0  0  0  0  0  0  0  0
   12.7407  -14.5481   19.8259 C   0  0  0  0  0  0  0  0  0  0  0  0
   14.0312  -14.6683   19.1366 C   0  0  0  0  0  0  0  0  0  0  0  0
   14.3277  -13.8513   18.2402 O   0  0  0  0  0  0  0  0  0  0  0  0
   10.7443  -15.7113   20.5264 C   0  0  0  0  0  0  0  0  0  0  0  0
    9.8314  -14.8479   20.4432 O   0  0  0  0  0  0  0  0  0  0  0  0
   14.8994  -15.6778   19.4844 O   0  0  0  0  0  0  0  0  0  0  0  0
    8.1924  -20.5963   22.9599 N   0  0  0  0  0  0  0  0  0  0  0  0
    7.5496  -19.6360   23.7821 C   0  0  0  0  0  0  0  0  0  0  0  0
    6.6290  -20.0709   24.5496 O   0  0  0  0  0  0  0  0  0  0  0  0
    7.9502  -18.2143   23.7358 C   0  0  0  0  0  0  0  0  0  0  0  0
    8.9746  -17.9583   22.7171 C   0  0  0  0  0  0  0  0  0  0  0  0
    9.5574  -16.5976   22.5793 C   0  0  2  0  0  0  0  0  0  0  0  0
   10.6604  -16.6153   21.6101 N   0  0  0  0  0  0  0  0  0  0  0  0
    9.8288  -15.8015   23.7474 C   0  0  0  0  0  0  0  0  0  0  0  0
   10.9849  -15.7395   24.2383 O   0  0  0  0  0  0  0  0  0  0  0  0
    6.1966  -11.1981   26.4348 N   0  0  0  0  0  0  0  0  0  0  0  0
    6.0464  -12.4713   27.0559 C   0  0  0  0  0  0  0  0  0  0  0  0
    5.0570  -12.6918   27.8083 O   0  0  0  0  0  0  0  0  0  0  0  0
    7.0552  -13.5376   26.8163 C   0  0  0  0  0  0  0  0  0  0  0  0
    8.1117  -13.1492   25.8407 C   0  0  0  0  0  0  0  0  0  0  0  0
    9.1496  -14.1828   25.5574 C   0  0  2  0  0  0  0  0  0  0  0  0
    8.8263  -15.0349   24.4295 N   0  0  0  0  0  0  0  0  0  0  0  0
    9.1609  -15.0953   26.7626 C   0  0  0  0  0  0  0  0  0  0  0  0
    9.6140  -14.6834   27.8565 O   0  0  0  0  0  0  0  0  0  0  0  0
    8.6846  -16.3944   26.7184 O   0  0  0  0  0  0  0  0  0  0  0  0
  2  1  1  6
  2  3  1  0
  3  4  1  0
  4  8  1  0
  5  4  2  0
  6  2  1  0
  7  6  2  0
  9 10  1  0
 10 12  1  0
 10 11  2  0
 12 13  1  0
 14 13  1  1
 14 15  1  0
 15  6  1  0
 16 17  2  0
 16 14  1  0
 18 19  1  0
 19 20  2  0
 21 19  1  0
 21 22  1  0
 23 22  1  1
 23 24  1  0
 24 16  1  0
 25 23  1  0
 26 25  2  0
 27 25  1  0
M  END
$$$$
