DQQ.pdb
     RDKit          3D

 27 26  0  0  1  0  0  0  0  0999 V2000
    5.4242  -19.6361   20.4333 N   0  0  0  0  0  0  0  0  0  0  0  0
    5.0090  -18.4068   21.0223 C   0  0  1  0  0  0  0  0  0  0  0  0
    4.0525  -18.6336   22.1993 C   0  0  0  0  0  0  0  0  0  0  0  0
    2.7636  -19.1492   21.7222 C   0  0  0  0  0  0  0  0  0  0  0  0
    2.6239  -19.4322   20.5141 O   0  0  0  0  0  0  0  0  0  0  0  0
    6.1602  -17.6286   21.5854 C   0  0  0  0  0  0  0  0  0  0  0  0
    6.9904  -18.1719   22.3609 O   0  0  0  0  0  0  0  0  0  0  0  0
    1.7243  -19.3151   22.6089 O   0  0  0  0  0  0  0  0  0  0  0  0
    7.7113  -11.7033   19.9665 N   0  0  0  0  0  0  0  0  0  0  0  0
    8.0802  -12.8324   19.1916 C   0  0  0  0  0  0  0  0  0  0  0  0
    8.3869  -12.6098   17.9742 O   0  0  0  0  0  0  0  0  0  0  0  0
    8.1052  -14.1830   19.7910 C   0  0  0  0  0  0  0  0  0  0  0  0
    7.6181  -14.1860   21.1750 C   0  0  0  0  0  0  0  0  0  0  0  0
    7.4523  -15.4742   21.8983 C   0  0  2  0  0  0  0  0  0  0  0  0
    6.3775  -16.2644   21.2845 N   0  0  0  0  0  0  0  0  0  0  0  0
    7.4399  -15.5033   23.3374 C   0  0  0  0  0  0  0  0  0  0  0  0
    6.3680  -15.3710   23.9816 O   0  0  0  0  0  0  0  0  0  0  0  0
    7.1608  -20.1032   26.0398 N   0  0  0  0  0  0  0  0  0  0  0  0
    7.6213  -19.4172   27.2002 C   0  0  0  0  0  0  0  0  0  0  0  0
    7.6533  -20.0132   28.3126 O   0  0  0  0  0  0  0  0  0  0  0  0
    8.0635  -18.0008   27.0986 C   0  0  0  0  0  0  0  0  0  0  0  0
    7.9718  -17.4461   25.7191 C   0  0  0  0  0  0  0  0  0  0  0  0
    8.5538  -16.0864   25.5229 C   0  0  2  0  0  0  0  0  0  0  0  0
    8.6207  -15.6797   24.1326 N   0  0  0  0  0  0  0  0  0  0  0  0
    9.9900  -16.1834   25.9848 C   0  0  0  0  0  0  0  0  0  0  0  0
   10.2471  -16.3802   27.1958 O   0  0  0  0  0  0  0  0  0  0  0  0
   11.0618  -16.0630   25.1168 O   0  0  0  0  0  0  0  0  0  0  0  0
  2  1  1  1
  2  3  1  0
  3  4  1  0
  4  8  1  0
  5  4  2  0
  6  2  1  0
  7  6  2  0
  9 10  1  0
 10 12  1  0
 10 11  2  0
 12 13  1  0
 14 13  1  1
 14 15  1  0
 15  6  1  0
 16 17  2  0
 16 14  1  0
 18 19  1  0
 19 20  2  0
 21 19  1  0
 21 22  1  0
 23 22  1  6
 23 24  1  0
 24 16  1  0
 25 23  1  0
 26 25  2  0
 27 25  1  0
M  END
$$$$
