DQQ.pdb
     RDKit          3D

 27 26  0  0  1  0  0  0  0  0999 V2000
   13.0890  -16.5977   17.3278 N   0  0  0  0  0  0  0  0  0  0  0  0
   13.8514  -15.4533   17.7013 C   0  0  1  0  0  0  0  0  0  0  0  0
   14.1091  -14.5261   16.5074 C   0  0  0  0  0  0  0  0  0  0  0  0
   15.0346  -15.1557   15.5578 C   0  0  0  0  0  0  0  0  0  0  0  0
   15.9665  -15.8670   15.9876 O   0  0  0  0  0  0  0  0  0  0  0  0
   13.1472  -14.6086   18.7204 C   0  0  0  0  0  0  0  0  0  0  0  0
   13.7163  -13.6122   19.2391 O   0  0  0  0  0  0  0  0  0  0  0  0
   14.8666  -14.9564   14.2066 O   0  0  0  0  0  0  0  0  0  0  0  0
    7.5268  -12.3616   18.7817 N   0  0  0  0  0  0  0  0  0  0  0  0
    7.8081  -13.6785   18.3365 C   0  0  0  0  0  0  0  0  0  0  0  0
    6.9634  -14.1998   17.5362 O   0  0  0  0  0  0  0  0  0  0  0  0
    9.0262  -14.3830   18.7876 C   0  0  0  0  0  0  0  0  0  0  0  0
    9.8655  -13.5450   19.6513 C   0  0  0  0  0  0  0  0  0  0  0  0
   11.1481  -14.0791   20.1804 C   0  0  2  0  0  0  0  0  0  0  0  0
   11.8274  -14.8759   19.1509 N   0  0  0  0  0  0  0  0  0  0  0  0
   11.2046  -14.6651   21.4939 C   0  0  0  0  0  0  0  0  0  0  0  0
   10.6237  -14.1281   22.4715 O   0  0  0  0  0  0  0  0  0  0  0  0
   10.5401  -20.5310   23.1925 N   0  0  0  0  0  0  0  0  0  0  0  0
   10.9180  -19.9414   24.4329 C   0  0  0  0  0  0  0  0  0  0  0  0
   10.7937  -20.5963   25.5050 O   0  0  0  0  0  0  0  0  0  0  0  0
   11.4584  -18.5560   24.4621 C   0  0  0  0  0  0  0  0  0  0  0  0
   11.4770  -17.8960   23.1268 C   0  0  0  0  0  0  0  0  0  0  0  0
   11.9069  -16.4674   23.1112 C   0  0  2  0  0  0  0  0  0  0  0  0
   11.9123  -15.8781   21.7862 N   0  0  0  0  0  0  0  0  0  0  0  0
   13.3508  -16.4677   23.5589 C   0  0  0  0  0  0  0  0  0  0  0  0
   13.6383  -16.7387   24.7486 O   0  0  0  0  0  0  0  0  0  0  0  0
   14.3974  -16.1768   22.7005 O   0  0  0  0  0  0  0  0  0  0  0  0
  2  1  1  6
  2  3  1  0
  3  4  1  0
  4  8  1  0
  5  4  2  0
  6  2  1  0
  7  6  2  0
  9 10  1  0
 10 12  1  0
 10 11  2  0
 12 13  1  0
 14 13  1  6
 14 15  1  0
 15  6  1  0
 16 17  2  0
 16 14  1  0
 18 19  1  0
 19 20  2  0
 21 19  1  0
 21 22  1  0
 23 22  1  6
 23 24  1  0
 24 16  1  0
 25 23  1  0
 26 25  2  0
 27 25  1  0
M  END
$$$$
