DQQ.pdb
     RDKit          3D

 27 26  0  0  1  0  0  0  0  0999 V2000
    9.9165  -17.1995   16.3839 N   0  0  0  0  0  0  0  0  0  0  0  0
    8.7562  -17.0748   17.2015 C   0  0  1  0  0  0  0  0  0  0  0  0
    8.1975  -18.4432   17.6100 C   0  0  0  0  0  0  0  0  0  0  0  0
    7.7461  -19.1877   16.4281 C   0  0  0  0  0  0  0  0  0  0  0  0
    7.9621  -18.7231   15.2895 O   0  0  0  0  0  0  0  0  0  0  0  0
    9.0407  -16.3578   18.4872 C   0  0  0  0  0  0  0  0  0  0  0  0
   10.1808  -16.4121   19.0193 O   0  0  0  0  0  0  0  0  0  0  0  0
    7.0909  -20.3875   16.5864 O   0  0  0  0  0  0  0  0  0  0  0  0
    6.9384  -13.4151   17.6637 N   0  0  0  0  0  0  0  0  0  0  0  0
    7.7442  -12.8355   18.6769 C   0  0  0  0  0  0  0  0  0  0  0  0
    8.9040  -12.4411   18.3236 O   0  0  0  0  0  0  0  0  0  0  0  0
    7.2383  -12.7028   20.0590 C   0  0  0  0  0  0  0  0  0  0  0  0
    7.2468  -13.9811   20.7793 C   0  0  0  0  0  0  0  0  0  0  0  0
    8.2979  -14.9901   20.4836 C   0  0  2  0  0  0  0  0  0  0  0  0
    8.0642  -15.5927   19.1651 N   0  0  0  0  0  0  0  0  0  0  0  0
    8.6971  -15.9395   21.4892 C   0  0  0  0  0  0  0  0  0  0  0  0
    8.0335  -16.9878   21.6942 O   0  0  0  0  0  0  0  0  0  0  0  0
   12.3715  -19.6441   20.2783 N   0  0  0  0  0  0  0  0  0  0  0  0
   12.5617  -19.8606   21.6734 C   0  0  0  0  0  0  0  0  0  0  0  0
   13.3000  -20.8051   22.0689 O   0  0  0  0  0  0  0  0  0  0  0  0
   11.8903  -18.9734   22.6605 C   0  0  0  0  0  0  0  0  0  0  0  0
   11.1286  -17.8563   22.0353 C   0  0  0  0  0  0  0  0  0  0  0  0
   10.4951  -16.8903   22.9794 C   0  0  2  0  0  0  0  0  0  0  0  0
    9.8550  -15.7693   22.3188 N   0  0  0  0  0  0  0  0  0  0  0  0
   11.6301  -16.2930   23.7796 C   0  0  0  0  0  0  0  0  0  0  0  0
   12.0140  -15.1227   23.5460 O   0  0  0  0  0  0  0  0  0  0  0  0
   12.2831  -16.9901   24.7818 O   0  0  0  0  0  0  0  0  0  0  0  0
  2  1  1  1
  2  3  1  0
  3  4  1  0
  4  8  1  0
  5  4  2  0
  6  2  1  0
  7  6  2  0
  9 10  1  0
 10 12  1  0
 10 11  2  0
 12 13  1  0
 14 13  1  1
 14 15  1  0
 15  6  1  0
 16 17  2  0
 16 14  1  0
 18 19  1  0
 19 20  2  0
 21 19  1  0
 21 22  1  0
 23 22  1  6
 23 24  1  0
 24 16  1  0
 25 23  1  0
 26 25  2  0
 27 25  1  0
M  END
$$$$
