AEG.pdb
     RDKit          3D

 19 18  0  0  1  0  0  0  0  0999 V2000
    6.8857  -11.8058   25.4272 C   0  0  0  0  0  0  0  0  0  0  0  0
    6.2952  -13.1007   25.9607 C   0  0  2  0  0  0  0  0  0  0  0  0
    6.0218  -12.9946   27.3799 N   0  0  0  0  0  0  0  0  0  0  0  0
    7.2550  -14.1932   25.7298 C   0  0  0  0  0  0  0  0  0  0  0  0
    8.2572  -14.2954   26.4749 O   0  0  0  0  0  0  0  0  0  0  0  0
    7.0776  -15.1530   24.6688 N   0  0  0  0  0  0  0  0  0  0  0  0
    8.0801  -16.1658   24.5018 C   0  0  1  0  0  0  0  0  0  0  0  0
    7.5797  -17.4012   23.8318 C   0  0  0  0  0  0  0  0  0  0  0  0
    6.4637  -18.0829   24.5828 C   0  0  0  0  0  0  0  0  0  0  0  0
    6.0507  -19.2639   23.7785 C   0  0  0  0  0  0  0  0  0  0  0  0
    6.8608  -20.1425   23.3767 O   0  0  0  0  0  0  0  0  0  0  0  0
    9.2301  -15.6553   23.6718 C   0  0  0  0  0  0  0  0  0  0  0  0
    9.0822  -14.7982   22.7713 O   0  0  0  0  0  0  0  0  0  0  0  0
    4.7205  -19.4475   23.4315 O   0  0  0  0  0  0  0  0  0  0  0  0
   10.5374  -16.1542   23.9073 N   0  0  0  0  0  0  0  0  0  0  0  0
   11.6969  -15.6670   23.2178 C   0  0  0  0  0  0  0  0  0  0  0  0
   12.8989  -16.2237   23.8604 C   0  0  0  0  0  0  0  0  0  0  0  0
   14.1464  -15.8883   23.4006 O   0  0  0  0  0  0  0  0  0  0  0  0
   12.7742  -17.0014   24.8247 O   0  0  0  0  0  0  0  0  0  0  0  0
  2  1  1  1
  2  4  1  0
  2  3  1  0
  4  5  2  0
  6  4  1  0
  7  6  1  0
  7  8  1  6
  9  8  1  0
 10  9  1  0
 11 10  2  0
 12  7  1  0
 13 12  2  0
 14 10  1  0
 15 12  1  0
 16 15  1  0
 17 16  1  0
 18 17  1  0
 19 17  2  0
M  END
$$$$
