AEG.pdb
     RDKit          3D

 19 18  0  0  1  0  0  0  0  0999 V2000
    7.3242  -11.3024   26.6333 C   0  0  0  0  0  0  0  0  0  0  0  0
    6.2677  -12.1809   25.9836 C   0  0  2  0  0  0  0  0  0  0  0  0
    5.1611  -12.4103   26.8909 N   0  0  0  0  0  0  0  0  0  0  0  0
    6.8771  -13.4717   25.6225 C   0  0  0  0  0  0  0  0  0  0  0  0
    6.9465  -14.3785   26.4844 O   0  0  0  0  0  0  0  0  0  0  0  0
    7.3991  -13.7263   24.3029 N   0  0  0  0  0  0  0  0  0  0  0  0
    7.9817  -15.0119   24.0452 C   0  0  1  0  0  0  0  0  0  0  0  0
    8.2499  -15.2709   22.6007 C   0  0  0  0  0  0  0  0  0  0  0  0
    7.0484  -15.0492   21.7166 C   0  0  0  0  0  0  0  0  0  0  0  0
    7.4915  -15.2610   20.3127 C   0  0  0  0  0  0  0  0  0  0  0  0
    8.6728  -15.5731   20.0016 O   0  0  0  0  0  0  0  0  0  0  0  0
    9.2966  -15.1631   24.7664 C   0  0  0  0  0  0  0  0  0  0  0  0
   10.1412  -14.2409   24.8269 O   0  0  0  0  0  0  0  0  0  0  0  0
    6.5950  -15.1193   19.2639 O   0  0  0  0  0  0  0  0  0  0  0  0
    9.6048  -16.3908   25.4075 N   0  0  0  0  0  0  0  0  0  0  0  0
   10.8242  -16.6122   26.1294 C   0  0  0  0  0  0  0  0  0  0  0  0
   10.7883  -17.9613   26.7177 C   0  0  0  0  0  0  0  0  0  0  0  0
   11.8335  -18.4091   27.4840 O   0  0  0  0  0  0  0  0  0  0  0  0
    9.8016  -18.6929   26.5141 O   0  0  0  0  0  0  0  0  0  0  0  0
  2  1  1  1
  2  4  1  0
  2  3  1  0
  4  5  2  0
  6  4  1  0
  7  6  1  0
  7  8  1  6
  9  8  1  0
 10  9  1  0
 11 10  2  0
 12  7  1  0
 13 12  2  0
 14 10  1  0
 15 12  1  0
 16 15  1  0
 17 16  1  0
 18 17  1  0
 19 17  2  0
M  END
$$$$
