AEG.pdb
     RDKit          3D

 19 18  0  0  1  0  0  0  0  0999 V2000
    7.5147  -12.1557   19.3590 C   0  0  0  0  0  0  0  0  0  0  0  0
    8.5558  -13.2494   19.1858 C   0  0  2  0  0  0  0  0  0  0  0  0
    8.2489  -14.0734   18.0338 N   0  0  0  0  0  0  0  0  0  0  0  0
    8.5710  -14.0891   20.3952 C   0  0  0  0  0  0  0  0  0  0  0  0
    8.7599  -13.5518   21.5113 O   0  0  0  0  0  0  0  0  0  0  0  0
    8.3751  -15.5162   20.3356 N   0  0  0  0  0  0  0  0  0  0  0  0
    8.4192  -16.2544   21.5651 C   0  0  1  0  0  0  0  0  0  0  0  0
    7.6169  -17.5118   21.5396 C   0  0  0  0  0  0  0  0  0  0  0  0
    6.2163  -17.3211   21.0142 C   0  0  0  0  0  0  0  0  0  0  0  0
    5.5839  -18.6659   20.9520 C   0  0  0  0  0  0  0  0  0  0  0  0
    6.1372  -19.7096   21.3929 O   0  0  0  0  0  0  0  0  0  0  0  0
    9.8334  -16.6467   21.9087 C   0  0  0  0  0  0  0  0  0  0  0  0
   10.7197  -16.8012   21.0379 O   0  0  0  0  0  0  0  0  0  0  0  0
    4.3256  -18.8256   20.3909 O   0  0  0  0  0  0  0  0  0  0  0  0
   10.1914  -16.8523   23.2662 N   0  0  0  0  0  0  0  0  0  0  0  0
   11.5373  -17.1088   23.6904 C   0  0  0  0  0  0  0  0  0  0  0  0
   11.5642  -17.1857   25.1604 C   0  0  0  0  0  0  0  0  0  0  0  0
   12.7503  -17.3790   25.8207 O   0  0  0  0  0  0  0  0  0  0  0  0
   10.5016  -17.0737   25.7998 O   0  0  0  0  0  0  0  0  0  0  0  0
  2  1  1  1
  2  4  1  0
  2  3  1  0
  4  5  2  0
  6  4  1  0
  7  6  1  0
  7  8  1  6
  9  8  1  0
 10  9  1  0
 11 10  2  0
 12  7  1  0
 13 12  2  0
 14 10  1  0
 15 12  1  0
 16 15  1  0
 17 16  1  0
 18 17  1  0
 19 17  2  0
M  END
$$$$
