AEG.pdb
     RDKit          3D

 19 18  0  0  1  0  0  0  0  0999 V2000
   16.3851  -17.7746   37.9843 C   0  0  0  0  0  0  0  0  0  0  0  0
   17.2603  -17.3344   39.1463 C   0  0  2  0  0  0  0  0  0  0  0  0
   16.4486  -16.8956   40.2638 N   0  0  0  0  0  0  0  0  0  0  0  0
   18.1192  -16.2238   38.7024 C   0  0  0  0  0  0  0  0  0  0  0  0
   17.8326  -15.0533   39.0454 O   0  0  0  0  0  0  0  0  0  0  0  0
   19.2843  -16.4415   37.8816 N   0  0  0  0  0  0  0  0  0  0  0  0
   20.0898  -15.3044   37.5399 C   0  0  1  0  0  0  0  0  0  0  0  0
   21.3970  -15.2573   38.2570 C   0  0  0  0  0  0  0  0  0  0  0  0
   21.9592  -13.8644   38.3921 C   0  0  0  0  0  0  0  0  0  0  0  0
   23.2652  -13.9844   39.0937 C   0  0  0  0  0  0  0  0  0  0  0  0
   23.8650  -15.0820   39.2523 O   0  0  0  0  0  0  0  0  0  0  0  0
   20.4010  -15.2870   36.0651 C   0  0  0  0  0  0  0  0  0  0  0  0
   20.9456  -16.2510   35.4805 O   0  0  0  0  0  0  0  0  0  0  0  0
   23.8895  -12.8603   39.6137 O   0  0  0  0  0  0  0  0  0  0  0  0
   20.0701  -14.1424   35.2946 N   0  0  0  0  0  0  0  0  0  0  0  0
   20.9388  -13.0085   35.1649 C   0  0  0  0  0  0  0  0  0  0  0  0
   22.1781  -13.4353   34.4944 C   0  0  0  0  0  0  0  0  0  0  0  0
   23.3289  -12.7039   34.6387 O   0  0  0  0  0  0  0  0  0  0  0  0
   22.1734  -14.4656   33.7953 O   0  0  0  0  0  0  0  0  0  0  0  0
  2  1  1  6
  2  4  1  0
  2  3  1  0
  4  5  2  0
  6  4  1  0
  7  6  1  0
  7  8  1  1
  9  8  1  0
 10  9  1  0
 11 10  2  0
 12  7  1  0
 13 12  2  0
 14 10  1  0
 15 12  1  0
 16 15  1  0
 17 16  1  0
 18 17  1  0
 19 17  2  0
M  END
$$$$
