AEG.pdb
     RDKit          3D

 19 18  0  0  1  0  0  0  0  0999 V2000
    8.1906  -12.4232   19.8584 C   0  0  0  0  0  0  0  0  0  0  0  0
    8.0272  -13.7480   19.1316 C   0  0  2  0  0  0  0  0  0  0  0  0
    6.6271  -14.0304   18.8862 N   0  0  0  0  0  0  0  0  0  0  0  0
    8.6026  -14.8206   19.9603 C   0  0  0  0  0  0  0  0  0  0  0  0
    7.9143  -15.3190   20.8810 O   0  0  0  0  0  0  0  0  0  0  0  0
    9.9387  -15.3174   19.7450 N   0  0  0  0  0  0  0  0  0  0  0  0
   10.4042  -16.3844   20.5838 C   0  0  1  0  0  0  0  0  0  0  0  0
   11.4748  -17.2151   19.9601 C   0  0  0  0  0  0  0  0  0  0  0  0
   11.7909  -18.4697   20.7348 C   0  0  0  0  0  0  0  0  0  0  0  0
   12.8574  -19.1894   19.9886 C   0  0  0  0  0  0  0  0  0  0  0  0
   12.6168  -20.0623   19.1111 O   0  0  0  0  0  0  0  0  0  0  0  0
   10.9654  -15.8492   21.8764 C   0  0  0  0  0  0  0  0  0  0  0  0
   11.4915  -14.7165   21.9642 O   0  0  0  0  0  0  0  0  0  0  0  0
   14.1946  -18.9183   20.2376 O   0  0  0  0  0  0  0  0  0  0  0  0
   10.9026  -16.6463   23.0486 N   0  0  0  0  0  0  0  0  0  0  0  0
   11.2139  -16.1428   24.3550 C   0  0  0  0  0  0  0  0  0  0  0  0
   11.0290  -17.2247   25.3362 C   0  0  0  0  0  0  0  0  0  0  0  0
   11.3363  -17.0200   26.6567 O   0  0  0  0  0  0  0  0  0  0  0  0
   10.5913  -18.3273   24.9579 O   0  0  0  0  0  0  0  0  0  0  0  0
  2  1  1  1
  2  4  1  0
  2  3  1  0
  4  5  2  0
  6  4  1  0
  7  6  1  0
  7  8  1  6
  9  8  1  0
 10  9  1  0
 11 10  2  0
 12  7  1  0
 13 12  2  0
 14 10  1  0
 15 12  1  0
 16 15  1  0
 17 16  1  0
 18 17  1  0
 19 17  2  0
M  END
$$$$
