AEG.pdb
     RDKit          3D

 19 18  0  0  1  0  0  0  0  0999 V2000
    7.7149  -16.0520   17.8247 C   0  0  0  0  0  0  0  0  0  0  0  0
    8.4879  -17.2839   17.3831 C   0  0  2  0  0  0  0  0  0  0  0  0
    7.5847  -18.3207   16.9254 N   0  0  0  0  0  0  0  0  0  0  0  0
    9.2719  -17.7889   18.5226 C   0  0  0  0  0  0  0  0  0  0  0  0
    8.7467  -18.6080   19.3120 O   0  0  0  0  0  0  0  0  0  0  0  0
   10.6303  -17.3685   18.7600 N   0  0  0  0  0  0  0  0  0  0  0  0
   11.3392  -17.9667   19.8548 C   0  0  1  0  0  0  0  0  0  0  0  0
   12.7643  -18.2821   19.5466 C   0  0  0  0  0  0  0  0  0  0  0  0
   13.3677  -17.3787   18.5007 C   0  0  0  0  0  0  0  0  0  0  0  0
   14.7977  -17.7632   18.3608 C   0  0  0  0  0  0  0  0  0  0  0  0
   15.3823  -17.8532   17.2473 O   0  0  0  0  0  0  0  0  0  0  0  0
   11.3443  -17.0564   21.0562 C   0  0  0  0  0  0  0  0  0  0  0  0
   11.4796  -15.8155   20.9602 O   0  0  0  0  0  0  0  0  0  0  0  0
   15.5628  -18.0445   19.4829 O   0  0  0  0  0  0  0  0  0  0  0  0
   11.1904  -17.6105   22.3534 N   0  0  0  0  0  0  0  0  0  0  0  0
   10.9590  -16.8128   23.5227 C   0  0  0  0  0  0  0  0  0  0  0  0
   12.1914  -16.7832   24.3275 C   0  0  0  0  0  0  0  0  0  0  0  0
   12.2378  -16.0642   25.4942 O   0  0  0  0  0  0  0  0  0  0  0  0
   13.1916  -17.4161   23.9409 O   0  0  0  0  0  0  0  0  0  0  0  0
  2  1  1  1
  2  4  1  0
  2  3  1  0
  4  5  2  0
  6  4  1  0
  7  6  1  0
  7  8  1  6
  9  8  1  0
 10  9  1  0
 11 10  2  0
 12  7  1  0
 13 12  2  0
 14 10  1  0
 15 12  1  0
 16 15  1  0
 17 16  1  0
 18 17  1  0
 19 17  2  0
M  END
$$$$
