AEG.pdb
     RDKit          3D

 19 18  0  0  1  0  0  0  0  0999 V2000
    8.3040  -18.6761   16.8083 C   0  0  0  0  0  0  0  0  0  0  0  0
    8.1509  -17.6797   17.9458 C   0  0  2  0  0  0  0  0  0  0  0  0
    7.7067  -16.3938   17.4464 N   0  0  0  0  0  0  0  0  0  0  0  0
    9.4516  -17.5188   18.6170 C   0  0  0  0  0  0  0  0  0  0  0  0
   10.0528  -18.5341   19.0385 O   0  0  0  0  0  0  0  0  0  0  0  0
   10.0576  -16.2244   18.8057 N   0  0  0  0  0  0  0  0  0  0  0  0
   11.3418  -16.1681   19.4434 C   0  0  1  0  0  0  0  0  0  0  0  0
   12.2855  -15.2027   18.8087 C   0  0  0  0  0  0  0  0  0  0  0  0
   13.6723  -15.2402   19.3998 C   0  0  0  0  0  0  0  0  0  0  0  0
   14.5236  -14.3376   18.5796 C   0  0  0  0  0  0  0  0  0  0  0  0
   14.0558  -13.4180   17.8547 O   0  0  0  0  0  0  0  0  0  0  0  0
   11.2093  -15.7616   20.8888 C   0  0  0  0  0  0  0  0  0  0  0  0
   10.8133  -14.6255   21.2352 O   0  0  0  0  0  0  0  0  0  0  0  0
   15.9034  -14.4781   18.5826 O   0  0  0  0  0  0  0  0  0  0  0  0
   11.5412  -16.6902   21.9090 N   0  0  0  0  0  0  0  0  0  0  0  0
   11.3646  -16.4149   23.3056 C   0  0  0  0  0  0  0  0  0  0  0  0
   12.6751  -16.4886   23.9724 C   0  0  0  0  0  0  0  0  0  0  0  0
   12.7820  -16.2363   25.3159 O   0  0  0  0  0  0  0  0  0  0  0  0
   13.6860  -16.7818   23.3071 O   0  0  0  0  0  0  0  0  0  0  0  0
  2  1  1  6
  2  4  1  0
  2  3  1  0
  4  5  2  0
  6  4  1  0
  7  6  1  0
  7  8  1  6
  9  8  1  0
 10  9  1  0
 11 10  2  0
 12  7  1  0
 13 12  2  0
 14 10  1  0
 15 12  1  0
 16 15  1  0
 17 16  1  0
 18 17  1  0
 19 17  2  0
M  END
$$$$
