AEG.pdb
     RDKit          3D

 19 18  0  0  1  0  0  0  0  0999 V2000
    7.8888  -12.4094   20.2671 C   0  0  0  0  0  0  0  0  0  0  0  0
    8.1484  -13.1574   18.9697 C   0  0  2  0  0  0  0  0  0  0  0  0
    6.9547  -13.8508   18.5285 N   0  0  0  0  0  0  0  0  0  0  0  0
    9.2265  -14.1356   19.1907 C   0  0  0  0  0  0  0  0  0  0  0  0
    8.9311  -15.3099   19.5127 O   0  0  0  0  0  0  0  0  0  0  0  0
   10.6171  -13.7835   19.0480 N   0  0  0  0  0  0  0  0  0  0  0  0
   11.5971  -14.8110   19.2544 C   0  0  1  0  0  0  0  0  0  0  0  0
   12.8942  -14.5508   18.5651 C   0  0  0  0  0  0  0  0  0  0  0  0
   13.8551  -15.7111   18.6335 C   0  0  0  0  0  0  0  0  0  0  0  0
   15.0807  -15.3103   17.8921 C   0  0  0  0  0  0  0  0  0  0  0  0
   16.0081  -14.6299   18.4086 O   0  0  0  0  0  0  0  0  0  0  0  0
   11.9077  -14.9741   20.7203 C   0  0  0  0  0  0  0  0  0  0  0  0
   12.2209  -14.0089   21.4537 O   0  0  0  0  0  0  0  0  0  0  0  0
   15.2535  -15.6818   16.5670 O   0  0  0  0  0  0  0  0  0  0  0  0
   11.8468  -16.2641   21.3082 N   0  0  0  0  0  0  0  0  0  0  0  0
   11.9241  -16.4836   22.7235 C   0  0  0  0  0  0  0  0  0  0  0  0
   12.9459  -17.5098   22.9887 C   0  0  0  0  0  0  0  0  0  0  0  0
   13.2952  -17.8203   24.2777 O   0  0  0  0  0  0  0  0  0  0  0  0
   13.4906  -18.0940   22.0334 O   0  0  0  0  0  0  0  0  0  0  0  0
  2  1  1  1
  2  4  1  0
  2  3  1  0
  4  5  2  0
  6  4  1  0
  7  6  1  0
  7  8  1  6
  9  8  1  0
 10  9  1  0
 11 10  2  0
 12  7  1  0
 13 12  2  0
 14 10  1  0
 15 12  1  0
 16 15  1  0
 17 16  1  0
 18 17  1  0
 19 17  2  0
M  END
$$$$
