AEG.pdb
     RDKit          3D

 19 18  0  0  1  0  0  0  0  0999 V2000
    8.4339  -12.0284   19.8032 C   0  0  0  0  0  0  0  0  0  0  0  0
    8.3728  -13.2786   18.9411 C   0  0  2  0  0  0  0  0  0  0  0  0
    7.0428  -13.8539   18.9632 N   0  0  0  0  0  0  0  0  0  0  0  0
    9.3379  -14.2627   19.4591 C   0  0  0  0  0  0  0  0  0  0  0  0
    8.9613  -15.0984   20.3134 O   0  0  0  0  0  0  0  0  0  0  0  0
   10.7084  -14.2951   19.0129 N   0  0  0  0  0  0  0  0  0  0  0  0
   11.5479  -15.3558   19.4913 C   0  0  1  0  0  0  0  0  0  0  0  0
   12.7962  -15.5389   18.6952 C   0  0  0  0  0  0  0  0  0  0  0  0
   12.5523  -16.0868   17.3116 C   0  0  0  0  0  0  0  0  0  0  0  0
   13.8808  -16.2435   16.6611 C   0  0  0  0  0  0  0  0  0  0  0  0
   14.1975  -15.6594   15.5895 O   0  0  0  0  0  0  0  0  0  0  0  0
   11.9723  -15.1074   20.9161 C   0  0  0  0  0  0  0  0  0  0  0  0
   12.4598  -14.0176   21.2932 O   0  0  0  0  0  0  0  0  0  0  0  0
   14.8480  -17.0611   17.2263 O   0  0  0  0  0  0  0  0  0  0  0  0
   11.8197  -16.1371   21.8803 N   0  0  0  0  0  0  0  0  0  0  0  0
   12.0861  -15.9474   23.2768 C   0  0  0  0  0  0  0  0  0  0  0  0
   11.6950  -17.1665   24.0036 C   0  0  0  0  0  0  0  0  0  0  0  0
   11.9411  -17.2786   25.3478 O   0  0  0  0  0  0  0  0  0  0  0  0
   11.1388  -18.0953   23.3884 O   0  0  0  0  0  0  0  0  0  0  0  0
  2  1  1  1
  2  4  1  0
  2  3  1  0
  4  5  2  0
  6  4  1  0
  7  6  1  0
  7  8  1  6
  9  8  1  0
 10  9  1  0
 11 10  2  0
 12  7  1  0
 13 12  2  0
 14 10  1  0
 15 12  1  0
 16 15  1  0
 17 16  1  0
 18 17  1  0
 19 17  2  0
M  END
$$$$
