FEL.pdb
     RDKit          3D

 29 29  0  0  1  0  0  0  0  0999 V2000
   20.4350  -10.3004  -15.7220 N   0  0  0  0  0  0  0  0  0  0  0  0
   21.1168   -9.4803  -14.7084 C   0  0  1  0  0  0  0  0  0  0  0  0
   22.4533   -9.1003  -15.3573 C   0  0  0  0  0  0  0  0  0  0  0  0
   23.3331  -10.2888  -15.4703 C   0  0  0  0  0  0  0  0  0  0  0  0
   23.9461  -10.8555  -14.3587 C   0  0  0  0  0  0  0  0  0  0  0  0
   24.7583  -11.9581  -14.4757 C   0  0  0  0  0  0  0  0  0  0  0  0
   24.9713  -12.5172  -15.7256 C   0  0  0  0  0  0  0  0  0  0  0  0
   24.3803  -11.9843  -16.8580 C   0  0  0  0  0  0  0  0  0  0  0  0
   23.5721  -10.8778  -16.6996 C   0  0  0  0  0  0  0  0  0  0  0  0
   20.2753   -8.2549  -14.5373 C   0  0  0  0  0  0  0  0  0  0  0  0
   19.4955   -7.8670  -15.4436 O   0  0  0  0  0  0  0  0  0  0  0  0
   20.3294   -7.4836  -13.3394 N   0  0  0  0  0  0  0  0  0  0  0  0
   19.4261   -6.3058  -13.1494 C   0  0  1  0  0  0  0  0  0  0  0  0
   18.9861   -6.3321  -11.7522 C   0  0  0  0  0  0  0  0  0  0  0  0
   18.0529   -5.3518  -11.1898 C   0  0  0  0  0  0  0  0  0  0  0  0
   17.6012   -5.5977   -9.8095 C   0  0  0  0  0  0  0  0  0  0  0  0
   18.0201   -6.5699   -9.1684 O   0  0  0  0  0  0  0  0  0  0  0  0
   20.0078   -5.1306  -13.7761 C   0  0  0  0  0  0  0  0  0  0  0  0
   21.2407   -4.7983  -13.5529 O   0  0  0  0  0  0  0  0  0  0  0  0
   16.6748   -4.6967   -9.2350 O   0  0  0  0  0  0  0  0  0  0  0  0
   21.1600   -3.6340  -17.8802 C   0  0  0  0  0  0  0  0  0  0  0  0
   19.6720   -3.4431  -17.6512 C   0  0  2  0  0  0  0  0  0  0  0  0
   18.9745   -3.1279  -18.9139 C   0  0  0  0  0  0  0  0  0  0  0  0
   19.3256   -2.6946  -16.4354 C   0  0  0  0  0  0  0  0  0  0  0  0
   20.0263   -3.0022  -15.1541 C   0  0  2  0  0  0  0  0  0  0  0  0
   19.3581   -4.2386  -14.6793 N   0  0  0  0  0  0  0  0  0  0  0  0
   19.8966   -1.9127  -14.1849 C   0  0  0  0  0  0  0  0  0  0  0  0
   19.0710   -2.0651  -13.0927 O   0  0  0  0  0  0  0  0  0  0  0  0
   20.5126   -0.8374  -14.3127 O   0  0  0  0  0  0  0  0  0  0  0  0
  2 10  1  0
  2  1  1  6
  3  2  1  0
  3  4  1  0
  4  5  2  0
  4  9  1  0
  5  6  1  0
  6  7  2  0
  8  7  1  0
  9  8  2  0
 10 11  2  0
 12 13  1  0
 12 10  1  0
 13 14  1  1
 14 15  1  0
 16 15  1  0
 16 17  2  0
 18 13  1  0
 18 19  2  0
 20 16  1  0
 22 21  1  6
 22 23  1  0
 22 24  1  0
 25 24  1  6
 25 27  1  0
 25 26  1  0
 26 18  1  0
 27 28  1  0
 29 27  2  0
M  END
$$$$
