FEL.pdb
     RDKit          3D

 29 29  0  0  1  0  0  0  0  0999 V2000
   16.5442  -10.6743  -11.2775 N   0  0  0  0  0  0  0  0  0  0  0  0
   15.3021   -9.9100  -11.0826 C   0  0  1  0  0  0  0  0  0  0  0  0
   14.5584  -10.6624   -9.9725 C   0  0  0  0  0  0  0  0  0  0  0  0
   13.7313  -11.7514  -10.5462 C   0  0  0  0  0  0  0  0  0  0  0  0
   12.4706  -11.5108  -11.0806 C   0  0  0  0  0  0  0  0  0  0  0  0
   11.7139  -12.5281  -11.6111 C   0  0  0  0  0  0  0  0  0  0  0  0
   12.2159  -13.8197  -11.6142 C   0  0  0  0  0  0  0  0  0  0  0  0
   13.4661  -14.1027  -11.0923 C   0  0  0  0  0  0  0  0  0  0  0  0
   14.1950  -13.0551  -10.5691 C   0  0  0  0  0  0  0  0  0  0  0  0
   15.7221   -8.5638  -10.5825 C   0  0  0  0  0  0  0  0  0  0  0  0
   16.6370   -8.4407   -9.7293 O   0  0  0  0  0  0  0  0  0  0  0  0
   15.0981   -7.3726  -11.0562 N   0  0  0  0  0  0  0  0  0  0  0  0
   15.5086   -6.0343  -10.5271 C   0  0  1  0  0  0  0  0  0  0  0  0
   16.0121   -5.2655  -11.6681 C   0  0  0  0  0  0  0  0  0  0  0  0
   17.1649   -5.6868  -12.4692 C   0  0  0  0  0  0  0  0  0  0  0  0
   17.5961   -4.7604  -13.5302 C   0  0  0  0  0  0  0  0  0  0  0  0
   16.9912   -3.6995  -13.7307 O   0  0  0  0  0  0  0  0  0  0  0  0
   14.4942   -5.5306   -9.6164 C   0  0  0  0  0  0  0  0  0  0  0  0
   13.2333   -5.7031   -9.8627 O   0  0  0  0  0  0  0  0  0  0  0  0
   18.7173   -5.1140  -14.3162 O   0  0  0  0  0  0  0  0  0  0  0  0
   14.2341   -2.5811   -4.1601 C   0  0  0  0  0  0  0  0  0  0  0  0
   13.4414   -3.0667   -5.3596 C   0  0  2  0  0  0  0  0  0  0  0  0
   12.0988   -3.5321   -4.9583 C   0  0  0  0  0  0  0  0  0  0  0  0
   14.2120   -3.8550   -6.3307 C   0  0  0  0  0  0  0  0  0  0  0  0
   13.6014   -4.2078   -7.6460 C   0  0  2  0  0  0  0  0  0  0  0  0
   14.7200   -4.8331   -8.3932 N   0  0  0  0  0  0  0  0  0  0  0  0
   13.0807   -3.0292   -8.3408 C   0  0  0  0  0  0  0  0  0  0  0  0
   13.9555   -2.1335   -8.9155 O   0  0  0  0  0  0  0  0  0  0  0  0
   11.8593   -2.8018   -8.4326 O   0  0  0  0  0  0  0  0  0  0  0  0
  2 10  1  0
  2  1  1  1
  3  2  1  0
  3  4  1  0
  4  5  2  0
  4  9  1  0
  5  6  1  0
  6  7  2  0
  8  7  1  0
  9  8  2  0
 10 11  2  0
 12 13  1  0
 12 10  1  0
 13 14  1  6
 14 15  1  0
 16 15  1  0
 16 17  2  0
 18 13  1  0
 18 19  2  0
 20 16  1  0
 22 21  1  1
 22 23  1  0
 22 24  1  0
 25 24  1  1
 25 27  1  0
 25 26  1  0
 26 18  1  0
 27 28  1  0
 29 27  2  0
M  END
$$$$
