FEL.pdb
     RDKit          3D

 29 29  0  0  1  0  0  0  0  0999 V2000
   25.0562  -15.8399  -18.2575 N   0  0  0  0  0  0  0  0  0  0  0  0
   24.5775  -15.3056  -16.9728 C   0  0  1  0  0  0  0  0  0  0  0  0
   25.8480  -14.8318  -16.2566 C   0  0  0  0  0  0  0  0  0  0  0  0
   26.6885  -15.9900  -15.8677 C   0  0  0  0  0  0  0  0  0  0  0  0
   26.3929  -16.7698  -14.7554 C   0  0  0  0  0  0  0  0  0  0  0  0
   27.1786  -17.8419  -14.4058 C   0  0  0  0  0  0  0  0  0  0  0  0
   28.2876  -18.1532  -15.1761 C   0  0  0  0  0  0  0  0  0  0  0  0
   28.6175  -17.4031  -16.2913 C   0  0  0  0  0  0  0  0  0  0  0  0
   27.8046  -16.3351  -16.6096 C   0  0  0  0  0  0  0  0  0  0  0  0
   23.7222  -14.1255  -17.3116 C   0  0  0  0  0  0  0  0  0  0  0  0
   23.9885  -13.3869  -18.2932 O   0  0  0  0  0  0  0  0  0  0  0  0
   22.5749  -13.7971  -16.5316 N   0  0  0  0  0  0  0  0  0  0  0  0
   21.7163  -12.6262  -16.8937 C   0  0  1  0  0  0  0  0  0  0  0  0
   20.3442  -13.1274  -17.0062 C   0  0  0  0  0  0  0  0  0  0  0  0
   19.9362  -14.4527  -16.5312 C   0  0  0  0  0  0  0  0  0  0  0  0
   18.7765  -14.4924  -15.6239 C   0  0  0  0  0  0  0  0  0  0  0  0
   17.9597  -13.5631  -15.5971 O   0  0  0  0  0  0  0  0  0  0  0  0
   22.0773  -11.4780  -16.0792 C   0  0  0  0  0  0  0  0  0  0  0  0
   22.1121  -11.5632  -14.7862 O   0  0  0  0  0  0  0  0  0  0  0  0
   18.6202  -15.6179  -14.7820 O   0  0  0  0  0  0  0  0  0  0  0  0
   25.7706   -9.7225  -15.0897 C   0  0  0  0  0  0  0  0  0  0  0  0
   25.2772   -9.1228  -16.3934 C   0  0  2  0  0  0  0  0  0  0  0  0
   26.3803   -8.4808  -17.1360 C   0  0  0  0  0  0  0  0  0  0  0  0
   23.9794   -8.4398  -16.3066 C   0  0  0  0  0  0  0  0  0  0  0  0
   22.8397   -9.1056  -15.6101 C   0  0  2  0  0  0  0  0  0  0  0  0
   22.4369  -10.1807  -16.5496 N   0  0  0  0  0  0  0  0  0  0  0  0
   21.7393   -8.1757  -15.3505 C   0  0  0  0  0  0  0  0  0  0  0  0
   20.5717   -8.2807  -16.0740 O   0  0  0  0  0  0  0  0  0  0  0  0
   21.8201   -7.2799  -14.4885 O   0  0  0  0  0  0  0  0  0  0  0  0
  2 10  1  0
  2  1  1  6
  3  2  1  0
  3  4  1  0
  4  5  2  0
  4  9  1  0
  5  6  1  0
  6  7  2  0
  8  7  1  0
  9  8  2  0
 10 11  2  0
 12 13  1  0
 12 10  1  0
 13 14  1  1
 14 15  1  0
 16 15  1  0
 16 17  2  0
 18 13  1  0
 18 19  2  0
 20 16  1  0
 22 21  1  1
 22 23  1  0
 22 24  1  0
 25 24  1  6
 25 27  1  0
 25 26  1  0
 26 18  1  0
 27 28  1  0
 29 27  2  0
M  END
$$$$
