FEL.pdb
     RDKit          3D

 29 29  0  0  1  0  0  0  0  0999 V2000
   26.0161  -28.1298  -16.6582 N   0  0  0  0  0  0  0  0  0  0  0  0
   27.2861  -27.8500  -17.3466 C   0  0  1  0  0  0  0  0  0  0  0  0
   27.8519  -26.6213  -16.6245 C   0  0  0  0  0  0  0  0  0  0  0  0
   27.0291  -25.4223  -16.9153 C   0  0  0  0  0  0  0  0  0  0  0  0
   26.0336  -24.9881  -16.0475 C   0  0  0  0  0  0  0  0  0  0  0  0
   25.2785  -23.8743  -16.3271 C   0  0  0  0  0  0  0  0  0  0  0  0
   25.5126  -23.1690  -17.4966 C   0  0  0  0  0  0  0  0  0  0  0  0
   26.4938  -23.5670  -18.3879 C   0  0  0  0  0  0  0  0  0  0  0  0
   27.2304  -24.6896  -18.0719 C   0  0  0  0  0  0  0  0  0  0  0  0
   28.1638  -29.0337  -17.0867 C   0  0  0  0  0  0  0  0  0  0  0  0
   27.9013  -29.8519  -16.1694 O   0  0  0  0  0  0  0  0  0  0  0  0
   29.3299  -29.2744  -17.8709 N   0  0  0  0  0  0  0  0  0  0  0  0
   29.6291  -30.6449  -18.3919 C   0  0  1  0  0  0  0  0  0  0  0  0
   28.3600  -31.2027  -18.8662 C   0  0  0  0  0  0  0  0  0  0  0  0
   28.2488  -32.5317  -19.4741 C   0  0  0  0  0  0  0  0  0  0  0  0
   26.8893  -32.9779  -19.8239 C   0  0  0  0  0  0  0  0  0  0  0  0
   26.1167  -33.4005  -18.9543 O   0  0  0  0  0  0  0  0  0  0  0  0
   30.8343  -30.6131  -19.2033 C   0  0  0  0  0  0  0  0  0  0  0  0
   31.0006  -29.7052  -20.1135 O   0  0  0  0  0  0  0  0  0  0  0  0
   26.4887  -32.9136  -21.1786 O   0  0  0  0  0  0  0  0  0  0  0  0
   35.3075  -30.4869  -18.2078 C   0  0  0  0  0  0  0  0  0  0  0  0
   34.7823  -31.9106  -18.2181 C   0  0  2  0  0  0  0  0  0  0  0  0
   35.7430  -32.8377  -17.5874 C   0  0  0  0  0  0  0  0  0  0  0  0
   34.1108  -32.3119  -19.4616 C   0  0  0  0  0  0  0  0  0  0  0  0
   33.0790  -31.4183  -20.0652 C   0  0  2  0  0  0  0  0  0  0  0  0
   31.9434  -31.5051  -19.1146 N   0  0  0  0  0  0  0  0  0  0  0  0
   32.6935  -31.8569  -21.4076 C   0  0  0  0  0  0  0  0  0  0  0  0
   31.6137  -32.6973  -21.5675 O   0  0  0  0  0  0  0  0  0  0  0  0
   33.3142  -31.4945  -22.4252 O   0  0  0  0  0  0  0  0  0  0  0  0
  2 10  1  0
  2  1  1  1
  3  2  1  0
  3  4  1  0
  4  5  2  0
  4  9  1  0
  5  6  1  0
  6  7  2  0
  8  7  1  0
  9  8  2  0
 10 11  2  0
 12 13  1  0
 12 10  1  0
 13 14  1  6
 14 15  1  0
 16 15  1  0
 16 17  2  0
 18 13  1  0
 18 19  2  0
 20 16  1  0
 22 21  1  6
 22 23  1  0
 22 24  1  0
 25 24  1  1
 25 27  1  0
 25 26  1  0
 26 18  1  0
 27 28  1  0
 29 27  2  0
M  END
$$$$
