FEL.pdb
     RDKit          3D

 29 29  0  0  1  0  0  0  0  0999 V2000
   24.1940   -9.9142  -17.5772 N   0  0  0  0  0  0  0  0  0  0  0  0
   23.9987   -9.4106  -16.2085 C   0  0  1  0  0  0  0  0  0  0  0  0
   25.2405   -8.5539  -15.9337 C   0  0  0  0  0  0  0  0  0  0  0  0
   26.4719   -9.3732  -16.0415 C   0  0  0  0  0  0  0  0  0  0  0  0
   26.7116  -10.4510  -15.1968 C   0  0  0  0  0  0  0  0  0  0  0  0
   27.8559  -11.2042  -15.3073 C   0  0  0  0  0  0  0  0  0  0  0  0
   28.7903  -10.8842  -16.2793 C   0  0  0  0  0  0  0  0  0  0  0  0
   28.5909   -9.8194  -17.1406 C   0  0  0  0  0  0  0  0  0  0  0  0
   27.4302   -9.0877  -16.9982 C   0  0  0  0  0  0  0  0  0  0  0  0
   22.7864   -8.5352  -16.2618 C   0  0  0  0  0  0  0  0  0  0  0  0
   22.5104   -7.8643  -17.2883 O   0  0  0  0  0  0  0  0  0  0  0  0
   21.9017   -8.4308  -15.1486 N   0  0  0  0  0  0  0  0  0  0  0  0
   20.6622   -7.5969  -15.2352 C   0  0  1  0  0  0  0  0  0  0  0  0
   19.6031   -8.3423  -14.5501 C   0  0  0  0  0  0  0  0  0  0  0  0
   18.8959   -9.4707  -15.1623 C   0  0  0  0  0  0  0  0  0  0  0  0
   18.1382   -9.1770  -16.3910 C   0  0  0  0  0  0  0  0  0  0  0  0
   18.4172   -9.7385  -17.4580 O   0  0  0  0  0  0  0  0  0  0  0  0
   20.9775   -6.2101  -14.9360 C   0  0  0  0  0  0  0  0  0  0  0  0
   21.7264   -5.9009  -13.9242 O   0  0  0  0  0  0  0  0  0  0  0  0
   17.0850   -8.2357  -16.3221 O   0  0  0  0  0  0  0  0  0  0  0  0
   22.9421   -1.5505  -14.8094 C   0  0  0  0  0  0  0  0  0  0  0  0
   22.2949   -1.7949  -16.1600 C   0  0  2  0  0  0  0  0  0  0  0  0
   21.5658   -0.5983  -16.6260 C   0  0  0  0  0  0  0  0  0  0  0  0
   21.6750   -3.1175  -16.3172 C   0  0  0  0  0  0  0  0  0  0  0  0
   20.8656   -3.6910  -15.2022 C   0  0  2  0  0  0  0  0  0  0  0  0
   20.5517   -5.0636  -15.6693 N   0  0  0  0  0  0  0  0  0  0  0  0
   19.6498   -2.9145  -14.9537 C   0  0  0  0  0  0  0  0  0  0  0  0
   19.6582   -1.9189  -14.0016 O   0  0  0  0  0  0  0  0  0  0  0  0
   18.5926   -3.1233  -15.5789 O   0  0  0  0  0  0  0  0  0  0  0  0
  2 10  1  0
  2  1  1  6
  3  2  1  0
  3  4  1  0
  4  5  2  0
  4  9  1  0
  5  6  1  0
  6  7  2  0
  8  7  1  0
  9  8  2  0
 10 11  2  0
 12 13  1  0
 12 10  1  0
 13 14  1  1
 14 15  1  0
 16 15  1  0
 16 17  2  0
 18 13  1  0
 18 19  2  0
 20 16  1  0
 22 21  1  1
 22 23  1  0
 22 24  1  0
 25 24  1  6
 25 27  1  0
 25 26  1  0
 26 18  1  0
 27 28  1  0
 29 27  2  0
M  END
$$$$
