FEL.pdb
     RDKit          3D

 29 29  0  0  1  0  0  0  0  0999 V2000
   28.9598  -21.3024   -9.4319 N   0  0  0  0  0  0  0  0  0  0  0  0
   27.5220  -21.0237   -9.2912 C   0  0  1  0  0  0  0  0  0  0  0  0
   27.4616  -19.6385   -8.6359 C   0  0  0  0  0  0  0  0  0  0  0  0
   27.7626  -19.7350   -7.1870 C   0  0  0  0  0  0  0  0  0  0  0  0
   26.7624  -19.9338   -6.2421 C   0  0  0  0  0  0  0  0  0  0  0  0
   27.0538  -20.0232   -4.9020 C   0  0  0  0  0  0  0  0  0  0  0  0
   28.3700  -19.9132   -4.4826 C   0  0  0  0  0  0  0  0  0  0  0  0
   29.3959  -19.7149   -5.3901 C   0  0  0  0  0  0  0  0  0  0  0  0
   29.0633  -19.6305   -6.7261 C   0  0  0  0  0  0  0  0  0  0  0  0
   26.9804  -20.9445  -10.6838 C   0  0  0  0  0  0  0  0  0  0  0  0
   27.6628  -20.4623  -11.6229 O   0  0  0  0  0  0  0  0  0  0  0  0
   25.6701  -21.4129  -10.9941 N   0  0  0  0  0  0  0  0  0  0  0  0
   25.1765  -21.4174  -12.4068 C   0  0  1  0  0  0  0  0  0  0  0  0
   25.2881  -22.7965  -12.8887 C   0  0  0  0  0  0  0  0  0  0  0  0
   24.7818  -23.2301  -14.1941 C   0  0  0  0  0  0  0  0  0  0  0  0
   24.0301  -24.4967  -14.2147 C   0  0  0  0  0  0  0  0  0  0  0  0
   24.5364  -25.5422  -13.7877 O   0  0  0  0  0  0  0  0  0  0  0  0
   23.9532  -20.6389  -12.5054 C   0  0  0  0  0  0  0  0  0  0  0  0
   23.0582  -20.6834  -11.5688 O   0  0  0  0  0  0  0  0  0  0  0  0
   22.7157  -24.4896  -14.7366 O   0  0  0  0  0  0  0  0  0  0  0  0
   19.8188  -18.4087  -15.3675 C   0  0  0  0  0  0  0  0  0  0  0  0
   21.0881  -17.5801  -15.2951 C   0  0  2  0  0  0  0  0  0  0  0  0
   21.1853  -16.6529  -16.4402 C   0  0  0  0  0  0  0  0  0  0  0  0
   22.2840  -18.3188  -14.8681 C   0  0  0  0  0  0  0  0  0  0  0  0
   22.2162  -19.2035  -13.6681 C   0  0  2  0  0  0  0  0  0  0  0  0
   23.5879  -19.7594  -13.5668 N   0  0  0  0  0  0  0  0  0  0  0  0
   21.2159  -20.2608  -13.8243 C   0  0  0  0  0  0  0  0  0  0  0  0
   20.0663  -20.2306  -13.0657 O   0  0  0  0  0  0  0  0  0  0  0  0
   21.3672  -21.2007  -14.6279 O   0  0  0  0  0  0  0  0  0  0  0  0
  2 10  1  0
  2  1  1  6
  3  2  1  0
  3  4  1  0
  4  5  2  0
  4  9  1  0
  5  6  1  0
  6  7  2  0
  8  7  1  0
  9  8  2  0
 10 11  2  0
 12 13  1  0
 12 10  1  0
 13 14  1  1
 14 15  1  0
 16 15  1  0
 16 17  2  0
 18 13  1  0
 18 19  2  0
 20 16  1  0
 22 21  1  6
 22 23  1  0
 22 24  1  0
 25 24  1  6
 25 27  1  0
 25 26  1  0
 26 18  1  0
 27 28  1  0
 29 27  2  0
M  END
$$$$
