FEL.pdb
     RDKit          3D

 29 29  0  0  1  0  0  0  0  0999 V2000
   25.1573  -16.6407  -17.2330 N   0  0  0  0  0  0  0  0  0  0  0  0
   25.8445  -17.7075  -16.4882 C   0  0  1  0  0  0  0  0  0  0  0  0
   27.1548  -17.0647  -16.0176 C   0  0  0  0  0  0  0  0  0  0  0  0
   28.1536  -17.0573  -17.1137 C   0  0  0  0  0  0  0  0  0  0  0  0
   28.3933  -15.9221  -17.8795 C   0  0  0  0  0  0  0  0  0  0  0  0
   29.3229  -15.9269  -18.8918 C   0  0  0  0  0  0  0  0  0  0  0  0
   30.0361  -17.0853  -19.1558 C   0  0  0  0  0  0  0  0  0  0  0  0
   29.8284  -18.2372  -18.4175 C   0  0  0  0  0  0  0  0  0  0  0  0
   28.8872  -18.1927  -17.4101 C   0  0  0  0  0  0  0  0  0  0  0  0
   24.9784  -18.0062  -15.3052 C   0  0  0  0  0  0  0  0  0  0  0  0
   24.4778  -17.0839  -14.6132 O   0  0  0  0  0  0  0  0  0  0  0  0
   24.6911  -19.3488  -14.9208 N   0  0  0  0  0  0  0  0  0  0  0  0
   23.8172  -19.6335  -13.7398 C   0  0  1  0  0  0  0  0  0  0  0  0
   22.5948  -20.2526  -14.2586 C   0  0  0  0  0  0  0  0  0  0  0  0
   21.4910  -20.6857  -13.3971 C   0  0  0  0  0  0  0  0  0  0  0  0
   20.3497  -21.3278  -14.0717 C   0  0  0  0  0  0  0  0  0  0  0  0
   20.3511  -21.4981  -15.2975 O   0  0  0  0  0  0  0  0  0  0  0  0
   24.6083  -20.2154  -12.6685 C   0  0  0  0  0  0  0  0  0  0  0  0
   25.2691  -21.3156  -12.8506 O   0  0  0  0  0  0  0  0  0  0  0  0
   19.2508  -21.7431  -13.2844 O   0  0  0  0  0  0  0  0  0  0  0  0
   27.3185  -19.2226   -7.3090 C   0  0  0  0  0  0  0  0  0  0  0  0
   26.7996  -20.2029   -8.3447 C   0  0  2  0  0  0  0  0  0  0  0  0
   27.9009  -20.9955   -8.9273 C   0  0  0  0  0  0  0  0  0  0  0  0
   25.7544  -19.6707   -9.2293 C   0  0  0  0  0  0  0  0  0  0  0  0
   25.0791  -20.5776  -10.2034 C   0  0  2  0  0  0  0  0  0  0  0  0
   24.7758  -19.6906  -11.3532 N   0  0  0  0  0  0  0  0  0  0  0  0
   23.8633  -21.1717   -9.6450 C   0  0  0  0  0  0  0  0  0  0  0  0
   23.8990  -22.4533   -9.1409 O   0  0  0  0  0  0  0  0  0  0  0  0
   22.7821  -20.5540   -9.6087 O   0  0  0  0  0  0  0  0  0  0  0  0
  2 10  1  0
  2  1  1  6
  3  2  1  0
  3  4  1  0
  4  5  2  0
  4  9  1  0
  5  6  1  0
  6  7  2  0
  8  7  1  0
  9  8  2  0
 10 11  2  0
 12 13  1  0
 12 10  1  0
 13 14  1  6
 14 15  1  0
 16 15  1  0
 16 17  2  0
 18 13  1  0
 18 19  2  0
 20 16  1  0
 22 21  1  6
 22 23  1  0
 22 24  1  0
 25 24  1  1
 25 27  1  0
 25 26  1  0
 26 18  1  0
 27 28  1  0
 29 27  2  0
M  END
$$$$
