FEL.pdb
     RDKit          3D

 29 29  0  0  1  0  0  0  0  0999 V2000
   17.7684   -8.9332  -19.4377 N   0  0  0  0  0  0  0  0  0  0  0  0
   18.3725   -7.6280  -19.7480 C   0  0  1  0  0  0  0  0  0  0  0  0
   17.3384   -6.9279  -20.6380 C   0  0  0  0  0  0  0  0  0  0  0  0
   17.3423   -7.5144  -22.0000 C   0  0  0  0  0  0  0  0  0  0  0  0
   18.3847   -7.2897  -22.8920 C   0  0  0  0  0  0  0  0  0  0  0  0
   18.3780   -7.8400  -24.1514 C   0  0  0  0  0  0  0  0  0  0  0  0
   17.3120   -8.6348  -24.5414 C   0  0  0  0  0  0  0  0  0  0  0  0
   16.2542   -8.8840  -23.6845 C   0  0  0  0  0  0  0  0  0  0  0  0
   16.2974   -8.3139  -22.4292 C   0  0  0  0  0  0  0  0  0  0  0  0
   18.4827   -6.9054  -18.4424 C   0  0  0  0  0  0  0  0  0  0  0  0
   17.6187   -7.0508  -17.5410 O   0  0  0  0  0  0  0  0  0  0  0  0
   19.5722   -6.0254  -18.1753 N   0  0  0  0  0  0  0  0  0  0  0  0
   19.6536   -5.2845  -16.8777 C   0  0  1  0  0  0  0  0  0  0  0  0
   20.5363   -6.0606  -16.0029 C   0  0  0  0  0  0  0  0  0  0  0  0
   20.9360   -5.6088  -14.6671 C   0  0  0  0  0  0  0  0  0  0  0  0
   21.7607   -6.5430  -13.8817 C   0  0  0  0  0  0  0  0  0  0  0  0
   22.2897   -7.5258  -14.4162 O   0  0  0  0  0  0  0  0  0  0  0  0
   19.8348   -3.8647  -17.1297 C   0  0  0  0  0  0  0  0  0  0  0  0
   20.7341   -3.4459  -17.9641 O   0  0  0  0  0  0  0  0  0  0  0  0
   21.9316   -6.2906  -12.5008 O   0  0  0  0  0  0  0  0  0  0  0  0
   17.6150   -0.3864  -18.9447 C   0  0  0  0  0  0  0  0  0  0  0  0
   17.1470   -0.6327  -17.5223 C   0  0  2  0  0  0  0  0  0  0  0  0
   15.8883    0.0872  -17.2431 C   0  0  0  0  0  0  0  0  0  0  0  0
   18.2137   -0.6285  -16.5121 C   0  0  0  0  0  0  0  0  0  0  0  0
   19.4769   -1.3805  -16.7689 C   0  0  2  0  0  0  0  0  0  0  0  0
   19.0911   -2.7959  -16.5483 N   0  0  0  0  0  0  0  0  0  0  0  0
   20.5524   -0.9674  -15.8657 C   0  0  0  0  0  0  0  0  0  0  0  0
   21.3613    0.0939  -16.2076 O   0  0  0  0  0  0  0  0  0  0  0  0
   20.7673   -1.5480  -14.7846 O   0  0  0  0  0  0  0  0  0  0  0  0
  2 10  1  0
  2  1  1  1
  3  2  1  0
  3  4  1  0
  4  5  2  0
  4  9  1  0
  5  6  1  0
  6  7  2  0
  8  7  1  0
  9  8  2  0
 10 11  2  0
 12 13  1  0
 12 10  1  0
 13 14  1  1
 14 15  1  0
 16 15  1  0
 16 17  2  0
 18 13  1  0
 18 19  2  0
 20 16  1  0
 22 21  1  6
 22 23  1  0
 22 24  1  0
 25 24  1  1
 25 27  1  0
 25 26  1  0
 26 18  1  0
 27 28  1  0
 29 27  2  0
M  END
$$$$
