FEL.pdb
     RDKit          3D

 29 29  0  0  1  0  0  0  0  0999 V2000
   28.1532  -21.1030  -11.3194 N   0  0  0  0  0  0  0  0  0  0  0  0
   26.7994  -21.3649  -10.8059 C   0  0  1  0  0  0  0  0  0  0  0  0
   26.5091  -20.1858   -9.8695 C   0  0  0  0  0  0  0  0  0  0  0  0
   27.4044  -20.2270   -8.6880 C   0  0  0  0  0  0  0  0  0  0  0  0
   27.3055  -19.2961   -7.6603 C   0  0  0  0  0  0  0  0  0  0  0  0
   28.1400  -19.3455   -6.5694 C   0  0  0  0  0  0  0  0  0  0  0  0
   29.0994  -20.3422   -6.4907 C   0  0  0  0  0  0  0  0  0  0  0  0
   29.2317  -21.2887   -7.4917 C   0  0  0  0  0  0  0  0  0  0  0  0
   28.3758  -21.2057   -8.5702 C   0  0  0  0  0  0  0  0  0  0  0  0
   25.8901  -21.2998  -11.9924 C   0  0  0  0  0  0  0  0  0  0  0  0
   26.0761  -20.4634  -12.9120 O   0  0  0  0  0  0  0  0  0  0  0  0
   24.7795  -22.1845  -12.1207 N   0  0  0  0  0  0  0  0  0  0  0  0
   24.0052  -22.2560  -13.3993 C   0  0  1  0  0  0  0  0  0  0  0  0
   24.0150  -23.6591  -13.8210 C   0  0  0  0  0  0  0  0  0  0  0  0
   25.1828  -24.3022  -14.4301 C   0  0  0  0  0  0  0  0  0  0  0  0
   25.6446  -23.7386  -15.7103 C   0  0  0  0  0  0  0  0  0  0  0  0
   24.9607  -22.9077  -16.3214 O   0  0  0  0  0  0  0  0  0  0  0  0
   22.7879  -21.4704  -13.2845 C   0  0  0  0  0  0  0  0  0  0  0  0
   22.1587  -21.3785  -12.1549 O   0  0  0  0  0  0  0  0  0  0  0  0
   26.8882  -24.1721  -16.2256 O   0  0  0  0  0  0  0  0  0  0  0  0
   21.3062  -17.1407  -14.1209 C   0  0  0  0  0  0  0  0  0  0  0  0
   21.3796  -17.9805  -15.3828 C   0  0  2  0  0  0  0  0  0  0  0  0
   21.2676  -17.1384  -16.5906 C   0  0  0  0  0  0  0  0  0  0  0  0
   20.6419  -19.2495  -15.3235 C   0  0  0  0  0  0  0  0  0  0  0  0
   20.8037  -20.1431  -14.1392 C   0  0  2  0  0  0  0  0  0  0  0  0
   22.1568  -20.7231  -14.3221 N   0  0  0  0  0  0  0  0  0  0  0  0
   19.7732  -21.1818  -14.0932 C   0  0  0  0  0  0  0  0  0  0  0  0
   18.6248  -20.9725  -13.3617 O   0  0  0  0  0  0  0  0  0  0  0  0
   19.8975  -22.2636  -14.6985 O   0  0  0  0  0  0  0  0  0  0  0  0
  2 10  1  0
  2  1  1  6
  3  2  1  0
  3  4  1  0
  4  5  2  0
  4  9  1  0
  5  6  1  0
  6  7  2  0
  8  7  1  0
  9  8  2  0
 10 11  2  0
 12 13  1  0
 12 10  1  0
 13 14  1  1
 14 15  1  0
 16 15  1  0
 16 17  2  0
 18 13  1  0
 18 19  2  0
 20 16  1  0
 22 21  1  1
 22 23  1  0
 22 24  1  0
 25 24  1  6
 25 27  1  0
 25 26  1  0
 26 18  1  0
 27 28  1  0
 29 27  2  0
M  END
$$$$
