FEL.pdb
     RDKit          3D

 29 29  0  0  1  0  0  0  0  0999 V2000
   28.3142  -21.2097  -13.7675 N   0  0  0  0  0  0  0  0  0  0  0  0
   27.1258  -21.3261  -12.9078 C   0  0  1  0  0  0  0  0  0  0  0  0
   27.3284  -20.2585  -11.8258 C   0  0  0  0  0  0  0  0  0  0  0  0
   28.3421  -20.7037  -10.8392 C   0  0  0  0  0  0  0  0  0  0  0  0
   29.6866  -20.8221  -11.1722 C   0  0  0  0  0  0  0  0  0  0  0  0
   30.6173  -21.2342  -10.2486 C   0  0  0  0  0  0  0  0  0  0  0  0
   30.2092  -21.5379   -8.9597 C   0  0  0  0  0  0  0  0  0  0  0  0
   28.8807  -21.4334   -8.5865 C   0  0  0  0  0  0  0  0  0  0  0  0
   27.9769  -21.0166   -9.5416 C   0  0  0  0  0  0  0  0  0  0  0  0
   25.9587  -20.9548  -13.7674 C   0  0  0  0  0  0  0  0  0  0  0  0
   25.9794  -19.9239  -14.4862 O   0  0  0  0  0  0  0  0  0  0  0  0
   24.7811  -21.7579  -13.8004 N   0  0  0  0  0  0  0  0  0  0  0  0
   23.6052  -21.3533  -14.6329 C   0  0  1  0  0  0  0  0  0  0  0  0
   23.5531  -22.2783  -15.7679 C   0  0  0  0  0  0  0  0  0  0  0  0
   22.5179  -22.2148  -16.8035 C   0  0  0  0  0  0  0  0  0  0  0  0
   21.5476  -23.3229  -16.8253 C   0  0  0  0  0  0  0  0  0  0  0  0
   20.3364  -23.1033  -16.9538 O   0  0  0  0  0  0  0  0  0  0  0  0
   22.4627  -21.0832  -13.7763 C   0  0  0  0  0  0  0  0  0  0  0  0
   22.2620  -21.7723  -12.6969 O   0  0  0  0  0  0  0  0  0  0  0  0
   22.0337  -24.6444  -16.6935 O   0  0  0  0  0  0  0  0  0  0  0  0
   19.0448  -18.6305  -10.5030 C   0  0  0  0  0  0  0  0  0  0  0  0
   19.1442  -18.0235  -11.8902 C   0  0  2  0  0  0  0  0  0  0  0  0
   17.8088  -17.8675  -12.5008 C   0  0  0  0  0  0  0  0  0  0  0  0
   20.2511  -18.5346  -12.7098 C   0  0  0  0  0  0  0  0  0  0  0  0
   20.2879  -19.9791  -13.0830 C   0  0  2  0  0  0  0  0  0  0  0  0
   21.4696  -20.0791  -13.9742 N   0  0  0  0  0  0  0  0  0  0  0  0
   19.0618  -20.3993  -13.7637 C   0  0  0  0  0  0  0  0  0  0  0  0
   18.0320  -20.9531  -13.0354 O   0  0  0  0  0  0  0  0  0  0  0  0
   18.9126  -20.2740  -14.9942 O   0  0  0  0  0  0  0  0  0  0  0  0
  2 10  1  0
  2  1  1  6
  3  2  1  0
  3  4  1  0
  4  5  2  0
  4  9  1  0
  5  6  1  0
  6  7  2  0
  8  7  1  0
  9  8  2  0
 10 11  2  0
 12 13  1  0
 12 10  1  0
 13 14  1  6
 14 15  1  0
 16 15  1  0
 16 17  2  0
 18 13  1  0
 18 19  2  0
 20 16  1  0
 22 21  1  1
 22 23  1  0
 22 24  1  0
 25 24  1  6
 25 27  1  0
 25 26  1  0
 26 18  1  0
 27 28  1  0
 29 27  2  0
M  END
$$$$
