FEL.pdb
     RDKit          3D

 29 29  0  0  1  0  0  0  0  0999 V2000
   26.0704  -18.6843   -7.9890 N   0  0  0  0  0  0  0  0  0  0  0  0
   26.8643  -19.8003   -8.5267 C   0  0  1  0  0  0  0  0  0  0  0  0
   26.7437  -20.9027   -7.4675 C   0  0  0  0  0  0  0  0  0  0  0  0
   27.5265  -20.5501   -6.2583 C   0  0  0  0  0  0  0  0  0  0  0  0
   26.9534  -20.5381   -4.9918 C   0  0  0  0  0  0  0  0  0  0  0  0
   27.6895  -20.2112   -3.8781 C   0  0  0  0  0  0  0  0  0  0  0  0
   29.0294  -19.8870   -4.0187 C   0  0  0  0  0  0  0  0  0  0  0  0
   29.6390  -19.8868   -5.2611 C   0  0  0  0  0  0  0  0  0  0  0  0
   28.8671  -20.2203   -6.3546 C   0  0  0  0  0  0  0  0  0  0  0  0
   26.1712  -20.2309   -9.7809 C   0  0  0  0  0  0  0  0  0  0  0  0
   24.9537  -19.9834   -9.9717 O   0  0  0  0  0  0  0  0  0  0  0  0
   26.8682  -20.9383  -10.8039 N   0  0  0  0  0  0  0  0  0  0  0  0
   26.5621  -20.6893  -12.2474 C   0  0  1  0  0  0  0  0  0  0  0  0
   27.7747  -21.0219  -12.9996 C   0  0  0  0  0  0  0  0  0  0  0  0
   27.8695  -20.8996  -14.4571 C   0  0  0  0  0  0  0  0  0  0  0  0
   27.3905  -19.6337  -15.0384 C   0  0  0  0  0  0  0  0  0  0  0  0
   26.2619  -19.5525  -15.5396 O   0  0  0  0  0  0  0  0  0  0  0  0
   25.2525  -21.2276  -12.5750 C   0  0  0  0  0  0  0  0  0  0  0  0
   24.9580  -22.4640  -12.3203 O   0  0  0  0  0  0  0  0  0  0  0  0
   28.2531  -18.5133  -15.0118 O   0  0  0  0  0  0  0  0  0  0  0  0
   20.6115  -22.5328  -12.1697 C   0  0  0  0  0  0  0  0  0  0  0  0
   21.0499  -21.1181  -11.8393 C   0  0  2  0  0  0  0  0  0  0  0  0
   19.9655  -20.3647  -11.1781 C   0  0  0  0  0  0  0  0  0  0  0  0
   21.8466  -20.4591  -12.8829 C   0  0  0  0  0  0  0  0  0  0  0  0
   22.9246  -21.2203  -13.5800 C   0  0  2  0  0  0  0  0  0  0  0  0
   24.1667  -20.5203  -13.1702 N   0  0  0  0  0  0  0  0  0  0  0  0
   22.7518  -21.2057  -15.0336 C   0  0  0  0  0  0  0  0  0  0  0  0
   21.8687  -22.0821  -15.6250 O   0  0  0  0  0  0  0  0  0  0  0  0
   23.3825  -20.4202  -15.7665 O   0  0  0  0  0  0  0  0  0  0  0  0
  2 10  1  0
  2  1  1  1
  3  2  1  0
  3  4  1  0
  4  5  2  0
  4  9  1  0
  5  6  1  0
  6  7  2  0
  8  7  1  0
  9  8  2  0
 10 11  2  0
 12 13  1  0
 12 10  1  0
 13 14  1  6
 14 15  1  0
 16 15  1  0
 16 17  2  0
 18 13  1  0
 18 19  2  0
 20 16  1  0
 22 21  1  6
 22 23  1  0
 22 24  1  0
 25 24  1  1
 25 27  1  0
 25 26  1  0
 26 18  1  0
 27 28  1  0
 29 27  2  0
M  END
$$$$
