FEL.pdb
     RDKit          3D

 29 29  0  0  1  0  0  0  0  0999 V2000
   27.4205  -32.1247   -4.2879 N   0  0  0  0  0  0  0  0  0  0  0  0
   26.0757  -32.7203   -4.2461 C   0  0  1  0  0  0  0  0  0  0  0  0
   26.0377  -33.6682   -5.4509 C   0  0  0  0  0  0  0  0  0  0  0  0
   25.8813  -32.9019   -6.7109 C   0  0  0  0  0  0  0  0  0  0  0  0
   24.7493  -32.1371   -6.9681 C   0  0  0  0  0  0  0  0  0  0  0  0
   24.6163  -31.4298   -8.1390 C   0  0  0  0  0  0  0  0  0  0  0  0
   25.6297  -31.4788   -9.0828 C   0  0  0  0  0  0  0  0  0  0  0  0
   26.7732  -32.2278   -8.8666 C   0  0  0  0  0  0  0  0  0  0  0  0
   26.8695  -32.9236   -7.6795 C   0  0  0  0  0  0  0  0  0  0  0  0
   26.0175  -33.5152   -2.9797 C   0  0  0  0  0  0  0  0  0  0  0  0
   27.0600  -33.9762   -2.4500 O   0  0  0  0  0  0  0  0  0  0  0  0
   24.7762  -33.7781   -2.3295 N   0  0  0  0  0  0  0  0  0  0  0  0
   24.7373  -34.5256   -1.0337 C   0  0  1  0  0  0  0  0  0  0  0  0
   24.2466  -33.5883   -0.0201 C   0  0  0  0  0  0  0  0  0  0  0  0
   24.0702  -33.9546    1.3881 C   0  0  0  0  0  0  0  0  0  0  0  0
   22.6854  -33.9697    1.8900 C   0  0  0  0  0  0  0  0  0  0  0  0
   22.2506  -33.0394    2.5806 O   0  0  0  0  0  0  0  0  0  0  0  0
   24.1614  -35.8438   -1.2405 C   0  0  0  0  0  0  0  0  0  0  0  0
   23.0668  -35.9933   -1.9187 O   0  0  0  0  0  0  0  0  0  0  0  0
   21.8650  -35.0749    1.5652 O   0  0  0  0  0  0  0  0  0  0  0  0
   24.8160  -39.0727   -3.7106 C   0  0  0  0  0  0  0  0  0  0  0  0
   25.6985  -39.3298   -2.5031 C   0  0  2  0  0  0  0  0  0  0  0  0
   26.7100  -40.3658   -2.7930 C   0  0  0  0  0  0  0  0  0  0  0  0
   24.9903  -39.3605   -1.2163 C   0  0  0  0  0  0  0  0  0  0  0  0
   23.9292  -38.3500   -0.9332 C   0  0  2  0  0  0  0  0  0  0  0  0
   24.6866  -37.0845   -0.7734 N   0  0  0  0  0  0  0  0  0  0  0  0
   23.1685  -38.6794    0.2734 C   0  0  0  0  0  0  0  0  0  0  0  0
   22.3794  -39.8084    0.2961 O   0  0  0  0  0  0  0  0  0  0  0  0
   23.2077  -37.9670    1.2947 O   0  0  0  0  0  0  0  0  0  0  0  0
  2 10  1  0
  2  1  1  1
  3  2  1  0
  3  4  1  0
  4  5  2  0
  4  9  1  0
  5  6  1  0
  6  7  2  0
  8  7  1  0
  9  8  2  0
 10 11  2  0
 12 13  1  0
 12 10  1  0
 13 14  1  1
 14 15  1  0
 16 15  1  0
 16 17  2  0
 18 13  1  0
 18 19  2  0
 20 16  1  0
 22 21  1  6
 22 23  1  0
 22 24  1  0
 25 24  1  1
 25 27  1  0
 25 26  1  0
 26 18  1  0
 27 28  1  0
 29 27  2  0
M  END
$$$$
