VTP.pdb
     RDKit          3D

 22 22  0  0  1  0  0  0  0  0999 V2000
   25.6101  -15.4062  -14.9746 C   0  0  0  0  0  0  0  0  0  0  0  0
   24.4807  -15.1956  -15.9549 C   0  0  2  0  0  0  0  0  0  0  0  0
   23.2758  -14.6201  -15.2804 C   0  0  0  0  0  0  0  0  0  0  0  0
   24.1120  -16.4832  -16.6316 C   0  0  2  0  0  0  0  0  0  0  0  0
   22.8627  -16.3102  -17.3798 N   0  0  0  0  0  0  0  0  0  0  0  0
   23.8581  -17.5741  -15.6450 C   0  0  0  0  0  0  0  0  0  0  0  0
   22.8406  -17.4615  -14.9221 O   0  0  0  0  0  0  0  0  0  0  0  0
   24.0688  -22.2523  -14.4008 C   0  0  0  0  0  0  0  0  0  0  0  0
   24.1328  -21.0955  -15.3796 C   0  0  1  0  0  0  0  0  0  0  0  0
   23.0565  -21.0576  -16.2313 O   0  0  0  0  0  0  0  0  0  0  0  0
   24.3724  -19.8278  -14.6240 C   0  0  2  0  0  0  0  0  0  0  0  0
   24.6684  -18.6975  -15.4760 N   0  0  0  0  0  0  0  0  0  0  0  0
   25.4094  -19.9999  -13.5771 C   0  0  0  0  0  0  0  0  0  0  0  0
   26.6190  -19.7934  -13.9393 O   0  0  0  0  0  0  0  0  0  0  0  0
   25.2151  -20.3583  -12.2429 N   0  0  0  0  0  0  0  0  0  0  0  0
   23.9499  -20.5573  -11.5733 C   0  0  0  0  0  0  0  0  0  0  0  0
   24.2282  -20.1388  -10.1233 C   0  0  0  0  0  0  0  0  0  0  0  0
   25.5937  -20.7934   -9.9285 C   0  0  0  0  0  0  0  0  0  0  0  0
   26.2529  -20.5777  -11.2584 C   0  0  1  0  0  0  0  0  0  0  0  0
   27.0484  -21.7881  -11.5880 C   0  0  0  0  0  0  0  0  0  0  0  0
   28.3428  -21.8752  -11.1018 O   0  0  0  0  0  0  0  0  0  0  0  0
   26.5957  -22.7127  -12.2769 O   0  0  0  0  0  0  0  0  0  0  0  0
  2  1  1  1
  2  3  1  0
  4  2  1  0
  4  6  1  0
  4  5  1  1
  6  7  2  0
  9  8  1  1
  9 11  1  0
 10  9  1  0
 11 13  1  0
 11 12  1  6
 12  6  1  0
 13 14  2  0
 13 15  1  0
 15 19  1  0
 16 15  1  0
 17 16  1  0
 18 17  1  0
 18 19  1  0
 19 20  1  6
 20 22  2  0
 20 21  1  0
M  END
$$$$
