VTP.pdb
     RDKit          3D

 22 22  0  0  1  0  0  0  0  0999 V2000
   16.4936  -14.6675  -17.8799 C   0  0  0  0  0  0  0  0  0  0  0  0
   17.4784  -15.5526  -17.1535 C   0  0  2  0  0  0  0  0  0  0  0  0
   16.8209  -16.7985  -16.6502 C   0  0  0  0  0  0  0  0  0  0  0  0
   18.1129  -14.8201  -16.0079 C   0  0  2  0  0  0  0  0  0  0  0  0
   17.0837  -14.4241  -15.0413 N   0  0  0  0  0  0  0  0  0  0  0  0
   18.7712  -13.5573  -16.4551 C   0  0  0  0  0  0  0  0  0  0  0  0
   19.7451  -13.6693  -17.2358 O   0  0  0  0  0  0  0  0  0  0  0  0
   18.1032  -11.1246  -18.9050 C   0  0  0  0  0  0  0  0  0  0  0  0
   18.0145  -10.3784  -17.5876 C   0  0  1  0  0  0  0  0  0  0  0  0
   16.7214  -10.2004  -17.1616 O   0  0  0  0  0  0  0  0  0  0  0  0
   18.9123  -11.0378  -16.5903 C   0  0  2  0  0  0  0  0  0  0  0  0
   18.3792  -12.2757  -16.0664 N   0  0  0  0  0  0  0  0  0  0  0  0
   19.2944  -10.1101  -15.4974 C   0  0  0  0  0  0  0  0  0  0  0  0
   18.5155  -10.0796  -14.4828 O   0  0  0  0  0  0  0  0  0  0  0  0
   20.4072   -9.2701  -15.4494 N   0  0  0  0  0  0  0  0  0  0  0  0
   21.4359   -9.1342  -16.4554 C   0  0  0  0  0  0  0  0  0  0  0  0
   22.6974   -8.7913  -15.6514 C   0  0  0  0  0  0  0  0  0  0  0  0
   22.1039   -7.7887  -14.6647 C   0  0  0  0  0  0  0  0  0  0  0  0
   20.7608   -8.3835  -14.3615 C   0  0  1  0  0  0  0  0  0  0  0  0
   19.7765   -7.2778  -14.2382 C   0  0  0  0  0  0  0  0  0  0  0  0
   18.9154   -7.0445  -15.2982 O   0  0  0  0  0  0  0  0  0  0  0  0
   19.7021   -6.5649  -13.2280 O   0  0  0  0  0  0  0  0  0  0  0  0
  2  1  1  1
  2  3  1  0
  4  2  1  0
  4  6  1  0
  4  5  1  1
  6  7  2  0
  9  8  1  6
  9 11  1  0
 10  9  1  0
 11 13  1  0
 11 12  1  1
 12  6  1  0
 13 14  2  0
 13 15  1  0
 15 19  1  0
 16 15  1  0
 17 16  1  0
 18 17  1  0
 18 19  1  0
 19 20  1  6
 20 22  2  0
 20 21  1  0
M  END
$$$$
