VTP.pdb
     RDKit          3D

 22 22  0  0  1  0  0  0  0  0999 V2000
   22.5326  -21.0761   -9.0106 C   0  0  0  0  0  0  0  0  0  0  0  0
   23.3759  -20.3021   -9.9959 C   0  0  2  0  0  0  0  0  0  0  0  0
   22.7415  -20.2748  -11.3504 C   0  0  0  0  0  0  0  0  0  0  0  0
   24.7539  -20.8873  -10.0969 C   0  0  2  0  0  0  0  0  0  0  0  0
   25.4205  -20.8145   -8.7928 N   0  0  0  0  0  0  0  0  0  0  0  0
   25.6128  -20.1200  -11.0464 C   0  0  0  0  0  0  0  0  0  0  0  0
   26.2110  -19.1181  -10.5893 O   0  0  0  0  0  0  0  0  0  0  0  0
   28.7818  -20.7736  -12.6186 C   0  0  0  0  0  0  0  0  0  0  0  0
   27.8213  -20.5737  -13.7751 C   0  0  1  0  0  0  0  0  0  0  0  0
   27.4715  -21.7518  -14.3876 O   0  0  0  0  0  0  0  0  0  0  0  0
   26.6648  -19.7460  -13.3134 C   0  0  2  0  0  0  0  0  0  0  0  0
   25.7920  -20.4399  -12.3927 N   0  0  0  0  0  0  0  0  0  0  0  0
   25.9042  -19.1798  -14.4544 C   0  0  0  0  0  0  0  0  0  0  0  0
   24.9060  -19.8664  -14.8655 O   0  0  0  0  0  0  0  0  0  0  0  0
   26.1522  -17.9833  -15.1275 N   0  0  0  0  0  0  0  0  0  0  0  0
   27.2230  -17.0478  -14.8687 C   0  0  0  0  0  0  0  0  0  0  0  0
   26.6220  -15.6850  -15.2384 C   0  0  0  0  0  0  0  0  0  0  0  0
   25.8986  -16.0685  -16.5270 C   0  0  0  0  0  0  0  0  0  0  0  0
   25.3625  -17.4325  -16.2080 C   0  0  1  0  0  0  0  0  0  0  0  0
   25.4719  -18.2749  -17.4267 C   0  0  0  0  0  0  0  0  0  0  0  0
   24.5939  -18.0349  -18.4712 O   0  0  0  0  0  0  0  0  0  0  0  0
   26.3146  -19.1759  -17.5374 O   0  0  0  0  0  0  0  0  0  0  0  0
  2  1  1  1
  2  3  1  0
  4  2  1  0
  4  6  1  0
  4  5  1  1
  6  7  2  0
  9  8  1  1
  9 11  1  0
 10  9  1  0
 11 13  1  0
 11 12  1  6
 12  6  1  0
 13 14  2  0
 13 15  1  0
 15 19  1  0
 16 15  1  0
 17 16  1  0
 18 17  1  0
 18 19  1  0
 19 20  1  6
 20 22  2  0
 20 21  1  0
M  END
$$$$
