VTP.pdb
     RDKit          3D

 22 22  0  0  1  0  0  0  0  0999 V2000
   15.5036  -11.3225  -17.0619 C   0  0  0  0  0  0  0  0  0  0  0  0
   16.1018  -12.1942  -15.9834 C   0  0  2  0  0  0  0  0  0  0  0  0
   15.0471  -12.9861  -15.2774 C   0  0  0  0  0  0  0  0  0  0  0  0
   16.8623  -11.3683  -14.9878 C   0  0  2  0  0  0  0  0  0  0  0  0
   15.9248  -10.6124  -14.1512 N   0  0  0  0  0  0  0  0  0  0  0  0
   17.7314  -10.3562  -15.6572 C   0  0  0  0  0  0  0  0  0  0  0  0
   18.6186  -10.7898  -16.4289 O   0  0  0  0  0  0  0  0  0  0  0  0
   18.7052   -5.8663  -17.3135 C   0  0  0  0  0  0  0  0  0  0  0  0
   17.7276   -6.9175  -16.8245 C   0  0  1  0  0  0  0  0  0  0  0  0
   16.9036   -7.3833  -17.8192 O   0  0  0  0  0  0  0  0  0  0  0  0
   18.4794   -7.9817  -16.0911 C   0  0  2  0  0  0  0  0  0  0  0  0
   17.6233   -8.9759  -15.4831 N   0  0  0  0  0  0  0  0  0  0  0  0
   19.4229   -7.4052  -15.1019 C   0  0  0  0  0  0  0  0  0  0  0  0
   18.8979   -6.8542  -14.0734 O   0  0  0  0  0  0  0  0  0  0  0  0
   20.8166   -7.3982  -15.1646 N   0  0  0  0  0  0  0  0  0  0  0  0
   21.6386   -7.8741  -16.2539 C   0  0  0  0  0  0  0  0  0  0  0  0
   22.9138   -8.3767  -15.5636 C   0  0  0  0  0  0  0  0  0  0  0  0
   23.1180   -7.2480  -14.5560 C   0  0  0  0  0  0  0  0  0  0  0  0
   21.7150   -6.9312  -14.1305 C   0  0  1  0  0  0  0  0  0  0  0  0
   21.6004   -5.4607  -13.9539 C   0  0  0  0  0  0  0  0  0  0  0  0
   22.1394   -4.8931  -12.8108 O   0  0  0  0  0  0  0  0  0  0  0  0
   21.0439   -4.7333  -14.7878 O   0  0  0  0  0  0  0  0  0  0  0  0
  2  1  1  6
  2  3  1  0
  4  2  1  0
  4  6  1  0
  4  5  1  1
  6  7  2  0
  9  8  1  6
  9 11  1  0
 10  9  1  0
 11 13  1  0
 11 12  1  1
 12  6  1  0
 13 14  2  0
 13 15  1  0
 15 19  1  0
 16 15  1  0
 17 16  1  0
 18 17  1  0
 18 19  1  0
 19 20  1  6
 20 22  2  0
 20 21  1  0
M  END
$$$$
