VTP.pdb
     RDKit          3D

 22 22  0  0  1  0  0  0  0  0999 V2000
   33.6765  -36.7350   -2.8491 C   0  0  0  0  0  0  0  0  0  0  0  0
   32.6106  -37.2332   -1.9023 C   0  0  2  0  0  0  0  0  0  0  0  0
   31.7205  -38.2363   -2.5652 C   0  0  0  0  0  0  0  0  0  0  0  0
   31.7845  -36.0949   -1.3792 C   0  0  2  0  0  0  0  0  0  0  0  0
   31.0249  -35.4879   -2.4770 N   0  0  0  0  0  0  0  0  0  0  0  0
   32.6359  -35.0081   -0.8120 C   0  0  0  0  0  0  0  0  0  0  0  0
   32.8840  -34.0322   -1.5580 O   0  0  0  0  0  0  0  0  0  0  0  0
   34.4829  -32.6011    3.0647 C   0  0  0  0  0  0  0  0  0  0  0  0
   33.6667  -33.7682    2.5434 C   0  0  1  0  0  0  0  0  0  0  0  0
   32.3407  -33.6889    2.8906 O   0  0  0  0  0  0  0  0  0  0  0  0
   33.9171  -33.9245    1.0776 C   0  0  2  0  0  0  0  0  0  0  0  0
   33.1676  -35.0062    0.4781 N   0  0  0  0  0  0  0  0  0  0  0  0
   35.3652  -34.0406    0.7770 C   0  0  0  0  0  0  0  0  0  0  0  0
   35.8826  -35.2015    0.9247 O   0  0  0  0  0  0  0  0  0  0  0  0
   36.2255  -33.0291    0.3492 N   0  0  0  0  0  0  0  0  0  0  0  0
   35.8958  -31.6360    0.1504 C   0  0  0  0  0  0  0  0  0  0  0  0
   36.8214  -31.1955   -0.9917 C   0  0  0  0  0  0  0  0  0  0  0  0
   38.1125  -31.8799   -0.5495 C   0  0  0  0  0  0  0  0  0  0  0  0
   37.6198  -33.1875   -0.0044 C   0  0  1  0  0  0  0  0  0  0  0  0
   38.4331  -33.5328    1.1898 C   0  0  0  0  0  0  0  0  0  0  0  0
   39.7502  -33.9174    0.9979 O   0  0  0  0  0  0  0  0  0  0  0  0
   37.9756  -33.4881    2.3400 O   0  0  0  0  0  0  0  0  0  0  0  0
  2  1  1  6
  2  3  1  0
  4  2  1  0
  4  6  1  0
  4  5  1  6
  6  7  2  0
  9  8  1  6
  9 11  1  0
 10  9  1  0
 11 13  1  0
 11 12  1  1
 12  6  1  0
 13 14  2  0
 13 15  1  0
 15 19  1  0
 16 15  1  0
 17 16  1  0
 18 17  1  0
 18 19  1  0
 19 20  1  1
 20 22  2  0
 20 21  1  0
M  END
$$$$
