VTP.pdb
     RDKit          3D

 22 22  0  0  1  0  0  0  0  0999 V2000
   15.6476  -11.3529  -16.0464 C   0  0  0  0  0  0  0  0  0  0  0  0
   16.8280  -10.5654  -15.5295 C   0  0  2  0  0  0  0  0  0  0  0  0
   16.5589   -9.0943  -15.5679 C   0  0  0  0  0  0  0  0  0  0  0  0
   18.0647  -10.8718  -16.3223 C   0  0  2  0  0  0  0  0  0  0  0  0
   18.4754  -12.2592  -16.0841 N   0  0  0  0  0  0  0  0  0  0  0  0
   19.2162  -10.0195  -15.9033 C   0  0  0  0  0  0  0  0  0  0  0  0
   19.8020  -10.3371  -14.8419 O   0  0  0  0  0  0  0  0  0  0  0  0
   22.5120   -9.4865  -17.5145 C   0  0  0  0  0  0  0  0  0  0  0  0
   21.8699   -8.1177  -17.3948 C   0  0  1  0  0  0  0  0  0  0  0  0
   21.3886   -7.6479  -18.5918 O   0  0  0  0  0  0  0  0  0  0  0  0
   20.8651   -8.1435  -16.2880 C   0  0  2  0  0  0  0  0  0  0  0  0
   19.6783   -8.9061  -16.6060 N   0  0  0  0  0  0  0  0  0  0  0  0
   20.5198   -6.7762  -15.8273 C   0  0  0  0  0  0  0  0  0  0  0  0
   19.4398   -6.2765  -16.2973 O   0  0  0  0  0  0  0  0  0  0  0  0
   21.2372   -5.9752  -14.9385 N   0  0  0  0  0  0  0  0  0  0  0  0
   22.4019   -6.3569  -14.1727 C   0  0  0  0  0  0  0  0  0  0  0  0
   22.2921   -5.5215  -12.8900 C   0  0  0  0  0  0  0  0  0  0  0  0
   21.8676   -4.1850  -13.4938 C   0  0  0  0  0  0  0  0  0  0  0  0
   20.9347   -4.6032  -14.5913 C   0  0  1  0  0  0  0  0  0  0  0  0
   21.1471   -3.7035  -15.7541 C   0  0  0  0  0  0  0  0  0  0  0  0
   20.6479   -2.4129  -15.6850 O   0  0  0  0  0  0  0  0  0  0  0  0
   21.7504   -4.0669  -16.7730 O   0  0  0  0  0  0  0  0  0  0  0  0
  2  1  1  6
  2  3  1  0
  4  2  1  0
  4  6  1  0
  4  5  1  1
  6  7  2  0
  9  8  1  6
  9 11  1  0
 10  9  1  0
 11 13  1  0
 11 12  1  6
 12  6  1  0
 13 14  2  0
 13 15  1  0
 15 19  1  0
 16 15  1  0
 17 16  1  0
 18 17  1  0
 18 19  1  0
 19 20  1  6
 20 22  2  0
 20 21  1  0
M  END
$$$$
