VTP.pdb
     RDKit          3D

 22 22  0  0  1  0  0  0  0  0999 V2000
   13.8826   -6.7578   -7.6868 C   0  0  0  0  0  0  0  0  0  0  0  0
   15.1085   -7.1367   -8.4833 C   0  0  2  0  0  0  0  0  0  0  0  0
   15.9763   -5.9465   -8.7444 C   0  0  0  0  0  0  0  0  0  0  0  0
   14.7245   -7.7753   -9.7858 C   0  0  2  0  0  0  0  0  0  0  0  0
   14.1681   -9.1094   -9.5390 N   0  0  0  0  0  0  0  0  0  0  0  0
   15.9073   -7.9759  -10.6738 C   0  0  0  0  0  0  0  0  0  0  0  0
   16.5800   -9.0186  -10.4979 O   0  0  0  0  0  0  0  0  0  0  0  0
   16.1435   -8.7144  -14.2623 C   0  0  0  0  0  0  0  0  0  0  0  0
   16.8664   -7.3981  -14.0500 C   0  0  1  0  0  0  0  0  0  0  0  0
   16.1254   -6.3126  -14.4473 O   0  0  0  0  0  0  0  0  0  0  0  0
   17.3587   -7.3321  -12.6398 C   0  0  2  0  0  0  0  0  0  0  0  0
   16.3092   -7.0906  -11.6747 N   0  0  0  0  0  0  0  0  0  0  0  0
   18.4647   -6.3548  -12.4892 C   0  0  0  0  0  0  0  0  0  0  0  0
   18.1366   -5.1871  -12.0818 O   0  0  0  0  0  0  0  0  0  0  0  0
   19.8211   -6.5652  -12.7386 N   0  0  0  0  0  0  0  0  0  0  0  0
   20.4725   -7.8325  -12.9803 C   0  0  0  0  0  0  0  0  0  0  0  0
   21.8835   -7.6388  -12.4086 C   0  0  0  0  0  0  0  0  0  0  0  0
   22.1755   -6.2324  -12.9261 C   0  0  0  0  0  0  0  0  0  0  0  0
   20.8492   -5.5475  -12.7791 C   0  0  1  0  0  0  0  0  0  0  0  0
   20.6566   -4.6461  -13.9440 C   0  0  0  0  0  0  0  0  0  0  0  0
   19.7537   -5.0245  -14.9243 O   0  0  0  0  0  0  0  0  0  0  0  0
   21.2713   -3.5776  -14.0653 O   0  0  0  0  0  0  0  0  0  0  0  0
  2  1  1  6
  2  3  1  0
  4  2  1  0
  4  6  1  0
  4  5  1  1
  6  7  2  0
  9  8  1  1
  9 11  1  0
 10  9  1  0
 11 13  1  0
 11 12  1  1
 12  6  1  0
 13 14  2  0
 13 15  1  0
 15 19  1  0
 16 15  1  0
 17 16  1  0
 18 17  1  0
 18 19  1  0
 19 20  1  6
 20 22  2  0
 20 21  1  0
M  END
$$$$
