VTP.pdb
     RDKit          3D

 22 22  0  0  1  0  0  0  0  0999 V2000
   16.2511  -14.5871  -17.2193 C   0  0  0  0  0  0  0  0  0  0  0  0
   17.5109  -15.3183  -17.6183 C   0  0  2  0  0  0  0  0  0  0  0  0
   17.4444  -16.7634  -17.2375 C   0  0  0  0  0  0  0  0  0  0  0  0
   18.7183  -14.6870  -16.9897 C   0  0  2  0  0  0  0  0  0  0  0  0
   18.5855  -14.7082  -15.5294 N   0  0  0  0  0  0  0  0  0  0  0  0
   18.8554  -13.2512  -17.3739 C   0  0  0  0  0  0  0  0  0  0  0  0
   19.0818  -13.0049  -18.5816 O   0  0  0  0  0  0  0  0  0  0  0  0
   16.8670  -10.6292  -18.2627 C   0  0  0  0  0  0  0  0  0  0  0  0
   17.5416  -10.1007  -17.0115 C   0  0  1  0  0  0  0  0  0  0  0  0
   16.7291  -10.1509  -15.9058 O   0  0  0  0  0  0  0  0  0  0  0  0
   18.8627  -10.7805  -16.8433 C   0  0  2  0  0  0  0  0  0  0  0  0
   18.7496  -12.1778  -16.4887 N   0  0  0  0  0  0  0  0  0  0  0  0
   19.7383  -10.0521  -15.8926 C   0  0  0  0  0  0  0  0  0  0  0  0
   19.6545  -10.4015  -14.6647 O   0  0  0  0  0  0  0  0  0  0  0  0
   20.6438   -9.0322  -16.1859 N   0  0  0  0  0  0  0  0  0  0  0  0
   20.8935   -8.4391  -17.4800 C   0  0  0  0  0  0  0  0  0  0  0  0
   22.3751   -8.0423  -17.4261 C   0  0  0  0  0  0  0  0  0  0  0  0
   22.4304   -7.4611  -16.0154 C   0  0  0  0  0  0  0  0  0  0  0  0
   21.5326   -8.3838  -15.2457 C   0  0  1  0  0  0  0  0  0  0  0  0
   20.7658   -7.5773  -14.2618 C   0  0  0  0  0  0  0  0  0  0  0  0
   21.3891   -7.2216  -13.0767 O   0  0  0  0  0  0  0  0  0  0  0  0
   19.5985   -7.2163  -14.4653 O   0  0  0  0  0  0  0  0  0  0  0  0
  2  1  1  1
  2  3  1  0
  4  2  1  0
  4  6  1  0
  4  5  1  1
  6  7  2  0
  9  8  1  6
  9 11  1  0
 10  9  1  0
 11 13  1  0
 11 12  1  1
 12  6  1  0
 13 14  2  0
 13 15  1  0
 15 19  1  0
 16 15  1  0
 17 16  1  0
 18 17  1  0
 18 19  1  0
 19 20  1  1
 20 22  2  0
 20 21  1  0
M  END
$$$$
