VTP.pdb
     RDKit          3D

 22 22  0  0  1  0  0  0  0  0999 V2000
   20.5167  -13.8976  -17.8747 C   0  0  0  0  0  0  0  0  0  0  0  0
   20.2420  -13.5213  -19.3112 C   0  0  2  0  0  0  0  0  0  0  0  0
   19.9021  -14.7243  -20.1328 C   0  0  0  0  0  0  0  0  0  0  0  0
   21.4209  -12.8159  -19.9148 C   0  0  2  0  0  0  0  0  0  0  0  0
   22.5686  -13.7270  -19.9709 N   0  0  0  0  0  0  0  0  0  0  0  0
   21.8537  -11.6525  -19.0859 C   0  0  0  0  0  0  0  0  0  0  0  0
   22.8032  -11.8430  -18.2905 O   0  0  0  0  0  0  0  0  0  0  0  0
   21.8482   -6.8074  -18.0939 C   0  0  0  0  0  0  0  0  0  0  0  0
   21.5099   -7.9357  -19.0493 C   0  0  1  0  0  0  0  0  0  0  0  0
   22.1765   -7.8392  -20.2458 O   0  0  0  0  0  0  0  0  0  0  0  0
   21.6839   -9.2427  -18.3444 C   0  0  2  0  0  0  0  0  0  0  0  0
   21.2786  -10.3822  -19.1370 N   0  0  0  0  0  0  0  0  0  0  0  0
   21.0189   -9.2445  -17.0183 C   0  0  0  0  0  0  0  0  0  0  0  0
   19.7580   -9.4620  -17.0177 O   0  0  0  0  0  0  0  0  0  0  0  0
   21.6123   -9.0387  -15.7726 N   0  0  0  0  0  0  0  0  0  0  0  0
   23.0093   -8.7782  -15.5093 C   0  0  0  0  0  0  0  0  0  0  0  0
   23.2504   -9.4084  -14.1310 C   0  0  0  0  0  0  0  0  0  0  0  0
   21.9806   -8.9506  -13.4176 C   0  0  0  0  0  0  0  0  0  0  0  0
   20.9402   -9.0714  -14.4913 C   0  0  1  0  0  0  0  0  0  0  0  0
   19.9967   -7.9317  -14.3589 C   0  0  0  0  0  0  0  0  0  0  0  0
   19.0940   -7.9459  -13.3080 O   0  0  0  0  0  0  0  0  0  0  0  0
   19.9916   -6.9788  -15.1502 O   0  0  0  0  0  0  0  0  0  0  0  0
  2  1  1  1
  2  3  1  0
  4  2  1  0
  4  6  1  0
  4  5  1  1
  6  7  2  0
  9  8  1  1
  9 11  1  0
 10  9  1  0
 11 13  1  0
 11 12  1  6
 12  6  1  0
 13 14  2  0
 13 15  1  0
 15 19  1  0
 16 15  1  0
 17 16  1  0
 18 17  1  0
 18 19  1  0
 19 20  1  6
 20 22  2  0
 20 21  1  0
M  END
$$$$
