VTP.pdb
     RDKit          3D

 22 22  0  0  1  0  0  0  0  0999 V2000
   25.4268  -17.1361  -16.2937 C   0  0  0  0  0  0  0  0  0  0  0  0
   26.4220  -16.7654  -15.2199 C   0  0  2  0  0  0  0  0  0  0  0  0
   27.1534  -15.5076  -15.5675 C   0  0  0  0  0  0  0  0  0  0  0  0
   27.4070  -17.8752  -14.9965 C   0  0  2  0  0  0  0  0  0  0  0  0
   28.1275  -18.1571  -16.2422 N   0  0  0  0  0  0  0  0  0  0  0  0
   26.7288  -19.1479  -14.6114 C   0  0  0  0  0  0  0  0  0  0  0  0
   26.6537  -20.0401  -15.4883 O   0  0  0  0  0  0  0  0  0  0  0  0
   27.2596  -21.1252  -11.2105 C   0  0  0  0  0  0  0  0  0  0  0  0
   25.7781  -20.9561  -11.4878 C   0  0  1  0  0  0  0  0  0  0  0  0
   25.1744  -20.0647  -10.6356 O   0  0  0  0  0  0  0  0  0  0  0  0
   25.5830  -20.6575  -12.9398 C   0  0  2  0  0  0  0  0  0  0  0  0
   26.1794  -19.4074  -13.3553 N   0  0  0  0  0  0  0  0  0  0  0  0
   24.1527  -20.7275  -13.3277 C   0  0  0  0  0  0  0  0  0  0  0  0
   23.5300  -19.6120  -13.3977 O   0  0  0  0  0  0  0  0  0  0  0  0
   23.4111  -21.8706  -13.6271 N   0  0  0  0  0  0  0  0  0  0  0  0
   23.8933  -23.2325  -13.6655 C   0  0  0  0  0  0  0  0  0  0  0  0
   23.0265  -23.9024  -14.7402 C   0  0  0  0  0  0  0  0  0  0  0  0
   21.6660  -23.3174  -14.3690 C   0  0  0  0  0  0  0  0  0  0  0  0
   22.0091  -21.9090  -13.9841 C   0  0  1  0  0  0  0  0  0  0  0  0
   21.1581  -21.5185  -12.8309 C   0  0  0  0  0  0  0  0  0  0  0  0
   19.8236  -21.2311  -13.0677 O   0  0  0  0  0  0  0  0  0  0  0  0
   21.5992  -21.4425  -11.6760 O   0  0  0  0  0  0  0  0  0  0  0  0
  2  1  1  6
  2  3  1  0
  4  2  1  0
  4  6  1  0
  4  5  1  6
  6  7  2  0
  9  8  1  1
  9 11  1  0
 10  9  1  0
 11 13  1  0
 11 12  1  1
 12  6  1  0
 13 14  2  0
 13 15  1  0
 15 19  1  0
 16 15  1  0
 17 16  1  0
 18 17  1  0
 18 19  1  0
 19 20  1  1
 20 22  2  0
 20 21  1  0
M  END
$$$$
