VTP.pdb
     RDKit          3D

 22 22  0  0  1  0  0  0  0  0999 V2000
   16.1743  -12.9589  -18.2103 C   0  0  0  0  0  0  0  0  0  0  0  0
   15.7730  -13.9810  -17.1734 C   0  0  2  0  0  0  0  0  0  0  0  0
   14.3470  -13.8029  -16.7580 C   0  0  0  0  0  0  0  0  0  0  0  0
   16.6627  -13.8983  -15.9678 C   0  0  2  0  0  0  0  0  0  0  0  0
   16.0452  -13.0377  -14.9537 N   0  0  0  0  0  0  0  0  0  0  0  0
   17.9803  -13.2773  -16.2938 C   0  0  0  0  0  0  0  0  0  0  0  0
   18.7478  -13.9302  -17.0389 O   0  0  0  0  0  0  0  0  0  0  0  0
   18.4204  -10.3313  -18.0829 C   0  0  0  0  0  0  0  0  0  0  0  0
   19.6966  -11.0424  -17.6759 C   0  0  1  0  0  0  0  0  0  0  0  0
   20.8289  -10.3682  -18.0614 O   0  0  0  0  0  0  0  0  0  0  0  0
   19.6325  -11.3667  -16.2177 C   0  0  2  0  0  0  0  0  0  0  0  0
   18.4092  -12.0332  -15.8298 N   0  0  0  0  0  0  0  0  0  0  0  0
   19.8844  -10.1704  -15.3773 C   0  0  0  0  0  0  0  0  0  0  0  0
   18.8773   -9.4137  -15.1535 O   0  0  0  0  0  0  0  0  0  0  0  0
   21.0933   -9.7788  -14.8016 N   0  0  0  0  0  0  0  0  0  0  0  0
   22.3812  -10.4119  -14.9725 C   0  0  0  0  0  0  0  0  0  0  0  0
   23.0964  -10.1633  -13.6376 C   0  0  0  0  0  0  0  0  0  0  0  0
   22.7044   -8.7057  -13.4080 C   0  0  0  0  0  0  0  0  0  0  0  0
   21.2862   -8.6675  -13.8948 C   0  0  1  0  0  0  0  0  0  0  0  0
   21.0647   -7.3729  -14.5888 C   0  0  0  0  0  0  0  0  0  0  0  0
   20.9156   -6.2318  -13.8174 O   0  0  0  0  0  0  0  0  0  0  0  0
   21.0095   -7.2823  -15.8229 O   0  0  0  0  0  0  0  0  0  0  0  0
  2  1  1  6
  2  3  1  0
  4  2  1  0
  4  6  1  0
  4  5  1  1
  6  7  2  0
  9  8  1  1
  9 11  1  0
 10  9  1  0
 11 13  1  0
 11 12  1  1
 12  6  1  0
 13 14  2  0
 13 15  1  0
 15 19  1  0
 16 15  1  0
 17 16  1  0
 18 17  1  0
 18 19  1  0
 19 20  1  6
 20 22  2  0
 20 21  1  0
M  END
$$$$
