VTP.pdb
     RDKit          3D

 22 22  0  0  1  0  0  0  0  0999 V2000
   18.1033  -12.5997  -18.3386 C   0  0  0  0  0  0  0  0  0  0  0  0
   18.7058  -13.3627  -17.1830 C   0  0  2  0  0  0  0  0  0  0  0  0
   17.8607  -14.5388  -16.8085 C   0  0  0  0  0  0  0  0  0  0  0  0
   18.8862  -12.4717  -15.9891 C   0  0  2  0  0  0  0  0  0  0  0  0
   17.5841  -11.9572  -15.5530 N   0  0  0  0  0  0  0  0  0  0  0  0
   19.7189  -11.2758  -16.3117 C   0  0  0  0  0  0  0  0  0  0  0  0
   20.9190  -11.4818  -16.6085 O   0  0  0  0  0  0  0  0  0  0  0  0
   20.5643   -9.1488  -18.9800 C   0  0  0  0  0  0  0  0  0  0  0  0
   19.8281   -8.2644  -17.9921 C   0  0  1  0  0  0  0  0  0  0  0  0
   18.5107   -8.0719  -18.3276 O   0  0  0  0  0  0  0  0  0  0  0  0
   20.0472   -8.7878  -16.6088 C   0  0  2  0  0  0  0  0  0  0  0  0
   19.2560   -9.9595  -16.3051 N   0  0  0  0  0  0  0  0  0  0  0  0
   19.8596   -7.7304  -15.5852 C   0  0  0  0  0  0  0  0  0  0  0  0
   18.6761   -7.5998  -15.1168 O   0  0  0  0  0  0  0  0  0  0  0  0
   20.8270   -6.8650  -15.0739 N   0  0  0  0  0  0  0  0  0  0  0  0
   22.2210   -6.8021  -15.4502 C   0  0  0  0  0  0  0  0  0  0  0  0
   22.9319   -6.3564  -14.1653 C   0  0  0  0  0  0  0  0  0  0  0  0
   21.9572   -5.2784  -13.6975 C   0  0  0  0  0  0  0  0  0  0  0  0
   20.6232   -5.8717  -14.0413 C   0  0  1  0  0  0  0  0  0  0  0  0
   19.7365   -4.7815  -14.5228 C   0  0  0  0  0  0  0  0  0  0  0  0
   19.4627   -4.7090  -15.8790 O   0  0  0  0  0  0  0  0  0  0  0  0
   19.2392   -3.9437  -13.7580 O   0  0  0  0  0  0  0  0  0  0  0  0
  2  1  1  6
  2  3  1  0
  4  2  1  0
  4  6  1  0
  4  5  1  6
  6  7  2  0
  9  8  1  6
  9 11  1  0
 10  9  1  0
 11 13  1  0
 11 12  1  1
 12  6  1  0
 13 14  2  0
 13 15  1  0
 15 19  1  0
 16 15  1  0
 17 16  1  0
 18 17  1  0
 18 19  1  0
 19 20  1  6
 20 22  2  0
 20 21  1  0
M  END
$$$$
