VTP.pdb
     RDKit          3D

 22 22  0  0  1  0  0  0  0  0999 V2000
   30.1172  -23.1122  -17.9710 C   0  0  0  0  0  0  0  0  0  0  0  0
   30.0500  -24.5514  -17.5182 C   0  0  2  0  0  0  0  0  0  0  0  0
   30.7613  -25.4557  -18.4743 C   0  0  0  0  0  0  0  0  0  0  0  0
   28.6259  -24.9992  -17.3664 C   0  0  2  0  0  0  0  0  0  0  0  0
   27.9788  -24.2390  -16.2923 N   0  0  0  0  0  0  0  0  0  0  0  0
   28.5365  -26.4358  -16.9712 C   0  0  0  0  0  0  0  0  0  0  0  0
   29.0217  -26.7509  -15.8595 O   0  0  0  0  0  0  0  0  0  0  0  0
   25.6571  -28.8889  -18.5213 C   0  0  0  0  0  0  0  0  0  0  0  0
   26.3987  -29.2781  -17.2569 C   0  0  1  0  0  0  0  0  0  0  0  0
   26.2435  -30.6037  -16.9344 O   0  0  0  0  0  0  0  0  0  0  0  0
   27.8201  -28.8270  -17.3647 C   0  0  2  0  0  0  0  0  0  0  0  0
   27.9557  -27.4392  -17.7477 N   0  0  0  0  0  0  0  0  0  0  0  0
   28.6113  -29.7117  -18.2547 C   0  0  0  0  0  0  0  0  0  0  0  0
   28.7401  -29.3253  -19.4676 O   0  0  0  0  0  0  0  0  0  0  0  0
   29.2326  -30.9147  -17.9188 N   0  0  0  0  0  0  0  0  0  0  0  0
   29.3201  -31.5087  -16.6041 C   0  0  0  0  0  0  0  0  0  0  0  0
   30.6562  -32.2633  -16.6266 C   0  0  0  0  0  0  0  0  0  0  0  0
   30.5720  -32.8859  -18.0181 C   0  0  0  0  0  0  0  0  0  0  0  0
   29.9365  -31.7944  -18.8272 C   0  0  1  0  0  0  0  0  0  0  0  0
   28.9977  -32.4164  -19.7960 C   0  0  0  0  0  0  0  0  0  0  0  0
   29.5226  -33.2222  -20.7934 O   0  0  0  0  0  0  0  0  0  0  0  0
   27.7731  -32.2392  -19.7410 O   0  0  0  0  0  0  0  0  0  0  0  0
  2  1  1  6
  2  3  1  0
  4  2  1  0
  4  6  1  0
  4  5  1  1
  6  7  2  0
  9  8  1  6
  9 11  1  0
 10  9  1  0
 11 13  1  0
 11 12  1  6
 12  6  1  0
 13 14  2  0
 13 15  1  0
 15 19  1  0
 16 15  1  0
 17 16  1  0
 18 17  1  0
 18 19  1  0
 19 20  1  6
 20 22  2  0
 20 21  1  0
M  END
$$$$
