HRQ.pdb
     RDKit          3D

 31 31  0  0  1  0  0  0  0  0999 V2000
    7.1195  -16.6626   19.5299 N   0  0  0  0  0  0  0  0  0  0  0  0
    8.1133  -16.0860   20.3879 C   0  0  1  0  0  0  0  0  0  0  0  0
    7.9019  -14.6058   20.6015 C   0  0  0  0  0  0  0  0  0  0  0  0
    8.0425  -13.9282   19.2728 C   0  0  0  0  0  0  0  0  0  0  0  0
    8.2989  -14.4814   18.0404 C   0  0  0  0  0  0  0  0  0  0  0  0
    8.3515  -13.5237   17.0930 N   0  0  0  0  0  0  0  0  0  0  0  0
    8.1271  -12.3644   17.7343 C   0  0  0  0  0  0  0  0  0  0  0  0
    7.9394  -12.5878   19.0447 N   0  0  0  0  0  0  0  0  0  0  0  0
    8.2195  -16.8247   21.6612 C   0  0  0  0  0  0  0  0  0  0  0  0
    7.2395  -17.3406   22.2473 O   0  0  0  0  0  0  0  0  0  0  0  0
   12.5710  -19.8796   19.6218 N   0  0  0  0  0  0  0  0  0  0  0  0
   12.4715  -21.1074   20.3146 C   0  0  0  0  0  0  0  0  0  0  0  0
   12.3175  -22.2213   19.6591 N   0  0  0  0  0  0  0  0  0  0  0  0
   12.5309  -21.1963   21.7264 N   0  0  0  0  0  0  0  0  0  0  0  0
   12.5694  -20.0222   22.5790 C   0  0  0  0  0  0  0  0  0  0  0  0
   11.1938  -19.4087   22.6675 C   0  0  0  0  0  0  0  0  0  0  0  0
   11.1219  -18.1683   23.4892 C   0  0  0  0  0  0  0  0  0  0  0  0
    9.7180  -17.5673   23.5525 C   0  0  2  0  0  0  0  0  0  0  0  0
    9.4999  -16.9605   22.2574 N   0  0  0  0  0  0  0  0  0  0  0  0
    9.8322  -16.4822   24.5832 C   0  0  0  0  0  0  0  0  0  0  0  0
   10.7732  -15.6648   24.4264 O   0  0  0  0  0  0  0  0  0  0  0  0
   12.1994  -23.1210   20.1676 N   0  0  0  0  0  0  0  0  0  0  0  0
    5.8880  -12.4970   26.1044 C   0  0  0  0  0  0  0  0  0  0  0  0
    6.6790  -12.3637   27.2606 O   0  0  0  0  0  0  0  0  0  0  0  0
    6.5461  -11.3428   27.9794 C   0  0  0  0  0  0  0  0  0  0  0  0
    7.6342  -13.3974   27.6252 C   0  0  0  0  0  0  0  0  0  0  0  0
    7.7673  -14.5603   26.7064 C   0  0  1  0  0  0  0  0  0  0  0  0
    9.1159  -15.1963   26.5808 N   0  0  0  0  0  0  0  0  0  0  0  0
    8.9561  -16.3667   25.6632 C   0  0  0  0  0  0  0  0  0  0  0  0
    9.7347  -15.6912   27.8179 O   0  0  0  0  0  0  0  0  0  0  0  0
    9.7627  -17.0239   28.1952 O   0  0  0  0  0  0  0  0  0  0  0  0
  2  1  1  1
  2  9  1  0
  2  3  1  0
  3  4  1  0
  4  8  1  0
  4  5  2  0
  5  6  1  0
  7  6  1  0
  8  7  2  0
  9 10  2  0
 12 14  1  0
 12 11  1  0
 13 12  2  0
 15 16  1  0
 15 14  1  0
 16 17  1  0
 18 17  1  6
 19  9  1  0
 19 18  1  0
 20 28  1  0
 20 18  1  0
 21 20  2  0
 22 23  1  0
 23 24  2  0
 25 23  1  0
 25 26  1  0
 27 26  1  6
 27 29  1  0
 27 28  1  0
 29 30  1  0
 31 29  2  0
M  END
$$$$
