HRQ.pdb
     RDKit          3D

 31 31  0  0  1  0  0  0  0  0999 V2000
   11.0402  -13.5005   19.6643 N   0  0  0  0  0  0  0  0  0  0  0  0
   10.4753  -14.0666   20.8545 C   0  0  1  0  0  0  0  0  0  0  0  0
    8.9793  -13.8734   20.9310 C   0  0  0  0  0  0  0  0  0  0  0  0
    8.4777  -13.6375   19.5393 C   0  0  0  0  0  0  0  0  0  0  0  0
    9.1852  -13.5734   18.3621 C   0  0  0  0  0  0  0  0  0  0  0  0
    8.3573  -13.3403   17.3239 N   0  0  0  0  0  0  0  0  0  0  0  0
    7.1247  -13.2578   17.8526 C   0  0  0  0  0  0  0  0  0  0  0  0
    7.1775  -13.4338   19.1825 N   0  0  0  0  0  0  0  0  0  0  0  0
   10.8649  -15.4811   21.0152 C   0  0  0  0  0  0  0  0  0  0  0  0
   10.4420  -16.2163   21.9375 O   0  0  0  0  0  0  0  0  0  0  0  0
   14.3020  -22.3133   18.3336 N   0  0  0  0  0  0  0  0  0  0  0  0
   14.0325  -21.6922   17.0931 C   0  0  0  0  0  0  0  0  0  0  0  0
   14.6120  -22.1148   16.0069 N   0  0  0  0  0  0  0  0  0  0  0  0
   13.1398  -20.6011   16.9616 N   0  0  0  0  0  0  0  0  0  0  0  0
   12.5713  -19.9183   18.1094 C   0  0  0  0  0  0  0  0  0  0  0  0
   13.5963  -18.9893   18.7117 C   0  0  0  0  0  0  0  0  0  0  0  0
   13.1247  -17.5894   18.9035 C   0  0  0  0  0  0  0  0  0  0  0  0
   12.1867  -17.4274   20.0993 C   0  0  2  0  0  0  0  0  0  0  0  0
   11.7678  -16.0429   20.0756 N   0  0  0  0  0  0  0  0  0  0  0  0
   13.0737  -17.6451   21.2904 C   0  0  0  0  0  0  0  0  0  0  0  0
   13.8978  -16.7312   21.5431 O   0  0  0  0  0  0  0  0  0  0  0  0
   14.4897  -21.6026   15.1098 N   0  0  0  0  0  0  0  0  0  0  0  0
   10.4044  -19.4561   26.3426 C   0  0  0  0  0  0  0  0  0  0  0  0
   11.7424  -19.5517   26.7678 O   0  0  0  0  0  0  0  0  0  0  0  0
   11.9857  -19.8651   27.9592 C   0  0  0  0  0  0  0  0  0  0  0  0
   12.8324  -19.2984   25.8394 C   0  0  0  0  0  0  0  0  0  0  0  0
   12.4772  -19.0814   24.4108 C   0  0  1  0  0  0  0  0  0  0  0  0
   13.5816  -18.7241   23.4665 N   0  0  0  0  0  0  0  0  0  0  0  0
   13.0064  -18.7888   22.0872 C   0  0  0  0  0  0  0  0  0  0  0  0
   14.7743  -19.5815   23.4842 O   0  0  0  0  0  0  0  0  0  0  0  0
   14.8846  -20.7760   22.7912 O   0  0  0  0  0  0  0  0  0  0  0  0
  2  1  1  6
  2  9  1  0
  2  3  1  0
  3  4  1  0
  4  8  1  0
  4  5  2  0
  5  6  1  0
  7  6  1  0
  8  7  2  0
  9 10  2  0
 12 14  1  0
 12 11  1  0
 13 12  2  0
 15 16  1  0
 15 14  1  0
 16 17  1  0
 18 17  1  6
 19  9  1  0
 19 18  1  0
 20 28  1  0
 20 18  1  0
 21 20  2  0
 22 23  1  0
 23 24  2  0
 25 23  1  0
 25 26  1  0
 27 26  1  1
 27 29  1  0
 27 28  1  0
 29 30  1  0
 31 29  2  0
M  END
$$$$
