HRQ.pdb
     RDKit          3D

 31 31  0  0  1  0  0  0  0  0999 V2000
    4.5891  -19.5252   20.5241 N   0  0  0  0  0  0  0  0  0  0  0  0
    4.5399  -18.4217   21.4385 C   0  0  1  0  0  0  0  0  0  0  0  0
    3.7343  -18.7347   22.6771 C   0  0  0  0  0  0  0  0  0  0  0  0
    2.3515  -19.1096   22.2396 C   0  0  0  0  0  0  0  0  0  0  0  0
    1.8603  -19.2757   20.9662 C   0  0  0  0  0  0  0  0  0  0  0  0
    0.5556  -19.6133   21.0019 N   0  0  0  0  0  0  0  0  0  0  0  0
    0.2269  -19.6591   22.3041 C   0  0  0  0  0  0  0  0  0  0  0  0
    1.2933  -19.3593   23.0626 N   0  0  0  0  0  0  0  0  0  0  0  0
    5.8934  -17.9298   21.7617 C   0  0  0  0  0  0  0  0  0  0  0  0
    6.8962  -18.6743   21.8617 O   0  0  0  0  0  0  0  0  0  0  0  0
    9.0752  -12.2964   18.2928 N   0  0  0  0  0  0  0  0  0  0  0  0
    9.5881  -13.0973   19.3382 C   0  0  0  0  0  0  0  0  0  0  0  0
   10.8669  -13.1227   19.5798 N   0  0  0  0  0  0  0  0  0  0  0  0
    8.7629  -13.8994   20.1630 N   0  0  0  0  0  0  0  0  0  0  0  0
    7.3497  -14.0942   19.8952 C   0  0  0  0  0  0  0  0  0  0  0  0
    6.5479  -13.8013   21.1393 C   0  0  0  0  0  0  0  0  0  0  0  0
    7.0782  -14.4332   22.3795 C   0  0  0  0  0  0  0  0  0  0  0  0
    7.3602  -15.9272   22.2223 C   0  0  2  0  0  0  0  0  0  0  0  0
    6.0730  -16.5379   21.9713 N   0  0  0  0  0  0  0  0  0  0  0  0
    7.8419  -16.3519   23.5789 C   0  0  0  0  0  0  0  0  0  0  0  0
    6.9731  -16.4054   24.4847 O   0  0  0  0  0  0  0  0  0  0  0  0
   11.2577  -13.7789   20.2859 N   0  0  0  0  0  0  0  0  0  0  0  0
   12.1710  -20.5908   24.7565 C   0  0  0  0  0  0  0  0  0  0  0  0
   11.8139  -20.1711   26.0513 O   0  0  0  0  0  0  0  0  0  0  0  0
   12.3274  -20.7431   27.0442 C   0  0  0  0  0  0  0  0  0  0  0  0
   10.8676  -19.0835   26.2404 C   0  0  0  0  0  0  0  0  0  0  0  0
   10.3664  -18.3934   25.0211 C   0  0  1  0  0  0  0  0  0  0  0  0
    9.5211  -17.1734   25.2108 N   0  0  0  0  0  0  0  0  0  0  0  0
    9.1736  -16.6737   23.8443 C   0  0  0  0  0  0  0  0  0  0  0  0
   10.1255  -16.0540   25.9456 O   0  0  0  0  0  0  0  0  0  0  0  0
   10.1976  -15.9782   27.3270 O   0  0  0  0  0  0  0  0  0  0  0  0
  2  1  1  6
  2  9  1  0
  2  3  1  0
  3  4  1  0
  4  8  1  0
  4  5  2  0
  5  6  1  0
  7  6  1  0
  8  7  2  0
  9 10  2  0
 12 14  1  0
 12 11  1  0
 13 12  2  0
 15 16  1  0
 15 14  1  0
 16 17  1  0
 18 17  1  1
 19  9  1  0
 19 18  1  0
 20 28  1  0
 20 18  1  0
 21 20  2  0
 22 23  1  0
 23 24  2  0
 25 23  1  0
 25 26  1  0
 27 26  1  1
 27 29  1  0
 27 28  1  0
 29 30  1  0
 31 29  2  0
M  END
$$$$
