HRQ.pdb
     RDKit          3D

 31 31  0  0  1  0  0  0  0  0999 V2000
   12.8967  -16.2503   17.2137 N   0  0  0  0  0  0  0  0  0  0  0  0
   12.1134  -17.1639   17.9935 C   0  0  1  0  0  0  0  0  0  0  0  0
   12.6916  -18.5592   17.9997 C   0  0  0  0  0  0  0  0  0  0  0  0
   14.1795  -18.4374   17.8754 C   0  0  0  0  0  0  0  0  0  0  0  0
   14.9973  -17.3939   18.2400 C   0  0  0  0  0  0  0  0  0  0  0  0
   16.2840  -17.6790   17.9561 N   0  0  0  0  0  0  0  0  0  0  0  0
   16.2732  -18.9071   17.4109 C   0  0  0  0  0  0  0  0  0  0  0  0
   15.0174  -19.3786   17.3543 N   0  0  0  0  0  0  0  0  0  0  0  0
   11.8839  -16.6481   19.3572 C   0  0  0  0  0  0  0  0  0  0  0  0
   12.6958  -15.9135   19.9664 O   0  0  0  0  0  0  0  0  0  0  0  0
    8.0853  -11.8412   18.8900 N   0  0  0  0  0  0  0  0  0  0  0  0
    7.8070  -13.0115   18.1481 C   0  0  0  0  0  0  0  0  0  0  0  0
    7.8934  -13.0024   16.8494 N   0  0  0  0  0  0  0  0  0  0  0  0
    7.4270  -14.2316   18.7577 N   0  0  0  0  0  0  0  0  0  0  0  0
    7.3564  -14.3927   20.1985 C   0  0  0  0  0  0  0  0  0  0  0  0
    8.7264  -14.7090   20.7457 C   0  0  0  0  0  0  0  0  0  0  0  0
    8.8797  -16.0971   21.2641 C   0  0  0  0  0  0  0  0  0  0  0  0
   10.3365  -16.5516   21.3497 C   0  0  2  0  0  0  0  0  0  0  0  0
   10.6788  -17.0011   20.0179 N   0  0  0  0  0  0  0  0  0  0  0  0
   10.2943  -17.7395   22.2663 C   0  0  0  0  0  0  0  0  0  0  0  0
    9.9049  -18.8198   21.7570 O   0  0  0  0  0  0  0  0  0  0  0  0
    7.7380  -13.8743   16.3039 N   0  0  0  0  0  0  0  0  0  0  0  0
   13.2677  -20.7860   28.1552 C   0  0  0  0  0  0  0  0  0  0  0  0
   12.5079  -19.6998   27.6832 O   0  0  0  0  0  0  0  0  0  0  0  0
   12.6334  -18.5787   28.2347 C   0  0  0  0  0  0  0  0  0  0  0  0
   11.5930  -19.8685   26.5657 C   0  0  0  0  0  0  0  0  0  0  0  0
   11.5064  -18.7578   25.5793 C   0  0  1  0  0  0  0  0  0  0  0  0
   10.5562  -18.9175   24.4345 N   0  0  0  0  0  0  0  0  0  0  0  0
   10.6613  -17.6731   23.6110 C   0  0  0  0  0  0  0  0  0  0  0  0
    9.1377  -19.1023   24.7693 O   0  0  0  0  0  0  0  0  0  0  0  0
    8.6103  -20.2640   25.3093 O   0  0  0  0  0  0  0  0  0  0  0  0
  2  1  1  1
  2  9  1  0
  2  3  1  0
  3  4  1  0
  4  8  1  0
  4  5  2  0
  5  6  1  0
  7  6  1  0
  8  7  2  0
  9 10  2  0
 12 14  1  0
 12 11  1  0
 13 12  2  0
 15 16  1  0
 15 14  1  0
 16 17  1  0
 18 17  1  6
 19  9  1  0
 19 18  1  0
 20 28  1  0
 20 18  1  0
 21 20  2  0
 22 23  1  0
 23 24  2  0
 25 23  1  0
 25 26  1  0
 27 26  1  6
 27 29  1  0
 27 28  1  0
 29 30  1  0
 31 29  2  0
M  END
$$$$
