HRQ.pdb
     RDKit          3D

 31 31  0  0  1  0  0  0  0  0999 V2000
    6.3194  -15.9679   19.1185 N   0  0  0  0  0  0  0  0  0  0  0  0
    7.3123  -15.6072   20.0882 C   0  0  1  0  0  0  0  0  0  0  0  0
    7.8563  -14.2158   19.8661 C   0  0  0  0  0  0  0  0  0  0  0  0
    8.2983  -14.1211   18.4379 C   0  0  0  0  0  0  0  0  0  0  0  0
    7.7455  -13.4009   17.4053 C   0  0  0  0  0  0  0  0  0  0  0  0
    8.4454  -13.5892   16.2685 N   0  0  0  0  0  0  0  0  0  0  0  0
    9.4418  -14.4316   16.5897 C   0  0  0  0  0  0  0  0  0  0  0  0
    9.3695  -14.7620   17.8889 N   0  0  0  0  0  0  0  0  0  0  0  0
    6.8156  -15.7999   21.4646 C   0  0  0  0  0  0  0  0  0  0  0  0
    5.8934  -15.1190   21.9706 O   0  0  0  0  0  0  0  0  0  0  0  0
    7.8820  -23.3976   25.0021 N   0  0  0  0  0  0  0  0  0  0  0  0
    8.5361  -22.3916   25.7489 C   0  0  0  0  0  0  0  0  0  0  0  0
    9.4576  -22.7082   26.6120 N   0  0  0  0  0  0  0  0  0  0  0  0
    8.2350  -21.0155   25.6069 N   0  0  0  0  0  0  0  0  0  0  0  0
    6.8843  -20.5336   25.3833 C   0  0  0  0  0  0  0  0  0  0  0  0
    6.8980  -19.0351   25.2078 C   0  0  0  0  0  0  0  0  0  0  0  0
    7.2118  -18.5775   23.8254 C   0  0  0  0  0  0  0  0  0  0  0  0
    7.0377  -17.0710   23.6346 C   0  0  2  0  0  0  0  0  0  0  0  0
    7.4125  -16.8107   22.2617 N   0  0  0  0  0  0  0  0  0  0  0  0
    8.0698  -16.4671   24.5417 C   0  0  0  0  0  0  0  0  0  0  0  0
    9.2664  -16.5875   24.1785 O   0  0  0  0  0  0  0  0  0  0  0  0
    9.9641  -21.9680   27.1388 N   0  0  0  0  0  0  0  0  0  0  0  0
    5.6403  -11.5011   26.5474 C   0  0  0  0  0  0  0  0  0  0  0  0
    6.8093  -11.8746   27.2359 O   0  0  0  0  0  0  0  0  0  0  0  0
    7.4818  -10.9925   27.8245 C   0  0  0  0  0  0  0  0  0  0  0  0
    7.2320  -13.2652   27.2734 C   0  0  0  0  0  0  0  0  0  0  0  0
    8.4379  -13.6349   26.4838 C   0  0  1  0  0  0  0  0  0  0  0  0
    8.8320  -15.0780   26.4513 N   0  0  0  0  0  0  0  0  0  0  0  0
    7.7443  -15.8050   25.7262 C   0  0  0  0  0  0  0  0  0  0  0  0
    9.0165  -15.7456   27.7469 O   0  0  0  0  0  0  0  0  0  0  0  0
    8.2930  -16.8513   28.1629 O   0  0  0  0  0  0  0  0  0  0  0  0
  2  1  1  6
  2  9  1  0
  2  3  1  0
  3  4  1  0
  4  8  1  0
  4  5  2  0
  5  6  1  0
  7  6  1  0
  8  7  2  0
  9 10  2  0
 12 14  1  0
 12 11  1  0
 13 12  2  0
 15 16  1  0
 15 14  1  0
 16 17  1  0
 18 17  1  6
 19  9  1  0
 19 18  1  0
 20 28  1  0
 20 18  1  0
 21 20  2  0
 22 23  1  0
 23 24  2  0
 25 23  1  0
 25 26  1  0
 27 26  1  6
 27 29  1  0
 27 28  1  0
 29 30  1  0
 31 29  2  0
M  END
$$$$
