HRQ.pdb
     RDKit          3D

 31 31  0  0  1  0  0  0  0  0999 V2000
    5.8791  -16.2292   25.6711 N   0  0  0  0  0  0  0  0  0  0  0  0
    6.6070  -15.2019   24.9848 C   0  0  1  0  0  0  0  0  0  0  0  0
    7.5268  -14.4344   25.9046 C   0  0  0  0  0  0  0  0  0  0  0  0
    6.7190  -13.3596   26.5652 C   0  0  0  0  0  0  0  0  0  0  0  0
    5.3916  -13.0444   26.3949 C   0  0  0  0  0  0  0  0  0  0  0  0
    5.0479  -12.0023   27.1782 N   0  0  0  0  0  0  0  0  0  0  0  0
    6.1651  -11.6623   27.8429 C   0  0  0  0  0  0  0  0  0  0  0  0
    7.1794  -12.4668   27.4874 N   0  0  0  0  0  0  0  0  0  0  0  0
    7.3156  -15.7394   23.8071 C   0  0  0  0  0  0  0  0  0  0  0  0
    7.8462  -16.8741   23.7753 O   0  0  0  0  0  0  0  0  0  0  0  0
    7.4496  -13.3874   15.4695 N   0  0  0  0  0  0  0  0  0  0  0  0
    7.9426  -14.6150   15.9668 C   0  0  0  0  0  0  0  0  0  0  0  0
    7.8928  -15.6889   15.2329 N   0  0  0  0  0  0  0  0  0  0  0  0
    8.5047  -14.7465   17.2596 N   0  0  0  0  0  0  0  0  0  0  0  0
    8.6042  -13.6301   18.1819 C   0  0  0  0  0  0  0  0  0  0  0  0
    9.1968  -14.0970   19.4885 C   0  0  0  0  0  0  0  0  0  0  0  0
    8.2797  -13.9879   20.6572 C   0  0  0  0  0  0  0  0  0  0  0  0
    8.2218  -15.2621   21.4995 C   0  0  2  0  0  0  0  0  0  0  0  0
    7.4030  -14.9299   22.6449 N   0  0  0  0  0  0  0  0  0  0  0  0
    9.6374  -15.4612   21.9570 C   0  0  0  0  0  0  0  0  0  0  0  0
   10.0833  -14.6115   22.7678 O   0  0  0  0  0  0  0  0  0  0  0  0
    8.3117  -16.5790   15.5708 N   0  0  0  0  0  0  0  0  0  0  0  0
   12.9852  -19.4597   24.8402 C   0  0  0  0  0  0  0  0  0  0  0  0
   11.6049  -19.1895   24.7996 O   0  0  0  0  0  0  0  0  0  0  0  0
   10.8821  -19.5465   25.7624 C   0  0  0  0  0  0  0  0  0  0  0  0
   11.0206  -18.4988   23.6613 C   0  0  0  0  0  0  0  0  0  0  0  0
   11.9446  -18.0555   22.5826 C   0  0  2  0  0  0  0  0  0  0  0  0
   11.8118  -16.6497   22.0876 N   0  0  0  0  0  0  0  0  0  0  0  0
   10.4334  -16.5212   21.5210 C   0  0  0  0  0  0  0  0  0  0  0  0
   12.7549  -16.2200   21.0464 O   0  0  0  0  0  0  0  0  0  0  0  0
   14.0647  -15.8406   21.2910 O   0  0  0  0  0  0  0  0  0  0  0  0
  2  1  1  1
  2  9  1  0
  2  3  1  0
  3  4  1  0
  4  8  1  0
  4  5  2  0
  5  6  1  0
  7  6  1  0
  8  7  2  0
  9 10  2  0
 12 14  1  0
 12 11  1  0
 13 12  2  0
 15 16  1  0
 15 14  1  0
 16 17  1  0
 18 17  1  6
 19  9  1  0
 19 18  1  0
 20 28  1  0
 20 18  1  0
 21 20  2  0
 22 23  1  0
 23 24  2  0
 25 23  1  0
 25 26  1  0
 27 26  1  1
 27 29  1  0
 27 28  1  0
 29 30  1  0
 31 29  2  0
M  END
$$$$
