HRQ.pdb
     RDKit          3D

 31 31  0  0  1  0  0  0  0  0999 V2000
   11.4326  -14.8882   17.7022 N   0  0  0  0  0  0  0  0  0  0  0  0
   11.8829  -15.1088   19.0456 C   0  0  1  0  0  0  0  0  0  0  0  0
   12.6478  -13.9296   19.5983 C   0  0  0  0  0  0  0  0  0  0  0  0
   14.0698  -14.0543   19.1439 C   0  0  0  0  0  0  0  0  0  0  0  0
   14.6624  -15.0594   18.4165 C   0  0  0  0  0  0  0  0  0  0  0  0
   15.9690  -14.7931   18.2175 N   0  0  0  0  0  0  0  0  0  0  0  0
   16.1969  -13.6154   18.8231 C   0  0  0  0  0  0  0  0  0  0  0  0
   15.0674  -13.1564   19.3852 N   0  0  0  0  0  0  0  0  0  0  0  0
   10.7706  -15.5157   19.9262 C   0  0  0  0  0  0  0  0  0  0  0  0
    9.6057  -15.0652   19.8250 O   0  0  0  0  0  0  0  0  0  0  0  0
   11.0538  -23.7104   20.8791 N   0  0  0  0  0  0  0  0  0  0  0  0
   10.4557  -22.9759   19.8302 C   0  0  0  0  0  0  0  0  0  0  0  0
   10.1142  -23.5699   18.7235 N   0  0  0  0  0  0  0  0  0  0  0  0
   10.1999  -21.5862   19.9183 N   0  0  0  0  0  0  0  0  0  0  0  0
   10.5473  -20.8039   21.0906 C   0  0  0  0  0  0  0  0  0  0  0  0
   10.1162  -19.3712   20.8960 C   0  0  0  0  0  0  0  0  0  0  0  0
   10.4170  -18.4735   22.0460 C   0  0  0  0  0  0  0  0  0  0  0  0
   10.0049  -17.0220   21.8021 C   0  0  2  0  0  0  0  0  0  0  0  0
   11.0304  -16.4691   20.9445 N   0  0  0  0  0  0  0  0  0  0  0  0
   10.1077  -16.3815   23.1556 C   0  0  0  0  0  0  0  0  0  0  0  0
   11.2576  -16.0256   23.5152 O   0  0  0  0  0  0  0  0  0  0  0  0
    9.7306  -23.0218   17.9270 N   0  0  0  0  0  0  0  0  0  0  0  0
    5.7874  -12.8329   25.8957 C   0  0  0  0  0  0  0  0  0  0  0  0
    6.7369  -12.9698   26.9253 O   0  0  0  0  0  0  0  0  0  0  0  0
    6.5795  -12.3281   27.9931 C   0  0  0  0  0  0  0  0  0  0  0  0
    7.8835  -13.8486   26.7606 C   0  0  0  0  0  0  0  0  0  0  0  0
    7.9945  -14.5947   25.4779 C   0  0  1  0  0  0  0  0  0  0  0  0
    9.2101  -15.4420   25.2696 N   0  0  0  0  0  0  0  0  0  0  0  0
    9.0041  -16.1821   23.9861 C   0  0  0  0  0  0  0  0  0  0  0  0
    9.5108  -16.4386   26.3062 O   0  0  0  0  0  0  0  0  0  0  0  0
    9.3288  -17.8031   26.1504 O   0  0  0  0  0  0  0  0  0  0  0  0
  2  1  1  6
  2  9  1  0
  2  3  1  0
  3  4  1  0
  4  8  1  0
  4  5  2  0
  5  6  1  0
  7  6  1  0
  8  7  2  0
  9 10  2  0
 12 14  1  0
 12 11  1  0
 13 12  2  0
 15 16  1  0
 15 14  1  0
 16 17  1  0
 18 17  1  1
 19  9  1  0
 19 18  1  0
 20 28  1  0
 20 18  1  0
 21 20  2  0
 22 23  1  0
 23 24  2  0
 25 23  1  0
 25 26  1  0
 27 26  1  6
 27 29  1  0
 27 28  1  0
 29 30  1  0
 31 29  2  0
M  END
$$$$
