HRQ.pdb
     RDKit          3D

 31 31  0  0  1  0  0  0  0  0999 V2000
    9.5326  -15.4858   19.8929 N   0  0  0  0  0  0  0  0  0  0  0  0
    8.4428  -14.8273   20.5523 C   0  0  1  0  0  0  0  0  0  0  0  0
    7.1735  -14.8531   19.7341 C   0  0  0  0  0  0  0  0  0  0  0  0
    7.5030  -14.3438   18.3643 C   0  0  0  0  0  0  0  0  0  0  0  0
    7.7603  -13.0561   17.9569 C   0  0  0  0  0  0  0  0  0  0  0  0
    8.0120  -13.0195   16.6329 N   0  0  0  0  0  0  0  0  0  0  0  0
    7.9119  -14.2903   16.2079 C   0  0  0  0  0  0  0  0  0  0  0  0
    7.6067  -15.1001   17.2343 N   0  0  0  0  0  0  0  0  0  0  0  0
    8.2398  -15.3559   21.9152 C   0  0  0  0  0  0  0  0  0  0  0  0
    7.2953  -15.0066   22.6609 O   0  0  0  0  0  0  0  0  0  0  0  0
   13.8365  -20.0472   24.4698 N   0  0  0  0  0  0  0  0  0  0  0  0
   12.6261  -20.4440   25.0821 C   0  0  0  0  0  0  0  0  0  0  0  0
   12.5933  -20.7236   26.3530 N   0  0  0  0  0  0  0  0  0  0  0  0
   11.4090  -20.5588   24.3680 N   0  0  0  0  0  0  0  0  0  0  0  0
   11.2441  -20.0389   23.0229 C   0  0  0  0  0  0  0  0  0  0  0  0
   10.0811  -19.0785   22.9844 C   0  0  0  0  0  0  0  0  0  0  0  0
   10.2541  -17.8640   23.8293 C   0  0  0  0  0  0  0  0  0  0  0  0
    9.0787  -16.8914   23.7352 C   0  0  2  0  0  0  0  0  0  0  0  0
    9.1627  -16.3123   22.4122 N   0  0  0  0  0  0  0  0  0  0  0  0
    9.4000  -15.8323   24.7491 C   0  0  0  0  0  0  0  0  0  0  0  0
   10.4305  -15.1482   24.5294 O   0  0  0  0  0  0  0  0  0  0  0  0
   11.7099  -21.0411   26.8010 N   0  0  0  0  0  0  0  0  0  0  0  0
    5.5742  -12.2891   26.1175 C   0  0  0  0  0  0  0  0  0  0  0  0
    6.6526  -11.5845   26.6839 O   0  0  0  0  0  0  0  0  0  0  0  0
    6.6219  -10.3294   26.7030 C   0  0  0  0  0  0  0  0  0  0  0  0
    7.7868  -12.2985   27.2476 C   0  0  0  0  0  0  0  0  0  0  0  0
    7.7547  -13.7852   27.1930 C   0  0  2  0  0  0  0  0  0  0  0  0
    9.0134  -14.4938   26.8024 N   0  0  0  0  0  0  0  0  0  0  0  0
    8.6151  -15.6016   25.8796 C   0  0  0  0  0  0  0  0  0  0  0  0
    9.8037  -15.0906   27.8874 O   0  0  0  0  0  0  0  0  0  0  0  0
   10.6058  -14.3673   28.7550 O   0  0  0  0  0  0  0  0  0  0  0  0
  2  1  1  6
  2  9  1  0
  2  3  1  0
  3  4  1  0
  4  8  1  0
  4  5  2  0
  5  6  1  0
  7  6  1  0
  8  7  2  0
  9 10  2  0
 12 14  1  0
 12 11  1  0
 13 12  2  0
 15 16  1  0
 15 14  1  0
 16 17  1  0
 18 17  1  6
 19  9  1  0
 19 18  1  0
 20 28  1  0
 20 18  1  0
 21 20  2  0
 22 23  1  0
 23 24  2  0
 25 23  1  0
 25 26  1  0
 27 26  1  6
 27 29  1  0
 27 28  1  0
 29 30  1  0
 31 29  2  0
M  END
$$$$
