HRQ.pdb
     RDKit          3D

 31 31  0  0  1  0  0  0  0  0999 V2000
   13.9390  -15.6328   19.1868 N   0  0  0  0  0  0  0  0  0  0  0  0
   13.0431  -16.4459   19.9565 C   0  0  1  0  0  0  0  0  0  0  0  0
   13.6900  -17.7251   20.4322 C   0  0  0  0  0  0  0  0  0  0  0  0
   13.9742  -18.5685   19.2272 C   0  0  0  0  0  0  0  0  0  0  0  0
   14.3210  -18.1753   17.9561 C   0  0  0  0  0  0  0  0  0  0  0  0
   14.4876  -19.2483   17.1572 N   0  0  0  0  0  0  0  0  0  0  0  0
   14.2440  -20.3197   17.9309 C   0  0  0  0  0  0  0  0  0  0  0  0
   13.9339  -19.9306   19.1778 N   0  0  0  0  0  0  0  0  0  0  0  0
   12.4380  -15.6803   21.0638 C   0  0  0  0  0  0  0  0  0  0  0  0
   13.0756  -14.8709   21.7768 O   0  0  0  0  0  0  0  0  0  0  0  0
    8.2702  -14.8691   17.3650 N   0  0  0  0  0  0  0  0  0  0  0  0
    7.7789  -13.6530   17.8914 C   0  0  0  0  0  0  0  0  0  0  0  0
    8.0564  -12.5238   17.3063 N   0  0  0  0  0  0  0  0  0  0  0  0
    6.9769  -13.5921   19.0566 N   0  0  0  0  0  0  0  0  0  0  0  0
    7.1708  -14.4878   20.1822 C   0  0  0  0  0  0  0  0  0  0  0  0
    8.5678  -14.3276   20.7290 C   0  0  0  0  0  0  0  0  0  0  0  0
    8.8685  -15.1770   21.9152 C   0  0  0  0  0  0  0  0  0  0  0  0
   10.3348  -15.1188   22.3426 C   0  0  2  0  0  0  0  0  0  0  0  0
   11.0588  -15.8684   21.3392 N   0  0  0  0  0  0  0  0  0  0  0  0
   10.3682  -15.8812   23.6351 C   0  0  0  0  0  0  0  0  0  0  0  0
   10.4665  -17.1300   23.5403 O   0  0  0  0  0  0  0  0  0  0  0  0
    7.7675  -11.6217   17.7360 N   0  0  0  0  0  0  0  0  0  0  0  0
   10.9827  -13.5012   29.5315 C   0  0  0  0  0  0  0  0  0  0  0  0
   10.8961  -14.8901   29.7403 O   0  0  0  0  0  0  0  0  0  0  0  0
   11.0131  -15.3429   30.9057 C   0  0  0  0  0  0  0  0  0  0  0  0
   10.6665  -15.7921   28.6233 C   0  0  0  0  0  0  0  0  0  0  0  0
   10.6281  -15.1965   27.2602 C   0  0  1  0  0  0  0  0  0  0  0  0
   10.3960  -16.1187   26.1050 N   0  0  0  0  0  0  0  0  0  0  0  0
   10.2954  -15.2614   24.8833 C   0  0  0  0  0  0  0  0  0  0  0  0
    9.1888  -16.9543   26.1541 O   0  0  0  0  0  0  0  0  0  0  0  0
    9.1503  -18.2364   26.6775 O   0  0  0  0  0  0  0  0  0  0  0  0
  2  1  1  1
  2  9  1  0
  2  3  1  0
  3  4  1  0
  4  8  1  0
  4  5  2  0
  5  6  1  0
  7  6  1  0
  8  7  2  0
  9 10  2  0
 12 14  1  0
 12 11  1  0
 13 12  2  0
 15 16  1  0
 15 14  1  0
 16 17  1  0
 18 17  1  6
 19  9  1  0
 19 18  1  0
 20 28  1  0
 20 18  1  0
 21 20  2  0
 22 23  1  0
 23 24  2  0
 25 23  1  0
 25 26  1  0
 27 26  1  6
 27 29  1  0
 27 28  1  0
 29 30  1  0
 31 29  2  0
M  END
$$$$
