HRQ.pdb
     RDKit          3D

 31 31  0  0  1  0  0  0  0  0999 V2000
   11.1346  -13.1669   19.0567 N   0  0  0  0  0  0  0  0  0  0  0  0
   10.8647  -14.5373   19.3814 C   0  0  1  0  0  0  0  0  0  0  0  0
    9.9288  -15.1906   18.3922 C   0  0  0  0  0  0  0  0  0  0  0  0
    8.6992  -14.3403   18.2969 C   0  0  0  0  0  0  0  0  0  0  0  0
    8.4407  -13.1216   18.8788 C   0  0  0  0  0  0  0  0  0  0  0  0
    7.2085  -12.6888   18.5443 N   0  0  0  0  0  0  0  0  0  0  0  0
    6.6917  -13.6406   17.7489 C   0  0  0  0  0  0  0  0  0  0  0  0
    7.5730  -14.6406   17.5890 N   0  0  0  0  0  0  0  0  0  0  0  0
   12.1130  -15.3042   19.5601 C   0  0  0  0  0  0  0  0  0  0  0  0
   12.1426  -16.5239   19.8453 O   0  0  0  0  0  0  0  0  0  0  0  0
   14.7489  -13.9705   14.9423 N   0  0  0  0  0  0  0  0  0  0  0  0
   16.0913  -14.2073   14.5689 C   0  0  0  0  0  0  0  0  0  0  0  0
   16.3827  -14.5528   13.3482 N   0  0  0  0  0  0  0  0  0  0  0  0
   17.1708  -14.0866   15.4770 N   0  0  0  0  0  0  0  0  0  0  0  0
   16.9802  -13.7165   16.8675 C   0  0  0  0  0  0  0  0  0  0  0  0
   15.9442  -14.6137   17.4985 C   0  0  0  0  0  0  0  0  0  0  0  0
   15.6470  -14.3065   18.9254 C   0  0  0  0  0  0  0  0  0  0  0  0
   14.6374  -15.2680   19.5518 C   0  0  2  0  0  0  0  0  0  0  0  0
   13.3495  -14.6266   19.4010 N   0  0  0  0  0  0  0  0  0  0  0  0
   15.0036  -15.2836   21.0073 C   0  0  0  0  0  0  0  0  0  0  0  0
   14.6469  -14.2844   21.6801 O   0  0  0  0  0  0  0  0  0  0  0  0
   17.3713  -14.5655   13.0250 N   0  0  0  0  0  0  0  0  0  0  0  0
   12.3340  -18.7154   24.4359 C   0  0  0  0  0  0  0  0  0  0  0  0
   13.3246  -18.3594   25.3698 O   0  0  0  0  0  0  0  0  0  0  0  0
   13.2361  -18.7834   26.5484 C   0  0  0  0  0  0  0  0  0  0  0  0
   14.4424  -17.5171   24.9759 C   0  0  0  0  0  0  0  0  0  0  0  0
   14.5240  -17.1137   23.5460 C   0  0  1  0  0  0  0  0  0  0  0  0
   15.7551  -16.3916   23.0966 N   0  0  0  0  0  0  0  0  0  0  0  0
   15.7004  -16.3359   21.6028 C   0  0  0  0  0  0  0  0  0  0  0  0
   17.0465  -16.9870   23.4655 O   0  0  0  0  0  0  0  0  0  0  0  0
   17.6025  -16.9166   24.7325 O   0  0  0  0  0  0  0  0  0  0  0  0
  2  1  1  6
  2  9  1  0
  2  3  1  0
  3  4  1  0
  4  8  1  0
  4  5  2  0
  5  6  1  0
  7  6  1  0
  8  7  2  0
  9 10  2  0
 12 14  1  0
 12 11  1  0
 13 12  2  0
 15 16  1  0
 15 14  1  0
 16 17  1  0
 18 17  1  6
 19  9  1  0
 19 18  1  0
 20 28  1  0
 20 18  1  0
 21 20  2  0
 22 23  1  0
 23 24  2  0
 25 23  1  0
 25 26  1  0
 27 26  1  1
 27 29  1  0
 27 28  1  0
 29 30  1  0
 31 29  2  0
M  END
$$$$
