HRQ.pdb
     RDKit          3D

 31 31  0  0  1  0  0  0  0  0999 V2000
    3.2000  -20.7769   21.1645 N   0  0  0  0  0  0  0  0  0  0  0  0
    3.2859  -19.5538   21.9081 C   0  0  1  0  0  0  0  0  0  0  0  0
    2.4272  -19.5728   23.1504 C   0  0  0  0  0  0  0  0  0  0  0  0
    1.0143  -19.8311   22.7248 C   0  0  0  0  0  0  0  0  0  0  0  0
    0.5152  -20.0485   21.4622 C   0  0  0  0  0  0  0  0  0  0  0  0
   -0.8187  -20.2389   21.5063 N   0  0  0  0  0  0  0  0  0  0  0  0
   -1.1579  -20.1403   22.8028 C   0  0  0  0  0  0  0  0  0  0  0  0
   -0.0696  -19.8955   23.5498 N   0  0  0  0  0  0  0  0  0  0  0  0
    4.6882  -19.2008   22.2034 C   0  0  0  0  0  0  0  0  0  0  0  0
    5.5993  -20.0476   22.3544 O   0  0  0  0  0  0  0  0  0  0  0  0
    8.5111  -11.6217   19.4407 N   0  0  0  0  0  0  0  0  0  0  0  0
    9.3964  -12.7079   19.6246 C   0  0  0  0  0  0  0  0  0  0  0  0
   10.5689  -12.7031   19.0593 N   0  0  0  0  0  0  0  0  0  0  0  0
    9.0688  -13.8370   20.4135 N   0  0  0  0  0  0  0  0  0  0  0  0
    7.7720  -13.9941   21.0464 C   0  0  0  0  0  0  0  0  0  0  0  0
    7.7197  -15.3077   21.7868 C   0  0  0  0  0  0  0  0  0  0  0  0
    6.3769  -15.9521   21.8083 C   0  0  0  0  0  0  0  0  0  0  0  0
    6.3874  -17.3476   22.4318 C   0  0  2  0  0  0  0  0  0  0  0  0
    5.0272  -17.8282   22.3237 N   0  0  0  0  0  0  0  0  0  0  0  0
    6.6997  -17.0979   23.8785 C   0  0  0  0  0  0  0  0  0  0  0  0
    5.8431  -16.4468   24.5268 O   0  0  0  0  0  0  0  0  0  0  0  0
   11.2453  -13.4723   19.2403 N   0  0  0  0  0  0  0  0  0  0  0  0
    8.5982  -21.1475   27.6356 C   0  0  0  0  0  0  0  0  0  0  0  0
    7.3937  -20.4315   27.7660 O   0  0  0  0  0  0  0  0  0  0  0  0
    6.5135  -20.8524   28.5566 C   0  0  0  0  0  0  0  0  0  0  0  0
    7.1711  -19.2149   27.0017 C   0  0  0  0  0  0  0  0  0  0  0  0
    8.3594  -18.3740   26.6934 C   0  0  2  0  0  0  0  0  0  0  0  0
    8.1399  -17.1251   25.8991 N   0  0  0  0  0  0  0  0  0  0  0  0
    7.8681  -17.5523   24.4916 C   0  0  0  0  0  0  0  0  0  0  0  0
    9.2475  -16.1608   25.8577 O   0  0  0  0  0  0  0  0  0  0  0  0
    9.6407  -15.3804   26.9327 O   0  0  0  0  0  0  0  0  0  0  0  0
  2  1  1  1
  2  9  1  0
  2  3  1  0
  3  4  1  0
  4  8  1  0
  4  5  2  0
  5  6  1  0
  7  6  1  0
  8  7  2  0
  9 10  2  0
 12 14  1  0
 12 11  1  0
 13 12  2  0
 15 16  1  0
 15 14  1  0
 16 17  1  0
 18 17  1  6
 19  9  1  0
 19 18  1  0
 20 28  1  0
 20 18  1  0
 21 20  2  0
 22 23  1  0
 23 24  2  0
 25 23  1  0
 25 26  1  0
 27 26  1  1
 27 29  1  0
 27 28  1  0
 29 30  1  0
 31 29  2  0
M  END
$$$$
