HRQ.pdb
     RDKit          3D

 31 31  0  0  1  0  0  0  0  0999 V2000
    8.2095  -16.0731   19.5917 N   0  0  0  0  0  0  0  0  0  0  0  0
    7.9655  -15.0794   20.5963 C   0  0  1  0  0  0  0  0  0  0  0  0
    7.0541  -13.9782   20.1085 C   0  0  0  0  0  0  0  0  0  0  0  0
    7.3846  -13.7151   18.6713 C   0  0  0  0  0  0  0  0  0  0  0  0
    7.4165  -12.5190   17.9940 C   0  0  0  0  0  0  0  0  0  0  0  0
    7.7597  -12.7135   16.7049 N   0  0  0  0  0  0  0  0  0  0  0  0
    7.9438  -14.0380   16.5729 C   0  0  0  0  0  0  0  0  0  0  0  0
    7.7228  -14.6561   17.7441 N   0  0  0  0  0  0  0  0  0  0  0  0
    7.4833  -15.6892   21.8508 C   0  0  0  0  0  0  0  0  0  0  0  0
    6.8073  -15.0723   22.7066 O   0  0  0  0  0  0  0  0  0  0  0  0
    8.2600  -22.3044   25.5175 N   0  0  0  0  0  0  0  0  0  0  0  0
    6.9325  -22.3413   26.0011 C   0  0  0  0  0  0  0  0  0  0  0  0
    6.5982  -23.1782   26.9403 N   0  0  0  0  0  0  0  0  0  0  0  0
    5.9136  -21.4926   25.5050 N   0  0  0  0  0  0  0  0  0  0  0  0
    6.0561  -20.7466   24.2680 C   0  0  0  0  0  0  0  0  0  0  0  0
    7.4154  -20.0937   24.2178 C   0  0  0  0  0  0  0  0  0  0  0  0
    7.6392  -19.2224   23.0306 C   0  0  0  0  0  0  0  0  0  0  0  0
    7.4492  -17.7355   23.3292 C   0  0  2  0  0  0  0  0  0  0  0  0
    7.8004  -17.0487   22.1054 N   0  0  0  0  0  0  0  0  0  0  0  0
    8.4901  -17.4367   24.3685 C   0  0  0  0  0  0  0  0  0  0  0  0
    9.6257  -17.1130   23.9396 O   0  0  0  0  0  0  0  0  0  0  0  0
    5.6324  -23.1799   27.3265 N   0  0  0  0  0  0  0  0  0  0  0  0
    6.3286  -12.9106   26.3861 C   0  0  0  0  0  0  0  0  0  0  0  0
    7.4046  -12.9261   27.2928 O   0  0  0  0  0  0  0  0  0  0  0  0
    7.6110  -11.9203   28.0157 C   0  0  0  0  0  0  0  0  0  0  0  0
    8.2643  -14.0938   27.3989 C   0  0  0  0  0  0  0  0  0  0  0  0
    7.9382  -15.2634   26.5388 C   0  0  1  0  0  0  0  0  0  0  0  0
    8.8331  -16.4597   26.6236 N   0  0  0  0  0  0  0  0  0  0  0  0
    8.2359  -17.5076   25.7388 C   0  0  0  0  0  0  0  0  0  0  0  0
    9.0154  -17.0601   27.9519 O   0  0  0  0  0  0  0  0  0  0  0  0
   10.0126  -16.6944   28.8413 O   0  0  0  0  0  0  0  0  0  0  0  0
  2  1  1  6
  2  9  1  0
  2  3  1  0
  3  4  1  0
  4  8  1  0
  4  5  2  0
  5  6  1  0
  7  6  1  0
  8  7  2  0
  9 10  2  0
 12 14  1  0
 12 11  1  0
 13 12  2  0
 15 16  1  0
 15 14  1  0
 16 17  1  0
 18 17  1  6
 19  9  1  0
 19 18  1  0
 20 28  1  0
 20 18  1  0
 21 20  2  0
 22 23  1  0
 23 24  2  0
 25 23  1  0
 25 26  1  0
 27 26  1  6
 27 29  1  0
 27 28  1  0
 29 30  1  0
 31 29  2  0
M  END
$$$$
