RPQ.pdb
     RDKit          3D

 28 28  0  0  1  0  0  0  0  0999 V2000
   24.8811  -25.2729  -14.5234 N   0  0  0  0  0  0  0  0  0  0  0  0
   23.5747  -25.4948  -15.0226 C   0  0  0  0  0  0  0  0  0  0  0  0
   23.3538  -26.3883  -15.9419 N   0  0  0  0  0  0  0  0  0  0  0  0
   22.4463  -24.7569  -14.5439 N   0  0  0  0  0  0  0  0  0  0  0  0
   22.5707  -23.8939  -13.3580 C   0  0  0  0  0  0  0  0  0  0  0  0
   23.1172  -22.5888  -13.8141 C   0  0  0  0  0  0  0  0  0  0  0  0
   23.3426  -21.5546  -12.7777 C   0  0  0  0  0  0  0  0  0  0  0  0
   24.7318  -21.4935  -12.1966 C   0  0  2  0  0  0  0  0  0  0  0  0
   24.7787  -21.5783  -10.7839 N   0  0  0  0  0  0  0  0  0  0  0  0
   25.5242  -20.3826  -12.7577 C   0  0  0  0  0  0  0  0  0  0  0  0
   25.4693  -19.2792  -12.0913 O   0  0  0  0  0  0  0  0  0  0  0  0
   22.3754  -26.5552  -16.2646 N   0  0  0  0  0  0  0  0  0  0  0  0
   26.3169  -20.4457  -13.9456 C   0  0  0  0  0  0  0  0  0  0  0  0
   26.5782  -21.5422  -14.8246 C   0  0  0  0  0  0  0  0  0  0  0  0
   27.9722  -21.3224  -15.3479 C   0  0  0  0  0  0  0  0  0  0  0  0
   28.2559  -19.8874  -15.0480 C   0  0  2  0  0  0  0  0  0  0  0  0
   27.0231  -19.3030  -14.4633 C   0  0  0  0  0  0  0  0  0  0  0  0
   26.2317  -18.4769  -15.3983 O   0  0  0  0  0  0  0  0  0  0  0  0
   25.3360  -19.0450  -16.0744 N   0  0  0  0  0  0  0  0  0  0  0  0
   24.2333  -12.7606  -14.2335 C   0  0  0  0  0  0  0  0  0  0  0  0
   23.7019  -12.9904  -15.5143 O   0  0  0  0  0  0  0  0  0  0  0  0
   22.8972  -12.1884  -16.0176 C   0  0  0  0  0  0  0  0  0  0  0  0
   24.0925  -14.2007  -16.2962 C   0  0  0  0  0  0  0  0  0  0  0  0
   25.1014  -15.0286  -15.5495 C   0  0  2  0  0  0  0  0  0  0  0  0
   25.4588  -16.2409  -16.3001 N   0  0  0  0  0  0  0  0  0  0  0  0
   26.4125  -17.0915  -15.5850 C   0  0  0  0  0  0  0  0  0  0  0  0
   25.8953  -15.9832  -17.6724 O   0  0  0  0  0  0  0  0  0  0  0  0
   24.9529  -15.9017  -18.6834 O   0  0  0  0  0  0  0  0  0  0  0  0
  2  1  1  0
  3  2  2  0
  4  2  1  0
  5  4  1  0
  6  5  1  0
  7  6  1  0
  8  9  1  1
  8  7  1  0
 10  8  1  0
 11 10  2  0
 12 10  1  0
 12 16  1  0
 13 14  1  0
 13 12  1  0
 14 15  1  0
 15 16  1  0
 16 17  1  6
 17 18  2  0
 20 21  2  0
 20 19  1  0
 22 20  1  0
 23 22  1  0
 24 23  1  1
 24 26  1  0
 25 17  1  0
 25 24  1  0
 26 28  2  0
 26 27  1  0
M  END
$$$$
