RPQ.pdb
     RDKit          3D

 28 28  0  0  1  0  0  0  0  0999 V2000
   26.7727  -21.1172   -9.4253 N   0  0  0  0  0  0  0  0  0  0  0  0
   25.3576  -21.0950   -9.3795 C   0  0  0  0  0  0  0  0  0  0  0  0
   24.7218  -21.3175   -8.2666 N   0  0  0  0  0  0  0  0  0  0  0  0
   24.5671  -20.8274  -10.5416 N   0  0  0  0  0  0  0  0  0  0  0  0
   24.8792  -21.4847  -11.8211 C   0  0  0  0  0  0  0  0  0  0  0  0
   25.8919  -20.6465  -12.5152 C   0  0  0  0  0  0  0  0  0  0  0  0
   25.6323  -20.3159  -13.9358 C   0  0  0  0  0  0  0  0  0  0  0  0
   24.4725  -19.3898  -14.1971 C   0  0  2  0  0  0  0  0  0  0  0  0
   23.2025  -20.0136  -14.1429 N   0  0  0  0  0  0  0  0  0  0  0  0
   24.6813  -18.5571  -15.3972 C   0  0  0  0  0  0  0  0  0  0  0  0
   23.9310  -18.8504  -16.4049 O   0  0  0  0  0  0  0  0  0  0  0  0
   23.6791  -21.2753   -8.2592 N   0  0  0  0  0  0  0  0  0  0  0  0
   25.6246  -17.4892  -15.5125 C   0  0  0  0  0  0  0  0  0  0  0  0
   26.5726  -16.9879  -14.5673 C   0  0  0  0  0  0  0  0  0  0  0  0
   26.6843  -15.5128  -14.8448 C   0  0  0  0  0  0  0  0  0  0  0  0
   26.0971  -15.3491  -16.2079 C   0  0  1  0  0  0  0  0  0  0  0  0
   25.7573  -16.7034  -16.7114 C   0  0  0  0  0  0  0  0  0  0  0  0
   26.7176  -17.2534  -17.6904 O   0  0  0  0  0  0  0  0  0  0  0  0
   27.6347  -18.0000  -17.2619 N   0  0  0  0  0  0  0  0  0  0  0  0
   27.2871  -21.9456  -21.1699 C   0  0  0  0  0  0  0  0  0  0  0  0
   26.1682  -21.4497  -20.4785 O   0  0  0  0  0  0  0  0  0  0  0  0
   25.6638  -22.0978  -19.5460 C   0  0  0  0  0  0  0  0  0  0  0  0
   25.5633  -20.1361  -20.8487 C   0  0  0  0  0  0  0  0  0  0  0  0
   25.6978  -19.1405  -19.7300 C   0  0  1  0  0  0  0  0  0  0  0  0
   26.6169  -18.0515  -20.0911 N   0  0  0  0  0  0  0  0  0  0  0  0
   26.6760  -16.9978  -19.0760 C   0  0  0  0  0  0  0  0  0  0  0  0
   26.3869  -17.4976  -21.4254 O   0  0  0  0  0  0  0  0  0  0  0  0
   27.2338  -17.8465  -22.4635 O   0  0  0  0  0  0  0  0  0  0  0  0
  2  1  1  0
  3  2  2  0
  4  2  1  0
  5  4  1  0
  6  5  1  0
  7  6  1  0
  8  9  1  6
  8  7  1  0
 10  8  1  0
 11 10  2  0
 12 10  1  0
 12 16  1  0
 13 14  1  0
 13 12  1  0
 14 15  1  0
 15 16  1  0
 16 17  1  6
 17 18  2  0
 20 21  2  0
 20 19  1  0
 22 20  1  0
 23 22  1  0
 24 23  1  1
 24 26  1  0
 25 17  1  0
 25 24  1  0
 26 28  2  0
 26 27  1  0
M  END
$$$$
