RPQ.pdb
     RDKit          3D

 28 28  0  0  1  0  0  0  0  0999 V2000
   18.4572  -24.8002  -13.2087 N   0  0  0  0  0  0  0  0  0  0  0  0
   18.4015  -23.5393  -12.5667 C   0  0  0  0  0  0  0  0  0  0  0  0
   17.5211  -23.3004  -11.6392 N   0  0  0  0  0  0  0  0  0  0  0  0
   19.3023  -22.4794  -12.9013 N   0  0  0  0  0  0  0  0  0  0  0  0
   20.3761  -22.6982  -13.8841 C   0  0  0  0  0  0  0  0  0  0  0  0
   21.6233  -22.9757  -13.1242 C   0  0  0  0  0  0  0  0  0  0  0  0
   22.8212  -22.1819  -13.4842 C   0  0  0  0  0  0  0  0  0  0  0  0
   23.1147  -20.9935  -12.6050 C   0  0  2  0  0  0  0  0  0  0  0  0
   21.9636  -20.3332  -12.1110 N   0  0  0  0  0  0  0  0  0  0  0  0
   24.1150  -20.0889  -13.2034 C   0  0  0  0  0  0  0  0  0  0  0  0
   23.6631  -18.9367  -13.5679 O   0  0  0  0  0  0  0  0  0  0  0  0
   17.4653  -22.3442  -11.2249 N   0  0  0  0  0  0  0  0  0  0  0  0
   25.4978  -20.3938  -13.3993 C   0  0  0  0  0  0  0  0  0  0  0  0
   26.2540  -21.5437  -13.0132 C   0  0  0  0  0  0  0  0  0  0  0  0
   27.6437  -21.0413  -12.7280 C   0  0  0  0  0  0  0  0  0  0  0  0
   27.6884  -19.6957  -13.3739 C   0  0  1  0  0  0  0  0  0  0  0  0
   26.3968  -19.4970  -14.0777 C   0  0  0  0  0  0  0  0  0  0  0  0
   26.4576  -19.6955  -15.5406 O   0  0  0  0  0  0  0  0  0  0  0  0
   26.1860  -20.8373  -15.9929 N   0  0  0  0  0  0  0  0  0  0  0  0
   22.1999  -18.9694  -18.6338 C   0  0  0  0  0  0  0  0  0  0  0  0
   22.6648  -17.8054  -17.9975 O   0  0  0  0  0  0  0  0  0  0  0  0
   21.8935  -16.8575  -17.7726 C   0  0  0  0  0  0  0  0  0  0  0  0
   24.0925  -17.6834  -17.5788 C   0  0  0  0  0  0  0  0  0  0  0  0
   24.8781  -18.9072  -17.9612 C   0  0  1  0  0  0  0  0  0  0  0  0
   26.3246  -18.6697  -17.8515 N   0  0  0  0  0  0  0  0  0  0  0  0
   26.8003  -18.6897  -16.4667 C   0  0  0  0  0  0  0  0  0  0  0  0
   26.7863  -17.4755  -18.5592 O   0  0  0  0  0  0  0  0  0  0  0  0
   27.2629  -16.3959  -17.8353 O   0  0  0  0  0  0  0  0  0  0  0  0
  2  1  1  0
  3  2  2  0
  4  2  1  0
  5  4  1  0
  6  5  1  0
  7  6  1  0
  8  9  1  6
  8  7  1  0
 10  8  1  0
 11 10  2  0
 12 10  1  0
 12 16  1  0
 13 14  1  0
 13 12  1  0
 14 15  1  0
 15 16  1  0
 16 17  1  6
 17 18  2  0
 20 21  2  0
 20 19  1  0
 22 20  1  0
 23 22  1  0
 24 23  1  6
 24 26  1  0
 25 17  1  0
 25 24  1  0
 26 28  2  0
 26 27  1  0
M  END
$$$$
