RPQ.pdb
     RDKit          3D

 28 28  0  0  1  0  0  0  0  0999 V2000
   25.2958  -22.0037  -10.2629 N   0  0  0  0  0  0  0  0  0  0  0  0
   26.0061  -20.7985  -10.0439 C   0  0  0  0  0  0  0  0  0  0  0  0
   25.6418  -19.9688   -9.1105 N   0  0  0  0  0  0  0  0  0  0  0  0
   27.1477  -20.4398  -10.8281 N   0  0  0  0  0  0  0  0  0  0  0  0
   27.4403  -21.1498  -12.0839 C   0  0  0  0  0  0  0  0  0  0  0  0
   26.9185  -20.3149  -13.1977 C   0  0  0  0  0  0  0  0  0  0  0  0
   26.9740  -20.8979  -14.5585 C   0  0  0  0  0  0  0  0  0  0  0  0
   25.9156  -21.9207  -14.8826 C   0  0  2  0  0  0  0  0  0  0  0  0
   26.3793  -23.0204  -15.6446 N   0  0  0  0  0  0  0  0  0  0  0  0
   24.6835  -21.3028  -15.4091 C   0  0  0  0  0  0  0  0  0  0  0  0
   24.6648  -21.1198  -16.6861 O   0  0  0  0  0  0  0  0  0  0  0  0
   26.1937  -19.0954   -8.9624 N   0  0  0  0  0  0  0  0  0  0  0  0
   23.5537  -20.9078  -14.6274 C   0  0  0  0  0  0  0  0  0  0  0  0
   23.4184  -20.7503  -13.2131 C   0  0  0  0  0  0  0  0  0  0  0  0
   21.9936  -21.1171  -12.8962 C   0  0  0  0  0  0  0  0  0  0  0  0
   21.2968  -21.0608  -14.2157 C   0  0  2  0  0  0  0  0  0  0  0  0
   22.2816  -20.5845  -15.2188 C   0  0  0  0  0  0  0  0  0  0  0  0
   22.1352  -19.1636  -15.5966 O   0  0  0  0  0  0  0  0  0  0  0  0
   22.6226  -18.2954  -14.8279 N   0  0  0  0  0  0  0  0  0  0  0  0
   22.0482  -16.6118  -21.3090 C   0  0  0  0  0  0  0  0  0  0  0  0
   22.0975  -15.5097  -20.4378 O   0  0  0  0  0  0  0  0  0  0  0  0
   22.3303  -14.3698  -20.8739 C   0  0  0  0  0  0  0  0  0  0  0  0
   21.8711  -15.6850  -18.9727 C   0  0  0  0  0  0  0  0  0  0  0  0
   21.6964  -17.1360  -18.6189 C   0  0  2  0  0  0  0  0  0  0  0  0
   21.4519  -17.3097  -17.1798 N   0  0  0  0  0  0  0  0  0  0  0  0
   21.4848  -18.7131  -16.7632 C   0  0  0  0  0  0  0  0  0  0  0  0
   20.2472  -16.6354  -16.6960 O   0  0  0  0  0  0  0  0  0  0  0  0
   20.2798  -15.2728  -16.4532 O   0  0  0  0  0  0  0  0  0  0  0  0
  2  1  1  0
  3  2  2  0
  4  2  1  0
  5  4  1  0
  6  5  1  0
  7  6  1  0
  8  9  1  6
  8  7  1  0
 10  8  1  0
 11 10  2  0
 12 10  1  0
 12 16  1  0
 13 14  1  0
 13 12  1  0
 14 15  1  0
 15 16  1  0
 16 17  1  1
 17 18  2  0
 20 21  2  0
 20 19  1  0
 22 20  1  0
 23 22  1  0
 24 23  1  1
 24 26  1  0
 25 17  1  0
 25 24  1  0
 26 28  2  0
 26 27  1  0
M  END
$$$$
