RPQ.pdb
     RDKit          3D

 28 28  0  0  1  0  0  0  0  0999 V2000
   25.5058  -17.2176  -21.3187 N   0  0  0  0  0  0  0  0  0  0  0  0
   24.8998  -18.4566  -21.6391 C   0  0  0  0  0  0  0  0  0  0  0  0
   23.9371  -18.5234  -22.5116 N   0  0  0  0  0  0  0  0  0  0  0  0
   25.3137  -19.6820  -21.0276 N   0  0  0  0  0  0  0  0  0  0  0  0
   26.7425  -19.9565  -20.8046 C   0  0  0  0  0  0  0  0  0  0  0  0
   27.2216  -19.0021  -19.7703 C   0  0  0  0  0  0  0  0  0  0  0  0
   27.0607  -19.4076  -18.3546 C   0  0  0  0  0  0  0  0  0  0  0  0
   27.9874  -20.4922  -17.8687 C   0  0  2  0  0  0  0  0  0  0  0  0
   28.3273  -21.4540  -18.8507 N   0  0  0  0  0  0  0  0  0  0  0  0
   27.5442  -21.0738  -16.5872 C   0  0  0  0  0  0  0  0  0  0  0  0
   26.9761  -22.2287  -16.6770 O   0  0  0  0  0  0  0  0  0  0  0  0
   23.5128  -19.4513  -22.7311 N   0  0  0  0  0  0  0  0  0  0  0  0
   27.6957  -20.4648  -15.3028 C   0  0  0  0  0  0  0  0  0  0  0  0
   28.1522  -19.1574  -14.9484 C   0  0  0  0  0  0  0  0  0  0  0  0
   28.8480  -19.3136  -13.6230 C   0  0  0  0  0  0  0  0  0  0  0  0
   28.3766  -20.6356  -13.1133 C   0  0  1  0  0  0  0  0  0  0  0  0
   27.3766  -21.1541  -14.0798 C   0  0  0  0  0  0  0  0  0  0  0  0
   25.9711  -21.0021  -13.6503 O   0  0  0  0  0  0  0  0  0  0  0  0
   25.4235  -19.8809  -13.8093 N   0  0  0  0  0  0  0  0  0  0  0  0
   23.5922  -20.7292   -8.4807 C   0  0  0  0  0  0  0  0  0  0  0  0
   22.3952  -20.9865   -9.1713 O   0  0  0  0  0  0  0  0  0  0  0  0
   21.3002  -20.9026   -8.5901 C   0  0  0  0  0  0  0  0  0  0  0  0
   22.4140  -21.3651  -10.6152 C   0  0  0  0  0  0  0  0  0  0  0  0
   23.8225  -21.4958  -11.1251 C   0  0  2  0  0  0  0  0  0  0  0  0
   23.8440  -21.8318  -12.5560 N   0  0  0  0  0  0  0  0  0  0  0  0
   25.1997  -22.0307  -13.0727 C   0  0  0  0  0  0  0  0  0  0  0  0
   23.0814  -20.9074  -13.3951 O   0  0  0  0  0  0  0  0  0  0  0  0
   23.5048  -19.5955  -13.5229 O   0  0  0  0  0  0  0  0  0  0  0  0
  2  1  1  0
  3  2  2  0
  4  2  1  0
  5  4  1  0
  6  5  1  0
  7  6  1  0
  8  9  1  6
  8  7  1  0
 10  8  1  0
 11 10  2  0
 12 10  1  0
 12 16  1  0
 13 14  1  0
 13 12  1  0
 14 15  1  0
 15 16  1  0
 16 17  1  1
 17 18  2  0
 20 21  2  0
 20 19  1  0
 22 20  1  0
 23 22  1  0
 24 23  1  1
 24 26  1  0
 25 17  1  0
 25 24  1  0
 26 28  2  0
 26 27  1  0
M  END
$$$$
