RPQ.pdb
     RDKit          3D

 28 28  0  0  1  0  0  0  0  0999 V2000
   21.6933  -17.8544  -16.5867 N   0  0  0  0  0  0  0  0  0  0  0  0
   22.0355  -19.2196  -16.7423 C   0  0  0  0  0  0  0  0  0  0  0  0
   21.2647  -20.0298  -17.4069 N   0  0  0  0  0  0  0  0  0  0  0  0
   23.2336  -19.7677  -16.1844 N   0  0  0  0  0  0  0  0  0  0  0  0
   24.3410  -18.8834  -15.7863 C   0  0  0  0  0  0  0  0  0  0  0  0
   25.6075  -19.5490  -16.1900 C   0  0  0  0  0  0  0  0  0  0  0  0
   26.7198  -19.5283  -15.2118 C   0  0  0  0  0  0  0  0  0  0  0  0
   27.1056  -20.8604  -14.6219 C   0  0  2  0  0  0  0  0  0  0  0  0
   27.7802  -21.7236  -15.5189 N   0  0  0  0  0  0  0  0  0  0  0  0
   25.9867  -21.4984  -13.9022 C   0  0  0  0  0  0  0  0  0  0  0  0
   25.4948  -22.5459  -14.4724 O   0  0  0  0  0  0  0  0  0  0  0  0
   21.5372  -21.0334  -17.4953 N   0  0  0  0  0  0  0  0  0  0  0  0
   25.4325  -21.0486  -12.6636 C   0  0  0  0  0  0  0  0  0  0  0  0
   25.7530  -19.9040  -11.8696 C   0  0  0  0  0  0  0  0  0  0  0  0
   25.5166  -20.3185  -10.4422 C   0  0  0  0  0  0  0  0  0  0  0  0
   24.6772  -21.5487  -10.5503 C   0  0  2  0  0  0  0  0  0  0  0  0
   24.3764  -21.7570  -11.9887 C   0  0  0  0  0  0  0  0  0  0  0  0
   23.0171  -21.3467  -12.3976 O   0  0  0  0  0  0  0  0  0  0  0  0
   22.8492  -20.1608  -12.7816 N   0  0  0  0  0  0  0  0  0  0  0  0
   17.8090  -24.9669  -13.3956 C   0  0  0  0  0  0  0  0  0  0  0  0
   17.4596  -23.6991  -13.8920 O   0  0  0  0  0  0  0  0  0  0  0  0
   16.3545  -23.5136  -14.4289 C   0  0  0  0  0  0  0  0  0  0  0  0
   18.4069  -22.5504  -13.7847 C   0  0  0  0  0  0  0  0  0  0  0  0
   19.6850  -22.9607  -13.1070 C   0  0  2  0  0  0  0  0  0  0  0  0
   20.5845  -21.8128  -12.9224 N   0  0  0  0  0  0  0  0  0  0  0  0
   21.8923  -22.1961  -12.3866 C   0  0  0  0  0  0  0  0  0  0  0  0
   19.9950  -20.7124  -12.1597 O   0  0  0  0  0  0  0  0  0  0  0  0
   20.3322  -20.5494  -10.8268 O   0  0  0  0  0  0  0  0  0  0  0  0
  2  1  1  0
  3  2  2  0
  4  2  1  0
  5  4  1  0
  6  5  1  0
  7  6  1  0
  8  9  1  6
  8  7  1  0
 10  8  1  0
 11 10  2  0
 12 10  1  0
 12 16  1  0
 13 14  1  0
 13 12  1  0
 14 15  1  0
 15 16  1  0
 16 17  1  1
 17 18  2  0
 20 21  2  0
 20 19  1  0
 22 20  1  0
 23 22  1  0
 24 23  1  6
 24 26  1  0
 25 17  1  0
 25 24  1  0
 26 28  2  0
 26 27  1  0
M  END
$$$$
