RPQ.pdb
     RDKit          3D

 28 28  0  0  1  0  0  0  0  0999 V2000
   12.9902  -13.8975  -17.9133 N   0  0  0  0  0  0  0  0  0  0  0  0
   13.6458  -15.0653  -17.4535 C   0  0  0  0  0  0  0  0  0  0  0  0
   12.9902  -15.9940  -16.8209 N   0  0  0  0  0  0  0  0  0  0  0  0
   15.0449  -15.2795  -17.6620 N   0  0  0  0  0  0  0  0  0  0  0  0
   16.0119  -14.2065  -17.3785 C   0  0  0  0  0  0  0  0  0  0  0  0
   16.5865  -13.7720  -18.6789 C   0  0  0  0  0  0  0  0  0  0  0  0
   17.5941  -12.6866  -18.6402 C   0  0  0  0  0  0  0  0  0  0  0  0
   18.9863  -13.0617  -19.0788 C   0  0  2  0  0  0  0  0  0  0  0  0
   19.4110  -14.3411  -18.6453 N   0  0  0  0  0  0  0  0  0  0  0  0
   19.9626  -11.9861  -18.8209 C   0  0  0  0  0  0  0  0  0  0  0  0
   20.7690  -12.2023  -17.8373 O   0  0  0  0  0  0  0  0  0  0  0  0
   13.5022  -16.8391  -16.4848 N   0  0  0  0  0  0  0  0  0  0  0  0
   20.0688  -10.7669  -19.5598 C   0  0  0  0  0  0  0  0  0  0  0  0
   19.3503  -10.3191  -20.7115 C   0  0  0  0  0  0  0  0  0  0  0  0
   20.3186   -9.4721  -21.4927 C   0  0  0  0  0  0  0  0  0  0  0  0
   21.4028   -9.1564  -20.5156 C   0  0  1  0  0  0  0  0  0  0  0  0
   21.0024   -9.7296  -19.2063 C   0  0  0  0  0  0  0  0  0  0  0  0
   20.4731   -8.7445  -18.2407 O   0  0  0  0  0  0  0  0  0  0  0  0
   19.2456   -8.4741  -18.2866 N   0  0  0  0  0  0  0  0  0  0  0  0
   19.7022   -7.6925  -12.4271 C   0  0  0  0  0  0  0  0  0  0  0  0
   20.7304   -8.5240  -12.9036 O   0  0  0  0  0  0  0  0  0  0  0  0
   21.4267   -9.1836  -12.1136 C   0  0  0  0  0  0  0  0  0  0  0  0
   21.0071   -8.6326  -14.3666 C   0  0  0  0  0  0  0  0  0  0  0  0
   20.0345   -7.8112  -15.1667 C   0  0  1  0  0  0  0  0  0  0  0  0
   20.7002   -7.1421  -16.2936 N   0  0  0  0  0  0  0  0  0  0  0  0
   21.2522   -8.0850  -17.2686 C   0  0  0  0  0  0  0  0  0  0  0  0
   21.6928   -6.1457  -15.8910 O   0  0  0  0  0  0  0  0  0  0  0  0
   21.2842   -5.0167  -15.2015 O   0  0  0  0  0  0  0  0  0  0  0  0
  2  1  1  0
  3  2  2  0
  4  2  1  0
  5  4  1  0
  6  5  1  0
  7  6  1  0
  8  9  1  1
  8  7  1  0
 10  8  1  0
 11 10  2  0
 12 10  1  0
 12 16  1  0
 13 14  1  0
 13 12  1  0
 14 15  1  0
 15 16  1  0
 16 17  1  1
 17 18  2  0
 20 21  2  0
 20 19  1  0
 22 20  1  0
 23 22  1  0
 24 23  1  6
 24 26  1  0
 25 17  1  0
 25 24  1  0
 26 28  2  0
 26 27  1  0
M  END
$$$$
