RPQ.pdb
     RDKit          3D

 28 28  0  0  1  0  0  0  0  0999 V2000
   19.9159  -12.0790    7.9344 N   0  0  0  0  0  0  0  0  0  0  0  0
   20.8000  -11.7817    6.8690 C   0  0  0  0  0  0  0  0  0  0  0  0
   22.0385  -11.4572    7.0996 N   0  0  0  0  0  0  0  0  0  0  0  0
   20.3796  -11.8257    5.5021 N   0  0  0  0  0  0  0  0  0  0  0  0
   18.9571  -12.0014    5.1667 C   0  0  0  0  0  0  0  0  0  0  0  0
   18.7475  -13.4414    4.8627 C   0  0  0  0  0  0  0  0  0  0  0  0
   18.0867  -13.7684    3.5777 C   0  0  0  0  0  0  0  0  0  0  0  0
   16.6942  -14.3364    3.6768 C   0  0  2  0  0  0  0  0  0  0  0  0
   15.7810  -13.5239    4.3917 N   0  0  0  0  0  0  0  0  0  0  0  0
   16.6958  -15.7506    4.0974 C   0  0  0  0  0  0  0  0  0  0  0  0
   16.2092  -15.9736    5.2713 O   0  0  0  0  0  0  0  0  0  0  0  0
   22.6522  -11.1907    6.2987 N   0  0  0  0  0  0  0  0  0  0  0  0
   17.1833  -16.8470    3.3204 C   0  0  0  0  0  0  0  0  0  0  0  0
   17.8007  -16.8634    2.0314 C   0  0  0  0  0  0  0  0  0  0  0  0
   17.3808  -18.1607    1.3943 C   0  0  0  0  0  0  0  0  0  0  0  0
   16.8845  -18.9871    2.5347 C   0  0  2  0  0  0  0  0  0  0  0  0
   17.1105  -18.2098    3.7788 C   0  0  0  0  0  0  0  0  0  0  0  0
   18.2803  -18.6438    4.5701 O   0  0  0  0  0  0  0  0  0  0  0  0
   19.3277  -17.9505    4.5038 N   0  0  0  0  0  0  0  0  0  0  0  0
   21.3939  -17.2414   10.0197 C   0  0  0  0  0  0  0  0  0  0  0  0
   21.0421  -17.7176    8.7449 O   0  0  0  0  0  0  0  0  0  0  0  0
   21.5268  -17.2037    7.7227 C   0  0  0  0  0  0  0  0  0  0  0  0
   20.0807  -18.8494    8.5921 C   0  0  0  0  0  0  0  0  0  0  0  0
   19.2225  -18.6731    7.3700 C   0  0  1  0  0  0  0  0  0  0  0  0
   19.1579  -19.9105    6.5790 N   0  0  0  0  0  0  0  0  0  0  0  0
   18.3029  -19.7852    5.3969 C   0  0  0  0  0  0  0  0  0  0  0  0
   18.8190  -21.0991    7.3616 O   0  0  0  0  0  0  0  0  0  0  0  0
   17.5027  -21.3206    7.7292 O   0  0  0  0  0  0  0  0  0  0  0  0
  2  1  1  0
  3  2  2  0
  4  2  1  0
  5  4  1  0
  6  5  1  0
  7  6  1  0
  8  9  1  1
  8  7  1  0
 10  8  1  0
 11 10  2  0
 12 10  1  0
 12 16  1  0
 13 14  1  0
 13 12  1  0
 14 15  1  0
 15 16  1  0
 16 17  1  6
 17 18  2  0
 20 21  2  0
 20 19  1  0
 22 20  1  0
 23 22  1  0
 24 23  1  6
 24 26  1  0
 25 17  1  0
 25 24  1  0
 26 28  2  0
 26 27  1  0
M  END
$$$$
