RPQ.pdb
     RDKit          3D

 28 28  0  0  1  0  0  0  0  0999 V2000
   16.1140  -22.6598  -13.4798 N   0  0  0  0  0  0  0  0  0  0  0  0
   16.9825  -23.6964  -13.0597 C   0  0  0  0  0  0  0  0  0  0  0  0
   16.5212  -24.7461  -12.4452 N   0  0  0  0  0  0  0  0  0  0  0  0
   18.3934  -23.6414  -13.2902 N   0  0  0  0  0  0  0  0  0  0  0  0
   19.1453  -22.4073  -13.0099 C   0  0  0  0  0  0  0  0  0  0  0  0
   20.5648  -22.6607  -13.3716 C   0  0  0  0  0  0  0  0  0  0  0  0
   21.4913  -21.5064  -13.3094 C   0  0  0  0  0  0  0  0  0  0  0  0
   22.4941  -21.5242  -12.1845 C   0  0  2  0  0  0  0  0  0  0  0  0
   21.9578  -21.1877  -10.9179 N   0  0  0  0  0  0  0  0  0  0  0  0
   23.7302  -20.7945  -12.5258 C   0  0  0  0  0  0  0  0  0  0  0  0
   23.8440  -19.6276  -11.9874 O   0  0  0  0  0  0  0  0  0  0  0  0
   17.1895  -25.4748  -12.1114 N   0  0  0  0  0  0  0  0  0  0  0  0
   24.7690  -21.2764  -13.3816 C   0  0  0  0  0  0  0  0  0  0  0  0
   24.8705  -22.5009  -14.1120 C   0  0  0  0  0  0  0  0  0  0  0  0
   26.3373  -22.8366  -14.1439 C   0  0  0  0  0  0  0  0  0  0  0  0
   27.0158  -21.5566  -13.7817 C   0  0  1  0  0  0  0  0  0  0  0  0
   25.9638  -20.5183  -13.6466 C   0  0  0  0  0  0  0  0  0  0  0  0
   25.8537  -19.6018  -14.8003 O   0  0  0  0  0  0  0  0  0  0  0  0
   25.1018  -19.9377  -15.7511 N   0  0  0  0  0  0  0  0  0  0  0  0
   26.8287  -13.3497  -14.8980 C   0  0  0  0  0  0  0  0  0  0  0  0
   26.4513  -13.6368  -16.2212 O   0  0  0  0  0  0  0  0  0  0  0  0
   26.3100  -12.7222  -17.0503 C   0  0  0  0  0  0  0  0  0  0  0  0
   26.2129  -15.0443  -16.6581 C   0  0  0  0  0  0  0  0  0  0  0  0
   26.4378  -16.0102  -15.5278 C   0  0  1  0  0  0  0  0  0  0  0  0
   26.2877  -17.4021  -15.9763 N   0  0  0  0  0  0  0  0  0  0  0  0
   26.5357  -18.3730  -14.9086 C   0  0  0  0  0  0  0  0  0  0  0  0
   27.0525  -17.7240  -17.1812 O   0  0  0  0  0  0  0  0  0  0  0  0
   26.5145  -17.4426  -18.4254 O   0  0  0  0  0  0  0  0  0  0  0  0
  2  1  1  0
  3  2  2  0
  4  2  1  0
  5  4  1  0
  6  5  1  0
  7  6  1  0
  8  9  1  1
  8  7  1  0
 10  8  1  0
 11 10  2  0
 12 10  1  0
 12 16  1  0
 13 14  1  0
 13 12  1  0
 14 15  1  0
 15 16  1  0
 16 17  1  6
 17 18  2  0
 20 21  2  0
 20 19  1  0
 22 20  1  0
 23 22  1  0
 24 23  1  1
 24 26  1  0
 25 17  1  0
 25 24  1  0
 26 28  2  0
 26 27  1  0
M  END
$$$$
