RPQ.pdb
     RDKit          3D

 28 28  0  0  1  0  0  0  0  0999 V2000
   20.1890  -22.6995  -11.3948 N   0  0  0  0  0  0  0  0  0  0  0  0
   19.7369  -21.5867  -10.6449 C   0  0  0  0  0  0  0  0  0  0  0  0
   18.5742  -21.6024  -10.0617 N   0  0  0  0  0  0  0  0  0  0  0  0
   20.5290  -20.4052  -10.4919 N   0  0  0  0  0  0  0  0  0  0  0  0
   21.9473  -20.4043  -10.8859 C   0  0  0  0  0  0  0  0  0  0  0  0
   22.7330  -20.8796   -9.7168 C   0  0  0  0  0  0  0  0  0  0  0  0
   23.8358  -21.8305   -9.9890 C   0  0  0  0  0  0  0  0  0  0  0  0
   25.2291  -21.2582   -9.9384 C   0  0  2  0  0  0  0  0  0  0  0  0
   25.5047  -20.4922   -8.7799 N   0  0  0  0  0  0  0  0  0  0  0  0
   25.6070  -20.5942  -11.2007 C   0  0  0  0  0  0  0  0  0  0  0  0
   25.8654  -19.3342  -11.1009 O   0  0  0  0  0  0  0  0  0  0  0  0
   18.2409  -20.7451   -9.5684 N   0  0  0  0  0  0  0  0  0  0  0  0
   25.7007  -21.2304  -12.4774 C   0  0  0  0  0  0  0  0  0  0  0  0
   25.4030  -22.5739  -12.8642 C   0  0  0  0  0  0  0  0  0  0  0  0
   26.3687  -22.9035  -13.9706 C   0  0  0  0  0  0  0  0  0  0  0  0
   26.8793  -21.5747  -14.4214 C   0  0  2  0  0  0  0  0  0  0  0  0
   26.1491  -20.5342  -13.6550 C   0  0  0  0  0  0  0  0  0  0  0  0
   25.0693  -19.8621  -14.4069 O   0  0  0  0  0  0  0  0  0  0  0  0
   23.9079  -20.3380  -14.3238 N   0  0  0  0  0  0  0  0  0  0  0  0
   24.9629  -13.6960  -15.3971 C   0  0  0  0  0  0  0  0  0  0  0  0
   23.7367  -14.1019  -15.9516 O   0  0  0  0  0  0  0  0  0  0  0  0
   22.9314  -13.2618  -16.3871 C   0  0  0  0  0  0  0  0  0  0  0  0
   23.3764  -15.5486  -16.0292 C   0  0  0  0  0  0  0  0  0  0  0  0
   24.5238  -16.4189  -15.5968 C   0  0  2  0  0  0  0  0  0  0  0  0
   24.1577  -17.8422  -15.6313 N   0  0  0  0  0  0  0  0  0  0  0  0
   25.2522  -18.7207  -15.2135 C   0  0  0  0  0  0  0  0  0  0  0  0
   23.5781  -18.2761  -16.9025 O   0  0  0  0  0  0  0  0  0  0  0  0
   22.2140  -18.1556  -17.1060 O   0  0  0  0  0  0  0  0  0  0  0  0
  2  1  1  0
  3  2  2  0
  4  2  1  0
  5  4  1  0
  6  5  1  0
  7  6  1  0
  8  9  1  1
  8  7  1  0
 10  8  1  0
 11 10  2  0
 12 10  1  0
 12 16  1  0
 13 14  1  0
 13 12  1  0
 14 15  1  0
 15 16  1  0
 16 17  1  6
 17 18  2  0
 20 21  2  0
 20 19  1  0
 22 20  1  0
 23 22  1  0
 24 23  1  1
 24 26  1  0
 25 17  1  0
 25 24  1  0
 26 28  2  0
 26 27  1  0
M  END
$$$$
