RPQ.pdb
     RDKit          3D

 28 28  0  0  1  0  0  0  0  0999 V2000
   28.2913  -22.9233  -16.5588 N   0  0  0  0  0  0  0  0  0  0  0  0
   27.7198  -24.2189  -16.5659 C   0  0  0  0  0  0  0  0  0  0  0  0
   28.3018  -25.2022  -17.1878 N   0  0  0  0  0  0  0  0  0  0  0  0
   26.4895  -24.5068  -15.8949 N   0  0  0  0  0  0  0  0  0  0  0  0
   26.2028  -23.9120  -14.5793 C   0  0  0  0  0  0  0  0  0  0  0  0
   24.8536  -23.2925  -14.6568 C   0  0  0  0  0  0  0  0  0  0  0  0
   24.3957  -22.5275  -13.4737 C   0  0  0  0  0  0  0  0  0  0  0  0
   25.3857  -21.5491  -12.8960 C   0  0  2  0  0  0  0  0  0  0  0  0
   25.5358  -21.6306  -11.4903 N   0  0  0  0  0  0  0  0  0  0  0  0
   25.1752  -20.1780  -13.3985 C   0  0  0  0  0  0  0  0  0  0  0  0
   24.2087  -19.5318  -12.8392 O   0  0  0  0  0  0  0  0  0  0  0  0
   27.8095  -26.1194  -17.2625 N   0  0  0  0  0  0  0  0  0  0  0  0
   25.9412  -19.5436  -14.4253 C   0  0  0  0  0  0  0  0  0  0  0  0
   26.9957  -20.0574  -15.2422 C   0  0  0  0  0  0  0  0  0  0  0  0
   27.9107  -18.8923  -15.5077 C   0  0  0  0  0  0  0  0  0  0  0  0
   27.0897  -17.6935  -15.1635 C   0  0  2  0  0  0  0  0  0  0  0  0
   25.7301  -18.1723  -14.8094 C   0  0  0  0  0  0  0  0  0  0  0  0
   24.7194  -17.9917  -15.8719 O   0  0  0  0  0  0  0  0  0  0  0  0
   24.4621  -18.9737  -16.6146 N   0  0  0  0  0  0  0  0  0  0  0  0
   17.8226  -16.5440  -15.9398 C   0  0  0  0  0  0  0  0  0  0  0  0
   19.1401  -16.8137  -15.5309 O   0  0  0  0  0  0  0  0  0  0  0  0
   19.3872  -17.1068  -14.3490 C   0  0  0  0  0  0  0  0  0  0  0  0
   20.2686  -16.7543  -16.5064 C   0  0  0  0  0  0  0  0  0  0  0  0
   21.5970  -16.7484  -15.8018 C   0  0  2  0  0  0  0  0  0  0  0  0
   22.7108  -16.7326  -16.7611 N   0  0  0  0  0  0  0  0  0  0  0  0
   24.0216  -16.7905  -16.1108 C   0  0  0  0  0  0  0  0  0  0  0  0
   22.6428  -15.6413  -17.7329 O   0  0  0  0  0  0  0  0  0  0  0  0
   23.6430  -14.6842  -17.7539 O   0  0  0  0  0  0  0  0  0  0  0  0
  2  1  1  0
  3  2  2  0
  4  2  1  0
  5  4  1  0
  6  5  1  0
  7  6  1  0
  8  9  1  1
  8  7  1  0
 10  8  1  0
 11 10  2  0
 12 10  1  0
 12 16  1  0
 13 14  1  0
 13 12  1  0
 14 15  1  0
 15 16  1  0
 16 17  1  6
 17 18  2  0
 20 21  2  0
 20 19  1  0
 22 20  1  0
 23 22  1  0
 24 23  1  6
 24 26  1  0
 25 17  1  0
 25 24  1  0
 26 28  2  0
 26 27  1  0
M  END
$$$$
