RPQ.pdb
     RDKit          3D

 28 28  0  0  1  0  0  0  0  0999 V2000
   25.2539  -19.4128  -10.0314 N   0  0  0  0  0  0  0  0  0  0  0  0
   26.0618  -20.5128   -9.6542 C   0  0  0  0  0  0  0  0  0  0  0  0
   25.9833  -21.0204   -8.4590 N   0  0  0  0  0  0  0  0  0  0  0  0
   26.9918  -21.1143  -10.5599 N   0  0  0  0  0  0  0  0  0  0  0  0
   27.1889  -20.5520  -11.9059 C   0  0  0  0  0  0  0  0  0  0  0  0
   26.5409  -21.4771  -12.8725 C   0  0  0  0  0  0  0  0  0  0  0  0
   25.3616  -20.9640  -13.6077 C   0  0  0  0  0  0  0  0  0  0  0  0
   24.6920  -21.9369  -14.5437 C   0  0  2  0  0  0  0  0  0  0  0  0
   25.5433  -22.4664  -15.5437 N   0  0  0  0  0  0  0  0  0  0  0  0
   23.4081  -21.4239  -15.0588 C   0  0  0  0  0  0  0  0  0  0  0  0
   23.4074  -21.1049  -16.3089 O   0  0  0  0  0  0  0  0  0  0  0  0
   26.6097  -21.8144   -8.2013 N   0  0  0  0  0  0  0  0  0  0  0  0
   22.2118  -21.2621  -14.2931 C   0  0  0  0  0  0  0  0  0  0  0  0
   21.9601  -21.5130  -12.9086 C   0  0  0  0  0  0  0  0  0  0  0  0
   20.5215  -21.9478  -12.8277 C   0  0  0  0  0  0  0  0  0  0  0  0
   19.9323  -21.5147  -14.1296 C   0  0  2  0  0  0  0  0  0  0  0  0
   20.9856  -20.7775  -14.8712 C   0  0  0  0  0  0  0  0  0  0  0  0
   20.8435  -19.3072  -14.8406 O   0  0  0  0  0  0  0  0  0  0  0  0
   21.4925  -18.6696  -13.9719 N   0  0  0  0  0  0  0  0  0  0  0  0
   23.9654  -17.8023  -18.7893 C   0  0  0  0  0  0  0  0  0  0  0  0
   23.3806  -16.5284  -18.6834 O   0  0  0  0  0  0  0  0  0  0  0  0
   23.9366  -15.5348  -19.1811 C   0  0  0  0  0  0  0  0  0  0  0  0
   22.0812  -16.3424  -17.9725 C   0  0  0  0  0  0  0  0  0  0  0  0
   21.7030  -17.5750  -17.1988 C   0  0  1  0  0  0  0  0  0  0  0  0
   20.4768  -17.3603  -16.4171 N   0  0  0  0  0  0  0  0  0  0  0  0
   20.0279  -18.5678  -15.7209 C   0  0  0  0  0  0  0  0  0  0  0  0
   19.3885  -16.7438  -17.1759 O   0  0  0  0  0  0  0  0  0  0  0  0
   19.2797  -15.3641  -17.2129 O   0  0  0  0  0  0  0  0  0  0  0  0
  2  1  1  0
  3  2  2  0
  4  2  1  0
  5  4  1  0
  6  5  1  0
  7  6  1  0
  8  9  1  6
  8  7  1  0
 10  8  1  0
 11 10  2  0
 12 10  1  0
 12 16  1  0
 13 14  1  0
 13 12  1  0
 14 15  1  0
 15 16  1  0
 16 17  1  1
 17 18  2  0
 20 21  2  0
 20 19  1  0
 22 20  1  0
 23 22  1  0
 24 23  1  1
 24 26  1  0
 25 17  1  0
 25 24  1  0
 26 28  2  0
 26 27  1  0
M  END
$$$$
