RPQ.pdb
     RDKit          3D

 28 28  0  0  1  0  0  0  0  0999 V2000
   21.4245  -23.0048  -13.3238 N   0  0  0  0  0  0  0  0  0  0  0  0
   20.6364  -21.9369  -12.8302 C   0  0  0  0  0  0  0  0  0  0  0  0
   19.6188  -21.4898  -13.5062 N   0  0  0  0  0  0  0  0  0  0  0  0
   20.9163  -21.3063  -11.5768 N   0  0  0  0  0  0  0  0  0  0  0  0
   22.1797  -21.5794  -10.8725 C   0  0  0  0  0  0  0  0  0  0  0  0
   22.8969  -20.2851  -10.7296 C   0  0  0  0  0  0  0  0  0  0  0  0
   24.2796  -20.3369  -10.2005 C   0  0  0  0  0  0  0  0  0  0  0  0
   25.2514  -21.1902  -10.9744 C   0  0  2  0  0  0  0  0  0  0  0  0
   26.5347  -21.2954  -10.3853 N   0  0  0  0  0  0  0  0  0  0  0  0
   25.2761  -20.8481  -12.4094 C   0  0  0  0  0  0  0  0  0  0  0  0
   25.6557  -19.6450  -12.6794 O   0  0  0  0  0  0  0  0  0  0  0  0
   19.0192  -20.7442  -13.0894 N   0  0  0  0  0  0  0  0  0  0  0  0
   24.9196  -21.7277  -13.4785 C   0  0  0  0  0  0  0  0  0  0  0  0
   24.3647  -23.0445  -13.4453 C   0  0  0  0  0  0  0  0  0  0  0  0
   24.9223  -23.7527  -14.6507 C   0  0  0  0  0  0  0  0  0  0  0  0
   25.4352  -22.6520  -15.5197 C   0  0  2  0  0  0  0  0  0  0  0  0
   25.0876  -21.3675  -14.8622 C   0  0  0  0  0  0  0  0  0  0  0  0
   23.9246  -20.6715  -15.4504 O   0  0  0  0  0  0  0  0  0  0  0  0
   22.7771  -21.0037  -15.0566 N   0  0  0  0  0  0  0  0  0  0  0  0
   25.3567  -16.7690  -19.1235 C   0  0  0  0  0  0  0  0  0  0  0  0
   25.2804  -16.3874  -17.7728 O   0  0  0  0  0  0  0  0  0  0  0  0
   26.1076  -15.5943  -17.2928 C   0  0  0  0  0  0  0  0  0  0  0  0
   24.2054  -16.9258  -16.8878 C   0  0  0  0  0  0  0  0  0  0  0  0
   23.1999  -17.7201  -17.6746 C   0  0  2  0  0  0  0  0  0  0  0  0
   22.8479  -18.9697  -16.9849 N   0  0  0  0  0  0  0  0  0  0  0  0
   24.0133  -19.6577  -16.4256 C   0  0  0  0  0  0  0  0  0  0  0  0
   22.0223  -19.8765  -17.7824 O   0  0  0  0  0  0  0  0  0  0  0  0
   22.4975  -21.1408  -18.0869 O   0  0  0  0  0  0  0  0  0  0  0  0
  2  1  1  0
  3  2  2  0
  4  2  1  0
  5  4  1  0
  6  5  1  0
  7  6  1  0
  8  9  1  1
  8  7  1  0
 10  8  1  0
 11 10  2  0
 12 10  1  0
 12 16  1  0
 13 14  1  0
 13 12  1  0
 14 15  1  0
 15 16  1  0
 16 17  1  6
 17 18  2  0
 20 21  2  0
 20 19  1  0
 22 20  1  0
 23 22  1  0
 24 23  1  1
 24 26  1  0
 25 17  1  0
 25 24  1  0
 26 28  2  0
 26 27  1  0
M  END
$$$$
