RPQ.pdb
     RDKit          3D

 28 28  0  0  1  0  0  0  0  0999 V2000
   21.7944  -21.5462   -7.9818 N   0  0  0  0  0  0  0  0  0  0  0  0
   20.9459  -21.4825   -9.1137 C   0  0  0  0  0  0  0  0  0  0  0  0
   19.6667  -21.6911   -9.0021 N   0  0  0  0  0  0  0  0  0  0  0  0
   21.4483  -21.1865  -10.4202 N   0  0  0  0  0  0  0  0  0  0  0  0
   22.4817  -22.0389  -11.0305 C   0  0  0  0  0  0  0  0  0  0  0  0
   23.7547  -21.2711  -11.0175 C   0  0  0  0  0  0  0  0  0  0  0  0
   24.4543  -21.1067  -12.3130 C   0  0  0  0  0  0  0  0  0  0  0  0
   23.9653  -19.9829  -13.1899 C   0  0  2  0  0  0  0  0  0  0  0  0
   22.5657  -19.9755  -13.4045 N   0  0  0  0  0  0  0  0  0  0  0  0
   24.7623  -19.8494  -14.4243 C   0  0  0  0  0  0  0  0  0  0  0  0
   24.1212  -20.0853  -15.5187 O   0  0  0  0  0  0  0  0  0  0  0  0
   19.0703  -21.6644   -9.8581 N   0  0  0  0  0  0  0  0  0  0  0  0
   26.1450  -19.4912  -14.4848 C   0  0  0  0  0  0  0  0  0  0  0  0
   27.0613  -19.1644  -13.4375 C   0  0  0  0  0  0  0  0  0  0  0  0
   28.0139  -18.1597  -14.0277 C   0  0  0  0  0  0  0  0  0  0  0  0
   27.8236  -18.2942  -15.5026 C   0  0  1  0  0  0  0  0  0  0  0  0
   26.8658  -19.4054  -15.7280 C   0  0  0  0  0  0  0  0  0  0  0  0
   27.4883  -20.6760  -16.1538 O   0  0  0  0  0  0  0  0  0  0  0  0
   28.1453  -21.3261  -15.3007 N   0  0  0  0  0  0  0  0  0  0  0  0
   26.0659  -26.3792  -15.9859 C   0  0  0  0  0  0  0  0  0  0  0  0
   25.2442  -25.2441  -16.0968 O   0  0  0  0  0  0  0  0  0  0  0  0
   24.4380  -24.9574  -15.1959 C   0  0  0  0  0  0  0  0  0  0  0  0
   25.3228  -24.3602  -17.2973 C   0  0  0  0  0  0  0  0  0  0  0  0
   25.7948  -22.9812  -16.9276 C   0  0  1  0  0  0  0  0  0  0  0  0
   26.9536  -22.5779  -17.7372 N   0  0  0  0  0  0  0  0  0  0  0  0
   27.3960  -21.2108  -17.4547 C   0  0  0  0  0  0  0  0  0  0  0  0
   26.7814  -22.7991  -19.1730 O   0  0  0  0  0  0  0  0  0  0  0  0
   26.3153  -21.7677  -19.9704 O   0  0  0  0  0  0  0  0  0  0  0  0
  2  1  1  0
  3  2  2  0
  4  2  1  0
  5  4  1  0
  6  5  1  0
  7  6  1  0
  8  9  1  6
  8  7  1  0
 10  8  1  0
 11 10  2  0
 12 10  1  0
 12 16  1  0
 13 14  1  0
 13 12  1  0
 14 15  1  0
 15 16  1  0
 16 17  1  1
 17 18  2  0
 20 21  2  0
 20 19  1  0
 22 20  1  0
 23 22  1  0
 24 23  1  1
 24 26  1  0
 25 17  1  0
 25 24  1  0
 26 28  2  0
 26 27  1  0
M  END
$$$$
