RPQ.pdb
     RDKit          3D

 28 28  0  0  1  0  0  0  0  0999 V2000
   16.6764  -22.2913  -11.0020 N   0  0  0  0  0  0  0  0  0  0  0  0
   17.9816  -22.3173  -11.5505 C   0  0  0  0  0  0  0  0  0  0  0  0
   18.1934  -22.7776  -12.7486 N   0  0  0  0  0  0  0  0  0  0  0  0
   19.1178  -21.8416  -10.8227 N   0  0  0  0  0  0  0  0  0  0  0  0
   20.2842  -21.2976  -11.5371 C   0  0  0  0  0  0  0  0  0  0  0  0
   21.3909  -22.2796  -11.3923 C   0  0  0  0  0  0  0  0  0  0  0  0
   22.6805  -21.9397  -12.0373 C   0  0  0  0  0  0  0  0  0  0  0  0
   23.7270  -21.3298  -11.1405 C   0  0  2  0  0  0  0  0  0  0  0  0
   23.2171  -20.7681   -9.9449 N   0  0  0  0  0  0  0  0  0  0  0  0
   24.6453  -20.4404  -11.8773 C   0  0  0  0  0  0  0  0  0  0  0  0
   24.4763  -19.1795  -11.6630 O   0  0  0  0  0  0  0  0  0  0  0  0
   19.1700  -22.8120  -13.1151 N   0  0  0  0  0  0  0  0  0  0  0  0
   25.6691  -20.8676  -12.7789 C   0  0  0  0  0  0  0  0  0  0  0  0
   26.0429  -22.1826  -13.1962 C   0  0  0  0  0  0  0  0  0  0  0  0
   27.5279  -22.1282  -13.4353 C   0  0  0  0  0  0  0  0  0  0  0  0
   27.8313  -20.6695  -13.5355 C   0  0  2  0  0  0  0  0  0  0  0  0
   26.5415  -19.9400  -13.4506 C   0  0  0  0  0  0  0  0  0  0  0  0
   26.0238  -19.4549  -14.7467 O   0  0  0  0  0  0  0  0  0  0  0  0
   25.4345  -20.2787  -15.4924 N   0  0  0  0  0  0  0  0  0  0  0  0
   25.0250  -13.4298  -16.3642 C   0  0  0  0  0  0  0  0  0  0  0  0
   26.2758  -13.9588  -16.0013 O   0  0  0  0  0  0  0  0  0  0  0  0
   27.1992  -13.2084  -15.6434 C   0  0  0  0  0  0  0  0  0  0  0  0
   26.5208  -15.4309  -16.0377 C   0  0  0  0  0  0  0  0  0  0  0  0
   25.2691  -16.1821  -16.3982 C   0  0  1  0  0  0  0  0  0  0  0  0
   25.5056  -17.6327  -16.4264 N   0  0  0  0  0  0  0  0  0  0  0  0
   26.1457  -18.1278  -15.2060 C   0  0  0  0  0  0  0  0  0  0  0  0
   26.2045  -18.0978  -17.6243 O   0  0  0  0  0  0  0  0  0  0  0  0
   25.5679  -18.0356  -18.8522 O   0  0  0  0  0  0  0  0  0  0  0  0
  2  1  1  0
  3  2  2  0
  4  2  1  0
  5  4  1  0
  6  5  1  0
  7  6  1  0
  8  9  1  1
  8  7  1  0
 10  8  1  0
 11 10  2  0
 12 10  1  0
 12 16  1  0
 13 14  1  0
 13 12  1  0
 14 15  1  0
 15 16  1  0
 16 17  1  6
 17 18  2  0
 20 21  2  0
 20 19  1  0
 22 20  1  0
 23 22  1  0
 24 23  1  1
 24 26  1  0
 25 17  1  0
 25 24  1  0
 26 28  2  0
 26 27  1  0
M  END
$$$$
