PPG.pdb
     RDKit          3D

 19 20  0  0  1  0  0  0  0  0999 V2000
   27.4679  -20.9645  -15.1515 N   0  0  0  0  0  0  0  0  0  0  0  0
   28.0905  -20.0044  -16.0523 C   0  0  0  0  0  0  0  0  0  0  0  0
   28.3632  -18.7655  -15.2527 C   0  0  0  0  0  0  0  0  0  0  0  0
   27.3129  -18.8066  -14.1910 C   0  0  0  0  0  0  0  0  0  0  0  0
   27.1229  -20.2937  -13.9659 C   0  0  1  0  0  0  0  0  0  0  0  0
   25.8082  -20.5931  -13.3565 C   0  0  0  0  0  0  0  0  0  0  0  0
   24.8521  -20.4717  -14.2079 O   0  0  0  0  0  0  0  0  0  0  0  0
   25.5254  -20.9666  -12.0472 N   0  0  0  0  0  0  0  0  0  0  0  0
   26.4083  -21.6320  -11.0658 C   0  0  0  0  0  0  0  0  0  0  0  0
   26.2772  -20.6206   -9.9149 C   0  0  0  0  0  0  0  0  0  0  0  0
   24.9498  -19.8916  -10.1549 C   0  0  0  0  0  0  0  0  0  0  0  0
   24.3696  -20.8011  -11.2361 C   0  0  1  0  0  0  0  0  0  0  0  0
   23.1127  -20.3946  -11.7577 C   0  0  0  0  0  0  0  0  0  0  0  0
   22.1296  -20.0827  -11.0954 O   0  0  0  0  0  0  0  0  0  0  0  0
   22.9577  -20.3370  -13.1931 N   0  0  0  0  0  0  0  0  0  0  0  0
   21.7579  -19.7663  -13.7678 C   0  0  0  0  0  0  0  0  0  0  0  0
   20.6917  -20.7827  -13.9310 C   0  0  0  0  0  0  0  0  0  0  0  0
   19.5897  -20.8677  -13.1148 O   0  0  0  0  0  0  0  0  0  0  0  0
   20.8073  -21.6103  -14.8700 O   0  0  0  0  0  0  0  0  0  0  0  0
  1  5  1  0
  1  2  1  0
  2  3  1  0
  3  4  1  0
  5  6  1  6
  5  4  1  0
  6  8  1  0
  7  6  2  0
  8 12  1  0
  8  9  1  0
 10  9  1  0
 11 12  1  0
 11 10  1  0
 12 13  1  6
 13 14  2  0
 13 15  1  0
 15 16  1  0
 17 16  1  0
 17 18  1  0
 19 17  2  0
M  END
$$$$
