PPG.pdb
     RDKit          3D

 19 20  0  0  1  0  0  0  0  0999 V2000
   30.4878  -22.7102   -9.4677 N   0  0  0  0  0  0  0  0  0  0  0  0
   31.1576  -22.5603  -10.7521 C   0  0  0  0  0  0  0  0  0  0  0  0
   31.4878  -21.1058  -10.9076 C   0  0  0  0  0  0  0  0  0  0  0  0
   30.4345  -20.4280  -10.0932 C   0  0  0  0  0  0  0  0  0  0  0  0
   30.1729  -21.4287   -8.9849 C   0  0  1  0  0  0  0  0  0  0  0  0
   28.8441  -21.2273   -8.3659 C   0  0  0  0  0  0  0  0  0  0  0  0
   27.8998  -21.6808   -9.1118 O   0  0  0  0  0  0  0  0  0  0  0  0
   28.5382  -20.6386   -7.1439 N   0  0  0  0  0  0  0  0  0  0  0  0
   29.4242  -20.4060   -5.9835 C   0  0  0  0  0  0  0  0  0  0  0  0
   29.1923  -18.8952   -5.8153 C   0  0  0  0  0  0  0  0  0  0  0  0
   27.8328  -18.6113   -6.4653 C   0  0  0  0  0  0  0  0  0  0  0  0
   27.3467  -20.0485   -6.6405 C   0  0  1  0  0  0  0  0  0  0  0  0
   26.0869  -20.1868   -7.2814 C   0  0  0  0  0  0  0  0  0  0  0  0
   24.9927  -20.0332   -6.7507 O   0  0  0  0  0  0  0  0  0  0  0  0
   26.0708  -20.5395   -8.6826 N   0  0  0  0  0  0  0  0  0  0  0  0
   24.8156  -20.5829   -9.4023 C   0  0  0  0  0  0  0  0  0  0  0  0
   25.0262  -20.7146  -10.8634 C   0  0  0  0  0  0  0  0  0  0  0  0
   24.2459  -20.0877  -11.8046 O   0  0  0  0  0  0  0  0  0  0  0  0
   25.9729  -21.4416  -11.2576 O   0  0  0  0  0  0  0  0  0  0  0  0
  1  5  1  0
  1  2  1  0
  2  3  1  0
  3  4  1  0
  5  6  1  6
  5  4  1  0
  6  8  1  0
  7  6  2  0
  8 12  1  0
  8  9  1  0
 10  9  1  0
 11 12  1  0
 11 10  1  0
 12 13  1  6
 13 14  2  0
 13 15  1  0
 15 16  1  0
 17 16  1  0
 17 18  1  0
 19 17  2  0
M  END
$$$$
