PPG.pdb
     RDKit          3D

 19 20  0  0  1  0  0  0  0  0999 V2000
   27.4166  -20.5404  -15.4894 N   0  0  0  0  0  0  0  0  0  0  0  0
   27.9605  -19.4295  -16.2582 C   0  0  0  0  0  0  0  0  0  0  0  0
   28.1975  -18.3043  -15.2958 C   0  0  0  0  0  0  0  0  0  0  0  0
   27.1862  -18.5529  -14.2246 C   0  0  0  0  0  0  0  0  0  0  0  0
   27.0780  -20.0649  -14.2111 C   0  0  1  0  0  0  0  0  0  0  0  0
   25.8008  -20.5187  -13.6177 C   0  0  0  0  0  0  0  0  0  0  0  0
   24.8379  -20.4674  -14.4685 O   0  0  0  0  0  0  0  0  0  0  0  0
   25.5570  -20.9638  -12.3231 N   0  0  0  0  0  0  0  0  0  0  0  0
   26.4713  -21.6736  -11.4034 C   0  0  0  0  0  0  0  0  0  0  0  0
   26.3660  -20.7262  -10.1968 C   0  0  0  0  0  0  0  0  0  0  0  0
   25.0278  -19.9958  -10.3607 C   0  0  0  0  0  0  0  0  0  0  0  0
   24.4234  -20.8508  -11.4726 C   0  0  1  0  0  0  0  0  0  0  0  0
   23.1498  -20.4269  -11.9369 C   0  0  0  0  0  0  0  0  0  0  0  0
   22.5355  -19.4421  -11.5429 O   0  0  0  0  0  0  0  0  0  0  0  0
   22.5037  -21.2115  -12.9638 N   0  0  0  0  0  0  0  0  0  0  0  0
   21.2756  -20.7398  -13.5679 C   0  0  0  0  0  0  0  0  0  0  0  0
   20.0849  -21.3764  -12.9568 C   0  0  0  0  0  0  0  0  0  0  0  0
   20.0252  -21.7764  -11.6437 O   0  0  0  0  0  0  0  0  0  0  0  0
   19.0765  -21.5578  -13.6850 O   0  0  0  0  0  0  0  0  0  0  0  0
  1  5  1  0
  1  2  1  0
  2  3  1  0
  3  4  1  0
  5  6  1  6
  5  4  1  0
  6  8  1  0
  7  6  2  0
  8 12  1  0
  8  9  1  0
 10  9  1  0
 11 12  1  0
 11 10  1  0
 12 13  1  6
 13 14  2  0
 13 15  1  0
 15 16  1  0
 17 16  1  0
 17 18  1  0
 19 17  2  0
M  END
$$$$
