PPG.pdb
     RDKit          3D

 19 20  0  0  1  0  0  0  0  0999 V2000
   27.4939  -20.4381  -15.6419 N   0  0  0  0  0  0  0  0  0  0  0  0
   27.9688  -19.2841  -16.3927 C   0  0  0  0  0  0  0  0  0  0  0  0
   28.1587  -18.1685  -15.4090 C   0  0  0  0  0  0  0  0  0  0  0  0
   27.1757  -18.4926  -14.3316 C   0  0  0  0  0  0  0  0  0  0  0  0
   27.1473  -20.0082  -14.3497 C   0  0  1  0  0  0  0  0  0  0  0  0
   25.9033  -20.5411  -13.7514 C   0  0  0  0  0  0  0  0  0  0  0  0
   24.9428  -20.5750  -14.6058 O   0  0  0  0  0  0  0  0  0  0  0  0
   25.6866  -20.9781  -12.4492 N   0  0  0  0  0  0  0  0  0  0  0  0
   26.6202  -21.6813  -11.5440 C   0  0  0  0  0  0  0  0  0  0  0  0
   26.5389  -20.7262  -10.3415 C   0  0  0  0  0  0  0  0  0  0  0  0
   25.1969  -19.9980  -10.4826 C   0  0  0  0  0  0  0  0  0  0  0  0
   24.5705  -20.8606  -11.5764 C   0  0  1  0  0  0  0  0  0  0  0  0
   23.2874  -20.4406  -12.0171 C   0  0  0  0  0  0  0  0  0  0  0  0
   22.8900  -19.2820  -12.0638 O   0  0  0  0  0  0  0  0  0  0  0  0
   22.3523  -21.4524  -12.4528 N   0  0  0  0  0  0  0  0  0  0  0  0
   21.0114  -21.0751  -12.8468 C   0  0  0  0  0  0  0  0  0  0  0  0
   20.9725  -20.5640  -14.2374 C   0  0  0  0  0  0  0  0  0  0  0  0
   20.1830  -19.5144  -14.6407 O   0  0  0  0  0  0  0  0  0  0  0  0
   21.7045  -21.1259  -15.0908 O   0  0  0  0  0  0  0  0  0  0  0  0
  1  5  1  0
  1  2  1  0
  2  3  1  0
  3  4  1  0
  5  6  1  6
  5  4  1  0
  6  8  1  0
  7  6  2  0
  8 12  1  0
  8  9  1  0
 10  9  1  0
 11 12  1  0
 11 10  1  0
 12 13  1  6
 13 14  2  0
 13 15  1  0
 15 16  1  0
 17 16  1  0
 17 18  1  0
 19 17  2  0
M  END
$$$$
