PPG.pdb
     RDKit          3D

 19 20  0  0  1  0  0  0  0  0999 V2000
   34.5030  -27.3145    4.1057 N   0  0  0  0  0  0  0  0  0  0  0  0
   33.8270  -28.6022    4.0298 C   0  0  0  0  0  0  0  0  0  0  0  0
   32.3577  -28.3350    4.1649 C   0  0  0  0  0  0  0  0  0  0  0  0
   32.3122  -27.0774    4.9702 C   0  0  0  0  0  0  0  0  0  0  0  0
   33.5701  -26.3538    4.5316 C   0  0  1  0  0  0  0  0  0  0  0  0
   34.0082  -25.3577    5.5343 C   0  0  0  0  0  0  0  0  0  0  0  0
   34.6467  -25.9103    6.5042 O   0  0  0  0  0  0  0  0  0  0  0  0
   33.8119  -23.9811    5.5307 N   0  0  0  0  0  0  0  0  0  0  0  0
   33.7280  -23.0635    4.3746 C   0  0  0  0  0  0  0  0  0  0  0  0
   32.3747  -22.4087    4.6976 C   0  0  0  0  0  0  0  0  0  0  0  0
   32.1804  -22.5858    6.2083 C   0  0  0  0  0  0  0  0  0  0  0  0
   33.5889  -23.0462    6.5782 C   0  0  1  0  0  0  0  0  0  0  0  0
   33.7808  -23.3633    7.9492 C   0  0  0  0  0  0  0  0  0  0  0  0
   32.9507  -23.8816    8.6873 O   0  0  0  0  0  0  0  0  0  0  0  0
   35.0601  -23.0561    8.5466 N   0  0  0  0  0  0  0  0  0  0  0  0
   35.3394  -23.4657    9.9066 C   0  0  0  0  0  0  0  0  0  0  0  0
   34.4690  -22.7642   10.8796 C   0  0  0  0  0  0  0  0  0  0  0  0
   34.4799  -21.4032   11.0676 O   0  0  0  0  0  0  0  0  0  0  0  0
   33.6788  -23.4580   11.5683 O   0  0  0  0  0  0  0  0  0  0  0  0
  1  5  1  0
  1  2  1  0
  2  3  1  0
  3  4  1  0
  5  6  1  1
  5  4  1  0
  6  8  1  0
  7  6  2  0
  8 12  1  0
  8  9  1  0
 10  9  1  0
 11 12  1  0
 11 10  1  0
 12 13  1  1
 13 14  2  0
 13 15  1  0
 15 16  1  0
 17 16  1  0
 17 18  1  0
 19 17  2  0
M  END
$$$$
