PPG.pdb
     RDKit          3D

 19 20  0  0  1  0  0  0  0  0999 V2000
   27.3772  -20.5148  -15.3710 N   0  0  0  0  0  0  0  0  0  0  0  0
   27.8417  -19.3637  -16.1327 C   0  0  0  0  0  0  0  0  0  0  0  0
   28.0040  -18.2320  -15.1625 C   0  0  0  0  0  0  0  0  0  0  0  0
   27.0151  -18.5571  -14.0907 C   0  0  0  0  0  0  0  0  0  0  0  0
   27.0106  -20.0730  -14.0884 C   0  0  1  0  0  0  0  0  0  0  0  0
   25.7691  -20.6174  -13.4953 C   0  0  0  0  0  0  0  0  0  0  0  0
   24.8240  -20.6972  -14.3638 O   0  0  0  0  0  0  0  0  0  0  0  0
   25.5404  -21.0226  -12.1850 N   0  0  0  0  0  0  0  0  0  0  0  0
   26.4563  -21.7282  -11.2636 C   0  0  0  0  0  0  0  0  0  0  0  0
   26.3948  -20.7471  -10.0811 C   0  0  0  0  0  0  0  0  0  0  0  0
   25.0700  -19.9916  -10.2398 C   0  0  0  0  0  0  0  0  0  0  0  0
   24.4259  -20.8619  -11.3171 C   0  0  1  0  0  0  0  0  0  0  0  0
   23.1533  -20.4221  -11.7688 C   0  0  0  0  0  0  0  0  0  0  0  0
   22.8537  -19.2677  -12.0519 O   0  0  0  0  0  0  0  0  0  0  0  0
   22.1051  -21.4059  -11.9144 N   0  0  0  0  0  0  0  0  0  0  0  0
   20.7982  -21.0041  -12.3900 C   0  0  0  0  0  0  0  0  0  0  0  0
   20.7106  -21.0654  -13.8681 C   0  0  0  0  0  0  0  0  0  0  0  0
   20.8205  -19.9650  -14.6835 O   0  0  0  0  0  0  0  0  0  0  0  0
   20.5255  -22.1893  -14.3998 O   0  0  0  0  0  0  0  0  0  0  0  0
  1  5  1  0
  1  2  1  0
  2  3  1  0
  3  4  1  0
  5  6  1  6
  5  4  1  0
  6  8  1  0
  7  6  2  0
  8 12  1  0
  8  9  1  0
 10  9  1  0
 11 12  1  0
 11 10  1  0
 12 13  1  6
 13 14  2  0
 13 15  1  0
 15 16  1  0
 17 16  1  0
 17 18  1  0
 19 17  2  0
M  END
$$$$
