PPG.pdb
     RDKit          3D

 19 20  0  0  1  0  0  0  0  0999 V2000
   16.4076  -21.1666    3.8107 N   0  0  0  0  0  0  0  0  0  0  0  0
   15.9505  -21.1106    2.4292 C   0  0  0  0  0  0  0  0  0  0  0  0
   17.0781  -20.5481    1.6164 C   0  0  0  0  0  0  0  0  0  0  0  0
   17.8183  -19.7015    2.5999 C   0  0  0  0  0  0  0  0  0  0  0  0
   17.6093  -20.4443    3.9048 C   0  0  1  0  0  0  0  0  0  0  0  0
   17.7977  -19.5600    5.0761 C   0  0  0  0  0  0  0  0  0  0  0  0
   16.7772  -18.8010    5.2664 O   0  0  0  0  0  0  0  0  0  0  0  0
   18.8915  -19.4756    5.9306 N   0  0  0  0  0  0  0  0  0  0  0  0
   19.7934  -20.5553    6.3852 C   0  0  0  0  0  0  0  0  0  0  0  0
   21.1339  -19.9254    5.9716 C   0  0  0  0  0  0  0  0  0  0  0  0
   20.8771  -18.4153    5.9041 C   0  0  0  0  0  0  0  0  0  0  0  0
   19.5098  -18.3744    6.5834 C   0  0  1  0  0  0  0  0  0  0  0  0
   18.9115  -17.0887    6.6614 C   0  0  0  0  0  0  0  0  0  0  0  0
   18.6331  -16.3695    5.7087 O   0  0  0  0  0  0  0  0  0  0  0  0
   18.5952  -16.5631    7.9697 N   0  0  0  0  0  0  0  0  0  0  0  0
   18.1240  -15.2013    8.1065 C   0  0  0  0  0  0  0  0  0  0  0  0
   16.6842  -15.0840    7.7755 C   0  0  0  0  0  0  0  0  0  0  0  0
   16.0056  -13.8898    7.7420 O   0  0  0  0  0  0  0  0  0  0  0  0
   16.0539  -16.1391    7.5117 O   0  0  0  0  0  0  0  0  0  0  0  0
  1  5  1  0
  1  2  1  0
  2  3  1  0
  3  4  1  0
  5  6  1  1
  5  4  1  0
  6  8  1  0
  7  6  2  0
  8 12  1  0
  8  9  1  0
 10  9  1  0
 11 12  1  0
 11 10  1  0
 12 13  1  6
 13 14  2  0
 13 15  1  0
 15 16  1  0
 17 16  1  0
 17 18  1  0
 19 17  2  0
M  END
$$$$
