PPG.pdb
     RDKit          3D

 19 20  0  0  1  0  0  0  0  0999 V2000
   27.5940  -21.0094  -14.9368 N   0  0  0  0  0  0  0  0  0  0  0  0
   27.8882  -19.9797  -15.9237 C   0  0  0  0  0  0  0  0  0  0  0  0
   27.8129  -18.6597  -15.2161 C   0  0  0  0  0  0  0  0  0  0  0  0
   26.8483  -18.9222  -14.1060 C   0  0  0  0  0  0  0  0  0  0  0  0
   27.1020  -20.3809  -13.7803 C   0  0  1  0  0  0  0  0  0  0  0  0
   25.9467  -20.9989  -13.0926 C   0  0  0  0  0  0  0  0  0  0  0  0
   25.0871  -21.4599  -13.9306 O   0  0  0  0  0  0  0  0  0  0  0  0
   25.7161  -21.1217  -11.7268 N   0  0  0  0  0  0  0  0  0  0  0  0
   26.6976  -21.3180  -10.6388 C   0  0  0  0  0  0  0  0  0  0  0  0
   26.2931  -20.1326   -9.7467 C   0  0  0  0  0  0  0  0  0  0  0  0
   24.8401  -19.8133  -10.1180 C   0  0  0  0  0  0  0  0  0  0  0  0
   24.5273  -21.0554  -10.9500 C   0  0  1  0  0  0  0  0  0  0  0  0
   23.2283  -21.0879  -11.5231 C   0  0  0  0  0  0  0  0  0  0  0  0
   22.1750  -20.9174  -10.9199 O   0  0  0  0  0  0  0  0  0  0  0  0
   23.1158  -21.3431  -12.9409 N   0  0  0  0  0  0  0  0  0  0  0  0
   21.8279  -21.2396  -13.5936 C   0  0  0  0  0  0  0  0  0  0  0  0
   21.7325  -20.0175  -14.4264 C   0  0  0  0  0  0  0  0  0  0  0  0
   22.2385  -19.9230  -15.7003 O   0  0  0  0  0  0  0  0  0  0  0  0
   21.1557  -19.0147  -13.9348 O   0  0  0  0  0  0  0  0  0  0  0  0
  1  5  1  0
  1  2  1  0
  2  3  1  0
  3  4  1  0
  5  6  1  6
  5  4  1  0
  6  8  1  0
  7  6  2  0
  8 12  1  0
  8  9  1  0
 10  9  1  0
 11 12  1  0
 11 10  1  0
 12 13  1  6
 13 14  2  0
 13 15  1  0
 15 16  1  0
 17 16  1  0
 17 18  1  0
 19 17  2  0
M  END
$$$$
