PPG.pdb
     RDKit          3D

 19 20  0  0  1  0  0  0  0  0999 V2000
   27.7447  -21.0021  -15.0045 N   0  0  0  0  0  0  0  0  0  0  0  0
   28.1519  -19.9220  -15.8925 C   0  0  0  0  0  0  0  0  0  0  0  0
   28.0598  -18.6488  -15.1056 C   0  0  0  0  0  0  0  0  0  0  0  0
   26.9987  -18.9472  -14.0970 C   0  0  0  0  0  0  0  0  0  0  0  0
   27.1787  -20.4323  -13.8515 C   0  0  1  0  0  0  0  0  0  0  0  0
   25.9516  -21.0506  -13.3024 C   0  0  0  0  0  0  0  0  0  0  0  0
   25.1633  -21.4503  -14.2365 O   0  0  0  0  0  0  0  0  0  0  0  0
   25.5932  -21.2295  -11.9709 N   0  0  0  0  0  0  0  0  0  0  0  0
   26.4700  -21.4320  -10.7979 C   0  0  0  0  0  0  0  0  0  0  0  0
   25.9376  -20.2931   -9.9126 C   0  0  0  0  0  0  0  0  0  0  0  0
   24.5172  -20.0088  -10.4153 C   0  0  0  0  0  0  0  0  0  0  0  0
   24.3325  -21.2300  -11.3137 C   0  0  1  0  0  0  0  0  0  0  0  0
   23.0978  -21.2848  -12.0134 C   0  0  0  0  0  0  0  0  0  0  0  0
   21.9950  -21.4583  -11.5072 O   0  0  0  0  0  0  0  0  0  0  0  0
   23.1211  -21.1244  -13.4492 N   0  0  0  0  0  0  0  0  0  0  0  0
   21.8789  -21.0084  -14.1834 C   0  0  0  0  0  0  0  0  0  0  0  0
   21.3809  -19.6126  -14.2001 C   0  0  0  0  0  0  0  0  0  0  0  0
   22.0606  -18.5688  -14.7799 O   0  0  0  0  0  0  0  0  0  0  0  0
   20.2746  -19.3766  -13.6520 O   0  0  0  0  0  0  0  0  0  0  0  0
  1  5  1  0
  1  2  1  0
  2  3  1  0
  3  4  1  0
  5  6  1  6
  5  4  1  0
  6  8  1  0
  7  6  2  0
  8 12  1  0
  8  9  1  0
 10  9  1  0
 11 12  1  0
 11 10  1  0
 12 13  1  6
 13 14  2  0
 13 15  1  0
 15 16  1  0
 17 16  1  0
 17 18  1  0
 19 17  2  0
M  END
$$$$
