PPG.pdb
     RDKit          3D

 19 20  0  0  1  0  0  0  0  0999 V2000
   18.7944  -13.1088  -16.6538 N   0  0  0  0  0  0  0  0  0  0  0  0
   17.4494  -13.3608  -17.1522 C   0  0  0  0  0  0  0  0  0  0  0  0
   17.2679  -12.5104  -18.3739 C   0  0  0  0  0  0  0  0  0  0  0  0
   18.1877  -11.3591  -18.1280 C   0  0  0  0  0  0  0  0  0  0  0  0
   19.3123  -11.9933  -17.3335 C   0  0  1  0  0  0  0  0  0  0  0  0
   20.0636  -10.9892  -16.5480 C   0  0  0  0  0  0  0  0  0  0  0  0
   19.3807  -10.5643  -15.5446 O   0  0  0  0  0  0  0  0  0  0  0  0
   21.3441  -10.4957  -16.7721 N   0  0  0  0  0  0  0  0  0  0  0  0
   22.5166  -11.1946  -17.3399 C   0  0  0  0  0  0  0  0  0  0  0  0
   22.8486  -10.2069  -18.4707 C   0  0  0  0  0  0  0  0  0  0  0  0
   22.2426   -8.8662  -18.0391 C   0  0  0  0  0  0  0  0  0  0  0  0
   21.9165   -9.2076  -16.5866 C   0  0  1  0  0  0  0  0  0  0  0  0
   21.2730   -8.1759  -15.8527 C   0  0  0  0  0  0  0  0  0  0  0  0
   20.2215   -7.6267  -16.1610 O   0  0  0  0  0  0  0  0  0  0  0  0
   21.8962   -7.7183  -14.6320 N   0  0  0  0  0  0  0  0  0  0  0  0
   21.3051   -6.6295  -13.8833 C   0  0  0  0  0  0  0  0  0  0  0  0
   21.7591   -5.3105  -14.3841 C   0  0  0  0  0  0  0  0  0  0  0  0
   21.3151   -4.7474  -15.5561 O   0  0  0  0  0  0  0  0  0  0  0  0
   22.5969   -4.6764  -13.6941 O   0  0  0  0  0  0  0  0  0  0  0  0
  1  5  1  0
  1  2  1  0
  2  3  1  0
  3  4  1  0
  5  6  1  1
  5  4  1  0
  6  8  1  0
  7  6  2  0
  8 12  1  0
  8  9  1  0
 10  9  1  0
 11 12  1  0
 11 10  1  0
 12 13  1  6
 13 14  2  0
 13 15  1  0
 15 16  1  0
 17 16  1  0
 17 18  1  0
 19 17  2  0
M  END
$$$$
