PPG.pdb
     RDKit          3D

 19 20  0  0  1  0  0  0  0  0999 V2000
   27.4428  -20.0573  -16.7184 N   0  0  0  0  0  0  0  0  0  0  0  0
   27.5527  -18.7945  -17.4354 C   0  0  0  0  0  0  0  0  0  0  0  0
   28.0557  -17.7764  -16.4560 C   0  0  0  0  0  0  0  0  0  0  0  0
   27.5662  -18.2949  -15.1432 C   0  0  0  0  0  0  0  0  0  0  0  0
   27.5931  -19.7970  -15.3458 C   0  0  1  0  0  0  0  0  0  0  0  0
   26.6895  -20.4943  -14.4041 C   0  0  0  0  0  0  0  0  0  0  0  0
   25.4913  -20.5701  -14.8649 O   0  0  0  0  0  0  0  0  0  0  0  0
   26.9875  -21.0371  -13.1591 N   0  0  0  0  0  0  0  0  0  0  0  0
   28.1772  -21.8145  -12.7517 C   0  0  0  0  0  0  0  0  0  0  0  0
   28.6081  -20.9621  -11.5466 C   0  0  0  0  0  0  0  0  0  0  0  0
   27.3446  -20.2223  -11.0912 C   0  0  0  0  0  0  0  0  0  0  0  0
   26.3094  -20.9903  -11.9104 C   0  0  1  0  0  0  0  0  0  0  0  0
   24.9715  -20.5331  -11.7757 C   0  0  0  0  0  0  0  0  0  0  0  0
   24.5935  -19.3750  -11.9114 O   0  0  0  0  0  0  0  0  0  0  0  0
   23.9504  -21.5021  -11.4499 N   0  0  0  0  0  0  0  0  0  0  0  0
   22.5936  -21.0648  -11.1979 C   0  0  0  0  0  0  0  0  0  0  0  0
   21.7699  -21.0979  -12.4295 C   0  0  0  0  0  0  0  0  0  0  0  0
   21.0048  -20.0418  -12.8621 O   0  0  0  0  0  0  0  0  0  0  0  0
   21.7754  -22.1533  -13.1122 O   0  0  0  0  0  0  0  0  0  0  0  0
  1  5  1  0
  1  2  1  0
  2  3  1  0
  3  4  1  0
  5  6  1  1
  5  4  1  0
  6  8  1  0
  7  6  2  0
  8 12  1  0
  8  9  1  0
 10  9  1  0
 11 12  1  0
 11 10  1  0
 12 13  1  6
 13 14  2  0
 13 15  1  0
 15 16  1  0
 17 16  1  0
 17 18  1  0
 19 17  2  0
M  END
$$$$
