WIY.pdb
     RDKit          3D

 35 37  0  0  1  0  0  0  0  0999 V2000
   28.6101  -21.2842  -10.2800 N   0  0  0  0  0  0  0  0  0  0  0  0
   27.1520  -21.3215  -10.0352 C   0  0  1  0  0  0  0  0  0  0  0  0
   26.9755  -20.6012   -8.7092 C   0  0  0  0  0  0  0  0  0  0  0  0
   28.1476  -20.7386   -7.8238 C   0  0  0  0  0  0  0  0  0  0  0  0
   29.4067  -21.2659   -8.1374 C   0  0  0  0  0  0  0  0  0  0  0  0
   30.2057  -21.2217   -7.0606 N   0  0  0  0  0  0  0  0  0  0  0  0
   29.5089  -20.6754   -6.0294 C   0  0  0  0  0  0  0  0  0  0  0  0
   29.9125  -20.4281   -4.7337 C   0  0  0  0  0  0  0  0  0  0  0  0
   28.9968  -19.8526   -3.8676 C   0  0  0  0  0  0  0  0  0  0  0  0
   27.7345  -19.5528   -4.3266 C   0  0  0  0  0  0  0  0  0  0  0  0
   27.3343  -19.8046   -5.6338 C   0  0  0  0  0  0  0  0  0  0  0  0
   28.2400  -20.3749   -6.4921 C   0  0  0  0  0  0  0  0  0  0  0  0
   26.4932  -20.4660  -11.0560 C   0  0  0  0  0  0  0  0  0  0  0  0
   26.8552  -19.2392  -11.2002 O   0  0  0  0  0  0  0  0  0  0  0  0
   28.2622  -19.1770  -14.6993 C   0  0  0  0  0  0  0  0  0  0  0  0
   27.2661  -19.3540  -13.5781 C   0  0  0  0  0  0  0  0  0  0  0  0
   26.1489  -20.2252  -14.0823 C   0  0  2  0  0  0  0  0  0  0  0  0
   25.5930  -19.5733  -15.3293 C   0  0  0  0  0  0  0  0  0  0  0  0
   25.0221  -20.3324  -13.0579 C   0  0  2  0  0  0  0  0  0  0  0  0
   25.4719  -21.0035  -11.8646 N   0  0  0  0  0  0  0  0  0  0  0  0
   23.8868  -20.9952  -13.7295 C   0  0  0  0  0  0  0  0  0  0  0  0
   24.0658  -22.1496  -14.1798 O   0  0  0  0  0  0  0  0  0  0  0  0
   17.2120  -24.4206   -9.9909 O   0  0  0  0  0  0  0  0  0  0  0  0
   18.3187  -23.7350  -10.4967 C   0  0  0  0  0  0  0  0  0  0  0  0
   19.2973  -24.3703  -11.2370 C   0  0  0  0  0  0  0  0  0  0  0  0
   20.3715  -23.6435  -11.7132 C   0  0  0  0  0  0  0  0  0  0  0  0
   20.4677  -22.2944  -11.4527 C   0  0  0  0  0  0  0  0  0  0  0  0
   21.6243  -21.5501  -11.9829 C   0  0  0  0  0  0  0  0  0  0  0  0
   21.4419  -21.1804  -13.4498 C   0  0  2  0  0  0  0  0  0  0  0  0
   22.6137  -20.4004  -13.8872 N   0  0  0  0  0  0  0  0  0  0  0  0
   20.2239  -20.4049  -13.6812 C   0  0  0  0  0  0  0  0  0  0  0  0
   20.1588  -19.1870  -13.4894 O   0  0  0  0  0  0  0  0  0  0  0  0
   19.4744  -21.6557  -10.7023 C   0  0  0  0  0  0  0  0  0  0  0  0
   18.3982  -22.3752  -10.2231 C   0  0  0  0  0  0  0  0  0  0  0  0
   19.0307  -21.0059  -14.1420 O   0  0  0  0  0  0  0  0  0  0  0  0
  2  1  1  6
  2  3  1  0
  3  4  1  0
  4  5  2  0
  6  5  1  0
  7  6  1  0
  8  7  2  0
  9  8  1  0
 10  9  2  0
 10 11  1  0
 11 12  2  0
 12  7  1  0
 12  4  1  0
 13  2  1  0
 14 13  2  0
 15 16  1  0
 17 19  1  0
 17 16  1  0
 17 18  1  6
 19 20  1  1
 20 13  1  0
 21 19  1  0
 21 22  2  0
 23 24  1  0
 24 34  2  0
 24 25  1  0
 25 26  2  0
 26 27  1  0
 27 28  1  0
 29 28  1  1
 29 30  1  0
 30 21  1  0
 31 29  1  0
 32 31  2  0
 33 27  2  0
 34 33  1  0
 35 31  1  0
M  END
$$$$
