WIY.pdb
     RDKit          3D

 35 37  0  0  1  0  0  0  0  0999 V2000
   25.3086  -20.1214  -19.7363 N   0  0  0  0  0  0  0  0  0  0  0  0
   25.1623  -19.2611  -18.5423 C   0  0  1  0  0  0  0  0  0  0  0  0
   23.7465  -18.7188  -18.6415 C   0  0  0  0  0  0  0  0  0  0  0  0
   23.6036  -17.6811  -19.6804 C   0  0  0  0  0  0  0  0  0  0  0  0
   22.9783  -17.7925  -20.9286 C   0  0  0  0  0  0  0  0  0  0  0  0
   23.0599  -16.6281  -21.5901 N   0  0  0  0  0  0  0  0  0  0  0  0
   23.7278  -15.7364  -20.8116 C   0  0  0  0  0  0  0  0  0  0  0  0
   24.0500  -14.4198  -21.0676 C   0  0  0  0  0  0  0  0  0  0  0  0
   24.7426  -13.7200  -20.0927 C   0  0  0  0  0  0  0  0  0  0  0  0
   25.0790  -14.3566  -18.9198 C   0  0  0  0  0  0  0  0  0  0  0  0
   24.7511  -15.6838  -18.6683 C   0  0  0  0  0  0  0  0  0  0  0  0
   24.0658  -16.3778  -19.6331 C   0  0  0  0  0  0  0  0  0  0  0  0
   25.1818  -20.1357  -17.3412 C   0  0  0  0  0  0  0  0  0  0  0  0
   24.6129  -21.2899  -17.3747 O   0  0  0  0  0  0  0  0  0  0  0  0
   29.0828  -19.1916  -13.4281 C   0  0  0  0  0  0  0  0  0  0  0  0
   27.7073  -19.1042  -14.0452 C   0  0  0  0  0  0  0  0  0  0  0  0
   27.2419  -20.5027  -14.3434 C   0  0  2  0  0  0  0  0  0  0  0  0
   28.2117  -21.1006  -15.3390 C   0  0  0  0  0  0  0  0  0  0  0  0
   25.8514  -20.5034  -14.9734 C   0  0  2  0  0  0  0  0  0  0  0  0
   25.8255  -19.6964  -16.1671 N   0  0  0  0  0  0  0  0  0  0  0  0
   24.9024  -20.0661  -13.9307 C   0  0  0  0  0  0  0  0  0  0  0  0
   24.2289  -19.0333  -14.1479 O   0  0  0  0  0  0  0  0  0  0  0  0
   18.1952  -21.1453   -8.8140 O   0  0  0  0  0  0  0  0  0  0  0  0
   19.2310  -20.8568   -9.7055 C   0  0  0  0  0  0  0  0  0  0  0  0
   19.6999  -19.5704   -9.8907 C   0  0  0  0  0  0  0  0  0  0  0  0
   20.7270  -19.3414  -10.7859 C   0  0  0  0  0  0  0  0  0  0  0  0
   21.2812  -20.3877  -11.4897 C   0  0  0  0  0  0  0  0  0  0  0  0
   22.3803  -20.1065  -12.4309 C   0  0  0  0  0  0  0  0  0  0  0  0
   23.7438  -20.1779  -11.7546 C   0  0  2  0  0  0  0  0  0  0  0  0
   24.7119  -20.7499  -12.7077 N   0  0  0  0  0  0  0  0  0  0  0  0
   23.7196  -20.9873  -10.5369 C   0  0  0  0  0  0  0  0  0  0  0  0
   23.3063  -20.5582   -9.4556 O   0  0  0  0  0  0  0  0  0  0  0  0
   20.8028  -21.6886  -11.2989 C   0  0  0  0  0  0  0  0  0  0  0  0
   19.7766  -21.9252  -10.4063 C   0  0  0  0  0  0  0  0  0  0  0  0
   24.1740  -22.3254  -10.5191 O   0  0  0  0  0  0  0  0  0  0  0  0
  2  1  1  6
  2  3  1  0
  3  4  1  0
  4  5  2  0
  6  5  1  0
  7  6  1  0
  8  7  2  0
  9  8  1  0
 10  9  2  0
 10 11  1  0
 11 12  2  0
 12  7  1  0
 12  4  1  0
 13  2  1  0
 14 13  2  0
 15 16  1  0
 17 19  1  0
 17 16  1  0
 17 18  1  6
 19 20  1  6
 20 13  1  0
 21 19  1  0
 21 22  2  0
 23 24  1  0
 24 34  2  0
 24 25  1  0
 25 26  2  0
 26 27  1  0
 27 28  1  0
 29 28  1  6
 29 30  1  0
 30 21  1  0
 31 29  1  0
 32 31  2  0
 33 27  2  0
 34 33  1  0
 35 31  1  0
M  END
$$$$
