WIY.pdb
     RDKit          3D

 35 37  0  0  1  0  0  0  0  0999 V2000
   22.1542  -19.9618  -17.4467 N   0  0  0  0  0  0  0  0  0  0  0  0
   22.6491  -19.0600  -16.3842 C   0  0  1  0  0  0  0  0  0  0  0  0
   21.5145  -19.0110  -15.3749 C   0  0  0  0  0  0  0  0  0  0  0  0
   20.4572  -18.0529  -15.7499 C   0  0  0  0  0  0  0  0  0  0  0  0
   20.4135  -17.2135  -16.8702 C   0  0  0  0  0  0  0  0  0  0  0  0
   19.2864  -16.4859  -16.8567 N   0  0  0  0  0  0  0  0  0  0  0  0
   18.5718  -16.8191  -15.7497 C   0  0  0  0  0  0  0  0  0  0  0  0
   17.3538  -16.3381  -15.3163 C   0  0  0  0  0  0  0  0  0  0  0  0
   16.8344  -16.8531  -14.1394 C   0  0  0  0  0  0  0  0  0  0  0  0
   17.5442  -17.8136  -13.4554 C   0  0  0  0  0  0  0  0  0  0  0  0
   18.7712  -18.2940  -13.8980 C   0  0  0  0  0  0  0  0  0  0  0  0
   19.2866  -17.7844  -15.0628 C   0  0  0  0  0  0  0  0  0  0  0  0
   23.7789  -19.7373  -15.6967 C   0  0  0  0  0  0  0  0  0  0  0  0
   23.7363  -21.0059  -15.4827 O   0  0  0  0  0  0  0  0  0  0  0  0
   28.8259  -18.3112  -16.9793 C   0  0  0  0  0  0  0  0  0  0  0  0
   27.5168  -18.9804  -16.6345 C   0  0  0  0  0  0  0  0  0  0  0  0
   27.3367  -18.9085  -15.1433 C   0  0  2  0  0  0  0  0  0  0  0  0
   28.5110  -19.6219  -14.5099 C   0  0  0  0  0  0  0  0  0  0  0  0
   26.0566  -19.6145  -14.7033 C   0  0  2  0  0  0  0  0  0  0  0  0
   24.8959  -18.9854  -15.2810 N   0  0  0  0  0  0  0  0  0  0  0  0
   26.0579  -19.6351  -13.2272 C   0  0  0  0  0  0  0  0  0  0  0  0
   25.8989  -18.5484  -12.6263 O   0  0  0  0  0  0  0  0  0  0  0  0
   20.0235  -19.6060  -10.9591 O   0  0  0  0  0  0  0  0  0  0  0  0
   21.3255  -20.0798  -10.7831 C   0  0  0  0  0  0  0  0  0  0  0  0
   22.0589  -19.7992   -9.6461 C   0  0  0  0  0  0  0  0  0  0  0  0
   23.3432  -20.2935   -9.5239 C   0  0  0  0  0  0  0  0  0  0  0  0
   23.8904  -21.0613  -10.5280 C   0  0  0  0  0  0  0  0  0  0  0  0
   25.2609  -21.5774  -10.3597 C   0  0  0  0  0  0  0  0  0  0  0  0
   26.2987  -20.6606  -10.9955 C   0  0  2  0  0  0  0  0  0  0  0  0
   26.2246  -20.8112  -12.4600 N   0  0  0  0  0  0  0  0  0  0  0  0
   27.6567  -20.9575  -10.5413 C   0  0  0  0  0  0  0  0  0  0  0  0
   28.5178  -21.4460  -11.2790 O   0  0  0  0  0  0  0  0  0  0  0  0
   23.1440  -21.3425  -11.6776 C   0  0  0  0  0  0  0  0  0  0  0  0
   21.8601  -20.8520  -11.8069 C   0  0  0  0  0  0  0  0  0  0  0  0
   28.0741  -20.7037   -9.2152 O   0  0  0  0  0  0  0  0  0  0  0  0
  2  1  1  6
  2  3  1  0
  3  4  1  0
  4  5  2  0
  6  5  1  0
  7  6  1  0
  8  7  2  0
  9  8  1  0
 10  9  2  0
 10 11  1  0
 11 12  2  0
 12  7  1  0
 12  4  1  0
 13  2  1  0
 14 13  2  0
 15 16  1  0
 17 19  1  0
 17 16  1  0
 17 18  1  1
 19 20  1  1
 20 13  1  0
 21 19  1  0
 21 22  2  0
 23 24  1  0
 24 34  2  0
 24 25  1  0
 25 26  2  0
 26 27  1  0
 27 28  1  0
 29 28  1  1
 29 30  1  0
 30 21  1  0
 31 29  1  0
 32 31  2  0
 33 27  2  0
 34 33  1  0
 35 31  1  0
M  END
$$$$
