WIY.pdb
     RDKit          3D

 35 37  0  0  1  0  0  0  0  0999 V2000
   21.1036  -15.6412  -16.6624 N   0  0  0  0  0  0  0  0  0  0  0  0
   21.3606  -14.4669  -17.5239 C   0  0  1  0  0  0  0  0  0  0  0  0
   19.9926  -14.0965  -18.0715 C   0  0  0  0  0  0  0  0  0  0  0  0
   19.4590  -15.1055  -19.0063 C   0  0  0  0  0  0  0  0  0  0  0  0
   20.0064  -16.3531  -19.3314 C   0  0  0  0  0  0  0  0  0  0  0  0
   19.2265  -16.9793  -20.2255 N   0  0  0  0  0  0  0  0  0  0  0  0
   18.1660  -16.1776  -20.5082 C   0  0  0  0  0  0  0  0  0  0  0  0
   17.1065  -16.3966  -21.3640 C   0  0  0  0  0  0  0  0  0  0  0  0
   16.1427  -15.4066  -21.4699 C   0  0  0  0  0  0  0  0  0  0  0  0
   16.2767  -14.2563  -20.7264 C   0  0  0  0  0  0  0  0  0  0  0  0
   17.3470  -14.0421  -19.8657 C   0  0  0  0  0  0  0  0  0  0  0  0
   18.3021  -15.0213  -19.7605 C   0  0  0  0  0  0  0  0  0  0  0  0
   21.7705  -13.3373  -16.6499 C   0  0  0  0  0  0  0  0  0  0  0  0
   21.0834  -13.0526  -15.5994 O   0  0  0  0  0  0  0  0  0  0  0  0
   26.8894  -10.5697  -14.9782 C   0  0  0  0  0  0  0  0  0  0  0  0
   25.3829  -10.4849  -15.0402 C   0  0  0  0  0  0  0  0  0  0  0  0
   24.8984  -11.5249  -16.0122 C   0  0  2  0  0  0  0  0  0  0  0  0
   25.4803  -11.1853  -17.3669 C   0  0  0  0  0  0  0  0  0  0  0  0
   23.3765  -11.5096  -16.1300 C   0  0  2  0  0  0  0  0  0  0  0  0
   22.9138  -12.5807  -16.9759 N   0  0  0  0  0  0  0  0  0  0  0  0
   22.9911  -10.1637  -16.5981 C   0  0  0  0  0  0  0  0  0  0  0  0
   22.9992   -9.9481  -17.8313 O   0  0  0  0  0  0  0  0  0  0  0  0
   19.0371   -3.3876  -19.6018 O   0  0  0  0  0  0  0  0  0  0  0  0
   19.5348   -4.5592  -19.0271 C   0  0  0  0  0  0  0  0  0  0  0  0
   20.6829   -5.1718  -19.4919 C   0  0  0  0  0  0  0  0  0  0  0  0
   21.1308   -6.3299  -18.8861 C   0  0  0  0  0  0  0  0  0  0  0  0
   20.4387   -6.8715  -17.8255 C   0  0  0  0  0  0  0  0  0  0  0  0
   20.9503   -8.1041  -17.1996 C   0  0  0  0  0  0  0  0  0  0  0  0
   22.1895   -7.8427  -16.3524 C   0  0  2  0  0  0  0  0  0  0  0  0
   22.6116   -9.1117  -15.7327 N   0  0  0  0  0  0  0  0  0  0  0  0
   21.9510   -6.8449  -15.3102 C   0  0  0  0  0  0  0  0  0  0  0  0
   21.6570   -7.1459  -14.1495 O   0  0  0  0  0  0  0  0  0  0  0  0
   19.2765   -6.2477  -17.3586 C   0  0  0  0  0  0  0  0  0  0  0  0
   18.8228   -5.0903  -17.9588 C   0  0  0  0  0  0  0  0  0  0  0  0
   22.0406   -5.4582  -15.5677 O   0  0  0  0  0  0  0  0  0  0  0  0
  2  1  1  1
  2  3  1  0
  3  4  1  0
  4  5  2  0
  6  5  1  0
  7  6  1  0
  8  7  2  0
  9  8  1  0
 10  9  2  0
 10 11  1  0
 11 12  2  0
 12  7  1  0
 12  4  1  0
 13  2  1  0
 14 13  2  0
 15 16  1  0
 17 19  1  0
 17 16  1  0
 17 18  1  6
 19 20  1  6
 20 13  1  0
 21 19  1  0
 21 22  2  0
 23 24  1  0
 24 34  2  0
 24 25  1  0
 25 26  2  0
 26 27  1  0
 27 28  1  0
 29 28  1  1
 29 30  1  0
 30 21  1  0
 31 29  1  0
 32 31  2  0
 33 27  2  0
 34 33  1  0
 35 31  1  0
M  END
$$$$
