WIY.pdb
     RDKit          3D

 35 37  0  0  1  0  0  0  0  0999 V2000
   13.3271  -23.0524   -0.9510 N   0  0  0  0  0  0  0  0  0  0  0  0
   13.1233  -22.9100    0.5069 C   0  0  1  0  0  0  0  0  0  0  0  0
   12.5451  -24.2473    0.9374 C   0  0  0  0  0  0  0  0  0  0  0  0
   11.1329  -24.4126    0.5437 C   0  0  0  0  0  0  0  0  0  0  0  0
   10.3419  -23.5389   -0.2130 C   0  0  0  0  0  0  0  0  0  0  0  0
    9.1061  -24.0418   -0.3542 N   0  0  0  0  0  0  0  0  0  0  0  0
    9.0506  -25.2359    0.2926 C   0  0  0  0  0  0  0  0  0  0  0  0
    7.9945  -26.1142    0.4201 C   0  0  0  0  0  0  0  0  0  0  0  0
    8.2037  -27.2804    1.1386 C   0  0  0  0  0  0  0  0  0  0  0  0
    9.4419  -27.5161    1.6912 C   0  0  0  0  0  0  0  0  0  0  0  0
   10.5019  -26.6266    1.5588 C   0  0  0  0  0  0  0  0  0  0  0  0
   10.2957  -25.4714    0.8481 C   0  0  0  0  0  0  0  0  0  0  0  0
   14.4595  -22.8162    1.1501 C   0  0  0  0  0  0  0  0  0  0  0  0
   15.4638  -23.4428    0.6448 O   0  0  0  0  0  0  0  0  0  0  0  0
   16.4012  -18.1628    2.8270 C   0  0  0  0  0  0  0  0  0  0  0  0
   16.2733  -19.5656    2.2826 C   0  0  0  0  0  0  0  0  0  0  0  0
   16.1551  -20.5077    3.4486 C   0  0  2  0  0  0  0  0  0  0  0  0
   17.4762  -20.4847    4.1857 C   0  0  0  0  0  0  0  0  0  0  0  0
   15.8940  -21.9381    2.9834 C   0  0  2  0  0  0  0  0  0  0  0  0
   14.6217  -22.0387    2.3142 N   0  0  0  0  0  0  0  0  0  0  0  0
   16.0215  -22.8097    4.1679 C   0  0  0  0  0  0  0  0  0  0  0  0
   15.0005  -23.0011    4.8667 O   0  0  0  0  0  0  0  0  0  0  0  0
   17.8736  -29.2668    1.7157 O   0  0  0  0  0  0  0  0  0  0  0  0
   17.4217  -28.2991    2.6158 C   0  0  0  0  0  0  0  0  0  0  0  0
   16.4959  -27.3392    2.2545 C   0  0  0  0  0  0  0  0  0  0  0  0
   16.0836  -26.4051    3.1852 C   0  0  0  0  0  0  0  0  0  0  0  0
   16.5911  -26.4293    4.4654 C   0  0  0  0  0  0  0  0  0  0  0  0
   16.1227  -25.4212    5.4335 C   0  0  0  0  0  0  0  0  0  0  0  0
   17.1779  -24.3560    5.7047 C   0  0  2  0  0  0  0  0  0  0  0  0
   17.2281  -23.4396    4.5513 N   0  0  0  0  0  0  0  0  0  0  0  0
   18.5036  -24.9306    5.9310 C   0  0  0  0  0  0  0  0  0  0  0  0
   18.7549  -25.6826    6.8773 O   0  0  0  0  0  0  0  0  0  0  0  0
   17.5287  -27.4031    4.8265 C   0  0  0  0  0  0  0  0  0  0  0  0
   17.9455  -28.3397    3.9020 C   0  0  0  0  0  0  0  0  0  0  0  0
   19.5934  -24.6576    5.0737 O   0  0  0  0  0  0  0  0  0  0  0  0
  2  1  1  6
  2  3  1  0
  3  4  1  0
  4  5  2  0
  6  5  1  0
  7  6  1  0
  8  7  2  0
  9  8  1  0
 10  9  2  0
 10 11  1  0
 11 12  2  0
 12  7  1  0
 12  4  1  0
 13  2  1  0
 14 13  2  0
 15 16  1  0
 17 19  1  0
 17 16  1  0
 17 18  1  6
 19 20  1  1
 20 13  1  0
 21 19  1  0
 21 22  2  0
 23 24  1  0
 24 34  2  0
 24 25  1  0
 25 26  2  0
 26 27  1  0
 27 28  1  0
 29 28  1  6
 29 30  1  0
 30 21  1  0
 31 29  1  0
 32 31  2  0
 33 27  2  0
 34 33  1  0
 35 31  1  0
M  END
$$$$
