WIY.pdb
     RDKit          3D

 35 37  0  0  1  0  0  0  0  0999 V2000
   22.3646  -21.1944  -15.4983 N   0  0  0  0  0  0  0  0  0  0  0  0
   22.9547  -20.2215  -14.5536 C   0  0  1  0  0  0  0  0  0  0  0  0
   21.9375  -20.1259  -13.4291 C   0  0  0  0  0  0  0  0  0  0  0  0
   20.6535  -19.5468  -13.8678 C   0  0  0  0  0  0  0  0  0  0  0  0
   19.3606  -20.0051  -13.5849 C   0  0  0  0  0  0  0  0  0  0  0  0
   18.4519  -19.2092  -14.1686 N   0  0  0  0  0  0  0  0  0  0  0  0
   19.1081  -18.2252  -14.8384 C   0  0  0  0  0  0  0  0  0  0  0  0
   18.5975  -17.1816  -15.5820 C   0  0  0  0  0  0  0  0  0  0  0  0
   19.4944  -16.3029  -16.1681 C   0  0  0  0  0  0  0  0  0  0  0  0
   20.8443  -16.5015  -15.9885 C   0  0  0  0  0  0  0  0  0  0  0  0
   21.3521  -17.5555  -15.2377 C   0  0  0  0  0  0  0  0  0  0  0  0
   20.4650  -18.4264  -14.6575 C   0  0  0  0  0  0  0  0  0  0  0  0
   24.1673  -20.8389  -13.9566 C   0  0  0  0  0  0  0  0  0  0  0  0
   24.1933  -22.1021  -13.7107 O   0  0  0  0  0  0  0  0  0  0  0  0
   28.0789  -18.3955  -15.3496 C   0  0  0  0  0  0  0  0  0  0  0  0
   27.8999  -19.8239  -14.8932 C   0  0  0  0  0  0  0  0  0  0  0  0
   27.7092  -19.8148  -13.4016 C   0  0  2  0  0  0  0  0  0  0  0  0
   28.9001  -20.5178  -12.7880 C   0  0  0  0  0  0  0  0  0  0  0  0
   26.4478  -20.5740  -12.9979 C   0  0  2  0  0  0  0  0  0  0  0  0
   25.2873  -20.0361  -13.6617 N   0  0  0  0  0  0  0  0  0  0  0  0
   26.3704  -20.5343  -11.5243 C   0  0  0  0  0  0  0  0  0  0  0  0
   26.0816  -19.4434  -10.9822 O   0  0  0  0  0  0  0  0  0  0  0  0
   28.6377  -19.3368   -3.5454 O   0  0  0  0  0  0  0  0  0  0  0  0
   28.4262  -19.5733   -4.9056 C   0  0  0  0  0  0  0  0  0  0  0  0
   27.9203  -18.6013   -5.7473 C   0  0  0  0  0  0  0  0  0  0  0  0
   27.7306  -18.8893   -7.0851 C   0  0  0  0  0  0  0  0  0  0  0  0
   28.0433  -20.1368   -7.5782 C   0  0  0  0  0  0  0  0  0  0  0  0
   27.8343  -20.4057   -9.0124 C   0  0  0  0  0  0  0  0  0  0  0  0
   26.7207  -21.4190   -9.2472 C   0  0  2  0  0  0  0  0  0  0  0  0
   26.6004  -21.6577  -10.6968 N   0  0  0  0  0  0  0  0  0  0  0  0
   25.4350  -20.9659   -8.7178 C   0  0  0  0  0  0  0  0  0  0  0  0
   24.5349  -20.5198   -9.4354 O   0  0  0  0  0  0  0  0  0  0  0  0
   28.5550  -21.1179   -6.7219 C   0  0  0  0  0  0  0  0  0  0  0  0
   28.7472  -20.8376   -5.3840 C   0  0  0  0  0  0  0  0  0  0  0  0
   25.1382  -21.0080   -7.3367 O   0  0  0  0  0  0  0  0  0  0  0  0
  2  1  1  6
  2  3  1  0
  3  4  1  0
  4  5  2  0
  6  5  1  0
  7  6  1  0
  8  7  2  0
  9  8  1  0
 10  9  2  0
 10 11  1  0
 11 12  2  0
 12  7  1  0
 12  4  1  0
 13  2  1  0
 14 13  2  0
 15 16  1  0
 17 19  1  0
 17 16  1  0
 17 18  1  1
 19 20  1  6
 20 13  1  0
 21 19  1  0
 21 22  2  0
 23 24  1  0
 24 34  2  0
 24 25  1  0
 25 26  2  0
 26 27  1  0
 27 28  1  0
 29 28  1  6
 29 30  1  0
 30 21  1  0
 31 29  1  0
 32 31  2  0
 33 27  2  0
 34 33  1  0
 35 31  1  0
M  END
$$$$
