WIY.pdb
     RDKit          3D

 35 37  0  0  1  0  0  0  0  0999 V2000
   27.0249  -19.5132  -11.1488 N   0  0  0  0  0  0  0  0  0  0  0  0
   26.5252  -20.8172  -11.6358 C   0  0  1  0  0  0  0  0  0  0  0  0
   25.9892  -21.5026  -10.3903 C   0  0  0  0  0  0  0  0  0  0  0  0
   26.4694  -20.8781   -9.1430 C   0  0  0  0  0  0  0  0  0  0  0  0
   25.7343  -20.1260   -8.2179 C   0  0  0  0  0  0  0  0  0  0  0  0
   26.5292  -19.7267   -7.2136 N   0  0  0  0  0  0  0  0  0  0  0  0
   27.7839  -20.1952   -7.4452 C   0  0  0  0  0  0  0  0  0  0  0  0
   28.9289  -20.0411   -6.6915 C   0  0  0  0  0  0  0  0  0  0  0  0
   30.0948  -20.6294   -7.1548 C   0  0  0  0  0  0  0  0  0  0  0  0
   30.0672  -21.3370   -8.3349 C   0  0  0  0  0  0  0  0  0  0  0  0
   28.9096  -21.4885   -9.0896 C   0  0  0  0  0  0  0  0  0  0  0  0
   27.7549  -20.9059   -8.6320 C   0  0  0  0  0  0  0  0  0  0  0  0
   25.3451  -20.5621  -12.5020 C   0  0  0  0  0  0  0  0  0  0  0  0
   24.8604  -19.3735  -12.5978 O   0  0  0  0  0  0  0  0  0  0  0  0
   25.6334  -19.5612  -17.2631 C   0  0  0  0  0  0  0  0  0  0  0  0
   25.2892  -20.9858  -16.8990 C   0  0  0  0  0  0  0  0  0  0  0  0
   25.6506  -21.1967  -15.4546 C   0  0  2  0  0  0  0  0  0  0  0  0
   26.5723  -22.3947  -15.3882 C   0  0  0  0  0  0  0  0  0  0  0  0
   24.4149  -21.4989  -14.6108 C   0  0  2  0  0  0  0  0  0  0  0  0
   24.7603  -21.6260  -13.2175 N   0  0  0  0  0  0  0  0  0  0  0  0
   23.7805  -22.7015  -15.1856 C   0  0  0  0  0  0  0  0  0  0  0  0
   23.8761  -22.8802  -16.4210 O   0  0  0  0  0  0  0  0  0  0  0  0
   16.6019  -20.4951  -11.4635 O   0  0  0  0  0  0  0  0  0  0  0  0
   17.8754  -20.8629  -11.9038 C   0  0  0  0  0  0  0  0  0  0  0  0
   18.5526  -20.1418  -12.8685 C   0  0  0  0  0  0  0  0  0  0  0  0
   19.8106  -20.5506  -13.2675 C   0  0  0  0  0  0  0  0  0  0  0  0
   20.3873  -21.6695  -12.7081 C   0  0  0  0  0  0  0  0  0  0  0  0
   21.7337  -22.0716  -13.1534 C   0  0  0  0  0  0  0  0  0  0  0  0
   21.6988  -23.3266  -14.0168 C   0  0  2  0  0  0  0  0  0  0  0  0
   23.0774  -23.6592  -14.4187 N   0  0  0  0  0  0  0  0  0  0  0  0
   20.8686  -23.1591  -15.2091 C   0  0  0  0  0  0  0  0  0  0  0  0
   19.8638  -23.8425  -15.4269 O   0  0  0  0  0  0  0  0  0  0  0  0
   19.6974  -22.3966  -11.7318 C   0  0  0  0  0  0  0  0  0  0  0  0
   18.4401  -21.9943  -11.3281 C   0  0  0  0  0  0  0  0  0  0  0  0
   21.1674  -22.1960  -16.1993 O   0  0  0  0  0  0  0  0  0  0  0  0
  2  1  1  1
  2  3  1  0
  3  4  1  0
  4  5  2  0
  6  5  1  0
  7  6  1  0
  8  7  2  0
  9  8  1  0
 10  9  2  0
 10 11  1  0
 11 12  2  0
 12  7  1  0
 12  4  1  0
 13  2  1  0
 14 13  2  0
 15 16  1  0
 17 19  1  0
 17 16  1  0
 17 18  1  6
 19 20  1  1
 20 13  1  0
 21 19  1  0
 21 22  2  0
 23 24  1  0
 24 34  2  0
 24 25  1  0
 25 26  2  0
 26 27  1  0
 27 28  1  0
 29 28  1  6
 29 30  1  0
 30 21  1  0
 31 29  1  0
 32 31  2  0
 33 27  2  0
 34 33  1  0
 35 31  1  0
M  END
$$$$
