WIY.pdb
     RDKit          3D

 35 37  0  0  1  0  0  0  0  0999 V2000
   27.7417  -22.3257  -10.0173 N   0  0  0  0  0  0  0  0  0  0  0  0
   26.8174  -21.2652   -9.5609 C   0  0  1  0  0  0  0  0  0  0  0  0
   27.6491  -19.9947   -9.6127 C   0  0  0  0  0  0  0  0  0  0  0  0
   28.6621  -19.9309   -8.5421 C   0  0  0  0  0  0  0  0  0  0  0  0
   30.0263  -20.2363   -8.6280 C   0  0  0  0  0  0  0  0  0  0  0  0
   30.6143  -20.0570   -7.4355 N   0  0  0  0  0  0  0  0  0  0  0  0
   29.6727  -19.6373   -6.5497 C   0  0  0  0  0  0  0  0  0  0  0  0
   29.8058  -19.3252   -5.2127 C   0  0  0  0  0  0  0  0  0  0  0  0
   28.6743  -18.9140   -4.5266 C   0  0  0  0  0  0  0  0  0  0  0  0
   27.4748  -18.8331   -5.1965 C   0  0  0  0  0  0  0  0  0  0  0  0
   27.3477  -19.1491   -6.5443 C   0  0  0  0  0  0  0  0  0  0  0  0
   28.4673  -19.5570   -7.2243 C   0  0  0  0  0  0  0  0  0  0  0  0
   25.7594  -21.1036  -10.5916 C   0  0  0  0  0  0  0  0  0  0  0  0
   26.0336  -21.3010  -11.8336 O   0  0  0  0  0  0  0  0  0  0  0  0
   19.6365  -21.4719  -10.1751 C   0  0  0  0  0  0  0  0  0  0  0  0
   20.8464  -21.3929  -11.0753 C   0  0  0  0  0  0  0  0  0  0  0  0
   22.0220  -20.9711  -10.2378 C   0  0  2  0  0  0  0  0  0  0  0  0
   21.7688  -19.5501   -9.7840 C   0  0  0  0  0  0  0  0  0  0  0  0
   23.3162  -20.9892  -11.0473 C   0  0  2  0  0  0  0  0  0  0  0  0
   24.4561  -20.7341  -10.2033 N   0  0  0  0  0  0  0  0  0  0  0  0
   23.1532  -20.0190  -12.1479 C   0  0  0  0  0  0  0  0  0  0  0  0
   23.9922  -19.0946  -12.2426 O   0  0  0  0  0  0  0  0  0  0  0  0
   24.3976  -17.1625  -19.9464 O   0  0  0  0  0  0  0  0  0  0  0  0
   24.1677  -17.8416  -18.7478 C   0  0  0  0  0  0  0  0  0  0  0  0
   23.5507  -19.0775  -18.7137 C   0  0  0  0  0  0  0  0  0  0  0  0
   23.3480  -19.7051  -17.4997 C   0  0  0  0  0  0  0  0  0  0  0  0
   23.7578  -19.1040  -16.3301 C   0  0  0  0  0  0  0  0  0  0  0  0
   23.5311  -19.8065  -15.0541 C   0  0  0  0  0  0  0  0  0  0  0  0
   22.2777  -19.3105  -14.3437 C   0  0  2  0  0  0  0  0  0  0  0  0
   22.1077  -20.0800  -13.0981 N   0  0  0  0  0  0  0  0  0  0  0  0
   21.0789  -19.4462  -15.1701 C   0  0  0  0  0  0  0  0  0  0  0  0
   20.5086  -20.5262  -15.3505 O   0  0  0  0  0  0  0  0  0  0  0  0
   24.3818  -17.8524  -16.3697 C   0  0  0  0  0  0  0  0  0  0  0  0
   24.5878  -17.2191  -17.5789 C   0  0  0  0  0  0  0  0  0  0  0  0
   20.4914  -18.3392  -15.8233 O   0  0  0  0  0  0  0  0  0  0  0  0
  2  1  1  6
  2  3  1  0
  3  4  1  0
  4  5  2  0
  6  5  1  0
  7  6  1  0
  8  7  2  0
  9  8  1  0
 10  9  2  0
 10 11  1  0
 11 12  2  0
 12  7  1  0
 12  4  1  0
 13  2  1  0
 14 13  2  0
 15 16  1  0
 17 19  1  0
 17 16  1  0
 17 18  1  6
 19 20  1  1
 20 13  1  0
 21 19  1  0
 21 22  2  0
 23 24  1  0
 24 34  2  0
 24 25  1  0
 25 26  2  0
 26 27  1  0
 27 28  1  0
 29 28  1  6
 29 30  1  0
 30 21  1  0
 31 29  1  0
 32 31  2  0
 33 27  2  0
 34 33  1  0
 35 31  1  0
M  END
$$$$
