WIY.pdb
     RDKit          3D

 35 37  0  0  1  0  0  0  0  0999 V2000
   23.6952  -20.9488  -17.1025 N   0  0  0  0  0  0  0  0  0  0  0  0
   24.0118  -19.9166  -16.0916 C   0  0  1  0  0  0  0  0  0  0  0  0
   22.6624  -19.5420  -15.5024 C   0  0  0  0  0  0  0  0  0  0  0  0
   21.8325  -18.7522  -16.4319 C   0  0  0  0  0  0  0  0  0  0  0  0
   20.5566  -19.0597  -16.9210 C   0  0  0  0  0  0  0  0  0  0  0  0
   20.1348  -18.0915  -17.7484 N   0  0  0  0  0  0  0  0  0  0  0  0
   21.1018  -17.1394  -17.8255 C   0  0  0  0  0  0  0  0  0  0  0  0
   21.1173  -15.9637  -18.5469 C   0  0  0  0  0  0  0  0  0  0  0  0
   22.2392  -15.1566  -18.4480 C   0  0  0  0  0  0  0  0  0  0  0  0
   23.2832  -15.5529  -17.6435 C   0  0  0  0  0  0  0  0  0  0  0  0
   23.2610  -16.7392  -16.9191 C   0  0  0  0  0  0  0  0  0  0  0  0
   22.1509  -17.5393  -17.0168 C   0  0  0  0  0  0  0  0  0  0  0  0
   24.7710  -20.5679  -14.9929 C   0  0  0  0  0  0  0  0  0  0  0  0
   24.3654  -21.6874  -14.5041 O   0  0  0  0  0  0  0  0  0  0  0  0
   30.2014  -20.5502  -14.5809 C   0  0  0  0  0  0  0  0  0  0  0  0
   28.7132  -20.8037  -14.6179 C   0  0  0  0  0  0  0  0  0  0  0  0
   28.1064  -20.1896  -13.3867 C   0  0  2  0  0  0  0  0  0  0  0  0
   28.7588  -20.8406  -12.1868 C   0  0  0  0  0  0  0  0  0  0  0  0
   26.6048  -20.4555  -13.3152 C   0  0  2  0  0  0  0  0  0  0  0  0
   25.9359  -19.9551  -14.4895 N   0  0  0  0  0  0  0  0  0  0  0  0
   26.1200  -19.8686  -12.0505 C   0  0  0  0  0  0  0  0  0  0  0  0
   25.2177  -19.0030  -12.1146 O   0  0  0  0  0  0  0  0  0  0  0  0
   20.6767  -21.5186   -5.9142 O   0  0  0  0  0  0  0  0  0  0  0  0
   21.6173  -21.4356   -6.9433 C   0  0  0  0  0  0  0  0  0  0  0  0
   21.3731  -20.7239   -8.1022 C   0  0  0  0  0  0  0  0  0  0  0  0
   22.3391  -20.6751   -9.0887 C   0  0  0  0  0  0  0  0  0  0  0  0
   23.5385  -21.3310   -8.9195 C   0  0  0  0  0  0  0  0  0  0  0  0
   24.5483  -21.2508   -9.9904 C   0  0  0  0  0  0  0  0  0  0  0  0
   25.6556  -20.2582   -9.6582 C   0  0  2  0  0  0  0  0  0  0  0  0
   26.6151  -20.2327  -10.7769 N   0  0  0  0  0  0  0  0  0  0  0  0
   26.3561  -20.5992   -8.4206 C   0  0  0  0  0  0  0  0  0  0  0  0
   27.0886  -21.5875   -8.3161 O   0  0  0  0  0  0  0  0  0  0  0  0
   23.7811  -22.0505   -7.7443 C   0  0  0  0  0  0  0  0  0  0  0  0
   22.8206  -22.1039   -6.7541 C   0  0  0  0  0  0  0  0  0  0  0  0
   26.2368  -19.8126   -7.2526 O   0  0  0  0  0  0  0  0  0  0  0  0
  2  1  1  6
  2  3  1  0
  3  4  1  0
  4  5  2  0
  6  5  1  0
  7  6  1  0
  8  7  2  0
  9  8  1  0
 10  9  2  0
 10 11  1  0
 11 12  2  0
 12  7  1  0
 12  4  1  0
 13  2  1  0
 14 13  2  0
 15 16  1  0
 17 19  1  0
 17 16  1  0
 17 18  1  1
 19 20  1  6
 20 13  1  0
 21 19  1  0
 21 22  2  0
 23 24  1  0
 24 34  2  0
 24 25  1  0
 25 26  2  0
 26 27  1  0
 27 28  1  0
 29 28  1  6
 29 30  1  0
 30 21  1  0
 31 29  1  0
 32 31  2  0
 33 27  2  0
 34 33  1  0
 35 31  1  0
M  END
$$$$
