WIY.pdb
     RDKit          3D

 35 37  0  0  1  0  0  0  0  0999 V2000
   26.1893  -20.3889  -18.0656 N   0  0  0  0  0  0  0  0  0  0  0  0
   26.3973  -19.5209  -16.8864 C   0  0  1  0  0  0  0  0  0  0  0  0
   25.1038  -18.7329  -16.7676 C   0  0  0  0  0  0  0  0  0  0  0  0
   25.0093  -17.6380  -17.7519 C   0  0  0  0  0  0  0  0  0  0  0  0
   24.1405  -17.5359  -18.8458 C   0  0  0  0  0  0  0  0  0  0  0  0
   24.3645  -16.3899  -19.5064 N   0  0  0  0  0  0  0  0  0  0  0  0
   25.3666  -15.7197  -18.8786 C   0  0  0  0  0  0  0  0  0  0  0  0
   25.9360  -14.5028  -19.1913 C   0  0  0  0  0  0  0  0  0  0  0  0
   26.9549  -14.0350  -18.3770 C   0  0  0  0  0  0  0  0  0  0  0  0
   27.3556  -14.7923  -17.3000 C   0  0  0  0  0  0  0  0  0  0  0  0
   26.7773  -16.0179  -16.9906 C   0  0  0  0  0  0  0  0  0  0  0  0
   25.7688  -16.4823  -17.7965 C   0  0  0  0  0  0  0  0  0  0  0  0
   26.4591  -20.3893  -15.6823 C   0  0  0  0  0  0  0  0  0  0  0  0
   25.7317  -21.4491  -15.6137 O   0  0  0  0  0  0  0  0  0  0  0  0
   29.8982  -21.2947  -10.6653 C   0  0  0  0  0  0  0  0  0  0  0  0
   28.5324  -21.3833  -11.3033 C   0  0  0  0  0  0  0  0  0  0  0  0
   28.5772  -20.6299  -12.6039 C   0  0  2  0  0  0  0  0  0  0  0  0
   28.8361  -19.1756  -12.2767 C   0  0  0  0  0  0  0  0  0  0  0  0
   27.2460  -20.7216  -13.3456 C   0  0  2  0  0  0  0  0  0  0  0  0
   27.3168  -20.0480  -14.6176 N   0  0  0  0  0  0  0  0  0  0  0  0
   26.2076  -20.1909  -12.4406 C   0  0  0  0  0  0  0  0  0  0  0  0
   25.3319  -19.4417  -12.9296 O   0  0  0  0  0  0  0  0  0  0  0  0
   18.5836  -20.7147   -9.2185 O   0  0  0  0  0  0  0  0  0  0  0  0
   19.8538  -20.7056   -9.7991 C   0  0  0  0  0  0  0  0  0  0  0  0
   20.0417  -20.4515  -11.1442 C   0  0  0  0  0  0  0  0  0  0  0  0
   21.3207  -20.4550  -11.6666 C   0  0  0  0  0  0  0  0  0  0  0  0
   22.4026  -20.7098  -10.8531 C   0  0  0  0  0  0  0  0  0  0  0  0
   23.7530  -20.6983  -11.4440 C   0  0  0  0  0  0  0  0  0  0  0  0
   24.8286  -20.4053  -10.4052 C   0  0  2  0  0  0  0  0  0  0  0  0
   26.1474  -20.4852  -11.0587 N   0  0  0  0  0  0  0  0  0  0  0  0
   24.7834  -21.3372   -9.2791 C   0  0  0  0  0  0  0  0  0  0  0  0
   25.3883  -22.4134   -9.2757 O   0  0  0  0  0  0  0  0  0  0  0  0
   22.2072  -20.9669   -9.4917 C   0  0  0  0  0  0  0  0  0  0  0  0
   20.9322  -20.9651   -8.9625 C   0  0  0  0  0  0  0  0  0  0  0  0
   24.0355  -21.0637   -8.1115 O   0  0  0  0  0  0  0  0  0  0  0  0
  2  1  1  6
  2  3  1  0
  3  4  1  0
  4  5  2  0
  6  5  1  0
  7  6  1  0
  8  7  2  0
  9  8  1  0
 10  9  2  0
 10 11  1  0
 11 12  2  0
 12  7  1  0
 12  4  1  0
 13  2  1  0
 14 13  2  0
 15 16  1  0
 17 19  1  0
 17 16  1  0
 17 18  1  1
 19 20  1  6
 20 13  1  0
 21 19  1  0
 21 22  2  0
 23 24  1  0
 24 34  2  0
 24 25  1  0
 25 26  2  0
 26 27  1  0
 27 28  1  0
 29 28  1  6
 29 30  1  0
 30 21  1  0
 31 29  1  0
 32 31  2  0
 33 27  2  0
 34 33  1  0
 35 31  1  0
M  END
$$$$
