WIY.pdb
     RDKit          3D

 35 37  0  0  1  0  0  0  0  0999 V2000
   30.3439   -8.8168  -19.4367 N   0  0  0  0  0  0  0  0  0  0  0  0
   28.9355   -9.2467  -19.5729 C   0  0  1  0  0  0  0  0  0  0  0  0
   28.7354   -9.4079  -21.0704 C   0  0  0  0  0  0  0  0  0  0  0  0
   28.5745   -8.1176  -21.7675 C   0  0  0  0  0  0  0  0  0  0  0  0
   29.4935   -7.0641  -21.8525 C   0  0  0  0  0  0  0  0  0  0  0  0
   28.9752   -6.0578  -22.5726 N   0  0  0  0  0  0  0  0  0  0  0  0
   27.7261   -6.4137  -22.9732 C   0  0  0  0  0  0  0  0  0  0  0  0
   26.8152   -5.7072  -23.7309 C   0  0  0  0  0  0  0  0  0  0  0  0
   25.5958   -6.3059  -24.0043 C   0  0  0  0  0  0  0  0  0  0  0  0
   25.3422   -7.5673  -23.5159 C   0  0  0  0  0  0  0  0  0  0  0  0
   26.2648   -8.2737  -22.7529 C   0  0  0  0  0  0  0  0  0  0  0  0
   27.4722   -7.6817  -22.4812 C   0  0  0  0  0  0  0  0  0  0  0  0
   28.8138  -10.6102  -18.9951 C   0  0  0  0  0  0  0  0  0  0  0  0
   29.8155  -11.4178  -19.0317 O   0  0  0  0  0  0  0  0  0  0  0  0
   26.9312  -11.2929  -14.2072 C   0  0  0  0  0  0  0  0  0  0  0  0
   27.6863  -11.4679  -15.5033 C   0  0  0  0  0  0  0  0  0  0  0  0
   26.8146  -12.2493  -16.4471 C   0  0  2  0  0  0  0  0  0  0  0  0
   26.7006  -13.6553  -15.9001 C   0  0  0  0  0  0  0  0  0  0  0  0
   27.4348  -12.3288  -17.8398 C   0  0  2  0  0  0  0  0  0  0  0  0
   27.5984  -11.0144  -18.4074 N   0  0  0  0  0  0  0  0  0  0  0  0
   26.5844  -13.2294  -18.6427 C   0  0  0  0  0  0  0  0  0  0  0  0
   26.5573  -14.4416  -18.3310 O   0  0  0  0  0  0  0  0  0  0  0  0
   20.4507  -18.0552  -21.7891 O   0  0  0  0  0  0  0  0  0  0  0  0
   21.3387  -17.1409  -21.2180 C   0  0  0  0  0  0  0  0  0  0  0  0
   22.6384  -17.0049  -21.6671 C   0  0  0  0  0  0  0  0  0  0  0  0
   23.4748  -16.0844  -21.0656 C   0  0  0  0  0  0  0  0  0  0  0  0
   23.0176  -15.3065  -20.0250 C   0  0  0  0  0  0  0  0  0  0  0  0
   23.9363  -14.3300  -19.4122 C   0  0  0  0  0  0  0  0  0  0  0  0
   24.9614  -13.8058  -20.4103 C   0  0  2  0  0  0  0  0  0  0  0  0
   25.7999  -12.7975  -19.7372 N   0  0  0  0  0  0  0  0  0  0  0  0
   24.3356  -13.2122  -21.5912 C   0  0  0  0  0  0  0  0  0  0  0  0
   23.9161  -12.0513  -21.6147 O   0  0  0  0  0  0  0  0  0  0  0  0
   21.7009  -15.4480  -19.5735 C   0  0  0  0  0  0  0  0  0  0  0  0
   20.8592  -16.3656  -20.1695 C   0  0  0  0  0  0  0  0  0  0  0  0
   24.1673  -13.9371  -22.7926 O   0  0  0  0  0  0  0  0  0  0  0  0
  2  1  1  6
  2  3  1  0
  3  4  1  0
  4  5  2  0
  6  5  1  0
  7  6  1  0
  8  7  2  0
  9  8  1  0
 10  9  2  0
 10 11  1  0
 11 12  2  0
 12  7  1  0
 12  4  1  0
 13  2  1  0
 14 13  2  0
 15 16  1  0
 17 19  1  0
 17 16  1  0
 17 18  1  1
 19 20  1  6
 20 13  1  0
 21 19  1  0
 21 22  2  0
 23 24  1  0
 24 34  2  0
 24 25  1  0
 25 26  2  0
 26 27  1  0
 27 28  1  0
 29 28  1  1
 29 30  1  0
 30 21  1  0
 31 29  1  0
 32 31  2  0
 33 27  2  0
 34 33  1  0
 35 31  1  0
M  END
$$$$
