WIY.pdb
     RDKit          3D

 35 37  0  0  1  0  0  0  0  0999 V2000
   26.4446  -20.7537  -17.0651 N   0  0  0  0  0  0  0  0  0  0  0  0
   26.6578  -20.1314  -15.7405 C   0  0  1  0  0  0  0  0  0  0  0  0
   26.0168  -18.7594  -15.8627 C   0  0  0  0  0  0  0  0  0  0  0  0
   26.7157  -17.8859  -16.8246 C   0  0  0  0  0  0  0  0  0  0  0  0
   26.1597  -17.1367  -17.8692 C   0  0  0  0  0  0  0  0  0  0  0  0
   27.1243  -16.4728  -18.5240 N   0  0  0  0  0  0  0  0  0  0  0  0
   28.3176  -16.7610  -17.9406 C   0  0  0  0  0  0  0  0  0  0  0  0
   29.5815  -16.3137  -18.2653 C   0  0  0  0  0  0  0  0  0  0  0  0
   30.6453  -16.7630  -17.4995 C   0  0  0  0  0  0  0  0  0  0  0  0
   30.4043  -17.6278  -16.4564 C   0  0  0  0  0  0  0  0  0  0  0  0
   29.1278  -18.0746  -16.1346 C   0  0  0  0  0  0  0  0  0  0  0  0
   28.0739  -17.6308  -16.8925 C   0  0  0  0  0  0  0  0  0  0  0  0
   25.8423  -20.8765  -14.7466 C   0  0  0  0  0  0  0  0  0  0  0  0
   24.8535  -21.6019  -15.1378 O   0  0  0  0  0  0  0  0  0  0  0  0
   25.5426  -21.3004   -8.5580 C   0  0  0  0  0  0  0  0  0  0  0  0
   24.8791  -21.5099   -9.8983 C   0  0  0  0  0  0  0  0  0  0  0  0
   25.8286  -21.0397  -10.9655 C   0  0  2  0  0  0  0  0  0  0  0  0
   26.0383  -19.5550  -10.7635 C   0  0  0  0  0  0  0  0  0  0  0  0
   25.2468  -21.2532  -12.3606 C   0  0  2  0  0  0  0  0  0  0  0  0
   26.1563  -20.7857  -13.3759 N   0  0  0  0  0  0  0  0  0  0  0  0
   23.9264  -20.5937  -12.3857 C   0  0  0  0  0  0  0  0  0  0  0  0
   23.8789  -19.3686  -12.1324 O   0  0  0  0  0  0  0  0  0  0  0  0
   21.1705  -21.5664  -18.8580 O   0  0  0  0  0  0  0  0  0  0  0  0
   21.2246  -21.0360  -17.5671 C   0  0  0  0  0  0  0  0  0  0  0  0
   20.1386  -21.0756  -16.7137 C   0  0  0  0  0  0  0  0  0  0  0  0
   20.2470  -20.5355  -15.4466 C   0  0  0  0  0  0  0  0  0  0  0  0
   21.4294  -19.9611  -15.0353 C   0  0  0  0  0  0  0  0  0  0  0  0
   21.5105  -19.4013  -13.6741 C   0  0  0  0  0  0  0  0  0  0  0  0
   21.4707  -20.4877  -12.6063 C   0  0  2  0  0  0  0  0  0  0  0  0
   22.7191  -21.2676  -12.6826 N   0  0  0  0  0  0  0  0  0  0  0  0
   20.3246  -21.3822  -12.7647 C   0  0  0  0  0  0  0  0  0  0  0  0
   19.1556  -20.9934  -12.6848 O   0  0  0  0  0  0  0  0  0  0  0  0
   22.5263  -19.9232  -15.9031 C   0  0  0  0  0  0  0  0  0  0  0  0
   22.4255  -20.4607  -17.1707 C   0  0  0  0  0  0  0  0  0  0  0  0
   20.4833  -22.7631  -13.0199 O   0  0  0  0  0  0  0  0  0  0  0  0
  2  1  1  6
  2  3  1  0
  3  4  1  0
  4  5  2  0
  6  5  1  0
  7  6  1  0
  8  7  2  0
  9  8  1  0
 10  9  2  0
 10 11  1  0
 11 12  2  0
 12  7  1  0
 12  4  1  0
 13  2  1  0
 14 13  2  0
 15 16  1  0
 17 19  1  0
 17 16  1  0
 17 18  1  1
 19 20  1  6
 20 13  1  0
 21 19  1  0
 21 22  2  0
 23 24  1  0
 24 34  2  0
 24 25  1  0
 25 26  2  0
 26 27  1  0
 27 28  1  0
 29 28  1  6
 29 30  1  0
 30 21  1  0
 31 29  1  0
 32 31  2  0
 33 27  2  0
 34 33  1  0
 35 31  1  0
M  END
$$$$
