WIY.pdb
     RDKit          3D

 35 37  0  0  1  0  0  0  0  0999 V2000
   14.0323  -19.8135    5.0023 N   0  0  0  0  0  0  0  0  0  0  0  0
   15.4628  -19.4561    5.1166 C   0  0  1  0  0  0  0  0  0  0  0  0
   15.6925  -18.4623    3.9905 C   0  0  0  0  0  0  0  0  0  0  0  0
   16.0249  -19.1161    2.7104 C   0  0  0  0  0  0  0  0  0  0  0  0
   15.1837  -19.8749    1.8870 C   0  0  0  0  0  0  0  0  0  0  0  0
   15.8582  -20.3034    0.8094 N   0  0  0  0  0  0  0  0  0  0  0  0
   17.1361  -19.8479    0.8920 C   0  0  0  0  0  0  0  0  0  0  0  0
   18.1891  -20.0314    0.0200 C   0  0  0  0  0  0  0  0  0  0  0  0
   19.4057  -19.4506    0.3405 C   0  0  0  0  0  0  0  0  0  0  0  0
   19.5166  -18.7212    1.5022 C   0  0  0  0  0  0  0  0  0  0  0  0
   18.4512  -18.5401    2.3766 C   0  0  0  0  0  0  0  0  0  0  0  0
   17.2464  -19.1152    2.0606 C   0  0  0  0  0  0  0  0  0  0  0  0
   15.6461  -18.6934    6.3786 C   0  0  0  0  0  0  0  0  0  0  0  0
   14.9345  -17.6456    6.6079 O   0  0  0  0  0  0  0  0  0  0  0  0
   17.1057  -21.5844   10.2222 C   0  0  0  0  0  0  0  0  0  0  0  0
   16.4365  -20.2355   10.1073 C   0  0  0  0  0  0  0  0  0  0  0  0
   17.4579  -19.2508    9.6092 C   0  0  2  0  0  0  0  0  0  0  0  0
   17.8464  -18.3707   10.7771 C   0  0  0  0  0  0  0  0  0  0  0  0
   16.8819  -18.3594    8.5119 C   0  0  2  0  0  0  0  0  0  0  0  0
   16.6008  -19.1224    7.3221 N   0  0  0  0  0  0  0  0  0  0  0  0
   17.8370  -17.2530    8.3057 C   0  0  0  0  0  0  0  0  0  0  0  0
   18.8521  -17.4780    7.6083 O   0  0  0  0  0  0  0  0  0  0  0  0
   21.9690   -9.5721    7.7543 O   0  0  0  0  0  0  0  0  0  0  0  0
   21.0115  -10.5844    7.8505 C   0  0  0  0  0  0  0  0  0  0  0  0
   20.5769  -11.2881    6.7436 C   0  0  0  0  0  0  0  0  0  0  0  0
   19.6271  -12.2798    6.8959 C   0  0  0  0  0  0  0  0  0  0  0  0
   19.1158  -12.5663    8.1424 C   0  0  0  0  0  0  0  0  0  0  0  0
   18.1090  -13.6358    8.2676 C   0  0  0  0  0  0  0  0  0  0  0  0
   18.7414  -14.9778    8.6153 C   0  0  2  0  0  0  0  0  0  0  0  0
   17.6655  -15.9582    8.8479 N   0  0  0  0  0  0  0  0  0  0  0  0
   19.5967  -14.9001    9.7990 C   0  0  0  0  0  0  0  0  0  0  0  0
   20.7813  -14.5561    9.7479 O   0  0  0  0  0  0  0  0  0  0  0  0
   19.5587  -11.8508    9.2602 C   0  0  0  0  0  0  0  0  0  0  0  0
   20.5075  -10.8585    9.1159 C   0  0  0  0  0  0  0  0  0  0  0  0
   19.1179  -15.2189   11.0899 O   0  0  0  0  0  0  0  0  0  0  0  0
  2  1  1  1
  2  3  1  0
  3  4  1  0
  4  5  2  0
  6  5  1  0
  7  6  1  0
  8  7  2  0
  9  8  1  0
 10  9  2  0
 10 11  1  0
 11 12  2  0
 12  7  1  0
 12  4  1  0
 13  2  1  0
 14 13  2  0
 15 16  1  0
 17 19  1  0
 17 16  1  0
 17 18  1  1
 19 20  1  6
 20 13  1  0
 21 19  1  0
 21 22  2  0
 23 24  1  0
 24 34  2  0
 24 25  1  0
 25 26  2  0
 26 27  1  0
 27 28  1  0
 29 28  1  1
 29 30  1  0
 30 21  1  0
 31 29  1  0
 32 31  2  0
 33 27  2  0
 34 33  1  0
 35 31  1  0
M  END
$$$$
