SGF.pdb
     RDKit          3D

 22 22  0  0  1  0  0  0  0  0999 V2000
   11.1068  -17.7131   17.1456 O   0  0  0  0  0  0  0  0  0  0  0  0
   10.1146  -17.8532   18.0814 C   0  0  0  0  0  0  0  0  0  0  0  0
   10.6318  -18.0406   19.4824 C   0  0  2  0  0  0  0  0  0  0  0  0
   10.2909  -19.3136   20.0435 N   0  0  0  0  0  0  0  0  0  0  0  0
   10.2357  -16.9599   20.3958 C   0  0  0  0  0  0  0  0  0  0  0  0
   10.5891  -15.7551   20.2366 O   0  0  0  0  0  0  0  0  0  0  0  0
    9.4167  -17.2884   21.5095 N   0  0  0  0  0  0  0  0  0  0  0  0
    8.9199  -16.2787   22.4033 C   0  0  0  0  0  0  0  0  0  0  0  0
    9.5701  -16.5015   23.7337 C   0  0  0  0  0  0  0  0  0  0  0  0
   10.0698  -17.6086   24.0650 O   0  0  0  0  0  0  0  0  0  0  0  0
    9.6302  -15.4414   24.6548 N   0  0  0  0  0  0  0  0  0  0  0  0
    9.2517  -15.6245   26.0596 C   0  0  1  0  0  0  0  0  0  0  0  0
    7.7634  -15.5552   26.1160 C   0  0  0  0  0  0  0  0  0  0  0  0
    7.3214  -14.1513   26.1944 C   0  0  0  0  0  0  0  0  0  0  0  0
    7.1931  -13.4604   27.3894 C   0  0  0  0  0  0  0  0  0  0  0  0
    6.7817  -12.1439   27.4378 C   0  0  0  0  0  0  0  0  0  0  0  0
    6.4884  -11.4936   26.2615 C   0  0  0  0  0  0  0  0  0  0  0  0
    6.6054  -12.1510   25.0588 C   0  0  0  0  0  0  0  0  0  0  0  0
    7.0177  -13.4656   25.0292 C   0  0  0  0  0  0  0  0  0  0  0  0
    9.8143  -16.8703   26.6024 C   0  0  0  0  0  0  0  0  0  0  0  0
   10.4958  -17.7505   25.7388 O   0  0  0  0  0  0  0  0  0  0  0  0
    9.7432  -17.2312   27.7879 O   0  0  0  0  0  0  0  0  0  0  0  0
  1  2  1  0
  2  3  1  0
  3  5  1  0
  3  4  1  1
  5  7  1  0
  6  5  2  0
  7  8  1  0
  8  9  1  0
  9 11  1  0
  9 10  2  0
 11 12  1  0
 12 13  1  6
 13 14  1  0
 14 19  2  0
 15 16  2  0
 15 14  1  0
 16 17  1  0
 17 18  2  0
 19 18  1  0
 20 12  1  0
 20 21  1  0
 22 20  2  0
M  END
$$$$
