SGF.pdb
     RDKit          3D

 22 22  0  0  1  0  0  0  0  0999 V2000
    4.9548  -16.3467   21.2342 O   0  0  0  0  0  0  0  0  0  0  0  0
    5.5641  -17.5075   20.8329 C   0  0  0  0  0  0  0  0  0  0  0  0
    6.6677  -17.9562   21.7528 C   0  0  2  0  0  0  0  0  0  0  0  0
    6.2589  -18.0438   23.1227 N   0  0  0  0  0  0  0  0  0  0  0  0
    7.8856  -17.1423   21.6367 C   0  0  0  0  0  0  0  0  0  0  0  0
    8.4690  -16.9232   20.5351 O   0  0  0  0  0  0  0  0  0  0  0  0
    8.4304  -16.5764   22.8207 N   0  0  0  0  0  0  0  0  0  0  0  0
    9.5392  -15.6632   22.7783 C   0  0  0  0  0  0  0  0  0  0  0  0
    9.8434  -15.2650   24.1895 C   0  0  0  0  0  0  0  0  0  0  0  0
   10.8552  -14.5812   24.4959 O   0  0  0  0  0  0  0  0  0  0  0  0
    8.9730  -15.6643   25.2185 N   0  0  0  0  0  0  0  0  0  0  0  0
    9.4527  -15.8799   26.5873 C   0  0  1  0  0  0  0  0  0  0  0  0
    8.4892  -15.1920   27.4935 C   0  0  0  0  0  0  0  0  0  0  0  0
    7.7038  -14.1971   26.7415 C   0  0  0  0  0  0  0  0  0  0  0  0
    6.4019  -14.4180   26.3193 C   0  0  0  0  0  0  0  0  0  0  0  0
    5.6841  -13.4690   25.6200 C   0  0  0  0  0  0  0  0  0  0  0  0
    6.2789  -12.2627   25.3310 C   0  0  0  0  0  0  0  0  0  0  0  0
    7.5696  -12.0122   25.7356 C   0  0  0  0  0  0  0  0  0  0  0  0
    8.2716  -12.9712   26.4331 C   0  0  0  0  0  0  0  0  0  0  0  0
    9.6224  -17.3132   26.8702 C   0  0  0  0  0  0  0  0  0  0  0  0
   10.1786  -17.7096   28.1024 O   0  0  0  0  0  0  0  0  0  0  0  0
    9.3119  -18.2366   26.1009 O   0  0  0  0  0  0  0  0  0  0  0  0
  1  2  1  0
  2  3  1  0
  3  5  1  0
  3  4  1  1
  5  7  1  0
  6  5  2  0
  7  8  1  0
  8  9  1  0
  9 11  1  0
  9 10  2  0
 11 12  1  0
 12 13  1  1
 13 14  1  0
 14 19  2  0
 15 16  2  0
 15 14  1  0
 16 17  1  0
 17 18  2  0
 19 18  1  0
 20 12  1  0
 20 21  1  0
 22 20  2  0
M  END
$$$$
