SGF.pdb
     RDKit          3D

 22 22  0  0  1  0  0  0  0  0999 V2000
    7.5452  -13.9057   17.1062 O   0  0  0  0  0  0  0  0  0  0  0  0
    8.1281  -12.9530   17.9016 C   0  0  0  0  0  0  0  0  0  0  0  0
    8.9101  -13.5272   19.0523 C   0  0  2  0  0  0  0  0  0  0  0  0
    9.7983  -14.5803   18.6604 N   0  0  0  0  0  0  0  0  0  0  0  0
    8.0609  -13.9671   20.1679 C   0  0  0  0  0  0  0  0  0  0  0  0
    7.2471  -13.2011   20.7617 O   0  0  0  0  0  0  0  0  0  0  0  0
    8.1622  -15.3179   20.5967 N   0  0  0  0  0  0  0  0  0  0  0  0
    7.3771  -15.8224   21.6896 C   0  0  0  0  0  0  0  0  0  0  0  0
    8.1928  -15.6636   22.9354 C   0  0  0  0  0  0  0  0  0  0  0  0
    9.4042  -15.3215   22.9113 O   0  0  0  0  0  0  0  0  0  0  0  0
    7.5931  -15.9031   24.1840 N   0  0  0  0  0  0  0  0  0  0  0  0
    8.3493  -15.7771   25.4339 C   0  0  1  0  0  0  0  0  0  0  0  0
    7.3707  -15.3934   26.4913 C   0  0  0  0  0  0  0  0  0  0  0  0
    7.1097  -13.9438   26.4420 C   0  0  0  0  0  0  0  0  0  0  0  0
    8.1122  -12.9948   26.3142 C   0  0  0  0  0  0  0  0  0  0  0  0
    7.8431  -11.6420   26.2655 C   0  0  0  0  0  0  0  0  0  0  0  0
    6.5366  -11.2189   26.3465 C   0  0  0  0  0  0  0  0  0  0  0  0
    5.5185  -12.1352   26.4740 C   0  0  0  0  0  0  0  0  0  0  0  0
    5.8054  -13.4822   26.5209 C   0  0  0  0  0  0  0  0  0  0  0  0
    9.0967  -17.0093   25.7281 C   0  0  0  0  0  0  0  0  0  0  0  0
   10.1652  -16.9629   26.6451 O   0  0  0  0  0  0  0  0  0  0  0  0
    8.8675  -18.1222   25.2284 O   0  0  0  0  0  0  0  0  0  0  0  0
  1  2  1  0
  2  3  1  0
  3  5  1  0
  3  4  1  6
  5  7  1  0
  6  5  2  0
  7  8  1  0
  8  9  1  0
  9 11  1  0
  9 10  2  0
 11 12  1  0
 12 13  1  1
 13 14  1  0
 14 19  2  0
 15 16  2  0
 15 14  1  0
 16 17  1  0
 17 18  2  0
 19 18  1  0
 20 12  1  0
 20 21  1  0
 22 20  2  0
M  END
$$$$
