SGF.pdb
     RDKit          3D

 22 22  0  0  1  0  0  0  0  0999 V2000
    6.1575  -18.1209   19.0224 O   0  0  0  0  0  0  0  0  0  0  0  0
    6.9146  -19.1368   19.5464 C   0  0  0  0  0  0  0  0  0  0  0  0
    7.4549  -18.8375   20.9189 C   0  0  2  0  0  0  0  0  0  0  0  0
    6.4364  -18.7737   21.9240 N   0  0  0  0  0  0  0  0  0  0  0  0
    8.2886  -17.6282   20.9626 C   0  0  0  0  0  0  0  0  0  0  0  0
    9.3822  -17.5188   20.3349 O   0  0  0  0  0  0  0  0  0  0  0  0
    7.8412  -16.5322   21.7484 N   0  0  0  0  0  0  0  0  0  0  0  0
    8.4967  -15.2542   21.7014 C   0  0  0  0  0  0  0  0  0  0  0  0
    9.1921  -15.0610   23.0136 C   0  0  0  0  0  0  0  0  0  0  0  0
   10.1885  -14.3027   23.1454 O   0  0  0  0  0  0  0  0  0  0  0  0
    8.7228  -15.7473   24.1470 N   0  0  0  0  0  0  0  0  0  0  0  0
    9.3624  -15.5902   25.4571 C   0  0  1  0  0  0  0  0  0  0  0  0
    8.2650  -15.4694   26.4591 C   0  0  0  0  0  0  0  0  0  0  0  0
    7.5342  -14.2044   26.2643 C   0  0  0  0  0  0  0  0  0  0  0  0
    6.2568  -14.1391   25.7297 C   0  0  0  0  0  0  0  0  0  0  0  0
    5.5899  -12.9425   25.5609 C   0  0  0  0  0  0  0  0  0  0  0  0
    6.2123  -11.7741   25.9351 C   0  0  0  0  0  0  0  0  0  0  0  0
    7.4799  -11.8046   26.4686 C   0  0  0  0  0  0  0  0  0  0  0  0
    8.1309  -13.0084   26.6301 C   0  0  0  0  0  0  0  0  0  0  0  0
   10.2998  -16.6914   25.7252 C   0  0  0  0  0  0  0  0  0  0  0  0
   11.0326  -16.6930   26.9284 O   0  0  0  0  0  0  0  0  0  0  0  0
   10.5131  -17.6507   24.9668 O   0  0  0  0  0  0  0  0  0  0  0  0
  1  2  1  0
  2  3  1  0
  3  5  1  0
  3  4  1  1
  5  7  1  0
  6  5  2  0
  7  8  1  0
  8  9  1  0
  9 11  1  0
  9 10  2  0
 11 12  1  0
 12 13  1  1
 13 14  1  0
 14 19  2  0
 15 16  2  0
 15 14  1  0
 16 17  1  0
 17 18  2  0
 19 18  1  0
 20 12  1  0
 20 21  1  0
 22 20  2  0
M  END
$$$$
