SGF.pdb
     RDKit          3D

 22 22  0  0  1  0  0  0  0  0999 V2000
    7.3201  -14.1277   17.8915 O   0  0  0  0  0  0  0  0  0  0  0  0
    7.4909  -12.9811   18.6236 C   0  0  0  0  0  0  0  0  0  0  0  0
    8.4977  -13.1210   19.7336 C   0  0  2  0  0  0  0  0  0  0  0  0
    9.7861  -13.5472   19.2755 N   0  0  0  0  0  0  0  0  0  0  0  0
    8.0362  -13.9850   20.8291 C   0  0  0  0  0  0  0  0  0  0  0  0
    6.9710  -13.7700   21.4779 O   0  0  0  0  0  0  0  0  0  0  0  0
    8.8273  -15.1142   21.1724 N   0  0  0  0  0  0  0  0  0  0  0  0
    8.3576  -16.1106   22.0954 C   0  0  0  0  0  0  0  0  0  0  0  0
    8.8823  -15.7466   23.4499 C   0  0  0  0  0  0  0  0  0  0  0  0
    9.8699  -14.9821   23.6093 O   0  0  0  0  0  0  0  0  0  0  0  0
    8.2561  -16.2727   24.5931 N   0  0  0  0  0  0  0  0  0  0  0  0
    8.8040  -16.0549   25.9356 C   0  0  1  0  0  0  0  0  0  0  0  0
    7.6599  -15.6655   26.8086 C   0  0  0  0  0  0  0  0  0  0  0  0
    7.3462  -14.2365   26.6302 C   0  0  0  0  0  0  0  0  0  0  0  0
    8.2145  -13.2171   26.9892 C   0  0  0  0  0  0  0  0  0  0  0  0
    7.9007  -11.8853   26.8081 C   0  0  0  0  0  0  0  0  0  0  0  0
    6.6857  -11.5563   26.2531 C   0  0  0  0  0  0  0  0  0  0  0  0
    5.8015  -12.5442   25.8863 C   0  0  0  0  0  0  0  0  0  0  0  0
    6.1313  -13.8689   26.0742 C   0  0  0  0  0  0  0  0  0  0  0  0
    9.5410  -17.2376   26.4059 C   0  0  0  0  0  0  0  0  0  0  0  0
    9.5807  -18.3899   25.5963 O   0  0  0  0  0  0  0  0  0  0  0  0
   10.1512  -17.3191   27.4839 O   0  0  0  0  0  0  0  0  0  0  0  0
  1  2  1  0
  2  3  1  0
  3  5  1  0
  3  4  1  6
  5  7  1  0
  6  5  2  0
  7  8  1  0
  8  9  1  0
  9 11  1  0
  9 10  2  0
 11 12  1  0
 12 13  1  1
 13 14  1  0
 14 19  2  0
 15 16  2  0
 15 14  1  0
 16 17  1  0
 17 18  2  0
 19 18  1  0
 20 12  1  0
 20 21  1  0
 22 20  2  0
M  END
$$$$
