SGF.pdb
     RDKit          3D

 22 22  0  0  1  0  0  0  0  0999 V2000
    6.0419  -19.7994   22.1270 O   0  0  0  0  0  0  0  0  0  0  0  0
    4.8693  -19.2231   22.5426 C   0  0  0  0  0  0  0  0  0  0  0  0
    4.5439  -17.9394   21.8274 C   0  0  2  0  0  0  0  0  0  0  0  0
    3.6250  -18.1157   20.7429 N   0  0  0  0  0  0  0  0  0  0  0  0
    5.7362  -17.2123   21.3704 C   0  0  0  0  0  0  0  0  0  0  0  0
    6.0139  -17.0377   20.1480 O   0  0  0  0  0  0  0  0  0  0  0  0
    6.6164  -16.6818   22.3516 N   0  0  0  0  0  0  0  0  0  0  0  0
    7.7679  -15.9025   21.9885 C   0  0  0  0  0  0  0  0  0  0  0  0
    8.4946  -15.5644   23.2535 C   0  0  0  0  0  0  0  0  0  0  0  0
    9.5726  -14.9139   23.2606 O   0  0  0  0  0  0  0  0  0  0  0  0
    7.9619  -15.9840   24.4847 N   0  0  0  0  0  0  0  0  0  0  0  0
    8.7050  -15.8176   25.7377 C   0  0  1  0  0  0  0  0  0  0  0  0
    7.7084  -15.4449   26.7821 C   0  0  0  0  0  0  0  0  0  0  0  0
    7.2562  -14.0564   26.5823 C   0  0  0  0  0  0  0  0  0  0  0  0
    6.1130  -13.7240   25.8721 C   0  0  0  0  0  0  0  0  0  0  0  0
    5.7065  -12.4161   25.7020 C   0  0  0  0  0  0  0  0  0  0  0  0
    6.4600  -11.4067   26.2552 C   0  0  0  0  0  0  0  0  0  0  0  0
    7.6000  -11.7030   26.9657 C   0  0  0  0  0  0  0  0  0  0  0  0
    7.9910  -13.0147   27.1256 C   0  0  0  0  0  0  0  0  0  0  0  0
    9.4842  -17.0236   26.0565 C   0  0  0  0  0  0  0  0  0  0  0  0
   10.3384  -17.0141   27.1768 O   0  0  0  0  0  0  0  0  0  0  0  0
    9.4594  -18.0835   25.4108 O   0  0  0  0  0  0  0  0  0  0  0  0
  1  2  1  0
  2  3  1  0
  3  5  1  0
  3  4  1  6
  5  7  1  0
  6  5  2  0
  7  8  1  0
  8  9  1  0
  9 11  1  0
  9 10  2  0
 11 12  1  0
 12 13  1  1
 13 14  1  0
 14 19  2  0
 15 16  2  0
 15 14  1  0
 16 17  1  0
 17 18  2  0
 19 18  1  0
 20 12  1  0
 20 21  1  0
 22 20  2  0
M  END
$$$$
