SGF.pdb
     RDKit          3D

 22 22  0  0  1  0  0  0  0  0999 V2000
    6.4196  -20.1691   21.1813 O   0  0  0  0  0  0  0  0  0  0  0  0
    7.1901  -19.1761   21.7291 C   0  0  0  0  0  0  0  0  0  0  0  0
    6.8282  -17.7979   21.2441 C   0  0  2  0  0  0  0  0  0  0  0  0
    6.1730  -17.8026   19.9704 N   0  0  0  0  0  0  0  0  0  0  0  0
    7.9691  -16.8720   21.2255 C   0  0  0  0  0  0  0  0  0  0  0  0
    8.4818  -16.4272   20.1573 O   0  0  0  0  0  0  0  0  0  0  0  0
    8.5191  -16.4593   22.4689 N   0  0  0  0  0  0  0  0  0  0  0  0
    9.6651  -15.5947   22.5359 C   0  0  0  0  0  0  0  0  0  0  0  0
   10.0068  -15.4184   23.9832 C   0  0  0  0  0  0  0  0  0  0  0  0
   11.0364  -14.8021   24.3646 O   0  0  0  0  0  0  0  0  0  0  0  0
    9.1529  -15.9574   24.9611 N   0  0  0  0  0  0  0  0  0  0  0  0
    9.4786  -15.8817   26.3888 C   0  0  1  0  0  0  0  0  0  0  0  0
    8.1949  -15.6494   27.1105 C   0  0  0  0  0  0  0  0  0  0  0  0
    7.6131  -14.3553   26.7116 C   0  0  0  0  0  0  0  0  0  0  0  0
    6.4708  -14.2428   25.9342 C   0  0  0  0  0  0  0  0  0  0  0  0
    5.9413  -13.0194   25.5768 C   0  0  0  0  0  0  0  0  0  0  0  0
    6.5669  -11.8716   26.0054 C   0  0  0  0  0  0  0  0  0  0  0  0
    7.7024  -11.9488   26.7781 C   0  0  0  0  0  0  0  0  0  0  0  0
    8.2172  -13.1789   27.1256 C   0  0  0  0  0  0  0  0  0  0  0  0
   10.2060  -17.0810   26.8311 C   0  0  0  0  0  0  0  0  0  0  0  0
   10.4990  -18.0919   25.8945 O   0  0  0  0  0  0  0  0  0  0  0  0
   10.5990  -17.2936   27.9892 O   0  0  0  0  0  0  0  0  0  0  0  0
  1  2  1  0
  2  3  1  0
  3  5  1  0
  3  4  1  6
  5  7  1  0
  6  5  2  0
  7  8  1  0
  8  9  1  0
  9 11  1  0
  9 10  2  0
 11 12  1  0
 12 13  1  1
 13 14  1  0
 14 19  2  0
 15 16  2  0
 15 14  1  0
 16 17  1  0
 17 18  2  0
 19 18  1  0
 20 12  1  0
 20 21  1  0
 22 20  2  0
M  END
$$$$
