SGF.pdb
     RDKit          3D

 22 22  0  0  1  0  0  0  0  0999 V2000
    7.7729  -16.5993   17.1650 O   0  0  0  0  0  0  0  0  0  0  0  0
    7.9915  -16.2402   18.4700 C   0  0  0  0  0  0  0  0  0  0  0  0
    7.7012  -17.3422   19.4533 C   0  0  2  0  0  0  0  0  0  0  0  0
    6.8041  -18.3338   18.9399 N   0  0  0  0  0  0  0  0  0  0  0  0
    7.2240  -16.8487   20.7525 C   0  0  0  0  0  0  0  0  0  0  0  0
    6.8644  -15.6511   20.9481 O   0  0  0  0  0  0  0  0  0  0  0  0
    7.1653  -17.7638   21.8379 N   0  0  0  0  0  0  0  0  0  0  0  0
    6.6203  -17.3864   23.1130 C   0  0  0  0  0  0  0  0  0  0  0  0
    7.7415  -16.8175   23.9266 C   0  0  0  0  0  0  0  0  0  0  0  0
    8.8882  -16.6138   23.4483 O   0  0  0  0  0  0  0  0  0  0  0  0
    7.5159  -16.4953   25.2761 N   0  0  0  0  0  0  0  0  0  0  0  0
    8.5930  -15.9911   26.1339 C   0  0  1  0  0  0  0  0  0  0  0  0
    7.9466  -15.1698   27.1972 C   0  0  0  0  0  0  0  0  0  0  0  0
    7.4549  -13.9005   26.6322 C   0  0  0  0  0  0  0  0  0  0  0  0
    6.1250  -13.6757   26.3116 C   0  0  0  0  0  0  0  0  0  0  0  0
    5.6868  -12.4764   25.7877 C   0  0  0  0  0  0  0  0  0  0  0  0
    6.5991  -11.4688   25.5755 C   0  0  0  0  0  0  0  0  0  0  0  0
    7.9262  -11.6599   25.8828 C   0  0  0  0  0  0  0  0  0  0  0  0
    8.3462  -12.8639   26.4054 C   0  0  0  0  0  0  0  0  0  0  0  0
    9.4211  -17.0925   26.6480 C   0  0  0  0  0  0  0  0  0  0  0  0
   10.7640  -16.8405   26.9916 O   0  0  0  0  0  0  0  0  0  0  0  0
    9.0361  -18.2610   26.8131 O   0  0  0  0  0  0  0  0  0  0  0  0
  1  2  1  0
  2  3  1  0
  3  5  1  0
  3  4  1  6
  5  7  1  0
  6  5  2  0
  7  8  1  0
  8  9  1  0
  9 11  1  0
  9 10  2  0
 11 12  1  0
 12 13  1  1
 13 14  1  0
 14 19  2  0
 15 16  2  0
 15 14  1  0
 16 17  1  0
 17 18  2  0
 19 18  1  0
 20 12  1  0
 20 21  1  0
 22 20  2  0
M  END
$$$$
