SGF.pdb
     RDKit          3D

 22 22  0  0  1  0  0  0  0  0999 V2000
    4.6121  -18.5775   19.9233 O   0  0  0  0  0  0  0  0  0  0  0  0
    5.4441  -19.5400   20.4343 C   0  0  0  0  0  0  0  0  0  0  0  0
    6.2191  -19.0852   21.6418 C   0  0  2  0  0  0  0  0  0  0  0  0
    5.3826  -18.6032   22.6998 N   0  0  0  0  0  0  0  0  0  0  0  0
    7.2583  -18.0959   21.3245 C   0  0  0  0  0  0  0  0  0  0  0  0
    8.1996  -18.3188   20.5084 O   0  0  0  0  0  0  0  0  0  0  0  0
    7.1990  -16.8301   21.9672 N   0  0  0  0  0  0  0  0  0  0  0  0
    8.1689  -15.8037   21.7010 C   0  0  0  0  0  0  0  0  0  0  0  0
    8.8760  -15.5133   22.9888 C   0  0  0  0  0  0  0  0  0  0  0  0
    9.9337  -14.8323   23.0406 O   0  0  0  0  0  0  0  0  0  0  0  0
    8.3476  -16.0153   24.1907 N   0  0  0  0  0  0  0  0  0  0  0  0
    9.0299  -15.8105   25.4723 C   0  0  1  0  0  0  0  0  0  0  0  0
    7.9695  -15.5442   26.4859 C   0  0  0  0  0  0  0  0  0  0  0  0
    7.4034  -14.1977   26.2893 C   0  0  0  0  0  0  0  0  0  0  0  0
    8.1401  -13.0335   26.4432 C   0  0  0  0  0  0  0  0  0  0  0  0
    7.5893  -11.7830   26.2491 C   0  0  0  0  0  0  0  0  0  0  0  0
    6.2646  -11.6865   25.8908 C   0  0  0  0  0  0  0  0  0  0  0  0
    5.5059  -12.8227   25.7301 C   0  0  0  0  0  0  0  0  0  0  0  0
    6.0723  -14.0633   25.9280 C   0  0  0  0  0  0  0  0  0  0  0  0
    9.8981  -16.9518   25.7992 C   0  0  0  0  0  0  0  0  0  0  0  0
   10.7996  -16.8435   26.8764 O   0  0  0  0  0  0  0  0  0  0  0  0
    9.9119  -18.0367   25.1961 O   0  0  0  0  0  0  0  0  0  0  0  0
  1  2  1  0
  2  3  1  0
  3  5  1  0
  3  4  1  1
  5  7  1  0
  6  5  2  0
  7  8  1  0
  8  9  1  0
  9 11  1  0
  9 10  2  0
 11 12  1  0
 12 13  1  1
 13 14  1  0
 14 19  2  0
 15 16  2  0
 15 14  1  0
 16 17  1  0
 17 18  2  0
 19 18  1  0
 20 12  1  0
 20 21  1  0
 22 20  2  0
M  END
$$$$
