SGF.pdb
     RDKit          3D

 22 22  0  0  1  0  0  0  0  0999 V2000
    5.2462  -19.0260   19.5801 O   0  0  0  0  0  0  0  0  0  0  0  0
    4.8496  -18.8796   20.8843 C   0  0  0  0  0  0  0  0  0  0  0  0
    5.9965  -18.7450   21.8497 C   0  0  2  0  0  0  0  0  0  0  0  0
    5.5734  -18.5770   23.2078 N   0  0  0  0  0  0  0  0  0  0  0  0
    6.9454  -17.6862   21.4783 C   0  0  0  0  0  0  0  0  0  0  0  0
    7.8826  -17.8583   20.6453 O   0  0  0  0  0  0  0  0  0  0  0  0
    6.7995  -16.4103   22.0861 N   0  0  0  0  0  0  0  0  0  0  0  0
    7.6567  -15.3094   21.7421 C   0  0  0  0  0  0  0  0  0  0  0  0
    8.6228  -15.1263   22.8715 C   0  0  0  0  0  0  0  0  0  0  0  0
    9.6801  -14.4528   22.7543 O   0  0  0  0  0  0  0  0  0  0  0  0
    8.3486  -15.7246   24.1135 N   0  0  0  0  0  0  0  0  0  0  0  0
    9.2209  -15.5163   25.2736 C   0  0  1  0  0  0  0  0  0  0  0  0
    8.3304  -15.3777   26.4613 C   0  0  0  0  0  0  0  0  0  0  0  0
    7.5955  -14.1016   26.4008 C   0  0  0  0  0  0  0  0  0  0  0  0
    8.2049  -12.8655   26.5511 C   0  0  0  0  0  0  0  0  0  0  0  0
    7.4965  -11.6829   26.4859 C   0  0  0  0  0  0  0  0  0  0  0  0
    6.1395  -11.7302   26.2645 C   0  0  0  0  0  0  0  0  0  0  0  0
    5.5044  -12.9408   26.1113 C   0  0  0  0  0  0  0  0  0  0  0  0
    6.2276  -14.1119   26.1793 C   0  0  0  0  0  0  0  0  0  0  0  0
   10.2132  -16.5955   25.3916 C   0  0  0  0  0  0  0  0  0  0  0  0
   10.2252  -17.6265   24.4315 O   0  0  0  0  0  0  0  0  0  0  0  0
   11.0689  -16.6867   26.2863 O   0  0  0  0  0  0  0  0  0  0  0  0
  1  2  1  0
  2  3  1  0
  3  5  1  0
  3  4  1  1
  5  7  1  0
  6  5  2  0
  7  8  1  0
  8  9  1  0
  9 11  1  0
  9 10  2  0
 11 12  1  0
 12 13  1  1
 13 14  1  0
 14 19  2  0
 15 16  2  0
 15 14  1  0
 16 17  1  0
 17 18  2  0
 19 18  1  0
 20 12  1  0
 20 21  1  0
 22 20  2  0
M  END
$$$$
