SGF.pdb
     RDKit          3D

 22 22  0  0  1  0  0  0  0  0999 V2000
    9.3775  -17.5988   17.2088 O   0  0  0  0  0  0  0  0  0  0  0  0
    8.9240  -18.6870   17.9088 C   0  0  0  0  0  0  0  0  0  0  0  0
    9.4565  -18.7618   19.3146 C   0  0  2  0  0  0  0  0  0  0  0  0
    9.0376  -19.9395   20.0141 N   0  0  0  0  0  0  0  0  0  0  0  0
    9.1582  -17.5640   20.1118 C   0  0  0  0  0  0  0  0  0  0  0  0
    9.6955  -16.4384   19.8968 O   0  0  0  0  0  0  0  0  0  0  0  0
    8.2210  -17.6801   21.1734 N   0  0  0  0  0  0  0  0  0  0  0  0
    7.8615  -16.5521   21.9879 C   0  0  0  0  0  0  0  0  0  0  0  0
    8.5807  -16.6972   23.2934 C   0  0  0  0  0  0  0  0  0  0  0  0
    9.2581  -17.7184   23.5822 O   0  0  0  0  0  0  0  0  0  0  0  0
    8.5031  -15.6601   24.2391 N   0  0  0  0  0  0  0  0  0  0  0  0
    9.3198  -15.6710   25.4569 C   0  0  1  0  0  0  0  0  0  0  0  0
    9.6068  -14.2474   25.7944 C   0  0  0  0  0  0  0  0  0  0  0  0
    8.3478  -13.5046   25.9824 C   0  0  0  0  0  0  0  0  0  0  0  0
    7.7463  -13.3287   27.2190 C   0  0  0  0  0  0  0  0  0  0  0  0
    6.5690  -12.6247   27.3713 C   0  0  0  0  0  0  0  0  0  0  0  0
    5.9705  -12.0785   26.2595 C   0  0  0  0  0  0  0  0  0  0  0  0
    6.5417  -12.2351   25.0180 C   0  0  0  0  0  0  0  0  0  0  0  0
    7.7176  -12.9411   24.8844 C   0  0  0  0  0  0  0  0  0  0  0  0
    8.6554  -16.4199   26.5343 C   0  0  0  0  0  0  0  0  0  0  0  0
    7.3195  -16.8331   26.3619 O   0  0  0  0  0  0  0  0  0  0  0  0
    9.1773  -16.7324   27.6164 O   0  0  0  0  0  0  0  0  0  0  0  0
  1  2  1  0
  2  3  1  0
  3  5  1  0
  3  4  1  1
  5  7  1  0
  6  5  2  0
  7  8  1  0
  8  9  1  0
  9 11  1  0
  9 10  2  0
 11 12  1  0
 12 13  1  1
 13 14  1  0
 14 19  2  0
 15 16  2  0
 15 14  1  0
 16 17  1  0
 17 18  2  0
 19 18  1  0
 20 12  1  0
 20 21  1  0
 22 20  2  0
M  END
$$$$
