SGF.pdb
     RDKit          3D

 22 22  0  0  1  0  0  0  0  0999 V2000
    6.3475  -19.4951   21.0560 O   0  0  0  0  0  0  0  0  0  0  0  0
    6.0318  -18.4243   20.2600 C   0  0  0  0  0  0  0  0  0  0  0  0
    7.2097  -17.8677   19.5062 C   0  0  2  0  0  0  0  0  0  0  0  0
    7.8813  -18.8480   18.7065 N   0  0  0  0  0  0  0  0  0  0  0  0
    8.1724  -17.1693   20.3692 C   0  0  0  0  0  0  0  0  0  0  0  0
    9.3240  -17.6244   20.6308 O   0  0  0  0  0  0  0  0  0  0  0  0
    7.7872  -15.9239   20.9343 N   0  0  0  0  0  0  0  0  0  0  0  0
    8.6638  -15.1871   21.8025 C   0  0  0  0  0  0  0  0  0  0  0  0
    8.4911  -15.7392   23.1838 C   0  0  0  0  0  0  0  0  0  0  0  0
    7.7275  -16.7085   23.4338 O   0  0  0  0  0  0  0  0  0  0  0  0
    9.2037  -15.1609   24.2486 N   0  0  0  0  0  0  0  0  0  0  0  0
    8.9997  -15.5971   25.6336 C   0  0  1  0  0  0  0  0  0  0  0  0
    7.5515  -15.4099   25.9341 C   0  0  0  0  0  0  0  0  0  0  0  0
    7.2434  -13.9764   26.0835 C   0  0  0  0  0  0  0  0  0  0  0  0
    6.0650  -13.4012   25.6334 C   0  0  0  0  0  0  0  0  0  0  0  0
    5.7962  -12.0564   25.7888 C   0  0  0  0  0  0  0  0  0  0  0  0
    6.7279  -11.2580   26.4109 C   0  0  0  0  0  0  0  0  0  0  0  0
    7.9074  -11.7978   26.8688 C   0  0  0  0  0  0  0  0  0  0  0  0
    8.1592  -13.1428   26.7053 C   0  0  0  0  0  0  0  0  0  0  0  0
    9.4798  -16.9731   25.8323 C   0  0  0  0  0  0  0  0  0  0  0  0
   10.1394  -17.6306   24.7752 O   0  0  0  0  0  0  0  0  0  0  0  0
    9.3547  -17.6311   26.8774 O   0  0  0  0  0  0  0  0  0  0  0  0
  1  2  1  0
  2  3  1  0
  3  5  1  0
  3  4  1  1
  5  7  1  0
  6  5  2  0
  7  8  1  0
  8  9  1  0
  9 11  1  0
  9 10  2  0
 11 12  1  0
 12 13  1  6
 13 14  1  0
 14 19  2  0
 15 16  2  0
 15 14  1  0
 16 17  1  0
 17 18  2  0
 19 18  1  0
 20 12  1  0
 20 21  1  0
 22 20  2  0
M  END
$$$$
