SGF.pdb
     RDKit          3D

 22 22  0  0  1  0  0  0  0  0999 V2000
    9.5620  -20.4016   17.8066 O   0  0  0  0  0  0  0  0  0  0  0  0
    9.6747  -19.0750   17.4789 C   0  0  0  0  0  0  0  0  0  0  0  0
   10.2731  -18.2339   18.5744 C   0  0  2  0  0  0  0  0  0  0  0  0
   11.5392  -18.7226   19.0323 N   0  0  0  0  0  0  0  0  0  0  0  0
    9.3647  -18.0317   19.7116 C   0  0  0  0  0  0  0  0  0  0  0  0
    8.2053  -17.5385   19.5917 O   0  0  0  0  0  0  0  0  0  0  0  0
    9.8141  -18.4095   21.0054 N   0  0  0  0  0  0  0  0  0  0  0  0
    8.9328  -18.4044   22.1405 C   0  0  0  0  0  0  0  0  0  0  0  0
    9.0877  -17.0788   22.8196 C   0  0  0  0  0  0  0  0  0  0  0  0
   10.0036  -16.2686   22.5199 O   0  0  0  0  0  0  0  0  0  0  0  0
    8.1818  -16.7154   23.8311 N   0  0  0  0  0  0  0  0  0  0  0  0
    8.2956  -15.4358   24.5382 C   0  0  1  0  0  0  0  0  0  0  0  0
    6.9457  -15.1296   25.0922 C   0  0  0  0  0  0  0  0  0  0  0  0
    6.9772  -13.8585   25.8374 C   0  0  0  0  0  0  0  0  0  0  0  0
    7.3391  -13.7688   27.1727 C   0  0  0  0  0  0  0  0  0  0  0  0
    7.3658  -12.5659   27.8488 C   0  0  0  0  0  0  0  0  0  0  0  0
    7.0217  -11.4159   27.1768 C   0  0  0  0  0  0  0  0  0  0  0  0
    6.6577  -11.4707   25.8513 C   0  0  0  0  0  0  0  0  0  0  0  0
    6.6367  -12.6805   25.1918 C   0  0  0  0  0  0  0  0  0  0  0  0
    9.3621  -15.4819   25.5499 C   0  0  0  0  0  0  0  0  0  0  0  0
    9.4477  -16.5958   26.4083 O   0  0  0  0  0  0  0  0  0  0  0  0
   10.2217  -14.6037   25.7246 O   0  0  0  0  0  0  0  0  0  0  0  0
  1  2  1  0
  2  3  1  0
  3  5  1  0
  3  4  1  1
  5  7  1  0
  6  5  2  0
  7  8  1  0
  8  9  1  0
  9 11  1  0
  9 10  2  0
 11 12  1  0
 12 13  1  1
 13 14  1  0
 14 19  2  0
 15 16  2  0
 15 14  1  0
 16 17  1  0
 17 18  2  0
 19 18  1  0
 20 12  1  0
 20 21  1  0
 22 20  2  0
M  END
$$$$
