GMR.pdb
     RDKit          3D

 24 23  0  0  1  0  0  0  0  0999 V2000
    7.9211  -15.9580   19.0878 N   0  0  0  0  0  0  0  0  0  0  0  0
    7.0070  -15.6961   20.1777 C   0  0  0  0  0  0  0  0  0  0  0  0
    7.7151  -15.2831   21.4107 C   0  0  0  0  0  0  0  0  0  0  0  0
    8.9588  -15.4655   21.4469 O   0  0  0  0  0  0  0  0  0  0  0  0
    7.0599  -11.0872   28.0744 C   0  0  0  0  0  0  0  0  0  0  0  0
    6.3510  -11.7711   26.5704 S   0  0  0  0  0  0  0  0  0  0  0  0
    7.5849  -12.8639   25.7717 C   0  0  0  0  0  0  0  0  0  0  0  0
    6.9677  -13.3779   24.5138 C   0  0  0  0  0  0  0  0  0  0  0  0
    7.7849  -14.3775   23.7612 C   0  0  2  0  0  0  0  0  0  0  0  0
    7.0884  -14.7057   22.5319 N   0  0  0  0  0  0  0  0  0  0  0  0
    8.1063  -15.6037   24.5060 C   0  0  0  0  0  0  0  0  0  0  0  0
    7.2676  -16.5074   24.7516 O   0  0  0  0  0  0  0  0  0  0  0  0
   13.9508  -21.6759   23.7648 N   0  0  0  0  0  0  0  0  0  0  0  0
   12.8142  -21.7448   24.5858 C   0  0  0  0  0  0  0  0  0  0  0  0
   11.8435  -22.5985   24.3702 N   0  0  0  0  0  0  0  0  0  0  0  0
   12.6798  -20.8814   25.6914 N   0  0  0  0  0  0  0  0  0  0  0  0
   12.5491  -19.4367   25.5158 C   0  0  0  0  0  0  0  0  0  0  0  0
   11.1878  -19.0888   24.9564 C   0  0  0  0  0  0  0  0  0  0  0  0
   11.0616  -17.6030   24.7199 C   0  0  0  0  0  0  0  0  0  0  0  0
    9.8935  -17.0298   25.5277 C   0  0  2  0  0  0  0  0  0  0  0  0
    9.4307  -15.7984   24.9836 N   0  0  0  0  0  0  0  0  0  0  0  0
   10.2668  -16.9519   26.9603 C   0  0  0  0  0  0  0  0  0  0  0  0
   10.2077  -18.0151   27.6318 O   0  0  0  0  0  0  0  0  0  0  0  0
   10.6714  -15.8093   27.6077 O   0  0  0  0  0  0  0  0  0  0  0  0
  2  1  1  0
  3  2  1  0
  3  4  2  0
  6  5  1  0
  7  8  1  0
  7  6  1  0
  9  8  1  1
  9 10  1  0
 10  3  1  0
 11  9  1  0
 12 11  2  0
 14 13  1  0
 14 15  2  0
 16 14  1  0
 17 16  1  0
 18 17  1  0
 19 18  1  0
 20 21  1  0
 20 19  1  6
 21 11  1  0
 22 20  1  0
 23 22  2  0
 24 22  1  0
M  END
$$$$
