GMR.pdb
     RDKit          3D

 24 23  0  0  1  0  0  0  0  0999 V2000
    7.5905  -20.6746   25.9038 N   0  0  0  0  0  0  0  0  0  0  0  0
    6.7741  -19.7195   26.6202 C   0  0  0  0  0  0  0  0  0  0  0  0
    6.6517  -18.4357   25.8925 C   0  0  0  0  0  0  0  0  0  0  0  0
    5.9014  -18.4170   24.8836 O   0  0  0  0  0  0  0  0  0  0  0  0
    6.7932  -10.6692   26.7174 C   0  0  0  0  0  0  0  0  0  0  0  0
    7.2242  -12.3124   27.3060 S   0  0  0  0  0  0  0  0  0  0  0  0
    6.9210  -13.5251   25.9673 C   0  0  0  0  0  0  0  0  0  0  0  0
    7.2305  -14.8764   26.5201 C   0  0  0  0  0  0  0  0  0  0  0  0
    7.1818  -15.9985   25.5342 C   0  0  2  0  0  0  0  0  0  0  0  0
    7.3165  -17.2489   26.2568 N   0  0  0  0  0  0  0  0  0  0  0  0
    8.1807  -15.9233   24.4582 C   0  0  0  0  0  0  0  0  0  0  0  0
    9.3303  -16.4253   24.5410 O   0  0  0  0  0  0  0  0  0  0  0  0
    7.3085  -12.7085   16.1061 N   0  0  0  0  0  0  0  0  0  0  0  0
    8.1175  -13.8557   16.0950 C   0  0  0  0  0  0  0  0  0  0  0  0
    8.4350  -14.4796   14.9870 N   0  0  0  0  0  0  0  0  0  0  0  0
    8.6252  -14.3819   17.2995 N   0  0  0  0  0  0  0  0  0  0  0  0
    8.3542  -13.7393   18.5835 C   0  0  0  0  0  0  0  0  0  0  0  0
    8.9464  -14.5447   19.7182 C   0  0  0  0  0  0  0  0  0  0  0  0
    8.1342  -14.3830   20.9805 C   0  0  0  0  0  0  0  0  0  0  0  0
    8.6292  -15.3472   22.0625 C   0  0  2  0  0  0  0  0  0  0  0  0
    7.8502  -15.2511   23.2503 N   0  0  0  0  0  0  0  0  0  0  0  0
   10.0827  -15.1522   22.2791 C   0  0  0  0  0  0  0  0  0  0  0  0
   10.4298  -14.3197   23.1573 O   0  0  0  0  0  0  0  0  0  0  0  0
   11.0763  -15.8105   21.5950 O   0  0  0  0  0  0  0  0  0  0  0  0
  2  1  1  0
  3  2  1  0
  3  4  2  0
  6  5  1  0
  7  8  1  0
  7  6  1  0
  9  8  1  1
  9 10  1  0
 10  3  1  0
 11  9  1  0
 12 11  2  0
 14 13  1  0
 14 15  2  0
 16 14  1  0
 17 16  1  0
 18 17  1  0
 19 18  1  0
 20 21  1  0
 20 19  1  6
 21 11  1  0
 22 20  1  0
 23 22  2  0
 24 22  1  0
M  END
$$$$
