GMR.pdb
     RDKit          3D

 24 23  0  0  1  0  0  0  0  0999 V2000
    6.9460  -19.8366   27.4256 N   0  0  0  0  0  0  0  0  0  0  0  0
    7.9065  -19.2068   26.5464 C   0  0  0  0  0  0  0  0  0  0  0  0
    7.3784  -17.9600   25.9473 C   0  0  0  0  0  0  0  0  0  0  0  0
    6.3310  -18.0531   25.2579 O   0  0  0  0  0  0  0  0  0  0  0  0
    5.9582  -11.1415   28.0948 C   0  0  0  0  0  0  0  0  0  0  0  0
    7.3505  -12.0431   27.4013 S   0  0  0  0  0  0  0  0  0  0  0  0
    6.7323  -13.5631   26.5876 C   0  0  0  0  0  0  0  0  0  0  0  0
    7.9232  -14.3035   26.0768 C   0  0  0  0  0  0  0  0  0  0  0  0
    7.6213  -15.5390   25.2920 C   0  0  2  0  0  0  0  0  0  0  0  0
    7.9707  -16.6915   26.1004 N   0  0  0  0  0  0  0  0  0  0  0  0
    8.2821  -15.6187   23.9811 C   0  0  0  0  0  0  0  0  0  0  0  0
    9.3069  -16.3128   23.7606 O   0  0  0  0  0  0  0  0  0  0  0  0
    7.8362  -15.4906   17.3419 N   0  0  0  0  0  0  0  0  0  0  0  0
    8.0338  -14.3914   16.4914 C   0  0  0  0  0  0  0  0  0  0  0  0
    8.2415  -14.5282   15.2046 N   0  0  0  0  0  0  0  0  0  0  0  0
    8.0126  -13.0795   17.0052 N   0  0  0  0  0  0  0  0  0  0  0  0
    7.7127  -12.8188   18.4113 C   0  0  0  0  0  0  0  0  0  0  0  0
    8.2565  -13.9258   19.2864 C   0  0  0  0  0  0  0  0  0  0  0  0
    7.8148  -13.7516   20.7196 C   0  0  0  0  0  0  0  0  0  0  0  0
    8.2877  -14.9323   21.5726 C   0  0  2  0  0  0  0  0  0  0  0  0
    7.7507  -14.8790   22.8900 N   0  0  0  0  0  0  0  0  0  0  0  0
    9.7669  -15.0200   21.5290 C   0  0  0  0  0  0  0  0  0  0  0  0
   10.4150  -14.2186   22.2519 O   0  0  0  0  0  0  0  0  0  0  0  0
   10.4810  -15.9080   20.7610 O   0  0  0  0  0  0  0  0  0  0  0  0
  2  1  1  0
  3  2  1  0
  3  4  2  0
  6  5  1  0
  7  8  1  0
  7  6  1  0
  9  8  1  1
  9 10  1  0
 10  3  1  0
 11  9  1  0
 12 11  2  0
 14 13  1  0
 14 15  2  0
 16 14  1  0
 17 16  1  0
 18 17  1  0
 19 18  1  0
 20 21  1  0
 20 19  1  6
 21 11  1  0
 22 20  1  0
 23 22  2  0
 24 22  1  0
M  END
$$$$
