GMR.pdb
     RDKit          3D

 24 23  0  0  1  0  0  0  0  0999 V2000
    4.2291  -19.6346   23.4781 N   0  0  0  0  0  0  0  0  0  0  0  0
    5.5168  -19.5556   24.1319 C   0  0  0  0  0  0  0  0  0  0  0  0
    6.1360  -18.2191   23.9818 C   0  0  0  0  0  0  0  0  0  0  0  0
    6.4196  -17.8456   22.8150 O   0  0  0  0  0  0  0  0  0  0  0  0
    5.9897  -11.7532   26.9330 C   0  0  0  0  0  0  0  0  0  0  0  0
    7.0666  -13.0425   27.5735 S   0  0  0  0  0  0  0  0  0  0  0  0
    7.7389  -14.0104   26.1714 C   0  0  0  0  0  0  0  0  0  0  0  0
    7.0211  -15.3188   26.1564 C   0  0  0  0  0  0  0  0  0  0  0  0
    7.1927  -16.1295   24.9127 C   0  0  2  0  0  0  0  0  0  0  0  0
    6.4237  -17.3513   25.0530 N   0  0  0  0  0  0  0  0  0  0  0  0
    8.5859  -16.4432   24.5635 C   0  0  0  0  0  0  0  0  0  0  0  0
    9.2963  -17.2583   25.2049 O   0  0  0  0  0  0  0  0  0  0  0  0
    6.6517  -12.8080   18.6864 N   0  0  0  0  0  0  0  0  0  0  0  0
    7.8048  -13.6006   18.5737 C   0  0  0  0  0  0  0  0  0  0  0  0
    8.2090  -14.0923   17.4281 N   0  0  0  0  0  0  0  0  0  0  0  0
    8.5806  -13.8967   19.7122 N   0  0  0  0  0  0  0  0  0  0  0  0
    9.8723  -14.5702   19.5973 C   0  0  0  0  0  0  0  0  0  0  0  0
    9.9964  -15.6651   20.6331 C   0  0  0  0  0  0  0  0  0  0  0  0
   10.8805  -15.2321   21.7777 C   0  0  0  0  0  0  0  0  0  0  0  0
   10.5328  -16.0139   23.0478 C   0  0  2  0  0  0  0  0  0  0  0  0
    9.1820  -15.8018   23.4440 N   0  0  0  0  0  0  0  0  0  0  0  0
   11.5248  -15.7128   24.1076 C   0  0  0  0  0  0  0  0  0  0  0  0
   12.7282  -15.9962   23.8704 O   0  0  0  0  0  0  0  0  0  0  0  0
   11.2295  -15.1492   25.3256 O   0  0  0  0  0  0  0  0  0  0  0  0
  2  1  1  0
  3  2  1  0
  3  4  2  0
  6  5  1  0
  7  8  1  0
  7  6  1  0
  9  8  1  1
  9 10  1  0
 10  3  1  0
 11  9  1  0
 12 11  2  0
 14 13  1  0
 14 15  2  0
 16 14  1  0
 17 16  1  0
 18 17  1  0
 19 18  1  0
 20 21  1  0
 20 19  1  6
 21 11  1  0
 22 20  1  0
 23 22  2  0
 24 22  1  0
M  END
$$$$
