GMR.pdb
     RDKit          3D

 24 23  0  0  1  0  0  0  0  0999 V2000
    4.1809  -18.8355   23.6434 N   0  0  0  0  0  0  0  0  0  0  0  0
    5.4202  -18.7618   24.3855 C   0  0  0  0  0  0  0  0  0  0  0  0
    6.2119  -17.5625   24.0287 C   0  0  0  0  0  0  0  0  0  0  0  0
    6.4521  -17.3753   22.8086 O   0  0  0  0  0  0  0  0  0  0  0  0
    5.5207  -11.2332   27.0784 C   0  0  0  0  0  0  0  0  0  0  0  0
    6.8679  -12.4236   27.0528 S   0  0  0  0  0  0  0  0  0  0  0  0
    6.5638  -13.6412   25.7188 C   0  0  0  0  0  0  0  0  0  0  0  0
    7.7056  -14.6022   25.7324 C   0  0  0  0  0  0  0  0  0  0  0  0
    7.6981  -15.6215   24.6394 C   0  0  2  0  0  0  0  0  0  0  0  0
    6.7067  -16.6302   24.9610 N   0  0  0  0  0  0  0  0  0  0  0  0
    8.9980  -16.2539   24.3715 C   0  0  0  0  0  0  0  0  0  0  0  0
    9.4838  -17.1711   25.0809 O   0  0  0  0  0  0  0  0  0  0  0  0
    8.3952  -12.3470   19.0889 N   0  0  0  0  0  0  0  0  0  0  0  0
    8.4117  -13.5642   18.3900 C   0  0  0  0  0  0  0  0  0  0  0  0
    7.8878  -13.6948   17.1958 N   0  0  0  0  0  0  0  0  0  0  0  0
    9.0059  -14.7069   18.9618 N   0  0  0  0  0  0  0  0  0  0  0  0
    9.9407  -14.5985   20.0796 C   0  0  0  0  0  0  0  0  0  0  0  0
   10.4515  -15.9640   20.4816 C   0  0  0  0  0  0  0  0  0  0  0  0
   11.5151  -15.8537   21.5473 C   0  0  0  0  0  0  0  0  0  0  0  0
   11.0009  -16.4142   22.8766 C   0  0  2  0  0  0  0  0  0  0  0  0
    9.7639  -15.8201   23.2556 N   0  0  0  0  0  0  0  0  0  0  0  0
   12.0605  -16.3070   23.9078 C   0  0  0  0  0  0  0  0  0  0  0  0
   11.7831  -15.6702   24.9578 O   0  0  0  0  0  0  0  0  0  0  0  0
   13.3189  -16.8493   23.8034 O   0  0  0  0  0  0  0  0  0  0  0  0
  2  1  1  0
  3  2  1  0
  3  4  2  0
  6  5  1  0
  7  8  1  0
  7  6  1  0
  9  8  1  1
  9 10  1  0
 10  3  1  0
 11  9  1  0
 12 11  2  0
 14 13  1  0
 14 15  2  0
 16 14  1  0
 17 16  1  0
 18 17  1  0
 19 18  1  0
 20 21  1  0
 20 19  1  6
 21 11  1  0
 22 20  1  0
 23 22  2  0
 24 22  1  0
M  END
$$$$
