GMR.pdb
     RDKit          3D

 24 23  0  0  1  0  0  0  0  0999 V2000
    5.9775  -18.0589   21.1407 N   0  0  0  0  0  0  0  0  0  0  0  0
    5.6951  -17.7934   22.5342 C   0  0  0  0  0  0  0  0  0  0  0  0
    6.8013  -17.0660   23.1972 C   0  0  0  0  0  0  0  0  0  0  0  0
    7.9383  -17.1417   22.6654 O   0  0  0  0  0  0  0  0  0  0  0  0
    6.1658  -10.6350   25.6971 C   0  0  0  0  0  0  0  0  0  0  0  0
    6.5980  -12.1665   26.5338 S   0  0  0  0  0  0  0  0  0  0  0  0
    6.9476  -13.4544   25.2794 C   0  0  0  0  0  0  0  0  0  0  0  0
    7.3123  -14.6992   26.0175 C   0  0  0  0  0  0  0  0  0  0  0  0
    7.7798  -15.8351   25.1663 C   0  0  2  0  0  0  0  0  0  0  0  0
    6.6596  -16.3040   24.3731 N   0  0  0  0  0  0  0  0  0  0  0  0
    8.3849  -16.9546   25.9026 C   0  0  0  0  0  0  0  0  0  0  0  0
    7.7308  -17.7376   26.6370 O   0  0  0  0  0  0  0  0  0  0  0  0
   12.9815  -21.0950   22.2720 N   0  0  0  0  0  0  0  0  0  0  0  0
   12.4796  -20.0495   21.4811 C   0  0  0  0  0  0  0  0  0  0  0  0
   12.1564  -20.2153   20.2218 N   0  0  0  0  0  0  0  0  0  0  0  0
   12.3022  -18.7632   22.0283 N   0  0  0  0  0  0  0  0  0  0  0  0
   12.6287  -18.4795   23.4240 C   0  0  0  0  0  0  0  0  0  0  0  0
   11.5609  -19.0286   24.3434 C   0  0  0  0  0  0  0  0  0  0  0  0
   11.7892  -18.5831   25.7677 C   0  0  0  0  0  0  0  0  0  0  0  0
   10.4560  -18.2537   26.4456 C   0  0  2  0  0  0  0  0  0  0  0  0
    9.7836  -17.1821   25.7927 N   0  0  0  0  0  0  0  0  0  0  0  0
   10.6733  -18.0330   27.8954 C   0  0  0  0  0  0  0  0  0  0  0  0
   10.3967  -16.8940   28.3546 O   0  0  0  0  0  0  0  0  0  0  0  0
   11.1524  -18.9762   28.7725 O   0  0  0  0  0  0  0  0  0  0  0  0
  2  1  1  0
  3  2  1  0
  3  4  2  0
  6  5  1  0
  7  8  1  0
  7  6  1  0
  9  8  1  1
  9 10  1  0
 10  3  1  0
 11  9  1  0
 12 11  2  0
 14 13  1  0
 14 15  2  0
 16 14  1  0
 17 16  1  0
 18 17  1  0
 19 18  1  0
 20 21  1  0
 20 19  1  6
 21 11  1  0
 22 20  1  0
 23 22  2  0
 24 22  1  0
M  END
$$$$
