GMR.pdb
     RDKit          3D

 24 23  0  0  1  0  0  0  0  0999 V2000
    4.8893  -20.0547   24.6567 N   0  0  0  0  0  0  0  0  0  0  0  0
    5.8364  -19.3505   25.4929 C   0  0  0  0  0  0  0  0  0  0  0  0
    6.1888  -18.0236   24.9385 C   0  0  0  0  0  0  0  0  0  0  0  0
    6.0676  -17.8697   23.6964 O   0  0  0  0  0  0  0  0  0  0  0  0
    7.4147  -11.5018   26.3902 C   0  0  0  0  0  0  0  0  0  0  0  0
    6.4954  -12.6247   27.4515 S   0  0  0  0  0  0  0  0  0  0  0  0
    6.1773  -14.1816   26.5407 C   0  0  0  0  0  0  0  0  0  0  0  0
    7.5055  -14.7579   26.1783 C   0  0  0  0  0  0  0  0  0  0  0  0
    7.4710  -15.8675   25.1778 C   0  0  2  0  0  0  0  0  0  0  0  0
    6.6464  -16.9365   25.7081 N   0  0  0  0  0  0  0  0  0  0  0  0
    8.7877  -16.3892   24.7837 C   0  0  0  0  0  0  0  0  0  0  0  0
    9.4891  -17.1311   25.5173 O   0  0  0  0  0  0  0  0  0  0  0  0
    8.1654  -14.2246   17.3711 N   0  0  0  0  0  0  0  0  0  0  0  0
    8.7245  -13.2371   18.1973 C   0  0  0  0  0  0  0  0  0  0  0  0
    8.6064  -11.9574   17.9399 N   0  0  0  0  0  0  0  0  0  0  0  0
    9.4436  -13.5983   19.3541 N   0  0  0  0  0  0  0  0  0  0  0  0
    9.5521  -14.9928   19.7769 C   0  0  0  0  0  0  0  0  0  0  0  0
   10.4582  -15.1155   20.9815 C   0  0  0  0  0  0  0  0  0  0  0  0
   10.5443  -16.5473   21.4525 C   0  0  0  0  0  0  0  0  0  0  0  0
   10.5135  -16.6101   22.9824 C   0  0  2  0  0  0  0  0  0  0  0  0
    9.3157  -16.0489   23.5088 N   0  0  0  0  0  0  0  0  0  0  0  0
   11.7519  -16.0089   23.5325 C   0  0  0  0  0  0  0  0  0  0  0  0
   11.6284  -14.9706   24.2336 O   0  0  0  0  0  0  0  0  0  0  0  0
   13.0205  -16.4990   23.3350 O   0  0  0  0  0  0  0  0  0  0  0  0
  2  1  1  0
  3  2  1  0
  3  4  2  0
  6  5  1  0
  7  8  1  0
  7  6  1  0
  9  8  1  1
  9 10  1  0
 10  3  1  0
 11  9  1  0
 12 11  2  0
 14 13  1  0
 14 15  2  0
 16 14  1  0
 17 16  1  0
 18 17  1  0
 19 18  1  0
 20 21  1  0
 20 19  1  6
 21 11  1  0
 22 20  1  0
 23 22  2  0
 24 22  1  0
M  END
$$$$
