GMR.pdb
     RDKit          3D

 24 23  0  0  1  0  0  0  0  0999 V2000
    4.3760  -19.4282   22.6243 N   0  0  0  0  0  0  0  0  0  0  0  0
    5.3033  -19.2774   23.7240 C   0  0  0  0  0  0  0  0  0  0  0  0
    5.9122  -17.9282   23.7574 C   0  0  0  0  0  0  0  0  0  0  0  0
    6.0719  -17.3430   22.6559 O   0  0  0  0  0  0  0  0  0  0  0  0
    7.3506  -11.2445   26.9500 C   0  0  0  0  0  0  0  0  0  0  0  0
    6.5098  -12.8243   26.7783 S   0  0  0  0  0  0  0  0  0  0  0  0
    7.7488  -14.1245   26.4195 C   0  0  0  0  0  0  0  0  0  0  0  0
    7.0055  -15.4097   26.2672 C   0  0  0  0  0  0  0  0  0  0  0  0
    7.1540  -16.0825   24.9410 C   0  0  2  0  0  0  0  0  0  0  0  0
    6.3188  -17.2683   24.9332 N   0  0  0  0  0  0  0  0  0  0  0  0
    8.5341  -16.4307   24.5727 C   0  0  0  0  0  0  0  0  0  0  0  0
    9.2610  -17.2005   25.2505 O   0  0  0  0  0  0  0  0  0  0  0  0
    7.0424  -13.3876   17.4569 N   0  0  0  0  0  0  0  0  0  0  0  0
    8.1227  -13.8739   18.2098 C   0  0  0  0  0  0  0  0  0  0  0  0
    8.9579  -14.7688   17.7415 N   0  0  0  0  0  0  0  0  0  0  0  0
    8.3486  -13.4040   19.5189 N   0  0  0  0  0  0  0  0  0  0  0  0
    9.5656  -13.7484   20.2506 C   0  0  0  0  0  0  0  0  0  0  0  0
    9.4316  -15.1088   20.8975 C   0  0  0  0  0  0  0  0  0  0  0  0
   10.7121  -15.5093   21.5899 C   0  0  0  0  0  0  0  0  0  0  0  0
   10.4070  -16.1896   22.9276 C   0  0  2  0  0  0  0  0  0  0  0  0
    9.0971  -15.8782   23.3904 N   0  0  0  0  0  0  0  0  0  0  0  0
   11.4792  -15.8785   23.9029 C   0  0  0  0  0  0  0  0  0  0  0  0
   12.6627  -16.1432   23.5649 O   0  0  0  0  0  0  0  0  0  0  0  0
   11.2783  -15.3245   25.1443 O   0  0  0  0  0  0  0  0  0  0  0  0
  2  1  1  0
  3  2  1  0
  3  4  2  0
  6  5  1  0
  7  8  1  0
  7  6  1  0
  9  8  1  1
  9 10  1  0
 10  3  1  0
 11  9  1  0
 12 11  2  0
 14 13  1  0
 14 15  2  0
 16 14  1  0
 17 16  1  0
 18 17  1  0
 19 18  1  0
 20 21  1  0
 20 19  1  6
 21 11  1  0
 22 20  1  0
 23 22  2  0
 24 22  1  0
M  END
$$$$
