GMR.pdb
     RDKit          3D

 24 23  0  0  1  0  0  0  0  0999 V2000
    5.4174  -20.9923   24.5677 N   0  0  0  0  0  0  0  0  0  0  0  0
    5.8496  -19.9916   25.5185 C   0  0  0  0  0  0  0  0  0  0  0  0
    6.1486  -18.6965   24.8659 C   0  0  0  0  0  0  0  0  0  0  0  0
    6.0061  -18.6361   23.6180 O   0  0  0  0  0  0  0  0  0  0  0  0
    7.0454  -10.9477   25.8083 C   0  0  0  0  0  0  0  0  0  0  0  0
    6.7071  -12.5848   26.4700 S   0  0  0  0  0  0  0  0  0  0  0  0
    7.1185  -13.8390   25.2002 C   0  0  0  0  0  0  0  0  0  0  0  0
    6.7970  -15.1752   25.7820 C   0  0  0  0  0  0  0  0  0  0  0  0
    7.0476  -16.3426   24.8831 C   0  0  2  0  0  0  0  0  0  0  0  0
    6.5779  -17.5424   25.5492 N   0  0  0  0  0  0  0  0  0  0  0  0
    8.4452  -16.5108   24.4592 C   0  0  0  0  0  0  0  0  0  0  0  0
    9.3515  -16.9499   25.2117 O   0  0  0  0  0  0  0  0  0  0  0  0
    8.0037  -13.4571   17.0696 N   0  0  0  0  0  0  0  0  0  0  0  0
    8.2435  -13.0893   18.4029 C   0  0  0  0  0  0  0  0  0  0  0  0
    8.2000  -11.8429   18.8057 N   0  0  0  0  0  0  0  0  0  0  0  0
    8.5430  -14.0694   19.3702 N   0  0  0  0  0  0  0  0  0  0  0  0
    9.3001  -15.2707   19.0256 C   0  0  0  0  0  0  0  0  0  0  0  0
    9.3907  -16.2025   20.2134 C   0  0  0  0  0  0  0  0  0  0  0  0
   10.3154  -15.6471   21.2697 C   0  0  0  0  0  0  0  0  0  0  0  0
   10.1153  -16.3842   22.5972 C   0  0  2  0  0  0  0  0  0  0  0  0
    8.8139  -16.1643   23.1310 N   0  0  0  0  0  0  0  0  0  0  0  0
   11.2143  -16.0402   23.5307 C   0  0  0  0  0  0  0  0  0  0  0  0
   12.3819  -16.3716   23.1963 O   0  0  0  0  0  0  0  0  0  0  0  0
   11.0541  -15.3887   24.7300 O   0  0  0  0  0  0  0  0  0  0  0  0
  2  1  1  0
  3  2  1  0
  3  4  2  0
  6  5  1  0
  7  8  1  0
  7  6  1  0
  9  8  1  1
  9 10  1  0
 10  3  1  0
 11  9  1  0
 12 11  2  0
 14 13  1  0
 14 15  2  0
 16 14  1  0
 17 16  1  0
 18 17  1  0
 19 18  1  0
 20 21  1  0
 20 19  1  6
 21 11  1  0
 22 20  1  0
 23 22  2  0
 24 22  1  0
M  END
$$$$
