GMR.pdb
     RDKit          3D

 24 23  0  0  1  0  0  0  0  0999 V2000
    6.4105  -19.4348   19.6528 N   0  0  0  0  0  0  0  0  0  0  0  0
    5.7815  -18.5011   20.5609 C   0  0  0  0  0  0  0  0  0  0  0  0
    6.7271  -17.4668   21.0386 C   0  0  0  0  0  0  0  0  0  0  0  0
    7.9546  -17.7108   20.9164 O   0  0  0  0  0  0  0  0  0  0  0  0
    7.5990  -11.3863   18.7044 C   0  0  0  0  0  0  0  0  0  0  0  0
    7.5249  -11.8700   20.4345 S   0  0  0  0  0  0  0  0  0  0  0  0
    6.7766  -13.5371   20.5571 C   0  0  0  0  0  0  0  0  0  0  0  0
    6.8161  -13.9318   21.9959 C   0  0  0  0  0  0  0  0  0  0  0  0
    7.2651  -15.3318   22.2642 C   0  0  2  0  0  0  0  0  0  0  0  0
    6.3404  -16.2413   21.6149 N   0  0  0  0  0  0  0  0  0  0  0  0
    7.4035  -15.6775   23.6864 C   0  0  0  0  0  0  0  0  0  0  0  0
    6.4377  -16.0170   24.4161 O   0  0  0  0  0  0  0  0  0  0  0  0
    6.6906  -22.6677   26.3960 N   0  0  0  0  0  0  0  0  0  0  0  0
    6.4728  -21.7529   27.4383 C   0  0  0  0  0  0  0  0  0  0  0  0
    5.6694  -22.0102   28.4412 N   0  0  0  0  0  0  0  0  0  0  0  0
    7.1263  -20.5044   27.4395 N   0  0  0  0  0  0  0  0  0  0  0  0
    7.6841  -19.9375   26.2137 C   0  0  0  0  0  0  0  0  0  0  0  0
    8.1427  -18.5151   26.4449 C   0  0  0  0  0  0  0  0  0  0  0  0
    8.6999  -17.9116   25.1781 C   0  0  0  0  0  0  0  0  0  0  0  0
    9.0623  -16.4403   25.4007 C   0  0  2  0  0  0  0  0  0  0  0  0
    8.6897  -15.6320   24.2895 N   0  0  0  0  0  0  0  0  0  0  0  0
   10.4928  -16.3285   25.7730 C   0  0  0  0  0  0  0  0  0  0  0  0
   11.3215  -16.1607   24.8403 O   0  0  0  0  0  0  0  0  0  0  0  0
   10.9801  -16.3939   27.0562 O   0  0  0  0  0  0  0  0  0  0  0  0
  2  1  1  0
  3  2  1  0
  3  4  2  0
  6  5  1  0
  7  8  1  0
  7  6  1  0
  9  8  1  1
  9 10  1  0
 10  3  1  0
 11  9  1  0
 12 11  2  0
 14 13  1  0
 14 15  2  0
 16 14  1  0
 17 16  1  0
 18 17  1  0
 19 18  1  0
 20 21  1  0
 20 19  1  6
 21 11  1  0
 22 20  1  0
 23 22  2  0
 24 22  1  0
M  END
$$$$
