GMR.pdb
     RDKit          3D

 24 23  0  0  1  0  0  0  0  0999 V2000
    7.9682  -17.7121   20.8335 N   0  0  0  0  0  0  0  0  0  0  0  0
    7.3551  -17.5621   22.1349 C   0  0  0  0  0  0  0  0  0  0  0  0
    7.9904  -16.4855   22.9284 C   0  0  0  0  0  0  0  0  0  0  0  0
    9.1607  -16.1525   22.6109 O   0  0  0  0  0  0  0  0  0  0  0  0
    6.2265  -10.3090   25.8800 C   0  0  0  0  0  0  0  0  0  0  0  0
    6.1595  -11.8271   26.8408 S   0  0  0  0  0  0  0  0  0  0  0  0
    7.5659  -12.8988   26.3632 C   0  0  0  0  0  0  0  0  0  0  0  0
    7.0423  -13.9039   25.3920 C   0  0  0  0  0  0  0  0  0  0  0  0
    8.0537  -14.8657   24.8577 C   0  0  2  0  0  0  0  0  0  0  0  0
    7.3717  -15.8200   24.0043 N   0  0  0  0  0  0  0  0  0  0  0  0
    8.8411  -15.5703   25.8799 C   0  0  0  0  0  0  0  0  0  0  0  0
    8.3630  -16.4482   26.6423 O   0  0  0  0  0  0  0  0  0  0  0  0
   11.2548  -19.7666   29.0144 N   0  0  0  0  0  0  0  0  0  0  0  0
   11.8760  -19.5102   30.2469 C   0  0  0  0  0  0  0  0  0  0  0  0
   12.1129  -20.4554   31.1233 N   0  0  0  0  0  0  0  0  0  0  0  0
   12.2740  -18.2018   30.5863 N   0  0  0  0  0  0  0  0  0  0  0  0
   12.1252  -17.0939   29.6452 C   0  0  0  0  0  0  0  0  0  0  0  0
   10.6765  -16.9254   29.2452 C   0  0  0  0  0  0  0  0  0  0  0  0
   10.4810  -15.6703   28.4293 C   0  0  0  0  0  0  0  0  0  0  0  0
   11.0527  -15.8534   27.0204 C   0  0  2  0  0  0  0  0  0  0  0  0
   10.2192  -15.2575   26.0320 N   0  0  0  0  0  0  0  0  0  0  0  0
   11.3400  -17.2877   26.7798 C   0  0  0  0  0  0  0  0  0  0  0  0
   12.5438  -17.6161   26.6127 O   0  0  0  0  0  0  0  0  0  0  0  0
   10.3933  -18.2823   26.7259 O   0  0  0  0  0  0  0  0  0  0  0  0
  2  1  1  0
  3  2  1  0
  3  4  2  0
  6  5  1  0
  7  8  1  0
  7  6  1  0
  9  8  1  1
  9 10  1  0
 10  3  1  0
 11  9  1  0
 12 11  2  0
 14 13  1  0
 14 15  2  0
 16 14  1  0
 17 16  1  0
 18 17  1  0
 19 18  1  0
 20 21  1  0
 20 19  1  1
 21 11  1  0
 22 20  1  0
 23 22  2  0
 24 22  1  0
M  END
$$$$
