AIK.pdb
     RDKit          3D

 23 22  0  0  1  0  0  0  0  0999 V2000
    6.8355  -17.5062   22.1511 C   0  0  0  0  0  0  0  0  0  0  0  0
    7.1143  -16.0749   21.7462 C   0  0  2  0  0  0  0  0  0  0  0  0
    7.6676  -15.9868   20.4222 N   0  0  0  0  0  0  0  0  0  0  0  0
    7.9390  -15.3682   22.7532 C   0  0  0  0  0  0  0  0  0  0  0  0
    9.1883  -15.3962   22.6355 O   0  0  0  0  0  0  0  0  0  0  0  0
    5.6664  -11.9594   26.7695 C   0  0  0  0  0  0  0  0  0  0  0  0
    6.1861  -13.2014   26.0161 C   0  0  0  0  0  0  0  0  0  0  0  0
    7.4364  -12.7963   25.3274 C   0  0  2  0  0  0  0  0  0  0  0  0
    7.2139  -11.7185   24.2947 C   0  0  0  0  0  0  0  0  0  0  0  0
    8.2353  -13.9647   24.8409 C   0  0  2  0  0  0  0  0  0  0  0  0
    7.3885  -14.6580   23.8491 N   0  0  0  0  0  0  0  0  0  0  0  0
    8.6330  -14.8904   25.9089 C   0  0  0  0  0  0  0  0  0  0  0  0
    7.8244  -15.8404   26.2021 O   0  0  0  0  0  0  0  0  0  0  0  0
    9.8176  -14.8672   26.6646 N   0  0  0  0  0  0  0  0  0  0  0  0
   10.2812  -15.9872   27.4646 C   0  0  1  0  0  0  0  0  0  0  0  0
   11.6426  -16.4788   27.0303 C   0  0  0  0  0  0  0  0  0  0  0  0
   12.0743  -17.6267   27.9213 C   0  0  0  0  0  0  0  0  0  0  0  0
   11.7718  -18.9652   27.2854 C   0  0  0  0  0  0  0  0  0  0  0  0
   12.3101  -20.0244   28.2553 C   0  0  0  0  0  0  0  0  0  0  0  0
   12.0503  -21.3554   27.6908 N   0  0  0  0  0  0  0  0  0  0  0  0
   10.3867  -15.5295   28.8714 C   0  0  0  0  0  0  0  0  0  0  0  0
   10.2575  -14.1673   29.2049 O   0  0  0  0  0  0  0  0  0  0  0  0
   10.5932  -16.2940   29.8498 O   0  0  0  0  0  0  0  0  0  0  0  0
  2  1  1  1
  2  3  1  0
  2  4  1  0
  4  5  2  0
  7  6  1  0
  8  9  1  6
  8  7  1  0
 10  8  1  0
 11  4  1  0
 10 11  1  6
 12 14  1  0
 12 10  1  0
 13 12  2  0
 15 21  1  0
 15 14  1  0
 15 16  1  6
 16 17  1  0
 18 17  1  0
 19 18  1  0
 20 19  1  0
 21 22  1  0
 23 21  2  0
M  END
$$$$
