AIK.pdb
     RDKit          3D

 23 22  0  0  1  0  0  0  0  0999 V2000
    6.1724  -16.8891   21.6202 C   0  0  0  0  0  0  0  0  0  0  0  0
    6.6058  -15.4401   21.5650 C   0  0  2  0  0  0  0  0  0  0  0  0
    7.1395  -15.0853   20.2781 N   0  0  0  0  0  0  0  0  0  0  0  0
    7.5260  -15.0977   22.6740 C   0  0  0  0  0  0  0  0  0  0  0  0
    8.7625  -15.1249   22.4607 O   0  0  0  0  0  0  0  0  0  0  0  0
    6.0539  -11.4125   26.2651 C   0  0  0  0  0  0  0  0  0  0  0  0
    6.8775  -12.2415   25.2579 C   0  0  0  0  0  0  0  0  0  0  0  0
    7.3175  -13.4685   25.9667 C   0  0  2  0  0  0  0  0  0  0  0  0
    8.0431  -13.1719   27.2564 C   0  0  0  0  0  0  0  0  0  0  0  0
    8.0219  -14.4364   25.0683 C   0  0  2  0  0  0  0  0  0  0  0  0
    7.0810  -14.7389   23.9708 N   0  0  0  0  0  0  0  0  0  0  0  0
    8.4330  -15.6734   25.7440 C   0  0  0  0  0  0  0  0  0  0  0  0
    7.5188  -16.3752   26.3043 O   0  0  0  0  0  0  0  0  0  0  0  0
    9.7321  -16.1981   25.8529 N   0  0  0  0  0  0  0  0  0  0  0  0
   10.0333  -17.4704   26.4852 C   0  0  1  0  0  0  0  0  0  0  0  0
   11.1872  -18.1839   25.8193 C   0  0  0  0  0  0  0  0  0  0  0  0
   10.8107  -18.5340   24.3933 C   0  0  0  0  0  0  0  0  0  0  0  0
   11.9683  -19.1682   23.6549 C   0  0  0  0  0  0  0  0  0  0  0  0
   11.4921  -19.3610   22.2097 C   0  0  0  0  0  0  0  0  0  0  0  0
   12.5851  -19.9558   21.4290 N   0  0  0  0  0  0  0  0  0  0  0  0
   10.4126  -17.2008   27.8935 C   0  0  0  0  0  0  0  0  0  0  0  0
   10.4513  -18.2363   28.8474 O   0  0  0  0  0  0  0  0  0  0  0  0
   10.7206  -16.0639   28.3373 O   0  0  0  0  0  0  0  0  0  0  0  0
  2  1  1  6
  2  3  1  0
  2  4  1  0
  4  5  2  0
  7  6  1  0
  8  9  1  1
  8  7  1  0
 10  8  1  0
 11  4  1  0
 10 11  1  6
 12 14  1  0
 12 10  1  0
 13 12  2  0
 15 21  1  0
 15 14  1  0
 15 16  1  6
 16 17  1  0
 18 17  1  0
 19 18  1  0
 20 19  1  0
 21 22  1  0
 23 21  2  0
M  END
$$$$
