AIK.pdb
     RDKit          3D

 23 22  0  0  1  0  0  0  0  0999 V2000
    6.2626  -16.6339   21.2755 C   0  0  0  0  0  0  0  0  0  0  0  0
    6.9384  -15.2799   21.2905 C   0  0  2  0  0  0  0  0  0  0  0  0
    7.6911  -15.0393   20.0895 N   0  0  0  0  0  0  0  0  0  0  0  0
    7.7470  -15.0814   22.5154 C   0  0  0  0  0  0  0  0  0  0  0  0
    8.9794  -15.3147   22.4679 O   0  0  0  0  0  0  0  0  0  0  0  0
    5.8727  -11.4930   26.0843 C   0  0  0  0  0  0  0  0  0  0  0  0
    6.8054  -12.2495   25.1158 C   0  0  0  0  0  0  0  0  0  0  0  0
    7.2537  -13.4768   25.8190 C   0  0  2  0  0  0  0  0  0  0  0  0
    7.9014  -13.1857   27.1506 C   0  0  0  0  0  0  0  0  0  0  0  0
    8.0380  -14.3970   24.9368 C   0  0  2  0  0  0  0  0  0  0  0  0
    7.1993  -14.6392   23.7454 N   0  0  0  0  0  0  0  0  0  0  0  0
    8.3908  -15.6689   25.5799 C   0  0  0  0  0  0  0  0  0  0  0  0
    7.4353  -16.4720   25.8701 O   0  0  0  0  0  0  0  0  0  0  0  0
    9.6742  -16.1281   25.9218 N   0  0  0  0  0  0  0  0  0  0  0  0
    9.9442  -17.4716   26.4026 C   0  0  1  0  0  0  0  0  0  0  0  0
   11.0263  -18.1609   25.6040 C   0  0  0  0  0  0  0  0  0  0  0  0
   11.3334  -19.5090   26.2256 C   0  0  0  0  0  0  0  0  0  0  0  0
   12.3572  -20.2721   25.4151 C   0  0  0  0  0  0  0  0  0  0  0  0
   12.5008  -21.6389   26.0961 C   0  0  0  0  0  0  0  0  0  0  0  0
   13.3086  -22.5120   25.2341 N   0  0  0  0  0  0  0  0  0  0  0  0
   10.4071  -17.3684   27.8078 C   0  0  0  0  0  0  0  0  0  0  0  0
   10.3608  -18.4791   28.6725 O   0  0  0  0  0  0  0  0  0  0  0  0
   10.8639  -16.3161   28.3260 O   0  0  0  0  0  0  0  0  0  0  0  0
  2  1  1  6
  2  3  1  0
  2  4  1  0
  4  5  2  0
  7  6  1  0
  8  9  1  1
  8  7  1  0
 10  8  1  0
 11  4  1  0
 10 11  1  6
 12 14  1  0
 12 10  1  0
 13 12  2  0
 15 21  1  0
 15 14  1  0
 15 16  1  6
 16 17  1  0
 18 17  1  0
 19 18  1  0
 20 19  1  0
 21 22  1  0
 23 21  2  0
M  END
$$$$
