AIK.pdb
     RDKit          3D

 23 22  0  0  1  0  0  0  0  0999 V2000
    6.9121  -16.9124   21.4787 C   0  0  0  0  0  0  0  0  0  0  0  0
    7.0815  -15.4093   21.5290 C   0  0  2  0  0  0  0  0  0  0  0  0
    7.6405  -14.8884   20.3113 N   0  0  0  0  0  0  0  0  0  0  0  0
    7.8369  -14.9800   22.7285 C   0  0  0  0  0  0  0  0  0  0  0  0
    9.0848  -14.8724   22.6477 O   0  0  0  0  0  0  0  0  0  0  0  0
    5.5655  -11.6405   26.2381 C   0  0  0  0  0  0  0  0  0  0  0  0
    6.5777  -12.3262   25.2972 C   0  0  0  0  0  0  0  0  0  0  0  0
    7.1219  -13.4969   26.0286 C   0  0  2  0  0  0  0  0  0  0  0  0
    7.7117  -13.1287   27.3680 C   0  0  0  0  0  0  0  0  0  0  0  0
    8.0060  -14.3532   25.1769 C   0  0  2  0  0  0  0  0  0  0  0  0
    7.2212  -14.6824   23.9698 N   0  0  0  0  0  0  0  0  0  0  0  0
    8.4550  -15.5813   25.8447 C   0  0  0  0  0  0  0  0  0  0  0  0
    7.5562  -16.4104   26.2285 O   0  0  0  0  0  0  0  0  0  0  0  0
    9.7766  -15.9723   26.1190 N   0  0  0  0  0  0  0  0  0  0  0  0
   10.1259  -17.2321   26.7515 C   0  0  1  0  0  0  0  0  0  0  0  0
   11.3463  -17.8691   26.1279 C   0  0  0  0  0  0  0  0  0  0  0  0
   10.9221  -18.7439   24.9648 C   0  0  0  0  0  0  0  0  0  0  0  0
   12.1131  -19.3998   24.3022 C   0  0  0  0  0  0  0  0  0  0  0  0
   11.5463  -20.2363   23.1483 C   0  0  0  0  0  0  0  0  0  0  0  0
   12.6559  -20.9274   22.4783 N   0  0  0  0  0  0  0  0  0  0  0  0
   10.4303  -16.9574   28.1768 C   0  0  0  0  0  0  0  0  0  0  0  0
   10.4667  -15.6394   28.6720 O   0  0  0  0  0  0  0  0  0  0  0  0
   10.6730  -17.8483   29.0323 O   0  0  0  0  0  0  0  0  0  0  0  0
  2  1  1  6
  2  3  1  0
  2  4  1  0
  4  5  2  0
  7  6  1  0
  8  9  1  1
  8  7  1  0
 10  8  1  0
 11  4  1  0
 10 11  1  6
 12 14  1  0
 12 10  1  0
 13 12  2  0
 15 21  1  0
 15 14  1  0
 15 16  1  6
 16 17  1  0
 18 17  1  0
 19 18  1  0
 20 19  1  0
 21 22  1  0
 23 21  2  0
M  END
$$$$
