AIK.pdb
     RDKit          3D

 23 22  0  0  1  0  0  0  0  0999 V2000
    6.1761  -16.3970   21.3386 C   0  0  0  0  0  0  0  0  0  0  0  0
    6.7939  -15.0162   21.3820 C   0  0  2  0  0  0  0  0  0  0  0  0
    7.5085  -14.7067   20.1735 N   0  0  0  0  0  0  0  0  0  0  0  0
    7.6207  -14.8205   22.5951 C   0  0  0  0  0  0  0  0  0  0  0  0
    8.8467  -15.0827   22.5371 O   0  0  0  0  0  0  0  0  0  0  0  0
    5.8946  -11.1603   26.1584 C   0  0  0  0  0  0  0  0  0  0  0  0
    6.7912  -11.9555   25.1868 C   0  0  0  0  0  0  0  0  0  0  0  0
    7.2094  -13.1891   25.8973 C   0  0  2  0  0  0  0  0  0  0  0  0
    7.8870  -12.9050   27.2156 C   0  0  0  0  0  0  0  0  0  0  0  0
    7.9490  -14.1448   25.0142 C   0  0  2  0  0  0  0  0  0  0  0  0
    7.0972  -14.3500   23.8252 N   0  0  0  0  0  0  0  0  0  0  0  0
    8.2456  -15.4307   25.6579 C   0  0  0  0  0  0  0  0  0  0  0  0
    7.2679  -16.2359   25.8530 O   0  0  0  0  0  0  0  0  0  0  0  0
    9.4960  -15.9015   26.0935 N   0  0  0  0  0  0  0  0  0  0  0  0
    9.7649  -17.2942   26.4053 C   0  0  1  0  0  0  0  0  0  0  0  0
   10.4320  -18.0208   25.2603 C   0  0  0  0  0  0  0  0  0  0  0  0
   10.7154  -19.4535   25.6664 C   0  0  0  0  0  0  0  0  0  0  0  0
   11.3144  -20.2443   24.5247 C   0  0  0  0  0  0  0  0  0  0  0  0
   11.4643  -21.6812   25.0398 C   0  0  0  0  0  0  0  0  0  0  0  0
   12.0133  -22.5134   23.9610 N   0  0  0  0  0  0  0  0  0  0  0  0
   10.6836  -17.3316   27.5690 C   0  0  0  0  0  0  0  0  0  0  0  0
   11.5554  -16.2597   27.8423 O   0  0  0  0  0  0  0  0  0  0  0  0
   10.7578  -18.2909   28.3805 O   0  0  0  0  0  0  0  0  0  0  0  0
  2  1  1  6
  2  3  1  0
  2  4  1  0
  4  5  2  0
  7  6  1  0
  8  9  1  1
  8  7  1  0
 10  8  1  0
 11  4  1  0
 10 11  1  6
 12 14  1  0
 12 10  1  0
 13 12  2  0
 15 21  1  0
 15 14  1  0
 15 16  1  6
 16 17  1  0
 18 17  1  0
 19 18  1  0
 20 19  1  0
 21 22  1  0
 23 21  2  0
M  END
$$$$
