AIK.pdb
     RDKit          3D

 23 22  0  0  1  0  0  0  0  0999 V2000
    6.0458  -16.2834   21.3084 C   0  0  0  0  0  0  0  0  0  0  0  0
    6.5062  -14.8424   21.3520 C   0  0  2  0  0  0  0  0  0  0  0  0
    7.0203  -14.4017   20.0838 N   0  0  0  0  0  0  0  0  0  0  0  0
    7.4552  -14.6007   22.4631 C   0  0  0  0  0  0  0  0  0  0  0  0
    8.6865  -14.6659   22.2284 O   0  0  0  0  0  0  0  0  0  0  0  0
    6.0562  -11.2143   26.4028 C   0  0  0  0  0  0  0  0  0  0  0  0
    6.8823  -11.9275   25.3124 C   0  0  0  0  0  0  0  0  0  0  0  0
    7.3281  -13.2212   25.8860 C   0  0  2  0  0  0  0  0  0  0  0  0
    8.0776  -13.0588   27.1858 C   0  0  0  0  0  0  0  0  0  0  0  0
    8.0118  -14.0959   24.8821 C   0  0  2  0  0  0  0  0  0  0  0  0
    7.0438  -14.2978   23.7851 N   0  0  0  0  0  0  0  0  0  0  0  0
    8.4434  -15.3894   25.4267 C   0  0  0  0  0  0  0  0  0  0  0  0
    7.5319  -16.2214   25.7722 O   0  0  0  0  0  0  0  0  0  0  0  0
    9.7603  -15.8412   25.6177 N   0  0  0  0  0  0  0  0  0  0  0  0
   10.1094  -17.2375   25.8120 C   0  0  1  0  0  0  0  0  0  0  0  0
   11.2807  -17.6611   24.9561 C   0  0  0  0  0  0  0  0  0  0  0  0
   11.6554  -19.0930   25.2838 C   0  0  0  0  0  0  0  0  0  0  0  0
   12.8957  -19.5260   24.5344 C   0  0  0  0  0  0  0  0  0  0  0  0
   13.1231  -20.9960   24.9086 C   0  0  0  0  0  0  0  0  0  0  0  0
   14.3026  -21.4892   24.1851 N   0  0  0  0  0  0  0  0  0  0  0  0
   10.4916  -17.4181   27.2335 C   0  0  0  0  0  0  0  0  0  0  0  0
   10.5875  -16.3172   28.1066 O   0  0  0  0  0  0  0  0  0  0  0  0
   10.7529  -18.5316   27.7592 O   0  0  0  0  0  0  0  0  0  0  0  0
  2  1  1  6
  2  3  1  0
  2  4  1  0
  4  5  2  0
  7  6  1  0
  8  9  1  1
  8  7  1  0
 10  8  1  0
 11  4  1  0
 10 11  1  6
 12 14  1  0
 12 10  1  0
 13 12  2  0
 15 21  1  0
 15 14  1  0
 15 16  1  6
 16 17  1  0
 18 17  1  0
 19 18  1  0
 20 19  1  0
 21 22  1  0
 23 21  2  0
M  END
$$$$
