AIK.pdb
     RDKit          3D

 23 22  0  0  1  0  0  0  0  0999 V2000
    7.3743  -13.6223   20.4590 C   0  0  0  0  0  0  0  0  0  0  0  0
    7.4303  -14.8587   21.3300 C   0  0  2  0  0  0  0  0  0  0  0  0
    6.1243  -15.4110   21.5673 N   0  0  0  0  0  0  0  0  0  0  0  0
    8.1791  -14.6154   22.5844 C   0  0  0  0  0  0  0  0  0  0  0  0
    9.4051  -14.3561   22.5133 O   0  0  0  0  0  0  0  0  0  0  0  0
    5.8272  -11.8943   26.3762 C   0  0  0  0  0  0  0  0  0  0  0  0
    6.9048  -12.4351   25.4137 C   0  0  0  0  0  0  0  0  0  0  0  0
    7.4496  -13.6716   26.0269 C   0  0  2  0  0  0  0  0  0  0  0  0
    8.0157  -13.4411   27.4067 C   0  0  0  0  0  0  0  0  0  0  0  0
    8.3547  -14.4263   25.1043 C   0  0  2  0  0  0  0  0  0  0  0  0
    7.5807  -14.6602   23.8684 N   0  0  0  0  0  0  0  0  0  0  0  0
    8.8290  -15.7006   25.6585 C   0  0  0  0  0  0  0  0  0  0  0  0
    7.9458  -16.5436   26.0477 O   0  0  0  0  0  0  0  0  0  0  0  0
   10.1601  -16.1229   25.8160 N   0  0  0  0  0  0  0  0  0  0  0  0
   10.5323  -17.4190   26.3552 C   0  0  1  0  0  0  0  0  0  0  0  0
   11.7951  -17.9615   25.7267 C   0  0  0  0  0  0  0  0  0  0  0  0
   11.5630  -18.1981   24.2475 C   0  0  0  0  0  0  0  0  0  0  0  0
   12.8363  -18.6179   23.5475 C   0  0  0  0  0  0  0  0  0  0  0  0
   12.4319  -18.9675   22.1099 C   0  0  0  0  0  0  0  0  0  0  0  0
   13.6294  -19.3961   21.3748 N   0  0  0  0  0  0  0  0  0  0  0  0
   10.7780  -17.2545   27.8086 C   0  0  0  0  0  0  0  0  0  0  0  0
   10.9334  -18.3722   28.6512 O   0  0  0  0  0  0  0  0  0  0  0  0
   10.8651  -16.1410   28.3891 O   0  0  0  0  0  0  0  0  0  0  0  0
  2  1  1  1
  2  3  1  0
  2  4  1  0
  4  5  2  0
  7  6  1  0
  8  9  1  1
  8  7  1  0
 10  8  1  0
 11  4  1  0
 10 11  1  6
 12 14  1  0
 12 10  1  0
 13 12  2  0
 15 21  1  0
 15 14  1  0
 15 16  1  6
 16 17  1  0
 18 17  1  0
 19 18  1  0
 20 19  1  0
 21 22  1  0
 23 21  2  0
M  END
$$$$
