AIK.pdb
     RDKit          3D

 23 22  0  0  1  0  0  0  0  0999 V2000
    5.8315  -19.2273   25.3442 C   0  0  0  0  0  0  0  0  0  0  0  0
    5.3007  -18.0486   24.5573 C   0  0  2  0  0  0  0  0  0  0  0  0
    4.7120  -18.4538   23.3099 N   0  0  0  0  0  0  0  0  0  0  0  0
    6.3271  -16.9950   24.3837 C   0  0  0  0  0  0  0  0  0  0  0  0
    7.0706  -17.0392   23.3734 O   0  0  0  0  0  0  0  0  0  0  0  0
    5.7197  -12.1193   26.6748 C   0  0  0  0  0  0  0  0  0  0  0  0
    6.0526  -13.2066   25.6321 C   0  0  0  0  0  0  0  0  0  0  0  0
    7.3321  -13.8296   26.0520 C   0  0  2  0  0  0  0  0  0  0  0  0
    8.4506  -12.8275   26.2015 C   0  0  0  0  0  0  0  0  0  0  0  0
    7.6851  -15.0348   25.2376 C   0  0  2  0  0  0  0  0  0  0  0  0
    6.5150  -15.9334   25.3036 N   0  0  0  0  0  0  0  0  0  0  0  0
    8.8899  -15.7298   25.7082 C   0  0  0  0  0  0  0  0  0  0  0  0
    8.7431  -16.6238   26.6145 O   0  0  0  0  0  0  0  0  0  0  0  0
   10.2133  -15.5358   25.2771 N   0  0  0  0  0  0  0  0  0  0  0  0
   11.0492  -16.5995   24.7488 C   0  0  1  0  0  0  0  0  0  0  0  0
   10.5742  -17.0869   23.3995 C   0  0  0  0  0  0  0  0  0  0  0  0
   11.4217  -18.2642   22.9594 C   0  0  0  0  0  0  0  0  0  0  0  0
   11.0590  -18.7159   21.5623 C   0  0  0  0  0  0  0  0  0  0  0  0
   11.9737  -19.9077   21.2533 C   0  0  0  0  0  0  0  0  0  0  0  0
   11.7480  -20.3269   19.8637 N   0  0  0  0  0  0  0  0  0  0  0  0
   12.4215  -16.0615   24.5844 C   0  0  0  0  0  0  0  0  0  0  0  0
   13.5520  -16.8675   24.8213 O   0  0  0  0  0  0  0  0  0  0  0  0
   12.6806  -14.8813   24.2319 O   0  0  0  0  0  0  0  0  0  0  0  0
  2  1  1  6
  2  3  1  0
  2  4  1  0
  4  5  2  0
  7  6  1  0
  8  9  1  6
  8  7  1  0
 10  8  1  0
 11  4  1  0
 10 11  1  1
 12 14  1  0
 12 10  1  0
 13 12  2  0
 15 21  1  0
 15 14  1  0
 15 16  1  6
 16 17  1  0
 18 17  1  0
 19 18  1  0
 20 19  1  0
 21 22  1  0
 23 21  2  0
M  END
$$$$
