AIK.pdb
     RDKit          3D

 23 22  0  0  1  0  0  0  0  0999 V2000
    6.4894  -19.5822   25.9441 C   0  0  0  0  0  0  0  0  0  0  0  0
    5.5863  -18.6101   25.2162 C   0  0  2  0  0  0  0  0  0  0  0  0
    4.8438  -19.2482   24.1635 N   0  0  0  0  0  0  0  0  0  0  0  0
    6.3271  -17.4175   24.7446 C   0  0  0  0  0  0  0  0  0  0  0  0
    6.6328  -17.3399   23.5297 O   0  0  0  0  0  0  0  0  0  0  0  0
    5.7915  -12.5822   27.1514 C   0  0  0  0  0  0  0  0  0  0  0  0
    5.9520  -13.6009   26.0040 C   0  0  0  0  0  0  0  0  0  0  0  0
    7.3440  -14.1105   26.0712 C   0  0  2  0  0  0  0  0  0  0  0  0
    8.3749  -13.0111   25.9921 C   0  0  0  0  0  0  0  0  0  0  0  0
    7.5878  -15.2563   25.1396 C   0  0  2  0  0  0  0  0  0  0  0  0
    6.7112  -16.3531   25.5978 N   0  0  0  0  0  0  0  0  0  0  0  0
    8.9870  -15.7003   25.1077 C   0  0  0  0  0  0  0  0  0  0  0  0
    9.4683  -16.2220   26.1747 O   0  0  0  0  0  0  0  0  0  0  0  0
    9.8839  -15.6268   24.0283 N   0  0  0  0  0  0  0  0  0  0  0  0
   11.0606  -16.4688   23.9039 C   0  0  1  0  0  0  0  0  0  0  0  0
   11.6328  -16.4534   22.5052 C   0  0  0  0  0  0  0  0  0  0  0  0
   11.2169  -17.7146   21.7742 C   0  0  0  0  0  0  0  0  0  0  0  0
   10.4890  -17.3944   20.4877 C   0  0  0  0  0  0  0  0  0  0  0  0
   10.0782  -18.7449   19.8880 C   0  0  0  0  0  0  0  0  0  0  0  0
    9.3799  -18.5036   18.6184 N   0  0  0  0  0  0  0  0  0  0  0  0
   12.0956  -15.9450   24.8281 C   0  0  0  0  0  0  0  0  0  0  0  0
   13.2231  -16.7165   25.1702 O   0  0  0  0  0  0  0  0  0  0  0  0
   12.0535  -14.8071   25.3645 O   0  0  0  0  0  0  0  0  0  0  0  0
  2  1  1  6
  2  3  1  0
  2  4  1  0
  4  5  2  0
  7  6  1  0
  8  9  1  6
  8  7  1  0
 10  8  1  0
 11  4  1  0
 10 11  1  1
 12 14  1  0
 12 10  1  0
 13 12  2  0
 15 21  1  0
 15 14  1  0
 15 16  1  6
 16 17  1  0
 18 17  1  0
 19 18  1  0
 20 19  1  0
 21 22  1  0
 23 21  2  0
M  END
$$$$
