AIK.pdb
     RDKit          3D

 23 22  0  0  1  0  0  0  0  0999 V2000
    6.4973  -17.7218   22.5603 C   0  0  0  0  0  0  0  0  0  0  0  0
    6.8741  -16.2979   22.2124 C   0  0  2  0  0  0  0  0  0  0  0  0
    7.3809  -16.1863   20.8717 N   0  0  0  0  0  0  0  0  0  0  0  0
    7.7913  -15.7099   23.2157 C   0  0  0  0  0  0  0  0  0  0  0  0
    9.0264  -15.7436   22.9952 O   0  0  0  0  0  0  0  0  0  0  0  0
    5.8192  -11.6802   26.1767 C   0  0  0  0  0  0  0  0  0  0  0  0
    6.7781  -12.4827   25.2730 C   0  0  0  0  0  0  0  0  0  0  0  0
    7.4615  -13.4730   26.1412 C   0  0  2  0  0  0  0  0  0  0  0  0
    8.1909  -12.8339   27.2975 C   0  0  0  0  0  0  0  0  0  0  0  0
    8.2757  -14.4605   25.3652 C   0  0  2  0  0  0  0  0  0  0  0  0
    7.3451  -15.1078   24.4185 N   0  0  0  0  0  0  0  0  0  0  0  0
    8.9333  -15.4693   26.2052 C   0  0  0  0  0  0  0  0  0  0  0  0
    8.1836  -16.2511   26.8900 O   0  0  0  0  0  0  0  0  0  0  0  0
   10.3128  -15.6926   26.3532 N   0  0  0  0  0  0  0  0  0  0  0  0
   10.8699  -16.7965   27.1150 C   0  0  1  0  0  0  0  0  0  0  0  0
   12.3011  -17.0945   26.7317 C   0  0  0  0  0  0  0  0  0  0  0  0
   12.8475  -18.1889   27.6271 C   0  0  0  0  0  0  0  0  0  0  0  0
   13.4386  -19.3222   26.8185 C   0  0  0  0  0  0  0  0  0  0  0  0
   14.0124  -20.3137   27.8384 C   0  0  0  0  0  0  0  0  0  0  0  0
   14.6228  -21.4355   27.1126 N   0  0  0  0  0  0  0  0  0  0  0  0
   10.8490  -16.4172   28.5486 C   0  0  0  0  0  0  0  0  0  0  0  0
   10.8398  -17.3970   29.5603 O   0  0  0  0  0  0  0  0  0  0  0  0
   10.8382  -15.2295   28.9655 O   0  0  0  0  0  0  0  0  0  0  0  0
  2  1  1  1
  2  3  1  0
  2  4  1  0
  4  5  2  0
  7  6  1  0
  8  9  1  1
  8  7  1  0
 10  8  1  0
 11  4  1  0
 10 11  1  6
 12 14  1  0
 12 10  1  0
 13 12  2  0
 15 21  1  0
 15 14  1  0
 15 16  1  6
 16 17  1  0
 18 17  1  0
 19 18  1  0
 20 19  1  0
 21 22  1  0
 23 21  2  0
M  END
$$$$
