AIK.pdb
     RDKit          3D

 23 22  0  0  1  0  0  0  0  0999 V2000
    7.1804  -19.6433   18.6820 C   0  0  0  0  0  0  0  0  0  0  0  0
    7.3300  -18.2490   18.1128 C   0  0  2  0  0  0  0  0  0  0  0  0
    7.7174  -18.2701   16.7285 N   0  0  0  0  0  0  0  0  0  0  0  0
    8.2276  -17.4099   18.9397 C   0  0  0  0  0  0  0  0  0  0  0  0
    9.4637  -17.6225   18.8924 O   0  0  0  0  0  0  0  0  0  0  0  0
    6.7323  -12.3486   20.1294 C   0  0  0  0  0  0  0  0  0  0  0  0
    7.6541  -13.5086   19.6992 C   0  0  0  0  0  0  0  0  0  0  0  0
    7.9589  -14.2932   20.9211 C   0  0  2  0  0  0  0  0  0  0  0  0
    8.5908  -13.4605   22.0098 C   0  0  0  0  0  0  0  0  0  0  0  0
    8.6767  -15.5727   20.6248 C   0  0  2  0  0  0  0  0  0  0  0  0
    7.7616  -16.3735   19.7866 N   0  0  0  0  0  0  0  0  0  0  0  0
    9.0579  -16.3249   21.8268 C   0  0  0  0  0  0  0  0  0  0  0  0
    8.1159  -16.8274   22.5357 O   0  0  0  0  0  0  0  0  0  0  0  0
   10.3555  -16.5716   22.3065 N   0  0  0  0  0  0  0  0  0  0  0  0
   10.6383  -17.3950   23.4689 C   0  0  1  0  0  0  0  0  0  0  0  0
   11.4250  -18.6362   23.1160 C   0  0  0  0  0  0  0  0  0  0  0  0
   11.6352  -19.4736   24.3620 C   0  0  0  0  0  0  0  0  0  0  0  0
   12.4481  -20.7139   24.0648 C   0  0  0  0  0  0  0  0  0  0  0  0
   12.5370  -21.4869   25.3866 C   0  0  0  0  0  0  0  0  0  0  0  0
   13.3909  -22.6653   25.1866 N   0  0  0  0  0  0  0  0  0  0  0  0
   11.4523  -16.5891   24.4111 C   0  0  0  0  0  0  0  0  0  0  0  0
   11.4804  -16.8875   25.7872 O   0  0  0  0  0  0  0  0  0  0  0  0
   12.1609  -15.6060   24.0707 O   0  0  0  0  0  0  0  0  0  0  0  0
  2  1  1  1
  2  3  1  0
  2  4  1  0
  4  5  2  0
  7  6  1  0
  8  9  1  1
  8  7  1  0
 10  8  1  0
 11  4  1  0
 10 11  1  6
 12 14  1  0
 12 10  1  0
 13 12  2  0
 15 21  1  0
 15 14  1  0
 15 16  1  6
 16 17  1  0
 18 17  1  0
 19 18  1  0
 20 19  1  0
 21 22  1  0
 23 21  2  0
M  END
$$$$
