HEN.pdb
     RDKit          3D

 28 28  0  0  1  0  0  0  0  0999 V2000
   24.3037  -12.8977  -18.1934 N   0  0  0  0  0  0  0  0  0  0  0  0
   24.1773  -12.3667  -16.8713 C   0  0  1  0  0  0  0  0  0  0  0  0
   25.5060  -11.9871  -16.2627 C   0  0  0  0  0  0  0  0  0  0  0  0
   26.3482  -13.2276  -16.2719 C   0  0  0  0  0  0  0  0  0  0  0  0
   26.1507  -14.3617  -15.4804 C   0  0  0  0  0  0  0  0  0  0  0  0
   27.1023  -15.2604  -15.7689 N   0  0  0  0  0  0  0  0  0  0  0  0
   27.8910  -14.7381  -16.7100 C   0  0  0  0  0  0  0  0  0  0  0  0
   27.4337  -13.5048  -17.0155 N   0  0  0  0  0  0  0  0  0  0  0  0
   23.1661  -11.2934  -16.7741 C   0  0  0  0  0  0  0  0  0  0  0  0
   23.2225  -10.3512  -17.6010 O   0  0  0  0  0  0  0  0  0  0  0  0
   22.1339  -11.3137  -15.7598 N   0  0  0  0  0  0  0  0  0  0  0  0
   21.1345  -10.3102  -15.8030 C   0  0  1  0  0  0  0  0  0  0  0  0
   19.7977  -10.7613  -15.2898 C   0  0  0  0  0  0  0  0  0  0  0  0
   19.1279  -11.8539  -16.0303 C   0  0  0  0  0  0  0  0  0  0  0  0
   17.8576  -12.3479  -15.4842 C   0  0  0  0  0  0  0  0  0  0  0  0
   17.6956  -13.5641  -15.1338 O   0  0  0  0  0  0  0  0  0  0  0  0
   21.5638   -9.0302  -15.1747 C   0  0  0  0  0  0  0  0  0  0  0  0
   22.2814   -9.0821  -14.1511 O   0  0  0  0  0  0  0  0  0  0  0  0
   16.7707  -11.5095  -15.3241 O   0  0  0  0  0  0  0  0  0  0  0  0
   22.4639   -4.0096  -14.0579 N   0  0  0  0  0  0  0  0  0  0  0  0
   22.7862   -4.3412  -15.3954 C   0  0  0  0  0  0  0  0  0  0  0  0
   23.4178   -3.4945  -16.0662 O   0  0  0  0  0  0  0  0  0  0  0  0
   22.4101   -5.6206  -16.0060 C   0  0  0  0  0  0  0  0  0  0  0  0
   21.6191   -6.5140  -15.0997 C   0  0  2  0  0  0  0  0  0  0  0  0
   21.2041   -7.7516  -15.6723 N   0  0  0  0  0  0  0  0  0  0  0  0
   20.4676   -5.7521  -14.5023 C   0  0  0  0  0  0  0  0  0  0  0  0
   20.5678   -5.1068  -13.2939 O   0  0  0  0  0  0  0  0  0  0  0  0
   19.3640   -5.6940  -15.1203 O   0  0  0  0  0  0  0  0  0  0  0  0
  2  1  1  6
  2  9  1  0
  3  2  1  0
  4  3  1  0
  5  4  2  0
  6  7  1  0
  6  5  1  0
  7  8  2  0
  8  4  1  0
  9 11  1  0
 10  9  2  0
 11 12  1  0
 12 13  1  1
 13 14  1  0
 14 15  1  0
 15 16  2  0
 15 19  1  0
 17 18  2  0
 17 12  1  0
 20 21  1  0
 21 23  1  0
 21 22  2  0
 24 23  1  6
 24 25  1  0
 25 17  1  0
 26 24  1  0
 26 27  1  0
 28 26  2  0
M  END
$$$$
