HEN.pdb
     RDKit          3D

 28 28  0  0  1  0  0  0  0  0999 V2000
   19.4093  -13.5910  -17.3159 N   0  0  0  0  0  0  0  0  0  0  0  0
   18.5753  -12.7163  -16.5510 C   0  0  1  0  0  0  0  0  0  0  0  0
   18.6798  -12.9584  -15.0642 C   0  0  0  0  0  0  0  0  0  0  0  0
   18.1468  -14.3383  -14.8192 C   0  0  0  0  0  0  0  0  0  0  0  0
   17.6964  -15.2311  -15.7947 C   0  0  0  0  0  0  0  0  0  0  0  0
   17.2968  -16.3608  -15.1942 N   0  0  0  0  0  0  0  0  0  0  0  0
   17.4772  -16.2153  -13.8801 C   0  0  0  0  0  0  0  0  0  0  0  0
   17.9929  -14.9883  -13.6522 N   0  0  0  0  0  0  0  0  0  0  0  0
   18.7364  -11.2946  -16.9208 C   0  0  0  0  0  0  0  0  0  0  0  0
   19.8765  -10.8985  -17.2641 O   0  0  0  0  0  0  0  0  0  0  0  0
   17.6211  -10.3727  -16.8927 N   0  0  0  0  0  0  0  0  0  0  0  0
   17.8631   -9.0200  -17.2385 C   0  0  1  0  0  0  0  0  0  0  0  0
   16.6214   -8.2488  -17.5810 C   0  0  0  0  0  0  0  0  0  0  0  0
   16.8000   -6.8415  -18.0033 C   0  0  0  0  0  0  0  0  0  0  0  0
   17.2356   -6.6110  -19.3865 C   0  0  0  0  0  0  0  0  0  0  0  0
   18.4303   -6.8424  -19.7702 O   0  0  0  0  0  0  0  0  0  0  0  0
   18.7009   -8.3019  -16.2385 C   0  0  0  0  0  0  0  0  0  0  0  0
   18.5682   -8.5978  -15.0301 O   0  0  0  0  0  0  0  0  0  0  0  0
   16.3627   -6.1285  -20.3430 O   0  0  0  0  0  0  0  0  0  0  0  0
   22.4577   -5.4929  -13.9310 N   0  0  0  0  0  0  0  0  0  0  0  0
   22.8376   -6.6222  -14.6947 C   0  0  0  0  0  0  0  0  0  0  0  0
   24.0024   -7.0554  -14.5485 O   0  0  0  0  0  0  0  0  0  0  0  0
   21.9262   -7.2860  -15.6327 C   0  0  0  0  0  0  0  0  0  0  0  0
   20.5501   -6.6938  -15.6605 C   0  0  2  0  0  0  0  0  0  0  0  0
   19.6434   -7.2984  -16.5793 N   0  0  0  0  0  0  0  0  0  0  0  0
   20.6346   -5.2033  -15.8463 C   0  0  0  0  0  0  0  0  0  0  0  0
   21.3577   -4.4016  -14.9971 O   0  0  0  0  0  0  0  0  0  0  0  0
   20.0256   -4.6544  -16.8113 O   0  0  0  0  0  0  0  0  0  0  0  0
  2  1  1  6
  2  9  1  0
  3  2  1  0
  4  3  1  0
  5  4  2  0
  6  7  1  0
  6  5  1  0
  7  8  2  0
  8  4  1  0
  9 11  1  0
 10  9  2  0
 11 12  1  0
 12 13  1  1
 13 14  1  0
 14 15  1  0
 15 16  2  0
 15 19  1  0
 17 18  2  0
 17 12  1  0
 20 21  1  0
 21 23  1  0
 21 22  2  0
 24 23  1  6
 24 25  1  0
 25 17  1  0
 26 24  1  0
 26 27  1  0
 28 26  2  0
M  END
$$$$
