HEN.pdb
     RDKit          3D

 28 28  0  0  1  0  0  0  0  0999 V2000
   18.2319  -10.2248  -14.3720 N   0  0  0  0  0  0  0  0  0  0  0  0
   18.9411  -10.0490  -15.6017 C   0  0  1  0  0  0  0  0  0  0  0  0
   18.0403  -10.1120  -16.8119 C   0  0  0  0  0  0  0  0  0  0  0  0
   17.4402  -11.4860  -16.8246 C   0  0  0  0  0  0  0  0  0  0  0  0
   17.8258  -12.5443  -17.6508 C   0  0  0  0  0  0  0  0  0  0  0  0
   17.0612  -13.6095  -17.3731 N   0  0  0  0  0  0  0  0  0  0  0  0
   16.2096  -13.2647  -16.4053 C   0  0  0  0  0  0  0  0  0  0  0  0
   16.4393  -11.9763  -16.0723 N   0  0  0  0  0  0  0  0  0  0  0  0
   19.8233   -8.8634  -15.5953 C   0  0  0  0  0  0  0  0  0  0  0  0
   19.4916   -7.8833  -14.8853 O   0  0  0  0  0  0  0  0  0  0  0  0
   21.0385   -8.8183  -16.3801 N   0  0  0  0  0  0  0  0  0  0  0  0
   21.9162   -7.7221  -16.1907 C   0  0  1  0  0  0  0  0  0  0  0  0
   23.3677   -8.0712  -16.3494 C   0  0  0  0  0  0  0  0  0  0  0  0
   24.0355   -8.7084  -15.1924 C   0  0  0  0  0  0  0  0  0  0  0  0
   25.4767   -8.9630  -15.3120 C   0  0  0  0  0  0  0  0  0  0  0  0
   25.9541  -10.1438  -15.3886 O   0  0  0  0  0  0  0  0  0  0  0  0
   21.5438   -6.5285  -16.9996 C   0  0  0  0  0  0  0  0  0  0  0  0
   20.9153   -6.7066  -18.0668 O   0  0  0  0  0  0  0  0  0  0  0  0
   26.3884   -7.9251  -15.3472 O   0  0  0  0  0  0  0  0  0  0  0  0
   19.3338   -2.6190  -19.5737 N   0  0  0  0  0  0  0  0  0  0  0  0
   19.4723   -2.7228  -18.1692 C   0  0  0  0  0  0  0  0  0  0  0  0
   19.2004   -1.7117  -17.4838 O   0  0  0  0  0  0  0  0  0  0  0  0
   19.9156   -3.9539  -17.5067 C   0  0  0  0  0  0  0  0  0  0  0  0
   21.3986   -4.0338  -17.3086 C   0  0  2  0  0  0  0  0  0  0  0  0
   21.8621   -5.1973  -16.6279 N   0  0  0  0  0  0  0  0  0  0  0  0
   21.9022   -2.7672  -16.6719 C   0  0  0  0  0  0  0  0  0  0  0  0
   22.4590   -1.7509  -17.4095 O   0  0  0  0  0  0  0  0  0  0  0  0
   21.8175   -2.6172  -15.4175 O   0  0  0  0  0  0  0  0  0  0  0  0
  2  1  1  1
  2  9  1  0
  3  2  1  0
  4  3  1  0
  5  4  2  0
  6  7  1  0
  6  5  1  0
  7  8  2  0
  8  4  1  0
  9 11  1  0
 10  9  2  0
 11 12  1  0
 12 13  1  6
 13 14  1  0
 14 15  1  0
 15 16  2  0
 15 19  1  0
 17 18  2  0
 17 12  1  0
 20 21  1  0
 21 23  1  0
 21 22  2  0
 24 23  1  1
 24 25  1  0
 25 17  1  0
 26 24  1  0
 26 27  1  0
 28 26  2  0
M  END
$$$$
