HEN.pdb
     RDKit          3D

 28 28  0  0  1  0  0  0  0  0999 V2000
   18.6322  -14.6519  -16.5027 N   0  0  0  0  0  0  0  0  0  0  0  0
   18.3782  -13.2508  -16.6379 C   0  0  1  0  0  0  0  0  0  0  0  0
   17.0351  -12.8423  -16.0819 C   0  0  0  0  0  0  0  0  0  0  0  0
   16.0060  -13.6382  -16.8273 C   0  0  0  0  0  0  0  0  0  0  0  0
   15.7542  -13.5763  -18.2000 C   0  0  0  0  0  0  0  0  0  0  0  0
   14.7652  -14.4311  -18.4963 N   0  0  0  0  0  0  0  0  0  0  0  0
   14.3841  -15.0286  -17.3657 C   0  0  0  0  0  0  0  0  0  0  0  0
   15.1368  -14.5478  -16.3528 N   0  0  0  0  0  0  0  0  0  0  0  0
   19.4905  -12.4119  -16.1451 C   0  0  0  0  0  0  0  0  0  0  0  0
   19.8451  -12.5433  -14.9485 O   0  0  0  0  0  0  0  0  0  0  0  0
   20.1619  -11.4611  -17.0052 N   0  0  0  0  0  0  0  0  0  0  0  0
   21.2264  -10.7015  -16.4594 C   0  0  1  0  0  0  0  0  0  0  0  0
   22.5625  -10.9965  -17.0771 C   0  0  0  0  0  0  0  0  0  0  0  0
   22.7035  -10.7383  -18.5276 C   0  0  0  0  0  0  0  0  0  0  0  0
   24.0101  -11.0273  -19.1320 C   0  0  0  0  0  0  0  0  0  0  0  0
   24.2883  -12.1653  -19.6376 O   0  0  0  0  0  0  0  0  0  0  0  0
   20.9442   -9.2398  -16.4256 C   0  0  0  0  0  0  0  0  0  0  0  0
   20.3178   -8.7333  -17.3830 O   0  0  0  0  0  0  0  0  0  0  0  0
   25.0061  -10.0704  -19.1802 O   0  0  0  0  0  0  0  0  0  0  0  0
   22.2484   -3.9207  -13.8064 N   0  0  0  0  0  0  0  0  0  0  0  0
   21.2140   -4.8517  -14.0630 C   0  0  0  0  0  0  0  0  0  0  0  0
   20.0756   -4.3980  -14.3159 O   0  0  0  0  0  0  0  0  0  0  0  0
   21.4317   -6.3020  -14.0419 C   0  0  0  0  0  0  0  0  0  0  0  0
   21.1758   -6.9713  -15.3578 C   0  0  2  0  0  0  0  0  0  0  0  0
   21.3468   -8.3864  -15.3667 N   0  0  0  0  0  0  0  0  0  0  0  0
   21.9727   -6.2979  -16.4416 C   0  0  0  0  0  0  0  0  0  0  0  0
   23.2048   -6.7599  -16.8360 O   0  0  0  0  0  0  0  0  0  0  0  0
   21.5073   -5.2716  -17.0189 O   0  0  0  0  0  0  0  0  0  0  0  0
  2  1  1  1
  2  9  1  0
  3  2  1  0
  4  3  1  0
  5  4  2  0
  6  7  1  0
  6  5  1  0
  7  8  2  0
  8  4  1  0
  9 11  1  0
 10  9  2  0
 11 12  1  0
 12 13  1  6
 13 14  1  0
 14 15  1  0
 15 16  2  0
 15 19  1  0
 17 18  2  0
 17 12  1  0
 20 21  1  0
 21 23  1  0
 21 22  2  0
 24 23  1  1
 24 25  1  0
 25 17  1  0
 26 24  1  0
 26 27  1  0
 28 26  2  0
M  END
$$$$
