HEN.pdb
     RDKit          3D

 28 28  0  0  1  0  0  0  0  0999 V2000
   19.6840  -13.7698  -16.1624 N   0  0  0  0  0  0  0  0  0  0  0  0
   19.5774  -12.6112  -16.9944 C   0  0  1  0  0  0  0  0  0  0  0  0
   18.1741  -12.3816  -17.5024 C   0  0  0  0  0  0  0  0  0  0  0  0
   17.7791  -13.6266  -18.2388 C   0  0  0  0  0  0  0  0  0  0  0  0
   16.8627  -14.5856  -17.8005 C   0  0  0  0  0  0  0  0  0  0  0  0
   16.7726  -15.5511  -18.7258 N   0  0  0  0  0  0  0  0  0  0  0  0
   17.5952  -15.2389  -19.7289 C   0  0  0  0  0  0  0  0  0  0  0  0
   18.2061  -14.0712  -19.4338 N   0  0  0  0  0  0  0  0  0  0  0  0
   20.1796  -11.4062  -16.3868 C   0  0  0  0  0  0  0  0  0  0  0  0
   19.8937  -11.1393  -15.1944 O   0  0  0  0  0  0  0  0  0  0  0  0
   21.0753  -10.5480  -17.1323 N   0  0  0  0  0  0  0  0  0  0  0  0
   21.5503   -9.3703  -16.5036 C   0  0  1  0  0  0  0  0  0  0  0  0
   22.9962   -9.0749  -16.7794 C   0  0  0  0  0  0  0  0  0  0  0  0
   23.5659   -7.8625  -16.1500 C   0  0  0  0  0  0  0  0  0  0  0  0
   24.9925   -7.6006  -16.3787 C   0  0  0  0  0  0  0  0  0  0  0  0
   25.8906   -8.4752  -16.1410 O   0  0  0  0  0  0  0  0  0  0  0  0
   20.6865   -8.1839  -16.7560 C   0  0  0  0  0  0  0  0  0  0  0  0
   20.4029   -7.8965  -17.9402 O   0  0  0  0  0  0  0  0  0  0  0  0
   25.4297   -6.3836  -16.8660 O   0  0  0  0  0  0  0  0  0  0  0  0
   17.7601   -3.8769  -16.2675 N   0  0  0  0  0  0  0  0  0  0  0  0
   17.5400   -4.7156  -15.1491 C   0  0  0  0  0  0  0  0  0  0  0  0
   16.6144   -4.4060  -14.3659 O   0  0  0  0  0  0  0  0  0  0  0  0
   18.3472   -5.9116  -14.8859 C   0  0  0  0  0  0  0  0  0  0  0  0
   19.3665   -6.1986  -15.9459 C   0  0  2  0  0  0  0  0  0  0  0  0
   20.1654   -7.3586  -15.7269 N   0  0  0  0  0  0  0  0  0  0  0  0
   20.2033   -4.9746  -16.2007 C   0  0  0  0  0  0  0  0  0  0  0  0
   19.7712   -3.9497  -17.0067 O   0  0  0  0  0  0  0  0  0  0  0  0
   21.3447   -4.8701  -15.6626 O   0  0  0  0  0  0  0  0  0  0  0  0
  2  1  1  1
  2  9  1  0
  3  2  1  0
  4  3  1  0
  5  4  2  0
  6  7  1  0
  6  5  1  0
  7  8  2  0
  8  4  1  0
  9 11  1  0
 10  9  2  0
 11 12  1  0
 12 13  1  6
 13 14  1  0
 14 15  1  0
 15 16  2  0
 15 19  1  0
 17 18  2  0
 17 12  1  0
 20 21  1  0
 21 23  1  0
 21 22  2  0
 24 23  1  1
 24 25  1  0
 25 17  1  0
 26 24  1  0
 26 27  1  0
 28 26  2  0
M  END
$$$$
