HEN.pdb
     RDKit          3D

 28 28  0  0  1  0  0  0  0  0999 V2000
   24.1522  -35.3888  -10.4422 N   0  0  0  0  0  0  0  0  0  0  0  0
   24.6209  -34.3181   -9.6177 C   0  0  1  0  0  0  0  0  0  0  0  0
   23.6449  -33.1687   -9.5387 C   0  0  0  0  0  0  0  0  0  0  0  0
   23.5009  -32.6362  -10.9329 C   0  0  0  0  0  0  0  0  0  0  0  0
   24.0870  -33.1716  -12.0825 C   0  0  0  0  0  0  0  0  0  0  0  0
   23.7298  -32.4251  -13.1367 N   0  0  0  0  0  0  0  0  0  0  0  0
   22.9426  -31.4412  -12.6976 C   0  0  0  0  0  0  0  0  0  0  0  0
   22.8035  -31.5690  -11.3605 N   0  0  0  0  0  0  0  0  0  0  0  0
   25.0913  -34.7728   -8.2926 C   0  0  0  0  0  0  0  0  0  0  0  0
   24.4461  -35.6815   -7.7158 O   0  0  0  0  0  0  0  0  0  0  0  0
   26.2609  -34.1965   -7.6643 N   0  0  0  0  0  0  0  0  0  0  0  0
   26.6673  -34.7118   -6.4085 C   0  0  1  0  0  0  0  0  0  0  0  0
   28.1488  -34.9238   -6.2892 C   0  0  0  0  0  0  0  0  0  0  0  0
   28.6428  -35.5175   -5.0266 C   0  0  0  0  0  0  0  0  0  0  0  0
   30.0951  -35.6879   -4.8938 C   0  0  0  0  0  0  0  0  0  0  0  0
   30.9070  -35.3421   -5.8153 O   0  0  0  0  0  0  0  0  0  0  0  0
   26.1257  -33.9390   -5.2566 C   0  0  0  0  0  0  0  0  0  0  0  0
   26.3892  -32.7180   -5.1837 O   0  0  0  0  0  0  0  0  0  0  0  0
   30.6523  -36.2359   -3.7540 O   0  0  0  0  0  0  0  0  0  0  0  0
   22.7656  -32.8557   -4.7347 N   0  0  0  0  0  0  0  0  0  0  0  0
   22.4417  -33.5851   -3.5661 C   0  0  0  0  0  0  0  0  0  0  0  0
   21.2296  -33.7703   -3.3160 O   0  0  0  0  0  0  0  0  0  0  0  0
   23.4625  -34.1194   -2.6585 C   0  0  0  0  0  0  0  0  0  0  0  0
   24.8670  -33.8114   -3.0795 C   0  0  2  0  0  0  0  0  0  0  0  0
   25.3257  -34.5102   -4.2342 N   0  0  0  0  0  0  0  0  0  0  0  0
   25.8018  -33.9726   -1.9118 C   0  0  0  0  0  0  0  0  0  0  0  0
   25.6850  -33.2134   -0.7731 O   0  0  0  0  0  0  0  0  0  0  0  0
   26.7311  -34.8310   -1.9641 O   0  0  0  0  0  0  0  0  0  0  0  0
  2  1  1  1
  2  9  1  0
  3  2  1  0
  4  3  1  0
  5  4  2  0
  6  7  1  0
  6  5  1  0
  7  8  2  0
  8  4  1  0
  9 11  1  0
 10  9  2  0
 11 12  1  0
 12 13  1  6
 13 14  1  0
 14 15  1  0
 15 16  2  0
 15 19  1  0
 17 18  2  0
 17 12  1  0
 20 21  1  0
 21 23  1  0
 21 22  2  0
 24 23  1  1
 24 25  1  0
 25 17  1  0
 26 24  1  0
 26 27  1  0
 28 26  2  0
M  END
$$$$
