HEN.pdb
     RDKit          3D

 28 28  0  0  1  0  0  0  0  0999 V2000
   27.8844  -21.1103  -16.9629 N   0  0  0  0  0  0  0  0  0  0  0  0
   26.5557  -21.1015  -17.4922 C   0  0  1  0  0  0  0  0  0  0  0  0
   26.0493  -22.4839  -17.8279 C   0  0  0  0  0  0  0  0  0  0  0  0
   26.3032  -22.6862  -19.2917 C   0  0  0  0  0  0  0  0  0  0  0  0
   27.5283  -23.0171  -19.8759 C   0  0  0  0  0  0  0  0  0  0  0  0
   27.3622  -23.1119  -21.2025 N   0  0  0  0  0  0  0  0  0  0  0  0
   26.0822  -22.8540  -21.4773 C   0  0  0  0  0  0  0  0  0  0  0  0
   25.4393  -22.5957  -20.3182 N   0  0  0  0  0  0  0  0  0  0  0  0
   25.6102  -20.3211  -16.6670 C   0  0  0  0  0  0  0  0  0  0  0  0
   25.5432  -20.5791  -15.4408 O   0  0  0  0  0  0  0  0  0  0  0  0
   24.7781  -19.2857  -17.2416 N   0  0  0  0  0  0  0  0  0  0  0  0
   23.9215  -18.5600  -16.3771 C   0  0  1  0  0  0  0  0  0  0  0  0
   23.8162  -17.1001  -16.7108 C   0  0  0  0  0  0  0  0  0  0  0  0
   22.8795  -16.2914  -15.8988 C   0  0  0  0  0  0  0  0  0  0  0  0
   22.7666  -14.8662  -16.2337 C   0  0  0  0  0  0  0  0  0  0  0  0
   23.6765  -14.0236  -15.9338 O   0  0  0  0  0  0  0  0  0  0  0  0
   22.5807  -19.1886  -16.2199 C   0  0  0  0  0  0  0  0  0  0  0  0
   22.0002  -19.6139  -17.2435 O   0  0  0  0  0  0  0  0  0  0  0  0
   21.6592  -14.3697  -16.8947 O   0  0  0  0  0  0  0  0  0  0  0  0
   19.9363  -22.5710  -14.6179 N   0  0  0  0  0  0  0  0  0  0  0  0
   20.0528  -21.8007  -13.4364 C   0  0  0  0  0  0  0  0  0  0  0  0
   19.9764  -22.4029  -12.3422 O   0  0  0  0  0  0  0  0  0  0  0  0
   20.2560  -20.3483  -13.4557 C   0  0  0  0  0  0  0  0  0  0  0  0
   20.5858  -19.8016  -14.8112 C   0  0  2  0  0  0  0  0  0  0  0  0
   21.9223  -19.3327  -14.9720 N   0  0  0  0  0  0  0  0  0  0  0  0
   19.5705  -18.7655  -15.2097 C   0  0  0  0  0  0  0  0  0  0  0  0
   18.3013  -19.1038  -15.6115 O   0  0  0  0  0  0  0  0  0  0  0  0
   19.8796  -17.5379  -15.1792 O   0  0  0  0  0  0  0  0  0  0  0  0
  2  1  1  1
  2  9  1  0
  3  2  1  0
  4  3  1  0
  5  4  2  0
  6  7  1  0
  6  5  1  0
  7  8  2  0
  8  4  1  0
  9 11  1  0
 10  9  2  0
 11 12  1  0
 12 13  1  6
 13 14  1  0
 14 15  1  0
 15 16  2  0
 15 19  1  0
 17 18  2  0
 17 12  1  0
 20 21  1  0
 21 23  1  0
 21 22  2  0
 24 23  1  1
 24 25  1  0
 25 17  1  0
 26 24  1  0
 26 27  1  0
 28 26  2  0
M  END
$$$$
