HEN.pdb
     RDKit          3D

 28 28  0  0  1  0  0  0  0  0999 V2000
   20.2235  -14.3512  -17.8429 N   0  0  0  0  0  0  0  0  0  0  0  0
   19.9871  -13.6320  -16.6293 C   0  0  1  0  0  0  0  0  0  0  0  0
   20.9571  -13.9992  -15.5320 C   0  0  0  0  0  0  0  0  0  0  0  0
   20.7410  -15.4544  -15.2423 C   0  0  0  0  0  0  0  0  0  0  0  0
   20.7923  -16.4947  -16.1732 C   0  0  0  0  0  0  0  0  0  0  0  0
   20.5475  -17.6513  -15.5418 N   0  0  0  0  0  0  0  0  0  0  0  0
   20.3441  -17.3814  -14.2509 C   0  0  0  0  0  0  0  0  0  0  0  0
   20.4614  -16.0485  -14.0689 N   0  0  0  0  0  0  0  0  0  0  0  0
   19.8686  -12.1735  -16.8359 C   0  0  0  0  0  0  0  0  0  0  0  0
   20.5360  -11.6512  -17.7613 O   0  0  0  0  0  0  0  0  0  0  0  0
   19.0119  -11.3568  -16.0030 N   0  0  0  0  0  0  0  0  0  0  0  0
   18.8322   -9.9972  -16.3594 C   0  0  1  0  0  0  0  0  0  0  0  0
   17.3956   -9.5624  -16.3926 C   0  0  0  0  0  0  0  0  0  0  0  0
   17.1231   -8.1781  -16.8400 C   0  0  0  0  0  0  0  0  0  0  0  0
   16.2185   -7.3748  -16.0078 C   0  0  0  0  0  0  0  0  0  0  0  0
   15.1584   -7.8617  -15.4910 O   0  0  0  0  0  0  0  0  0  0  0  0
   19.6724   -9.0664  -15.5563 C   0  0  0  0  0  0  0  0  0  0  0  0
   19.9350   -9.3744  -14.3724 O   0  0  0  0  0  0  0  0  0  0  0  0
   16.4777   -6.0430  -15.7452 O   0  0  0  0  0  0  0  0  0  0  0  0
   22.4052   -4.8926  -13.9169 N   0  0  0  0  0  0  0  0  0  0  0  0
   22.9030   -5.3902  -15.1447 C   0  0  0  0  0  0  0  0  0  0  0  0
   24.0108   -4.9609  -15.5374 O   0  0  0  0  0  0  0  0  0  0  0  0
   22.1746   -6.3734  -15.9535 C   0  0  0  0  0  0  0  0  0  0  0  0
   20.9423   -6.9084  -15.2902 C   0  0  2  0  0  0  0  0  0  0  0  0
   20.1934   -7.8466  -16.0588 N   0  0  0  0  0  0  0  0  0  0  0  0
   20.0891   -5.7724  -14.7955 C   0  0  0  0  0  0  0  0  0  0  0  0
   20.1826   -5.2948  -13.5111 O   0  0  0  0  0  0  0  0  0  0  0  0
   19.2531   -5.2280  -15.5754 O   0  0  0  0  0  0  0  0  0  0  0  0
  2  1  1  6
  2  9  1  0
  3  2  1  0
  4  3  1  0
  5  4  2  0
  6  7  1  0
  6  5  1  0
  7  8  2  0
  8  4  1  0
  9 11  1  0
 10  9  2  0
 11 12  1  0
 12 13  1  1
 13 14  1  0
 14 15  1  0
 15 16  2  0
 15 19  1  0
 17 18  2  0
 17 12  1  0
 20 21  1  0
 21 23  1  0
 21 22  2  0
 24 23  1  6
 24 25  1  0
 25 17  1  0
 26 24  1  0
 26 27  1  0
 28 26  2  0
M  END
$$$$
