HEN.pdb
     RDKit          3D

 28 28  0  0  1  0  0  0  0  0999 V2000
   16.6207  -14.7583    7.4778 N   0  0  0  0  0  0  0  0  0  0  0  0
   17.9320  -15.2594    7.2034 C   0  0  1  0  0  0  0  0  0  0  0  0
   19.0214  -14.2761    7.5588 C   0  0  0  0  0  0  0  0  0  0  0  0
   19.0994  -13.2990    6.4242 C   0  0  0  0  0  0  0  0  0  0  0  0
   18.3281  -13.3274    5.2599 C   0  0  0  0  0  0  0  0  0  0  0  0
   18.6821  -12.2946    4.4824 N   0  0  0  0  0  0  0  0  0  0  0  0
   19.6452  -11.6171    5.1100 C   0  0  0  0  0  0  0  0  0  0  0  0
   19.8987  -12.2262    6.2883 N   0  0  0  0  0  0  0  0  0  0  0  0
   18.1630  -16.6086    7.7602 C   0  0  0  0  0  0  0  0  0  0  0  0
   17.7112  -16.8620    8.9032 O   0  0  0  0  0  0  0  0  0  0  0  0
   18.8880  -17.6200    7.0212 N   0  0  0  0  0  0  0  0  0  0  0  0
   19.3330  -18.7690    7.7209 C   0  0  1  0  0  0  0  0  0  0  0  0
   19.2926  -20.0298    6.9071 C   0  0  0  0  0  0  0  0  0  0  0  0
   19.7258  -21.2762    7.5776 C   0  0  0  0  0  0  0  0  0  0  0  0
   19.6796  -22.5107    6.7839 C   0  0  0  0  0  0  0  0  0  0  0  0
   20.1947  -22.5895    5.6192 O   0  0  0  0  0  0  0  0  0  0  0  0
   20.6558  -18.5777    8.3774 C   0  0  0  0  0  0  0  0  0  0  0  0
   21.3696  -17.6190    8.0075 O   0  0  0  0  0  0  0  0  0  0  0  0
   19.0701  -23.6527    7.2677 O   0  0  0  0  0  0  0  0  0  0  0  0
   25.1514  -17.6876   10.9161 N   0  0  0  0  0  0  0  0  0  0  0  0
   23.7918  -17.3542   11.1242 C   0  0  0  0  0  0  0  0  0  0  0  0
   23.4979  -16.7534   12.1818 O   0  0  0  0  0  0  0  0  0  0  0  0
   22.7392  -17.6848   10.1578 C   0  0  0  0  0  0  0  0  0  0  0  0
   22.2271  -19.0878   10.2777 C   0  0  2  0  0  0  0  0  0  0  0  0
   21.1541  -19.4233    9.4013 N   0  0  0  0  0  0  0  0  0  0  0  0
   21.9028  -19.3968   11.7138 C   0  0  0  0  0  0  0  0  0  0  0  0
   22.8816  -19.6049   12.6548 O   0  0  0  0  0  0  0  0  0  0  0  0
   20.6940  -19.4710   12.0836 O   0  0  0  0  0  0  0  0  0  0  0  0
  2  1  1  1
  2  9  1  0
  3  2  1  0
  4  3  1  0
  5  4  2  0
  6  7  1  0
  6  5  1  0
  7  8  2  0
  8  4  1  0
  9 11  1  0
 10  9  2  0
 11 12  1  0
 12 13  1  6
 13 14  1  0
 14 15  1  0
 15 16  2  0
 15 19  1  0
 17 18  2  0
 17 12  1  0
 20 21  1  0
 21 23  1  0
 21 22  2  0
 24 23  1  1
 24 25  1  0
 25 17  1  0
 26 24  1  0
 26 27  1  0
 28 26  2  0
M  END
$$$$
