HEN.pdb
     RDKit          3D

 28 28  0  0  1  0  0  0  0  0999 V2000
   20.6833  -11.6352  -19.7265 N   0  0  0  0  0  0  0  0  0  0  0  0
   21.3562  -11.2587  -18.5218 C   0  0  1  0  0  0  0  0  0  0  0  0
   22.8593  -11.3421  -18.6395 C   0  0  0  0  0  0  0  0  0  0  0  0
   23.1838  -12.7750  -18.9392 C   0  0  0  0  0  0  0  0  0  0  0  0
   22.5667  -13.8936  -18.3739 C   0  0  0  0  0  0  0  0  0  0  0  0
   23.1243  -14.9993  -18.8867 N   0  0  0  0  0  0  0  0  0  0  0  0
   24.0676  -14.6222  -19.7519 C   0  0  0  0  0  0  0  0  0  0  0  0
   24.1039  -13.2726  -19.7840 N   0  0  0  0  0  0  0  0  0  0  0  0
   20.8870   -9.9675  -17.9774 C   0  0  0  0  0  0  0  0  0  0  0  0
   20.7998   -8.9917  -18.7616 O   0  0  0  0  0  0  0  0  0  0  0  0
   20.5344   -9.8161  -16.5819 N   0  0  0  0  0  0  0  0  0  0  0  0
   20.0194   -8.5673  -16.1541 C   0  0  1  0  0  0  0  0  0  0  0  0
   18.7398   -8.6720  -15.3759 C   0  0  0  0  0  0  0  0  0  0  0  0
   18.1011   -7.4033  -14.9598 C   0  0  0  0  0  0  0  0  0  0  0  0
   16.8083   -7.5027  -14.2707 C   0  0  0  0  0  0  0  0  0  0  0  0
   16.2558   -8.6254  -14.0213 O   0  0  0  0  0  0  0  0  0  0  0  0
   21.0281   -7.7298  -15.4481 C   0  0  0  0  0  0  0  0  0  0  0  0
   21.8209   -8.2924  -14.6603 O   0  0  0  0  0  0  0  0  0  0  0  0
   16.1263   -6.3738  -13.8580 O   0  0  0  0  0  0  0  0  0  0  0  0
   24.0574   -5.8957  -16.8687 N   0  0  0  0  0  0  0  0  0  0  0  0
   23.4985   -4.6063  -16.7019 C   0  0  0  0  0  0  0  0  0  0  0  0
   23.8480   -3.7146  -17.5073 O   0  0  0  0  0  0  0  0  0  0  0  0
   22.5421   -4.2904  -15.6358 C   0  0  0  0  0  0  0  0  0  0  0  0
   22.0436   -5.4932  -14.8944 C   0  0  2  0  0  0  0  0  0  0  0  0
   21.1415   -6.3263  -15.6183 N   0  0  0  0  0  0  0  0  0  0  0  0
   21.4861   -5.0809  -13.5593 C   0  0  0  0  0  0  0  0  0  0  0  0
   20.1965   -5.3711  -13.1857 O   0  0  0  0  0  0  0  0  0  0  0  0
   22.2156   -4.4456  -12.7424 O   0  0  0  0  0  0  0  0  0  0  0  0
  2  1  1  6
  2  9  1  0
  3  2  1  0
  4  3  1  0
  5  4  2  0
  6  7  1  0
  6  5  1  0
  7  8  2  0
  8  4  1  0
  9 11  1  0
 10  9  2  0
 11 12  1  0
 12 13  1  1
 13 14  1  0
 14 15  1  0
 15 16  2  0
 15 19  1  0
 17 18  2  0
 17 12  1  0
 20 21  1  0
 21 23  1  0
 21 22  2  0
 24 23  1  6
 24 25  1  0
 25 17  1  0
 26 24  1  0
 26 27  1  0
 28 26  2  0
M  END
$$$$
