HEN.pdb
     RDKit          3D

 28 28  0  0  1  0  0  0  0  0999 V2000
   16.8123  -10.5143  -14.9047 N   0  0  0  0  0  0  0  0  0  0  0  0
   16.9422   -9.4291  -15.8273 C   0  0  1  0  0  0  0  0  0  0  0  0
   15.7126   -9.2361  -16.6822 C   0  0  0  0  0  0  0  0  0  0  0  0
   15.5164  -10.5149  -17.4402 C   0  0  0  0  0  0  0  0  0  0  0  0
   14.7086  -11.5861  -17.0509 C   0  0  0  0  0  0  0  0  0  0  0  0
   14.7884  -12.5473  -17.9815 N   0  0  0  0  0  0  0  0  0  0  0  0
   15.6138  -12.1247  -18.9411 C   0  0  0  0  0  0  0  0  0  0  0  0
   16.0557  -10.8915  -18.6130 N   0  0  0  0  0  0  0  0  0  0  0  0
   17.4073   -8.1803  -15.1885 C   0  0  0  0  0  0  0  0  0  0  0  0
   16.8450   -7.8133  -14.1284 O   0  0  0  0  0  0  0  0  0  0  0  0
   18.4795   -7.3915  -15.7569 N   0  0  0  0  0  0  0  0  0  0  0  0
   18.8257   -6.1751  -15.1178 C   0  0  1  0  0  0  0  0  0  0  0  0
   20.3012   -5.8991  -15.0951 C   0  0  0  0  0  0  0  0  0  0  0  0
   20.7402   -4.6472  -14.4387 C   0  0  0  0  0  0  0  0  0  0  0  0
   22.1872   -4.4149  -14.3469 C   0  0  0  0  0  0  0  0  0  0  0  0
   22.9268   -5.0514  -13.5248 O   0  0  0  0  0  0  0  0  0  0  0  0
   18.0533   -5.0076  -15.6255 C   0  0  0  0  0  0  0  0  0  0  0  0
   17.7620   -4.9714  -16.8418 O   0  0  0  0  0  0  0  0  0  0  0  0
   22.8179   -3.4877  -15.1544 O   0  0  0  0  0  0  0  0  0  0  0  0
   14.6022   -1.0703  -15.7096 N   0  0  0  0  0  0  0  0  0  0  0  0
   14.3258   -2.4508  -15.8533 C   0  0  0  0  0  0  0  0  0  0  0  0
   13.1710   -2.7765  -16.2086 O   0  0  0  0  0  0  0  0  0  0  0  0
   15.3310   -3.4892  -15.6037 C   0  0  0  0  0  0  0  0  0  0  0  0
   16.6671   -2.9510  -15.1912 C   0  0  2  0  0  0  0  0  0  0  0  0
   17.6279   -3.9310  -14.8061 N   0  0  0  0  0  0  0  0  0  0  0  0
   16.4921   -1.8869  -14.1422 C   0  0  0  0  0  0  0  0  0  0  0  0
   17.0850   -1.9756  -12.9064 O   0  0  0  0  0  0  0  0  0  0  0  0
   15.7788   -0.8706  -14.3904 O   0  0  0  0  0  0  0  0  0  0  0  0
  2  1  1  1
  2  9  1  0
  3  2  1  0
  4  3  1  0
  5  4  2  0
  6  7  1  0
  6  5  1  0
  7  8  2  0
  8  4  1  0
  9 11  1  0
 10  9  2  0
 11 12  1  0
 12 13  1  6
 13 14  1  0
 14 15  1  0
 15 16  2  0
 15 19  1  0
 17 18  2  0
 17 12  1  0
 20 21  1  0
 21 23  1  0
 21 22  2  0
 24 23  1  1
 24 25  1  0
 25 17  1  0
 26 24  1  0
 26 27  1  0
 28 26  2  0
M  END
$$$$
