HEN.pdb
     RDKit          3D

 28 28  0  0  1  0  0  0  0  0999 V2000
   18.2011  -12.6691  -16.2213 N   0  0  0  0  0  0  0  0  0  0  0  0
   18.2492  -11.3455  -16.7611 C   0  0  1  0  0  0  0  0  0  0  0  0
   16.9223  -10.6297  -16.6773 C   0  0  0  0  0  0  0  0  0  0  0  0
   15.9449  -11.4520  -17.4626 C   0  0  0  0  0  0  0  0  0  0  0  0
   15.8149  -11.4689  -18.8534 C   0  0  0  0  0  0  0  0  0  0  0  0
   14.8371  -12.3235  -19.1851 N   0  0  0  0  0  0  0  0  0  0  0  0
   14.3462  -12.8454  -18.0595 C   0  0  0  0  0  0  0  0  0  0  0  0
   15.0181  -12.3169  -17.0141 N   0  0  0  0  0  0  0  0  0  0  0  0
   19.3745  -10.5466  -16.2326 C   0  0  0  0  0  0  0  0  0  0  0  0
   19.4890  -10.4376  -14.9877 O   0  0  0  0  0  0  0  0  0  0  0  0
   20.3258   -9.9019  -17.1124 N   0  0  0  0  0  0  0  0  0  0  0  0
   21.3711   -9.1451  -16.5272 C   0  0  1  0  0  0  0  0  0  0  0  0
   22.7374   -9.4982  -17.0394 C   0  0  0  0  0  0  0  0  0  0  0  0
   23.8872   -8.7997  -16.4223 C   0  0  0  0  0  0  0  0  0  0  0  0
   25.2117   -9.0560  -17.0019 C   0  0  0  0  0  0  0  0  0  0  0  0
   25.3990   -9.9365  -17.9061 O   0  0  0  0  0  0  0  0  0  0  0  0
   21.1265   -7.6769  -16.5736 C   0  0  0  0  0  0  0  0  0  0  0  0
   20.8269   -7.1589  -17.6724 O   0  0  0  0  0  0  0  0  0  0  0  0
   26.3248   -8.3483  -16.5896 O   0  0  0  0  0  0  0  0  0  0  0  0
   20.6531   -2.6016  -15.4863 N   0  0  0  0  0  0  0  0  0  0  0  0
   19.9633   -3.3906  -14.5353 C   0  0  0  0  0  0  0  0  0  0  0  0
   19.1860   -2.8035  -13.7498 O   0  0  0  0  0  0  0  0  0  0  0  0
   20.1289   -4.8451  -14.4445 C   0  0  0  0  0  0  0  0  0  0  0  0
   21.0587   -5.4133  -15.4728 C   0  0  2  0  0  0  0  0  0  0  0  0
   21.2143   -6.8298  -15.4394 N   0  0  0  0  0  0  0  0  0  0  0  0
   22.3809   -4.6973  -15.4234 C   0  0  0  0  0  0  0  0  0  0  0  0
   22.5666   -3.4663  -16.0040 O   0  0  0  0  0  0  0  0  0  0  0  0
   23.3640   -5.2324  -14.8315 O   0  0  0  0  0  0  0  0  0  0  0  0
  2  1  1  1
  2  9  1  0
  3  2  1  0
  4  3  1  0
  5  4  2  0
  6  7  1  0
  6  5  1  0
  7  8  2  0
  8  4  1  0
  9 11  1  0
 10  9  2  0
 11 12  1  0
 12 13  1  6
 13 14  1  0
 14 15  1  0
 15 16  2  0
 15 19  1  0
 17 18  2  0
 17 12  1  0
 20 21  1  0
 21 23  1  0
 21 22  2  0
 24 23  1  1
 24 25  1  0
 25 17  1  0
 26 24  1  0
 26 27  1  0
 28 26  2  0
M  END
$$$$
