HEN.pdb
     RDKit          3D

 28 28  0  0  1  0  0  0  0  0999 V2000
   23.0329  -11.8854  -16.0728 N   0  0  0  0  0  0  0  0  0  0  0  0
   22.3096  -10.9307  -16.8546 C   0  0  1  0  0  0  0  0  0  0  0  0
   21.3619  -11.5755  -17.8375 C   0  0  0  0  0  0  0  0  0  0  0  0
   22.2141  -12.2459  -18.8731 C   0  0  0  0  0  0  0  0  0  0  0  0
   23.3151  -13.0691  -18.6250 C   0  0  0  0  0  0  0  0  0  0  0  0
   23.8193  -13.4803  -19.7968 N   0  0  0  0  0  0  0  0  0  0  0  0
   23.0804  -12.9493  -20.7727 C   0  0  0  0  0  0  0  0  0  0  0  0
   22.1063  -12.2002  -20.2127 N   0  0  0  0  0  0  0  0  0  0  0  0
   21.6707   -9.8790  -16.0362 C   0  0  0  0  0  0  0  0  0  0  0  0
   21.0059  -10.2330  -15.0325 O   0  0  0  0  0  0  0  0  0  0  0  0
   21.7985   -8.4765  -16.3696 N   0  0  0  0  0  0  0  0  0  0  0  0
   21.1411   -7.5306  -15.5443 C   0  0  1  0  0  0  0  0  0  0  0  0
   21.9420   -6.2870  -15.2881 C   0  0  0  0  0  0  0  0  0  0  0  0
   21.3525   -5.2853  -14.3717 C   0  0  0  0  0  0  0  0  0  0  0  0
   22.1754   -4.1134  -14.0470 C   0  0  0  0  0  0  0  0  0  0  0  0
   23.0058   -4.1133  -13.0784 O   0  0  0  0  0  0  0  0  0  0  0  0
   19.7606   -7.2135  -16.0037 C   0  0  0  0  0  0  0  0  0  0  0  0
   19.5620   -7.0650  -17.2301 O   0  0  0  0  0  0  0  0  0  0  0  0
   22.0858   -2.9473  -14.7833 O   0  0  0  0  0  0  0  0  0  0  0  0
   14.6538   -6.1715  -16.3039 N   0  0  0  0  0  0  0  0  0  0  0  0
   14.9123   -7.3132  -15.5086 C   0  0  0  0  0  0  0  0  0  0  0  0
   13.9326   -8.0063  -15.1541 O   0  0  0  0  0  0  0  0  0  0  0  0
   16.2655   -7.7001  -15.0959 C   0  0  0  0  0  0  0  0  0  0  0  0
   17.3302   -6.7447  -15.5418 C   0  0  2  0  0  0  0  0  0  0  0  0
   18.6548   -7.0695  -15.1273 N   0  0  0  0  0  0  0  0  0  0  0  0
   16.9491   -5.3381  -15.1684 C   0  0  0  0  0  0  0  0  0  0  0  0
   16.4305   -4.4549  -16.0838 O   0  0  0  0  0  0  0  0  0  0  0  0
   17.1049   -4.9397  -13.9767 O   0  0  0  0  0  0  0  0  0  0  0  0
  2  1  1  1
  2  9  1  0
  3  2  1  0
  4  3  1  0
  5  4  2  0
  6  7  1  0
  6  5  1  0
  7  8  2  0
  8  4  1  0
  9 11  1  0
 10  9  2  0
 11 12  1  0
 12 13  1  6
 13 14  1  0
 14 15  1  0
 15 16  2  0
 15 19  1  0
 17 18  2  0
 17 12  1  0
 20 21  1  0
 21 23  1  0
 21 22  2  0
 24 23  1  1
 24 25  1  0
 25 17  1  0
 26 24  1  0
 26 27  1  0
 28 26  2  0
M  END
$$$$
