HEN.pdb
     RDKit          3D

 28 28  0  0  1  0  0  0  0  0999 V2000
   16.2950  -13.1752  -15.1232 N   0  0  0  0  0  0  0  0  0  0  0  0
   16.5191  -11.8592  -15.6366 C   0  0  1  0  0  0  0  0  0  0  0  0
   15.5164  -10.8523  -15.1261 C   0  0  0  0  0  0  0  0  0  0  0  0
   14.1631  -11.3591  -15.5262 C   0  0  0  0  0  0  0  0  0  0  0  0
   13.6074  -11.2980  -16.8064 C   0  0  0  0  0  0  0  0  0  0  0  0
   12.3864  -11.8497  -16.7736 N   0  0  0  0  0  0  0  0  0  0  0  0
   12.1507  -12.2557  -15.5246 C   0  0  0  0  0  0  0  0  0  0  0  0
   13.2285  -11.9581  -14.7674 N   0  0  0  0  0  0  0  0  0  0  0  0
   17.9195  -11.4114  -15.4871 C   0  0  0  0  0  0  0  0  0  0  0  0
   18.4212  -11.4130  -14.3369 O   0  0  0  0  0  0  0  0  0  0  0  0
   18.7033  -10.9801  -16.6248 N   0  0  0  0  0  0  0  0  0  0  0  0
   20.0379  -10.5621  -16.3972 C   0  0  1  0  0  0  0  0  0  0  0  0
   20.9935  -10.9607  -17.4843 C   0  0  0  0  0  0  0  0  0  0  0  0
   21.2169  -12.4102  -17.6839 C   0  0  0  0  0  0  0  0  0  0  0  0
   22.1851  -12.7992  -18.7169 C   0  0  0  0  0  0  0  0  0  0  0  0
   21.8238  -13.3054  -19.8310 O   0  0  0  0  0  0  0  0  0  0  0  0
   20.1489   -9.1140  -16.0682 C   0  0  0  0  0  0  0  0  0  0  0  0
   19.3550   -8.3176  -16.6168 O   0  0  0  0  0  0  0  0  0  0  0  0
   23.5437  -12.6326  -18.5265 O   0  0  0  0  0  0  0  0  0  0  0  0
   21.3402   -4.6071  -12.7293 N   0  0  0  0  0  0  0  0  0  0  0  0
   22.2469   -5.4438  -13.4225 C   0  0  0  0  0  0  0  0  0  0  0  0
   23.2895   -4.9196  -13.8743 O   0  0  0  0  0  0  0  0  0  0  0  0
   22.0064   -6.8766  -13.6230 C   0  0  0  0  0  0  0  0  0  0  0  0
   21.2845   -7.1963  -14.8965 C   0  0  2  0  0  0  0  0  0  0  0  0
   21.1064   -8.5848  -15.1656 N   0  0  0  0  0  0  0  0  0  0  0  0
   21.9284   -6.4744  -16.0487 C   0  0  0  0  0  0  0  0  0  0  0  0
   21.5490   -5.2075  -16.4200 O   0  0  0  0  0  0  0  0  0  0  0  0
   22.8509   -7.0384  -16.7075 O   0  0  0  0  0  0  0  0  0  0  0  0
  2  1  1  1
  2  9  1  0
  3  2  1  0
  4  3  1  0
  5  4  2  0
  6  7  1  0
  6  5  1  0
  7  8  2  0
  8  4  1  0
  9 11  1  0
 10  9  2  0
 11 12  1  0
 12 13  1  6
 13 14  1  0
 14 15  1  0
 15 16  2  0
 15 19  1  0
 17 18  2  0
 17 12  1  0
 20 21  1  0
 21 23  1  0
 21 22  2  0
 24 23  1  1
 24 25  1  0
 25 17  1  0
 26 24  1  0
 26 27  1  0
 28 26  2  0
M  END
$$$$
