HEN.pdb
     RDKit          3D

 28 28  0  0  1  0  0  0  0  0999 V2000
   15.0808  -19.5286    2.5346 N   0  0  0  0  0  0  0  0  0  0  0  0
   16.3142  -20.0336    3.0537 C   0  0  1  0  0  0  0  0  0  0  0  0
   17.4134  -18.9985    3.0640 C   0  0  0  0  0  0  0  0  0  0  0  0
   17.9442  -18.9275    1.6635 C   0  0  0  0  0  0  0  0  0  0  0  0
   17.6107  -19.7860    0.6131 C   0  0  0  0  0  0  0  0  0  0  0  0
   18.2844  -19.4093   -0.4827 N   0  0  0  0  0  0  0  0  0  0  0  0
   19.0285  -18.3483   -0.1648 C   0  0  0  0  0  0  0  0  0  0  0  0
   18.8224  -18.0557    1.1373 N   0  0  0  0  0  0  0  0  0  0  0  0
   16.1553  -20.7251    4.3501 C   0  0  0  0  0  0  0  0  0  0  0  0
   15.3209  -20.2656    5.1670 O   0  0  0  0  0  0  0  0  0  0  0  0
   16.9325  -21.8997    4.6833 N   0  0  0  0  0  0  0  0  0  0  0  0
   16.9678  -22.3159    6.0373 C   0  0  1  0  0  0  0  0  0  0  0  0
   17.6659  -23.6275    6.2519 C   0  0  0  0  0  0  0  0  0  0  0  0
   19.1002  -23.6917    5.8923 C   0  0  0  0  0  0  0  0  0  0  0  0
   19.7876  -24.9692    6.1190 C   0  0  0  0  0  0  0  0  0  0  0  0
   20.6250  -25.1313    7.0679 O   0  0  0  0  0  0  0  0  0  0  0  0
   17.4755  -21.2628    6.9595 C   0  0  0  0  0  0  0  0  0  0  0  0
   18.0239  -20.2532    6.4641 O   0  0  0  0  0  0  0  0  0  0  0  0
   19.5559  -26.0630    5.3067 O   0  0  0  0  0  0  0  0  0  0  0  0
   16.4922  -17.5366   11.4139 N   0  0  0  0  0  0  0  0  0  0  0  0
   17.3133  -18.2179   10.4841 C   0  0  0  0  0  0  0  0  0  0  0  0
   18.5198  -17.8908   10.4281 O   0  0  0  0  0  0  0  0  0  0  0  0
   16.8032  -19.2736    9.6029 C   0  0  0  0  0  0  0  0  0  0  0  0
   17.8160  -20.3272    9.2723 C   0  0  2  0  0  0  0  0  0  0  0  0
   17.3725  -21.3395    8.3720 N   0  0  0  0  0  0  0  0  0  0  0  0
   18.3888  -20.9060   10.5373 C   0  0  0  0  0  0  0  0  0  0  0  0
   19.5468  -20.4272   11.1001 O   0  0  0  0  0  0  0  0  0  0  0  0
   17.7971  -21.8653   11.1141 O   0  0  0  0  0  0  0  0  0  0  0  0
  2  1  1  1
  2  9  1  0
  3  2  1  0
  4  3  1  0
  5  4  2  0
  6  7  1  0
  6  5  1  0
  7  8  2  0
  8  4  1  0
  9 11  1  0
 10  9  2  0
 11 12  1  0
 12 13  1  6
 13 14  1  0
 14 15  1  0
 15 16  2  0
 15 19  1  0
 17 18  2  0
 17 12  1  0
 20 21  1  0
 21 23  1  0
 21 22  2  0
 24 23  1  1
 24 25  1  0
 25 17  1  0
 26 24  1  0
 26 27  1  0
 28 26  2  0
M  END
$$$$
