PMY.pdb
     RDKit          3D

 28 29  0  0  1  0  0  0  0  0999 V2000
    7.2012  -19.2206   23.7264 N   0  0  0  0  0  0  0  0  0  0  0  0
    6.3112  -20.3909   23.7400 C   0  0  0  0  0  0  0  0  0  0  0  0
    5.7122  -20.3977   22.3343 C   0  0  0  0  0  0  0  0  0  0  0  0
    6.8006  -19.8081   21.4687 C   0  0  0  0  0  0  0  0  0  0  0  0
    7.8775  -19.3524   22.4333 C   0  0  1  0  0  0  0  0  0  0  0  0
    8.4511  -18.0409   22.0285 C   0  0  0  0  0  0  0  0  0  0  0  0
    9.1209  -17.9135   20.9478 O   0  0  0  0  0  0  0  0  0  0  0  0
    6.7872  -12.4154   19.2774 C   0  0  0  0  0  0  0  0  0  0  0  0
    7.0313  -12.2219   21.0630 S   0  0  0  0  0  0  0  0  0  0  0  0
    8.3375  -13.3443   21.6198 C   0  0  0  0  0  0  0  0  0  0  0  0
    7.7997  -14.6492   22.1061 C   0  0  0  0  0  0  0  0  0  0  0  0
    8.8409  -15.6197   22.5443 C   0  0  2  0  0  0  0  0  0  0  0  0
    8.2415  -16.9270   22.8662 N   0  0  0  0  0  0  0  0  0  0  0  0
    9.5130  -15.1696   23.7879 C   0  0  0  0  0  0  0  0  0  0  0  0
    9.1770  -14.1074   24.4081 O   0  0  0  0  0  0  0  0  0  0  0  0
    8.5736  -17.4297   30.1285 O   0  0  0  0  0  0  0  0  0  0  0  0
    9.2954  -16.7212   29.1833 C   0  0  0  0  0  0  0  0  0  0  0  0
   10.6610  -16.8191   29.0542 C   0  0  0  0  0  0  0  0  0  0  0  0
   11.3761  -16.1123   28.1124 C   0  0  0  0  0  0  0  0  0  0  0  0
   10.6886  -15.2714   27.2652 C   0  0  0  0  0  0  0  0  0  0  0  0
   11.3226  -14.4416   26.2151 C   0  0  0  0  0  0  0  0  0  0  0  0
   11.7108  -15.2443   24.9931 C   0  0  2  0  0  0  0  0  0  0  0  0
   10.5839  -15.8863   24.3851 N   0  0  0  0  0  0  0  0  0  0  0  0
   12.7554  -16.2323   25.2759 C   0  0  0  0  0  0  0  0  0  0  0  0
   13.9643  -15.8267   25.8591 O   0  0  0  0  0  0  0  0  0  0  0  0
    9.3084  -15.1729   27.3957 C   0  0  0  0  0  0  0  0  0  0  0  0
    8.6025  -15.8743   28.3291 C   0  0  0  0  0  0  0  0  0  0  0  0
   12.6240  -17.4577   25.0170 O   0  0  0  0  0  0  0  0  0  0  0  0
  1  5  1  0
  1  2  1  0
  2  3  1  0
  4  3  1  0
  5  4  1  0
  6 13  1  0
  5  6  1  6
  7  6  2  0
  9  8  1  0
 10  9  1  0
 12 11  1  1
 11 10  1  0
 12 13  1  0
 14 12  1  0
 15 14  2  0
 17 16  1  0
 17 27  2  0
 18 17  1  0
 19 18  2  0
 19 20  1  0
 20 26  2  0
 21 20  1  0
 22 21  1  1
 22 24  1  0
 22 23  1  0
 23 14  1  0
 24 25  1  0
 26 27  1  0
 28 24  2  0
M  END
$$$$
