PMY.pdb
     RDKit          3D

 28 29  0  0  1  0  0  0  0  0999 V2000
    7.7943  -17.6609   20.3428 N   0  0  0  0  0  0  0  0  0  0  0  0
    7.0243  -17.9888   19.1339 C   0  0  0  0  0  0  0  0  0  0  0  0
    6.5296  -16.6272   18.6479 C   0  0  0  0  0  0  0  0  0  0  0  0
    7.6137  -15.6677   19.0788 C   0  0  0  0  0  0  0  0  0  0  0  0
    8.5700  -16.4931   19.9167 C   0  0  1  0  0  0  0  0  0  0  0  0
    9.0399  -15.7378   21.1090 C   0  0  0  0  0  0  0  0  0  0  0  0
   10.1688  -15.1391   21.1140 O   0  0  0  0  0  0  0  0  0  0  0  0
    6.0411  -11.6348   27.1276 C   0  0  0  0  0  0  0  0  0  0  0  0
    5.7575  -12.8136   25.7803 S   0  0  0  0  0  0  0  0  0  0  0  0
    7.3307  -13.1981   24.9721 C   0  0  0  0  0  0  0  0  0  0  0  0
    7.1732  -14.1691   23.8492 C   0  0  0  0  0  0  0  0  0  0  0  0
    8.4551  -14.7106   23.3188 C   0  0  2  0  0  0  0  0  0  0  0  0
    8.2100  -15.6922   22.2472 N   0  0  0  0  0  0  0  0  0  0  0  0
    9.2105  -15.4406   24.3663 C   0  0  0  0  0  0  0  0  0  0  0  0
    8.9582  -16.6498   24.6826 O   0  0  0  0  0  0  0  0  0  0  0  0
   11.6632  -18.5547   31.7676 O   0  0  0  0  0  0  0  0  0  0  0  0
   11.3515  -17.6820   30.7393 C   0  0  0  0  0  0  0  0  0  0  0  0
   12.0551  -16.5254   30.4979 C   0  0  0  0  0  0  0  0  0  0  0  0
   11.7419  -15.6590   29.4736 C   0  0  0  0  0  0  0  0  0  0  0  0
   10.6758  -15.9689   28.6581 C   0  0  0  0  0  0  0  0  0  0  0  0
   10.2155  -15.1291   27.5286 C   0  0  0  0  0  0  0  0  0  0  0  0
   10.8944  -15.4839   26.2240 C   0  0  2  0  0  0  0  0  0  0  0  0
   10.2738  -14.8498   25.0995 N   0  0  0  0  0  0  0  0  0  0  0  0
   10.9695  -16.9304   26.0025 C   0  0  0  0  0  0  0  0  0  0  0  0
   12.2054  -17.5882   26.0809 O   0  0  0  0  0  0  0  0  0  0  0  0
    9.9650  -17.1381   28.9022 C   0  0  0  0  0  0  0  0  0  0  0  0
   10.2775  -17.9946   29.9172 C   0  0  0  0  0  0  0  0  0  0  0  0
    9.9590  -17.6339   25.7384 O   0  0  0  0  0  0  0  0  0  0  0  0
  1  5  1  0
  1  2  1  0
  2  3  1  0
  4  3  1  0
  5  4  1  0
  6 13  1  0
  5  6  1  1
  7  6  2  0
  9  8  1  0
 10  9  1  0
 12 11  1  1
 11 10  1  0
 12 13  1  0
 14 12  1  0
 15 14  2  0
 17 16  1  0
 17 27  2  0
 18 17  1  0
 19 18  2  0
 19 20  1  0
 20 26  2  0
 21 20  1  0
 22 21  1  1
 22 24  1  0
 22 23  1  0
 23 14  1  0
 24 25  1  0
 26 27  1  0
 28 24  2  0
M  END
$$$$
