PMY.pdb
     RDKit          3D

 28 29  0  0  1  0  0  0  0  0999 V2000
    7.4505  -14.9548   19.3720 N   0  0  0  0  0  0  0  0  0  0  0  0
    6.9889  -14.4811   18.0588 C   0  0  0  0  0  0  0  0  0  0  0  0
    7.3113  -12.9878   18.0868 C   0  0  0  0  0  0  0  0  0  0  0  0
    8.5395  -12.8937   18.9609 C   0  0  0  0  0  0  0  0  0  0  0  0
    8.7497  -14.2914   19.5089 C   0  0  1  0  0  0  0  0  0  0  0  0
    9.1512  -14.2599   20.9409 C   0  0  0  0  0  0  0  0  0  0  0  0
   10.2682  -13.7588   21.3072 O   0  0  0  0  0  0  0  0  0  0  0  0
    6.8459  -12.2602   27.8555 C   0  0  0  0  0  0  0  0  0  0  0  0
    6.4104  -12.6260   26.1345 S   0  0  0  0  0  0  0  0  0  0  0  0
    7.4642  -13.9607   25.5147 C   0  0  0  0  0  0  0  0  0  0  0  0
    7.2854  -14.1964   24.0515 C   0  0  0  0  0  0  0  0  0  0  0  0
    8.5233  -14.6200   23.3401 C   0  0  2  0  0  0  0  0  0  0  0  0
    8.2691  -14.7980   21.8994 N   0  0  0  0  0  0  0  0  0  0  0  0
    9.0059  -15.9354   23.8277 C   0  0  0  0  0  0  0  0  0  0  0  0
    8.4230  -17.0330   23.5429 O   0  0  0  0  0  0  0  0  0  0  0  0
   10.5544  -13.2652   29.9788 O   0  0  0  0  0  0  0  0  0  0  0  0
   10.5497  -14.3527   29.1225 C   0  0  0  0  0  0  0  0  0  0  0  0
   11.6997  -14.9355   28.6438 C   0  0  0  0  0  0  0  0  0  0  0  0
   11.6913  -16.0178   27.7916 C   0  0  0  0  0  0  0  0  0  0  0  0
   10.4749  -16.5354   27.4041 C   0  0  0  0  0  0  0  0  0  0  0  0
   10.3100  -17.6850   26.4853 C   0  0  0  0  0  0  0  0  0  0  0  0
   10.6752  -17.3466   25.0568 C   0  0  2  0  0  0  0  0  0  0  0  0
   10.1552  -16.0753   24.6504 N   0  0  0  0  0  0  0  0  0  0  0  0
   10.2588  -18.3825   24.1077 C   0  0  0  0  0  0  0  0  0  0  0  0
   10.8145  -19.6676   24.1844 O   0  0  0  0  0  0  0  0  0  0  0  0
    9.3128  -15.9463   27.8881 C   0  0  0  0  0  0  0  0  0  0  0  0
    9.3240  -14.8746   28.7324 C   0  0  0  0  0  0  0  0  0  0  0  0
    9.4073  -18.1769   23.2030 O   0  0  0  0  0  0  0  0  0  0  0  0
  1  5  1  0
  1  2  1  0
  2  3  1  0
  4  3  1  0
  5  4  1  0
  6 13  1  0
  5  6  1  1
  7  6  2  0
  9  8  1  0
 10  9  1  0
 12 11  1  1
 11 10  1  0
 12 13  1  0
 14 12  1  0
 15 14  2  0
 17 16  1  0
 17 27  2  0
 18 17  1  0
 19 18  2  0
 19 20  1  0
 20 26  2  0
 21 20  1  0
 22 21  1  1
 22 24  1  0
 22 23  1  0
 23 14  1  0
 24 25  1  0
 26 27  1  0
 28 24  2  0
M  END
$$$$
