PMY.pdb
     RDKit          3D

 28 29  0  0  1  0  0  0  0  0999 V2000
    7.0880  -15.4137   19.2509 N   0  0  0  0  0  0  0  0  0  0  0  0
    6.5781  -15.0854   17.9114 C   0  0  0  0  0  0  0  0  0  0  0  0
    7.0327  -13.6416   17.7027 C   0  0  0  0  0  0  0  0  0  0  0  0
    8.3233  -13.5468   18.4817 C   0  0  0  0  0  0  0  0  0  0  0  0
    8.4473  -14.8679   19.2146 C   0  0  1  0  0  0  0  0  0  0  0  0
    8.9506  -14.6760   20.6012 C   0  0  0  0  0  0  0  0  0  0  0  0
   10.1600  -14.3313   20.8276 O   0  0  0  0  0  0  0  0  0  0  0  0
    6.4721  -12.0881   27.5219 C   0  0  0  0  0  0  0  0  0  0  0  0
    5.9899  -13.0344   26.0531 S   0  0  0  0  0  0  0  0  0  0  0  0
    7.4724  -13.6533   25.2192 C   0  0  0  0  0  0  0  0  0  0  0  0
    7.2024  -14.0732   23.8123 C   0  0  0  0  0  0  0  0  0  0  0  0
    8.4169  -14.4557   23.0399 C   0  0  2  0  0  0  0  0  0  0  0  0
    8.0612  -14.8827   21.6749 N   0  0  0  0  0  0  0  0  0  0  0  0
    9.1084  -15.6150   23.6552 C   0  0  0  0  0  0  0  0  0  0  0  0
    8.7860  -16.8230   23.4052 O   0  0  0  0  0  0  0  0  0  0  0  0
   10.2104  -14.8748   31.1075 O   0  0  0  0  0  0  0  0  0  0  0  0
   10.6658  -15.1306   29.8256 C   0  0  0  0  0  0  0  0  0  0  0  0
   10.6820  -14.1803   28.8318 C   0  0  0  0  0  0  0  0  0  0  0  0
   11.1359  -14.4385   27.5569 C   0  0  0  0  0  0  0  0  0  0  0  0
   11.5922  -15.7061   27.2697 C   0  0  0  0  0  0  0  0  0  0  0  0
   12.0967  -16.1326   25.9443 C   0  0  0  0  0  0  0  0  0  0  0  0
   10.9885  -16.5703   25.0121 C   0  0  2  0  0  0  0  0  0  0  0  0
   10.1837  -15.4703   24.5718 N   0  0  0  0  0  0  0  0  0  0  0  0
   10.1367  -17.6091   25.5973 C   0  0  0  0  0  0  0  0  0  0  0  0
   10.6332  -18.9095   25.7667 O   0  0  0  0  0  0  0  0  0  0  0  0
   11.5759  -16.6664   28.2744 C   0  0  0  0  0  0  0  0  0  0  0  0
   11.1262  -16.4078   29.5363 C   0  0  0  0  0  0  0  0  0  0  0  0
    8.9522  -17.3929   25.9660 O   0  0  0  0  0  0  0  0  0  0  0  0
  1  5  1  0
  1  2  1  0
  2  3  1  0
  4  3  1  0
  5  4  1  0
  6 13  1  0
  5  6  1  1
  7  6  2  0
  9  8  1  0
 10  9  1  0
 12 11  1  1
 11 10  1  0
 12 13  1  0
 14 12  1  0
 15 14  2  0
 17 16  1  0
 17 27  2  0
 18 17  1  0
 19 18  2  0
 19 20  1  0
 20 26  2  0
 21 20  1  0
 22 21  1  1
 22 24  1  0
 22 23  1  0
 23 14  1  0
 24 25  1  0
 26 27  1  0
 28 24  2  0
M  END
$$$$
