PMY.pdb
     RDKit          3D

 28 29  0  0  1  0  0  0  0  0999 V2000
    7.0514  -15.5225   20.5188 N   0  0  0  0  0  0  0  0  0  0  0  0
    6.8080  -15.3643   19.0775 C   0  0  0  0  0  0  0  0  0  0  0  0
    7.7227  -14.2039   18.6882 C   0  0  0  0  0  0  0  0  0  0  0  0
    8.8923  -14.3244   19.6362 C   0  0  0  0  0  0  0  0  0  0  0  0
    8.5109  -15.4256   20.6058 C   0  0  1  0  0  0  0  0  0  0  0  0
    8.9116  -15.0879   21.9980 C   0  0  0  0  0  0  0  0  0  0  0  0
   10.1318  -15.1505   22.3721 O   0  0  0  0  0  0  0  0  0  0  0  0
    5.3217  -11.3876   27.3102 C   0  0  0  0  0  0  0  0  0  0  0  0
    6.8000  -10.9727   26.3468 S   0  0  0  0  0  0  0  0  0  0  0  0
    7.7332  -12.4823   25.9912 C   0  0  0  0  0  0  0  0  0  0  0  0
    7.4819  -12.9971   24.6126 C   0  0  0  0  0  0  0  0  0  0  0  0
    8.2682  -14.2104   24.2555 C   0  0  2  0  0  0  0  0  0  0  0  0
    7.9116  -14.6927   22.9093 N   0  0  0  0  0  0  0  0  0  0  0  0
    7.9754  -15.3368   25.1755 C   0  0  0  0  0  0  0  0  0  0  0  0
    6.7966  -15.7842   25.3653 O   0  0  0  0  0  0  0  0  0  0  0  0
    7.0224  -22.9171   28.8665 O   0  0  0  0  0  0  0  0  0  0  0  0
    7.3549  -21.8102   28.1047 C   0  0  0  0  0  0  0  0  0  0  0  0
    8.5585  -21.6830   27.4517 C   0  0  0  0  0  0  0  0  0  0  0  0
    8.8861  -20.5798   26.6945 C   0  0  0  0  0  0  0  0  0  0  0  0
    7.9644  -19.5614   26.5901 C   0  0  0  0  0  0  0  0  0  0  0  0
    8.1811  -18.3130   25.8236 C   0  0  0  0  0  0  0  0  0  0  0  0
    8.7394  -17.1950   26.6762 C   0  0  2  0  0  0  0  0  0  0  0  0
    8.9854  -16.0051   25.9177 N   0  0  0  0  0  0  0  0  0  0  0  0
    9.9538  -17.5875   27.3963 C   0  0  0  0  0  0  0  0  0  0  0  0
    9.8581  -18.1501   28.6772 O   0  0  0  0  0  0  0  0  0  0  0  0
    6.7479  -19.6902   27.2500 C   0  0  0  0  0  0  0  0  0  0  0  0
    6.4259  -20.7842   27.9990 C   0  0  0  0  0  0  0  0  0  0  0  0
   11.1089  -17.4436   26.9159 O   0  0  0  0  0  0  0  0  0  0  0  0
  1  5  1  0
  1  2  1  0
  2  3  1  0
  4  3  1  0
  5  4  1  0
  6 13  1  0
  5  6  1  1
  7  6  2  0
  9  8  1  0
 10  9  1  0
 12 11  1  1
 11 10  1  0
 12 13  1  0
 14 12  1  0
 15 14  2  0
 17 16  1  0
 17 27  2  0
 18 17  1  0
 19 18  2  0
 19 20  1  0
 20 26  2  0
 21 20  1  0
 22 21  1  6
 22 24  1  0
 22 23  1  0
 23 14  1  0
 24 25  1  0
 26 27  1  0
 28 24  2  0
M  END
$$$$
