PMY.pdb
     RDKit          3D

 28 29  0  0  1  0  0  0  0  0999 V2000
    7.3305  -15.7854   20.6381 N   0  0  0  0  0  0  0  0  0  0  0  0
    6.8361  -15.5904   19.2672 C   0  0  0  0  0  0  0  0  0  0  0  0
    7.2899  -14.1721   18.9246 C   0  0  0  0  0  0  0  0  0  0  0  0
    8.5708  -13.9978   19.7058 C   0  0  0  0  0  0  0  0  0  0  0  0
    8.6890  -15.2411   20.5649 C   0  0  1  0  0  0  0  0  0  0  0  0
    9.1751  -14.9138   21.9322 C   0  0  0  0  0  0  0  0  0  0  0  0
   10.3491  -14.4481   22.1264 O   0  0  0  0  0  0  0  0  0  0  0  0
    7.0045  -11.3005   28.3670 C   0  0  0  0  0  0  0  0  0  0  0  0
    6.4750  -12.1756   26.8706 S   0  0  0  0  0  0  0  0  0  0  0  0
    7.8257  -13.2212   26.2718 C   0  0  0  0  0  0  0  0  0  0  0  0
    7.5446  -13.8009   24.9251 C   0  0  0  0  0  0  0  0  0  0  0  0
    8.6521  -14.6248   24.3660 C   0  0  2  0  0  0  0  0  0  0  0  0
    8.3095  -15.1278   23.0237 N   0  0  0  0  0  0  0  0  0  0  0  0
    8.9030  -15.8300   25.1938 C   0  0  0  0  0  0  0  0  0  0  0  0
    8.0496  -16.7685   25.3227 O   0  0  0  0  0  0  0  0  0  0  0  0
   12.5977  -18.4108   20.7233 O   0  0  0  0  0  0  0  0  0  0  0  0
   12.3742  -18.3053   22.0853 C   0  0  0  0  0  0  0  0  0  0  0  0
   11.6817  -19.2490   22.8072 C   0  0  0  0  0  0  0  0  0  0  0  0
   11.4610  -19.1405   24.1626 C   0  0  0  0  0  0  0  0  0  0  0  0
   11.9575  -18.0362   24.8196 C   0  0  0  0  0  0  0  0  0  0  0  0
   11.7881  -17.7789   26.2681 C   0  0  0  0  0  0  0  0  0  0  0  0
   10.4139  -17.2458   26.6086 C   0  0  2  0  0  0  0  0  0  0  0  0
   10.1137  -16.0328   25.9084 N   0  0  0  0  0  0  0  0  0  0  0  0
   10.2257  -17.0503   28.0486 C   0  0  0  0  0  0  0  0  0  0  0  0
   10.3999  -18.1264   28.9307 O   0  0  0  0  0  0  0  0  0  0  0  0
   12.6576  -17.0827   24.0899 C   0  0  0  0  0  0  0  0  0  0  0  0
   12.8750  -17.1927   22.7474 C   0  0  0  0  0  0  0  0  0  0  0  0
    9.9078  -15.9402   28.5510 O   0  0  0  0  0  0  0  0  0  0  0  0
  1  5  1  0
  1  2  1  0
  2  3  1  0
  4  3  1  0
  5  4  1  0
  6 13  1  0
  5  6  1  1
  7  6  2  0
  9  8  1  0
 10  9  1  0
 12 11  1  1
 11 10  1  0
 12 13  1  0
 14 12  1  0
 15 14  2  0
 17 16  1  0
 17 27  2  0
 18 17  1  0
 19 18  2  0
 19 20  1  0
 20 26  2  0
 21 20  1  0
 22 21  1  1
 22 24  1  0
 22 23  1  0
 23 14  1  0
 24 25  1  0
 26 27  1  0
 28 24  2  0
M  END
$$$$
