PMY.pdb
     RDKit          3D

 28 29  0  0  1  0  0  0  0  0999 V2000
    7.4629  -19.6114   21.6534 N   0  0  0  0  0  0  0  0  0  0  0  0
    6.6800  -20.6785   21.0130 C   0  0  0  0  0  0  0  0  0  0  0  0
    6.5940  -20.2296   19.5550 C   0  0  0  0  0  0  0  0  0  0  0  0
    7.8808  -19.4720   19.3276 C   0  0  0  0  0  0  0  0  0  0  0  0
    8.5431  -19.3890   20.6886 C   0  0  1  0  0  0  0  0  0  0  0  0
    9.1545  -18.0520   20.9158 C   0  0  0  0  0  0  0  0  0  0  0  0
   10.2075  -17.6877   20.2902 O   0  0  0  0  0  0  0  0  0  0  0  0
    7.7193  -10.5211   21.7913 C   0  0  0  0  0  0  0  0  0  0  0  0
    7.0858  -12.2130   21.6439 S   0  0  0  0  0  0  0  0  0  0  0  0
    8.4241  -13.3894   21.9620 C   0  0  0  0  0  0  0  0  0  0  0  0
    7.9749  -14.8087   21.8495 C   0  0  0  0  0  0  0  0  0  0  0  0
    9.0572  -15.8140   22.0392 C   0  0  2  0  0  0  0  0  0  0  0  0
    8.5463  -17.1824   21.8434 N   0  0  0  0  0  0  0  0  0  0  0  0
    9.5928  -15.7801   23.4223 C   0  0  0  0  0  0  0  0  0  0  0  0
   10.4375  -14.9089   23.8139 O   0  0  0  0  0  0  0  0  0  0  0  0
    5.8910  -11.5064   25.7505 O   0  0  0  0  0  0  0  0  0  0  0  0
    6.5935  -12.6692   26.0156 C   0  0  0  0  0  0  0  0  0  0  0  0
    7.8903  -12.6744   26.4734 C   0  0  0  0  0  0  0  0  0  0  0  0
    8.5865  -13.8338   26.7360 C   0  0  0  0  0  0  0  0  0  0  0  0
    7.9517  -15.0387   26.5290 C   0  0  0  0  0  0  0  0  0  0  0  0
    8.5762  -16.3623   26.7553 C   0  0  0  0  0  0  0  0  0  0  0  0
    9.6834  -16.6607   25.7685 C   0  0  2  0  0  0  0  0  0  0  0  0
    9.2070  -16.7157   24.4188 N   0  0  0  0  0  0  0  0  0  0  0  0
   10.4101  -17.8915   26.0917 C   0  0  0  0  0  0  0  0  0  0  0  0
   10.5812  -18.8817   25.1137 O   0  0  0  0  0  0  0  0  0  0  0  0
    6.6411  -15.0332   26.0665 C   0  0  0  0  0  0  0  0  0  0  0  0
    5.9537  -13.8834   25.8075 C   0  0  0  0  0  0  0  0  0  0  0  0
   10.9023  -18.1149   27.2290 O   0  0  0  0  0  0  0  0  0  0  0  0
  1  5  1  0
  1  2  1  0
  2  3  1  0
  4  3  1  0
  5  4  1  0
  6 13  1  0
  5  6  1  1
  7  6  2  0
  9  8  1  0
 10  9  1  0
 12 11  1  1
 11 10  1  0
 12 13  1  0
 14 12  1  0
 15 14  2  0
 17 16  1  0
 17 27  2  0
 18 17  1  0
 19 18  2  0
 19 20  1  0
 20 26  2  0
 21 20  1  0
 22 21  1  1
 22 24  1  0
 22 23  1  0
 23 14  1  0
 24 25  1  0
 26 27  1  0
 28 24  2  0
M  END
$$$$
