PMY.pdb
     RDKit          3D

 28 29  0  0  1  0  0  0  0  0999 V2000
    7.0777  -15.7708   19.3396 N   0  0  0  0  0  0  0  0  0  0  0  0
    6.4676  -15.7039   18.0035 C   0  0  0  0  0  0  0  0  0  0  0  0
    6.7262  -14.2626   17.5670 C   0  0  0  0  0  0  0  0  0  0  0  0
    8.0299  -13.9035   18.2398 C   0  0  0  0  0  0  0  0  0  0  0  0
    8.3541  -15.0796   19.1396 C   0  0  1  0  0  0  0  0  0  0  0  0
    8.8942  -14.6293   20.4505 C   0  0  0  0  0  0  0  0  0  0  0  0
   10.0515  -14.0958   20.5446 O   0  0  0  0  0  0  0  0  0  0  0  0
    6.5903  -11.4768   27.2346 C   0  0  0  0  0  0  0  0  0  0  0  0
    6.1310  -12.2424   25.6572 S   0  0  0  0  0  0  0  0  0  0  0  0
    7.5967  -12.9811   24.8942 C   0  0  0  0  0  0  0  0  0  0  0  0
    7.3118  -13.5500   23.5438 C   0  0  0  0  0  0  0  0  0  0  0  0
    8.4856  -14.1849   22.8827 C   0  0  2  0  0  0  0  0  0  0  0  0
    8.0994  -14.8023   21.6015 N   0  0  0  0  0  0  0  0  0  0  0  0
    9.0425  -15.2858   23.7066 C   0  0  0  0  0  0  0  0  0  0  0  0
    8.4097  -16.3705   23.9273 O   0  0  0  0  0  0  0  0  0  0  0  0
   11.7041  -17.5671   31.5353 O   0  0  0  0  0  0  0  0  0  0  0  0
   11.4690  -16.8585   30.3697 C   0  0  0  0  0  0  0  0  0  0  0  0
   10.7286  -15.7002   30.3324 C   0  0  0  0  0  0  0  0  0  0  0  0
   10.4965  -14.9976   29.1704 C   0  0  0  0  0  0  0  0  0  0  0  0
   11.0313  -15.4807   27.9964 C   0  0  0  0  0  0  0  0  0  0  0  0
   10.8556  -14.8412   26.6723 C   0  0  0  0  0  0  0  0  0  0  0  0
   10.6304  -15.8468   25.5647 C   0  0  2  0  0  0  0  0  0  0  0  0
   10.3242  -15.2177   24.3148 N   0  0  0  0  0  0  0  0  0  0  0  0
    9.5941  -16.8283   25.8964 C   0  0  0  0  0  0  0  0  0  0  0  0
    8.2647  -16.4147   26.0632 O   0  0  0  0  0  0  0  0  0  0  0  0
   11.7797  -16.6512   28.0344 C   0  0  0  0  0  0  0  0  0  0  0  0
   12.0084  -17.3450   29.1868 C   0  0  0  0  0  0  0  0  0  0  0  0
    9.8380  -18.0549   26.0440 O   0  0  0  0  0  0  0  0  0  0  0  0
  1  5  1  0
  1  2  1  0
  2  3  1  0
  4  3  1  0
  5  4  1  0
  6 13  1  0
  5  6  1  1
  7  6  2  0
  9  8  1  0
 10  9  1  0
 12 11  1  1
 11 10  1  0
 12 13  1  0
 14 12  1  0
 15 14  2  0
 17 16  1  0
 17 27  2  0
 18 17  1  0
 19 18  2  0
 19 20  1  0
 20 26  2  0
 21 20  1  0
 22 21  1  1
 22 24  1  0
 22 23  1  0
 23 14  1  0
 24 25  1  0
 26 27  1  0
 28 24  2  0
M  END
$$$$
