PMY.pdb
     RDKit          3D

 28 29  0  0  1  0  0  0  0  0999 V2000
    7.7910  -19.4639   21.9290 N   0  0  0  0  0  0  0  0  0  0  0  0
    6.8527  -20.5729   21.7021 C   0  0  0  0  0  0  0  0  0  0  0  0
    5.7770  -19.9515   20.8125 C   0  0  0  0  0  0  0  0  0  0  0  0
    6.5208  -18.9105   20.0097 C   0  0  0  0  0  0  0  0  0  0  0  0
    7.9204  -18.8802   20.5913 C   0  0  1  0  0  0  0  0  0  0  0  0
    8.4363  -17.4889   20.6962 C   0  0  0  0  0  0  0  0  0  0  0  0
    8.6739  -16.7878   19.6546 O   0  0  0  0  0  0  0  0  0  0  0  0
    7.1134  -12.7212   19.0973 C   0  0  0  0  0  0  0  0  0  0  0  0
    8.1795  -12.5307   20.5508 S   0  0  0  0  0  0  0  0  0  0  0  0
    7.4213  -13.3602   21.9696 C   0  0  0  0  0  0  0  0  0  0  0  0
    7.4288  -14.8467   21.8325 C   0  0  0  0  0  0  0  0  0  0  0  0
    8.7257  -15.4908   22.1808 C   0  0  2  0  0  0  0  0  0  0  0  0
    8.6615  -16.9492   21.9786 N   0  0  0  0  0  0  0  0  0  0  0  0
    9.0591  -15.2990   23.6136 C   0  0  0  0  0  0  0  0  0  0  0  0
    8.8241  -14.2119   24.2372 O   0  0  0  0  0  0  0  0  0  0  0  0
    6.1327  -11.0671   26.2935 O   0  0  0  0  0  0  0  0  0  0  0  0
    6.6024  -12.3691   26.2937 C   0  0  0  0  0  0  0  0  0  0  0  0
    5.8454  -13.4398   25.8792 C   0  0  0  0  0  0  0  0  0  0  0  0
    6.3161  -14.7344   25.8810 C   0  0  0  0  0  0  0  0  0  0  0  0
    7.6023  -14.9618   26.3186 C   0  0  0  0  0  0  0  0  0  0  0  0
    8.2379  -16.2976   26.3883 C   0  0  0  0  0  0  0  0  0  0  0  0
    9.6461  -16.3027   25.8355 C   0  0  2  0  0  0  0  0  0  0  0  0
    9.6667  -16.3112   24.4033 N   0  0  0  0  0  0  0  0  0  0  0  0
   10.4509  -17.4126   26.3527 C   0  0  0  0  0  0  0  0  0  0  0  0
   11.0511  -18.3166   25.4645 O   0  0  0  0  0  0  0  0  0  0  0  0
    8.3674  -13.8796   26.7372 C   0  0  0  0  0  0  0  0  0  0  0  0
    7.8988  -12.5982   26.7341 C   0  0  0  0  0  0  0  0  0  0  0  0
   10.6381  -17.6047   27.5831 O   0  0  0  0  0  0  0  0  0  0  0  0
  1  5  1  0
  1  2  1  0
  2  3  1  0
  4  3  1  0
  5  4  1  0
  6 13  1  0
  5  6  1  1
  7  6  2  0
  9  8  1  0
 10  9  1  0
 12 11  1  1
 11 10  1  0
 12 13  1  0
 14 12  1  0
 15 14  2  0
 17 16  1  0
 17 27  2  0
 18 17  1  0
 19 18  2  0
 19 20  1  0
 20 26  2  0
 21 20  1  0
 22 21  1  6
 22 24  1  0
 22 23  1  0
 23 14  1  0
 24 25  1  0
 26 27  1  0
 28 24  2  0
M  END
$$$$
