PMY.pdb
     RDKit          3D

 28 29  0  0  1  0  0  0  0  0999 V2000
    7.3001  -15.5520   20.4771 N   0  0  0  0  0  0  0  0  0  0  0  0
    6.9595  -15.2306   19.0833 C   0  0  0  0  0  0  0  0  0  0  0  0
    7.3345  -13.7547   18.9576 C   0  0  0  0  0  0  0  0  0  0  0  0
    8.4940  -13.5880   19.9111 C   0  0  0  0  0  0  0  0  0  0  0  0
    8.6088  -14.9131   20.6384 C   0  0  1  0  0  0  0  0  0  0  0  0
    8.8992  -14.7170   22.0842 C   0  0  0  0  0  0  0  0  0  0  0  0
    9.9830  -14.1648   22.4755 O   0  0  0  0  0  0  0  0  0  0  0  0
    7.0939  -11.7250   28.3655 C   0  0  0  0  0  0  0  0  0  0  0  0
    7.1241  -12.1580   26.6056 S   0  0  0  0  0  0  0  0  0  0  0  0
    6.7437  -13.9166   26.4091 C   0  0  0  0  0  0  0  0  0  0  0  0
    6.7261  -14.3402   24.9778 C   0  0  0  0  0  0  0  0  0  0  0  0
    8.0520  -14.7565   24.4424 C   0  0  2  0  0  0  0  0  0  0  0  0
    7.9480  -15.1553   23.0274 N   0  0  0  0  0  0  0  0  0  0  0  0
    8.5763  -15.9463   25.1568 C   0  0  0  0  0  0  0  0  0  0  0  0
    7.9787  -17.0726   25.1523 O   0  0  0  0  0  0  0  0  0  0  0  0
   12.8683  -16.8919   20.5703 O   0  0  0  0  0  0  0  0  0  0  0  0
   12.5818  -17.0250   21.9180 C   0  0  0  0  0  0  0  0  0  0  0  0
   11.7251  -17.9807   22.4120 C   0  0  0  0  0  0  0  0  0  0  0  0
   11.4423  -18.1101   23.7540 C   0  0  0  0  0  0  0  0  0  0  0  0
   12.0462  -17.2415   24.6362 C   0  0  0  0  0  0  0  0  0  0  0  0
   11.8290  -17.2524   26.1011 C   0  0  0  0  0  0  0  0  0  0  0  0
   10.3713  -17.0987   26.4753 C   0  0  2  0  0  0  0  0  0  0  0  0
    9.7850  -15.9241   25.9023 N   0  0  0  0  0  0  0  0  0  0  0  0
   10.1574  -17.1067   27.9249 C   0  0  0  0  0  0  0  0  0  0  0  0
    9.4535  -16.0588   28.5354 O   0  0  0  0  0  0  0  0  0  0  0  0
   12.9122  -16.2759   24.1368 C   0  0  0  0  0  0  0  0  0  0  0  0
   13.1908  -16.1501   22.8071 C   0  0  0  0  0  0  0  0  0  0  0  0
   10.5821  -18.0267   28.6725 O   0  0  0  0  0  0  0  0  0  0  0  0
  1  5  1  0
  1  2  1  0
  2  3  1  0
  4  3  1  0
  5  4  1  0
  6 13  1  0
  5  6  1  1
  7  6  2  0
  9  8  1  0
 10  9  1  0
 12 11  1  1
 11 10  1  0
 12 13  1  0
 14 12  1  0
 15 14  2  0
 17 16  1  0
 17 27  2  0
 18 17  1  0
 19 18  2  0
 19 20  1  0
 20 26  2  0
 21 20  1  0
 22 21  1  1
 22 24  1  0
 22 23  1  0
 23 14  1  0
 24 25  1  0
 26 27  1  0
 28 24  2  0
M  END
$$$$
