PMY.pdb
     RDKit          3D

 28 29  0  0  1  0  0  0  0  0999 V2000
    7.1441  -15.1195   20.0913 N   0  0  0  0  0  0  0  0  0  0  0  0
    6.8049  -14.7172   18.7184 C   0  0  0  0  0  0  0  0  0  0  0  0
    7.4090  -13.3188   18.5988 C   0  0  0  0  0  0  0  0  0  0  0  0
    8.6172  -13.3622   19.5042 C   0  0  0  0  0  0  0  0  0  0  0  0
    8.5444  -14.7038   20.2061 C   0  0  1  0  0  0  0  0  0  0  0  0
    8.9201  -14.5886   21.6408 C   0  0  0  0  0  0  0  0  0  0  0  0
   10.1325  -14.3993   21.9973 O   0  0  0  0  0  0  0  0  0  0  0  0
    7.7035  -11.1507   27.6826 C   0  0  0  0  0  0  0  0  0  0  0  0
    6.4534  -12.1447   26.8256 S   0  0  0  0  0  0  0  0  0  0  0  0
    7.2134  -13.6637   26.2001 C   0  0  0  0  0  0  0  0  0  0  0  0
    7.0450  -13.8206   24.7251 C   0  0  0  0  0  0  0  0  0  0  0  0
    8.2008  -14.4609   24.0380 C   0  0  2  0  0  0  0  0  0  0  0  0
    7.9049  -14.6927   22.6130 N   0  0  0  0  0  0  0  0  0  0  0  0
    8.4983  -15.7977   24.6084 C   0  0  0  0  0  0  0  0  0  0  0  0
    7.7393  -16.8071   24.4331 O   0  0  0  0  0  0  0  0  0  0  0  0
   15.8156  -15.5705   24.0681 O   0  0  0  0  0  0  0  0  0  0  0  0
   14.5817  -16.1789   24.2214 C   0  0  0  0  0  0  0  0  0  0  0  0
   13.5616  -16.0465   23.3087 C   0  0  0  0  0  0  0  0  0  0  0  0
   12.3347  -16.6533   23.4646 C   0  0  0  0  0  0  0  0  0  0  0  0
   12.1250  -17.4255   24.5859 C   0  0  0  0  0  0  0  0  0  0  0  0
   10.8571  -18.1263   24.8933 C   0  0  0  0  0  0  0  0  0  0  0  0
    9.9928  -17.3644   25.8736 C   0  0  2  0  0  0  0  0  0  0  0  0
    9.6519  -16.0581   25.3950 N   0  0  0  0  0  0  0  0  0  0  0  0
   10.6008  -17.2657   27.2032 C   0  0  0  0  0  0  0  0  0  0  0  0
   11.0308  -18.4247   27.8650 O   0  0  0  0  0  0  0  0  0  0  0  0
   13.1563  -17.5594   25.5081 C   0  0  0  0  0  0  0  0  0  0  0  0
   14.3706  -16.9575   25.3511 C   0  0  0  0  0  0  0  0  0  0  0  0
   10.7624  -16.1688   27.8001 O   0  0  0  0  0  0  0  0  0  0  0  0
  1  5  1  0
  1  2  1  0
  2  3  1  0
  4  3  1  0
  5  4  1  0
  6 13  1  0
  5  6  1  1
  7  6  2  0
  9  8  1  0
 10  9  1  0
 12 11  1  1
 11 10  1  0
 12 13  1  0
 14 12  1  0
 15 14  2  0
 17 16  1  0
 17 27  2  0
 18 17  1  0
 19 18  2  0
 19 20  1  0
 20 26  2  0
 21 20  1  0
 22 21  1  6
 22 24  1  0
 22 23  1  0
 23 14  1  0
 24 25  1  0
 26 27  1  0
 28 24  2  0
M  END
$$$$
