PMY.pdb
     RDKit          3D

 28 29  0  0  1  0  0  0  0  0999 V2000
    7.1242  -15.2887   19.2948 N   0  0  0  0  0  0  0  0  0  0  0  0
    6.5820  -14.9625   17.9676 C   0  0  0  0  0  0  0  0  0  0  0  0
    7.0322  -13.5194   17.7451 C   0  0  0  0  0  0  0  0  0  0  0  0
    8.3414  -13.4240   18.4921 C   0  0  0  0  0  0  0  0  0  0  0  0
    8.4826  -14.7439   19.2242 C   0  0  1  0  0  0  0  0  0  0  0  0
    9.0197  -14.5497   20.5978 C   0  0  0  0  0  0  0  0  0  0  0  0
   10.2193  -14.1551   20.7927 O   0  0  0  0  0  0  0  0  0  0  0  0
    6.6511  -12.1686   27.6696 C   0  0  0  0  0  0  0  0  0  0  0  0
    6.1833  -12.7853   26.0306 S   0  0  0  0  0  0  0  0  0  0  0  0
    7.6327  -13.5037   25.2186 C   0  0  0  0  0  0  0  0  0  0  0  0
    7.3465  -13.9366   23.8189 C   0  0  0  0  0  0  0  0  0  0  0  0
    8.5459  -14.3750   23.0524 C   0  0  2  0  0  0  0  0  0  0  0  0
    8.1739  -14.8108   21.6946 N   0  0  0  0  0  0  0  0  0  0  0  0
    9.1956  -15.5484   23.6863 C   0  0  0  0  0  0  0  0  0  0  0  0
    8.8512  -16.7493   23.4311 O   0  0  0  0  0  0  0  0  0  0  0  0
   10.1542  -14.9676   31.1159 O   0  0  0  0  0  0  0  0  0  0  0  0
   10.6422  -15.1942   29.8405 C   0  0  0  0  0  0  0  0  0  0  0  0
   10.6633  -14.2275   28.8627 C   0  0  0  0  0  0  0  0  0  0  0  0
   11.1496  -14.4566   27.5943 C   0  0  0  0  0  0  0  0  0  0  0  0
   11.6347  -15.7111   27.2968 C   0  0  0  0  0  0  0  0  0  0  0  0
   12.1758  -16.1067   25.9763 C   0  0  0  0  0  0  0  0  0  0  0  0
   11.0939  -16.5225   25.0039 C   0  0  2  0  0  0  0  0  0  0  0  0
   10.2522  -15.4264   24.6275 N   0  0  0  0  0  0  0  0  0  0  0  0
   10.2765  -17.6287   25.5091 C   0  0  0  0  0  0  0  0  0  0  0  0
    8.9170  -17.4259   25.7864 O   0  0  0  0  0  0  0  0  0  0  0  0
   11.6135  -16.6879   28.2853 C   0  0  0  0  0  0  0  0  0  0  0  0
   11.1316  -16.4582   29.5409 C   0  0  0  0  0  0  0  0  0  0  0  0
   10.7396  -18.7817   25.7137 O   0  0  0  0  0  0  0  0  0  0  0  0
  1  5  1  0
  1  2  1  0
  2  3  1  0
  4  3  1  0
  5  4  1  0
  6 13  1  0
  5  6  1  1
  7  6  2  0
  9  8  1  0
 10  9  1  0
 12 11  1  1
 11 10  1  0
 12 13  1  0
 14 12  1  0
 15 14  2  0
 17 16  1  0
 17 27  2  0
 18 17  1  0
 19 18  2  0
 19 20  1  0
 20 26  2  0
 21 20  1  0
 22 21  1  1
 22 24  1  0
 22 23  1  0
 23 14  1  0
 24 25  1  0
 26 27  1  0
 28 24  2  0
M  END
$$$$
