PMY.pdb
     RDKit          3D

 28 29  0  0  1  0  0  0  0  0999 V2000
    7.3054  -15.0325   20.3841 N   0  0  0  0  0  0  0  0  0  0  0  0
    6.9292  -14.6330   19.0200 C   0  0  0  0  0  0  0  0  0  0  0  0
    7.4067  -13.1843   18.9300 C   0  0  0  0  0  0  0  0  0  0  0  0
    8.6157  -13.1394   19.8342 C   0  0  0  0  0  0  0  0  0  0  0  0
    8.6635  -14.4967   20.5075 C   0  0  1  0  0  0  0  0  0  0  0  0
    9.0303  -14.3789   21.9444 C   0  0  0  0  0  0  0  0  0  0  0  0
   10.2153  -14.0640   22.3042 O   0  0  0  0  0  0  0  0  0  0  0  0
    6.2867  -10.9140   26.6831 C   0  0  0  0  0  0  0  0  0  0  0  0
    6.0657  -12.6176   27.2614 S   0  0  0  0  0  0  0  0  0  0  0  0
    7.3356  -13.6759   26.5243 C   0  0  0  0  0  0  0  0  0  0  0  0
    7.1469  -13.8544   25.0542 C   0  0  0  0  0  0  0  0  0  0  0  0
    8.3235  -14.4332   24.3481 C   0  0  2  0  0  0  0  0  0  0  0  0
    8.0377  -14.6228   22.9148 N   0  0  0  0  0  0  0  0  0  0  0  0
    8.6616  -15.7797   24.8711 C   0  0  0  0  0  0  0  0  0  0  0  0
    7.8464  -16.7593   24.8332 O   0  0  0  0  0  0  0  0  0  0  0  0
   11.2959  -18.3341   19.7030 O   0  0  0  0  0  0  0  0  0  0  0  0
   11.3072  -18.2730   21.0859 C   0  0  0  0  0  0  0  0  0  0  0  0
   10.4056  -18.9491   21.8740 C   0  0  0  0  0  0  0  0  0  0  0  0
   10.4198  -18.8858   23.2501 C   0  0  0  0  0  0  0  0  0  0  0  0
   11.3811  -18.1094   23.8590 C   0  0  0  0  0  0  0  0  0  0  0  0
   11.5111  -17.9361   25.3239 C   0  0  0  0  0  0  0  0  0  0  0  0
   10.2549  -17.3816   25.9590 C   0  0  2  0  0  0  0  0  0  0  0  0
    9.9201  -16.0832   25.4555 N   0  0  0  0  0  0  0  0  0  0  0  0
   10.3316  -17.3450   27.4219 C   0  0  0  0  0  0  0  0  0  0  0  0
   10.1005  -16.1430   28.1060 O   0  0  0  0  0  0  0  0  0  0  0  0
   12.2923  -17.4264   23.0622 C   0  0  0  0  0  0  0  0  0  0  0  0
   12.2762  -17.4911   21.6995 C   0  0  0  0  0  0  0  0  0  0  0  0
   10.6007  -18.3600   28.1169 O   0  0  0  0  0  0  0  0  0  0  0  0
  1  5  1  0
  1  2  1  0
  2  3  1  0
  4  3  1  0
  5  4  1  0
  6 13  1  0
  5  6  1  1
  7  6  2  0
  9  8  1  0
 10  9  1  0
 12 11  1  1
 11 10  1  0
 12 13  1  0
 14 12  1  0
 15 14  2  0
 17 16  1  0
 17 27  2  0
 18 17  1  0
 19 18  2  0
 19 20  1  0
 20 26  2  0
 21 20  1  0
 22 21  1  6
 22 24  1  0
 22 23  1  0
 23 14  1  0
 24 25  1  0
 26 27  1  0
 28 24  2  0
M  END
$$$$
