THL.pdb
     RDKit          3D

 26 26  0  0  1  0  0  0  0  0999 V2000
   10.0259  -13.0201   18.2949 C   0  0  0  0  0  0  0  0  0  0  0  0
    9.0863  -13.4754   19.3832 C   0  0  1  0  0  0  0  0  0  0  0  0
    7.9465  -12.6830   19.3520 O   0  0  0  0  0  0  0  0  0  0  0  0
    8.6591  -14.9056   19.1671 C   0  0  2  0  0  0  0  0  0  0  0  0
    8.0073  -15.1333   17.9175 N   0  0  0  0  0  0  0  0  0  0  0  0
    7.8892  -15.3842   20.3406 C   0  0  0  0  0  0  0  0  0  0  0  0
    6.8089  -15.9787   20.1143 O   0  0  0  0  0  0  0  0  0  0  0  0
    8.3043  -15.2072   21.6815 N   0  0  0  0  0  0  0  0  0  0  0  0
    7.8083  -16.0113   22.7934 C   0  0  1  0  0  0  0  0  0  0  0  0
    8.0363  -17.4577   22.5835 C   0  0  0  0  0  0  0  0  0  0  0  0
    7.4215  -18.2661   23.6580 C   0  0  0  0  0  0  0  0  0  0  0  0
    6.6767  -17.8559   24.7577 C   0  0  0  0  0  0  0  0  0  0  0  0
    6.3516  -18.9312   25.4945 N   0  0  0  0  0  0  0  0  0  0  0  0
    6.8609  -20.0263   24.9098 C   0  0  0  0  0  0  0  0  0  0  0  0
    7.5033  -19.6229   23.8065 N   0  0  0  0  0  0  0  0  0  0  0  0
    8.4895  -15.5767   24.0332 C   0  0  0  0  0  0  0  0  0  0  0  0
    9.7434  -15.7366   24.1850 O   0  0  0  0  0  0  0  0  0  0  0  0
    7.7564  -11.3520   25.3129 C   0  0  0  0  0  0  0  0  0  0  0  0
    6.8528  -12.3548   25.9373 C   0  0  2  0  0  0  0  0  0  0  0  0
    5.7518  -11.5701   26.6778 C   0  0  0  0  0  0  0  0  0  0  0  0
    7.4115  -13.4190   26.7747 C   0  0  0  0  0  0  0  0  0  0  0  0
    8.4170  -14.3588   26.2023 C   0  0  2  0  0  0  0  0  0  0  0  0
    7.7043  -14.9781   25.0440 N   0  0  0  0  0  0  0  0  0  0  0  0
    8.7516  -15.4845   27.0664 C   0  0  0  0  0  0  0  0  0  0  0  0
    9.5967  -15.3915   27.9974 O   0  0  0  0  0  0  0  0  0  0  0  0
    8.1148  -16.7319   26.8678 O   0  0  0  0  0  0  0  0  0  0  0  0
  2  1  1  6
  3  2  1  0
  4  2  1  0
  4  6  1  0
  4  5  1  6
  6  7  2  0
  8  6  1  0
  8  9  1  0
  9 10  1  6
 11 10  1  0
 12 11  2  0
 13 12  1  0
 14 13  1  0
 14 15  2  0
 15 11  1  0
 16  9  1  0
 16 17  2  0
 19 18  1  1
 19 21  1  0
 19 20  1  0
 22 21  1  1
 22 23  1  0
 23 16  1  0
 24 26  1  0
 24 22  1  0
 25 24  2  0
M  END
$$$$
