THL.pdb
     RDKit          3D

 26 26  0  0  1  0  0  0  0  0999 V2000
    9.5527  -14.2819   18.1956 C   0  0  0  0  0  0  0  0  0  0  0  0
    9.1307  -14.5393   19.6204 C   0  0  1  0  0  0  0  0  0  0  0  0
    9.3955  -13.4062   20.3780 O   0  0  0  0  0  0  0  0  0  0  0  0
    7.6504  -14.8151   19.7059 C   0  0  2  0  0  0  0  0  0  0  0  0
    6.8335  -13.7525   19.2142 N   0  0  0  0  0  0  0  0  0  0  0  0
    7.2986  -15.2563   21.0771 C   0  0  0  0  0  0  0  0  0  0  0  0
    6.7052  -14.4309   21.8108 O   0  0  0  0  0  0  0  0  0  0  0  0
    7.5935  -16.5406   21.5923 N   0  0  0  0  0  0  0  0  0  0  0  0
    7.2637  -16.9616   22.9499 C   0  0  1  0  0  0  0  0  0  0  0  0
    7.5298  -18.3998   23.1700 C   0  0  0  0  0  0  0  0  0  0  0  0
    7.2441  -18.7979   24.5650 C   0  0  0  0  0  0  0  0  0  0  0  0
    6.7314  -18.0424   25.6131 C   0  0  0  0  0  0  0  0  0  0  0  0
    6.6748  -18.8045   26.7179 N   0  0  0  0  0  0  0  0  0  0  0  0
    7.1341  -20.0300   26.4222 C   0  0  0  0  0  0  0  0  0  0  0  0
    7.4754  -20.0224   25.1275 N   0  0  0  0  0  0  0  0  0  0  0  0
    8.0623  -16.1581   23.9021 C   0  0  0  0  0  0  0  0  0  0  0  0
    9.2666  -15.8368   23.6426 O   0  0  0  0  0  0  0  0  0  0  0  0
    6.0368  -11.9594   27.6028 C   0  0  0  0  0  0  0  0  0  0  0  0
    7.0524  -12.6517   26.7655 C   0  0  2  0  0  0  0  0  0  0  0  0
    6.9292  -12.0774   25.3404 C   0  0  0  0  0  0  0  0  0  0  0  0
    7.1129  -14.1154   26.7529 C   0  0  0  0  0  0  0  0  0  0  0  0
    8.1899  -14.8039   25.9861 C   0  0  2  0  0  0  0  0  0  0  0  0
    7.4461  -15.7582   25.1091 N   0  0  0  0  0  0  0  0  0  0  0  0
    9.0569  -15.6536   26.7937 C   0  0  0  0  0  0  0  0  0  0  0  0
    8.8076  -16.8730   26.9951 O   0  0  0  0  0  0  0  0  0  0  0  0
   10.2232  -15.1074   27.3787 O   0  0  0  0  0  0  0  0  0  0  0  0
  2  1  1  6
  3  2  1  0
  4  2  1  0
  4  6  1  0
  4  5  1  1
  6  7  2  0
  8  6  1  0
  8  9  1  0
  9 10  1  6
 11 10  1  0
 12 11  2  0
 13 12  1  0
 14 13  1  0
 14 15  2  0
 15 11  1  0
 16  9  1  0
 16 17  2  0
 19 18  1  1
 19 21  1  0
 19 20  1  0
 22 21  1  1
 22 23  1  0
 23 16  1  0
 24 26  1  0
 24 22  1  0
 25 24  2  0
M  END
$$$$
