THL.pdb
     RDKit          3D

 26 26  0  0  1  0  0  0  0  0999 V2000
    6.4616  -18.0861   25.3841 C   0  0  0  0  0  0  0  0  0  0  0  0
    7.3444  -19.2561   25.0286 C   0  0  1  0  0  0  0  0  0  0  0  0
    6.8735  -20.3877   25.6811 O   0  0  0  0  0  0  0  0  0  0  0  0
    7.3091  -19.5309   23.5461 C   0  0  2  0  0  0  0  0  0  0  0  0
    7.8229  -20.8121   23.1817 N   0  0  0  0  0  0  0  0  0  0  0  0
    7.9315  -18.4041   22.8100 C   0  0  0  0  0  0  0  0  0  0  0  0
    9.1769  -18.4295   22.6685 O   0  0  0  0  0  0  0  0  0  0  0  0
    7.2039  -17.3187   22.2677 N   0  0  0  0  0  0  0  0  0  0  0  0
    7.8285  -16.1755   21.6105 C   0  0  1  0  0  0  0  0  0  0  0  0
    6.8623  -15.3949   20.8074 C   0  0  0  0  0  0  0  0  0  0  0  0
    7.5206  -14.2720   20.1061 C   0  0  0  0  0  0  0  0  0  0  0  0
    7.6459  -12.9416   20.4889 C   0  0  0  0  0  0  0  0  0  0  0  0
    8.2890  -12.2648   19.5230 N   0  0  0  0  0  0  0  0  0  0  0  0
    8.5852  -13.1115   18.5252 C   0  0  0  0  0  0  0  0  0  0  0  0
    8.1219  -14.3169   18.8789 N   0  0  0  0  0  0  0  0  0  0  0  0
    8.4308  -15.3053   22.6450 C   0  0  0  0  0  0  0  0  0  0  0  0
    9.1219  -14.2851   22.3249 O   0  0  0  0  0  0  0  0  0  0  0  0
    7.9574  -12.6877   27.3496 C   0  0  0  0  0  0  0  0  0  0  0  0
    7.2058  -12.6869   26.0662 C   0  0  2  0  0  0  0  0  0  0  0  0
    5.7539  -12.2865   26.3943 C   0  0  0  0  0  0  0  0  0  0  0  0
    7.2560  -13.8602   25.1905 C   0  0  0  0  0  0  0  0  0  0  0  0
    8.5345  -14.6101   25.0323 C   0  0  2  0  0  0  0  0  0  0  0  0
    8.2147  -15.6423   24.0000 N   0  0  0  0  0  0  0  0  0  0  0  0
    8.9314  -15.3804   26.2048 C   0  0  0  0  0  0  0  0  0  0  0  0
    8.2898  -16.3934   26.5946 O   0  0  0  0  0  0  0  0  0  0  0  0
   10.0743  -14.9923   26.9425 O   0  0  0  0  0  0  0  0  0  0  0  0
  2  1  1  6
  3  2  1  0
  4  2  1  0
  4  6  1  0
  4  5  1  1
  6  7  2  0
  8  6  1  0
  8  9  1  0
  9 10  1  1
 11 10  1  0
 12 11  2  0
 13 12  1  0
 14 13  1  0
 14 15  2  0
 15 11  1  0
 16  9  1  0
 16 17  2  0
 19 18  1  1
 19 21  1  0
 19 20  1  0
 22 21  1  1
 22 23  1  0
 23 16  1  0
 24 26  1  0
 24 22  1  0
 25 24  2  0
M  END
$$$$
