THL.pdb
     RDKit          3D

 26 26  0  0  1  0  0  0  0  0999 V2000
   10.1027  -12.9684   17.8674 C   0  0  0  0  0  0  0  0  0  0  0  0
    9.5085  -13.4547   19.1655 C   0  0  1  0  0  0  0  0  0  0  0  0
    8.8683  -12.3932   19.7911 O   0  0  0  0  0  0  0  0  0  0  0  0
    8.4822  -14.5327   18.9216 C   0  0  2  0  0  0  0  0  0  0  0  0
    7.4038  -14.1262   18.0789 N   0  0  0  0  0  0  0  0  0  0  0  0
    8.0465  -15.1149   20.2139 C   0  0  0  0  0  0  0  0  0  0  0  0
    6.9601  -14.7080   20.6891 O   0  0  0  0  0  0  0  0  0  0  0  0
    8.7819  -16.0906   20.9271 N   0  0  0  0  0  0  0  0  0  0  0  0
    8.3376  -16.6748   22.1882 C   0  0  1  0  0  0  0  0  0  0  0  0
    8.9203  -18.0144   22.4203 C   0  0  0  0  0  0  0  0  0  0  0  0
    8.4266  -18.6107   23.6801 C   0  0  0  0  0  0  0  0  0  0  0  0
    7.2369  -19.2836   23.9336 C   0  0  0  0  0  0  0  0  0  0  0  0
    7.1895  -19.6183   25.2337 N   0  0  0  0  0  0  0  0  0  0  0  0
    8.3089  -19.1847   25.8332 C   0  0  0  0  0  0  0  0  0  0  0  0
    9.0500  -18.5795   24.8966 N   0  0  0  0  0  0  0  0  0  0  0  0
    8.7235  -15.7681   23.2923 C   0  0  0  0  0  0  0  0  0  0  0  0
    9.8635  -15.2016   23.3096 O   0  0  0  0  0  0  0  0  0  0  0  0
    5.7422  -11.7526   26.6151 C   0  0  0  0  0  0  0  0  0  0  0  0
    6.9757  -12.5641   26.4367 C   0  0  2  0  0  0  0  0  0  0  0  0
    8.1427  -11.5749   26.2474 C   0  0  0  0  0  0  0  0  0  0  0  0
    7.0077  -13.6326   25.4350 C   0  0  0  0  0  0  0  0  0  0  0  0
    8.1547  -14.5841   25.4060 C   0  0  2  0  0  0  0  0  0  0  0  0
    7.7865  -15.5504   24.3272 N   0  0  0  0  0  0  0  0  0  0  0  0
    8.2857  -15.4080   26.6018 C   0  0  0  0  0  0  0  0  0  0  0  0
    7.5524  -16.4118   26.8124 O   0  0  0  0  0  0  0  0  0  0  0  0
    9.2652  -15.0848   27.5698 O   0  0  0  0  0  0  0  0  0  0  0  0
  2  1  1  6
  3  2  1  0
  4  2  1  0
  4  6  1  0
  4  5  1  1
  6  7  2  0
  8  6  1  0
  8  9  1  0
  9 10  1  1
 11 10  1  0
 12 11  2  0
 13 12  1  0
 14 13  1  0
 14 15  2  0
 15 11  1  0
 16  9  1  0
 16 17  2  0
 19 18  1  6
 19 21  1  0
 19 20  1  0
 22 21  1  1
 22 23  1  0
 23 16  1  0
 24 26  1  0
 24 22  1  0
 25 24  2  0
M  END
$$$$
