THL.pdb
     RDKit          3D

 26 26  0  0  1  0  0  0  0  0999 V2000
    9.4934  -12.9715   19.8740 C   0  0  0  0  0  0  0  0  0  0  0  0
    8.0276  -13.1016   19.5437 C   0  0  1  0  0  0  0  0  0  0  0  0
    7.8023  -12.5625   18.2841 O   0  0  0  0  0  0  0  0  0  0  0  0
    7.6067  -14.5494   19.5073 C   0  0  2  0  0  0  0  0  0  0  0  0
    6.2803  -14.7554   19.0211 N   0  0  0  0  0  0  0  0  0  0  0  0
    7.8683  -15.1832   20.8221 C   0  0  0  0  0  0  0  0  0  0  0  0
    6.9527  -15.1302   21.6768 O   0  0  0  0  0  0  0  0  0  0  0  0
    9.0789  -15.8345   21.1566 N   0  0  0  0  0  0  0  0  0  0  0  0
    9.2626  -16.6248   22.3693 C   0  0  1  0  0  0  0  0  0  0  0  0
   10.4591  -17.4914   22.2967 C   0  0  0  0  0  0  0  0  0  0  0  0
   10.5760  -18.3572   23.4896 C   0  0  0  0  0  0  0  0  0  0  0  0
    9.8178  -18.3650   24.6546 C   0  0  0  0  0  0  0  0  0  0  0  0
   10.3043  -19.2983   25.4895 N   0  0  0  0  0  0  0  0  0  0  0  0
   11.3537  -19.8966   24.9055 C   0  0  0  0  0  0  0  0  0  0  0  0
   11.5142  -19.3285   23.7037 N   0  0  0  0  0  0  0  0  0  0  0  0
    9.3868  -15.7034   23.5208 C   0  0  0  0  0  0  0  0  0  0  0  0
    9.9061  -14.5489   23.3858 O   0  0  0  0  0  0  0  0  0  0  0  0
    5.8644  -12.6629   26.3506 C   0  0  0  0  0  0  0  0  0  0  0  0
    7.2337  -13.2369   26.4355 C   0  0  2  0  0  0  0  0  0  0  0  0
    8.2240  -12.0660   26.2792 C   0  0  0  0  0  0  0  0  0  0  0  0
    7.6032  -14.3717   25.5859 C   0  0  0  0  0  0  0  0  0  0  0  0
    8.8418  -15.1456   25.8841 C   0  0  2  0  0  0  0  0  0  0  0  0
    8.9107  -16.1454   24.7755 N   0  0  0  0  0  0  0  0  0  0  0  0
    8.7720  -15.9524   27.0965 C   0  0  0  0  0  0  0  0  0  0  0  0
    8.0150  -16.9558   27.1958 O   0  0  0  0  0  0  0  0  0  0  0  0
    9.5756  -15.6125   28.2099 O   0  0  0  0  0  0  0  0  0  0  0  0
  2  1  1  6
  3  2  1  0
  4  2  1  0
  4  6  1  0
  4  5  1  1
  6  7  2  0
  8  6  1  0
  8  9  1  0
  9 10  1  6
 11 10  1  0
 12 11  2  0
 13 12  1  0
 14 13  1  0
 14 15  2  0
 15 11  1  0
 16  9  1  0
 16 17  2  0
 19 18  1  6
 19 21  1  0
 19 20  1  0
 22 21  1  6
 22 23  1  0
 23 16  1  0
 24 26  1  0
 24 22  1  0
 25 24  2  0
M  END
$$$$
