THL.pdb
     RDKit          3D

 26 26  0  0  1  0  0  0  0  0999 V2000
    9.5407  -13.5378   19.1534 C   0  0  0  0  0  0  0  0  0  0  0  0
    9.0430  -14.0280   20.4901 C   0  0  1  0  0  0  0  0  0  0  0  0
    8.9083  -12.9416   21.3442 O   0  0  0  0  0  0  0  0  0  0  0  0
    7.6899  -14.6810   20.3583 C   0  0  2  0  0  0  0  0  0  0  0  0
    6.7048  -13.8535   19.7394 N   0  0  0  0  0  0  0  0  0  0  0  0
    7.2693  -15.2368   21.6671 C   0  0  0  0  0  0  0  0  0  0  0  0
    6.2272  -14.7669   22.1817 O   0  0  0  0  0  0  0  0  0  0  0  0
    7.9724  -16.2542   22.3543 N   0  0  0  0  0  0  0  0  0  0  0  0
    7.4430  -16.9571   23.5182 C   0  0  1  0  0  0  0  0  0  0  0  0
    7.9938  -18.3240   23.6449 C   0  0  0  0  0  0  0  0  0  0  0  0
    7.4520  -19.0203   24.8315 C   0  0  0  0  0  0  0  0  0  0  0  0
    6.5264  -18.5790   25.7700 C   0  0  0  0  0  0  0  0  0  0  0  0
    6.3578  -19.5312   26.7025 N   0  0  0  0  0  0  0  0  0  0  0  0
    7.1435  -20.5762   26.4009 C   0  0  0  0  0  0  0  0  0  0  0  0
    7.7998  -20.2656   25.2759 N   0  0  0  0  0  0  0  0  0  0  0  0
    7.7698  -16.1763   24.7322 C   0  0  0  0  0  0  0  0  0  0  0  0
    7.3605  -16.5442   25.8803 O   0  0  0  0  0  0  0  0  0  0  0  0
    7.3329  -11.5154   25.8162 C   0  0  0  0  0  0  0  0  0  0  0  0
    6.7349  -12.8673   25.9791 C   0  0  2  0  0  0  0  0  0  0  0  0
    5.4728  -12.7002   26.8482 C   0  0  0  0  0  0  0  0  0  0  0  0
    7.5651  -13.9812   26.4438 C   0  0  0  0  0  0  0  0  0  0  0  0
    8.8897  -14.2313   25.8075 C   0  0  2  0  0  0  0  0  0  0  0  0
    8.5508  -15.0091   24.5773 N   0  0  0  0  0  0  0  0  0  0  0  0
    9.7662  -15.1157   26.5660 C   0  0  0  0  0  0  0  0  0  0  0  0
   10.6171  -14.6790   27.3876 O   0  0  0  0  0  0  0  0  0  0  0  0
    9.6719  -16.5157   26.3868 O   0  0  0  0  0  0  0  0  0  0  0  0
  2  1  1  6
  3  2  1  0
  4  2  1  0
  4  6  1  0
  4  5  1  1
  6  7  2  0
  8  6  1  0
  8  9  1  0
  9 10  1  1
 11 10  1  0
 12 11  2  0
 13 12  1  0
 14 13  1  0
 14 15  2  0
 15 11  1  0
 16  9  1  0
 16 17  2  0
 19 18  1  1
 19 21  1  0
 19 20  1  0
 22 21  1  1
 22 23  1  0
 23 16  1  0
 24 26  1  0
 24 22  1  0
 25 24  2  0
M  END
$$$$
