THL.pdb
     RDKit          3D

 26 26  0  0  1  0  0  0  0  0999 V2000
    9.0778  -12.4983   20.7998 C   0  0  0  0  0  0  0  0  0  0  0  0
    7.9774  -12.9928   19.8947 C   0  0  1  0  0  0  0  0  0  0  0  0
    8.0485  -12.3095   18.6880 O   0  0  0  0  0  0  0  0  0  0  0  0
    8.1367  -14.4636   19.6014 C   0  0  2  0  0  0  0  0  0  0  0  0
    7.1836  -14.9754   18.6699 N   0  0  0  0  0  0  0  0  0  0  0  0
    8.2027  -15.2261   20.8715 C   0  0  0  0  0  0  0  0  0  0  0  0
    7.1147  -15.5353   21.4121 O   0  0  0  0  0  0  0  0  0  0  0  0
    9.4112  -15.6167   21.4949 N   0  0  0  0  0  0  0  0  0  0  0  0
    9.4693  -16.4109   22.7176 C   0  0  1  0  0  0  0  0  0  0  0  0
   10.6020  -17.3621   22.7137 C   0  0  0  0  0  0  0  0  0  0  0  0
   10.3264  -18.5316   21.8519 C   0  0  0  0  0  0  0  0  0  0  0  0
    9.1455  -18.9077   21.2224 C   0  0  0  0  0  0  0  0  0  0  0  0
    9.3441  -20.0657   20.5711 N   0  0  0  0  0  0  0  0  0  0  0  0
   10.6147  -20.4544   20.7571 C   0  0  0  0  0  0  0  0  0  0  0  0
   11.2022  -19.5301   21.5274 N   0  0  0  0  0  0  0  0  0  0  0  0
    9.5957  -15.4940   23.8724 C   0  0  0  0  0  0  0  0  0  0  0  0
   10.5420  -14.6447   23.9369 O   0  0  0  0  0  0  0  0  0  0  0  0
    7.8286  -11.8383   25.6409 C   0  0  0  0  0  0  0  0  0  0  0  0
    7.0352  -13.0944   25.7063 C   0  0  2  0  0  0  0  0  0  0  0  0
    5.6079  -12.7042   26.1383 C   0  0  0  0  0  0  0  0  0  0  0  0
    7.5376  -14.2355   26.4755 C   0  0  0  0  0  0  0  0  0  0  0  0
    8.8740  -14.8122   26.1544 C   0  0  2  0  0  0  0  0  0  0  0  0
    8.6327  -15.5905   24.9018 N   0  0  0  0  0  0  0  0  0  0  0  0
    9.3493  -15.8039   27.1118 C   0  0  0  0  0  0  0  0  0  0  0  0
    9.1886  -17.0420   26.9356 O   0  0  0  0  0  0  0  0  0  0  0  0
   10.0167  -15.3799   28.2847 O   0  0  0  0  0  0  0  0  0  0  0  0
  2  1  1  1
  3  2  1  0
  4  2  1  0
  4  6  1  0
  4  5  1  6
  6  7  2  0
  8  6  1  0
  8  9  1  0
  9 10  1  6
 11 10  1  0
 12 11  2  0
 13 12  1  0
 14 13  1  0
 14 15  2  0
 15 11  1  0
 16  9  1  0
 16 17  2  0
 19 18  1  1
 19 21  1  0
 19 20  1  0
 22 21  1  1
 22 23  1  0
 23 16  1  0
 24 26  1  0
 24 22  1  0
 25 24  2  0
M  END
$$$$
