THL.pdb
     RDKit          3D

 26 26  0  0  1  0  0  0  0  0999 V2000
    9.4441  -12.4342   18.0076 C   0  0  0  0  0  0  0  0  0  0  0  0
    9.1358  -13.1334   19.3079 C   0  0  1  0  0  0  0  0  0  0  0  0
    8.2966  -12.3254   20.0634 O   0  0  0  0  0  0  0  0  0  0  0  0
    8.4220  -14.4395   19.0650 C   0  0  2  0  0  0  0  0  0  0  0  0
    7.2089  -14.3079   18.3238 N   0  0  0  0  0  0  0  0  0  0  0  0
    8.2663  -15.1739   20.3438 C   0  0  0  0  0  0  0  0  0  0  0  0
    7.1034  -15.3007   20.7946 O   0  0  0  0  0  0  0  0  0  0  0  0
    9.3455  -15.7300   21.0701 N   0  0  0  0  0  0  0  0  0  0  0  0
    9.1802  -16.5080   22.2935 C   0  0  1  0  0  0  0  0  0  0  0  0
   10.0674  -17.6909   22.3286 C   0  0  0  0  0  0  0  0  0  0  0  0
    9.6024  -18.7466   21.4036 C   0  0  0  0  0  0  0  0  0  0  0  0
    8.7124  -19.7904   21.6285 C   0  0  0  0  0  0  0  0  0  0  0  0
    8.6142  -20.5324   20.5129 N   0  0  0  0  0  0  0  0  0  0  0  0
    9.4112  -20.0052   19.5711 C   0  0  0  0  0  0  0  0  0  0  0  0
   10.0036  -18.9321   20.1098 N   0  0  0  0  0  0  0  0  0  0  0  0
    9.4711  -15.6353   23.4528 C   0  0  0  0  0  0  0  0  0  0  0  0
   10.5978  -15.0546   23.5720 O   0  0  0  0  0  0  0  0  0  0  0  0
    7.4459  -12.8083   27.8458 C   0  0  0  0  0  0  0  0  0  0  0  0
    7.1503  -12.5733   26.4073 C   0  0  2  0  0  0  0  0  0  0  0  0
    5.7103  -12.0293   26.3260 C   0  0  0  0  0  0  0  0  0  0  0  0
    7.3782  -13.6418   25.4314 C   0  0  0  0  0  0  0  0  0  0  0  0
    8.6575  -14.4062   25.4580 C   0  0  2  0  0  0  0  0  0  0  0  0
    8.4587  -15.4664   24.4237 N   0  0  0  0  0  0  0  0  0  0  0  0
    8.8942  -15.1441   26.6930 C   0  0  0  0  0  0  0  0  0  0  0  0
    9.6980  -14.7398   27.5763 O   0  0  0  0  0  0  0  0  0  0  0  0
    8.2058  -16.3578   26.9253 O   0  0  0  0  0  0  0  0  0  0  0  0
  2  1  1  6
  3  2  1  0
  4  2  1  0
  4  6  1  0
  4  5  1  1
  6  7  2  0
  8  6  1  0
  8  9  1  0
  9 10  1  6
 11 10  1  0
 12 11  2  0
 13 12  1  0
 14 13  1  0
 14 15  2  0
 15 11  1  0
 16  9  1  0
 16 17  2  0
 19 18  1  1
 19 21  1  0
 19 20  1  0
 22 21  1  1
 22 23  1  0
 23 16  1  0
 24 26  1  0
 24 22  1  0
 25 24  2  0
M  END
$$$$
