AKM.pdb
     RDKit          3D

 23 22  0  0  1  0  0  0  0  0999 V2000
    8.5629  -12.6526   19.2344 C   0  0  0  0  0  0  0  0  0  0  0  0
    8.0832  -14.0124   18.8339 C   0  0  2  0  0  0  0  0  0  0  0  0
    6.9709  -14.0036   17.9378 N   0  0  0  0  0  0  0  0  0  0  0  0
    7.7657  -14.7625   20.1016 C   0  0  0  0  0  0  0  0  0  0  0  0
    6.7236  -14.5139   20.7576 O   0  0  0  0  0  0  0  0  0  0  0  0
    8.6190  -15.7747   20.6100 N   0  0  0  0  0  0  0  0  0  0  0  0
    8.3012  -16.5317   21.7959 C   0  0  1  0  0  0  0  0  0  0  0  0
    9.1344  -17.8223   21.7039 C   0  0  0  0  0  0  0  0  0  0  0  0
    8.8517  -18.7298   22.8541 C   0  0  0  0  0  0  0  0  0  0  0  0
    7.5069  -19.3799   22.6748 C   0  0  0  0  0  0  0  0  0  0  0  0
    7.2507  -20.3675   23.7715 C   0  0  0  0  0  0  0  0  0  0  0  0
    5.9940  -21.0760   23.5801 N   0  0  0  0  0  0  0  0  0  0  0  0
    8.7513  -15.8498   23.0358 C   0  0  0  0  0  0  0  0  0  0  0  0
    9.9476  -15.4379   23.1004 O   0  0  0  0  0  0  0  0  0  0  0  0
    6.3668  -10.4902   28.0564 C   0  0  0  0  0  0  0  0  0  0  0  0
    6.0182  -11.6155   26.6873 S   0  0  0  0  0  0  0  0  0  0  0  0
    7.3677  -12.7952   26.5356 C   0  0  0  0  0  0  0  0  0  0  0  0
    7.1799  -13.7411   25.3821 C   0  0  0  0  0  0  0  0  0  0  0  0
    8.3189  -14.7255   25.2325 C   0  0  2  0  0  0  0  0  0  0  0  0
    7.9260  -15.6316   24.1506 N   0  0  0  0  0  0  0  0  0  0  0  0
    8.5313  -15.5300   26.4788 C   0  0  0  0  0  0  0  0  0  0  0  0
    9.0325  -15.0126   27.5237 O   0  0  0  0  0  0  0  0  0  0  0  0
    8.1919  -16.8700   26.5486 O   0  0  0  0  0  0  0  0  0  0  0  0
  2  1  1  1
  2  3  1  0
  4  2  1  0
  5  4  2  0
  6  4  1  0
  7 13  1  0
  7  6  1  0
  7  8  1  6
  9  8  1  0
 10 11  1  0
 10  9  1  0
 11 12  1  0
 13 14  2  0
 16 17  1  0
 16 15  1  0
 17 18  1  0
 19 21  1  0
 19 18  1  1
 20 19  1  0
 20 13  1  0
 21 23  1  0
 22 21  2  0
M  END
$$$$
