AKM.pdb
     RDKit          3D

 23 22  0  0  1  0  0  0  0  0999 V2000
    7.4261  -12.6155   18.4856 C   0  0  0  0  0  0  0  0  0  0  0  0
    8.6186  -13.3911   18.9504 C   0  0  2  0  0  0  0  0  0  0  0  0
    9.1598  -14.2803   17.9723 N   0  0  0  0  0  0  0  0  0  0  0  0
    8.2105  -14.1267   20.2005 C   0  0  0  0  0  0  0  0  0  0  0  0
    7.6737  -13.5218   21.1618 O   0  0  0  0  0  0  0  0  0  0  0  0
    8.4105  -15.5226   20.3507 N   0  0  0  0  0  0  0  0  0  0  0  0
    7.8948  -16.2619   21.4766 C   0  0  1  0  0  0  0  0  0  0  0  0
    8.2984  -17.7272   21.2350 C   0  0  0  0  0  0  0  0  0  0  0  0
    7.2970  -18.4281   20.3791 C   0  0  0  0  0  0  0  0  0  0  0  0
    7.8093  -19.7921   20.0043 C   0  0  0  0  0  0  0  0  0  0  0  0
    6.8162  -20.5067   19.1401 C   0  0  0  0  0  0  0  0  0  0  0  0
    7.2551  -21.8548   18.8113 N   0  0  0  0  0  0  0  0  0  0  0  0
    8.5461  -15.8705   22.7524 C   0  0  0  0  0  0  0  0  0  0  0  0
    9.8113  -15.8219   22.7967 O   0  0  0  0  0  0  0  0  0  0  0  0
    6.3984  -10.8061   26.1575 C   0  0  0  0  0  0  0  0  0  0  0  0
    6.7743  -12.0020   27.4578 S   0  0  0  0  0  0  0  0  0  0  0  0
    7.9709  -13.1925   26.8357 C   0  0  0  0  0  0  0  0  0  0  0  0
    7.4887  -13.9038   25.6019 C   0  0  0  0  0  0  0  0  0  0  0  0
    8.4941  -14.8958   25.0598 C   0  0  2  0  0  0  0  0  0  0  0  0
    7.8404  -15.5481   23.9227 N   0  0  0  0  0  0  0  0  0  0  0  0
    8.8514  -15.9411   26.0722 C   0  0  0  0  0  0  0  0  0  0  0  0
    8.2087  -17.0325   26.1525 O   0  0  0  0  0  0  0  0  0  0  0  0
    9.8955  -15.7661   26.9639 O   0  0  0  0  0  0  0  0  0  0  0  0
  2  1  1  6
  2  3  1  0
  4  2  1  0
  5  4  2  0
  6  4  1  0
  7 13  1  0
  7  6  1  0
  7  8  1  6
  9  8  1  0
 10 11  1  0
 10  9  1  0
 11 12  1  0
 13 14  2  0
 16 17  1  0
 16 15  1  0
 17 18  1  0
 19 21  1  0
 19 18  1  1
 20 19  1  0
 20 13  1  0
 21 23  1  0
 22 21  2  0
M  END
$$$$
