AKM.pdb
     RDKit          3D

 23 22  0  0  1  0  0  0  0  0999 V2000
    7.5104  -13.0189   18.3662 C   0  0  0  0  0  0  0  0  0  0  0  0
    8.5299  -13.9099   19.0037 C   0  0  2  0  0  0  0  0  0  0  0  0
    9.0372  -14.9322   18.1447 N   0  0  0  0  0  0  0  0  0  0  0  0
    7.8992  -14.4914   20.2425 C   0  0  0  0  0  0  0  0  0  0  0  0
    7.4267  -13.7484   21.1384 O   0  0  0  0  0  0  0  0  0  0  0  0
    7.8096  -15.8907   20.4545 N   0  0  0  0  0  0  0  0  0  0  0  0
    7.2942  -16.4572   21.6767 C   0  0  1  0  0  0  0  0  0  0  0  0
    7.5746  -17.9677   21.5883 C   0  0  0  0  0  0  0  0  0  0  0  0
    7.1301  -18.6720   22.8265 C   0  0  0  0  0  0  0  0  0  0  0  0
    7.2976  -20.1576   22.6585 C   0  0  0  0  0  0  0  0  0  0  0  0
    6.7064  -20.8879   23.8251 C   0  0  0  0  0  0  0  0  0  0  0  0
    6.7976  -22.3313   23.6635 N   0  0  0  0  0  0  0  0  0  0  0  0
    8.0334  -15.9802   22.8731 C   0  0  0  0  0  0  0  0  0  0  0  0
    9.2957  -15.8934   22.8105 O   0  0  0  0  0  0  0  0  0  0  0  0
    6.7543  -10.6479   28.4361 C   0  0  0  0  0  0  0  0  0  0  0  0
    6.0945  -11.7672   27.1815 S   0  0  0  0  0  0  0  0  0  0  0  0
    7.4235  -12.8114   26.5656 C   0  0  0  0  0  0  0  0  0  0  0  0
    6.9599  -13.7680   25.5023 C   0  0  0  0  0  0  0  0  0  0  0  0
    8.0534  -14.6983   25.0255 C   0  0  2  0  0  0  0  0  0  0  0  0
    7.4144  -15.6165   24.0798 N   0  0  0  0  0  0  0  0  0  0  0  0
    8.6383  -15.4978   26.1498 C   0  0  0  0  0  0  0  0  0  0  0  0
    8.1767  -16.6382   26.4618 O   0  0  0  0  0  0  0  0  0  0  0  0
    9.7055  -15.0319   26.8981 O   0  0  0  0  0  0  0  0  0  0  0  0
  2  1  1  6
  2  3  1  0
  4  2  1  0
  5  4  2  0
  6  4  1  0
  7 13  1  0
  7  6  1  0
  7  8  1  6
  9  8  1  0
 10 11  1  0
 10  9  1  0
 11 12  1  0
 13 14  2  0
 16 17  1  0
 16 15  1  0
 17 18  1  0
 19 21  1  0
 19 18  1  1
 20 19  1  0
 20 13  1  0
 21 23  1  0
 22 21  2  0
M  END
$$$$
