AKM.pdb
     RDKit          3D

 23 22  0  0  1  0  0  0  0  0999 V2000
    7.5267  -12.3165   18.8100 C   0  0  0  0  0  0  0  0  0  0  0  0
    8.7372  -13.1084   19.1938 C   0  0  2  0  0  0  0  0  0  0  0  0
    9.2935  -13.8846   18.1316 N   0  0  0  0  0  0  0  0  0  0  0  0
    8.3494  -13.9727   20.3656 C   0  0  0  0  0  0  0  0  0  0  0  0
    7.7328  -13.4920   21.3489 O   0  0  0  0  0  0  0  0  0  0  0  0
    8.6586  -15.3558   20.4146 N   0  0  0  0  0  0  0  0  0  0  0  0
    8.2608  -16.1996   21.5146 C   0  0  1  0  0  0  0  0  0  0  0  0
    8.7223  -17.6193   21.1407 C   0  0  0  0  0  0  0  0  0  0  0  0
    7.8631  -18.2006   20.0681 C   0  0  0  0  0  0  0  0  0  0  0  0
    8.3552  -19.5755   19.7069 C   0  0  0  0  0  0  0  0  0  0  0  0
    7.5227  -20.1589   18.6067 C   0  0  0  0  0  0  0  0  0  0  0  0
    7.9171  -21.5246   18.2947 N   0  0  0  0  0  0  0  0  0  0  0  0
    8.9774  -15.8614   22.7705 C   0  0  0  0  0  0  0  0  0  0  0  0
   10.1919  -15.5082   22.6988 O   0  0  0  0  0  0  0  0  0  0  0  0
    5.6253  -12.4951   26.8417 C   0  0  0  0  0  0  0  0  0  0  0  0
    7.3275  -12.1173   27.3127 S   0  0  0  0  0  0  0  0  0  0  0  0
    8.3699  -13.5362   26.9438 C   0  0  0  0  0  0  0  0  0  0  0  0
    7.9598  -14.2401   25.6801 C   0  0  0  0  0  0  0  0  0  0  0  0
    8.9901  -15.2368   25.1967 C   0  0  2  0  0  0  0  0  0  0  0  0
    8.3870  -15.9094   24.0436 N   0  0  0  0  0  0  0  0  0  0  0  0
    9.3075  -16.2647   26.2398 C   0  0  0  0  0  0  0  0  0  0  0  0
    8.8375  -17.4418   26.1743 O   0  0  0  0  0  0  0  0  0  0  0  0
   10.1251  -15.9797   27.3197 O   0  0  0  0  0  0  0  0  0  0  0  0
  2  1  1  6
  2  3  1  0
  4  2  1  0
  5  4  2  0
  6  4  1  0
  7 13  1  0
  7  6  1  0
  7  8  1  6
  9  8  1  0
 10 11  1  0
 10  9  1  0
 11 12  1  0
 13 14  2  0
 16 17  1  0
 16 15  1  0
 17 18  1  0
 19 21  1  0
 19 18  1  1
 20 19  1  0
 20 13  1  0
 21 23  1  0
 22 21  2  0
M  END
$$$$
