AKM.pdb
     RDKit          3D

 23 22  0  0  1  0  0  0  0  0999 V2000
    9.1946  -12.7543   19.4535 C   0  0  0  0  0  0  0  0  0  0  0  0
    8.2071  -13.7609   18.9523 C   0  0  2  0  0  0  0  0  0  0  0  0
    7.2166  -13.2260   18.0730 N   0  0  0  0  0  0  0  0  0  0  0  0
    7.5817  -14.4092   20.1602 C   0  0  0  0  0  0  0  0  0  0  0  0
    6.7420  -13.7941   20.8635 O   0  0  0  0  0  0  0  0  0  0  0  0
    7.9074  -15.7311   20.5573 N   0  0  0  0  0  0  0  0  0  0  0  0
    7.3791  -16.3313   21.7576 C   0  0  1  0  0  0  0  0  0  0  0  0
    7.5628  -17.8491   21.5819 C   0  0  0  0  0  0  0  0  0  0  0  0
    7.0673  -18.5940   22.7761 C   0  0  0  0  0  0  0  0  0  0  0  0
    7.2658  -20.0718   22.5763 C   0  0  0  0  0  0  0  0  0  0  0  0
    6.1441  -20.8417   23.2030 C   0  0  0  0  0  0  0  0  0  0  0  0
    6.3819  -22.2769   23.1608 N   0  0  0  0  0  0  0  0  0  0  0  0
    8.1674  -15.9675   22.9623 C   0  0  0  0  0  0  0  0  0  0  0  0
    9.4268  -15.8774   22.8577 O   0  0  0  0  0  0  0  0  0  0  0  0
    5.8506  -11.4760   26.5703 C   0  0  0  0  0  0  0  0  0  0  0  0
    6.8769  -12.1975   27.8696 S   0  0  0  0  0  0  0  0  0  0  0  0
    8.0021  -13.3940   27.1358 C   0  0  0  0  0  0  0  0  0  0  0  0
    7.4118  -14.0798   25.9351 C   0  0  0  0  0  0  0  0  0  0  0  0
    8.3594  -15.0690   25.2931 C   0  0  2  0  0  0  0  0  0  0  0  0
    7.5986  -15.7152   24.2210 N   0  0  0  0  0  0  0  0  0  0  0  0
    8.8122  -16.1199   26.2607 C   0  0  0  0  0  0  0  0  0  0  0  0
    9.7668  -15.9081   27.0697 O   0  0  0  0  0  0  0  0  0  0  0  0
    8.2126  -17.3661   26.3173 O   0  0  0  0  0  0  0  0  0  0  0  0
  2  1  1  1
  2  3  1  0
  4  2  1  0
  5  4  2  0
  6  4  1  0
  7 13  1  0
  7  6  1  0
  7  8  1  6
  9  8  1  0
 10 11  1  0
 10  9  1  0
 11 12  1  0
 13 14  2  0
 16 17  1  0
 16 15  1  0
 17 18  1  0
 19 21  1  0
 19 18  1  1
 20 19  1  0
 20 13  1  0
 21 23  1  0
 22 21  2  0
M  END
$$$$
