AKM.pdb
     RDKit          3D

 23 22  0  0  1  0  0  0  0  0999 V2000
    8.3811  -12.3007   19.0107 C   0  0  0  0  0  0  0  0  0  0  0  0
    8.5383  -13.7222   18.5699 C   0  0  2  0  0  0  0  0  0  0  0  0
    7.7723  -14.0681   17.4149 N   0  0  0  0  0  0  0  0  0  0  0  0
    8.1868  -14.5940   19.7476 C   0  0  0  0  0  0  0  0  0  0  0  0
    6.9914  -14.7619   20.0952 O   0  0  0  0  0  0  0  0  0  0  0  0
    9.1782  -15.2600   20.5124 N   0  0  0  0  0  0  0  0  0  0  0  0
    8.8499  -16.1435   21.6041 C   0  0  1  0  0  0  0  0  0  0  0  0
    9.8266  -17.3275   21.4920 C   0  0  0  0  0  0  0  0  0  0  0  0
    9.5610  -18.3475   22.5482 C   0  0  0  0  0  0  0  0  0  0  0  0
   10.4448  -19.5462   22.3361 C   0  0  0  0  0  0  0  0  0  0  0  0
   10.0929  -20.6357   23.3020 C   0  0  0  0  0  0  0  0  0  0  0  0
   10.9404  -21.8063   23.1308 N   0  0  0  0  0  0  0  0  0  0  0  0
    9.1173  -15.5255   22.9277 C   0  0  0  0  0  0  0  0  0  0  0  0
   10.2446  -14.9827   23.1261 O   0  0  0  0  0  0  0  0  0  0  0  0
    6.5302  -10.6784   26.3444 C   0  0  0  0  0  0  0  0  0  0  0  0
    6.0317  -12.1838   27.2089 S   0  0  0  0  0  0  0  0  0  0  0  0
    7.2974  -13.4414   26.9802 C   0  0  0  0  0  0  0  0  0  0  0  0
    7.2080  -14.1122   25.6375 C   0  0  0  0  0  0  0  0  0  0  0  0
    8.4810  -14.8314   25.2493 C   0  0  2  0  0  0  0  0  0  0  0  0
    8.1899  -15.5056   23.9818 N   0  0  0  0  0  0  0  0  0  0  0  0
    8.8727  -15.8634   26.2628 C   0  0  0  0  0  0  0  0  0  0  0  0
    9.4830  -15.5460   27.3293 O   0  0  0  0  0  0  0  0  0  0  0  0
    8.5881  -17.2061   26.0839 O   0  0  0  0  0  0  0  0  0  0  0  0
  2  1  1  1
  2  3  1  0
  4  2  1  0
  5  4  2  0
  6  4  1  0
  7 13  1  0
  7  6  1  0
  7  8  1  6
  9  8  1  0
 10 11  1  0
 10  9  1  0
 11 12  1  0
 13 14  2  0
 16 17  1  0
 16 15  1  0
 17 18  1  0
 19 21  1  0
 19 18  1  1
 20 19  1  0
 20 13  1  0
 21 23  1  0
 22 21  2  0
M  END
$$$$
