AKM.pdb
     RDKit          3D

 23 22  0  0  1  0  0  0  0  0999 V2000
    7.4886  -12.5354   18.8178 C   0  0  0  0  0  0  0  0  0  0  0  0
    8.6385  -13.2944   19.4022 C   0  0  2  0  0  0  0  0  0  0  0  0
    9.3248  -14.1320   18.4706 N   0  0  0  0  0  0  0  0  0  0  0  0
    8.1022  -14.0863   20.5666 C   0  0  0  0  0  0  0  0  0  0  0  0
    7.4863  -13.5219   21.5048 O   0  0  0  0  0  0  0  0  0  0  0  0
    8.2651  -15.4920   20.6585 N   0  0  0  0  0  0  0  0  0  0  0  0
    7.7156  -16.2657   21.7447 C   0  0  1  0  0  0  0  0  0  0  0  0
    8.0316  -17.7349   21.4134 C   0  0  0  0  0  0  0  0  0  0  0  0
    7.4971  -18.6513   22.4626 C   0  0  0  0  0  0  0  0  0  0  0  0
    7.8490  -20.0749   22.1265 C   0  0  0  0  0  0  0  0  0  0  0  0
    7.2046  -21.0179   23.0958 C   0  0  0  0  0  0  0  0  0  0  0  0
    7.4483  -22.4084   22.7423 N   0  0  0  0  0  0  0  0  0  0  0  0
    8.3979  -15.9884   23.0342 C   0  0  0  0  0  0  0  0  0  0  0  0
    9.6614  -15.8974   23.0436 O   0  0  0  0  0  0  0  0  0  0  0  0
    6.6278  -10.4123   26.7682 C   0  0  0  0  0  0  0  0  0  0  0  0
    6.2927  -12.1781   26.9461 S   0  0  0  0  0  0  0  0  0  0  0  0
    7.5766  -13.1101   26.0983 C   0  0  0  0  0  0  0  0  0  0  0  0
    7.4185  -14.5956   26.2681 C   0  0  0  0  0  0  0  0  0  0  0  0
    8.4243  -15.3932   25.4677 C   0  0  2  0  0  0  0  0  0  0  0  0
    7.7234  -15.8195   24.2540 N   0  0  0  0  0  0  0  0  0  0  0  0
    8.8887  -16.6114   26.2064 C   0  0  0  0  0  0  0  0  0  0  0  0
    9.7538  -16.5350   27.1319 O   0  0  0  0  0  0  0  0  0  0  0  0
    8.3978  -17.8724   25.9153 O   0  0  0  0  0  0  0  0  0  0  0  0
  2  1  1  6
  2  3  1  0
  4  2  1  0
  5  4  2  0
  6  4  1  0
  7 13  1  0
  7  6  1  0
  7  8  1  6
  9  8  1  0
 10 11  1  0
 10  9  1  0
 11 12  1  0
 13 14  2  0
 16 17  1  0
 16 15  1  0
 17 18  1  0
 19 21  1  0
 19 18  1  1
 20 19  1  0
 20 13  1  0
 21 23  1  0
 22 21  2  0
M  END
$$$$
