AKM.pdb
     RDKit          3D

 23 22  0  0  1  0  0  0  0  0999 V2000
    7.3318  -12.6798   18.7215 C   0  0  0  0  0  0  0  0  0  0  0  0
    8.6517  -13.0812   19.3015 C   0  0  2  0  0  0  0  0  0  0  0  0
    9.5643  -13.6404   18.3557 N   0  0  0  0  0  0  0  0  0  0  0  0
    8.3683  -14.0394   20.4294 C   0  0  0  0  0  0  0  0  0  0  0  0
    7.5406  -13.7530   21.3299 O   0  0  0  0  0  0  0  0  0  0  0  0
    9.0155  -15.2974   20.5277 N   0  0  0  0  0  0  0  0  0  0  0  0
    8.7872  -16.2016   21.6279 C   0  0  1  0  0  0  0  0  0  0  0  0
    9.4177  -17.5407   21.2064 C   0  0  0  0  0  0  0  0  0  0  0  0
    8.6263  -18.1914   20.1215 C   0  0  0  0  0  0  0  0  0  0  0  0
    9.3786  -19.3758   19.5790 C   0  0  0  0  0  0  0  0  0  0  0  0
    8.5657  -20.0822   18.5378 C   0  0  0  0  0  0  0  0  0  0  0  0
    9.2977  -21.1868   17.9361 N   0  0  0  0  0  0  0  0  0  0  0  0
    9.5100  -15.7860   22.8568 C   0  0  0  0  0  0  0  0  0  0  0  0
   10.3167  -14.8118   22.7848 O   0  0  0  0  0  0  0  0  0  0  0  0
    6.1419  -11.8386   27.4494 C   0  0  0  0  0  0  0  0  0  0  0  0
    6.9289  -12.5930   26.0094 S   0  0  0  0  0  0  0  0  0  0  0  0
    7.1063  -14.3605   26.2929 C   0  0  0  0  0  0  0  0  0  0  0  0
    7.6455  -15.0860   25.0914 C   0  0  0  0  0  0  0  0  0  0  0  0
    9.0328  -15.6474   25.3123 C   0  0  2  0  0  0  0  0  0  0  0  0
    9.3532  -16.4113   24.1041 N   0  0  0  0  0  0  0  0  0  0  0  0
    9.0821  -16.5711   26.4912 C   0  0  0  0  0  0  0  0  0  0  0  0
    8.5842  -17.7374   26.4401 O   0  0  0  0  0  0  0  0  0  0  0  0
    9.6710  -16.1971   27.6867 O   0  0  0  0  0  0  0  0  0  0  0  0
  2  1  1  6
  2  3  1  0
  4  2  1  0
  5  4  2  0
  6  4  1  0
  7 13  1  0
  7  6  1  0
  7  8  1  6
  9  8  1  0
 10 11  1  0
 10  9  1  0
 11 12  1  0
 13 14  2  0
 16 17  1  0
 16 15  1  0
 17 18  1  0
 19 21  1  0
 19 18  1  6
 20 19  1  0
 20 13  1  0
 21 23  1  0
 22 21  2  0
M  END
$$$$
