AKM.pdb
     RDKit          3D

 23 22  0  0  1  0  0  0  0  0999 V2000
    8.6179  -12.3954   18.6828 C   0  0  0  0  0  0  0  0  0  0  0  0
    8.6140  -13.8388   18.2876 C   0  0  2  0  0  0  0  0  0  0  0  0
    7.7914  -14.1375   17.1587 N   0  0  0  0  0  0  0  0  0  0  0  0
    8.1970  -14.6302   19.5002 C   0  0  0  0  0  0  0  0  0  0  0  0
    7.0071  -14.6194   19.9028 O   0  0  0  0  0  0  0  0  0  0  0  0
    9.1180  -15.4171   20.2376 N   0  0  0  0  0  0  0  0  0  0  0  0
    8.7148  -16.2415   21.3503 C   0  0  1  0  0  0  0  0  0  0  0  0
    9.6123  -17.4902   21.2923 C   0  0  0  0  0  0  0  0  0  0  0  0
    9.1409  -18.4449   20.2469 C   0  0  0  0  0  0  0  0  0  0  0  0
   10.1179  -19.5810   20.1131 C   0  0  0  0  0  0  0  0  0  0  0  0
    9.6729  -20.5334   19.0460 C   0  0  0  0  0  0  0  0  0  0  0  0
   10.5920  -21.6523   18.9007 N   0  0  0  0  0  0  0  0  0  0  0  0
    9.0020  -15.6002   22.6585 C   0  0  0  0  0  0  0  0  0  0  0  0
   10.1684  -15.1541   22.8714 O   0  0  0  0  0  0  0  0  0  0  0  0
    6.5570  -11.1676   28.4478 C   0  0  0  0  0  0  0  0  0  0  0  0
    6.2371  -11.9441   26.8488 S   0  0  0  0  0  0  0  0  0  0  0  0
    7.1748  -13.4753   26.7390 C   0  0  0  0  0  0  0  0  0  0  0  0
    7.0703  -14.1197   25.3846 C   0  0  0  0  0  0  0  0  0  0  0  0
    8.3663  -14.7534   24.9291 C   0  0  2  0  0  0  0  0  0  0  0  0
    8.0525  -15.4565   23.6829 N   0  0  0  0  0  0  0  0  0  0  0  0
    8.8835  -15.7477   25.9238 C   0  0  0  0  0  0  0  0  0  0  0  0
    9.6060  -15.3896   26.9039 O   0  0  0  0  0  0  0  0  0  0  0  0
    8.5984  -17.0982   25.8208 O   0  0  0  0  0  0  0  0  0  0  0  0
  2  1  1  1
  2  3  1  0
  4  2  1  0
  5  4  2  0
  6  4  1  0
  7 13  1  0
  7  6  1  0
  7  8  1  1
  9  8  1  0
 10 11  1  0
 10  9  1  0
 11 12  1  0
 13 14  2  0
 16 17  1  0
 16 15  1  0
 17 18  1  0
 19 21  1  0
 19 18  1  1
 20 19  1  0
 20 13  1  0
 21 23  1  0
 22 21  2  0
M  END
$$$$
