AKM.pdb
     RDKit          3D

 23 22  0  0  1  0  0  0  0  0999 V2000
    6.1338  -19.3454   21.9144 C   0  0  0  0  0  0  0  0  0  0  0  0
    6.5904  -18.6695   23.1691 C   0  0  2  0  0  0  0  0  0  0  0  0
    5.5578  -17.9802   23.8753 N   0  0  0  0  0  0  0  0  0  0  0  0
    7.7151  -17.7412   22.7895 C   0  0  0  0  0  0  0  0  0  0  0  0
    8.7775  -18.1832   22.2854 O   0  0  0  0  0  0  0  0  0  0  0  0
    7.6294  -16.3387   22.9810 N   0  0  0  0  0  0  0  0  0  0  0  0
    8.6718  -15.4348   22.5607 C   0  0  1  0  0  0  0  0  0  0  0  0
    7.9648  -14.1114   22.2186 C   0  0  0  0  0  0  0  0  0  0  0  0
    7.2226  -14.2144   20.9282 C   0  0  0  0  0  0  0  0  0  0  0  0
    8.0394  -13.6112   19.8182 C   0  0  0  0  0  0  0  0  0  0  0  0
    7.2706  -13.6263   18.5327 C   0  0  0  0  0  0  0  0  0  0  0  0
    8.0901  -13.2048   17.4063 N   0  0  0  0  0  0  0  0  0  0  0  0
    9.6155  -15.1138   23.6614 C   0  0  0  0  0  0  0  0  0  0  0  0
    9.6780  -13.9185   24.0765 O   0  0  0  0  0  0  0  0  0  0  0  0
    8.7606  -14.8548   28.8964 C   0  0  0  0  0  0  0  0  0  0  0  0
    9.9194  -13.5153   28.5427 S   0  0  0  0  0  0  0  0  0  0  0  0
   10.8809  -13.9379   27.0823 C   0  0  0  0  0  0  0  0  0  0  0  0
   10.5149  -15.2836   26.5204 C   0  0  0  0  0  0  0  0  0  0  0  0
   11.3782  -15.6893   25.3462 C   0  0  2  0  0  0  0  0  0  0  0  0
   10.4499  -16.0614   24.2758 N   0  0  0  0  0  0  0  0  0  0  0  0
   12.2399  -16.8726   25.6668 C   0  0  0  0  0  0  0  0  0  0  0  0
   13.4626  -16.7365   25.9784 O   0  0  0  0  0  0  0  0  0  0  0  0
   11.7444  -18.1647   25.6384 O   0  0  0  0  0  0  0  0  0  0  0  0
  2  1  1  6
  2  3  1  0
  4  2  1  0
  5  4  2  0
  6  4  1  0
  7 13  1  0
  7  6  1  0
  7  8  1  1
  9  8  1  0
 10 11  1  0
 10  9  1  0
 11 12  1  0
 13 14  2  0
 16 17  1  0
 16 15  1  0
 17 18  1  0
 19 21  1  0
 19 18  1  1
 20 19  1  0
 20 13  1  0
 21 23  1  0
 22 21  2  0
M  END
$$$$
