AKM.pdb
     RDKit          3D

 23 22  0  0  1  0  0  0  0  0999 V2000
    8.7054  -16.3933   17.0276 C   0  0  0  0  0  0  0  0  0  0  0  0
    9.6216  -16.4924   18.2068 C   0  0  2  0  0  0  0  0  0  0  0  0
   10.4386  -17.6640   18.2202 N   0  0  0  0  0  0  0  0  0  0  0  0
    8.7654  -16.4014   19.4434 C   0  0  0  0  0  0  0  0  0  0  0  0
    7.9918  -15.4285   19.6253 O   0  0  0  0  0  0  0  0  0  0  0  0
    8.7913  -17.3991   20.4509 N   0  0  0  0  0  0  0  0  0  0  0  0
    7.9308  -17.3539   21.6076 C   0  0  1  0  0  0  0  0  0  0  0  0
    7.9658  -18.7694   22.2103 C   0  0  0  0  0  0  0  0  0  0  0  0
    6.6477  -19.4524   22.0595 C   0  0  0  0  0  0  0  0  0  0  0  0
    6.7000  -20.4167   20.9060 C   0  0  0  0  0  0  0  0  0  0  0  0
    5.3466  -21.0069   20.6533 C   0  0  0  0  0  0  0  0  0  0  0  0
    5.3135  -21.7783   19.4197 N   0  0  0  0  0  0  0  0  0  0  0  0
    8.4567  -16.4534   22.6648 C   0  0  0  0  0  0  0  0  0  0  0  0
    9.6996  -16.4676   22.9096 O   0  0  0  0  0  0  0  0  0  0  0  0
    6.8116  -10.5186   27.6330 C   0  0  0  0  0  0  0  0  0  0  0  0
    6.2085  -11.6500   26.3609 S   0  0  0  0  0  0  0  0  0  0  0  0
    7.5068  -12.8271   25.9553 C   0  0  0  0  0  0  0  0  0  0  0  0
    7.1297  -13.7315   24.8149 C   0  0  0  0  0  0  0  0  0  0  0  0
    8.2231  -14.7113   24.4501 C   0  0  2  0  0  0  0  0  0  0  0  0
    7.6546  -15.5797   23.4164 N   0  0  0  0  0  0  0  0  0  0  0  0
    8.6291  -15.5578   25.6179 C   0  0  0  0  0  0  0  0  0  0  0  0
    7.9289  -16.5474   25.9939 O   0  0  0  0  0  0  0  0  0  0  0  0
    9.7826  -15.3013   26.3387 O   0  0  0  0  0  0  0  0  0  0  0  0
  2  1  1  6
  2  3  1  0
  4  2  1  0
  5  4  2  0
  6  4  1  0
  7 13  1  0
  7  6  1  0
  7  8  1  1
  9  8  1  0
 10 11  1  0
 10  9  1  0
 11 12  1  0
 13 14  2  0
 16 17  1  0
 16 15  1  0
 17 18  1  0
 19 21  1  0
 19 18  1  1
 20 19  1  0
 20 13  1  0
 21 23  1  0
 22 21  2  0
M  END
$$$$
