AKM.pdb
     RDKit          3D

 23 22  0  0  1  0  0  0  0  0999 V2000
    7.4631  -12.7919   18.2907 C   0  0  0  0  0  0  0  0  0  0  0  0
    8.7032  -13.3716   18.8953 C   0  0  2  0  0  0  0  0  0  0  0  0
    9.5223  -14.0963   17.9765 N   0  0  0  0  0  0  0  0  0  0  0  0
    8.2715  -14.2361   20.0515 C   0  0  0  0  0  0  0  0  0  0  0  0
    7.5468  -13.7763   20.9688 O   0  0  0  0  0  0  0  0  0  0  0  0
    8.6584  -15.5963   20.1588 N   0  0  0  0  0  0  0  0  0  0  0  0
    8.2617  -16.4288   21.2678 C   0  0  1  0  0  0  0  0  0  0  0  0
    8.8604  -17.8176   20.9831 C   0  0  0  0  0  0  0  0  0  0  0  0
    7.7933  -18.8567   20.8930 C   0  0  0  0  0  0  0  0  0  0  0  0
    8.3727  -20.1412   20.3663 C   0  0  0  0  0  0  0  0  0  0  0  0
    7.2954  -21.1648   20.1778 C   0  0  0  0  0  0  0  0  0  0  0  0
    7.8416  -22.4696   19.8355 N   0  0  0  0  0  0  0  0  0  0  0  0
    8.8670  -15.9848   22.5491 C   0  0  0  0  0  0  0  0  0  0  0  0
   10.0867  -15.6423   22.5563 O   0  0  0  0  0  0  0  0  0  0  0  0
    6.6173  -11.1518   28.1173 C   0  0  0  0  0  0  0  0  0  0  0  0
    6.2305  -12.2056   26.7023 S   0  0  0  0  0  0  0  0  0  0  0  0
    7.6378  -13.2726   26.3598 C   0  0  0  0  0  0  0  0  0  0  0  0
    7.4252  -14.1361   25.1475 C   0  0  0  0  0  0  0  0  0  0  0  0
    8.5979  -15.0465   24.8564 C   0  0  2  0  0  0  0  0  0  0  0  0
    8.1651  -15.9206   23.7634 N   0  0  0  0  0  0  0  0  0  0  0  0
    8.9540  -15.8964   26.0381 C   0  0  0  0  0  0  0  0  0  0  0  0
    8.4863  -17.0681   26.1762 O   0  0  0  0  0  0  0  0  0  0  0  0
    9.8067  -15.4450   27.0306 O   0  0  0  0  0  0  0  0  0  0  0  0
  2  1  1  6
  2  3  1  0
  4  2  1  0
  5  4  2  0
  6  4  1  0
  7 13  1  0
  7  6  1  0
  7  8  1  6
  9  8  1  0
 10 11  1  0
 10  9  1  0
 11 12  1  0
 13 14  2  0
 16 17  1  0
 16 15  1  0
 17 18  1  0
 19 21  1  0
 19 18  1  1
 20 19  1  0
 20 13  1  0
 21 23  1  0
 22 21  2  0
M  END
$$$$
