RLH.pdb
     RDKit          3D

 30 30  0  0  1  0  0  0  0  0999 V2000
   23.2696  -15.5999  -16.8081 N   0  0  0  0  0  0  0  0  0  0  0  0
   23.8438  -14.3038  -16.7630 C   0  0  0  0  0  0  0  0  0  0  0  0
   23.2469  -13.2679  -17.2308 N   0  0  0  0  0  0  0  0  0  0  0  0
   25.1489  -14.1413  -16.1687 N   0  0  0  0  0  0  0  0  0  0  0  0
   26.1339  -15.1468  -16.3444 C   0  0  0  0  0  0  0  0  0  0  0  0
   25.8180  -16.5407  -16.0228 C   0  0  0  0  0  0  0  0  0  0  0  0
   26.0527  -17.0923  -14.7007 C   0  0  0  0  0  0  0  0  0  0  0  0
   26.8341  -18.3478  -14.5937 C   0  0  2  0  0  0  0  0  0  0  0  0
   27.6303  -18.7478  -15.6819 N   0  0  0  0  0  0  0  0  0  0  0  0
   25.9737  -19.4635  -14.0685 C   0  0  0  0  0  0  0  0  0  0  0  0
   25.9625  -20.5163  -14.7500 O   0  0  0  0  0  0  0  0  0  0  0  0
   23.6528  -12.3303  -17.1477 C   0  0  0  0  0  0  0  0  0  0  0  0
   26.9441  -21.8139  -10.8548 C   0  0  2  0  0  0  0  0  0  0  0  0
   26.1777  -20.6125  -10.2957 C   0  0  0  0  0  0  0  0  0  0  0  0
   26.3556  -20.3848   -8.8507 C   0  0  0  0  0  0  0  0  0  0  0  0
   24.8302  -20.5495  -10.8796 C   0  0  2  0  0  0  0  0  0  0  0  0
   24.6317  -20.6436  -12.3384 N   0  0  0  0  0  0  0  0  0  0  0  0
   25.2071  -19.3990  -12.8973 C   0  0  0  0  0  0  0  0  0  0  0  0
   23.1902  -20.6541  -12.6848 O   0  0  0  0  0  0  0  0  0  0  0  0
   22.2937  -20.9854  -11.8668 N   0  0  0  0  0  0  0  0  0  0  0  0
   22.7547  -20.2835  -13.9776 C   0  0  2  0  0  0  0  0  0  0  0  0
   21.6383  -20.9770  -14.5981 C   0  0  0  0  0  0  0  0  0  0  0  0
   21.7516  -22.4538  -14.4577 C   0  0  0  0  0  0  0  0  0  0  0  0
   22.7472  -22.9825  -15.4155 C   0  0  0  0  0  0  0  0  0  0  0  0
   23.4169  -22.2071  -16.3743 N   0  0  0  0  0  0  0  0  0  0  0  0
   24.2376  -22.9953  -17.0677 C   0  0  0  0  0  0  0  0  0  0  0  0
   24.1081  -24.2243  -16.5833 N   0  0  0  0  0  0  0  0  0  0  0  0
   23.2174  -24.2198  -15.5951 C   0  0  0  0  0  0  0  0  0  0  0  0
   20.3669  -20.4951  -14.0445 O   0  0  0  0  0  0  0  0  0  0  0  0
   19.2838  -21.0153  -14.4727 O   0  0  0  0  0  0  0  0  0  0  0  0
  2  1  1  0
  3  2  2  0
  4  2  1  0
  5  4  1  0
  6  5  1  0
  7  6  1  0
  8  7  1  0
  8  9  1  6
 10  8  1  0
 11 10  2  0
 13 12  1  6
 13 15  1  0
 14 13  1  0
 16 15  1  6
 16 18  1  0
 16 17  1  0
 17 10  1  0
 18 20  1  0
 19 18  2  0
 20 21  1  0
 21 22  1  1
 21 28  1  0
 22 23  1  0
 23 24  2  0
 25 24  1  0
 26 25  1  0
 27 26  2  0
 27 23  1  0
 28 29  2  0
 28 30  1  0
M  END
$$$$
