RLH.pdb
     RDKit          3D

 30 30  0  0  1  0  0  0  0  0999 V2000
   21.1993  -26.5715  -14.6027 N   0  0  0  0  0  0  0  0  0  0  0  0
   22.4246  -26.2746  -15.2522 C   0  0  0  0  0  0  0  0  0  0  0  0
   23.3712  -27.1344  -15.3666 N   0  0  0  0  0  0  0  0  0  0  0  0
   22.6166  -24.9560  -15.8066 N   0  0  0  0  0  0  0  0  0  0  0  0
   21.5866  -23.9873  -15.6948 C   0  0  0  0  0  0  0  0  0  0  0  0
   21.8733  -22.6850  -15.0881 C   0  0  0  0  0  0  0  0  0  0  0  0
   21.5753  -22.4089  -13.6943 C   0  0  0  0  0  0  0  0  0  0  0  0
   21.7788  -21.0279  -13.1946 C   0  0  2  0  0  0  0  0  0  0  0  0
   20.9196  -20.0089  -13.6435 N   0  0  0  0  0  0  0  0  0  0  0  0
   23.2288  -20.6405  -13.2855 C   0  0  0  0  0  0  0  0  0  0  0  0
   23.4899  -19.6572  -14.0191 O   0  0  0  0  0  0  0  0  0  0  0  0
   24.2733  -26.8881  -15.7862 C   0  0  0  0  0  0  0  0  0  0  0  0
   25.7386  -19.3205  -10.1653 C   0  0  1  0  0  0  0  0  0  0  0  0
   25.9591  -20.8347  -10.2088 C   0  0  0  0  0  0  0  0  0  0  0  0
   26.6466  -21.3926   -9.0308 C   0  0  0  0  0  0  0  0  0  0  0  0
   26.3734  -21.2521  -11.5558 C   0  0  2  0  0  0  0  0  0  0  0  0
   25.6546  -20.7732  -12.7518 N   0  0  0  0  0  0  0  0  0  0  0  0
   24.2744  -21.2927  -12.6187 C   0  0  0  0  0  0  0  0  0  0  0  0
   26.2246  -21.3557  -13.9903 O   0  0  0  0  0  0  0  0  0  0  0  0
   25.9626  -22.5230  -14.3792 N   0  0  0  0  0  0  0  0  0  0  0  0
   27.1055  -20.6060  -14.8029 C   0  0  1  0  0  0  0  0  0  0  0  0
   26.7135  -20.2310  -16.1511 C   0  0  0  0  0  0  0  0  0  0  0  0
   25.4102  -19.5137  -16.1739 C   0  0  0  0  0  0  0  0  0  0  0  0
   24.9961  -19.2523  -17.5698 C   0  0  0  0  0  0  0  0  0  0  0  0
   25.6866  -19.7102  -18.7023 N   0  0  0  0  0  0  0  0  0  0  0  0
   25.0442  -19.2964  -19.7940 C   0  0  0  0  0  0  0  0  0  0  0  0
   23.9866  -18.6028  -19.3910 N   0  0  0  0  0  0  0  0  0  0  0  0
   23.9553  -18.5747  -18.0613 C   0  0  0  0  0  0  0  0  0  0  0  0
   27.7652  -19.4246  -16.7827 O   0  0  0  0  0  0  0  0  0  0  0  0
   28.1182  -18.3380  -16.2156 O   0  0  0  0  0  0  0  0  0  0  0  0
  2  1  1  0
  3  2  2  0
  4  2  1  0
  5  4  1  0
  6  5  1  0
  7  6  1  0
  8  7  1  0
  8  9  1  6
 10  8  1  0
 11 10  2  0
 13 12  1  1
 13 15  1  0
 14 13  1  0
 16 15  1  1
 16 18  1  0
 16 17  1  0
 17 10  1  0
 18 20  1  0
 19 18  2  0
 20 21  1  0
 21 22  1  6
 21 28  1  0
 22 23  1  0
 23 24  2  0
 25 24  1  0
 26 25  1  0
 27 26  2  0
 27 23  1  0
 28 29  2  0
 28 30  1  0
M  END
$$$$
