RLH.pdb
     RDKit          3D

 30 30  0  0  1  0  0  0  0  0999 V2000
   26.4563  -36.2066   -7.8694 N   0  0  0  0  0  0  0  0  0  0  0  0
   26.8891  -34.8559   -7.8704 C   0  0  0  0  0  0  0  0  0  0  0  0
   26.0799  -33.8721   -8.0302 N   0  0  0  0  0  0  0  0  0  0  0  0
   28.2924  -34.5747   -7.6846 N   0  0  0  0  0  0  0  0  0  0  0  0
   29.2570  -35.5697   -7.9874 C   0  0  0  0  0  0  0  0  0  0  0  0
   29.5311  -36.6370   -7.0220 C   0  0  0  0  0  0  0  0  0  0  0  0
   30.4982  -37.6847   -7.2949 C   0  0  0  0  0  0  0  0  0  0  0  0
   31.9384  -37.3644   -7.1486 C   0  0  2  0  0  0  0  0  0  0  0  0
   32.8729  -38.0592   -7.9373 N   0  0  0  0  0  0  0  0  0  0  0  0
   32.3268  -37.3242   -5.6966 C   0  0  0  0  0  0  0  0  0  0  0  0
   32.3069  -38.4228   -5.0917 O   0  0  0  0  0  0  0  0  0  0  0  0
   26.4168  -32.9085   -8.1232 C   0  0  0  0  0  0  0  0  0  0  0  0
   35.9973  -34.1654   -2.4201 C   0  0  1  0  0  0  0  0  0  0  0  0
   35.2285  -35.4620   -2.6868 C   0  0  0  0  0  0  0  0  0  0  0  0
   36.0345  -36.5487   -3.2708 C   0  0  0  0  0  0  0  0  0  0  0  0
   33.9012  -35.1636   -3.2433 C   0  0  2  0  0  0  0  0  0  0  0  0
   32.9442  -36.2460   -3.5417 N   0  0  0  0  0  0  0  0  0  0  0  0
   32.6992  -36.1668   -4.9999 C   0  0  0  0  0  0  0  0  0  0  0  0
   31.6449  -36.0157   -2.8659 O   0  0  0  0  0  0  0  0  0  0  0  0
   30.6100  -35.6519   -3.4815 N   0  0  0  0  0  0  0  0  0  0  0  0
   31.5133  -36.2001   -1.4705 C   0  0  1  0  0  0  0  0  0  0  0  0
   30.2225  -36.0153   -0.8287 C   0  0  0  0  0  0  0  0  0  0  0  0
   29.1630  -36.8502   -1.4562 C   0  0  0  0  0  0  0  0  0  0  0  0
   27.8839  -36.6797   -0.7330 C   0  0  0  0  0  0  0  0  0  0  0  0
   27.3503  -35.4417   -0.3437 N   0  0  0  0  0  0  0  0  0  0  0  0
   26.1937  -35.6504    0.2844 C   0  0  0  0  0  0  0  0  0  0  0  0
   25.9849  -36.9611    0.3027 N   0  0  0  0  0  0  0  0  0  0  0  0
   26.9941  -37.5793   -0.3050 C   0  0  0  0  0  0  0  0  0  0  0  0
   30.3233  -36.2926    0.6094 O   0  0  0  0  0  0  0  0  0  0  0  0
   31.4760  -36.5297    1.1014 O   0  0  0  0  0  0  0  0  0  0  0  0
  2  1  1  0
  3  2  2  0
  4  2  1  0
  5  4  1  0
  6  5  1  0
  7  6  1  0
  8  7  1  0
  8  9  1  6
 10  8  1  0
 11 10  2  0
 13 12  1  1
 13 15  1  0
 14 13  1  0
 16 15  1  6
 16 18  1  0
 16 17  1  0
 17 10  1  0
 18 20  1  0
 19 18  2  0
 20 21  1  0
 21 22  1  1
 21 28  1  0
 22 23  1  0
 23 24  2  0
 25 24  1  0
 26 25  1  0
 27 26  2  0
 27 23  1  0
 28 29  2  0
 28 30  1  0
M  END
$$$$
