RLH.pdb
     RDKit          3D

 30 30  0  0  1  0  0  0  0  0999 V2000
   27.6720  -27.8979  -16.3541 N   0  0  0  0  0  0  0  0  0  0  0  0
   26.4170  -27.7864  -17.0053 C   0  0  0  0  0  0  0  0  0  0  0  0
   25.5670  -28.7482  -17.0349 N   0  0  0  0  0  0  0  0  0  0  0  0
   26.0807  -26.5451  -17.6603 N   0  0  0  0  0  0  0  0  0  0  0  0
   26.5964  -25.3219  -17.1605 C   0  0  0  0  0  0  0  0  0  0  0  0
   26.1020  -24.7875  -15.8892 C   0  0  0  0  0  0  0  0  0  0  0  0
   24.8302  -24.0939  -15.7945 C   0  0  0  0  0  0  0  0  0  0  0  0
   24.8456  -22.6174  -15.6610 C   0  0  2  0  0  0  0  0  0  0  0  0
   26.0602  -21.9311  -15.8407 N   0  0  0  0  0  0  0  0  0  0  0  0
   24.1223  -22.1912  -14.4136 C   0  0  0  0  0  0  0  0  0  0  0  0
   23.0736  -22.8239  -14.1431 O   0  0  0  0  0  0  0  0  0  0  0  0
   24.6859  -28.6711  -17.5530 C   0  0  0  0  0  0  0  0  0  0  0  0
   24.4707  -22.0482   -9.8025 C   0  0  2  0  0  0  0  0  0  0  0  0
   25.3885  -21.0303  -10.4843 C   0  0  0  0  0  0  0  0  0  0  0  0
   26.3835  -20.4040   -9.5959 C   0  0  0  0  0  0  0  0  0  0  0  0
   24.6199  -20.1935  -11.4167 C   0  0  2  0  0  0  0  0  0  0  0  0
   23.6979  -20.8006  -12.3954 N   0  0  0  0  0  0  0  0  0  0  0  0
   24.5381  -21.1604  -13.5603 C   0  0  0  0  0  0  0  0  0  0  0  0
   22.6924  -19.8184  -12.8671 O   0  0  0  0  0  0  0  0  0  0  0  0
   22.9403  -18.9581  -13.7507 N   0  0  0  0  0  0  0  0  0  0  0  0
   21.3844  -19.8089  -12.3308 C   0  0  1  0  0  0  0  0  0  0  0  0
   20.2363  -19.6657  -13.2103 C   0  0  0  0  0  0  0  0  0  0  0  0
   20.3509  -20.5228  -14.4210 C   0  0  0  0  0  0  0  0  0  0  0  0
   20.3684  -19.6845  -15.6397 C   0  0  0  0  0  0  0  0  0  0  0  0
   20.1933  -18.2923  -15.6488 N   0  0  0  0  0  0  0  0  0  0  0  0
   20.2646  -17.8581  -16.9066 C   0  0  0  0  0  0  0  0  0  0  0  0
   20.4762  -18.9170  -17.6787 N   0  0  0  0  0  0  0  0  0  0  0  0
   20.5387  -20.0107  -16.9237 C   0  0  0  0  0  0  0  0  0  0  0  0
   18.9955  -19.9546  -12.4808 O   0  0  0  0  0  0  0  0  0  0  0  0
   18.8189  -21.1344  -12.0292 O   0  0  0  0  0  0  0  0  0  0  0  0
  2  1  1  0
  3  2  2  0
  4  2  1  0
  5  4  1  0
  6  5  1  0
  7  6  1  0
  8  7  1  0
  8  9  1  1
 10  8  1  0
 11 10  2  0
 13 12  1  6
 13 15  1  0
 14 13  1  0
 16 15  1  1
 16 18  1  0
 16 17  1  0
 17 10  1  0
 18 20  1  0
 19 18  2  0
 20 21  1  0
 21 22  1  1
 21 28  1  0
 22 23  1  0
 23 24  2  0
 25 24  1  0
 26 25  1  0
 27 26  2  0
 27 23  1  0
 28 29  2  0
 28 30  1  0
M  END
$$$$
