RLH.pdb
     RDKit          3D

 30 30  0  0  1  0  0  0  0  0999 V2000
   22.4215  -27.0346  -13.4788 N   0  0  0  0  0  0  0  0  0  0  0  0
   21.8860  -27.0466  -14.7921 C   0  0  0  0  0  0  0  0  0  0  0  0
   20.8039  -27.6699  -15.0905 N   0  0  0  0  0  0  0  0  0  0  0  0
   22.5825  -26.3313  -15.8342 N   0  0  0  0  0  0  0  0  0  0  0  0
   23.7003  -25.5214  -15.5076 C   0  0  0  0  0  0  0  0  0  0  0  0
   23.4924  -24.1793  -14.9581 C   0  0  0  0  0  0  0  0  0  0  0  0
   24.1187  -23.0080  -15.5438 C   0  0  0  0  0  0  0  0  0  0  0  0
   25.0569  -22.2225  -14.7066 C   0  0  2  0  0  0  0  0  0  0  0  0
   25.4540  -22.7412  -13.4610 N   0  0  0  0  0  0  0  0  0  0  0  0
   24.6138  -20.7883  -14.6185 C   0  0  0  0  0  0  0  0  0  0  0  0
   23.9141  -20.4895  -13.6214 O   0  0  0  0  0  0  0  0  0  0  0  0
   20.4564  -27.7126  -16.0538 C   0  0  0  0  0  0  0  0  0  0  0  0
   26.8255  -16.9655  -14.2708 C   0  0  2  0  0  0  0  0  0  0  0  0
   26.7323  -17.3521  -15.7490 C   0  0  0  0  0  0  0  0  0  0  0  0
   27.6350  -16.6032  -16.6411 C   0  0  0  0  0  0  0  0  0  0  0  0
   25.3288  -17.5507  -16.1376 C   0  0  2  0  0  0  0  0  0  0  0  0
   24.4372  -18.4147  -15.3406 N   0  0  0  0  0  0  0  0  0  0  0  0
   24.9275  -19.7952  -15.5559 C   0  0  0  0  0  0  0  0  0  0  0  0
   23.0443  -18.3606  -15.8459 O   0  0  0  0  0  0  0  0  0  0  0  0
   22.6612  -18.9962  -16.8616 N   0  0  0  0  0  0  0  0  0  0  0  0
   22.0681  -17.5748  -15.1917 C   0  0  1  0  0  0  0  0  0  0  0  0
   20.7213  -17.4867  -15.7306 C   0  0  0  0  0  0  0  0  0  0  0  0
   19.6915  -17.4627  -14.6571 C   0  0  0  0  0  0  0  0  0  0  0  0
   19.4320  -18.8345  -14.1682 C   0  0  0  0  0  0  0  0  0  0  0  0
   20.0751  -19.9847  -14.6506 N   0  0  0  0  0  0  0  0  0  0  0  0
   19.6060  -21.0462  -13.9958 C   0  0  0  0  0  0  0  0  0  0  0  0
   18.7014  -20.6077  -13.1290 N   0  0  0  0  0  0  0  0  0  0  0  0
   18.5952  -19.2854  -13.2299 C   0  0  0  0  0  0  0  0  0  0  0  0
   20.5960  -16.3117  -16.6016 O   0  0  0  0  0  0  0  0  0  0  0  0
   21.5261  -15.4390  -16.5793 O   0  0  0  0  0  0  0  0  0  0  0  0
  2  1  1  0
  3  2  2  0
  4  2  1  0
  5  4  1  0
  6  5  1  0
  7  6  1  0
  8  7  1  0
  8  9  1  1
 10  8  1  0
 11 10  2  0
 13 12  1  1
 13 15  1  0
 14 13  1  0
 16 15  1  1
 16 18  1  0
 16 17  1  0
 17 10  1  0
 18 20  1  0
 19 18  2  0
 20 21  1  0
 21 22  1  6
 21 28  1  0
 22 23  1  0
 23 24  2  0
 25 24  1  0
 26 25  1  0
 27 26  2  0
 27 23  1  0
 28 29  2  0
 28 30  1  0
M  END
$$$$
