RLH.pdb
     RDKit          3D

 30 30  0  0  1  0  0  0  0  0999 V2000
   16.7031  -15.2685  -15.9391 N   0  0  0  0  0  0  0  0  0  0  0  0
   15.9998  -15.5450  -17.1394 C   0  0  0  0  0  0  0  0  0  0  0  0
   14.9755  -16.3180  -17.1765 N   0  0  0  0  0  0  0  0  0  0  0  0
   16.4514  -14.9348  -18.3668 N   0  0  0  0  0  0  0  0  0  0  0  0
   17.6093  -14.1155  -18.3626 C   0  0  0  0  0  0  0  0  0  0  0  0
   18.8758  -14.6460  -17.8519 C   0  0  0  0  0  0  0  0  0  0  0  0
   20.0878  -13.8472  -17.8351 C   0  0  0  0  0  0  0  0  0  0  0  0
   21.3101  -14.4407  -17.2418 C   0  0  2  0  0  0  0  0  0  0  0  0
   21.2044  -15.6547  -16.5395 N   0  0  0  0  0  0  0  0  0  0  0  0
   22.0881  -13.4019  -16.4827 C   0  0  0  0  0  0  0  0  0  0  0  0
   21.6442  -13.1031  -15.3482 O   0  0  0  0  0  0  0  0  0  0  0  0
   14.5197  -16.5644  -18.0610 C   0  0  0  0  0  0  0  0  0  0  0  0
   27.7320  -11.3511  -16.1228 C   0  0  1  0  0  0  0  0  0  0  0  0
   26.3041  -10.9652  -15.7283 C   0  0  0  0  0  0  0  0  0  0  0  0
   26.1459  -10.5324  -14.3286 C   0  0  0  0  0  0  0  0  0  0  0  0
   25.3405  -11.9115  -16.3084 C   0  0  2  0  0  0  0  0  0  0  0  0
   23.8891  -11.7248  -16.1212 N   0  0  0  0  0  0  0  0  0  0  0  0
   23.2454  -12.7671  -16.9529 C   0  0  0  0  0  0  0  0  0  0  0  0
   23.4447  -10.4106  -16.6441 O   0  0  0  0  0  0  0  0  0  0  0  0
   23.5177  -10.0996  -17.8608 N   0  0  0  0  0  0  0  0  0  0  0  0
   22.9085   -9.4313  -15.7769 C   0  0  1  0  0  0  0  0  0  0  0  0
   22.2775   -8.2409  -16.3217 C   0  0  0  0  0  0  0  0  0  0  0  0
   21.0783   -8.5696  -17.1387 C   0  0  0  0  0  0  0  0  0  0  0  0
   20.5472   -7.3469  -17.7800 C   0  0  0  0  0  0  0  0  0  0  0  0
   21.2515   -6.5680  -18.7107 N   0  0  0  0  0  0  0  0  0  0  0  0
   20.4836   -5.5449  -19.0838 C   0  0  0  0  0  0  0  0  0  0  0  0
   19.3349   -5.6531  -18.4275 N   0  0  0  0  0  0  0  0  0  0  0  0
   19.3701   -6.7298  -17.6469 C   0  0  0  0  0  0  0  0  0  0  0  0
   21.9351   -7.3057  -15.2432 O   0  0  0  0  0  0  0  0  0  0  0  0
   21.7165   -7.7778  -14.0786 O   0  0  0  0  0  0  0  0  0  0  0  0
  2  1  1  0
  3  2  2  0
  4  2  1  0
  5  4  1  0
  6  5  1  0
  7  6  1  0
  8  7  1  0
  8  9  1  1
 10  8  1  0
 11 10  2  0
 13 12  1  6
 13 15  1  0
 14 13  1  0
 16 15  1  1
 16 18  1  0
 16 17  1  0
 17 10  1  0
 18 20  1  0
 19 18  2  0
 20 21  1  0
 21 22  1  6
 21 28  1  0
 22 23  1  0
 23 24  2  0
 25 24  1  0
 26 25  1  0
 27 26  2  0
 27 23  1  0
 28 29  2  0
 28 30  1  0
M  END
$$$$
