RLH.pdb
     RDKit          3D

 30 30  0  0  1  0  0  0  0  0999 V2000
   20.3115  -22.5935  -11.6213 N   0  0  0  0  0  0  0  0  0  0  0  0
   20.5087  -22.8759  -12.9972 C   0  0  0  0  0  0  0  0  0  0  0  0
   19.7548  -23.6838  -13.6509 N   0  0  0  0  0  0  0  0  0  0  0  0
   21.5979  -22.2312  -13.6907 N   0  0  0  0  0  0  0  0  0  0  0  0
   22.4176  -21.2991  -13.0042 C   0  0  0  0  0  0  0  0  0  0  0  0
   23.3364  -21.7650  -11.9626 C   0  0  0  0  0  0  0  0  0  0  0  0
   24.7110  -22.1241  -12.2606 C   0  0  0  0  0  0  0  0  0  0  0  0
   25.7835  -21.1800  -11.8648 C   0  0  2  0  0  0  0  0  0  0  0  0
   25.9923  -20.9225  -10.4980 N   0  0  0  0  0  0  0  0  0  0  0  0
   25.7090  -19.9210  -12.6834 C   0  0  0  0  0  0  0  0  0  0  0  0
   25.4004  -18.8774  -12.0597 O   0  0  0  0  0  0  0  0  0  0  0  0
   19.8932  -23.8575  -14.6515 C   0  0  0  0  0  0  0  0  0  0  0  0
   28.1991  -17.8980  -17.8053 C   0  0  2  0  0  0  0  0  0  0  0  0
   27.1968  -17.4984  -16.7194 C   0  0  0  0  0  0  0  0  0  0  0  0
   27.3950  -16.1484  -16.1629 C   0  0  0  0  0  0  0  0  0  0  0  0
   26.9492  -18.6280  -15.8121 C   0  0  2  0  0  0  0  0  0  0  0  0
   25.9559  -18.5237  -14.7263 N   0  0  0  0  0  0  0  0  0  0  0  0
   25.9571  -19.8463  -14.0605 C   0  0  0  0  0  0  0  0  0  0  0  0
   24.5920  -18.3056  -15.2652 O   0  0  0  0  0  0  0  0  0  0  0  0
   23.8918  -19.2330  -15.7472 N   0  0  0  0  0  0  0  0  0  0  0  0
   24.0098  -17.0175  -15.2590 C   0  0  2  0  0  0  0  0  0  0  0  0
   22.6949  -16.8082  -15.8417 C   0  0  0  0  0  0  0  0  0  0  0  0
   22.1876  -15.4317  -15.5937 C   0  0  0  0  0  0  0  0  0  0  0  0
   20.8410  -15.2702  -16.1843 C   0  0  0  0  0  0  0  0  0  0  0  0
   19.6597  -15.7732  -15.6181 N   0  0  0  0  0  0  0  0  0  0  0  0
   18.6343  -15.4508  -16.4056 C   0  0  0  0  0  0  0  0  0  0  0  0
   19.1249  -14.7706  -17.4345 N   0  0  0  0  0  0  0  0  0  0  0  0
   20.4444  -14.6611  -17.3049 C   0  0  0  0  0  0  0  0  0  0  0  0
   22.7207  -17.1049  -17.2792 O   0  0  0  0  0  0  0  0  0  0  0  0
   22.1228  -18.1531  -17.6923 O   0  0  0  0  0  0  0  0  0  0  0  0
  2  1  1  0
  3  2  2  0
  4  2  1  0
  5  4  1  0
  6  5  1  0
  7  6  1  0
  8  7  1  0
  8  9  1  1
 10  8  1  0
 11 10  2  0
 13 12  1  6
 13 15  1  0
 14 13  1  0
 16 15  1  1
 16 18  1  0
 16 17  1  0
 17 10  1  0
 18 20  1  0
 19 18  2  0
 20 21  1  0
 21 22  1  6
 21 28  1  0
 22 23  1  0
 23 24  2  0
 25 24  1  0
 26 25  1  0
 27 26  2  0
 27 23  1  0
 28 29  2  0
 28 30  1  0
M  END
$$$$
