RLH.pdb
     RDKit          3D

 30 30  0  0  1  0  0  0  0  0999 V2000
   14.2409  -18.2520    2.4316 N   0  0  0  0  0  0  0  0  0  0  0  0
   15.2437  -18.8633    3.2268 C   0  0  0  0  0  0  0  0  0  0  0  0
   15.8508  -19.9360    2.8675 N   0  0  0  0  0  0  0  0  0  0  0  0
   15.5965  -18.2578    4.4885 N   0  0  0  0  0  0  0  0  0  0  0  0
   15.0808  -16.9803    4.8261 C   0  0  0  0  0  0  0  0  0  0  0  0
   15.8197  -15.7729    4.4488 C   0  0  0  0  0  0  0  0  0  0  0  0
   16.1801  -14.7608    5.4251 C   0  0  0  0  0  0  0  0  0  0  0  0
   16.7598  -13.4878    4.9335 C   0  0  2  0  0  0  0  0  0  0  0  0
   16.6454  -13.1713    3.5679 N   0  0  0  0  0  0  0  0  0  0  0  0
   18.1603  -13.3094    5.4508 C   0  0  0  0  0  0  0  0  0  0  0  0
   19.0439  -14.0054    4.8960 O   0  0  0  0  0  0  0  0  0  0  0  0
   16.5726  -20.3672    3.4538 C   0  0  0  0  0  0  0  0  0  0  0  0
   21.2910   -9.1311    8.5276 C   0  0  1  0  0  0  0  0  0  0  0  0
   21.4437  -10.4739    7.8086 C   0  0  0  0  0  0  0  0  0  0  0  0
   22.6312  -10.5788    6.9424 C   0  0  0  0  0  0  0  0  0  0  0  0
   20.1405  -10.9388    7.3125 C   0  0  2  0  0  0  0  0  0  0  0  0
   19.9501  -12.3356    6.8773 N   0  0  0  0  0  0  0  0  0  0  0  0
   18.5260  -12.4372    6.4847 C   0  0  0  0  0  0  0  0  0  0  0  0
   20.1642  -13.2815    7.9987 O   0  0  0  0  0  0  0  0  0  0  0  0
   19.2678  -13.5631    8.8351 N   0  0  0  0  0  0  0  0  0  0  0  0
   21.4127  -13.9202    8.1773 C   0  0  1  0  0  0  0  0  0  0  0  0
   21.5747  -14.9295    9.2103 C   0  0  0  0  0  0  0  0  0  0  0  0
   22.4764  -16.0309    8.7773 C   0  0  0  0  0  0  0  0  0  0  0  0
   21.7184  -17.0341    7.9979 C   0  0  0  0  0  0  0  0  0  0  0  0
   20.3502  -16.9410    7.7007 N   0  0  0  0  0  0  0  0  0  0  0  0
   19.9914  -18.0081    6.9879 C   0  0  0  0  0  0  0  0  0  0  0  0
   21.0742  -18.7593    6.8289 N   0  0  0  0  0  0  0  0  0  0  0  0
   22.1086  -18.1793    7.4319 C   0  0  0  0  0  0  0  0  0  0  0  0
   22.0591  -14.3152   10.4525 O   0  0  0  0  0  0  0  0  0  0  0  0
   22.6400  -13.1819   10.3816 O   0  0  0  0  0  0  0  0  0  0  0  0
  2  1  1  0
  3  2  2  0
  4  2  1  0
  5  4  1  0
  6  5  1  0
  7  6  1  0
  8  7  1  0
  8  9  1  6
 10  8  1  0
 11 10  2  0
 13 12  1  1
 13 15  1  0
 14 13  1  0
 16 15  1  6
 16 18  1  0
 16 17  1  0
 17 10  1  0
 18 20  1  0
 19 18  2  0
 20 21  1  0
 21 22  1  1
 21 28  1  0
 22 23  1  0
 23 24  2  0
 25 24  1  0
 26 25  1  0
 27 26  2  0
 27 23  1  0
 28 29  2  0
 28 30  1  0
M  END
$$$$
