RLH.pdb
     RDKit          3D

 30 30  0  0  1  0  0  0  0  0999 V2000
   29.5200  -25.2164  -17.4043 N   0  0  0  0  0  0  0  0  0  0  0  0
   28.7445  -26.3073  -17.8734 C   0  0  0  0  0  0  0  0  0  0  0  0
   29.2293  -27.2232  -18.6314 N   0  0  0  0  0  0  0  0  0  0  0  0
   27.3572  -26.3929  -17.4849 N   0  0  0  0  0  0  0  0  0  0  0  0
   26.7180  -25.2695  -16.9008 C   0  0  0  0  0  0  0  0  0  0  0  0
   25.8387  -25.4513  -15.7432 C   0  0  0  0  0  0  0  0  0  0  0  0
   24.8116  -24.4831  -15.4039 C   0  0  0  0  0  0  0  0  0  0  0  0
   25.2234  -23.0787  -15.1665 C   0  0  2  0  0  0  0  0  0  0  0  0
   26.5897  -22.7899  -14.9994 N   0  0  0  0  0  0  0  0  0  0  0  0
   24.3671  -22.4487  -14.1032 C   0  0  0  0  0  0  0  0  0  0  0  0
   23.1997  -22.8957  -14.0013 O   0  0  0  0  0  0  0  0  0  0  0  0
   28.6835  -28.0512  -18.8904 C   0  0  0  0  0  0  0  0  0  0  0  0
   24.7393  -22.0683   -9.7281 C   0  0  2  0  0  0  0  0  0  0  0  0
   25.5079  -20.9071  -10.3640 C   0  0  0  0  0  0  0  0  0  0  0  0
   26.4033  -20.1826   -9.4449 C   0  0  0  0  0  0  0  0  0  0  0  0
   24.6325  -20.1507  -11.2706 C   0  0  2  0  0  0  0  0  0  0  0  0
   23.8157  -20.8417  -12.2865 N   0  0  0  0  0  0  0  0  0  0  0  0
   24.7837  -21.4228  -13.2444 C   0  0  0  0  0  0  0  0  0  0  0  0
   22.9735  -19.8832  -13.0415 O   0  0  0  0  0  0  0  0  0  0  0  0
   23.3818  -19.2730  -14.0631 N   0  0  0  0  0  0  0  0  0  0  0  0
   21.6475  -19.6099  -12.6349 C   0  0  1  0  0  0  0  0  0  0  0  0
   20.5953  -19.4652  -13.6269 C   0  0  0  0  0  0  0  0  0  0  0  0
   20.5365  -20.6295  -14.5514 C   0  0  0  0  0  0  0  0  0  0  0  0
   20.9815  -20.2297  -15.9043 C   0  0  0  0  0  0  0  0  0  0  0  0
   21.2909  -18.9143  -16.2824 N   0  0  0  0  0  0  0  0  0  0  0  0
   21.6539  -18.9095  -17.5646 C   0  0  0  0  0  0  0  0  0  0  0  0
   21.5842  -20.1617  -17.9996 N   0  0  0  0  0  0  0  0  0  0  0  0
   21.1823  -20.9534  -17.0089 C   0  0  0  0  0  0  0  0  0  0  0  0
   19.2998  -19.2536  -12.9697 O   0  0  0  0  0  0  0  0  0  0  0  0
   18.8979  -20.1241  -12.1285 O   0  0  0  0  0  0  0  0  0  0  0  0
  2  1  1  0
  3  2  2  0
  4  2  1  0
  5  4  1  0
  6  5  1  0
  7  6  1  0
  8  7  1  0
  8  9  1  1
 10  8  1  0
 11 10  2  0
 13 12  1  6
 13 15  1  0
 14 13  1  0
 16 15  1  1
 16 18  1  0
 16 17  1  0
 17 10  1  0
 18 20  1  0
 19 18  2  0
 20 21  1  0
 21 22  1  6
 21 28  1  0
 22 23  1  0
 23 24  2  0
 25 24  1  0
 26 25  1  0
 27 26  2  0
 27 23  1  0
 28 29  2  0
 28 30  1  0
M  END
$$$$
