RLH.pdb
     RDKit          3D

 30 30  0  0  1  0  0  0  0  0999 V2000
   29.1023  -17.3227  -18.7525 N   0  0  0  0  0  0  0  0  0  0  0  0
   27.6856  -17.2562  -18.7431 C   0  0  0  0  0  0  0  0  0  0  0  0
   26.9871  -17.2659  -19.8203 N   0  0  0  0  0  0  0  0  0  0  0  0
   27.0012  -17.1746  -17.4751 N   0  0  0  0  0  0  0  0  0  0  0  0
   27.6848  -17.5206  -16.2813 C   0  0  0  0  0  0  0  0  0  0  0  0
   27.5927  -18.8858  -15.7580 C   0  0  0  0  0  0  0  0  0  0  0  0
   28.1121  -19.2394  -14.4493 C   0  0  0  0  0  0  0  0  0  0  0  0
   28.0604  -20.6623  -14.0360 C   0  0  2  0  0  0  0  0  0  0  0  0
   28.1930  -21.6607  -15.0177 N   0  0  0  0  0  0  0  0  0  0  0  0
   26.8922  -20.9056  -13.1211 C   0  0  0  0  0  0  0  0  0  0  0  0
   26.0365  -21.7270  -13.5288 O   0  0  0  0  0  0  0  0  0  0  0  0
   25.9727  -17.1199  -19.8044 C   0  0  0  0  0  0  0  0  0  0  0  0
   27.0359  -21.7966   -8.6351 C   0  0  2  0  0  0  0  0  0  0  0  0
   26.9080  -20.2873   -8.8569 C   0  0  0  0  0  0  0  0  0  0  0  0
   27.1244  -19.4659   -7.6528 C   0  0  0  0  0  0  0  0  0  0  0  0
   25.7692  -19.9954   -9.7392 C   0  0  2  0  0  0  0  0  0  0  0  0
   25.5896  -20.7231  -11.0100 N   0  0  0  0  0  0  0  0  0  0  0  0
   26.7085  -20.2880  -11.8768 C   0  0  0  0  0  0  0  0  0  0  0  0
   24.3315  -20.3232  -11.6847 O   0  0  0  0  0  0  0  0  0  0  0  0
   24.1586  -19.1829  -12.1870 N   0  0  0  0  0  0  0  0  0  0  0  0
   23.2506  -21.2277  -11.7937 C   0  0  1  0  0  0  0  0  0  0  0  0
   22.0730  -20.8679  -12.5656 C   0  0  0  0  0  0  0  0  0  0  0  0
   21.5750  -22.0049  -13.3859 C   0  0  0  0  0  0  0  0  0  0  0  0
   20.3671  -21.6006  -14.1381 C   0  0  0  0  0  0  0  0  0  0  0  0
   19.7711  -20.3326  -14.0619 N   0  0  0  0  0  0  0  0  0  0  0  0
   18.7063  -20.3091  -14.8627 C   0  0  0  0  0  0  0  0  0  0  0  0
   18.6142  -21.5044  -15.4327 N   0  0  0  0  0  0  0  0  0  0  0  0
   19.6060  -22.2789  -15.0012 C   0  0  0  0  0  0  0  0  0  0  0  0
   21.0178  -20.3605  -11.6801 O   0  0  0  0  0  0  0  0  0  0  0  0
   20.9285  -20.8459  -10.5040 O   0  0  0  0  0  0  0  0  0  0  0  0
  2  1  1  0
  3  2  2  0
  4  2  1  0
  5  4  1  0
  6  5  1  0
  7  6  1  0
  8  7  1  0
  8  9  1  6
 10  8  1  0
 11 10  2  0
 13 12  1  6
 13 15  1  0
 14 13  1  0
 16 15  1  1
 16 18  1  0
 16 17  1  0
 17 10  1  0
 18 20  1  0
 19 18  2  0
 20 21  1  0
 21 22  1  1
 21 28  1  0
 22 23  1  0
 23 24  2  0
 25 24  1  0
 26 25  1  0
 27 26  2  0
 27 23  1  0
 28 29  2  0
 28 30  1  0
M  END
$$$$
