RLH.pdb
     RDKit          3D

 30 30  0  0  1  0  0  0  0  0999 V2000
   23.5232  -23.5758  -16.5361 N   0  0  0  0  0  0  0  0  0  0  0  0
   23.0855  -24.2361  -17.7125 C   0  0  0  0  0  0  0  0  0  0  0  0
   21.9011  -24.7166  -17.8341 N   0  0  0  0  0  0  0  0  0  0  0  0
   24.0052  -24.3742  -18.8161 N   0  0  0  0  0  0  0  0  0  0  0  0
   25.2458  -23.6871  -18.7902 C   0  0  0  0  0  0  0  0  0  0  0  0
   25.3060  -22.2761  -19.1798 C   0  0  0  0  0  0  0  0  0  0  0  0
   26.5492  -21.5271  -19.1495 C   0  0  0  0  0  0  0  0  0  0  0  0
   27.1385  -21.2005  -17.8288 C   0  0  2  0  0  0  0  0  0  0  0  0
   27.7199  -22.2321  -17.0699 N   0  0  0  0  0  0  0  0  0  0  0  0
   26.1930  -20.3544  -17.0220 C   0  0  0  0  0  0  0  0  0  0  0  0
   25.8245  -20.8364  -15.9242 O   0  0  0  0  0  0  0  0  0  0  0  0
   21.5788  -25.1360  -18.7120 C   0  0  0  0  0  0  0  0  0  0  0  0
   26.6335  -16.7442  -14.5614 C   0  0  1  0  0  0  0  0  0  0  0  0
   26.5881  -16.3946  -16.0510 C   0  0  0  0  0  0  0  0  0  0  0  0
   27.0600  -15.0382  -16.3815 C   0  0  0  0  0  0  0  0  0  0  0  0
   25.3471  -16.8985  -16.6563 C   0  0  2  0  0  0  0  0  0  0  0  0
   24.9184  -18.2955  -16.4536 N   0  0  0  0  0  0  0  0  0  0  0  0
   25.7138  -19.0966  -17.4117 C   0  0  0  0  0  0  0  0  0  0  0  0
   23.4907  -18.4764  -16.8104 O   0  0  0  0  0  0  0  0  0  0  0  0
   23.0435  -18.2632  -17.9667 N   0  0  0  0  0  0  0  0  0  0  0  0
   22.5528  -18.9057  -15.8437 C   0  0  2  0  0  0  0  0  0  0  0  0
   21.1415  -18.9850  -16.1812 C   0  0  0  0  0  0  0  0  0  0  0  0
   20.3330  -19.5521  -15.0685 C   0  0  0  0  0  0  0  0  0  0  0  0
   18.9349  -19.7564  -15.5064 C   0  0  0  0  0  0  0  0  0  0  0  0
   18.5297  -20.7122  -16.4506 N   0  0  0  0  0  0  0  0  0  0  0  0
   17.2097  -20.6256  -16.6109 C   0  0  0  0  0  0  0  0  0  0  0  0
   16.7769  -19.6601  -15.8094 N   0  0  0  0  0  0  0  0  0  0  0  0
   17.8063  -19.1384  -15.1477 C   0  0  0  0  0  0  0  0  0  0  0  0
   20.6358  -17.6642  -16.5746 O   0  0  0  0  0  0  0  0  0  0  0  0
   21.0826  -16.6377  -15.9633 O   0  0  0  0  0  0  0  0  0  0  0  0
  2  1  1  0
  3  2  2  0
  4  2  1  0
  5  4  1  0
  6  5  1  0
  7  6  1  0
  8  7  1  0
  8  9  1  1
 10  8  1  0
 11 10  2  0
 13 12  1  6
 13 15  1  0
 14 13  1  0
 16 15  1  1
 16 18  1  0
 16 17  1  0
 17 10  1  0
 18 20  1  0
 19 18  2  0
 20 21  1  0
 21 22  1  1
 21 28  1  0
 22 23  1  0
 23 24  2  0
 25 24  1  0
 26 25  1  0
 27 26  2  0
 27 23  1  0
 28 29  2  0
 28 30  1  0
M  END
$$$$
