RLH.pdb
     RDKit          3D

 30 30  0  0  1  0  0  0  0  0999 V2000
   26.5049  -18.3926  -20.3568 N   0  0  0  0  0  0  0  0  0  0  0  0
   27.6083  -18.0034  -19.5553 C   0  0  0  0  0  0  0  0  0  0  0  0
   28.2175  -16.8847  -19.7160 N   0  0  0  0  0  0  0  0  0  0  0  0
   28.0652  -18.8977  -18.5187 N   0  0  0  0  0  0  0  0  0  0  0  0
   27.4910  -20.1891  -18.3980 C   0  0  0  0  0  0  0  0  0  0  0  0
   27.9834  -21.1129  -17.3733 C   0  0  0  0  0  0  0  0  0  0  0  0
   27.1617  -21.5114  -16.2448 C   0  0  0  0  0  0  0  0  0  0  0  0
   26.2732  -20.4952  -15.6315 C   0  0  2  0  0  0  0  0  0  0  0  0
   26.8492  -19.3557  -15.0416 N   0  0  0  0  0  0  0  0  0  0  0  0
   25.2536  -21.1513  -14.7422 C   0  0  0  0  0  0  0  0  0  0  0  0
   24.8008  -22.2502  -15.1428 O   0  0  0  0  0  0  0  0  0  0  0  0
   29.0268  -16.6262  -19.1426 C   0  0  0  0  0  0  0  0  0  0  0  0
   26.4812  -21.8235  -11.5733 C   0  0  2  0  0  0  0  0  0  0  0  0
   25.4657  -20.8531  -10.9646 C   0  0  0  0  0  0  0  0  0  0  0  0
   25.7379  -20.4707   -9.5677 C   0  0  0  0  0  0  0  0  0  0  0  0
   24.1007  -21.2266  -11.3617 C   0  0  2  0  0  0  0  0  0  0  0  0
   23.7295  -21.3369  -12.7853 N   0  0  0  0  0  0  0  0  0  0  0  0
   24.7935  -20.6239  -13.5282 C   0  0  0  0  0  0  0  0  0  0  0  0
   22.4541  -20.6341  -13.0638 O   0  0  0  0  0  0  0  0  0  0  0  0
   21.9360  -19.8157  -12.2612 N   0  0  0  0  0  0  0  0  0  0  0  0
   21.7527  -20.8602  -14.2702 C   0  0  2  0  0  0  0  0  0  0  0  0
   20.5344  -21.6526  -14.2684 C   0  0  0  0  0  0  0  0  0  0  0  0
   20.7955  -23.0761  -13.9232 C   0  0  0  0  0  0  0  0  0  0  0  0
   19.5731  -23.8833  -14.1289 C   0  0  0  0  0  0  0  0  0  0  0  0
   18.3340  -23.3607  -14.5295 N   0  0  0  0  0  0  0  0  0  0  0  0
   17.4546  -24.3580  -14.6167 C   0  0  0  0  0  0  0  0  0  0  0  0
   18.0911  -25.4758  -14.2888 N   0  0  0  0  0  0  0  0  0  0  0  0
   19.3582  -25.1950  -13.9965 C   0  0  0  0  0  0  0  0  0  0  0  0
   19.5456  -21.0661  -13.3555 O   0  0  0  0  0  0  0  0  0  0  0  0
   18.5713  -20.4128  -13.8563 O   0  0  0  0  0  0  0  0  0  0  0  0
  2  1  1  0
  3  2  2  0
  4  2  1  0
  5  4  1  0
  6  5  1  0
  7  6  1  0
  8  7  1  0
  8  9  1  1
 10  8  1  0
 11 10  2  0
 13 12  1  6
 13 15  1  0
 14 13  1  0
 16 15  1  6
 16 18  1  0
 16 17  1  0
 17 10  1  0
 18 20  1  0
 19 18  2  0
 20 21  1  0
 21 22  1  1
 21 28  1  0
 22 23  1  0
 23 24  2  0
 25 24  1  0
 26 25  1  0
 27 26  2  0
 27 23  1  0
 28 29  2  0
 28 30  1  0
M  END
$$$$
