RLH.pdb
     RDKit          3D

 30 30  0  0  1  0  0  0  0  0999 V2000
   26.0547  -19.8971  -19.3381 N   0  0  0  0  0  0  0  0  0  0  0  0
   27.3739  -20.3841  -19.5228 C   0  0  0  0  0  0  0  0  0  0  0  0
   27.9702  -20.3475  -20.6591 N   0  0  0  0  0  0  0  0  0  0  0  0
   28.0743  -20.9424  -18.3911 N   0  0  0  0  0  0  0  0  0  0  0  0
   27.4063  -21.0830  -17.1477 C   0  0  0  0  0  0  0  0  0  0  0  0
   27.3456  -19.9502  -16.2207 C   0  0  0  0  0  0  0  0  0  0  0  0
   26.6121  -20.0245  -14.9701 C   0  0  0  0  0  0  0  0  0  0  0  0
   26.7144  -21.2688  -14.1705 C   0  0  2  0  0  0  0  0  0  0  0  0
   26.8142  -22.5013  -14.8407 N   0  0  0  0  0  0  0  0  0  0  0  0
   25.6754  -21.2864  -13.0837 C   0  0  0  0  0  0  0  0  0  0  0  0
   24.8621  -22.2407  -13.1164 O   0  0  0  0  0  0  0  0  0  0  0  0
   28.9351  -20.6752  -20.7706 C   0  0  0  0  0  0  0  0  0  0  0  0
   26.0446  -21.9173   -8.6667 C   0  0  2  0  0  0  0  0  0  0  0  0
   26.3562  -20.4597   -9.0157 C   0  0  0  0  0  0  0  0  0  0  0  0
   26.9841  -19.6857   -7.9302 C   0  0  0  0  0  0  0  0  0  0  0  0
   25.2484  -19.8696   -9.7806 C   0  0  2  0  0  0  0  0  0  0  0  0
   24.6548  -20.5836  -10.9271 N   0  0  0  0  0  0  0  0  0  0  0  0
   25.5654  -20.3290  -12.0665 C   0  0  0  0  0  0  0  0  0  0  0  0
   23.3331  -20.0163  -11.2872 O   0  0  0  0  0  0  0  0  0  0  0  0
   22.2657  -20.3545  -10.7137 N   0  0  0  0  0  0  0  0  0  0  0  0
   23.2162  -19.0504  -12.3127 C   0  0  2  0  0  0  0  0  0  0  0  0
   22.3064  -19.2726  -13.4240 C   0  0  0  0  0  0  0  0  0  0  0  0
   22.7650  -20.3783  -14.3077 C   0  0  0  0  0  0  0  0  0  0  0  0
   21.8096  -20.5716  -15.4204 C   0  0  0  0  0  0  0  0  0  0  0  0
   20.6328  -19.8277  -15.5955 N   0  0  0  0  0  0  0  0  0  0  0  0
   20.0100  -20.2598  -16.6913 C   0  0  0  0  0  0  0  0  0  0  0  0
   20.7463  -21.2377  -17.2047 N   0  0  0  0  0  0  0  0  0  0  0  0
   21.8232  -21.4264  -16.4467 C   0  0  0  0  0  0  0  0  0  0  0  0
   20.9484  -19.5283  -12.9285 O   0  0  0  0  0  0  0  0  0  0  0  0
   20.1386  -18.5463  -12.8463 O   0  0  0  0  0  0  0  0  0  0  0  0
  2  1  1  0
  3  2  2  0
  4  2  1  0
  5  4  1  0
  6  5  1  0
  7  6  1  0
  8  7  1  0
  8  9  1  6
 10  8  1  0
 11 10  2  0
 13 12  1  6
 13 15  1  0
 14 13  1  0
 16 15  1  1
 16 18  1  0
 16 17  1  0
 17 10  1  0
 18 20  1  0
 19 18  2  0
 20 21  1  0
 21 22  1  1
 21 28  1  0
 22 23  1  0
 23 24  2  0
 25 24  1  0
 26 25  1  0
 27 26  2  0
 27 23  1  0
 28 29  2  0
 28 30  1  0
M  END
$$$$
