RLH.pdb
     RDKit          3D

 30 30  0  0  1  0  0  0  0  0999 V2000
   23.9156  -16.8792  -15.3463 N   0  0  0  0  0  0  0  0  0  0  0  0
   23.0620  -18.0036  -15.4831 C   0  0  0  0  0  0  0  0  0  0  0  0
   21.8476  -18.0029  -15.0664 N   0  0  0  0  0  0  0  0  0  0  0  0
   23.5764  -19.1950  -16.1146 N   0  0  0  0  0  0  0  0  0  0  0  0
   24.9447  -19.2636  -16.4821 C   0  0  0  0  0  0  0  0  0  0  0  0
   25.8942  -19.9801  -15.6269 C   0  0  0  0  0  0  0  0  0  0  0  0
   26.9878  -19.2975  -14.9596 C   0  0  0  0  0  0  0  0  0  0  0  0
   28.0029  -20.1193  -14.2579 C   0  0  2  0  0  0  0  0  0  0  0  0
   28.7093  -21.0942  -14.9851 N   0  0  0  0  0  0  0  0  0  0  0  0
   27.4503  -20.6529  -12.9653 C   0  0  0  0  0  0  0  0  0  0  0  0
   26.9629  -21.8077  -13.0110 O   0  0  0  0  0  0  0  0  0  0  0  0
   21.2135  -18.7853  -15.2570 C   0  0  0  0  0  0  0  0  0  0  0  0
   27.1932  -19.1118   -7.1478 C   0  0  2  0  0  0  0  0  0  0  0  0
   27.3883  -20.3592   -8.0134 C   0  0  0  0  0  0  0  0  0  0  0  0
   28.1798  -21.4305   -7.3830 C   0  0  0  0  0  0  0  0  0  0  0  0
   27.6640  -19.9768   -9.4056 C   0  0  2  0  0  0  0  0  0  0  0  0
   26.9684  -20.6397  -10.5251 N   0  0  0  0  0  0  0  0  0  0  0  0
   27.4482  -19.9577  -11.7487 C   0  0  0  0  0  0  0  0  0  0  0  0
   25.5034  -20.4251  -10.4497 O   0  0  0  0  0  0  0  0  0  0  0  0
   24.9898  -19.3814   -9.9708 N   0  0  0  0  0  0  0  0  0  0  0  0
   24.6036  -21.4070  -10.9240 C   0  0  1  0  0  0  0  0  0  0  0  0
   23.4174  -21.0126  -11.6651 C   0  0  0  0  0  0  0  0  0  0  0  0
   23.7563  -20.2332  -12.8863 C   0  0  0  0  0  0  0  0  0  0  0  0
   22.5234  -19.7191  -13.5219 C   0  0  0  0  0  0  0  0  0  0  0  0
   21.2820  -19.6123  -12.8764 N   0  0  0  0  0  0  0  0  0  0  0  0
   20.3924  -19.1148  -13.7348 C   0  0  0  0  0  0  0  0  0  0  0  0
   21.0247  -18.9079  -14.8834 N   0  0  0  0  0  0  0  0  0  0  0  0
   22.2993  -19.2684  -14.7591 C   0  0  0  0  0  0  0  0  0  0  0  0
   22.6120  -22.1921  -12.0044 O   0  0  0  0  0  0  0  0  0  0  0  0
   23.2155  -23.2466  -12.3926 O   0  0  0  0  0  0  0  0  0  0  0  0
  2  1  1  0
  3  2  2  0
  4  2  1  0
  5  4  1  0
  6  5  1  0
  7  6  1  0
  8  7  1  0
  8  9  1  6
 10  8  1  0
 11 10  2  0
 13 12  1  1
 13 15  1  0
 14 13  1  0
 16 15  1  6
 16 18  1  0
 16 17  1  0
 17 10  1  0
 18 20  1  0
 19 18  2  0
 20 21  1  0
 21 22  1  1
 21 28  1  0
 22 23  1  0
 23 24  2  0
 25 24  1  0
 26 25  1  0
 27 26  2  0
 27 23  1  0
 28 29  2  0
 28 30  1  0
M  END
$$$$
