HKN.pdb
     RDKit          3D

 28 28  0  0  1  0  0  0  0  0999 V2000
   11.0058  -15.9317   15.7109 N   0  0  0  0  0  0  0  0  0  0  0  0
   11.6807  -17.0864   16.3004 C   0  0  1  0  0  0  0  0  0  0  0  0
   13.1701  -17.0005   15.9830 C   0  0  0  0  0  0  0  0  0  0  0  0
   13.4089  -17.1626   14.5270 C   0  0  0  0  0  0  0  0  0  0  0  0
   12.9919  -18.2300   13.7612 C   0  0  0  0  0  0  0  0  0  0  0  0
   13.3959  -18.0117   12.5054 N   0  0  0  0  0  0  0  0  0  0  0  0
   14.0445  -16.8362   12.5097 C   0  0  0  0  0  0  0  0  0  0  0  0
   14.0574  -16.3083   13.7451 N   0  0  0  0  0  0  0  0  0  0  0  0
   11.4671  -17.0087   17.7668 C   0  0  0  0  0  0  0  0  0  0  0  0
   11.6502  -15.9065   18.3435 O   0  0  0  0  0  0  0  0  0  0  0  0
   11.0663  -18.1287   18.5328 N   0  0  0  0  0  0  0  0  0  0  0  0
   10.8507  -17.9841   19.9921 C   0  0  1  0  0  0  0  0  0  0  0  0
    9.9532  -19.0829   20.4643 C   0  0  0  0  0  0  0  0  0  0  0  0
    8.5896  -18.9810   19.8773 C   0  0  0  0  0  0  0  0  0  0  0  0
    7.7344  -20.2011   20.1798 C   0  0  0  0  0  0  0  0  0  0  0  0
    6.3661  -20.0923   19.5435 C   0  0  0  0  0  0  0  0  0  0  0  0
    5.5520  -21.2486   19.8403 N   0  0  0  0  0  0  0  0  0  0  0  0
   12.1425  -17.8349   20.6295 C   0  0  0  0  0  0  0  0  0  0  0  0
   13.1345  -18.4399   20.0794 O   0  0  0  0  0  0  0  0  0  0  0  0
   16.9894  -16.0034   21.7834 N   0  0  0  0  0  0  0  0  0  0  0  0
   15.8132  -15.6670   22.5220 C   0  0  0  0  0  0  0  0  0  0  0  0
   15.9673  -15.3133   23.7222 O   0  0  0  0  0  0  0  0  0  0  0  0
   14.4610  -15.7231   21.9275 C   0  0  0  0  0  0  0  0  0  0  0  0
   13.8156  -17.0305   22.2951 C   0  0  2  0  0  0  0  0  0  0  0  0
   12.4462  -17.1012   21.7811 N   0  0  0  0  0  0  0  0  0  0  0  0
   13.8542  -17.3466   23.7331 C   0  0  0  0  0  0  0  0  0  0  0  0
   14.9074  -17.9718   24.3688 O   0  0  0  0  0  0  0  0  0  0  0  0
   12.8610  -17.0354   24.4699 O   0  0  0  0  0  0  0  0  0  0  0  0
  2  1  1  6
  2  3  1  0
  4  3  1  0
  5  4  2  0
  6  5  1  0
  7  6  1  0
  7  8  2  0
  8  4  1  0
  9  2  1  0
 10  9  2  0
 11  9  1  0
 12 11  1  0
 12 13  1  1
 13 14  1  0
 14 15  1  0
 16 15  1  0
 17 16  1  0
 18 12  1  0
 19 18  2  0
 20 21  1  0
 21 22  2  0
 21 23  1  0
 24 23  1  1
 24 25  1  0
 25 18  1  0
 26 24  1  0
 27 26  1  0
 28 26  2  0
M  END
$$$$
