HKN.pdb
     RDKit          3D

 28 28  0  0  1  0  0  0  0  0999 V2000
   11.6719  -15.1507   15.2494 N   0  0  0  0  0  0  0  0  0  0  0  0
   12.5045  -16.1873   15.8568 C   0  0  1  0  0  0  0  0  0  0  0  0
   13.9699  -15.8633   15.5843 C   0  0  0  0  0  0  0  0  0  0  0  0
   14.3330  -16.2008   14.1852 C   0  0  0  0  0  0  0  0  0  0  0  0
   13.4492  -16.3136   13.1337 C   0  0  0  0  0  0  0  0  0  0  0  0
   14.1543  -16.6284   12.0420 N   0  0  0  0  0  0  0  0  0  0  0  0
   15.4392  -16.7048   12.4239 C   0  0  0  0  0  0  0  0  0  0  0  0
   15.5582  -16.4441   13.7366 N   0  0  0  0  0  0  0  0  0  0  0  0
   12.2384  -16.1542   17.3162 C   0  0  0  0  0  0  0  0  0  0  0  0
   12.0207  -15.0431   17.8627 O   0  0  0  0  0  0  0  0  0  0  0  0
   12.2220  -17.3265   18.1084 N   0  0  0  0  0  0  0  0  0  0  0  0
   11.8753  -17.2388   19.5467 C   0  0  1  0  0  0  0  0  0  0  0  0
   10.9482  -18.3591   19.8948 C   0  0  0  0  0  0  0  0  0  0  0  0
   10.5916  -18.3601   21.3395 C   0  0  0  0  0  0  0  0  0  0  0  0
    9.7707  -19.5774   21.7344 C   0  0  0  0  0  0  0  0  0  0  0  0
    9.3758  -19.5318   23.1941 C   0  0  0  0  0  0  0  0  0  0  0  0
    8.4269  -20.5724   23.5174 N   0  0  0  0  0  0  0  0  0  0  0  0
   13.1036  -17.1078   20.3028 C   0  0  0  0  0  0  0  0  0  0  0  0
   14.1178  -17.7771   19.8829 O   0  0  0  0  0  0  0  0  0  0  0  0
   16.7387  -16.0346   20.1116 N   0  0  0  0  0  0  0  0  0  0  0  0
   15.9316  -14.9868   20.6525 C   0  0  0  0  0  0  0  0  0  0  0  0
   15.7368  -13.9752   19.9258 O   0  0  0  0  0  0  0  0  0  0  0  0
   15.3382  -15.0609   22.0043 C   0  0  0  0  0  0  0  0  0  0  0  0
   14.6070  -16.3668   22.1498 C   0  0  2  0  0  0  0  0  0  0  0  0
   13.3242  -16.3300   21.4443 N   0  0  0  0  0  0  0  0  0  0  0  0
   14.4286  -16.8141   23.5416 C   0  0  0  0  0  0  0  0  0  0  0  0
   14.5195  -18.1261   23.9595 O   0  0  0  0  0  0  0  0  0  0  0  0
   14.1701  -15.9548   24.4477 O   0  0  0  0  0  0  0  0  0  0  0  0
  2  1  1  6
  2  3  1  0
  4  3  1  0
  5  4  2  0
  6  5  1  0
  7  6  1  0
  7  8  2  0
  8  4  1  0
  9  2  1  0
 10  9  2  0
 11  9  1  0
 12 11  1  0
 12 13  1  1
 13 14  1  0
 14 15  1  0
 16 15  1  0
 17 16  1  0
 18 12  1  0
 19 18  2  0
 20 21  1  0
 21 22  2  0
 21 23  1  0
 24 23  1  1
 24 25  1  0
 25 18  1  0
 26 24  1  0
 27 26  1  0
 28 26  2  0
M  END
$$$$
