HKN.pdb
     RDKit          3D

 28 28  0  0  1  0  0  0  0  0999 V2000
    7.8844  -16.7397   16.9357 N   0  0  0  0  0  0  0  0  0  0  0  0
    8.3710  -15.6051   17.7182 C   0  0  1  0  0  0  0  0  0  0  0  0
    7.4442  -14.4156   17.4886 C   0  0  0  0  0  0  0  0  0  0  0  0
    7.3628  -14.0820   16.0445 C   0  0  0  0  0  0  0  0  0  0  0  0
    8.0333  -14.7351   15.0329 C   0  0  0  0  0  0  0  0  0  0  0  0
    7.7031  -14.1451   13.8792 N   0  0  0  0  0  0  0  0  0  0  0  0
    6.8500  -13.1545   14.1853 C   0  0  0  0  0  0  0  0  0  0  0  0
    6.6355  -13.1084   15.5108 N   0  0  0  0  0  0  0  0  0  0  0  0
    8.3300  -16.0149   19.1438 C   0  0  0  0  0  0  0  0  0  0  0  0
    7.5434  -15.4147   19.9196 O   0  0  0  0  0  0  0  0  0  0  0  0
    9.1432  -17.0536   19.6555 N   0  0  0  0  0  0  0  0  0  0  0  0
    9.0422  -17.4318   21.0850 C   0  0  1  0  0  0  0  0  0  0  0  0
    8.9385  -18.9198   21.1903 C   0  0  0  0  0  0  0  0  0  0  0  0
    8.3735  -19.5287   19.9557 C   0  0  0  0  0  0  0  0  0  0  0  0
    8.4337  -21.0477   19.9772 C   0  0  0  0  0  0  0  0  0  0  0  0
    7.9799  -21.6406   18.6614 C   0  0  0  0  0  0  0  0  0  0  0  0
    8.0956  -23.0809   18.6631 N   0  0  0  0  0  0  0  0  0  0  0  0
   10.1079  -16.7680   21.8068 C   0  0  0  0  0  0  0  0  0  0  0  0
    9.9374  -15.5230   22.0782 O   0  0  0  0  0  0  0  0  0  0  0  0
   10.2886  -17.6366   25.5175 N   0  0  0  0  0  0  0  0  0  0  0  0
   11.5278  -16.9738   25.2587 C   0  0  0  0  0  0  0  0  0  0  0  0
   12.5224  -17.3191   25.9521 O   0  0  0  0  0  0  0  0  0  0  0  0
   11.6646  -15.9241   24.2270 C   0  0  0  0  0  0  0  0  0  0  0  0
   12.2867  -16.5224   22.9957 C   0  0  2  0  0  0  0  0  0  0  0  0
   11.3116  -17.3238   22.2531 N   0  0  0  0  0  0  0  0  0  0  0  0
   13.5172  -17.2918   23.2464 C   0  0  0  0  0  0  0  0  0  0  0  0
   13.6685  -18.6361   22.9744 O   0  0  0  0  0  0  0  0  0  0  0  0
   14.5313  -16.7052   23.7501 O   0  0  0  0  0  0  0  0  0  0  0  0
  2  1  1  6
  2  3  1  0
  4  3  1  0
  5  4  2  0
  6  5  1  0
  7  6  1  0
  7  8  2  0
  8  4  1  0
  9  2  1  0
 10  9  2  0
 11  9  1  0
 12 11  1  0
 12 13  1  6
 13 14  1  0
 14 15  1  0
 16 15  1  0
 17 16  1  0
 18 12  1  0
 19 18  2  0
 20 21  1  0
 21 22  2  0
 21 23  1  0
 24 23  1  1
 24 25  1  0
 25 18  1  0
 26 24  1  0
 27 26  1  0
 28 26  2  0
M  END
$$$$
