HKN.pdb
     RDKit          3D

 28 28  0  0  1  0  0  0  0  0999 V2000
   10.6879  -16.7597   15.0152 N   0  0  0  0  0  0  0  0  0  0  0  0
   11.1930  -18.1282   15.1074 C   0  0  1  0  0  0  0  0  0  0  0  0
   12.6044  -18.1714   14.5308 C   0  0  0  0  0  0  0  0  0  0  0  0
   12.5726  -18.0638   13.0507 C   0  0  0  0  0  0  0  0  0  0  0  0
   12.4356  -16.8935   12.3358 C   0  0  0  0  0  0  0  0  0  0  0  0
   12.4519  -17.2069   11.0359 N   0  0  0  0  0  0  0  0  0  0  0  0
   12.5959  -18.5399   10.9644 C   0  0  0  0  0  0  0  0  0  0  0  0
   12.6708  -19.0737   12.1951 N   0  0  0  0  0  0  0  0  0  0  0  0
   11.2204  -18.4817   16.5483 C   0  0  0  0  0  0  0  0  0  0  0  0
   11.9094  -17.7755   17.3277 O   0  0  0  0  0  0  0  0  0  0  0  0
   10.5002  -19.5819   17.0707 N   0  0  0  0  0  0  0  0  0  0  0  0
   10.5366  -19.8623   18.5256 C   0  0  1  0  0  0  0  0  0  0  0  0
    9.2453  -20.4966   18.9331 C   0  0  0  0  0  0  0  0  0  0  0  0
    9.2466  -20.8938   20.3671 C   0  0  0  0  0  0  0  0  0  0  0  0
    8.0055  -21.6829   20.7525 C   0  0  0  0  0  0  0  0  0  0  0  0
    8.0311  -22.0815   22.2116 C   0  0  0  0  0  0  0  0  0  0  0  0
    6.9417  -22.9742   22.5347 N   0  0  0  0  0  0  0  0  0  0  0  0
   11.7673  -20.5658   18.8219 C   0  0  0  0  0  0  0  0  0  0  0  0
   12.4288  -21.0255   17.8200 O   0  0  0  0  0  0  0  0  0  0  0  0
   16.6664  -19.6129   19.2327 N   0  0  0  0  0  0  0  0  0  0  0  0
   15.6458  -19.0828   20.0808 C   0  0  0  0  0  0  0  0  0  0  0  0
   16.0185  -18.4454   21.1026 O   0  0  0  0  0  0  0  0  0  0  0  0
   14.2064  -19.2602   19.7949 C   0  0  0  0  0  0  0  0  0  0  0  0
   13.7617  -20.5975   20.3192 C   0  0  2  0  0  0  0  0  0  0  0  0
   12.3321  -20.8050   20.0791 N   0  0  0  0  0  0  0  0  0  0  0  0
   14.0980  -20.8411   21.7323 C   0  0  0  0  0  0  0  0  0  0  0  0
   13.1709  -20.9714   22.7459 O   0  0  0  0  0  0  0  0  0  0  0  0
   15.3217  -20.9426   22.0766 O   0  0  0  0  0  0  0  0  0  0  0  0
  2  1  1  1
  2  3  1  0
  4  3  1  0
  5  4  2  0
  6  5  1  0
  7  6  1  0
  7  8  2  0
  8  4  1  0
  9  2  1  0
 10  9  2  0
 11  9  1  0
 12 11  1  0
 12 13  1  6
 13 14  1  0
 14 15  1  0
 16 15  1  0
 17 16  1  0
 18 12  1  0
 19 18  2  0
 20 21  1  0
 21 22  2  0
 21 23  1  0
 24 23  1  1
 24 25  1  0
 25 18  1  0
 26 24  1  0
 27 26  1  0
 28 26  2  0
M  END
$$$$
