HKN.pdb
     RDKit          3D

 28 28  0  0  1  0  0  0  0  0999 V2000
    8.0064  -14.8955   16.2466 N   0  0  0  0  0  0  0  0  0  0  0  0
    8.8174  -16.0593   16.5988 C   0  0  1  0  0  0  0  0  0  0  0  0
   10.1492  -15.9723   15.8604 C   0  0  0  0  0  0  0  0  0  0  0  0
    9.9691  -16.2522   14.4138 C   0  0  0  0  0  0  0  0  0  0  0  0
    8.9503  -17.0000   13.8638 C   0  0  0  0  0  0  0  0  0  0  0  0
    9.1320  -17.0225   12.5392 N   0  0  0  0  0  0  0  0  0  0  0  0
   10.2382  -16.3032   12.2914 C   0  0  0  0  0  0  0  0  0  0  0  0
   10.7582  -15.8269   13.4350 N   0  0  0  0  0  0  0  0  0  0  0  0
    9.0428  -16.0006   18.0643 C   0  0  0  0  0  0  0  0  0  0  0  0
    9.4080  -14.9104   18.5732 O   0  0  0  0  0  0  0  0  0  0  0  0
    8.8611  -17.1257   18.9028 N   0  0  0  0  0  0  0  0  0  0  0  0
    9.0593  -16.9937   20.3657 C   0  0  1  0  0  0  0  0  0  0  0  0
    8.3518  -18.1148   21.0574 C   0  0  0  0  0  0  0  0  0  0  0  0
    6.8809  -18.0664   20.8379 C   0  0  0  0  0  0  0  0  0  0  0  0
    6.1481  -19.1833   21.5641 C   0  0  0  0  0  0  0  0  0  0  0  0
    4.6475  -19.0348   21.4419 C   0  0  0  0  0  0  0  0  0  0  0  0
    3.9528  -20.0578   22.1895 N   0  0  0  0  0  0  0  0  0  0  0  0
   10.4746  -16.8192   20.6184 C   0  0  0  0  0  0  0  0  0  0  0  0
   11.2750  -17.6287   20.0212 O   0  0  0  0  0  0  0  0  0  0  0  0
   15.1037  -14.2555   19.6648 N   0  0  0  0  0  0  0  0  0  0  0  0
   13.8212  -14.8020   19.9788 C   0  0  0  0  0  0  0  0  0  0  0  0
   13.2380  -15.4604   19.0756 O   0  0  0  0  0  0  0  0  0  0  0  0
   13.1831  -14.6178   21.2993 C   0  0  0  0  0  0  0  0  0  0  0  0
   12.5220  -15.9044   21.7102 C   0  0  2  0  0  0  0  0  0  0  0  0
   11.0835  -15.8638   21.4389 N   0  0  0  0  0  0  0  0  0  0  0  0
   12.7831  -16.3066   23.1027 C   0  0  0  0  0  0  0  0  0  0  0  0
   11.8033  -16.5528   24.0428 O   0  0  0  0  0  0  0  0  0  0  0  0
   13.9870  -16.4447   23.4998 O   0  0  0  0  0  0  0  0  0  0  0  0
  2  1  1  6
  2  3  1  0
  4  3  1  0
  5  4  2  0
  6  5  1  0
  7  6  1  0
  7  8  2  0
  8  4  1  0
  9  2  1  0
 10  9  2  0
 11  9  1  0
 12 11  1  0
 12 13  1  1
 13 14  1  0
 14 15  1  0
 16 15  1  0
 17 16  1  0
 18 12  1  0
 19 18  2  0
 20 21  1  0
 21 22  2  0
 21 23  1  0
 24 23  1  1
 24 25  1  0
 25 18  1  0
 26 24  1  0
 27 26  1  0
 28 26  2  0
M  END
$$$$
