HKN.pdb
     RDKit          3D

 28 28  0  0  1  0  0  0  0  0999 V2000
    9.7928  -15.6790   18.5246 N   0  0  0  0  0  0  0  0  0  0  0  0
    8.6928  -16.1545   19.3614 C   0  0  1  0  0  0  0  0  0  0  0  0
    8.6133  -17.6738   19.2527 C   0  0  0  0  0  0  0  0  0  0  0  0
    8.0631  -18.0799   17.9352 C   0  0  0  0  0  0  0  0  0  0  0  0
    8.7978  -18.2684   16.7845 C   0  0  0  0  0  0  0  0  0  0  0  0
    7.9498  -18.6277   15.8150 N   0  0  0  0  0  0  0  0  0  0  0  0
    6.7262  -18.6564   16.3668 C   0  0  0  0  0  0  0  0  0  0  0  0
    6.7861  -18.3218   17.6667 N   0  0  0  0  0  0  0  0  0  0  0  0
    9.0099  -15.7596   20.7562 C   0  0  0  0  0  0  0  0  0  0  0  0
   10.1645  -15.9886   21.1982 O   0  0  0  0  0  0  0  0  0  0  0  0
    8.0601  -15.1371   21.6002 N   0  0  0  0  0  0  0  0  0  0  0  0
    8.4514  -14.7194   22.9674 C   0  0  1  0  0  0  0  0  0  0  0  0
    7.3564  -13.8889   23.5565 C   0  0  0  0  0  0  0  0  0  0  0  0
    7.6476  -13.4970   24.9621 C   0  0  0  0  0  0  0  0  0  0  0  0
    6.5918  -12.5658   25.5362 C   0  0  0  0  0  0  0  0  0  0  0  0
    6.9427  -12.1262   26.9406 C   0  0  0  0  0  0  0  0  0  0  0  0
    5.9781  -11.1813   27.4550 N   0  0  0  0  0  0  0  0  0  0  0  0
    8.8851  -15.8943   23.6945 C   0  0  0  0  0  0  0  0  0  0  0  0
    8.3516  -17.0147   23.3585 O   0  0  0  0  0  0  0  0  0  0  0  0
   12.3429  -19.7553   23.7818 N   0  0  0  0  0  0  0  0  0  0  0  0
   12.5475  -18.5004   24.4339 C   0  0  0  0  0  0  0  0  0  0  0  0
   13.4254  -18.4564   25.3376 O   0  0  0  0  0  0  0  0  0  0  0  0
   11.7757  -17.2896   24.0826 C   0  0  0  0  0  0  0  0  0  0  0  0
   10.5798  -17.1884   24.9885 C   0  0  2  0  0  0  0  0  0  0  0  0
    9.8271  -15.9598   24.7266 N   0  0  0  0  0  0  0  0  0  0  0  0
   10.8881  -17.3202   26.4226 C   0  0  0  0  0  0  0  0  0  0  0  0
   10.8670  -16.2777   27.3264 O   0  0  0  0  0  0  0  0  0  0  0  0
   11.2010  -18.4631   26.8938 O   0  0  0  0  0  0  0  0  0  0  0  0
  2  1  1  6
  2  3  1  0
  4  3  1  0
  5  4  2  0
  6  5  1  0
  7  6  1  0
  7  8  2  0
  8  4  1  0
  9  2  1  0
 10  9  2  0
 11  9  1  0
 12 11  1  0
 12 13  1  1
 13 14  1  0
 14 15  1  0
 16 15  1  0
 17 16  1  0
 18 12  1  0
 19 18  2  0
 20 21  1  0
 21 22  2  0
 21 23  1  0
 24 23  1  6
 24 25  1  0
 25 18  1  0
 26 24  1  0
 27 26  1  0
 28 26  2  0
M  END
$$$$
