HKN.pdb
     RDKit          3D

 28 28  0  0  1  0  0  0  0  0999 V2000
    8.2678  -17.2099   19.8674 N   0  0  0  0  0  0  0  0  0  0  0  0
    9.6577  -16.7738   19.9872 C   0  0  1  0  0  0  0  0  0  0  0  0
   10.0005  -15.8898   18.7923 C   0  0  0  0  0  0  0  0  0  0  0  0
    9.7245  -16.5972   17.5169 C   0  0  0  0  0  0  0  0  0  0  0  0
    9.2205  -17.8749   17.4029 C   0  0  0  0  0  0  0  0  0  0  0  0
    9.1133  -18.1549   16.0998 N   0  0  0  0  0  0  0  0  0  0  0  0
    9.5435  -17.0692   15.4374 C   0  0  0  0  0  0  0  0  0  0  0  0
    9.9203  -16.1090   16.2984 N   0  0  0  0  0  0  0  0  0  0  0  0
    9.7577  -15.9920   21.2444 C   0  0  0  0  0  0  0  0  0  0  0  0
   10.8171  -15.3548   21.4736 O   0  0  0  0  0  0  0  0  0  0  0  0
    8.7051  -15.9407   22.1886 N   0  0  0  0  0  0  0  0  0  0  0  0
    8.9205  -15.2779   23.4966 C   0  0  1  0  0  0  0  0  0  0  0  0
    7.7440  -14.4073   23.8025 C   0  0  0  0  0  0  0  0  0  0  0  0
    7.8724  -13.7401   25.1264 C   0  0  0  0  0  0  0  0  0  0  0  0
    6.7243  -12.7844   25.4091 C   0  0  0  0  0  0  0  0  0  0  0  0
    6.8807  -12.1103   26.7544 C   0  0  0  0  0  0  0  0  0  0  0  0
    5.7450  -11.2707   27.0599 N   0  0  0  0  0  0  0  0  0  0  0  0
    9.2913  -16.2906   24.4633 C   0  0  0  0  0  0  0  0  0  0  0  0
    8.4617  -17.2568   24.6389 O   0  0  0  0  0  0  0  0  0  0  0  0
   13.2279  -18.0665   23.6311 N   0  0  0  0  0  0  0  0  0  0  0  0
   12.2236  -18.5289   24.5363 C   0  0  0  0  0  0  0  0  0  0  0  0
   11.4229  -19.4048   24.1109 O   0  0  0  0  0  0  0  0  0  0  0  0
   12.1068  -18.0183   25.9186 C   0  0  0  0  0  0  0  0  0  0  0  0
   10.7192  -17.4782   26.1280 C   0  0  2  0  0  0  0  0  0  0  0  0
   10.4569  -16.3480   25.2345 N   0  0  0  0  0  0  0  0  0  0  0  0
   10.4051  -17.1286   27.5238 C   0  0  0  0  0  0  0  0  0  0  0  0
   10.1670  -18.0470   28.5258 O   0  0  0  0  0  0  0  0  0  0  0  0
   10.3398  -15.9010   27.8628 O   0  0  0  0  0  0  0  0  0  0  0  0
  2  1  1  6
  2  3  1  0
  4  3  1  0
  5  4  2  0
  6  5  1  0
  7  6  1  0
  7  8  2  0
  8  4  1  0
  9  2  1  0
 10  9  2  0
 11  9  1  0
 12 11  1  0
 12 13  1  1
 13 14  1  0
 14 15  1  0
 16 15  1  0
 17 16  1  0
 18 12  1  0
 19 18  2  0
 20 21  1  0
 21 22  2  0
 21 23  1  0
 24 23  1  1
 24 25  1  0
 25 18  1  0
 26 24  1  0
 27 26  1  0
 28 26  2  0
M  END
$$$$
