HKN.pdb
     RDKit          3D

 28 28  0  0  1  0  0  0  0  0999 V2000
    6.1254  -14.0461   20.9738 N   0  0  0  0  0  0  0  0  0  0  0  0
    7.0833  -15.1403   20.8267 C   0  0  1  0  0  0  0  0  0  0  0  0
    8.3902  -14.5792   20.2757 C   0  0  0  0  0  0  0  0  0  0  0  0
    8.2260  -14.1498   18.8644 C   0  0  0  0  0  0  0  0  0  0  0  0
    8.0954  -12.8471   18.4339 C   0  0  0  0  0  0  0  0  0  0  0  0
    7.9698  -12.8694   17.1028 N   0  0  0  0  0  0  0  0  0  0  0  0
    8.0232  -14.1592   16.7340 C   0  0  0  0  0  0  0  0  0  0  0  0
    8.1801  -14.9515   17.8076 N   0  0  0  0  0  0  0  0  0  0  0  0
    7.3027  -15.7065   22.1807 C   0  0  0  0  0  0  0  0  0  0  0  0
    7.6346  -14.9287   23.1111 O   0  0  0  0  0  0  0  0  0  0  0  0
    7.1514  -17.0859   22.4569 N   0  0  0  0  0  0  0  0  0  0  0  0
    7.2590  -17.5738   23.8523 C   0  0  1  0  0  0  0  0  0  0  0  0
    6.1070  -18.4818   24.1424 C   0  0  0  0  0  0  0  0  0  0  0  0
    6.2938  -19.8301   23.5411 C   0  0  0  0  0  0  0  0  0  0  0  0
    4.9780  -20.4677   23.1243 C   0  0  0  0  0  0  0  0  0  0  0  0
    5.1770  -21.8871   22.6401 C   0  0  0  0  0  0  0  0  0  0  0  0
    3.9199  -22.5059   22.2867 N   0  0  0  0  0  0  0  0  0  0  0  0
    8.5994  -18.0845   24.0527 C   0  0  0  0  0  0  0  0  0  0  0  0
    9.2646  -18.3984   22.9984 O   0  0  0  0  0  0  0  0  0  0  0  0
   13.9893  -18.5377   26.0453 N   0  0  0  0  0  0  0  0  0  0  0  0
   12.9579  -18.8185   25.0970 C   0  0  0  0  0  0  0  0  0  0  0  0
   13.1642  -19.7577   24.2817 O   0  0  0  0  0  0  0  0  0  0  0  0
   11.6929  -18.0551   25.0526 C   0  0  0  0  0  0  0  0  0  0  0  0
   10.5453  -18.9880   25.3246 C   0  0  2  0  0  0  0  0  0  0  0  0
    9.2669  -18.2761   25.2670 N   0  0  0  0  0  0  0  0  0  0  0  0
   10.6649  -19.7528   26.5776 C   0  0  0  0  0  0  0  0  0  0  0  0
    9.7152  -19.7681   27.5785 O   0  0  0  0  0  0  0  0  0  0  0  0
   11.7064  -20.4593   26.7835 O   0  0  0  0  0  0  0  0  0  0  0  0
  2  1  1  1
  2  3  1  0
  4  3  1  0
  5  4  2  0
  6  5  1  0
  7  6  1  0
  7  8  2  0
  8  4  1  0
  9  2  1  0
 10  9  2  0
 11  9  1  0
 12 11  1  0
 12 13  1  6
 13 14  1  0
 14 15  1  0
 16 15  1  0
 17 16  1  0
 18 12  1  0
 19 18  2  0
 20 21  1  0
 21 22  2  0
 21 23  1  0
 24 23  1  1
 24 25  1  0
 25 18  1  0
 26 24  1  0
 27 26  1  0
 28 26  2  0
M  END
$$$$
