HKN.pdb
     RDKit          3D

 28 28  0  0  1  0  0  0  0  0999 V2000
    8.7007  -12.6464   18.8868 N   0  0  0  0  0  0  0  0  0  0  0  0
    8.2917  -13.9403   19.4298 C   0  0  1  0  0  0  0  0  0  0  0  0
    8.9627  -15.0468   18.6223 C   0  0  0  0  0  0  0  0  0  0  0  0
    8.3931  -15.1199   17.2536 C   0  0  0  0  0  0  0  0  0  0  0  0
    7.4223  -14.2844   16.7447 C   0  0  0  0  0  0  0  0  0  0  0  0
    7.1757  -14.6663   15.4872 N   0  0  0  0  0  0  0  0  0  0  0  0
    7.9805  -15.7119   15.2388 C   0  0  0  0  0  0  0  0  0  0  0  0
    8.7306  -15.9971   16.3164 N   0  0  0  0  0  0  0  0  0  0  0  0
    8.7571  -13.9837   20.8381 C   0  0  0  0  0  0  0  0  0  0  0  0
    9.9621  -13.7200   21.0816 O   0  0  0  0  0  0  0  0  0  0  0  0
    7.8933  -14.3106   21.9100 N   0  0  0  0  0  0  0  0  0  0  0  0
    8.4201  -14.3500   23.2949 C   0  0  1  0  0  0  0  0  0  0  0  0
    7.2888  -14.1569   24.2533 C   0  0  0  0  0  0  0  0  0  0  0  0
    7.4047  -12.8768   25.0031 C   0  0  0  0  0  0  0  0  0  0  0  0
    6.3133  -12.7152   26.0491 C   0  0  0  0  0  0  0  0  0  0  0  0
    6.4864  -11.4375   26.8403 C   0  0  0  0  0  0  0  0  0  0  0  0
    5.5044  -11.3319   27.8950 N   0  0  0  0  0  0  0  0  0  0  0  0
    9.2403  -15.5353   23.4352 C   0  0  0  0  0  0  0  0  0  0  0  0
    8.6876  -16.6607   23.1510 O   0  0  0  0  0  0  0  0  0  0  0  0
   14.2089  -18.6443   23.0124 N   0  0  0  0  0  0  0  0  0  0  0  0
   13.4468  -17.9820   24.0235 C   0  0  0  0  0  0  0  0  0  0  0  0
   13.3703  -18.5442   25.1493 O   0  0  0  0  0  0  0  0  0  0  0  0
   12.7667  -16.6914   23.7853 C   0  0  0  0  0  0  0  0  0  0  0  0
   11.2813  -16.8868   23.9134 C   0  0  2  0  0  0  0  0  0  0  0  0
   10.5765  -15.6050   23.8430 N   0  0  0  0  0  0  0  0  0  0  0  0
   10.8668  -17.6497   25.1031 C   0  0  0  0  0  0  0  0  0  0  0  0
   10.7770  -19.0256   25.1580 O   0  0  0  0  0  0  0  0  0  0  0  0
   10.5620  -17.0259   26.1727 O   0  0  0  0  0  0  0  0  0  0  0  0
  2  1  1  6
  2  3  1  0
  4  3  1  0
  5  4  2  0
  6  5  1  0
  7  6  1  0
  7  8  2  0
  8  4  1  0
  9  2  1  0
 10  9  2  0
 11  9  1  0
 12 11  1  0
 12 13  1  1
 13 14  1  0
 14 15  1  0
 16 15  1  0
 17 16  1  0
 18 12  1  0
 19 18  2  0
 20 21  1  0
 21 22  2  0
 21 23  1  0
 24 23  1  1
 24 25  1  0
 25 18  1  0
 26 24  1  0
 27 26  1  0
 28 26  2  0
M  END
$$$$
