HKN.pdb
     RDKit          3D

 28 28  0  0  1  0  0  0  0  0999 V2000
   14.8702  -14.8737   14.4848 N   0  0  0  0  0  0  0  0  0  0  0  0
   14.0099  -15.8194   15.1932 C   0  0  1  0  0  0  0  0  0  0  0  0
   14.8537  -17.0052   15.6495 C   0  0  0  0  0  0  0  0  0  0  0  0
   15.2698  -17.8333   14.4900 C   0  0  0  0  0  0  0  0  0  0  0  0
   14.4172  -18.4625   13.6086 C   0  0  0  0  0  0  0  0  0  0  0  0
   15.1667  -19.1062   12.7075 N   0  0  0  0  0  0  0  0  0  0  0  0
   16.4473  -18.8721   13.0360 C   0  0  0  0  0  0  0  0  0  0  0  0
   16.5200  -18.0924   14.1277 N   0  0  0  0  0  0  0  0  0  0  0  0
   13.4592  -15.1032   16.3704 C   0  0  0  0  0  0  0  0  0  0  0  0
   14.2248  -14.3582   17.0334 O   0  0  0  0  0  0  0  0  0  0  0  0
   12.1075  -15.2311   16.7688 N   0  0  0  0  0  0  0  0  0  0  0  0
   11.6489  -14.6033   18.0307 C   0  0  1  0  0  0  0  0  0  0  0  0
   10.1639  -14.4359   17.9813 C   0  0  0  0  0  0  0  0  0  0  0  0
    9.6157  -13.9332   19.2701 C   0  0  0  0  0  0  0  0  0  0  0  0
    8.1096  -13.7314   19.2215 C   0  0  0  0  0  0  0  0  0  0  0  0
    7.5755  -13.2125   20.5384 C   0  0  0  0  0  0  0  0  0  0  0  0
    6.1325  -13.1387   20.5311 N   0  0  0  0  0  0  0  0  0  0  0  0
   12.2171  -15.3431   19.1385 C   0  0  0  0  0  0  0  0  0  0  0  0
   12.1838  -16.6258   19.0579 O   0  0  0  0  0  0  0  0  0  0  0  0
   16.0051  -14.1831   20.0136 N   0  0  0  0  0  0  0  0  0  0  0  0
   15.6026  -15.3403   20.7491 C   0  0  0  0  0  0  0  0  0  0  0  0
   16.1115  -16.4435   20.4125 O   0  0  0  0  0  0  0  0  0  0  0  0
   14.6321  -15.2739   21.8621 C   0  0  0  0  0  0  0  0  0  0  0  0
   13.2817  -15.7093   21.3641 C   0  0  2  0  0  0  0  0  0  0  0  0
   12.8078  -14.8262   20.2964 N   0  0  0  0  0  0  0  0  0  0  0  0
   12.2618  -15.8558   22.4164 C   0  0  0  0  0  0  0  0  0  0  0  0
   12.3872  -16.6763   23.5188 O   0  0  0  0  0  0  0  0  0  0  0  0
   11.1754  -15.1934   22.3326 O   0  0  0  0  0  0  0  0  0  0  0  0
  2  1  1  1
  2  3  1  0
  4  3  1  0
  5  4  2  0
  6  5  1  0
  7  6  1  0
  7  8  2  0
  8  4  1  0
  9  2  1  0
 10  9  2  0
 11  9  1  0
 12 11  1  0
 12 13  1  1
 13 14  1  0
 14 15  1  0
 16 15  1  0
 17 16  1  0
 18 12  1  0
 19 18  2  0
 20 21  1  0
 21 22  2  0
 21 23  1  0
 24 23  1  1
 24 25  1  0
 25 18  1  0
 26 24  1  0
 27 26  1  0
 28 26  2  0
M  END
$$$$
