HKN.pdb
     RDKit          3D

 28 28  0  0  1  0  0  0  0  0999 V2000
   10.6702  -15.4828   18.2094 N   0  0  0  0  0  0  0  0  0  0  0  0
    9.4174  -15.8875   18.8442 C   0  0  1  0  0  0  0  0  0  0  0  0
    9.1982  -17.3762   18.5949 C   0  0  0  0  0  0  0  0  0  0  0  0
    8.8334  -17.6253   17.1778 C   0  0  0  0  0  0  0  0  0  0  0  0
    9.7162  -17.9396   16.1672 C   0  0  0  0  0  0  0  0  0  0  0  0
    9.0097  -18.0875   15.0416 N   0  0  0  0  0  0  0  0  0  0  0  0
    7.7249  -17.8672   15.3633 C   0  0  0  0  0  0  0  0  0  0  0  0
    7.6074  -17.5831   16.6712 N   0  0  0  0  0  0  0  0  0  0  0  0
    9.5679  -15.6312   20.2980 C   0  0  0  0  0  0  0  0  0  0  0  0
   10.6738  -15.8813   20.8413 O   0  0  0  0  0  0  0  0  0  0  0  0
    8.5127  -15.1174   21.0883 N   0  0  0  0  0  0  0  0  0  0  0  0
    8.7524  -14.7889   22.5136 C   0  0  1  0  0  0  0  0  0  0  0  0
    7.6128  -13.9659   23.0234 C   0  0  0  0  0  0  0  0  0  0  0  0
    7.7747  -13.6183   24.4612 C   0  0  0  0  0  0  0  0  0  0  0  0
    6.6768  -12.6938   24.9625 C   0  0  0  0  0  0  0  0  0  0  0  0
    6.9442  -12.2293   26.3772 C   0  0  0  0  0  0  0  0  0  0  0  0
    5.8530  -12.5709   27.2606 N   0  0  0  0  0  0  0  0  0  0  0  0
    9.0778  -16.0142   23.2136 C   0  0  0  0  0  0  0  0  0  0  0  0
    8.9522  -17.1105   22.5539 O   0  0  0  0  0  0  0  0  0  0  0  0
   12.1813  -19.9296   24.2012 N   0  0  0  0  0  0  0  0  0  0  0  0
   12.3693  -18.5627   24.5729 C   0  0  0  0  0  0  0  0  0  0  0  0
   13.3027  -18.3080   25.3811 O   0  0  0  0  0  0  0  0  0  0  0  0
   11.5190  -17.4742   24.0465 C   0  0  0  0  0  0  0  0  0  0  0  0
   10.3266  -17.3022   24.9463 C   0  0  2  0  0  0  0  0  0  0  0  0
    9.5208  -16.1513   24.5333 N   0  0  0  0  0  0  0  0  0  0  0  0
   10.6507  -17.2291   26.3811 C   0  0  0  0  0  0  0  0  0  0  0  0
   10.8665  -18.3251   27.1913 O   0  0  0  0  0  0  0  0  0  0  0  0
   10.7448  -16.0892   26.9450 O   0  0  0  0  0  0  0  0  0  0  0  0
  2  1  1  6
  2  3  1  0
  4  3  1  0
  5  4  2  0
  6  5  1  0
  7  6  1  0
  7  8  2  0
  8  4  1  0
  9  2  1  0
 10  9  2  0
 11  9  1  0
 12 11  1  0
 12 13  1  1
 13 14  1  0
 14 15  1  0
 16 15  1  0
 17 16  1  0
 18 12  1  0
 19 18  2  0
 20 21  1  0
 21 22  2  0
 21 23  1  0
 24 23  1  6
 24 25  1  0
 25 18  1  0
 26 24  1  0
 27 26  1  0
 28 26  2  0
M  END
$$$$
