HKN.pdb
     RDKit          3D

 28 28  0  0  1  0  0  0  0  0999 V2000
    5.5307  -15.2157   21.3832 N   0  0  0  0  0  0  0  0  0  0  0  0
    6.8987  -15.6337   21.6838 C   0  0  1  0  0  0  0  0  0  0  0  0
    7.8142  -14.4165   21.6013 C   0  0  0  0  0  0  0  0  0  0  0  0
    7.9619  -13.9624   20.1958 C   0  0  0  0  0  0  0  0  0  0  0  0
    7.3740  -14.5525   19.0978 C   0  0  0  0  0  0  0  0  0  0  0  0
    7.7442  -13.8587   18.0164 N   0  0  0  0  0  0  0  0  0  0  0  0
    8.5404  -12.8684   18.4499 C   0  0  0  0  0  0  0  0  0  0  0  0
    8.6795  -12.9242   19.7851 N   0  0  0  0  0  0  0  0  0  0  0  0
    6.8912  -16.1725   23.0664 C   0  0  0  0  0  0  0  0  0  0  0  0
    6.3669  -15.4829   23.9777 O   0  0  0  0  0  0  0  0  0  0  0  0
    7.4519  -17.4305   23.3906 N   0  0  0  0  0  0  0  0  0  0  0  0
    7.3884  -17.9279   24.7853 C   0  0  1  0  0  0  0  0  0  0  0  0
    7.2719  -19.4185   24.7673 C   0  0  0  0  0  0  0  0  0  0  0  0
    7.2219  -19.9911   26.1398 C   0  0  0  0  0  0  0  0  0  0  0  0
    7.0617  -21.5030   26.1331 C   0  0  0  0  0  0  0  0  0  0  0  0
    6.9788  -22.0594   27.5374 C   0  0  0  0  0  0  0  0  0  0  0  0
    6.6724  -23.4715   27.5290 N   0  0  0  0  0  0  0  0  0  0  0  0
    8.4817  -17.3365   25.5286 C   0  0  0  0  0  0  0  0  0  0  0  0
    9.1524  -16.4125   24.9379 O   0  0  0  0  0  0  0  0  0  0  0  0
   11.1357  -14.9320   29.1379 N   0  0  0  0  0  0  0  0  0  0  0  0
    9.9756  -14.4621   28.4485 C   0  0  0  0  0  0  0  0  0  0  0  0
    9.7109  -13.2327   28.5364 O   0  0  0  0  0  0  0  0  0  0  0  0
    9.1056  -15.3589   27.6586 C   0  0  0  0  0  0  0  0  0  0  0  0
    9.7321  -16.7245   27.5980 C   0  0  2  0  0  0  0  0  0  0  0  0
    8.8986  -17.6491   26.8268 N   0  0  0  0  0  0  0  0  0  0  0  0
   10.0754  -17.2968   28.9109 C   0  0  0  0  0  0  0  0  0  0  0  0
    9.3077  -17.1594   30.0493 O   0  0  0  0  0  0  0  0  0  0  0  0
   11.1505  -17.9706   29.0390 O   0  0  0  0  0  0  0  0  0  0  0  0
  2  1  1  1
  2  3  1  0
  4  3  1  0
  5  4  2  0
  6  5  1  0
  7  6  1  0
  7  8  2  0
  8  4  1  0
  9  2  1  0
 10  9  2  0
 11  9  1  0
 12 11  1  0
 12 13  1  6
 13 14  1  0
 14 15  1  0
 16 15  1  0
 17 16  1  0
 18 12  1  0
 19 18  2  0
 20 21  1  0
 21 22  2  0
 21 23  1  0
 24 23  1  1
 24 25  1  0
 25 18  1  0
 26 24  1  0
 27 26  1  0
 28 26  2  0
M  END
$$$$
