HKN.pdb
     RDKit          3D

 28 28  0  0  1  0  0  0  0  0999 V2000
    6.3258  -15.2517   20.1463 N   0  0  0  0  0  0  0  0  0  0  0  0
    7.6037  -15.8123   19.7114 C   0  0  1  0  0  0  0  0  0  0  0  0
    8.5178  -14.6721   19.2747 C   0  0  0  0  0  0  0  0  0  0  0  0
    8.0492  -14.0811   17.9962 C   0  0  0  0  0  0  0  0  0  0  0  0
    7.4016  -12.8717   17.8631 C   0  0  0  0  0  0  0  0  0  0  0  0
    7.1436  -12.6896   16.5637 N   0  0  0  0  0  0  0  0  0  0  0  0
    7.6248  -13.7665   15.9224 C   0  0  0  0  0  0  0  0  0  0  0  0
    8.1819  -14.6250   16.7929 N   0  0  0  0  0  0  0  0  0  0  0  0
    8.1877  -16.5136   20.8815 C   0  0  0  0  0  0  0  0  0  0  0  0
    8.0342  -16.0093   22.0229 O   0  0  0  0  0  0  0  0  0  0  0  0
    8.9079  -17.7249   20.7548 N   0  0  0  0  0  0  0  0  0  0  0  0
    9.4266  -18.4036   21.9660 C   0  0  1  0  0  0  0  0  0  0  0  0
    8.9824  -19.8313   21.9538 C   0  0  0  0  0  0  0  0  0  0  0  0
    9.5832  -20.6124   23.0688 C   0  0  0  0  0  0  0  0  0  0  0  0
    9.1113  -22.0576   23.0859 C   0  0  0  0  0  0  0  0  0  0  0  0
    9.6995  -22.8205   24.2524 C   0  0  0  0  0  0  0  0  0  0  0  0
    9.2762  -24.2021   24.2475 N   0  0  0  0  0  0  0  0  0  0  0  0
   10.8451  -18.1299   22.0676 C   0  0  0  0  0  0  0  0  0  0  0  0
   11.5656  -18.4110   21.0407 O   0  0  0  0  0  0  0  0  0  0  0  0
   13.1138  -16.6281   20.5523 N   0  0  0  0  0  0  0  0  0  0  0  0
   13.4145  -15.6865   21.5842 C   0  0  0  0  0  0  0  0  0  0  0  0
   13.6653  -14.5030   21.2299 O   0  0  0  0  0  0  0  0  0  0  0  0
   13.4372  -16.0588   23.0146 C   0  0  0  0  0  0  0  0  0  0  0  0
   12.9947  -17.4887   23.1581 C   0  0  2  0  0  0  0  0  0  0  0  0
   11.5335  -17.5870   23.1576 N   0  0  0  0  0  0  0  0  0  0  0  0
   13.5683  -18.1911   24.3185 C   0  0  0  0  0  0  0  0  0  0  0  0
   14.8961  -18.5467   24.4399 O   0  0  0  0  0  0  0  0  0  0  0  0
   12.8125  -18.5082   25.2954 O   0  0  0  0  0  0  0  0  0  0  0  0
  2  1  1  1
  2  3  1  0
  4  3  1  0
  5  4  2  0
  6  5  1  0
  7  6  1  0
  7  8  2  0
  8  4  1  0
  9  2  1  0
 10  9  2  0
 11  9  1  0
 12 11  1  0
 12 13  1  6
 13 14  1  0
 14 15  1  0
 16 15  1  0
 17 16  1  0
 18 12  1  0
 19 18  2  0
 20 21  1  0
 21 22  2  0
 21 23  1  0
 24 23  1  1
 24 25  1  0
 25 18  1  0
 26 24  1  0
 27 26  1  0
 28 26  2  0
M  END
$$$$
