CYF.pdb
     RDKit          3D

 30 31  0  0  1  0  0  0  0  0999 V2000
   26.1563  -19.0192  -15.9262 N   0  0  0  0  0  0  0  0  0  0  0  0
   27.0465  -19.3855  -14.8728 C   0  0  1  0  0  0  0  0  0  0  0  0
   28.2124  -18.4518  -14.7073 C   0  0  0  0  0  0  0  0  0  0  0  0
   29.3256  -19.0694  -13.4253 S   0  0  0  0  0  0  0  0  0  0  0  0
   26.3374  -19.4253  -13.5366 C   0  0  0  0  0  0  0  0  0  0  0  0
   25.7610  -18.4001  -13.0984 O   0  0  0  0  0  0  0  0  0  0  0  0
   19.8479  -20.7880  -14.5609 O   0  0  0  0  0  0  0  0  0  0  0  0
   21.0281  -21.0364  -13.8868 C   0  0  0  0  0  0  0  0  0  0  0  0
   22.0674  -21.7151  -14.4780 C   0  0  0  0  0  0  0  0  0  0  0  0
   23.2083  -21.9276  -13.7550 C   0  0  0  0  0  0  0  0  0  0  0  0
   23.3919  -21.4994  -12.4476 C   0  0  0  0  0  0  0  0  0  0  0  0
   24.5829  -21.7381  -11.6573 C   0  0  0  0  0  0  0  0  0  0  0  0
   25.5850  -20.6845  -11.4893 C   0  0  2  0  0  0  0  0  0  0  0  0
   26.3148  -20.6137  -12.7669 N   0  0  0  0  0  0  0  0  0  0  0  0
   26.5754  -20.8261  -10.4049 C   0  0  0  0  0  0  0  0  0  0  0  0
   27.4410  -21.7632  -10.4176 O   0  0  0  0  0  0  0  0  0  0  0  0
   22.3317  -20.8209  -11.8805 C   0  0  0  0  0  0  0  0  0  0  0  0
   21.1539  -20.5892  -12.5950 C   0  0  0  0  0  0  0  0  0  0  0  0
   26.6790  -19.9719   -9.2738 N   0  0  0  0  0  0  0  0  0  0  0  0
   27.2826  -20.4255   -8.0053 C   0  0  1  0  0  0  0  0  0  0  0  0
   27.9165  -19.2470   -7.3140 C   0  0  0  0  0  0  0  0  0  0  0  0
   28.4974  -19.5592   -6.0028 C   0  0  0  0  0  0  0  0  0  0  0  0
   29.5408  -20.4498   -5.8269 C   0  0  0  0  0  0  0  0  0  0  0  0
   30.0488  -20.6990   -4.5724 C   0  0  0  0  0  0  0  0  0  0  0  0
   29.5692  -20.0975   -3.4338 C   0  0  0  0  0  0  0  0  0  0  0  0
   28.5296  -19.2081   -3.5935 C   0  0  0  0  0  0  0  0  0  0  0  0
   28.0105  -18.9477   -4.8395 C   0  0  0  0  0  0  0  0  0  0  0  0
   26.2699  -21.0259   -7.1106 C   0  0  0  0  0  0  0  0  0  0  0  0
   25.0284  -20.7983   -7.2430 O   0  0  0  0  0  0  0  0  0  0  0  0
   26.6328  -21.8687   -6.0858 O   0  0  0  0  0  0  0  0  0  0  0  0
  2  1  1  6
  2  3  1  0
  3  4  1  0
  5  6  2  0
  5  2  1  0
  8  7  1  0
  9  8  2  0
 10  9  1  0
 11 10  2  0
 11 17  1  0
 12 11  1  0
 13 14  1  0
 13 12  1  6
 14  5  1  0
 15 13  1  0
 16 15  2  0
 17 18  2  0
 18  8  1  0
 19 15  1  0
 20 19  1  0
 20 21  1  1
 22 21  1  0
 23 22  2  0
 24 23  1  0
 25 24  2  0
 25 26  1  0
 26 27  2  0
 27 22  1  0
 28 20  1  0
 28 30  1  0
 29 28  2  0
M  END
$$$$
