CYF.pdb
     RDKit          3D

 30 31  0  0  1  0  0  0  0  0999 V2000
   25.3521  -21.1998  -16.4831 N   0  0  0  0  0  0  0  0  0  0  0  0
   25.9420  -21.7568  -15.3091 C   0  0  1  0  0  0  0  0  0  0  0  0
   27.3742  -22.1763  -15.4866 C   0  0  0  0  0  0  0  0  0  0  0  0
   28.0748  -22.6808  -13.8995 S   0  0  0  0  0  0  0  0  0  0  0  0
   25.9238  -20.7730  -14.1595 C   0  0  0  0  0  0  0  0  0  0  0  0
   26.4809  -19.6546  -14.2784 O   0  0  0  0  0  0  0  0  0  0  0  0
   19.7995  -23.5382  -10.4849 O   0  0  0  0  0  0  0  0  0  0  0  0
   20.7755  -22.5996  -10.7594 C   0  0  0  0  0  0  0  0  0  0  0  0
   21.2908  -21.7866   -9.7777 C   0  0  0  0  0  0  0  0  0  0  0  0
   22.2549  -20.8783  -10.1166 C   0  0  0  0  0  0  0  0  0  0  0  0
   22.7560  -20.7184  -11.4011 C   0  0  0  0  0  0  0  0  0  0  0  0
   23.7581  -19.7440  -11.7840 C   0  0  0  0  0  0  0  0  0  0  0  0
   25.1715  -20.1192  -11.8466 C   0  0  2  0  0  0  0  0  0  0  0  0
   25.2812  -21.0995  -12.9406 N   0  0  0  0  0  0  0  0  0  0  0  0
   25.7946  -20.7051  -10.6444 C   0  0  0  0  0  0  0  0  0  0  0  0
   25.8054  -21.9663  -10.4525 O   0  0  0  0  0  0  0  0  0  0  0  0
   22.2199  -21.5482  -12.3654 C   0  0  0  0  0  0  0  0  0  0  0  0
   21.2338  -22.4855  -12.0483 C   0  0  0  0  0  0  0  0  0  0  0  0
   26.4304  -19.9672   -9.6094 N   0  0  0  0  0  0  0  0  0  0  0  0
   26.9367  -20.6174   -8.3846 C   0  0  1  0  0  0  0  0  0  0  0  0
   28.1657  -19.8858   -7.9124 C   0  0  0  0  0  0  0  0  0  0  0  0
   28.3025  -19.8182   -6.4526 C   0  0  0  0  0  0  0  0  0  0  0  0
   27.7808  -18.7909   -5.6876 C   0  0  0  0  0  0  0  0  0  0  0  0
   27.9357  -18.7836   -4.3202 C   0  0  0  0  0  0  0  0  0  0  0  0
   28.6024  -19.7698   -3.6338 C   0  0  0  0  0  0  0  0  0  0  0  0
   29.1277  -20.7997   -4.3827 C   0  0  0  0  0  0  0  0  0  0  0  0
   28.9818  -20.8223   -5.7494 C   0  0  0  0  0  0  0  0  0  0  0  0
   25.9220  -20.6061   -7.3091 C   0  0  0  0  0  0  0  0  0  0  0  0
   25.9273  -21.4523   -6.3634 O   0  0  0  0  0  0  0  0  0  0  0  0
   24.9180  -19.6660   -7.2850 O   0  0  0  0  0  0  0  0  0  0  0  0
  2  1  1  6
  2  3  1  0
  3  4  1  0
  5  6  2  0
  5  2  1  0
  8  7  1  0
  9  8  2  0
 10  9  1  0
 11 10  2  0
 11 17  1  0
 12 11  1  0
 13 14  1  0
 13 12  1  1
 14  5  1  0
 15 13  1  0
 16 15  2  0
 17 18  2  0
 18  8  1  0
 19 15  1  0
 20 19  1  0
 20 21  1  1
 22 21  1  0
 23 22  2  0
 24 23  1  0
 25 24  2  0
 25 26  1  0
 26 27  2  0
 27 22  1  0
 28 20  1  0
 28 30  1  0
 29 28  2  0
M  END
$$$$
