CYF.pdb
     RDKit          3D

 30 31  0  0  1  0  0  0  0  0999 V2000
   16.8728  -25.9563   -7.5440 N   0  0  0  0  0  0  0  0  0  0  0  0
   17.1992  -27.2234   -6.9744 C   0  0  1  0  0  0  0  0  0  0  0  0
   18.3872  -27.8896   -7.6095 C   0  0  0  0  0  0  0  0  0  0  0  0
   18.2318  -27.8522   -9.4091 S   0  0  0  0  0  0  0  0  0  0  0  0
   17.5142  -27.1032   -5.4992 C   0  0  0  0  0  0  0  0  0  0  0  0
   18.0827  -26.0749   -5.0580 O   0  0  0  0  0  0  0  0  0  0  0  0
   15.0576  -28.3066    2.9624 O   0  0  0  0  0  0  0  0  0  0  0  0
   15.2885  -28.2077    1.6038 C   0  0  0  0  0  0  0  0  0  0  0  0
   15.4701  -26.9911    0.9897 C   0  0  0  0  0  0  0  0  0  0  0  0
   15.6946  -26.9633   -0.3587 C   0  0  0  0  0  0  0  0  0  0  0  0
   15.7525  -28.0944   -1.1611 C   0  0  0  0  0  0  0  0  0  0  0  0
   15.9631  -28.0829   -2.5950 C   0  0  0  0  0  0  0  0  0  0  0  0
   17.3152  -27.9760   -3.1451 C   0  0  2  0  0  0  0  0  0  0  0  0
   17.1733  -28.1441   -4.6016 N   0  0  0  0  0  0  0  0  0  0  0  0
   18.3405  -28.9264   -2.6736 C   0  0  0  0  0  0  0  0  0  0  0  0
   18.3728  -30.1292   -3.0975 O   0  0  0  0  0  0  0  0  0  0  0  0
   15.5666  -29.3012   -0.5170 C   0  0  0  0  0  0  0  0  0  0  0  0
   15.3355  -29.3601    0.8594 C   0  0  0  0  0  0  0  0  0  0  0  0
   19.3676  -28.6256   -1.7383 N   0  0  0  0  0  0  0  0  0  0  0  0
   20.3078  -29.6551   -1.2531 C   0  0  1  0  0  0  0  0  0  0  0  0
   21.5681  -28.9829   -0.7753 C   0  0  0  0  0  0  0  0  0  0  0  0
   21.3389  -27.7975    0.0595 C   0  0  0  0  0  0  0  0  0  0  0  0
   20.9848  -27.8658    1.3947 C   0  0  0  0  0  0  0  0  0  0  0  0
   20.7882  -26.7190    2.1297 C   0  0  0  0  0  0  0  0  0  0  0  0
   20.9254  -25.4566    1.6045 C   0  0  0  0  0  0  0  0  0  0  0  0
   21.2776  -25.3730    0.2755 C   0  0  0  0  0  0  0  0  0  0  0  0
   21.4779  -26.5086   -0.4729 C   0  0  0  0  0  0  0  0  0  0  0  0
   19.7243  -30.4379   -0.1427 C   0  0  0  0  0  0  0  0  0  0  0  0
   20.2712  -31.4926    0.3036 O   0  0  0  0  0  0  0  0  0  0  0  0
   18.5514  -30.0519    0.4636 O   0  0  0  0  0  0  0  0  0  0  0  0
  2  1  1  6
  2  3  1  0
  3  4  1  0
  5  6  2  0
  5  2  1  0
  8  7  1  0
  9  8  2  0
 10  9  1  0
 11 10  2  0
 11 17  1  0
 12 11  1  0
 13 14  1  0
 13 12  1  1
 14  5  1  0
 15 13  1  0
 16 15  2  0
 17 18  2  0
 18  8  1  0
 19 15  1  0
 20 19  1  0
 20 21  1  1
 22 21  1  0
 23 22  2  0
 24 23  1  0
 25 24  2  0
 25 26  1  0
 26 27  2  0
 27 22  1  0
 28 20  1  0
 28 30  1  0
 29 28  2  0
M  END
$$$$
