CYF.pdb
     RDKit          3D

 30 31  0  0  1  0  0  0  0  0999 V2000
   26.8811  -19.0027  -15.7695 N   0  0  0  0  0  0  0  0  0  0  0  0
   27.4934  -19.6175  -14.6366 C   0  0  1  0  0  0  0  0  0  0  0  0
   28.8319  -19.0366  -14.2767 C   0  0  0  0  0  0  0  0  0  0  0  0
   29.5472  -19.9401  -12.8853 S   0  0  0  0  0  0  0  0  0  0  0  0
   26.6270  -19.4923  -13.4023 C   0  0  0  0  0  0  0  0  0  0  0  0
   26.2183  -18.3653  -13.0310 O   0  0  0  0  0  0  0  0  0  0  0  0
   20.0520  -19.7044  -15.0888 O   0  0  0  0  0  0  0  0  0  0  0  0
   21.0975  -20.1498  -14.3030 C   0  0  0  0  0  0  0  0  0  0  0  0
   21.9378  -21.1540  -14.7220 C   0  0  0  0  0  0  0  0  0  0  0  0
   22.9533  -21.5479  -13.8955 C   0  0  0  0  0  0  0  0  0  0  0  0
   23.1975  -20.9960  -12.6456 C   0  0  0  0  0  0  0  0  0  0  0  0
   24.2519  -21.4180  -11.7453 C   0  0  0  0  0  0  0  0  0  0  0  0
   25.3911  -20.5400  -11.4741 C   0  0  2  0  0  0  0  0  0  0  0  0
   26.2677  -20.6395  -12.6537 N   0  0  0  0  0  0  0  0  0  0  0  0
   26.2084  -20.8033  -10.2743 C   0  0  0  0  0  0  0  0  0  0  0  0
   26.8755  -21.8839  -10.1522 O   0  0  0  0  0  0  0  0  0  0  0  0
   22.3379  -19.9900  -12.2519 C   0  0  0  0  0  0  0  0  0  0  0  0
   21.2917  -19.5670  -13.0754 C   0  0  0  0  0  0  0  0  0  0  0  0
   26.3454  -19.9226   -9.1673 N   0  0  0  0  0  0  0  0  0  0  0  0
   27.0764  -20.3121   -7.9453 C   0  0  1  0  0  0  0  0  0  0  0  0
   27.7278  -19.0903   -7.3524 C   0  0  0  0  0  0  0  0  0  0  0  0
   28.3994  -19.3289   -6.0693 C   0  0  0  0  0  0  0  0  0  0  0  0
   27.7454  -19.2912   -4.8512 C   0  0  0  0  0  0  0  0  0  0  0  0
   28.4269  -19.5288   -3.6794 C   0  0  0  0  0  0  0  0  0  0  0  0
   29.7706  -19.8130   -3.6355 C   0  0  0  0  0  0  0  0  0  0  0  0
   30.4354  -19.8538   -4.8412 C   0  0  0  0  0  0  0  0  0  0  0  0
   29.7696  -19.6190   -6.0208 C   0  0  0  0  0  0  0  0  0  0  0  0
   26.1703  -20.9135   -6.9435 C   0  0  0  0  0  0  0  0  0  0  0  0
   24.9123  -20.7515   -6.9838 O   0  0  0  0  0  0  0  0  0  0  0  0
   26.6564  -21.6854   -5.9138 O   0  0  0  0  0  0  0  0  0  0  0  0
  2  1  1  6
  2  3  1  0
  3  4  1  0
  5  6  2  0
  5  2  1  0
  8  7  1  0
  9  8  2  0
 10  9  1  0
 11 10  2  0
 11 17  1  0
 12 11  1  0
 13 14  1  0
 13 12  1  6
 14  5  1  0
 15 13  1  0
 16 15  2  0
 17 18  2  0
 18  8  1  0
 19 15  1  0
 20 19  1  0
 20 21  1  1
 22 21  1  0
 23 22  2  0
 24 23  1  0
 25 24  2  0
 25 26  1  0
 26 27  2  0
 27 22  1  0
 28 20  1  0
 28 30  1  0
 29 28  2  0
M  END
$$$$
