CYF.pdb
     RDKit          3D

 30 31  0  0  1  0  0  0  0  0999 V2000
   22.3777  -14.7958  -19.6979 N   0  0  0  0  0  0  0  0  0  0  0  0
   22.7378  -13.9998  -18.5694 C   0  0  1  0  0  0  0  0  0  0  0  0
   24.1623  -14.1801  -18.1257 C   0  0  0  0  0  0  0  0  0  0  0  0
   24.3180  -15.6808  -17.1318 S   0  0  0  0  0  0  0  0  0  0  0  0
   22.5619  -12.5239  -18.8535 C   0  0  0  0  0  0  0  0  0  0  0  0
   23.2252  -11.9745  -19.7663 O   0  0  0  0  0  0  0  0  0  0  0  0
   18.0814   -5.2196  -20.5647 O   0  0  0  0  0  0  0  0  0  0  0  0
   18.5514   -6.4580  -20.1718 C   0  0  0  0  0  0  0  0  0  0  0  0
   18.0089   -7.1290  -19.1015 C   0  0  0  0  0  0  0  0  0  0  0  0
   18.5209   -8.3514  -18.7651 C   0  0  0  0  0  0  0  0  0  0  0  0
   19.5649   -8.9697  -19.4390 C   0  0  0  0  0  0  0  0  0  0  0  0
   20.1377  -10.2520  -19.0811 C   0  0  0  0  0  0  0  0  0  0  0  0
   21.4287  -10.3219  -18.3950 C   0  0  2  0  0  0  0  0  0  0  0  0
   21.6510  -11.7472  -18.0968 N   0  0  0  0  0  0  0  0  0  0  0  0
   21.5982   -9.5615  -17.1421 C   0  0  0  0  0  0  0  0  0  0  0  0
   21.0913   -9.9714  -16.0455 O   0  0  0  0  0  0  0  0  0  0  0  0
   20.0894   -8.2724  -20.5089 C   0  0  0  0  0  0  0  0  0  0  0  0
   19.5864   -7.0218  -20.8755 C   0  0  0  0  0  0  0  0  0  0  0  0
   22.3168   -8.3418  -17.0153 N   0  0  0  0  0  0  0  0  0  0  0  0
   22.3852   -7.6050  -15.7379 C   0  0  1  0  0  0  0  0  0  0  0  0
   23.8295   -7.3510  -15.3944 C   0  0  0  0  0  0  0  0  0  0  0  0
   24.6677   -8.5559  -15.3880 C   0  0  0  0  0  0  0  0  0  0  0  0
   24.6036   -9.5204  -14.3989 C   0  0  0  0  0  0  0  0  0  0  0  0
   25.4113  -10.6335  -14.4485 C   0  0  0  0  0  0  0  0  0  0  0  0
   26.3163  -10.8614  -15.4572 C   0  0  0  0  0  0  0  0  0  0  0  0
   26.3915   -9.9089  -16.4494 C   0  0  0  0  0  0  0  0  0  0  0  0
   25.5917   -8.7913  -16.4150 C   0  0  0  0  0  0  0  0  0  0  0  0
   21.6718   -6.3126  -15.8219 C   0  0  0  0  0  0  0  0  0  0  0  0
   21.4274   -5.6055  -14.7969 O   0  0  0  0  0  0  0  0  0  0  0  0
   21.2388   -5.8135  -17.0285 O   0  0  0  0  0  0  0  0  0  0  0  0
  2  1  1  6
  2  3  1  0
  3  4  1  0
  5  6  2  0
  5  2  1  0
  8  7  1  0
  9  8  2  0
 10  9  1  0
 11 10  2  0
 11 17  1  0
 12 11  1  0
 13 14  1  0
 13 12  1  1
 14  5  1  0
 15 13  1  0
 16 15  2  0
 17 18  2  0
 18  8  1  0
 19 15  1  0
 20 19  1  0
 20 21  1  6
 22 21  1  0
 23 22  2  0
 24 23  1  0
 25 24  2  0
 25 26  1  0
 26 27  2  0
 27 22  1  0
 28 20  1  0
 28 30  1  0
 29 28  2  0
M  END
$$$$
