CYF.pdb
     RDKit          3D

 30 31  0  0  1  0  0  0  0  0999 V2000
   36.8529  -31.3773  -18.7431 N   0  0  0  0  0  0  0  0  0  0  0  0
   35.8977  -32.1680  -18.0367 C   0  0  1  0  0  0  0  0  0  0  0  0
   36.2587  -32.4212  -16.6000 C   0  0  0  0  0  0  0  0  0  0  0  0
   35.2549  -33.7684  -15.9356 S   0  0  0  0  0  0  0  0  0  0  0  0
   34.5343  -31.5115  -18.0259 C   0  0  0  0  0  0  0  0  0  0  0  0
   34.4375  -30.2610  -17.9817 O   0  0  0  0  0  0  0  0  0  0  0  0
   26.6809  -29.3734  -20.9594 O   0  0  0  0  0  0  0  0  0  0  0  0
   27.9054  -29.9136  -20.6164 C   0  0  0  0  0  0  0  0  0  0  0  0
   28.1316  -31.2692  -20.6530 C   0  0  0  0  0  0  0  0  0  0  0  0
   29.3666  -31.7385  -20.3009 C   0  0  0  0  0  0  0  0  0  0  0  0
   30.4220  -30.9294  -19.9036 C   0  0  0  0  0  0  0  0  0  0  0  0
   31.7288  -31.4103  -19.5019 C   0  0  0  0  0  0  0  0  0  0  0  0
   32.0217  -31.6714  -18.0918 C   0  0  2  0  0  0  0  0  0  0  0  0
   33.3557  -32.2956  -18.0652 N   0  0  0  0  0  0  0  0  0  0  0  0
   31.0979  -32.5359  -17.3329 C   0  0  0  0  0  0  0  0  0  0  0  0
   31.0652  -33.7970  -17.5228 O   0  0  0  0  0  0  0  0  0  0  0  0
   30.1655  -29.5732  -19.8765 C   0  0  0  0  0  0  0  0  0  0  0  0
   28.9134  -29.0651  -20.2310 C   0  0  0  0  0  0  0  0  0  0  0  0
   30.1817  -32.0860  -16.3438 N   0  0  0  0  0  0  0  0  0  0  0  0
   29.2380  -33.0053  -15.6777 C   0  0  1  0  0  0  0  0  0  0  0  0
   28.2048  -32.1970  -14.9378 C   0  0  0  0  0  0  0  0  0  0  0  0
   27.1846  -31.5895  -15.8006 C   0  0  0  0  0  0  0  0  0  0  0  0
   25.9242  -32.1290  -15.9822 C   0  0  0  0  0  0  0  0  0  0  0  0
   25.0058  -31.5113  -16.8001 C   0  0  0  0  0  0  0  0  0  0  0  0
   25.2674  -30.3449  -17.4779 C   0  0  0  0  0  0  0  0  0  0  0  0
   26.5190  -29.7959  -17.3069 C   0  0  0  0  0  0  0  0  0  0  0  0
   27.4480  -30.4000  -16.4934 C   0  0  0  0  0  0  0  0  0  0  0  0
   28.5591  -33.8827  -16.6553 C   0  0  0  0  0  0  0  0  0  0  0  0
   27.8563  -34.8776  -16.2994 O   0  0  0  0  0  0  0  0  0  0  0  0
   28.6586  -33.6550  -18.0083 O   0  0  0  0  0  0  0  0  0  0  0  0
  2  1  1  1
  2  3  1  0
  3  4  1  0
  5  6  2  0
  5  2  1  0
  8  7  1  0
  9  8  2  0
 10  9  1  0
 11 10  2  0
 11 17  1  0
 12 11  1  0
 13 14  1  0
 13 12  1  6
 14  5  1  0
 15 13  1  0
 16 15  2  0
 17 18  2  0
 18  8  1  0
 19 15  1  0
 20 19  1  0
 20 21  1  6
 22 21  1  0
 23 22  2  0
 24 23  1  0
 25 24  2  0
 25 26  1  0
 26 27  2  0
 27 22  1  0
 28 20  1  0
 28 30  1  0
 29 28  2  0
M  END
$$$$
