CYF.pdb
     RDKit          3D

 30 31  0  0  1  0  0  0  0  0999 V2000
   26.3949  -18.9826  -15.6855 N   0  0  0  0  0  0  0  0  0  0  0  0
   27.2847  -19.3539  -14.6333 C   0  0  1  0  0  0  0  0  0  0  0  0
   28.4945  -18.4699  -14.5175 C   0  0  0  0  0  0  0  0  0  0  0  0
   29.6280  -18.7858  -15.8885 S   0  0  0  0  0  0  0  0  0  0  0  0
   26.5965  -19.3156  -13.2862 C   0  0  0  0  0  0  0  0  0  0  0  0
   26.1774  -18.2269  -12.8234 O   0  0  0  0  0  0  0  0  0  0  0  0
   19.9838  -18.8231  -13.9317 O   0  0  0  0  0  0  0  0  0  0  0  0
   21.0969  -19.4235  -13.3755 C   0  0  0  0  0  0  0  0  0  0  0  0
   22.0424  -20.0502  -14.1524 C   0  0  0  0  0  0  0  0  0  0  0  0
   23.1206  -20.6249  -13.5386 C   0  0  0  0  0  0  0  0  0  0  0  0
   23.3289  -20.6191  -12.1664 C   0  0  0  0  0  0  0  0  0  0  0  0
   24.4511  -21.2452  -11.4962 C   0  0  0  0  0  0  0  0  0  0  0  0
   25.6843  -20.4943  -11.2560 C   0  0  2  0  0  0  0  0  0  0  0  0
   26.4173  -20.5018  -12.5337 N   0  0  0  0  0  0  0  0  0  0  0  0
   26.6000  -20.9701  -10.2015 C   0  0  0  0  0  0  0  0  0  0  0  0
   27.3678  -21.9707  -10.3938 O   0  0  0  0  0  0  0  0  0  0  0  0
   22.3633  -19.9828  -11.4122 C   0  0  0  0  0  0  0  0  0  0  0  0
   21.2513  -19.3869  -12.0120 C   0  0  0  0  0  0  0  0  0  0  0  0
   26.7310  -20.3933   -8.9092 N   0  0  0  0  0  0  0  0  0  0  0  0
   27.3408  -21.1288   -7.7839 C   0  0  1  0  0  0  0  0  0  0  0  0
   28.6873  -20.5281   -7.4767 C   0  0  0  0  0  0  0  0  0  0  0  0
   28.8105  -19.9902   -6.1166 C   0  0  0  0  0  0  0  0  0  0  0  0
   28.4446  -18.7013   -5.7735 C   0  0  0  0  0  0  0  0  0  0  0  0
   28.5778  -18.2534   -4.4791 C   0  0  0  0  0  0  0  0  0  0  0  0
   29.0709  -19.0331   -3.4607 C   0  0  0  0  0  0  0  0  0  0  0  0
   29.4397  -20.3193   -3.7875 C   0  0  0  0  0  0  0  0  0  0  0  0
   29.3130  -20.7826   -5.0756 C   0  0  0  0  0  0  0  0  0  0  0  0
   26.4928  -21.0636   -6.5743 C   0  0  0  0  0  0  0  0  0  0  0  0
   25.5673  -20.2055   -6.4409 O   0  0  0  0  0  0  0  0  0  0  0  0
   26.6703  -21.9412   -5.5300 O   0  0  0  0  0  0  0  0  0  0  0  0
  2  1  1  6
  2  3  1  0
  3  4  1  0
  5  6  2  0
  5  2  1  0
  8  7  1  0
  9  8  2  0
 10  9  1  0
 11 10  2  0
 11 17  1  0
 12 11  1  0
 13 14  1  0
 13 12  1  6
 14  5  1  0
 15 13  1  0
 16 15  2  0
 17 18  2  0
 18  8  1  0
 19 15  1  0
 20 19  1  0
 20 21  1  1
 22 21  1  0
 23 22  2  0
 24 23  1  0
 25 24  2  0
 25 26  1  0
 26 27  2  0
 27 22  1  0
 28 20  1  0
 28 30  1  0
 29 28  2  0
M  END
$$$$
