CYF.pdb
     RDKit          3D

 30 31  0  0  1  0  0  0  0  0999 V2000
   26.8546  -19.0739  -15.5448 N   0  0  0  0  0  0  0  0  0  0  0  0
   27.2617  -19.9780  -14.5185 C   0  0  1  0  0  0  0  0  0  0  0  0
   28.7226  -19.8937  -14.1758 C   0  0  0  0  0  0  0  0  0  0  0  0
   29.6331  -21.2130  -15.0091 S   0  0  0  0  0  0  0  0  0  0  0  0
   26.5055  -19.7317  -13.2311 C   0  0  0  0  0  0  0  0  0  0  0  0
   26.3469  -18.5610  -12.8076 O   0  0  0  0  0  0  0  0  0  0  0  0
   19.6515  -19.2369  -14.4549 O   0  0  0  0  0  0  0  0  0  0  0  0
   20.7156  -19.7769  -13.7585 C   0  0  0  0  0  0  0  0  0  0  0  0
   21.5300  -20.7348  -14.3146 C   0  0  0  0  0  0  0  0  0  0  0  0
   22.5660  -21.2280  -13.5709 C   0  0  0  0  0  0  0  0  0  0  0  0
   22.8560  -20.8224  -12.2756 C   0  0  0  0  0  0  0  0  0  0  0  0
   23.9328  -21.3522  -11.4632 C   0  0  0  0  0  0  0  0  0  0  0  0
   25.1667  -20.5872  -11.2769 C   0  0  2  0  0  0  0  0  0  0  0  0
   25.9696  -20.8136  -12.4910 N   0  0  0  0  0  0  0  0  0  0  0  0
   26.0115  -20.8944  -10.1070 C   0  0  0  0  0  0  0  0  0  0  0  0
   26.6638  -21.9882  -10.0307 O   0  0  0  0  0  0  0  0  0  0  0  0
   22.0215  -19.8597  -11.7438 C   0  0  0  0  0  0  0  0  0  0  0  0
   20.9553  -19.3377  -12.4801 C   0  0  0  0  0  0  0  0  0  0  0  0
   26.1926  -20.0450   -8.9820 N   0  0  0  0  0  0  0  0  0  0  0  0
   27.0110  -20.4494   -7.8218 C   0  0  1  0  0  0  0  0  0  0  0  0
   27.8273  -19.2701   -7.3618 C   0  0  0  0  0  0  0  0  0  0  0  0
   28.5529  -19.4935   -6.1057 C   0  0  0  0  0  0  0  0  0  0  0  0
   29.7905  -20.1076   -6.0423 C   0  0  0  0  0  0  0  0  0  0  0  0
   30.4265  -20.2852   -4.8348 C   0  0  0  0  0  0  0  0  0  0  0  0
   29.8925  -19.8764   -3.6365 C   0  0  0  0  0  0  0  0  0  0  0  0
   28.6600  -19.2633   -3.6840 C   0  0  0  0  0  0  0  0  0  0  0  0
   28.0112  -19.0780   -4.8817 C   0  0  0  0  0  0  0  0  0  0  0  0
   26.1659  -20.9205   -6.7037 C   0  0  0  0  0  0  0  0  0  0  0  0
   26.6541  -21.4766   -5.6727 O   0  0  0  0  0  0  0  0  0  0  0  0
   24.7985  -20.7729   -6.7312 O   0  0  0  0  0  0  0  0  0  0  0  0
  2  1  1  6
  2  3  1  0
  3  4  1  0
  5  6  2  0
  5  2  1  0
  8  7  1  0
  9  8  2  0
 10  9  1  0
 11 10  2  0
 11 17  1  0
 12 11  1  0
 13 14  1  0
 13 12  1  6
 14  5  1  0
 15 13  1  0
 16 15  2  0
 17 18  2  0
 18  8  1  0
 19 15  1  0
 20 19  1  0
 20 21  1  1
 22 21  1  0
 23 22  2  0
 24 23  1  0
 25 24  2  0
 25 26  1  0
 26 27  2  0
 27 22  1  0
 28 20  1  0
 28 30  1  0
 29 28  2  0
M  END
$$$$
