CYF.pdb
     RDKit          3D

 30 31  0  0  1  0  0  0  0  0999 V2000
   28.8583  -21.0149  -16.6661 N   0  0  0  0  0  0  0  0  0  0  0  0
   28.2953  -20.0782  -15.7484 C   0  0  1  0  0  0  0  0  0  0  0  0
   27.6220  -18.9077  -16.4080 C   0  0  0  0  0  0  0  0  0  0  0  0
   28.8302  -17.9408  -17.3404 S   0  0  0  0  0  0  0  0  0  0  0  0
   27.2540  -20.7274  -14.8629 C   0  0  0  0  0  0  0  0  0  0  0  0
   26.6092  -21.7226  -15.2739 O   0  0  0  0  0  0  0  0  0  0  0  0
   22.4310  -21.2529   -7.2662 O   0  0  0  0  0  0  0  0  0  0  0  0
   23.3240  -20.9874   -8.2865 C   0  0  0  0  0  0  0  0  0  0  0  0
   23.0461  -20.0637   -9.2661 C   0  0  0  0  0  0  0  0  0  0  0  0
   23.9733  -19.8487  -10.2477 C   0  0  0  0  0  0  0  0  0  0  0  0
   25.1924  -20.5077  -10.3241 C   0  0  0  0  0  0  0  0  0  0  0  0
   26.1756  -20.3122  -11.3707 C   0  0  0  0  0  0  0  0  0  0  0  0
   25.9070  -20.7687  -12.7352 C   0  0  2  0  0  0  0  0  0  0  0  0
   26.9947  -20.2230  -13.5653 N   0  0  0  0  0  0  0  0  0  0  0  0
   24.6239  -20.3935  -13.3596 C   0  0  0  0  0  0  0  0  0  0  0  0
   24.4746  -19.2671  -13.9395 O   0  0  0  0  0  0  0  0  0  0  0  0
   25.4436  -21.4291   -9.3272 C   0  0  0  0  0  0  0  0  0  0  0  0
   24.5150  -21.6696   -8.3117 C   0  0  0  0  0  0  0  0  0  0  0  0
   23.4593  -21.2075  -13.3905 N   0  0  0  0  0  0  0  0  0  0  0  0
   22.2305  -20.7863  -14.0919 C   0  0  1  0  0  0  0  0  0  0  0  0
   22.4979  -20.7530  -15.5738 C   0  0  0  0  0  0  0  0  0  0  0  0
   21.3435  -20.3484  -16.3849 C   0  0  0  0  0  0  0  0  0  0  0  0
   21.0687  -19.0331  -16.7121 C   0  0  0  0  0  0  0  0  0  0  0  0
   19.9732  -18.7138  -17.4814 C   0  0  0  0  0  0  0  0  0  0  0  0
   19.0961  -19.6535  -17.9673 C   0  0  0  0  0  0  0  0  0  0  0  0
   19.3569  -20.9680  -17.6492 C   0  0  0  0  0  0  0  0  0  0  0  0
   20.4469  -21.3041  -16.8819 C   0  0  0  0  0  0  0  0  0  0  0  0
   21.1106  -21.7131  -13.8215 C   0  0  0  0  0  0  0  0  0  0  0  0
   21.2640  -22.9727  -13.7973 O   0  0  0  0  0  0  0  0  0  0  0  0
   19.8398  -21.2455  -13.5793 O   0  0  0  0  0  0  0  0  0  0  0  0
  2  1  1  6
  2  3  1  0
  3  4  1  0
  5  6  2  0
  5  2  1  0
  8  7  1  0
  9  8  2  0
 10  9  1  0
 11 10  2  0
 11 17  1  0
 12 11  1  0
 13 14  1  0
 13 12  1  1
 14  5  1  0
 15 13  1  0
 16 15  2  0
 17 18  2  0
 18  8  1  0
 19 15  1  0
 20 19  1  0
 20 21  1  6
 22 21  1  0
 23 22  2  0
 24 23  1  0
 25 24  2  0
 25 26  1  0
 26 27  2  0
 27 22  1  0
 28 20  1  0
 28 30  1  0
 29 28  2  0
M  END
$$$$
