CYF.pdb
     RDKit          3D

 30 31  0  0  1  0  0  0  0  0999 V2000
   29.3911  -12.3877  -19.2391 N   0  0  0  0  0  0  0  0  0  0  0  0
   28.8846  -11.7161  -18.0863 C   0  0  1  0  0  0  0  0  0  0  0  0
   29.2951  -10.2735  -17.9914 C   0  0  0  0  0  0  0  0  0  0  0  0
   28.6165   -9.5322  -16.4901 S   0  0  0  0  0  0  0  0  0  0  0  0
   27.3718  -11.7333  -18.0549 C   0  0  0  0  0  0  0  0  0  0  0  0
   26.7166  -11.3690  -19.0615 O   0  0  0  0  0  0  0  0  0  0  0  0
   19.4942  -14.9769  -15.5141 O   0  0  0  0  0  0  0  0  0  0  0  0
   20.8201  -14.6081  -15.6361 C   0  0  0  0  0  0  0  0  0  0  0  0
   21.5233  -14.0838  -14.5775 C   0  0  0  0  0  0  0  0  0  0  0  0
   22.8330  -13.7391  -14.7656 C   0  0  0  0  0  0  0  0  0  0  0  0
   23.5106  -13.8843  -15.9681 C   0  0  0  0  0  0  0  0  0  0  0  0
   24.8898  -13.5005  -16.1934 C   0  0  0  0  0  0  0  0  0  0  0  0
   25.2085  -12.2423  -16.8699 C   0  0  2  0  0  0  0  0  0  0  0  0
   26.6790  -12.1585  -16.8953 N   0  0  0  0  0  0  0  0  0  0  0  0
   24.6895  -10.9867  -16.2947 C   0  0  0  0  0  0  0  0  0  0  0  0
   25.2441  -10.4437  -15.2822 O   0  0  0  0  0  0  0  0  0  0  0  0
   22.7792  -14.4132  -17.0128 C   0  0  0  0  0  0  0  0  0  0  0  0
   21.4396  -14.7743  -16.8498 C   0  0  0  0  0  0  0  0  0  0  0  0
   23.5655  -10.2660  -16.7816 N   0  0  0  0  0  0  0  0  0  0  0  0
   23.0064   -9.1080  -16.0565 C   0  0  1  0  0  0  0  0  0  0  0  0
   23.2226   -7.8638  -16.8773 C   0  0  0  0  0  0  0  0  0  0  0  0
   22.6394   -6.6494  -16.2947 C   0  0  0  0  0  0  0  0  0  0  0  0
   21.4317   -6.1146  -16.7049 C   0  0  0  0  0  0  0  0  0  0  0  0
   20.9313   -4.9752  -16.1173 C   0  0  0  0  0  0  0  0  0  0  0  0
   21.5778   -4.3039  -15.1075 C   0  0  0  0  0  0  0  0  0  0  0  0
   22.7821   -4.8248  -14.6886 C   0  0  0  0  0  0  0  0  0  0  0  0
   23.2961   -5.9622  -15.2649 C   0  0  0  0  0  0  0  0  0  0  0  0
   21.5594   -9.2774  -15.8038 C   0  0  0  0  0  0  0  0  0  0  0  0
   20.8032   -9.9172  -16.5970 O   0  0  0  0  0  0  0  0  0  0  0  0
   20.9634   -8.7451  -14.6841 O   0  0  0  0  0  0  0  0  0  0  0  0
  2  1  1  6
  2  3  1  0
  3  4  1  0
  5  6  2  0
  5  2  1  0
  8  7  1  0
  9  8  2  0
 10  9  1  0
 11 10  2  0
 11 17  1  0
 12 11  1  0
 13 14  1  0
 13 12  1  1
 14  5  1  0
 15 13  1  0
 16 15  2  0
 17 18  2  0
 18  8  1  0
 19 15  1  0
 20 19  1  0
 20 21  1  6
 22 21  1  0
 23 22  2  0
 24 23  1  0
 25 24  2  0
 25 26  1  0
 26 27  2  0
 27 22  1  0
 28 20  1  0
 28 30  1  0
 29 28  2  0
M  END
$$$$
