CYF.pdb
     RDKit          3D

 30 31  0  0  1  0  0  0  0  0999 V2000
   25.7961  -19.0662  -15.8987 N   0  0  0  0  0  0  0  0  0  0  0  0
   26.7517  -18.9901  -14.8416 C   0  0  1  0  0  0  0  0  0  0  0  0
   27.4917  -17.6834  -14.7814 C   0  0  0  0  0  0  0  0  0  0  0  0
   29.2336  -17.9368  -15.1884 S   0  0  0  0  0  0  0  0  0  0  0  0
   26.0981  -19.1741  -13.4893 C   0  0  0  0  0  0  0  0  0  0  0  0
   25.3660  -18.2716  -13.0153 O   0  0  0  0  0  0  0  0  0  0  0  0
   19.7791  -20.9790  -14.4503 O   0  0  0  0  0  0  0  0  0  0  0  0
   20.9985  -21.1871  -13.8350 C   0  0  0  0  0  0  0  0  0  0  0  0
   22.0065  -21.8905  -14.4509 C   0  0  0  0  0  0  0  0  0  0  0  0
   23.1893  -22.0606  -13.7863 C   0  0  0  0  0  0  0  0  0  0  0  0
   23.4457  -21.5652  -12.5154 C   0  0  0  0  0  0  0  0  0  0  0  0
   24.6827  -21.7577  -11.7853 C   0  0  0  0  0  0  0  0  0  0  0  0
   25.5598  -20.6213  -11.4995 C   0  0  2  0  0  0  0  0  0  0  0  0
   26.3027  -20.3612  -12.7447 N   0  0  0  0  0  0  0  0  0  0  0  0
   26.5381  -20.7499  -10.4026 C   0  0  0  0  0  0  0  0  0  0  0  0
   27.3837  -21.7048  -10.3787 O   0  0  0  0  0  0  0  0  0  0  0  0
   22.4154  -20.8634  -11.9222 C   0  0  0  0  0  0  0  0  0  0  0  0
   21.1962  -20.6739  -12.5773 C   0  0  0  0  0  0  0  0  0  0  0  0
   26.6506  -19.8633   -9.2975 N   0  0  0  0  0  0  0  0  0  0  0  0
   27.2377  -20.2887   -8.0116 C   0  0  1  0  0  0  0  0  0  0  0  0
   27.8004  -19.0829   -7.3059 C   0  0  0  0  0  0  0  0  0  0  0  0
   28.3991  -19.3757   -5.9982 C   0  0  0  0  0  0  0  0  0  0  0  0
   29.6777  -19.8801   -5.8441 C   0  0  0  0  0  0  0  0  0  0  0  0
   30.1888  -20.1302   -4.5910 C   0  0  0  0  0  0  0  0  0  0  0  0
   29.4848  -19.9034   -3.4329 C   0  0  0  0  0  0  0  0  0  0  0  0
   28.2096  -19.4013   -3.5708 C   0  0  0  0  0  0  0  0  0  0  0  0
   27.6840  -19.1457   -4.8151 C   0  0  0  0  0  0  0  0  0  0  0  0
   26.2275  -20.9314   -7.1440 C   0  0  0  0  0  0  0  0  0  0  0  0
   24.9844  -20.7110   -7.2731 O   0  0  0  0  0  0  0  0  0  0  0  0
   26.5947  -21.8078   -6.1492 O   0  0  0  0  0  0  0  0  0  0  0  0
  2  1  1  6
  2  3  1  0
  3  4  1  0
  5  6  2  0
  5  2  1  0
  8  7  1  0
  9  8  2  0
 10  9  1  0
 11 10  2  0
 11 17  1  0
 12 11  1  0
 13 14  1  0
 13 12  1  6
 14  5  1  0
 15 13  1  0
 16 15  2  0
 17 18  2  0
 18  8  1  0
 19 15  1  0
 20 19  1  0
 20 21  1  1
 22 21  1  0
 23 22  2  0
 24 23  1  0
 25 24  2  0
 25 26  1  0
 26 27  2  0
 27 22  1  0
 28 20  1  0
 28 30  1  0
 29 28  2  0
M  END
$$$$
