CYF.pdb
     RDKit          3D

 30 31  0  0  1  0  0  0  0  0999 V2000
   24.4768  -15.1742  -18.3250 N   0  0  0  0  0  0  0  0  0  0  0  0
   24.3919  -14.3525  -17.1614 C   0  0  1  0  0  0  0  0  0  0  0  0
   25.7090  -13.7741  -16.7259 C   0  0  0  0  0  0  0  0  0  0  0  0
   26.8889  -15.1003  -16.3899 S   0  0  0  0  0  0  0  0  0  0  0  0
   23.4604  -13.1797  -17.3779 C   0  0  0  0  0  0  0  0  0  0  0  0
   23.4243  -12.6009  -18.4909 O   0  0  0  0  0  0  0  0  0  0  0  0
   18.0168  -16.1090  -19.6309 O   0  0  0  0  0  0  0  0  0  0  0  0
   18.5671  -15.1318  -18.8240 C   0  0  0  0  0  0  0  0  0  0  0  0
   18.5802  -13.8093  -19.1995 C   0  0  0  0  0  0  0  0  0  0  0  0
   19.1407  -12.8923  -18.3543 C   0  0  0  0  0  0  0  0  0  0  0  0
   19.7050  -13.2091  -17.1265 C   0  0  0  0  0  0  0  0  0  0  0  0
   20.3267  -12.2554  -16.2297 C   0  0  0  0  0  0  0  0  0  0  0  0
   21.6236  -11.6629  -16.5603 C   0  0  2  0  0  0  0  0  0  0  0  0
   22.6215  -12.7223  -16.3327 N   0  0  0  0  0  0  0  0  0  0  0  0
   22.0548  -10.4625  -15.8188 C   0  0  0  0  0  0  0  0  0  0  0  0
   22.0795  -10.4459  -14.5434 O   0  0  0  0  0  0  0  0  0  0  0  0
   19.6774  -14.5443  -16.7763 C   0  0  0  0  0  0  0  0  0  0  0  0
   19.1114  -15.5032  -17.6198 C   0  0  0  0  0  0  0  0  0  0  0  0
   22.4780   -9.2420  -16.4114 N   0  0  0  0  0  0  0  0  0  0  0  0
   22.7224   -8.0275  -15.6085 C   0  0  1  0  0  0  0  0  0  0  0  0
   23.8940   -7.2814  -16.1908 C   0  0  0  0  0  0  0  0  0  0  0  0
   25.1644   -8.0140  -16.1307 C   0  0  0  0  0  0  0  0  0  0  0  0
   26.1139   -7.9719  -17.1355 C   0  0  0  0  0  0  0  0  0  0  0  0
   27.2906   -8.6762  -17.0212 C   0  0  0  0  0  0  0  0  0  0  0  0
   27.5996   -9.4520  -15.9299 C   0  0  0  0  0  0  0  0  0  0  0  0
   26.6632   -9.5038  -14.9210 C   0  0  0  0  0  0  0  0  0  0  0  0
   25.4827   -8.8062  -15.0193 C   0  0  0  0  0  0  0  0  0  0  0  0
   21.5391   -7.1410  -15.5978 C   0  0  0  0  0  0  0  0  0  0  0  0
   20.6007   -7.2529  -16.4448 O   0  0  0  0  0  0  0  0  0  0  0  0
   21.4009   -6.1464  -14.6575 O   0  0  0  0  0  0  0  0  0  0  0  0
  2  1  1  6
  2  3  1  0
  3  4  1  0
  5  6  2  0
  5  2  1  0
  8  7  1  0
  9  8  2  0
 10  9  1  0
 11 10  2  0
 11 17  1  0
 12 11  1  0
 13 14  1  0
 13 12  1  1
 14  5  1  0
 15 13  1  0
 16 15  2  0
 17 18  2  0
 18  8  1  0
 19 15  1  0
 20 19  1  0
 20 21  1  6
 22 21  1  0
 23 22  2  0
 24 23  1  0
 25 24  2  0
 25 26  1  0
 26 27  2  0
 27 22  1  0
 28 20  1  0
 28 30  1  0
 29 28  2  0
M  END
$$$$
