CYF.pdb
     RDKit          3D

 30 31  0  0  1  0  0  0  0  0999 V2000
   26.2238  -19.0531  -15.8993 N   0  0  0  0  0  0  0  0  0  0  0  0
   27.1317  -19.1673  -14.8042 C   0  0  1  0  0  0  0  0  0  0  0  0
   28.1131  -18.0335  -14.7050 C   0  0  0  0  0  0  0  0  0  0  0  0
   29.1848  -18.0107  -16.1592 S   0  0  0  0  0  0  0  0  0  0  0  0
   26.4000  -19.2168  -13.4806 C   0  0  0  0  0  0  0  0  0  0  0  0
   25.7965  -18.2016  -13.0559 O   0  0  0  0  0  0  0  0  0  0  0  0
   19.8425  -20.2389  -14.5035 O   0  0  0  0  0  0  0  0  0  0  0  0
   21.0214  -20.5657  -13.8615 C   0  0  0  0  0  0  0  0  0  0  0  0
   22.0422  -21.2154  -14.5143 C   0  0  0  0  0  0  0  0  0  0  0  0
   23.1829  -21.5097  -13.8203 C   0  0  0  0  0  0  0  0  0  0  0  0
   23.3840  -21.1933  -12.4840 C   0  0  0  0  0  0  0  0  0  0  0  0
   24.5747  -21.5202  -11.7254 C   0  0  0  0  0  0  0  0  0  0  0  0
   25.5941  -20.5014  -11.4698 C   0  0  2  0  0  0  0  0  0  0  0  0
   26.3865  -20.4033  -12.7076 N   0  0  0  0  0  0  0  0  0  0  0  0
   26.5269  -20.7103  -10.3459 C   0  0  0  0  0  0  0  0  0  0  0  0
   27.3372  -21.6956  -10.3328 O   0  0  0  0  0  0  0  0  0  0  0  0
   22.3421  -20.5415  -11.8549 C   0  0  0  0  0  0  0  0  0  0  0  0
   21.1650  -20.2280  -12.5387 C   0  0  0  0  0  0  0  0  0  0  0  0
   26.6302  -19.8743   -9.2012 N   0  0  0  0  0  0  0  0  0  0  0  0
   27.2564  -20.3399   -7.9481 C   0  0  1  0  0  0  0  0  0  0  0  0
   27.9018  -19.1678   -7.2566 C   0  0  0  0  0  0  0  0  0  0  0  0
   28.4872  -19.4878   -5.9492 C   0  0  0  0  0  0  0  0  0  0  0  0
   29.6620  -20.2016   -5.7973 C   0  0  0  0  0  0  0  0  0  0  0  0
   30.1666  -20.4672   -4.5448 C   0  0  0  0  0  0  0  0  0  0  0  0
   29.5562  -20.0538   -3.3851 C   0  0  0  0  0  0  0  0  0  0  0  0
   28.3849  -19.3418   -3.5208 C   0  0  0  0  0  0  0  0  0  0  0  0
   27.8673  -19.0678   -4.7645 C   0  0  0  0  0  0  0  0  0  0  0  0
   26.2602  -20.9499   -7.0416 C   0  0  0  0  0  0  0  0  0  0  0  0
   26.5964  -21.6353   -6.0278 O   0  0  0  0  0  0  0  0  0  0  0  0
   24.9103  -20.7976   -7.2584 O   0  0  0  0  0  0  0  0  0  0  0  0
  2  1  1  6
  2  3  1  0
  3  4  1  0
  5  6  2  0
  5  2  1  0
  8  7  1  0
  9  8  2  0
 10  9  1  0
 11 10  2  0
 11 17  1  0
 12 11  1  0
 13 14  1  0
 13 12  1  6
 14  5  1  0
 15 13  1  0
 16 15  2  0
 17 18  2  0
 18  8  1  0
 19 15  1  0
 20 19  1  0
 20 21  1  1
 22 21  1  0
 23 22  2  0
 24 23  1  0
 25 24  2  0
 25 26  1  0
 26 27  2  0
 27 22  1  0
 28 20  1  0
 28 30  1  0
 29 28  2  0
M  END
$$$$
