CYF.pdb
     RDKit          3D

 30 31  0  0  1  0  0  0  0  0999 V2000
   29.1215  -21.3447  -18.5432 N   0  0  0  0  0  0  0  0  0  0  0  0
   28.1392  -22.0487  -17.7842 C   0  0  1  0  0  0  0  0  0  0  0  0
   28.6416  -22.5626  -16.4643 C   0  0  0  0  0  0  0  0  0  0  0  0
   29.6576  -24.0350  -16.7172 S   0  0  0  0  0  0  0  0  0  0  0  0
   26.9448  -21.1724  -17.4753 C   0  0  0  0  0  0  0  0  0  0  0  0
   27.1085  -19.9604  -17.1935 O   0  0  0  0  0  0  0  0  0  0  0  0
   18.2530  -19.0496  -17.8889 O   0  0  0  0  0  0  0  0  0  0  0  0
   19.5549  -19.5019  -17.9857 C   0  0  0  0  0  0  0  0  0  0  0  0
   20.5633  -18.6999  -18.4653 C   0  0  0  0  0  0  0  0  0  0  0  0
   21.8302  -19.2094  -18.5352 C   0  0  0  0  0  0  0  0  0  0  0  0
   22.1729  -20.4980  -18.1499 C   0  0  0  0  0  0  0  0  0  0  0  0
   23.5040  -21.0636  -18.2413 C   0  0  0  0  0  0  0  0  0  0  0  0
   24.4643  -20.8797  -17.1520 C   0  0  2  0  0  0  0  0  0  0  0  0
   25.6332  -21.7058  -17.5001 N   0  0  0  0  0  0  0  0  0  0  0  0
   24.0462  -21.2343  -15.7823 C   0  0  0  0  0  0  0  0  0  0  0  0
   24.0497  -22.4456  -15.3820 O   0  0  0  0  0  0  0  0  0  0  0  0
   21.1399  -21.2797  -17.6725 C   0  0  0  0  0  0  0  0  0  0  0  0
   19.8358  -20.7859  -17.5898 C   0  0  0  0  0  0  0  0  0  0  0  0
   23.6148  -20.3099  -14.7926 N   0  0  0  0  0  0  0  0  0  0  0  0
   23.2218  -20.7436  -13.4373 C   0  0  1  0  0  0  0  0  0  0  0  0
   23.7371  -19.7457  -12.4337 C   0  0  0  0  0  0  0  0  0  0  0  0
   23.3748  -20.0478  -11.0439 C   0  0  0  0  0  0  0  0  0  0  0  0
   22.1503  -19.7211  -10.4901 C   0  0  0  0  0  0  0  0  0  0  0  0
   21.8642  -20.0349   -9.1810 C   0  0  0  0  0  0  0  0  0  0  0  0
   22.7507  -20.6781   -8.3511 C   0  0  0  0  0  0  0  0  0  0  0  0
   23.9747  -21.0095   -8.8888 C   0  0  0  0  0  0  0  0  0  0  0  0
   24.2764  -20.7035  -10.1947 C   0  0  0  0  0  0  0  0  0  0  0  0
   21.7524  -20.8465  -13.3090 C   0  0  0  0  0  0  0  0  0  0  0  0
   20.9657  -19.9944  -13.8244 O   0  0  0  0  0  0  0  0  0  0  0  0
   21.1670  -21.8831  -12.6196 O   0  0  0  0  0  0  0  0  0  0  0  0
  2  1  1  1
  2  3  1  0
  3  4  1  0
  5  6  2  0
  5  2  1  0
  8  7  1  0
  9  8  2  0
 10  9  1  0
 11 10  2  0
 11 17  1  0
 12 11  1  0
 13 14  1  0
 13 12  1  6
 14  5  1  0
 15 13  1  0
 16 15  2  0
 17 18  2  0
 18  8  1  0
 19 15  1  0
 20 19  1  0
 20 21  1  1
 22 21  1  0
 23 22  2  0
 24 23  1  0
 25 24  2  0
 25 26  1  0
 26 27  2  0
 27 22  1  0
 28 20  1  0
 28 30  1  0
 29 28  2  0
M  END
$$$$
