GGF.pdb
     RDKit          3D

 20 20  0  0  1  0  0  0  0  0999 V2000
    8.1690  -17.2414   17.4589 N   0  0  0  0  0  0  0  0  0  0  0  0
    8.4761  -17.5111   18.8141 C   0  0  0  0  0  0  0  0  0  0  0  0
    8.1355  -16.3041   19.6310 C   0  0  0  0  0  0  0  0  0  0  0  0
    8.4280  -15.1397   19.2486 O   0  0  0  0  0  0  0  0  0  0  0  0
    7.4636  -16.4309   20.8788 N   0  0  0  0  0  0  0  0  0  0  0  0
    7.1817  -15.2956   21.7191 C   0  0  0  0  0  0  0  0  0  0  0  0
    8.2124  -15.2474   22.8098 C   0  0  0  0  0  0  0  0  0  0  0  0
    9.4197  -14.9431   22.5629 O   0  0  0  0  0  0  0  0  0  0  0  0
    7.8982  -15.5360   24.1607 N   0  0  0  0  0  0  0  0  0  0  0  0
    8.8506  -15.4092   25.2295 C   0  0  1  0  0  0  0  0  0  0  0  0
    8.2199  -15.0410   26.5471 C   0  0  0  0  0  0  0  0  0  0  0  0
    7.5518  -13.7315   26.5218 C   0  0  0  0  0  0  0  0  0  0  0  0
    6.1786  -13.6359   26.4467 C   0  0  0  0  0  0  0  0  0  0  0  0
    5.5342  -12.3998   26.4220 C   0  0  0  0  0  0  0  0  0  0  0  0
    6.2506  -11.2293   26.4721 C   0  0  0  0  0  0  0  0  0  0  0  0
    7.6236  -11.3147   26.5474 C   0  0  0  0  0  0  0  0  0  0  0  0
    8.2543  -12.5441   26.5713 C   0  0  0  0  0  0  0  0  0  0  0  0
    9.6192  -16.6738   25.3207 C   0  0  0  0  0  0  0  0  0  0  0  0
    9.2222  -17.7494   24.7973 O   0  0  0  0  0  0  0  0  0  0  0  0
   10.8372  -16.7397   25.9994 O   0  0  0  0  0  0  0  0  0  0  0  0
  2  1  1  0
  3  2  1  0
  4  3  2  0
  5  3  1  0
  6  5  1  0
  7  8  2  0
  7  6  1  0
  9  7  1  0
 10  9  1  0
 10 11  1  1
 11 12  1  0
 12 17  2  0
 12 13  1  0
 13 14  2  0
 14 15  1  0
 16 15  2  0
 17 16  1  0
 18 10  1  0
 19 18  2  0
 20 18  1  0
M  END
$$$$
