GGF.pdb
     RDKit          3D

 20 20  0  0  1  0  0  0  0  0999 V2000
    7.4554  -19.4550   19.5691 N   0  0  0  0  0  0  0  0  0  0  0  0
    7.2742  -18.2852   18.7931 C   0  0  0  0  0  0  0  0  0  0  0  0
    6.9228  -17.1541   19.7082 C   0  0  0  0  0  0  0  0  0  0  0  0
    5.7652  -17.0236   20.1881 O   0  0  0  0  0  0  0  0  0  0  0  0
    7.8926  -16.1781   20.0709 N   0  0  0  0  0  0  0  0  0  0  0  0
    7.5944  -15.0964   20.9738 C   0  0  0  0  0  0  0  0  0  0  0  0
    8.0212  -15.5022   22.3549 C   0  0  0  0  0  0  0  0  0  0  0  0
    7.8326  -16.6821   22.7832 O   0  0  0  0  0  0  0  0  0  0  0  0
    8.6516  -14.6004   23.2473 N   0  0  0  0  0  0  0  0  0  0  0  0
    8.8763  -14.9015   24.6345 C   0  0  1  0  0  0  0  0  0  0  0  0
    7.6065  -14.9626   25.4428 C   0  0  0  0  0  0  0  0  0  0  0  0
    7.1689  -13.6466   25.9313 C   0  0  0  0  0  0  0  0  0  0  0  0
    6.4844  -13.5223   27.1215 C   0  0  0  0  0  0  0  0  0  0  0  0
    6.0646  -12.2797   27.5945 C   0  0  0  0  0  0  0  0  0  0  0  0
    6.3206  -11.1316   26.8860 C   0  0  0  0  0  0  0  0  0  0  0  0
    7.0041  -11.2458   25.6953 C   0  0  0  0  0  0  0  0  0  0  0  0
    7.4166  -12.4814   25.2337 C   0  0  0  0  0  0  0  0  0  0  0  0
    9.6439  -16.1673   24.7178 C   0  0  0  0  0  0  0  0  0  0  0  0
    9.8853  -16.8831   23.7090 O   0  0  0  0  0  0  0  0  0  0  0  0
   10.1451  -16.6377   25.9327 O   0  0  0  0  0  0  0  0  0  0  0  0
  2  1  1  0
  3  2  1  0
  4  3  2  0
  5  3  1  0
  6  5  1  0
  7  8  2  0
  7  6  1  0
  9  7  1  0
 10  9  1  0
 10 11  1  1
 11 12  1  0
 12 17  2  0
 12 13  1  0
 13 14  2  0
 14 15  1  0
 16 15  2  0
 17 16  1  0
 18 10  1  0
 19 18  2  0
 20 18  1  0
M  END
$$$$
