GGF.pdb
     RDKit          3D

 20 20  0  0  1  0  0  0  0  0999 V2000
    8.4580  -17.2031   19.8016 N   0  0  0  0  0  0  0  0  0  0  0  0
    7.0854  -17.4669   20.0251 C   0  0  0  0  0  0  0  0  0  0  0  0
    6.9131  -17.9428   21.4337 C   0  0  0  0  0  0  0  0  0  0  0  0
    7.5205  -18.9564   21.8708 O   0  0  0  0  0  0  0  0  0  0  0  0
    6.0495  -17.2609   22.3359 N   0  0  0  0  0  0  0  0  0  0  0  0
    5.7880  -17.7477   23.6660 C   0  0  0  0  0  0  0  0  0  0  0  0
    6.8062  -17.1532   24.5955 C   0  0  0  0  0  0  0  0  0  0  0  0
    6.7890  -17.4040   25.8396 O   0  0  0  0  0  0  0  0  0  0  0  0
    7.8320  -16.2884   24.1405 N   0  0  0  0  0  0  0  0  0  0  0  0
    8.7823  -15.6698   25.0235 C   0  0  1  0  0  0  0  0  0  0  0  0
    8.1788  -15.2285   26.3314 C   0  0  0  0  0  0  0  0  0  0  0  0
    7.4795  -13.9384   26.2388 C   0  0  0  0  0  0  0  0  0  0  0  0
    8.0138  -12.8907   25.5197 C   0  0  0  0  0  0  0  0  0  0  0  0
    7.3597  -11.6630   25.4249 C   0  0  0  0  0  0  0  0  0  0  0  0
    6.1540  -11.4558   26.0487 C   0  0  0  0  0  0  0  0  0  0  0  0
    5.6120  -12.4971   26.7698 C   0  0  0  0  0  0  0  0  0  0  0  0
    6.2670  -13.7107   26.8585 C   0  0  0  0  0  0  0  0  0  0  0  0
    9.9102  -16.6105   25.2266 C   0  0  0  0  0  0  0  0  0  0  0  0
    9.8796  -17.8047   24.8249 O   0  0  0  0  0  0  0  0  0  0  0  0
   11.0787  -16.2176   25.8813 O   0  0  0  0  0  0  0  0  0  0  0  0
  2  1  1  0
  3  2  1  0
  4  3  2  0
  5  3  1  0
  6  5  1  0
  7  8  2  0
  7  6  1  0
  9  7  1  0
 10  9  1  0
 10 11  1  1
 11 12  1  0
 12 17  2  0
 12 13  1  0
 13 14  2  0
 14 15  1  0
 16 15  2  0
 17 16  1  0
 18 10  1  0
 19 18  2  0
 20 18  1  0
M  END
$$$$
