GGF.pdb
     RDKit          3D

 20 20  0  0  1  0  0  0  0  0999 V2000
    8.3143  -12.2404   18.7234 N   0  0  0  0  0  0  0  0  0  0  0  0
    8.4973  -13.6294   18.9251 C   0  0  0  0  0  0  0  0  0  0  0  0
    7.8760  -14.0086   20.2331 C   0  0  0  0  0  0  0  0  0  0  0  0
    7.4496  -13.1415   21.0415 O   0  0  0  0  0  0  0  0  0  0  0  0
    7.7444  -15.3738   20.6121 N   0  0  0  0  0  0  0  0  0  0  0  0
    7.0977  -15.7731   21.8354 C   0  0  0  0  0  0  0  0  0  0  0  0
    8.1013  -15.6913   22.9491 C   0  0  0  0  0  0  0  0  0  0  0  0
    9.3145  -15.3949   22.7227 O   0  0  0  0  0  0  0  0  0  0  0  0
    7.7537  -15.9379   24.3001 N   0  0  0  0  0  0  0  0  0  0  0  0
    8.6658  -15.7347   25.3920 C   0  0  1  0  0  0  0  0  0  0  0  0
    7.9892  -15.2592   26.6512 C   0  0  0  0  0  0  0  0  0  0  0  0
    7.4629  -13.8905   26.5426 C   0  0  0  0  0  0  0  0  0  0  0  0
    6.1058  -13.6485   26.5514 C   0  0  0  0  0  0  0  0  0  0  0  0
    5.5954  -12.3551   26.4490 C   0  0  0  0  0  0  0  0  0  0  0  0
    6.4329  -11.2728   26.3354 C   0  0  0  0  0  0  0  0  0  0  0  0
    7.7910  -11.5047   26.3257 C   0  0  0  0  0  0  0  0  0  0  0  0
    8.2884  -12.7900   26.4276 C   0  0  0  0  0  0  0  0  0  0  0  0
    9.4168  -16.9940   25.6120 C   0  0  0  0  0  0  0  0  0  0  0  0
    8.9532  -18.1244   25.3025 O   0  0  0  0  0  0  0  0  0  0  0  0
   10.6918  -16.9932   26.1801 O   0  0  0  0  0  0  0  0  0  0  0  0
  2  1  1  0
  3  2  1  0
  4  3  2  0
  5  3  1  0
  6  5  1  0
  7  8  2  0
  7  6  1  0
  9  7  1  0
 10  9  1  0
 10 11  1  1
 11 12  1  0
 12 17  2  0
 12 13  1  0
 13 14  2  0
 14 15  1  0
 16 15  2  0
 17 16  1  0
 18 10  1  0
 19 18  2  0
 20 18  1  0
M  END
$$$$
