GGF.pdb
     RDKit          3D

 20 20  0  0  1  0  0  0  0  0999 V2000
    7.0467  -16.4030   19.2443 N   0  0  0  0  0  0  0  0  0  0  0  0
    6.2771  -17.4139   19.8683 C   0  0  0  0  0  0  0  0  0  0  0  0
    6.1124  -17.0654   21.3146 C   0  0  0  0  0  0  0  0  0  0  0  0
    5.8614  -15.8890   21.6895 O   0  0  0  0  0  0  0  0  0  0  0  0
    6.2347  -18.0595   22.3252 N   0  0  0  0  0  0  0  0  0  0  0  0
    6.0139  -17.7704   23.7188 C   0  0  0  0  0  0  0  0  0  0  0  0
    7.2807  -17.2019   24.2900 C   0  0  0  0  0  0  0  0  0  0  0  0
    8.3425  -17.1316   23.5980 O   0  0  0  0  0  0  0  0  0  0  0  0
    7.3606  -16.7175   25.6189 N   0  0  0  0  0  0  0  0  0  0  0  0
    8.5389  -16.0927   26.1540 C   0  0  1  0  0  0  0  0  0  0  0  0
    8.2359  -15.0396   27.1880 C   0  0  0  0  0  0  0  0  0  0  0  0
    7.6628  -13.8137   26.6131 C   0  0  0  0  0  0  0  0  0  0  0  0
    8.4193  -12.9821   25.8152 C   0  0  0  0  0  0  0  0  0  0  0  0
    7.8865  -11.8172   25.2647 C   0  0  0  0  0  0  0  0  0  0  0  0
    6.5824  -11.4574   25.5006 C   0  0  0  0  0  0  0  0  0  0  0  0
    5.8184  -12.2823   26.2969 C   0  0  0  0  0  0  0  0  0  0  0  0
    6.3544  -13.4352   26.8385 C   0  0  0  0  0  0  0  0  0  0  0  0
    9.4254  -17.1530   26.6909 C   0  0  0  0  0  0  0  0  0  0  0  0
    8.9938  -18.2803   27.0532 O   0  0  0  0  0  0  0  0  0  0  0  0
   10.8007  -16.9553   26.8246 O   0  0  0  0  0  0  0  0  0  0  0  0
  2  1  1  0
  3  2  1  0
  4  3  2  0
  5  3  1  0
  6  5  1  0
  7  8  2  0
  7  6  1  0
  9  7  1  0
 10  9  1  0
 10 11  1  1
 11 12  1  0
 12 17  2  0
 12 13  1  0
 13 14  2  0
 14 15  1  0
 16 15  2  0
 17 16  1  0
 18 10  1  0
 19 18  2  0
 20 18  1  0
M  END
$$$$
