GGF.pdb
     RDKit          3D

 20 20  0  0  1  0  0  0  0  0999 V2000
    8.5015  -12.4485   18.5220 N   0  0  0  0  0  0  0  0  0  0  0  0
    8.6772  -13.8018   18.8977 C   0  0  0  0  0  0  0  0  0  0  0  0
    7.9477  -14.0400   20.1827 C   0  0  0  0  0  0  0  0  0  0  0  0
    7.5467  -13.0884   20.9046 O   0  0  0  0  0  0  0  0  0  0  0  0
    7.6794  -15.3612   20.6378 N   0  0  0  0  0  0  0  0  0  0  0  0
    6.9631  -15.6229   21.8596 C   0  0  0  0  0  0  0  0  0  0  0  0
    7.9487  -15.6336   22.9922 C   0  0  0  0  0  0  0  0  0  0  0  0
    9.1867  -15.4397   22.7905 O   0  0  0  0  0  0  0  0  0  0  0  0
    7.5558  -15.8584   24.3346 N   0  0  0  0  0  0  0  0  0  0  0  0
    8.4373  -15.6571   25.4517 C   0  0  1  0  0  0  0  0  0  0  0  0
    7.7242  -15.1956   26.6959 C   0  0  0  0  0  0  0  0  0  0  0  0
    7.1794  -13.8350   26.5785 C   0  0  0  0  0  0  0  0  0  0  0  0
    8.0128  -12.7454   26.4417 C   0  0  0  0  0  0  0  0  0  0  0  0
    7.5075  -11.4508   26.3295 C   0  0  0  0  0  0  0  0  0  0  0  0
    6.1545  -11.2168   26.3517 C   0  0  0  0  0  0  0  0  0  0  0  0
    5.3136  -12.2996   26.4881 C   0  0  0  0  0  0  0  0  0  0  0  0
    5.8229  -13.5795   26.5987 C   0  0  0  0  0  0  0  0  0  0  0  0
    9.1911  -16.9128   25.6822 C   0  0  0  0  0  0  0  0  0  0  0  0
    8.8084  -18.0269   25.2343 O   0  0  0  0  0  0  0  0  0  0  0  0
   10.3782  -16.9266   26.4164 O   0  0  0  0  0  0  0  0  0  0  0  0
  2  1  1  0
  3  2  1  0
  4  3  2  0
  5  3  1  0
  6  5  1  0
  7  8  2  0
  7  6  1  0
  9  7  1  0
 10  9  1  0
 10 11  1  1
 11 12  1  0
 12 17  2  0
 12 13  1  0
 13 14  2  0
 14 15  1  0
 16 15  2  0
 17 16  1  0
 18 10  1  0
 19 18  2  0
 20 18  1  0
M  END
$$$$
