GGF.pdb
     RDKit          3D

 20 20  0  0  1  0  0  0  0  0999 V2000
    5.7933  -18.8513   19.8054 N   0  0  0  0  0  0  0  0  0  0  0  0
    6.8296  -17.8961   19.6741 C   0  0  0  0  0  0  0  0  0  0  0  0
    6.5425  -16.7498   20.5927 C   0  0  0  0  0  0  0  0  0  0  0  0
    5.7231  -16.8510   21.5445 O   0  0  0  0  0  0  0  0  0  0  0  0
    7.1908  -15.4948   20.4215 N   0  0  0  0  0  0  0  0  0  0  0  0
    7.0083  -14.4031   21.3430 C   0  0  0  0  0  0  0  0  0  0  0  0
    8.0045  -14.5529   22.4563 C   0  0  0  0  0  0  0  0  0  0  0  0
    9.1685  -14.0539   22.3709 O   0  0  0  0  0  0  0  0  0  0  0  0
    7.7039  -15.2519   23.6513 N   0  0  0  0  0  0  0  0  0  0  0  0
    8.5665  -15.2431   24.8007 C   0  0  1  0  0  0  0  0  0  0  0  0
    7.8237  -15.0722   26.1001 C   0  0  0  0  0  0  0  0  0  0  0  0
    7.2794  -13.7183   26.2806 C   0  0  0  0  0  0  0  0  0  0  0  0
    8.1138  -12.6319   26.4346 C   0  0  0  0  0  0  0  0  0  0  0  0
    7.6090  -11.3436   26.6065 C   0  0  0  0  0  0  0  0  0  0  0  0
    6.2554  -11.1131   26.6282 C   0  0  0  0  0  0  0  0  0  0  0  0
    5.4134  -12.1928   26.4751 C   0  0  0  0  0  0  0  0  0  0  0  0
    5.9222  -13.4664   26.3052 C   0  0  0  0  0  0  0  0  0  0  0  0
    9.3736  -16.4867   24.7868 C   0  0  0  0  0  0  0  0  0  0  0  0
   10.2606  -16.7306   25.6482 O   0  0  0  0  0  0  0  0  0  0  0  0
    9.1908  -17.4640   23.8069 O   0  0  0  0  0  0  0  0  0  0  0  0
  2  1  1  0
  3  2  1  0
  4  3  2  0
  5  3  1  0
  6  5  1  0
  7  8  2  0
  7  6  1  0
  9  7  1  0
 10  9  1  0
 10 11  1  1
 11 12  1  0
 12 17  2  0
 12 13  1  0
 13 14  2  0
 14 15  1  0
 16 15  2  0
 17 16  1  0
 18 10  1  0
 19 18  2  0
 20 18  1  0
M  END
$$$$
