GGF.pdb
     RDKit          3D

 20 20  0  0  1  0  0  0  0  0999 V2000
    4.7947  -20.1122   20.6955 N   0  0  0  0  0  0  0  0  0  0  0  0
    4.9819  -18.7470   20.3723 C   0  0  0  0  0  0  0  0  0  0  0  0
    5.2087  -17.9825   21.6390 C   0  0  0  0  0  0  0  0  0  0  0  0
    5.3545  -16.7310   21.6419 O   0  0  0  0  0  0  0  0  0  0  0  0
    5.2681  -18.6486   22.8950 N   0  0  0  0  0  0  0  0  0  0  0  0
    5.5202  -17.9460   24.1267 C   0  0  0  0  0  0  0  0  0  0  0  0
    6.9229  -17.4119   24.0876 C   0  0  0  0  0  0  0  0  0  0  0  0
    7.7638  -17.8300   23.2337 O   0  0  0  0  0  0  0  0  0  0  0  0
    7.3809  -16.4223   24.9919 N   0  0  0  0  0  0  0  0  0  0  0  0
    8.7063  -15.8691   24.9405 C   0  0  1  0  0  0  0  0  0  0  0  0
    8.7262  -14.4056   24.5836 C   0  0  0  0  0  0  0  0  0  0  0  0
    7.8643  -13.5880   25.4500 C   0  0  0  0  0  0  0  0  0  0  0  0
    8.3510  -13.0287   26.6121 C   0  0  0  0  0  0  0  0  0  0  0  0
    7.5431  -12.2518   27.4413 C   0  0  0  0  0  0  0  0  0  0  0  0
    6.2275  -12.0166   27.1257 C   0  0  0  0  0  0  0  0  0  0  0  0
    5.7319  -12.5715   25.9661 C   0  0  0  0  0  0  0  0  0  0  0  0
    6.5397  -13.3403   25.1499 C   0  0  0  0  0  0  0  0  0  0  0  0
    9.3698  -16.1282   26.2408 C   0  0  0  0  0  0  0  0  0  0  0  0
    8.7323  -16.4711   27.2725 O   0  0  0  0  0  0  0  0  0  0  0  0
   10.7520  -16.0045   26.3918 O   0  0  0  0  0  0  0  0  0  0  0  0
  2  1  1  0
  3  2  1  0
  4  3  2  0
  5  3  1  0
  6  5  1  0
  7  8  2  0
  7  6  1  0
  9  7  1  0
 10  9  1  0
 10 11  1  1
 11 12  1  0
 12 17  2  0
 12 13  1  0
 13 14  2  0
 14 15  1  0
 16 15  2  0
 17 16  1  0
 18 10  1  0
 19 18  2  0
 20 18  1  0
M  END
$$$$
