GGF.pdb
     RDKit          3D

 20 20  0  0  1  0  0  0  0  0999 V2000
    4.4984  -19.3272   20.0970 N   0  0  0  0  0  0  0  0  0  0  0  0
    5.2069  -18.8579   21.2289 C   0  0  0  0  0  0  0  0  0  0  0  0
    6.0253  -17.6722   20.8230 C   0  0  0  0  0  0  0  0  0  0  0  0
    6.0305  -17.2434   19.6384 O   0  0  0  0  0  0  0  0  0  0  0  0
    6.8330  -16.9821   21.7696 N   0  0  0  0  0  0  0  0  0  0  0  0
    7.6195  -15.8292   21.4137 C   0  0  0  0  0  0  0  0  0  0  0  0
    8.3243  -15.3394   22.6456 C   0  0  0  0  0  0  0  0  0  0  0  0
    9.2790  -14.5062   22.5714 O   0  0  0  0  0  0  0  0  0  0  0  0
    7.9669  -15.7752   23.9453 N   0  0  0  0  0  0  0  0  0  0  0  0
    8.7986  -15.5625   25.0978 C   0  0  1  0  0  0  0  0  0  0  0  0
    8.0180  -15.2104   26.3373 C   0  0  0  0  0  0  0  0  0  0  0  0
    7.4472  -13.8560   26.2953 C   0  0  0  0  0  0  0  0  0  0  0  0
    8.1096  -12.8252   25.6636 C   0  0  0  0  0  0  0  0  0  0  0  0
    7.5781  -11.5371   25.6174 C   0  0  0  0  0  0  0  0  0  0  0  0
    6.3696  -11.2508   26.2033 C   0  0  0  0  0  0  0  0  0  0  0  0
    5.7001  -12.2746   26.8370 C   0  0  0  0  0  0  0  0  0  0  0  0
    6.2341  -13.5486   26.8781 C   0  0  0  0  0  0  0  0  0  0  0  0
    9.6349  -16.7703   25.2979 C   0  0  0  0  0  0  0  0  0  0  0  0
    9.4409  -17.8433   24.6661 O   0  0  0  0  0  0  0  0  0  0  0  0
   10.6937  -16.7818   26.2076 O   0  0  0  0  0  0  0  0  0  0  0  0
  2  1  1  0
  3  2  1  0
  4  3  2  0
  5  3  1  0
  6  5  1  0
  7  8  2  0
  7  6  1  0
  9  7  1  0
 10  9  1  0
 10 11  1  1
 11 12  1  0
 12 17  2  0
 12 13  1  0
 13 14  2  0
 14 15  1  0
 16 15  2  0
 17 16  1  0
 18 10  1  0
 19 18  2  0
 20 18  1  0
M  END
$$$$
