GGF.pdb
     RDKit          3D

 20 20  0  0  1  0  0  0  0  0999 V2000
    6.8936  -21.5015   21.8272 N   0  0  0  0  0  0  0  0  0  0  0  0
    5.7845  -20.7090   21.4461 C   0  0  0  0  0  0  0  0  0  0  0  0
    5.8911  -19.3793   22.1250 C   0  0  0  0  0  0  0  0  0  0  0  0
    6.2039  -18.3348   21.4937 O   0  0  0  0  0  0  0  0  0  0  0  0
    5.6406  -19.2476   23.5195 N   0  0  0  0  0  0  0  0  0  0  0  0
    5.6429  -17.9696   24.1837 C   0  0  0  0  0  0  0  0  0  0  0  0
    7.0673  -17.5232   24.3447 C   0  0  0  0  0  0  0  0  0  0  0  0
    8.0351  -18.3122   24.1173 O   0  0  0  0  0  0  0  0  0  0  0  0
    7.4067  -16.2104   24.7552 N   0  0  0  0  0  0  0  0  0  0  0  0
    8.7569  -15.7183   24.7642 C   0  0  1  0  0  0  0  0  0  0  0  0
    8.8490  -14.2309   24.5429 C   0  0  0  0  0  0  0  0  0  0  0  0
    7.9638  -13.4594   25.4277 C   0  0  0  0  0  0  0  0  0  0  0  0
    6.6598  -13.1910   25.0697 C   0  0  0  0  0  0  0  0  0  0  0  0
    5.8114  -12.4605   25.9006 C   0  0  0  0  0  0  0  0  0  0  0  0
    6.2494  -11.9811   27.1106 C   0  0  0  0  0  0  0  0  0  0  0  0
    7.5511  -12.2443   27.4771 C   0  0  0  0  0  0  0  0  0  0  0  0
    8.3854  -12.9692   26.6475 C   0  0  0  0  0  0  0  0  0  0  0  0
    9.3926  -16.1259   26.0401 C   0  0  0  0  0  0  0  0  0  0  0  0
    8.7252  -16.4755   27.0504 O   0  0  0  0  0  0  0  0  0  0  0  0
   10.7802  -16.1437   26.1906 O   0  0  0  0  0  0  0  0  0  0  0  0
  2  1  1  0
  3  2  1  0
  4  3  2  0
  5  3  1  0
  6  5  1  0
  7  8  2  0
  7  6  1  0
  9  7  1  0
 10  9  1  0
 10 11  1  1
 11 12  1  0
 12 17  2  0
 12 13  1  0
 13 14  2  0
 14 15  1  0
 16 15  2  0
 17 16  1  0
 18 10  1  0
 19 18  2  0
 20 18  1  0
M  END
$$$$
