GGF.pdb
     RDKit          3D

 20 20  0  0  1  0  0  0  0  0999 V2000
    8.4054  -17.6112   17.3305 N   0  0  0  0  0  0  0  0  0  0  0  0
    9.0684  -16.7868   18.2709 C   0  0  0  0  0  0  0  0  0  0  0  0
    8.1073  -16.4408   19.3649 C   0  0  0  0  0  0  0  0  0  0  0  0
    6.8748  -16.2989   19.1454 O   0  0  0  0  0  0  0  0  0  0  0  0
    8.5563  -16.2586   20.7027 N   0  0  0  0  0  0  0  0  0  0  0  0
    7.6534  -15.9493   21.7814 C   0  0  0  0  0  0  0  0  0  0  0  0
    8.4476  -15.8641   23.0527 C   0  0  0  0  0  0  0  0  0  0  0  0
    9.6762  -15.5457   23.0425 O   0  0  0  0  0  0  0  0  0  0  0  0
    7.8758  -16.1316   24.3210 N   0  0  0  0  0  0  0  0  0  0  0  0
    8.5706  -15.8978   25.5572 C   0  0  1  0  0  0  0  0  0  0  0  0
    7.6729  -15.3954   26.6578 C   0  0  0  0  0  0  0  0  0  0  0  0
    7.3146  -13.9772   26.5089 C   0  0  0  0  0  0  0  0  0  0  0  0
    8.2699  -12.9886   26.6113 C   0  0  0  0  0  0  0  0  0  0  0  0
    7.9418  -11.6406   26.4719 C   0  0  0  0  0  0  0  0  0  0  0  0
    6.6482  -11.2509   26.2264 C   0  0  0  0  0  0  0  0  0  0  0  0
    5.6864  -12.2318   26.1224 C   0  0  0  0  0  0  0  0  0  0  0  0
    6.0202  -13.5656   26.2619 C   0  0  0  0  0  0  0  0  0  0  0  0
    9.2685  -17.1478   25.9428 C   0  0  0  0  0  0  0  0  0  0  0  0
    8.8816  -18.2862   25.5649 O   0  0  0  0  0  0  0  0  0  0  0  0
   10.4041  -17.1286   26.7542 O   0  0  0  0  0  0  0  0  0  0  0  0
  2  1  1  0
  3  2  1  0
  4  3  2  0
  5  3  1  0
  6  5  1  0
  7  8  2  0
  7  6  1  0
  9  7  1  0
 10  9  1  0
 10 11  1  1
 11 12  1  0
 12 17  2  0
 12 13  1  0
 13 14  2  0
 14 15  1  0
 16 15  2  0
 17 16  1  0
 18 10  1  0
 19 18  2  0
 20 18  1  0
M  END
$$$$
