GGF.pdb
     RDKit          3D

 20 20  0  0  1  0  0  0  0  0999 V2000
    7.8847  -12.5250   18.0205 N   0  0  0  0  0  0  0  0  0  0  0  0
    7.4176  -13.0789   19.2364 C   0  0  0  0  0  0  0  0  0  0  0  0
    8.2950  -14.2347   19.6035 C   0  0  0  0  0  0  0  0  0  0  0  0
    8.8822  -14.9263   18.7293 O   0  0  0  0  0  0  0  0  0  0  0  0
    8.4982  -14.5955   20.9648 N   0  0  0  0  0  0  0  0  0  0  0  0
    9.4102  -15.6395   21.3556 C   0  0  0  0  0  0  0  0  0  0  0  0
    9.4913  -15.6595   22.8547 C   0  0  0  0  0  0  0  0  0  0  0  0
   10.6052  -15.5650   23.4559 O   0  0  0  0  0  0  0  0  0  0  0  0
    8.3415  -15.7837   23.6728 N   0  0  0  0  0  0  0  0  0  0  0  0
    8.3992  -15.7811   25.1088 C   0  0  1  0  0  0  0  0  0  0  0  0
    7.0913  -15.4065   25.7557 C   0  0  0  0  0  0  0  0  0  0  0  0
    6.9146  -13.9542   25.9025 C   0  0  0  0  0  0  0  0  0  0  0  0
    5.9351  -13.4371   26.7233 C   0  0  0  0  0  0  0  0  0  0  0  0
    5.7583  -12.0620   26.8702 C   0  0  0  0  0  0  0  0  0  0  0  0
    6.5589  -11.1716   26.1979 C   0  0  0  0  0  0  0  0  0  0  0  0
    7.5407  -11.6790   25.3751 C   0  0  0  0  0  0  0  0  0  0  0  0
    7.7091  -13.0435   25.2353 C   0  0  0  0  0  0  0  0  0  0  0  0
    8.8750  -17.1116   25.5581 C   0  0  0  0  0  0  0  0  0  0  0  0
    8.7497  -18.1506   24.8559 O   0  0  0  0  0  0  0  0  0  0  0  0
    9.4940  -17.2846   26.7972 O   0  0  0  0  0  0  0  0  0  0  0  0
  2  1  1  0
  3  2  1  0
  4  3  2  0
  5  3  1  0
  6  5  1  0
  7  8  2  0
  7  6  1  0
  9  7  1  0
 10  9  1  0
 10 11  1  1
 11 12  1  0
 12 17  2  0
 12 13  1  0
 13 14  2  0
 14 15  1  0
 16 15  2  0
 17 16  1  0
 18 10  1  0
 19 18  2  0
 20 18  1  0
M  END
$$$$
