GGF.pdb
     RDKit          3D

 20 20  0  0  1  0  0  0  0  0999 V2000
    7.7898  -12.7232   18.0042 N   0  0  0  0  0  0  0  0  0  0  0  0
    8.7376  -13.1821   18.9499 C   0  0  0  0  0  0  0  0  0  0  0  0
    8.0059  -13.8173   20.0908 C   0  0  0  0  0  0  0  0  0  0  0  0
    6.9831  -13.2871   20.6007 O   0  0  0  0  0  0  0  0  0  0  0  0
    8.4440  -15.0530   20.6437 N   0  0  0  0  0  0  0  0  0  0  0  0
    7.7388  -15.7091   21.7146 C   0  0  0  0  0  0  0  0  0  0  0  0
    8.5370  -15.5460   22.9758 C   0  0  0  0  0  0  0  0  0  0  0  0
    9.7170  -15.0789   22.9534 O   0  0  0  0  0  0  0  0  0  0  0  0
    8.0229  -15.9006   24.2473 N   0  0  0  0  0  0  0  0  0  0  0  0
    8.7760  -15.7577   25.4630 C   0  0  1  0  0  0  0  0  0  0  0  0
    7.9285  -15.3631   26.6444 C   0  0  0  0  0  0  0  0  0  0  0  0
    7.4059  -13.9921   26.5482 C   0  0  0  0  0  0  0  0  0  0  0  0
    8.2367  -12.9028   26.7014 C   0  0  0  0  0  0  0  0  0  0  0  0
    7.7523  -11.5984   26.6123 C   0  0  0  0  0  0  0  0  0  0  0  0
    6.4234  -11.3542   26.3674 C   0  0  0  0  0  0  0  0  0  0  0  0
    5.5852  -12.4367   26.2128 C   0  0  0  0  0  0  0  0  0  0  0  0
    6.0736  -13.7263   26.3027 C   0  0  0  0  0  0  0  0  0  0  0  0
    9.5085  -17.0232   25.7085 C   0  0  0  0  0  0  0  0  0  0  0  0
    9.1877  -18.1113   25.1595 O   0  0  0  0  0  0  0  0  0  0  0  0
   10.6048  -17.0758   26.5710 O   0  0  0  0  0  0  0  0  0  0  0  0
  2  1  1  0
  3  2  1  0
  4  3  2  0
  5  3  1  0
  6  5  1  0
  7  8  2  0
  7  6  1  0
  9  7  1  0
 10  9  1  0
 10 11  1  1
 11 12  1  0
 12 17  2  0
 12 13  1  0
 13 14  2  0
 14 15  1  0
 16 15  2  0
 17 16  1  0
 18 10  1  0
 19 18  2  0
 20 18  1  0
M  END
$$$$
