NLC.pdb
     RDKit          3D

 23 22  0  0  1  0  0  0  0  0999 V2000
    7.5580  -12.4984   18.3324 N   0  0  0  0  0  0  0  0  0  0  0  0
    8.2919  -13.4833   19.0555 C   0  0  0  0  0  0  0  0  0  0  0  0
    8.8177  -14.4423   18.4568 O   0  0  0  0  0  0  0  0  0  0  0  0
    8.4405  -13.3825   20.5331 C   0  0  0  0  0  0  0  0  0  0  0  0
    8.3546  -14.7028   21.1835 C   0  0  2  0  0  0  0  0  0  0  0  0
    6.9601  -15.1873   21.1684 N   0  0  0  0  0  0  0  0  0  0  0  0
    8.6964  -14.7122   22.6473 C   0  0  0  0  0  0  0  0  0  0  0  0
    9.9559  -14.5266   22.8397 O   0  0  0  0  0  0  0  0  0  0  0  0
    5.8707  -12.1751   26.7180 C   0  0  0  0  0  0  0  0  0  0  0  0
    6.9930  -12.7432   25.9386 C   0  0  1  0  0  0  0  0  0  0  0  0
    8.2691  -12.0638   26.4332 C   0  0  0  0  0  0  0  0  0  0  0  0
    7.1242  -14.1978   25.8263 C   0  0  0  0  0  0  0  0  0  0  0  0
    8.2014  -14.8546   25.0880 C   0  0  2  0  0  0  0  0  0  0  0  0
    7.7541  -14.9033   23.6604 N   0  0  0  0  0  0  0  0  0  0  0  0
    8.6027  -16.2281   25.3863 C   0  0  0  0  0  0  0  0  0  0  0  0
    7.7565  -17.1945   25.4336 O   0  0  0  0  0  0  0  0  0  0  0  0
    9.9539  -16.6639   25.6450 N   0  0  0  0  0  0  0  0  0  0  0  0
   10.2481  -18.0232   25.9683 C   0  0  1  0  0  0  0  0  0  0  0  0
   11.5310  -18.4995   25.2746 C   0  0  0  0  0  0  0  0  0  0  0  0
   12.8547  -17.2981   25.5685 S   0  0  0  0  0  0  0  0  0  0  0  0
   10.3457  -18.2919   27.4170 C   0  0  0  0  0  0  0  0  0  0  0  0
   10.5380  -19.6061   27.8482 O   0  0  0  0  0  0  0  0  0  0  0  0
   10.2697  -17.4250   28.3130 O   0  0  0  0  0  0  0  0  0  0  0  0
  2  1  1  0
  2  3  2  0
  4  2  1  0
  5  4  1  0
  5  6  1  1
  7  5  1  0
  7  8  2  0
 10  9  1  1
 10 12  1  0
 11 10  1  0
 13 12  1  1
 13 15  1  0
 13 14  1  0
 14  7  1  0
 15 17  1  0
 16 15  2  0
 17 18  1  0
 18 21  1  0
 19 20  1  0
 18 19  1  6
 21 23  2  0
 21 22  1  0
M  END
$$$$
