NLC.pdb
     RDKit          3D

 23 22  0  0  1  0  0  0  0  0999 V2000
    7.1347  -18.6708   19.3172 N   0  0  0  0  0  0  0  0  0  0  0  0
    7.9413  -18.9085   20.4681 C   0  0  0  0  0  0  0  0  0  0  0  0
    8.8642  -19.7459   20.4284 O   0  0  0  0  0  0  0  0  0  0  0  0
    7.6938  -18.1626   21.7323 C   0  0  0  0  0  0  0  0  0  0  0  0
    8.0685  -16.7418   21.6121 C   0  0  2  0  0  0  0  0  0  0  0  0
    9.2958  -16.6062   20.8028 N   0  0  0  0  0  0  0  0  0  0  0  0
    8.4448  -16.0735   22.9050 C   0  0  0  0  0  0  0  0  0  0  0  0
    9.7221  -16.0331   23.0618 O   0  0  0  0  0  0  0  0  0  0  0  0
    6.1786  -11.8510   26.6765 C   0  0  0  0  0  0  0  0  0  0  0  0
    7.2956  -12.6761   26.1654 C   0  0  1  0  0  0  0  0  0  0  0  0
    8.2334  -12.9370   27.3432 C   0  0  0  0  0  0  0  0  0  0  0  0
    6.9992  -13.8830   25.3900 C   0  0  0  0  0  0  0  0  0  0  0  0
    8.0022  -14.8931   25.0575 C   0  0  2  0  0  0  0  0  0  0  0  0
    7.5129  -15.5679   23.8142 N   0  0  0  0  0  0  0  0  0  0  0  0
    8.3058  -15.9946   25.9690 C   0  0  0  0  0  0  0  0  0  0  0  0
    7.4271  -16.8725   26.3000 O   0  0  0  0  0  0  0  0  0  0  0  0
    9.5885  -16.2380   26.5839 N   0  0  0  0  0  0  0  0  0  0  0  0
    9.8062  -17.3686   27.4284 C   0  0  1  0  0  0  0  0  0  0  0  0
   10.6034  -18.4627   26.7063 C   0  0  0  0  0  0  0  0  0  0  0  0
   12.0899  -17.7357   25.9690 S   0  0  0  0  0  0  0  0  0  0  0  0
   10.4653  -17.0470   28.7100 C   0  0  0  0  0  0  0  0  0  0  0  0
   10.6202  -18.0573   29.6615 O   0  0  0  0  0  0  0  0  0  0  0  0
   10.9079  -15.9224   29.0255 O   0  0  0  0  0  0  0  0  0  0  0  0
  2  1  1  0
  2  3  2  0
  4  2  1  0
  5  4  1  0
  5  6  1  6
  7  5  1  0
  7  8  2  0
 10  9  1  1
 10 12  1  0
 11 10  1  0
 13 12  1  1
 13 15  1  0
 13 14  1  0
 14  7  1  0
 15 17  1  0
 16 15  2  0
 17 18  1  0
 18 21  1  0
 19 20  1  0
 18 19  1  6
 21 23  2  0
 21 22  1  0
M  END
$$$$
