NLC.pdb
     RDKit          3D

 23 22  0  0  1  0  0  0  0  0999 V2000
    7.0387  -13.1721   18.7485 N   0  0  0  0  0  0  0  0  0  0  0  0
    8.0870  -13.9322   19.3442 C   0  0  0  0  0  0  0  0  0  0  0  0
    8.7473  -14.7387   18.6599 O   0  0  0  0  0  0  0  0  0  0  0  0
    8.4079  -13.7757   20.7893 C   0  0  0  0  0  0  0  0  0  0  0  0
    8.4857  -15.0774   21.4771 C   0  0  2  0  0  0  0  0  0  0  0  0
    7.1560  -15.7184   21.5043 N   0  0  0  0  0  0  0  0  0  0  0  0
    8.8519  -15.0044   22.9332 C   0  0  0  0  0  0  0  0  0  0  0  0
   10.0936  -14.7040   23.0937 O   0  0  0  0  0  0  0  0  0  0  0  0
    5.8263  -12.4139   26.7524 C   0  0  0  0  0  0  0  0  0  0  0  0
    6.9960  -12.9555   26.0257 C   0  0  1  0  0  0  0  0  0  0  0  0
    8.2029  -12.1094   26.4287 C   0  0  0  0  0  0  0  0  0  0  0  0
    7.2642  -14.3949   26.0700 C   0  0  0  0  0  0  0  0  0  0  0  0
    8.3908  -15.0256   25.3845 C   0  0  2  0  0  0  0  0  0  0  0  0
    7.9473  -15.2395   23.9710 N   0  0  0  0  0  0  0  0  0  0  0  0
    8.9038  -16.3291   25.8018 C   0  0  0  0  0  0  0  0  0  0  0  0
    8.1407  -17.3546   25.9376 O   0  0  0  0  0  0  0  0  0  0  0  0
   10.2856  -16.6264   26.0932 N   0  0  0  0  0  0  0  0  0  0  0  0
   10.6743  -17.8800   26.6555 C   0  0  1  0  0  0  0  0  0  0  0  0
   12.1073  -18.2541   26.2549 C   0  0  0  0  0  0  0  0  0  0  0  0
   12.3222  -17.9902   24.4755 S   0  0  0  0  0  0  0  0  0  0  0  0
   10.5421  -17.9498   28.1245 C   0  0  0  0  0  0  0  0  0  0  0  0
   10.8302  -19.1533   28.7716 O   0  0  0  0  0  0  0  0  0  0  0  0
   10.1865  -17.0031   28.8575 O   0  0  0  0  0  0  0  0  0  0  0  0
  2  1  1  0
  2  3  2  0
  4  2  1  0
  5  4  1  0
  5  6  1  1
  7  5  1  0
  7  8  2  0
 10  9  1  1
 10 12  1  0
 11 10  1  0
 13 12  1  1
 13 15  1  0
 13 14  1  0
 14  7  1  0
 15 17  1  0
 16 15  2  0
 17 18  1  0
 18 21  1  0
 19 20  1  0
 18 19  1  1
 21 23  2  0
 21 22  1  0
M  END
$$$$
