NLC.pdb
     RDKit          3D

 23 22  0  0  1  0  0  0  0  0999 V2000
    8.5976  -18.6536   18.4083 N   0  0  0  0  0  0  0  0  0  0  0  0
    7.7391  -18.0846   19.3935 C   0  0  0  0  0  0  0  0  0  0  0  0
    6.5067  -18.0457   19.2082 O   0  0  0  0  0  0  0  0  0  0  0  0
    8.2998  -17.5286   20.6553 C   0  0  0  0  0  0  0  0  0  0  0  0
    8.2469  -16.0553   20.6755 C   0  0  2  0  0  0  0  0  0  0  0  0
    9.2514  -15.4977   19.7484 N   0  0  0  0  0  0  0  0  0  0  0  0
    8.6177  -15.4254   21.9891 C   0  0  0  0  0  0  0  0  0  0  0  0
    9.8945  -15.3236   22.1207 O   0  0  0  0  0  0  0  0  0  0  0  0
    8.0828  -11.9454   26.4112 C   0  0  0  0  0  0  0  0  0  0  0  0
    7.1138  -13.0176   26.0934 C   0  0  1  0  0  0  0  0  0  0  0  0
    5.7375  -12.5203   26.5328 C   0  0  0  0  0  0  0  0  0  0  0  0
    7.1098  -13.6058   24.7519 C   0  0  0  0  0  0  0  0  0  0  0  0
    8.1657  -14.4864   24.2554 C   0  0  2  0  0  0  0  0  0  0  0  0
    7.6821  -15.0108   22.9396 N   0  0  0  0  0  0  0  0  0  0  0  0
    8.5702  -15.6821   24.9924 C   0  0  0  0  0  0  0  0  0  0  0  0
    7.7521  -16.6406   25.2458 O   0  0  0  0  0  0  0  0  0  0  0  0
    9.8958  -15.9381   25.5024 N   0  0  0  0  0  0  0  0  0  0  0  0
   10.2099  -17.1546   26.1807 C   0  0  1  0  0  0  0  0  0  0  0  0
   11.5748  -17.7033   25.7450 C   0  0  0  0  0  0  0  0  0  0  0  0
   11.6307  -17.8095   23.9374 S   0  0  0  0  0  0  0  0  0  0  0  0
   10.1701  -17.0526   27.6532 C   0  0  0  0  0  0  0  0  0  0  0  0
   10.4348  -18.1919   28.4161 O   0  0  0  0  0  0  0  0  0  0  0  0
    9.9143  -16.0104   28.2924 O   0  0  0  0  0  0  0  0  0  0  0  0
  2  1  1  0
  2  3  2  0
  4  2  1  0
  5  4  1  0
  5  6  1  6
  7  5  1  0
  7  8  2  0
 10  9  1  6
 10 12  1  0
 11 10  1  0
 13 12  1  1
 13 15  1  0
 13 14  1  0
 14  7  1  0
 15 17  1  0
 16 15  2  0
 17 18  1  0
 18 21  1  0
 19 20  1  0
 18 19  1  1
 21 23  2  0
 21 22  1  0
M  END
$$$$
