NLC.pdb
     RDKit          3D

 23 22  0  0  1  0  0  0  0  0999 V2000
   11.0857  -18.2202   18.9774 N   0  0  0  0  0  0  0  0  0  0  0  0
   10.0519  -17.2401   19.0265 C   0  0  0  0  0  0  0  0  0  0  0  0
    9.1477  -17.2351   18.1680 O   0  0  0  0  0  0  0  0  0  0  0  0
   10.0369  -16.2097   20.1006 C   0  0  0  0  0  0  0  0  0  0  0  0
    9.7758  -16.8028   21.4248 C   0  0  2  0  0  0  0  0  0  0  0  0
    8.4688  -17.4892   21.4257 N   0  0  0  0  0  0  0  0  0  0  0  0
    9.6343  -15.8122   22.5467 C   0  0  0  0  0  0  0  0  0  0  0  0
   10.6627  -15.0418   22.6293 O   0  0  0  0  0  0  0  0  0  0  0  0
    5.5919  -12.7926   25.9680 C   0  0  0  0  0  0  0  0  0  0  0  0
    6.5651  -12.9631   24.8664 C   0  0  1  0  0  0  0  0  0  0  0  0
    7.7058  -11.9792   25.1221 C   0  0  0  0  0  0  0  0  0  0  0  0
    7.0336  -14.3084   24.5254 C   0  0  0  0  0  0  0  0  0  0  0  0
    8.4469  -14.6656   24.4169 C   0  0  2  0  0  0  0  0  0  0  0  0
    8.5213  -15.7503   23.3882 N   0  0  0  0  0  0  0  0  0  0  0  0
    9.1878  -15.2003   25.5578 C   0  0  0  0  0  0  0  0  0  0  0  0
    9.7147  -16.3727   25.5443 O   0  0  0  0  0  0  0  0  0  0  0  0
    9.4257  -14.5020   26.7981 N   0  0  0  0  0  0  0  0  0  0  0  0
   10.4848  -14.8847   27.6760 C   0  0  1  0  0  0  0  0  0  0  0  0
   10.7366  -13.8178   28.7494 C   0  0  0  0  0  0  0  0  0  0  0  0
   11.1095  -14.6280   30.3263 S   0  0  0  0  0  0  0  0  0  0  0  0
   10.2869  -16.1960   28.3254 C   0  0  0  0  0  0  0  0  0  0  0  0
    8.9850  -16.6543   28.5378 O   0  0  0  0  0  0  0  0  0  0  0  0
   11.2048  -16.9503   28.7108 O   0  0  0  0  0  0  0  0  0  0  0  0
  2  1  1  0
  2  3  2  0
  4  2  1  0
  5  4  1  0
  5  6  1  6
  7  5  1  0
  7  8  2  0
 10  9  1  1
 10 12  1  0
 11 10  1  0
 13 12  1  1
 13 15  1  0
 13 14  1  0
 14  7  1  0
 15 17  1  0
 16 15  2  0
 17 18  1  0
 18 21  1  0
 19 20  1  0
 18 19  1  1
 21 23  2  0
 21 22  1  0
M  END
$$$$
