NLC.pdb
     RDKit          3D

 23 22  0  0  1  0  0  0  0  0999 V2000
    9.6006  -15.8518   18.0418 N   0  0  0  0  0  0  0  0  0  0  0  0
    8.5106  -15.8176   18.9597 C   0  0  0  0  0  0  0  0  0  0  0  0
    7.4066  -16.3037   18.6445 O   0  0  0  0  0  0  0  0  0  0  0  0
    8.6736  -15.2016   20.3049 C   0  0  0  0  0  0  0  0  0  0  0  0
    8.5184  -16.1941   21.3840 C   0  0  2  0  0  0  0  0  0  0  0  0
    7.1044  -16.6024   21.4999 N   0  0  0  0  0  0  0  0  0  0  0  0
    8.8341  -15.6860   22.7632 C   0  0  0  0  0  0  0  0  0  0  0  0
   10.0682  -15.3331   22.8658 O   0  0  0  0  0  0  0  0  0  0  0  0
    5.8037  -12.3835   26.1821 C   0  0  0  0  0  0  0  0  0  0  0  0
    6.9531  -13.0291   25.5101 C   0  0  1  0  0  0  0  0  0  0  0  0
    8.1763  -12.1534   25.7778 C   0  0  0  0  0  0  0  0  0  0  0  0
    7.2075  -14.4540   25.7352 C   0  0  0  0  0  0  0  0  0  0  0  0
    8.3405  -15.1715   25.1535 C   0  0  2  0  0  0  0  0  0  0  0  0
    7.8955  -15.6151   23.7950 N   0  0  0  0  0  0  0  0  0  0  0  0
    8.8731  -16.3843   25.7715 C   0  0  0  0  0  0  0  0  0  0  0  0
    8.1240  -17.3825   26.0793 O   0  0  0  0  0  0  0  0  0  0  0  0
   10.2608  -16.6152   26.0935 N   0  0  0  0  0  0  0  0  0  0  0  0
   10.6722  -17.7688   26.8275 C   0  0  1  0  0  0  0  0  0  0  0  0
   12.0670  -18.2402   26.3957 C   0  0  0  0  0  0  0  0  0  0  0  0
   12.1670  -18.2430   24.5869 S   0  0  0  0  0  0  0  0  0  0  0  0
   10.6466  -17.5926   28.2934 C   0  0  0  0  0  0  0  0  0  0  0  0
   11.0343  -18.6585   29.1081 O   0  0  0  0  0  0  0  0  0  0  0  0
   10.3001  -16.5476   28.8833 O   0  0  0  0  0  0  0  0  0  0  0  0
  2  1  1  0
  2  3  2  0
  4  2  1  0
  5  4  1  0
  5  6  1  1
  7  5  1  0
  7  8  2  0
 10  9  1  1
 10 12  1  0
 11 10  1  0
 13 12  1  1
 13 15  1  0
 13 14  1  0
 14  7  1  0
 15 17  1  0
 16 15  2  0
 17 18  1  0
 18 21  1  0
 19 20  1  0
 18 19  1  6
 21 23  2  0
 21 22  1  0
M  END
$$$$
