NLC.pdb
     RDKit          3D

 23 22  0  0  1  0  0  0  0  0999 V2000
   10.0219  -19.3992   19.6408 N   0  0  0  0  0  0  0  0  0  0  0  0
    9.0651  -18.7203   20.4502 C   0  0  0  0  0  0  0  0  0  0  0  0
    7.8486  -18.8007   20.1886 O   0  0  0  0  0  0  0  0  0  0  0  0
    9.5029  -17.9059   21.6167 C   0  0  0  0  0  0  0  0  0  0  0  0
    8.8184  -16.6009   21.6614 C   0  0  2  0  0  0  0  0  0  0  0  0
    9.3310  -15.7211   20.5924 N   0  0  0  0  0  0  0  0  0  0  0  0
    9.0684  -15.7959   22.9060 C   0  0  0  0  0  0  0  0  0  0  0  0
   10.1999  -15.1837   22.8536 O   0  0  0  0  0  0  0  0  0  0  0  0
    5.4621  -12.5401   26.0479 C   0  0  0  0  0  0  0  0  0  0  0  0
    6.6789  -13.0056   25.3460 C   0  0  1  0  0  0  0  0  0  0  0  0
    7.7327  -11.9107   25.5054 C   0  0  0  0  0  0  0  0  0  0  0  0
    7.1983  -14.3466   25.6243 C   0  0  0  0  0  0  0  0  0  0  0  0
    8.4869  -14.8294   25.1309 C   0  0  2  0  0  0  0  0  0  0  0  0
    8.1761  -15.7329   23.9787 N   0  0  0  0  0  0  0  0  0  0  0  0
    9.3795  -15.6194   25.9769 C   0  0  0  0  0  0  0  0  0  0  0  0
    9.3294  -16.9032   26.0152 O   0  0  0  0  0  0  0  0  0  0  0  0
   10.4041  -15.0806   26.8387 N   0  0  0  0  0  0  0  0  0  0  0  0
   11.1953  -15.9272   27.6730 C   0  0  1  0  0  0  0  0  0  0  0  0
   11.9300  -15.1221   28.7528 C   0  0  0  0  0  0  0  0  0  0  0  0
   10.8282  -13.8370   29.3982 S   0  0  0  0  0  0  0  0  0  0  0  0
   10.4398  -17.0248   28.3092 C   0  0  0  0  0  0  0  0  0  0  0  0
   11.1425  -18.0252   28.9840 O   0  0  0  0  0  0  0  0  0  0  0  0
    9.1961  -17.1397   28.2966 O   0  0  0  0  0  0  0  0  0  0  0  0
  2  1  1  0
  2  3  2  0
  4  2  1  0
  5  4  1  0
  5  6  1  6
  7  5  1  0
  7  8  2  0
 10  9  1  1
 10 12  1  0
 11 10  1  0
 13 12  1  1
 13 15  1  0
 13 14  1  0
 14  7  1  0
 15 17  1  0
 16 15  2  0
 17 18  1  0
 18 21  1  0
 19 20  1  0
 18 19  1  1
 21 23  2  0
 21 22  1  0
M  END
$$$$
