NLC.pdb
     RDKit          3D

 23 22  0  0  1  0  0  0  0  0999 V2000
    9.0708  -17.4370   19.1808 N   0  0  0  0  0  0  0  0  0  0  0  0
    9.8439  -16.2579   19.3896 C   0  0  0  0  0  0  0  0  0  0  0  0
   10.5138  -15.7709   18.4575 O   0  0  0  0  0  0  0  0  0  0  0  0
    9.8636  -15.5922   20.7208 C   0  0  0  0  0  0  0  0  0  0  0  0
    9.0973  -16.3527   21.7247 C   0  0  2  0  0  0  0  0  0  0  0  0
    7.6491  -16.1971   21.4839 N   0  0  0  0  0  0  0  0  0  0  0  0
    9.2547  -15.8721   23.1404 C   0  0  0  0  0  0  0  0  0  0  0  0
   10.4953  -15.7500   23.4628 O   0  0  0  0  0  0  0  0  0  0  0  0
    5.8721  -12.3668   26.0963 C   0  0  0  0  0  0  0  0  0  0  0  0
    7.1124  -13.0297   25.6360 C   0  0  1  0  0  0  0  0  0  0  0  0
    8.2833  -12.2001   26.1609 C   0  0  0  0  0  0  0  0  0  0  0  0
    7.2824  -14.4674   25.8595 C   0  0  0  0  0  0  0  0  0  0  0  0
    8.4528  -15.2193   25.4104 C   0  0  2  0  0  0  0  0  0  0  0  0
    8.1792  -15.5997   23.9888 N   0  0  0  0  0  0  0  0  0  0  0  0
    8.8439  -16.4742   26.0498 C   0  0  0  0  0  0  0  0  0  0  0  0
    8.0180  -17.4450   26.2165 O   0  0  0  0  0  0  0  0  0  0  0  0
   10.1634  -16.7798   26.5479 N   0  0  0  0  0  0  0  0  0  0  0  0
   10.4573  -18.0400   27.1515 C   0  0  1  0  0  0  0  0  0  0  0  0
   11.6420  -18.7293   26.4620 C   0  0  0  0  0  0  0  0  0  0  0  0
   12.0599  -20.2465   27.3595 S   0  0  0  0  0  0  0  0  0  0  0  0
   10.7095  -17.9695   28.6047 C   0  0  0  0  0  0  0  0  0  0  0  0
   10.8340  -19.1583   29.3266 O   0  0  0  0  0  0  0  0  0  0  0  0
   10.8243  -16.9132   29.2613 O   0  0  0  0  0  0  0  0  0  0  0  0
  2  1  1  0
  2  3  2  0
  4  2  1  0
  5  4  1  0
  5  6  1  6
  7  5  1  0
  7  8  2  0
 10  9  1  1
 10 12  1  0
 11 10  1  0
 13 12  1  1
 13 15  1  0
 13 14  1  0
 14  7  1  0
 15 17  1  0
 16 15  2  0
 17 18  1  0
 18 21  1  0
 19 20  1  0
 18 19  1  6
 21 23  2  0
 21 22  1  0
M  END
$$$$
