NLC.pdb
     RDKit          3D

 23 22  0  0  1  0  0  0  0  0999 V2000
    9.4291  -18.7454   19.7755 N   0  0  0  0  0  0  0  0  0  0  0  0
    9.5357  -17.3707   19.4142 C   0  0  0  0  0  0  0  0  0  0  0  0
    9.7545  -17.0459   18.2305 O   0  0  0  0  0  0  0  0  0  0  0  0
    9.3887  -16.3047   20.4426 C   0  0  0  0  0  0  0  0  0  0  0  0
    9.1712  -16.8678   21.7877 C   0  0  2  0  0  0  0  0  0  0  0  0
    7.7974  -17.3961   21.9017 N   0  0  0  0  0  0  0  0  0  0  0  0
    9.2409  -15.8714   22.9112 C   0  0  0  0  0  0  0  0  0  0  0  0
   10.4392  -15.4309   23.0786 O   0  0  0  0  0  0  0  0  0  0  0  0
    7.4197  -11.6159   26.0704 C   0  0  0  0  0  0  0  0  0  0  0  0
    6.7875  -12.9525   26.1302 C   0  0  1  0  0  0  0  0  0  0  0  0
    5.3006  -12.7314   26.4037 C   0  0  0  0  0  0  0  0  0  0  0  0
    7.0359  -13.9120   25.0516 C   0  0  0  0  0  0  0  0  0  0  0  0
    8.3342  -14.5414   24.8168 C   0  0  2  0  0  0  0  0  0  0  0  0
    8.1352  -15.4848   23.6719 N   0  0  0  0  0  0  0  0  0  0  0  0
    8.9843  -15.3536   25.8435 C   0  0  0  0  0  0  0  0  0  0  0  0
    9.2949  -14.8799   26.9973 O   0  0  0  0  0  0  0  0  0  0  0  0
    9.3380  -16.7458   25.7045 N   0  0  0  0  0  0  0  0  0  0  0  0
    9.9143  -17.4785   26.7860 C   0  0  1  0  0  0  0  0  0  0  0  0
    8.8966  -17.7129   27.9100 C   0  0  0  0  0  0  0  0  0  0  0  0
    7.5044  -18.6783   27.2684 S   0  0  0  0  0  0  0  0  0  0  0  0
   10.5129  -18.7690   26.3900 C   0  0  0  0  0  0  0  0  0  0  0  0
   11.1978  -19.5179   27.3492 O   0  0  0  0  0  0  0  0  0  0  0  0
   10.4587  -19.2620   25.2437 O   0  0  0  0  0  0  0  0  0  0  0  0
  2  1  1  0
  2  3  2  0
  4  2  1  0
  5  4  1  0
  5  6  1  6
  7  5  1  0
  7  8  2  0
 10  9  1  6
 10 12  1  0
 11 10  1  0
 13 12  1  1
 13 15  1  0
 13 14  1  0
 14  7  1  0
 15 17  1  0
 16 15  2  0
 17 18  1  0
 18 21  1  0
 19 20  1  0
 18 19  1  1
 21 23  2  0
 21 22  1  0
M  END
$$$$
