NLC.pdb
     RDKit          3D

 23 22  0  0  1  0  0  0  0  0999 V2000
    7.7210  -21.8584   25.1073 N   0  0  0  0  0  0  0  0  0  0  0  0
    6.9118  -20.6970   24.9398 C   0  0  0  0  0  0  0  0  0  0  0  0
    5.6764  -20.8037   24.8098 O   0  0  0  0  0  0  0  0  0  0  0  0
    7.5284  -19.3424   24.9165 C   0  0  0  0  0  0  0  0  0  0  0  0
    6.7366  -18.3941   24.1119 C   0  0  2  0  0  0  0  0  0  0  0  0
    6.8331  -18.7384   22.6795 N   0  0  0  0  0  0  0  0  0  0  0  0
    7.2224  -16.9720   24.1478 C   0  0  0  0  0  0  0  0  0  0  0  0
    8.1991  -16.7855   23.3298 O   0  0  0  0  0  0  0  0  0  0  0  0
    6.1348  -11.5608   26.9883 C   0  0  0  0  0  0  0  0  0  0  0  0
    6.4044  -12.3252   25.7503 C   0  0  1  0  0  0  0  0  0  0  0  0
    7.6789  -11.7470   25.1371 C   0  0  0  0  0  0  0  0  0  0  0  0
    6.4033  -13.7893   25.7970 C   0  0  0  0  0  0  0  0  0  0  0  0
    7.2854  -14.6217   24.9809 C   0  0  2  0  0  0  0  0  0  0  0  0
    6.6745  -15.9881   24.9738 N   0  0  0  0  0  0  0  0  0  0  0  0
    8.6788  -14.8525   25.3572 C   0  0  0  0  0  0  0  0  0  0  0  0
    9.6584  -14.3133   24.7233 O   0  0  0  0  0  0  0  0  0  0  0  0
    9.1194  -15.6764   26.4572 N   0  0  0  0  0  0  0  0  0  0  0  0
   10.4986  -15.7621   26.8166 C   0  0  1  0  0  0  0  0  0  0  0  0
   11.0162  -14.4303   27.3756 C   0  0  0  0  0  0  0  0  0  0  0  0
   10.1574  -14.0550   28.9260 S   0  0  0  0  0  0  0  0  0  0  0  0
   10.8081  -16.8469   27.7694 C   0  0  0  0  0  0  0  0  0  0  0  0
   12.1402  -17.0799   28.1174 O   0  0  0  0  0  0  0  0  0  0  0  0
    9.9615  -17.5929   28.3051 O   0  0  0  0  0  0  0  0  0  0  0  0
  2  1  1  0
  2  3  2  0
  4  2  1  0
  5  4  1  0
  5  6  1  6
  7  5  1  0
  7  8  2  0
 10  9  1  1
 10 12  1  0
 11 10  1  0
 13 12  1  1
 13 15  1  0
 13 14  1  0
 14  7  1  0
 15 17  1  0
 16 15  2  0
 17 18  1  0
 18 21  1  0
 19 20  1  0
 18 19  1  1
 21 23  2  0
 21 22  1  0
M  END
$$$$
