NLC.pdb
     RDKit          3D

 23 22  0  0  1  0  0  0  0  0999 V2000
   10.5499  -18.8168   15.3357 N   0  0  0  0  0  0  0  0  0  0  0  0
   11.7372  -18.2156   15.8461 C   0  0  0  0  0  0  0  0  0  0  0  0
   12.8555  -18.5801   15.4326 O   0  0  0  0  0  0  0  0  0  0  0  0
   11.6599  -17.1466   16.8791 C   0  0  0  0  0  0  0  0  0  0  0  0
   10.9348  -17.5978   18.0808 C   0  0  2  0  0  0  0  0  0  0  0  0
    9.5405  -17.9388   17.7353 N   0  0  0  0  0  0  0  0  0  0  0  0
   10.7690  -16.5546   19.1505 C   0  0  0  0  0  0  0  0  0  0  0  0
   11.9054  -16.0865   19.5343 O   0  0  0  0  0  0  0  0  0  0  0  0
    6.5050  -12.9548   19.4371 C   0  0  0  0  0  0  0  0  0  0  0  0
    7.8631  -13.5375   19.5120 C   0  0  1  0  0  0  0  0  0  0  0  0
    8.8530  -12.3803   19.3865 C   0  0  0  0  0  0  0  0  0  0  0  0
    8.1900  -14.4559   20.6053 C   0  0  0  0  0  0  0  0  0  0  0  0
    9.4846  -15.1219   20.7378 C   0  0  2  0  0  0  0  0  0  0  0  0
    9.5298  -16.1563   19.6570 N   0  0  0  0  0  0  0  0  0  0  0  0
    9.8449  -15.8531   21.9510 C   0  0  0  0  0  0  0  0  0  0  0  0
    9.0976  -16.7765   22.4422 O   0  0  0  0  0  0  0  0  0  0  0  0
   11.0487  -15.6493   22.7203 N   0  0  0  0  0  0  0  0  0  0  0  0
   11.3765  -16.4912   23.8260 C   0  0  1  0  0  0  0  0  0  0  0  0
   11.3021  -17.9749   23.4425 C   0  0  0  0  0  0  0  0  0  0  0  0
   11.7114  -18.9900   24.8861 S   0  0  0  0  0  0  0  0  0  0  0  0
   12.6928  -16.2071   24.4320 C   0  0  0  0  0  0  0  0  0  0  0  0
   13.0382  -16.8448   25.6253 O   0  0  0  0  0  0  0  0  0  0  0  0
   13.5458  -15.4270   23.9587 O   0  0  0  0  0  0  0  0  0  0  0  0
  2  1  1  0
  2  3  2  0
  4  2  1  0
  5  4  1  0
  5  6  1  6
  7  5  1  0
  7  8  2  0
 10  9  1  1
 10 12  1  0
 11 10  1  0
 13 12  1  1
 13 15  1  0
 13 14  1  0
 14  7  1  0
 15 17  1  0
 16 15  2  0
 17 18  1  0
 18 21  1  0
 19 20  1  0
 18 19  1  6
 21 23  2  0
 21 22  1  0
M  END
$$$$
