NLC.pdb
     RDKit          3D

 23 22  0  0  1  0  0  0  0  0999 V2000
   12.1288  -19.0527   17.0289 N   0  0  0  0  0  0  0  0  0  0  0  0
   12.2712  -17.7042   16.5896 C   0  0  0  0  0  0  0  0  0  0  0  0
   12.8656  -17.4487   15.5237 O   0  0  0  0  0  0  0  0  0  0  0  0
   11.7146  -16.5833   17.3954 C   0  0  0  0  0  0  0  0  0  0  0  0
   11.3964  -17.0040   18.7722 C   0  0  2  0  0  0  0  0  0  0  0  0
   10.1657  -17.8195   18.7831 N   0  0  0  0  0  0  0  0  0  0  0  0
   11.0635  -15.8831   19.7169 C   0  0  0  0  0  0  0  0  0  0  0  0
   12.1003  -15.1688   19.9866 O   0  0  0  0  0  0  0  0  0  0  0  0
    6.5454  -12.8836   19.2590 C   0  0  0  0  0  0  0  0  0  0  0  0
    7.9408  -13.2772   19.5546 C   0  0  1  0  0  0  0  0  0  0  0  0
    8.8108  -12.0417   19.3283 C   0  0  0  0  0  0  0  0  0  0  0  0
    8.2403  -13.9671   20.8116 C   0  0  0  0  0  0  0  0  0  0  0  0
    9.5619  -14.4951   21.1455 C   0  0  2  0  0  0  0  0  0  0  0  0
    9.7846  -15.6597   20.2320 N   0  0  0  0  0  0  0  0  0  0  0  0
    9.8589  -15.0202   22.4768 C   0  0  0  0  0  0  0  0  0  0  0  0
    9.3106  -14.5464   23.5385 O   0  0  0  0  0  0  0  0  0  0  0  0
   10.7643  -16.1075   22.7609 N   0  0  0  0  0  0  0  0  0  0  0  0
   10.7734  -16.7548   24.0336 C   0  0  1  0  0  0  0  0  0  0  0  0
    9.3916  -17.3221   24.3841 C   0  0  0  0  0  0  0  0  0  0  0  0
    8.7036  -16.4050   25.7868 S   0  0  0  0  0  0  0  0  0  0  0  0
   11.7875  -17.8204   24.1618 C   0  0  0  0  0  0  0  0  0  0  0  0
   11.9825  -18.4200   25.4078 O   0  0  0  0  0  0  0  0  0  0  0  0
   12.5039  -18.2433   23.2302 O   0  0  0  0  0  0  0  0  0  0  0  0
  2  1  1  0
  2  3  2  0
  4  2  1  0
  5  4  1  0
  5  6  1  6
  7  5  1  0
  7  8  2  0
 10  9  1  1
 10 12  1  0
 11 10  1  0
 13 12  1  1
 13 15  1  0
 13 14  1  0
 14  7  1  0
 15 17  1  0
 16 15  2  0
 17 18  1  0
 18 21  1  0
 19 20  1  0
 18 19  1  6
 21 23  2  0
 21 22  1  0
M  END
$$$$
