NLC.pdb
     RDKit          3D

 23 22  0  0  1  0  0  0  0  0999 V2000
    8.4784  -17.6712   19.6942 N   0  0  0  0  0  0  0  0  0  0  0  0
    8.0102  -16.3257   19.6482 C   0  0  0  0  0  0  0  0  0  0  0  0
    7.4767  -15.8797   18.6132 O   0  0  0  0  0  0  0  0  0  0  0  0
    8.1518  -15.4346   20.8320 C   0  0  0  0  0  0  0  0  0  0  0  0
    8.7366  -16.1441   21.9845 C   0  0  2  0  0  0  0  0  0  0  0  0
    7.7754  -17.1310   22.5153 N   0  0  0  0  0  0  0  0  0  0  0  0
    9.0249  -15.2808   23.1810 C   0  0  0  0  0  0  0  0  0  0  0  0
   10.1424  -14.6540   23.0532 O   0  0  0  0  0  0  0  0  0  0  0  0
    5.6666  -12.0202   26.4262 C   0  0  0  0  0  0  0  0  0  0  0  0
    6.8701  -12.5186   25.7242 C   0  0  1  0  0  0  0  0  0  0  0  0
    7.9183  -11.4090   25.7921 C   0  0  0  0  0  0  0  0  0  0  0  0
    7.4072  -13.8369   26.0696 C   0  0  0  0  0  0  0  0  0  0  0  0
    8.6226  -14.3919   25.4767 C   0  0  2  0  0  0  0  0  0  0  0  0
    8.1778  -15.1841   24.2872 N   0  0  0  0  0  0  0  0  0  0  0  0
    9.4823  -15.3110   26.2201 C   0  0  0  0  0  0  0  0  0  0  0  0
    9.7311  -15.1561   27.4716 O   0  0  0  0  0  0  0  0  0  0  0  0
   10.1301  -16.4766   25.6683 N   0  0  0  0  0  0  0  0  0  0  0  0
   10.6984  -17.4803   26.5100 C   0  0  1  0  0  0  0  0  0  0  0  0
    9.6492  -18.0790   27.4558 C   0  0  0  0  0  0  0  0  0  0  0  0
   10.4085  -19.3988   28.4375 S   0  0  0  0  0  0  0  0  0  0  0  0
   11.3766  -18.5689   25.7783 C   0  0  0  0  0  0  0  0  0  0  0  0
   12.4443  -19.2299   26.3893 O   0  0  0  0  0  0  0  0  0  0  0  0
   11.0712  -18.9604   24.6322 O   0  0  0  0  0  0  0  0  0  0  0  0
  2  1  1  0
  2  3  2  0
  4  2  1  0
  5  4  1  0
  5  6  1  1
  7  5  1  0
  7  8  2  0
 10  9  1  1
 10 12  1  0
 11 10  1  0
 13 12  1  1
 13 15  1  0
 13 14  1  0
 14  7  1  0
 15 17  1  0
 16 15  2  0
 17 18  1  0
 18 21  1  0
 19 20  1  0
 18 19  1  6
 21 23  2  0
 21 22  1  0
M  END
$$$$
