NLC.pdb
     RDKit          3D

 23 22  0  0  1  0  0  0  0  0999 V2000
    7.9682  -17.7202   20.1183 N   0  0  0  0  0  0  0  0  0  0  0  0
    8.5611  -16.4412   19.9076 C   0  0  0  0  0  0  0  0  0  0  0  0
    8.8368  -16.0573   18.7538 O   0  0  0  0  0  0  0  0  0  0  0  0
    8.8602  -15.5472   21.0595 C   0  0  0  0  0  0  0  0  0  0  0  0
    8.5014  -16.1724   22.3456 C   0  0  2  0  0  0  0  0  0  0  0  0
    7.0363  -16.1569   22.5272 N   0  0  0  0  0  0  0  0  0  0  0  0
    8.9974  -15.4457   23.5644 C   0  0  0  0  0  0  0  0  0  0  0  0
   10.2838  -15.4398   23.6201 O   0  0  0  0  0  0  0  0  0  0  0  0
    5.5916  -12.2765   26.1634 C   0  0  0  0  0  0  0  0  0  0  0  0
    6.8186  -12.7292   25.4712 C   0  0  1  0  0  0  0  0  0  0  0  0
    7.2543  -11.5937   24.5463 C   0  0  0  0  0  0  0  0  0  0  0  0
    7.9226  -13.2837   26.2581 C   0  0  0  0  0  0  0  0  0  0  0  0
    8.7278  -14.4240   25.8239 C   0  0  2  0  0  0  0  0  0  0  0  0
    8.1551  -14.8585   24.5111 N   0  0  0  0  0  0  0  0  0  0  0  0
    8.7954  -15.6534   26.6116 C   0  0  0  0  0  0  0  0  0  0  0  0
    9.0997  -15.6514   27.8605 O   0  0  0  0  0  0  0  0  0  0  0  0
    8.5271  -16.9799   26.1106 N   0  0  0  0  0  0  0  0  0  0  0  0
    8.7535  -18.1384   26.9138 C   0  0  1  0  0  0  0  0  0  0  0  0
    7.5353  -19.0711   26.9090 C   0  0  0  0  0  0  0  0  0  0  0  0
    7.8924  -20.5314   27.9198 S   0  0  0  0  0  0  0  0  0  0  0  0
    9.9592  -18.9053   26.5413 C   0  0  0  0  0  0  0  0  0  0  0  0
   10.8245  -19.3344   27.5498 O   0  0  0  0  0  0  0  0  0  0  0  0
   10.2808  -19.2117   25.3739 O   0  0  0  0  0  0  0  0  0  0  0  0
  2  1  1  0
  2  3  2  0
  4  2  1  0
  5  4  1  0
  5  6  1  1
  7  5  1  0
  7  8  2  0
 10  9  1  1
 10 12  1  0
 11 10  1  0
 13 12  1  1
 13 15  1  0
 13 14  1  0
 14  7  1  0
 15 17  1  0
 16 15  2  0
 17 18  1  0
 18 21  1  0
 19 20  1  0
 18 19  1  6
 21 23  2  0
 21 22  1  0
M  END
$$$$
