NLC.pdb
     RDKit          3D

 23 22  0  0  1  0  0  0  0  0999 V2000
    7.6730  -13.5074   18.0229 N   0  0  0  0  0  0  0  0  0  0  0  0
    8.3085  -14.3727   18.9605 C   0  0  0  0  0  0  0  0  0  0  0  0
    8.6155  -15.5367   18.6356 O   0  0  0  0  0  0  0  0  0  0  0  0
    8.6137  -13.9010   20.3389 C   0  0  0  0  0  0  0  0  0  0  0  0
    8.6286  -15.0125   21.3073 C   0  0  2  0  0  0  0  0  0  0  0  0
    7.2949  -15.6414   21.3802 N   0  0  0  0  0  0  0  0  0  0  0  0
    8.8866  -14.6089   22.7322 C   0  0  0  0  0  0  0  0  0  0  0  0
    9.9941  -13.9622   22.8471 O   0  0  0  0  0  0  0  0  0  0  0  0
    5.1187  -12.5989   26.3777 C   0  0  0  0  0  0  0  0  0  0  0  0
    6.4040  -12.8153   25.6772 C   0  0  1  0  0  0  0  0  0  0  0  0
    7.3064  -11.6321   26.0244 C   0  0  0  0  0  0  0  0  0  0  0  0
    7.0802  -14.1086   25.8028 C   0  0  0  0  0  0  0  0  0  0  0  0
    8.3581  -14.4148   25.1623 C   0  0  2  0  0  0  0  0  0  0  0  0
    8.0244  -14.9087   23.7893 N   0  0  0  0  0  0  0  0  0  0  0  0
    9.2567  -15.4331   25.7024 C   0  0  0  0  0  0  0  0  0  0  0  0
    9.3450  -16.6097   25.1922 O   0  0  0  0  0  0  0  0  0  0  0  0
   10.1387  -15.2526   26.8304 N   0  0  0  0  0  0  0  0  0  0  0  0
   10.9782  -16.3101   27.2950 C   0  0  1  0  0  0  0  0  0  0  0  0
   11.8002  -15.8780   28.5163 C   0  0  0  0  0  0  0  0  0  0  0  0
   10.8557  -14.6686   29.4792 S   0  0  0  0  0  0  0  0  0  0  0  0
   10.2575  -17.5606   27.6069 C   0  0  0  0  0  0  0  0  0  0  0  0
    8.8615  -17.5614   27.5732 O   0  0  0  0  0  0  0  0  0  0  0  0
   10.8007  -18.6450   27.9054 O   0  0  0  0  0  0  0  0  0  0  0  0
  2  1  1  0
  2  3  2  0
  4  2  1  0
  5  4  1  0
  5  6  1  1
  7  5  1  0
  7  8  2  0
 10  9  1  1
 10 12  1  0
 11 10  1  0
 13 12  1  1
 13 15  1  0
 13 14  1  0
 14  7  1  0
 15 17  1  0
 16 15  2  0
 17 18  1  0
 18 21  1  0
 19 20  1  0
 18 19  1  1
 21 23  2  0
 21 22  1  0
M  END
$$$$
