LPD.pdb
     RDKit          3D

 24 24  0  0  1  0  0  0  0  0999 V2000
    5.8210  -12.4054   25.8415 C   0  0  0  0  0  0  0  0  0  0  0  0
    6.7923  -13.1405   26.7546 C   0  0  2  0  0  0  0  0  0  0  0  0
    7.6186  -12.0848   27.4637 C   0  0  0  0  0  0  0  0  0  0  0  0
    7.6591  -14.0972   25.9818 C   0  0  0  0  0  0  0  0  0  0  0  0
    6.8253  -15.2204   25.4035 C   0  0  2  0  0  0  0  0  0  0  0  0
    6.3654  -16.0648   26.4525 N   0  0  0  0  0  0  0  0  0  0  0  0
    7.4962  -15.9166   24.3183 C   0  0  0  0  0  0  0  0  0  0  0  0
    7.9322  -17.0811   24.5682 O   0  0  0  0  0  0  0  0  0  0  0  0
    7.6852  -15.3580   23.0061 N   0  0  0  0  0  0  0  0  0  0  0  0
    6.9271  -14.2341   22.5275 C   0  0  0  0  0  0  0  0  0  0  0  0
    7.2733  -14.1035   21.0761 C   0  0  0  0  0  0  0  0  0  0  0  0
    8.6176  -14.7708   20.9326 C   0  0  0  0  0  0  0  0  0  0  0  0
    8.5775  -15.8074   21.9983 C   0  0  1  0  0  0  0  0  0  0  0  0
    9.9505  -16.1379   22.4778 C   0  0  0  0  0  0  0  0  0  0  0  0
   10.4734  -15.4058   23.3393 O   0  0  0  0  0  0  0  0  0  0  0  0
   10.6645  -17.2462   21.9858 N   0  0  0  0  0  0  0  0  0  0  0  0
   11.9861  -17.6360   22.5137 C   0  0  1  0  0  0  0  0  0  0  0  0
   12.1964  -19.0965   22.3483 C   0  0  0  0  0  0  0  0  0  0  0  0
   13.4866  -19.5833   22.8600 C   0  0  0  0  0  0  0  0  0  0  0  0
   14.4471  -19.7730   22.1049 O   0  0  0  0  0  0  0  0  0  0  0  0
   13.0330  -16.8823   21.8008 C   0  0  0  0  0  0  0  0  0  0  0  0
   13.0759  -16.6507   20.5884 O   0  0  0  0  0  0  0  0  0  0  0  0
   13.6675  -19.8493   24.2358 O   0  0  0  0  0  0  0  0  0  0  0  0
   14.0981  -16.3683   22.5674 O   0  0  0  0  0  0  0  0  0  0  0  0
  2  1  1  6
  2  3  1  0
  4  2  1  0
  5  4  1  0
  5  7  1  0
  5  6  1  1
  7  8  2  0
  7  9  1  0
  9 13  1  0
  9 10  1  0
 11 10  1  0
 12 13  1  0
 12 11  1  0
 13 14  1  1
 15 14  2  0
 16 14  1  0
 17 16  1  0
 17 21  1  0
 17 18  1  6
 19 18  1  0
 20 19  2  0
 21 24  1  0
 22 21  2  0
 23 19  1  0
M  END
$$$$
