LPD.pdb
     RDKit          3D

 24 24  0  0  1  0  0  0  0  0999 V2000
    5.8392  -12.1858   26.0440 C   0  0  0  0  0  0  0  0  0  0  0  0
    6.9197  -12.9675   26.7782 C   0  0  2  0  0  0  0  0  0  0  0  0
    7.7934  -11.9530   27.4906 C   0  0  0  0  0  0  0  0  0  0  0  0
    7.7195  -13.8230   25.8337 C   0  0  0  0  0  0  0  0  0  0  0  0
    6.8794  -14.9707   25.3160 C   0  0  2  0  0  0  0  0  0  0  0  0
    6.4069  -15.7498   26.4089 N   0  0  0  0  0  0  0  0  0  0  0  0
    7.5501  -15.7333   24.2762 C   0  0  0  0  0  0  0  0  0  0  0  0
    8.1184  -16.8098   24.6322 O   0  0  0  0  0  0  0  0  0  0  0  0
    7.5989  -15.3316   22.8956 N   0  0  0  0  0  0  0  0  0  0  0  0
    6.6566  -14.4078   22.3252 C   0  0  0  0  0  0  0  0  0  0  0  0
    6.9223  -14.4203   20.8512 C   0  0  0  0  0  0  0  0  0  0  0  0
    8.3479  -14.8914   20.7142 C   0  0  0  0  0  0  0  0  0  0  0  0
    8.5112  -15.7717   21.9017 C   0  0  1  0  0  0  0  0  0  0  0  0
    9.9364  -15.8259   22.3379 C   0  0  0  0  0  0  0  0  0  0  0  0
   10.2839  -15.1497   23.3247 O   0  0  0  0  0  0  0  0  0  0  0  0
   10.8906  -16.6146   21.6688 N   0  0  0  0  0  0  0  0  0  0  0  0
   12.2724  -16.7751   22.1608 C   0  0  1  0  0  0  0  0  0  0  0  0
   12.2711  -17.4205   23.4980 C   0  0  0  0  0  0  0  0  0  0  0  0
   13.6103  -17.7361   24.0182 C   0  0  0  0  0  0  0  0  0  0  0  0
   14.6285  -17.4975   23.3586 O   0  0  0  0  0  0  0  0  0  0  0  0
   13.0368  -17.5886   21.1985 C   0  0  0  0  0  0  0  0  0  0  0  0
   12.7877  -18.7484   20.8548 O   0  0  0  0  0  0  0  0  0  0  0  0
   13.7735  -18.3238   25.2926 O   0  0  0  0  0  0  0  0  0  0  0  0
   14.1683  -16.9959   20.6029 O   0  0  0  0  0  0  0  0  0  0  0  0
  2  1  1  6
  2  3  1  0
  4  2  1  0
  5  4  1  0
  5  7  1  0
  5  6  1  1
  7  8  2  0
  7  9  1  0
  9 13  1  0
  9 10  1  0
 11 10  1  0
 12 13  1  0
 12 11  1  0
 13 14  1  1
 15 14  2  0
 16 14  1  0
 17 16  1  0
 17 21  1  0
 17 18  1  1
 19 18  1  0
 20 19  2  0
 21 24  1  0
 22 21  2  0
 23 19  1  0
M  END
$$$$
