LPD.pdb
     RDKit          3D

 24 24  0  0  1  0  0  0  0  0999 V2000
    6.3291  -12.4064   27.2500 C   0  0  0  0  0  0  0  0  0  0  0  0
    6.9401  -13.5115   26.3997 C   0  0  2  0  0  0  0  0  0  0  0  0
    8.0841  -12.8902   25.6217 C   0  0  0  0  0  0  0  0  0  0  0  0
    5.9192  -14.1319   25.4850 C   0  0  0  0  0  0  0  0  0  0  0  0
    6.1878  -15.6119   25.3157 C   0  0  2  0  0  0  0  0  0  0  0  0
    6.2582  -16.2352   26.5929 N   0  0  0  0  0  0  0  0  0  0  0  0
    7.3230  -15.8811   24.4490 C   0  0  0  0  0  0  0  0  0  0  0  0
    8.2707  -16.5643   24.9428 O   0  0  0  0  0  0  0  0  0  0  0  0
    7.4192  -15.4179   23.0904 N   0  0  0  0  0  0  0  0  0  0  0  0
    6.4133  -14.5899   22.4826 C   0  0  0  0  0  0  0  0  0  0  0  0
    6.7813  -14.5076   21.0331 C   0  0  0  0  0  0  0  0  0  0  0  0
    8.2599  -14.7986   20.9873 C   0  0  0  0  0  0  0  0  0  0  0  0
    8.4459  -15.7030   22.1532 C   0  0  1  0  0  0  0  0  0  0  0  0
    9.8329  -15.6050   22.6928 C   0  0  0  0  0  0  0  0  0  0  0  0
   10.0158  -14.9854   23.7578 O   0  0  0  0  0  0  0  0  0  0  0  0
   10.9310  -16.1894   22.0349 N   0  0  0  0  0  0  0  0  0  0  0  0
   12.2887  -16.1981   22.6126 C   0  0  1  0  0  0  0  0  0  0  0  0
   12.3085  -16.9888   23.8692 C   0  0  0  0  0  0  0  0  0  0  0  0
   13.6224  -17.0439   24.5282 C   0  0  0  0  0  0  0  0  0  0  0  0
   14.6104  -16.4841   24.0392 O   0  0  0  0  0  0  0  0  0  0  0  0
   13.2281  -16.7695   21.6312 C   0  0  0  0  0  0  0  0  0  0  0  0
   12.9610  -17.5935   20.7510 O   0  0  0  0  0  0  0  0  0  0  0  0
   13.7951  -17.7410   25.7449 O   0  0  0  0  0  0  0  0  0  0  0  0
   14.5695  -16.3411   21.6919 O   0  0  0  0  0  0  0  0  0  0  0  0
  2  1  1  6
  2  3  1  0
  4  2  1  0
  5  4  1  0
  5  7  1  0
  5  6  1  1
  7  8  2  0
  7  9  1  0
  9 13  1  0
  9 10  1  0
 11 10  1  0
 12 13  1  0
 12 11  1  0
 13 14  1  1
 15 14  2  0
 16 14  1  0
 17 16  1  0
 17 21  1  0
 17 18  1  1
 19 18  1  0
 20 19  2  0
 21 24  1  0
 22 21  2  0
 23 19  1  0
M  END
$$$$
