LPD.pdb
     RDKit          3D

 24 24  0  0  1  0  0  0  0  0999 V2000
    5.0531  -12.5666   26.0755 C   0  0  0  0  0  0  0  0  0  0  0  0
    6.2868  -13.0402   26.8312 C   0  0  2  0  0  0  0  0  0  0  0  0
    6.9045  -11.8172   27.4813 C   0  0  0  0  0  0  0  0  0  0  0  0
    7.2602  -13.7346   25.9179 C   0  0  0  0  0  0  0  0  0  0  0  0
    6.6944  -15.0568   25.4456 C   0  0  2  0  0  0  0  0  0  0  0  0
    6.3430  -15.8563   26.5690 N   0  0  0  0  0  0  0  0  0  0  0  0
    7.5510  -15.7202   24.4767 C   0  0  0  0  0  0  0  0  0  0  0  0
    8.2894  -16.6553   24.9112 O   0  0  0  0  0  0  0  0  0  0  0  0
    7.5995  -15.3717   23.0818 N   0  0  0  0  0  0  0  0  0  0  0  0
    6.6040  -14.5444   22.4562 C   0  0  0  0  0  0  0  0  0  0  0  0
    6.9013  -14.5962   20.9892 C   0  0  0  0  0  0  0  0  0  0  0  0
    8.3603  -14.9647   20.8980 C   0  0  0  0  0  0  0  0  0  0  0  0
    8.5628  -15.7820   22.1239 C   0  0  1  0  0  0  0  0  0  0  0  0
    9.9785  -15.7122   22.5880 C   0  0  0  0  0  0  0  0  0  0  0  0
   10.2288  -15.1101   23.6494 O   0  0  0  0  0  0  0  0  0  0  0  0
   11.0298  -16.3038   21.8635 N   0  0  0  0  0  0  0  0  0  0  0  0
   12.4071  -16.3832   22.3868 C   0  0  1  0  0  0  0  0  0  0  0  0
   12.4430  -17.2117   23.6185 C   0  0  0  0  0  0  0  0  0  0  0  0
   13.7930  -17.4328   24.1592 C   0  0  0  0  0  0  0  0  0  0  0  0
   14.7910  -16.9479   23.6138 O   0  0  0  0  0  0  0  0  0  0  0  0
   13.2845  -16.9611   21.3532 C   0  0  0  0  0  0  0  0  0  0  0  0
   14.2790  -16.4282   20.8509 O   0  0  0  0  0  0  0  0  0  0  0  0
   13.9900  -18.2091   25.3232 O   0  0  0  0  0  0  0  0  0  0  0  0
   12.9687  -18.2511   20.8816 O   0  0  0  0  0  0  0  0  0  0  0  0
  2  1  1  6
  2  3  1  0
  4  2  1  0
  5  4  1  0
  5  7  1  0
  5  6  1  1
  7  8  2  0
  7  9  1  0
  9 13  1  0
  9 10  1  0
 11 10  1  0
 12 13  1  0
 12 11  1  0
 13 14  1  1
 15 14  2  0
 16 14  1  0
 17 16  1  0
 17 21  1  0
 17 18  1  1
 19 18  1  0
 20 19  2  0
 21 24  1  0
 22 21  2  0
 23 19  1  0
M  END
$$$$
