LPD.pdb
     RDKit          3D

 24 24  0  0  1  0  0  0  0  0999 V2000
    5.9632  -12.7469   26.2423 C   0  0  0  0  0  0  0  0  0  0  0  0
    7.2216  -13.3235   26.8759 C   0  0  2  0  0  0  0  0  0  0  0  0
    8.0017  -12.1574   27.4518 C   0  0  0  0  0  0  0  0  0  0  0  0
    8.0375  -14.0974   25.8762 C   0  0  0  0  0  0  0  0  0  0  0  0
    7.2591  -15.2912   25.3660 C   0  0  2  0  0  0  0  0  0  0  0  0
    7.0125  -16.1955   26.4366 N   0  0  0  0  0  0  0  0  0  0  0  0
    7.8651  -15.8966   24.1918 C   0  0  0  0  0  0  0  0  0  0  0  0
    8.5774  -16.9284   24.3828 O   0  0  0  0  0  0  0  0  0  0  0  0
    7.6993  -15.3900   22.8555 N   0  0  0  0  0  0  0  0  0  0  0  0
    6.7435  -14.3668   22.5294 C   0  0  0  0  0  0  0  0  0  0  0  0
    6.7426  -14.2784   21.0342 C   0  0  0  0  0  0  0  0  0  0  0  0
    8.0817  -14.8250   20.6088 C   0  0  0  0  0  0  0  0  0  0  0  0
    8.3854  -15.8056   21.6849 C   0  0  1  0  0  0  0  0  0  0  0  0
    9.8571  -15.9830   21.8498 C   0  0  0  0  0  0  0  0  0  0  0  0
   10.6229  -15.2861   21.1573 O   0  0  0  0  0  0  0  0  0  0  0  0
   10.3981  -16.9098   22.7600 N   0  0  0  0  0  0  0  0  0  0  0  0
   11.8516  -17.0853   22.9434 C   0  0  1  0  0  0  0  0  0  0  0  0
   12.4944  -15.7802   23.2406 C   0  0  0  0  0  0  0  0  0  0  0  0
   13.9453  -15.8590   23.4693 C   0  0  0  0  0  0  0  0  0  0  0  0
   14.6474  -16.6779   22.8651 O   0  0  0  0  0  0  0  0  0  0  0  0
   12.0888  -18.0370   24.0435 C   0  0  0  0  0  0  0  0  0  0  0  0
   13.1861  -18.4275   24.4543 O   0  0  0  0  0  0  0  0  0  0  0  0
   14.5824  -14.9973   24.3900 O   0  0  0  0  0  0  0  0  0  0  0  0
   10.9586  -18.5620   24.7018 O   0  0  0  0  0  0  0  0  0  0  0  0
  2  1  1  6
  2  3  1  0
  4  2  1  0
  5  4  1  0
  5  7  1  0
  5  6  1  1
  7  8  2  0
  7  9  1  0
  9 13  1  0
  9 10  1  0
 11 10  1  0
 12 13  1  0
 12 11  1  0
 13 14  1  1
 15 14  2  0
 16 14  1  0
 17 16  1  0
 17 21  1  0
 17 18  1  1
 19 18  1  0
 20 19  2  0
 21 24  1  0
 22 21  2  0
 23 19  1  0
M  END
$$$$
