LPD.pdb
     RDKit          3D

 24 24  0  0  1  0  0  0  0  0999 V2000
    8.3008  -12.4768   26.9760 C   0  0  0  0  0  0  0  0  0  0  0  0
    7.3276  -13.3054   26.1490 C   0  0  2  0  0  0  0  0  0  0  0  0
    5.9976  -12.5768   26.1692 C   0  0  0  0  0  0  0  0  0  0  0  0
    7.2016  -14.7055   26.6852 C   0  0  0  0  0  0  0  0  0  0  0  0
    6.6799  -15.6392   25.6141 C   0  0  2  0  0  0  0  0  0  0  0  0
    6.0885  -16.7822   26.2213 N   0  0  0  0  0  0  0  0  0  0  0  0
    7.6754  -15.9418   24.5992 C   0  0  0  0  0  0  0  0  0  0  0  0
    8.6095  -16.7327   24.9316 O   0  0  0  0  0  0  0  0  0  0  0  0
    7.6511  -15.3969   23.2680 N   0  0  0  0  0  0  0  0  0  0  0  0
    6.5825  -14.5600   22.7943 C   0  0  0  0  0  0  0  0  0  0  0  0
    6.8294  -14.3830   21.3277 C   0  0  0  0  0  0  0  0  0  0  0  0
    8.3049  -14.6336   21.1459 C   0  0  0  0  0  0  0  0  0  0  0  0
    8.6036  -15.6003   22.2359 C   0  0  1  0  0  0  0  0  0  0  0  0
   10.0277  -15.4994   22.6676 C   0  0  0  0  0  0  0  0  0  0  0  0
   10.2963  -14.8337   23.6856 O   0  0  0  0  0  0  0  0  0  0  0  0
   11.0669  -16.1317   21.9601 N   0  0  0  0  0  0  0  0  0  0  0  0
   12.4528  -16.1821   22.4638 C   0  0  1  0  0  0  0  0  0  0  0  0
   12.5000  -16.8820   23.7725 C   0  0  0  0  0  0  0  0  0  0  0  0
   13.6949  -16.5815   24.5760 C   0  0  0  0  0  0  0  0  0  0  0  0
   14.5661  -15.8058   24.1665 O   0  0  0  0  0  0  0  0  0  0  0  0
   13.3003  -16.8775   21.4787 C   0  0  0  0  0  0  0  0  0  0  0  0
   14.1897  -16.3720   20.7869 O   0  0  0  0  0  0  0  0  0  0  0  0
   13.8830  -17.1730   25.8453 O   0  0  0  0  0  0  0  0  0  0  0  0
   13.0850  -18.2585   21.2980 O   0  0  0  0  0  0  0  0  0  0  0  0
  2  1  1  1
  2  3  1  0
  4  2  1  0
  5  4  1  0
  5  7  1  0
  5  6  1  1
  7  8  2  0
  7  9  1  0
  9 13  1  0
  9 10  1  0
 11 10  1  0
 12 13  1  0
 12 11  1  0
 13 14  1  1
 15 14  2  0
 16 14  1  0
 17 16  1  0
 17 21  1  0
 17 18  1  1
 19 18  1  0
 20 19  2  0
 21 24  1  0
 22 21  2  0
 23 19  1  0
M  END
$$$$
