LPD.pdb
     RDKit          3D

 24 24  0  0  1  0  0  0  0  0999 V2000
    5.8067  -12.3213   25.7978 C   0  0  0  0  0  0  0  0  0  0  0  0
    6.6043  -13.1284   26.8127 C   0  0  2  0  0  0  0  0  0  0  0  0
    7.3908  -12.1364   27.6477 C   0  0  0  0  0  0  0  0  0  0  0  0
    7.5074  -14.1248   26.1378 C   0  0  0  0  0  0  0  0  0  0  0  0
    6.6924  -15.1711   25.4083 C   0  0  2  0  0  0  0  0  0  0  0  0
    6.0884  -16.0503   26.3500 N   0  0  0  0  0  0  0  0  0  0  0  0
    7.4441  -15.8362   24.3571 C   0  0  0  0  0  0  0  0  0  0  0  0
    8.0438  -16.9083   24.6729 O   0  0  0  0  0  0  0  0  0  0  0  0
    7.5382  -15.3450   23.0082 N   0  0  0  0  0  0  0  0  0  0  0  0
    6.6072  -14.3939   22.4648 C   0  0  0  0  0  0  0  0  0  0  0  0
    6.9256  -14.3081   21.0038 C   0  0  0  0  0  0  0  0  0  0  0  0
    8.3602  -14.7574   20.8886 C   0  0  0  0  0  0  0  0  0  0  0  0
    8.4902  -15.7118   22.0217 C   0  0  1  0  0  0  0  0  0  0  0  0
    9.8993  -15.7825   22.5052 C   0  0  0  0  0  0  0  0  0  0  0  0
   10.2369  -15.0639   23.4651 O   0  0  0  0  0  0  0  0  0  0  0  0
   10.8492  -16.6329   21.9097 N   0  0  0  0  0  0  0  0  0  0  0  0
   12.1489  -16.9345   22.5398 C   0  0  1  0  0  0  0  0  0  0  0  0
   11.9434  -17.6033   23.8495 C   0  0  0  0  0  0  0  0  0  0  0  0
   13.1874  -17.9865   24.5344 C   0  0  0  0  0  0  0  0  0  0  0  0
   14.2943  -17.7416   24.0409 O   0  0  0  0  0  0  0  0  0  0  0  0
   12.9339  -17.7980   21.6396 C   0  0  0  0  0  0  0  0  0  0  0  0
   12.6119  -18.9172   21.2285 O   0  0  0  0  0  0  0  0  0  0  0  0
   13.1542  -18.6484   25.7822 O   0  0  0  0  0  0  0  0  0  0  0  0
   14.1792  -17.3099   21.1954 O   0  0  0  0  0  0  0  0  0  0  0  0
  2  1  1  6
  2  3  1  0
  4  2  1  0
  5  4  1  0
  5  7  1  0
  5  6  1  1
  7  8  2  0
  7  9  1  0
  9 13  1  0
  9 10  1  0
 11 10  1  0
 12 13  1  0
 12 11  1  0
 13 14  1  1
 15 14  2  0
 16 14  1  0
 17 16  1  0
 17 21  1  0
 17 18  1  1
 19 18  1  0
 20 19  2  0
 21 24  1  0
 22 21  2  0
 23 19  1  0
M  END
$$$$
