LPD.pdb
     RDKit          3D

 24 24  0  0  1  0  0  0  0  0999 V2000
    5.5569  -12.4975   26.1172 C   0  0  0  0  0  0  0  0  0  0  0  0
    6.6463  -13.1349   26.9683 C   0  0  2  0  0  0  0  0  0  0  0  0
    7.3548  -12.0089   27.6966 C   0  0  0  0  0  0  0  0  0  0  0  0
    7.6009  -13.9405   26.1295 C   0  0  0  0  0  0  0  0  0  0  0  0
    6.8829  -15.1010   25.4747 C   0  0  2  0  0  0  0  0  0  0  0  0
    6.3569  -15.9651   26.4754 N   0  0  0  0  0  0  0  0  0  0  0  0
    7.6925  -15.7661   24.4674 C   0  0  0  0  0  0  0  0  0  0  0  0
    8.3541  -16.7808   24.8433 O   0  0  0  0  0  0  0  0  0  0  0  0
    7.7770  -15.3353   23.0973 N   0  0  0  0  0  0  0  0  0  0  0  0
    6.9088  -14.3298   22.5479 C   0  0  0  0  0  0  0  0  0  0  0  0
    7.1788  -14.3259   21.0747 C   0  0  0  0  0  0  0  0  0  0  0  0
    8.5657  -14.8989   20.9292 C   0  0  0  0  0  0  0  0  0  0  0  0
    8.6578  -15.8180   22.0948 C   0  0  1  0  0  0  0  0  0  0  0  0
   10.0732  -15.9894   22.5328 C   0  0  0  0  0  0  0  0  0  0  0  0
   10.6122  -15.0718   23.1801 O   0  0  0  0  0  0  0  0  0  0  0  0
   10.8091  -17.1515   22.2357 N   0  0  0  0  0  0  0  0  0  0  0  0
   12.2256  -17.3119   22.6163 C   0  0  1  0  0  0  0  0  0  0  0  0
   12.4423  -18.6385   23.2472 C   0  0  0  0  0  0  0  0  0  0  0  0
   11.9882  -18.7252   24.6435 C   0  0  0  0  0  0  0  0  0  0  0  0
   11.6072  -17.7227   25.2587 O   0  0  0  0  0  0  0  0  0  0  0  0
   13.0680  -17.1706   21.4151 C   0  0  0  0  0  0  0  0  0  0  0  0
   12.8468  -17.6548   20.3008 O   0  0  0  0  0  0  0  0  0  0  0  0
   11.9735  -19.9623   25.3260 O   0  0  0  0  0  0  0  0  0  0  0  0
   14.2475  -16.4087   21.5361 O   0  0  0  0  0  0  0  0  0  0  0  0
  2  1  1  6
  2  3  1  0
  4  2  1  0
  5  4  1  0
  5  7  1  0
  5  6  1  1
  7  8  2  0
  7  9  1  0
  9 13  1  0
  9 10  1  0
 11 10  1  0
 12 13  1  0
 12 11  1  0
 13 14  1  1
 15 14  2  0
 16 14  1  0
 17 16  1  0
 17 21  1  0
 17 18  1  6
 19 18  1  0
 20 19  2  0
 21 24  1  0
 22 21  2  0
 23 19  1  0
M  END
$$$$
