LPD.pdb
     RDKit          3D

 24 24  0  0  1  0  0  0  0  0999 V2000
    7.8938  -12.7047   27.1540 C   0  0  0  0  0  0  0  0  0  0  0  0
    7.0098  -13.4805   26.1875 C   0  0  2  0  0  0  0  0  0  0  0  0
    5.7588  -12.6514   25.9688 C   0  0  0  0  0  0  0  0  0  0  0  0
    6.6824  -14.8500   26.7176 C   0  0  0  0  0  0  0  0  0  0  0  0
    6.3483  -15.7931   25.5817 C   0  0  2  0  0  0  0  0  0  0  0  0
    5.8212  -17.0065   26.1057 N   0  0  0  0  0  0  0  0  0  0  0  0
    7.4522  -15.9660   24.6521 C   0  0  0  0  0  0  0  0  0  0  0  0
    8.4081  -16.7087   25.0305 O   0  0  0  0  0  0  0  0  0  0  0  0
    7.5093  -15.3467   23.3549 N   0  0  0  0  0  0  0  0  0  0  0  0
    6.4995  -14.4365   22.8873 C   0  0  0  0  0  0  0  0  0  0  0  0
    6.8173  -14.1890   21.4447 C   0  0  0  0  0  0  0  0  0  0  0  0
    8.2871  -14.4961   21.3092 C   0  0  0  0  0  0  0  0  0  0  0  0
    8.4961  -15.5351   22.3526 C   0  0  1  0  0  0  0  0  0  0  0  0
    9.9031  -15.5239   22.8472 C   0  0  0  0  0  0  0  0  0  0  0  0
   10.1823  -14.8171   23.8342 O   0  0  0  0  0  0  0  0  0  0  0  0
   10.9147  -16.2847   22.2325 N   0  0  0  0  0  0  0  0  0  0  0  0
   12.2784  -16.3859   22.7868 C   0  0  1  0  0  0  0  0  0  0  0  0
   12.2781  -17.2378   24.0029 C   0  0  0  0  0  0  0  0  0  0  0  0
   13.5975  -17.3892   24.6353 C   0  0  0  0  0  0  0  0  0  0  0  0
   13.8844  -16.7860   25.6757 O   0  0  0  0  0  0  0  0  0  0  0  0
   13.1756  -16.9517   21.7635 C   0  0  0  0  0  0  0  0  0  0  0  0
   12.8385  -17.4554   20.6874 O   0  0  0  0  0  0  0  0  0  0  0  0
   14.5803  -18.2324   24.0701 O   0  0  0  0  0  0  0  0  0  0  0  0
   14.5599  -16.9212   22.0262 O   0  0  0  0  0  0  0  0  0  0  0  0
  2  1  1  1
  2  3  1  0
  4  2  1  0
  5  4  1  0
  5  7  1  0
  5  6  1  1
  7  8  2  0
  7  9  1  0
  9 13  1  0
  9 10  1  0
 11 10  1  0
 12 13  1  0
 12 11  1  0
 13 14  1  1
 15 14  2  0
 16 14  1  0
 17 16  1  0
 17 21  1  0
 17 18  1  1
 19 18  1  0
 20 19  2  0
 21 24  1  0
 22 21  2  0
 23 19  1  0
M  END
$$$$
