LPD.pdb
     RDKit          3D

 24 24  0  0  1  0  0  0  0  0999 V2000
    5.6479  -12.3369   25.6505 C   0  0  0  0  0  0  0  0  0  0  0  0
    6.4764  -13.0225   26.7281 C   0  0  2  0  0  0  0  0  0  0  0  0
    7.1344  -11.9270   27.5448 C   0  0  0  0  0  0  0  0  0  0  0  0
    7.4935  -13.9565   26.1308 C   0  0  0  0  0  0  0  0  0  0  0  0
    6.8105  -15.1443   25.4876 C   0  0  2  0  0  0  0  0  0  0  0  0
    6.2737  -15.9924   26.4963 N   0  0  0  0  0  0  0  0  0  0  0  0
    7.6552  -15.8203   24.5171 C   0  0  0  0  0  0  0  0  0  0  0  0
    8.3123  -16.8233   24.9304 O   0  0  0  0  0  0  0  0  0  0  0  0
    7.7784  -15.4125   23.1429 N   0  0  0  0  0  0  0  0  0  0  0  0
    6.8219  -14.5506   22.5034 C   0  0  0  0  0  0  0  0  0  0  0  0
    7.1947  -14.5416   21.0528 C   0  0  0  0  0  0  0  0  0  0  0  0
    8.6542  -14.9182   21.0212 C   0  0  0  0  0  0  0  0  0  0  0  0
    8.7876  -15.7893   22.2192 C   0  0  1  0  0  0  0  0  0  0  0  0
   10.1777  -15.7515   22.7584 C   0  0  0  0  0  0  0  0  0  0  0  0
   10.4771  -14.8576   23.5725 O   0  0  0  0  0  0  0  0  0  0  0  0
   11.1514  -16.6919   22.3740 N   0  0  0  0  0  0  0  0  0  0  0  0
   12.5171  -16.6926   22.9325 C   0  0  1  0  0  0  0  0  0  0  0  0
   12.6936  -17.8389   23.8597 C   0  0  0  0  0  0  0  0  0  0  0  0
   14.0369  -17.9368   24.4510 C   0  0  0  0  0  0  0  0  0  0  0  0
   14.9339  -17.1436   24.1431 O   0  0  0  0  0  0  0  0  0  0  0  0
   13.4908  -16.7699   21.8289 C   0  0  0  0  0  0  0  0  0  0  0  0
   14.7096  -16.5874   21.9094 O   0  0  0  0  0  0  0  0  0  0  0  0
   14.3431  -18.9445   25.3928 O   0  0  0  0  0  0  0  0  0  0  0  0
   12.9950  -17.0830   20.5473 O   0  0  0  0  0  0  0  0  0  0  0  0
  2  1  1  6
  2  3  1  0
  4  2  1  0
  5  4  1  0
  5  7  1  0
  5  6  1  1
  7  8  2  0
  7  9  1  0
  9 13  1  0
  9 10  1  0
 11 10  1  0
 12 13  1  0
 12 11  1  0
 13 14  1  1
 15 14  2  0
 16 14  1  0
 17 16  1  0
 17 21  1  0
 17 18  1  1
 19 18  1  0
 20 19  2  0
 21 24  1  0
 22 21  2  0
 23 19  1  0
M  END
$$$$
