FVE.pdb
     RDKit          3D

 28 28  0  0  1  0  0  0  0  0999 V2000
   28.0004  -21.3379   -9.1046 N   0  0  0  0  0  0  0  0  0  0  0  0
   26.9292  -20.3965   -9.0350 C   0  0  1  0  0  0  0  0  0  0  0  0
   27.3270  -19.1624   -8.2970 C   0  0  0  0  0  0  0  0  0  0  0  0
   27.7211  -19.5503   -6.9282 C   0  0  0  0  0  0  0  0  0  0  0  0
   26.9306  -20.3798   -6.1766 C   0  0  0  0  0  0  0  0  0  0  0  0
   27.2866  -20.7578   -4.8774 C   0  0  0  0  0  0  0  0  0  0  0  0
   28.4794  -20.2665   -4.3551 C   0  0  0  0  0  0  0  0  0  0  0  0
   29.2834  -19.4342   -5.0951 C   0  0  0  0  0  0  0  0  0  0  0  0
   28.8947  -19.0864   -6.3719 C   0  0  0  0  0  0  0  0  0  0  0  0
   26.3235  -20.1219  -10.3696 C   0  0  0  0  0  0  0  0  0  0  0  0
   27.0038  -19.5892  -11.2538 O   0  0  0  0  0  0  0  0  0  0  0  0
   24.7444  -21.2366  -14.3627 C   0  0  0  0  0  0  0  0  0  0  0  0
   25.2169  -21.3284  -12.9536 C   0  0  2  0  0  0  0  0  0  0  0  0
   25.1392  -22.7569  -12.4510 C   0  0  0  0  0  0  0  0  0  0  0  0
   24.4320  -20.4631  -11.9924 C   0  0  2  0  0  0  0  0  0  0  0  0
   24.9736  -20.4533  -10.6707 N   0  0  0  0  0  0  0  0  0  0  0  0
   22.9718  -20.7908  -12.0202 C   0  0  0  0  0  0  0  0  0  0  0  0
   22.4609  -21.6915  -11.3414 O   0  0  0  0  0  0  0  0  0  0  0  0
   22.1134  -20.0406  -12.8624 N   0  0  0  0  0  0  0  0  0  0  0  0
   20.6758  -20.2910  -12.8922 C   0  0  1  0  0  0  0  0  0  0  0  0
   19.9361  -19.1496  -13.4956 C   0  0  0  0  0  0  0  0  0  0  0  0
   19.9749  -17.8408  -12.8244 C   0  0  0  0  0  0  0  0  0  0  0  0
   19.2697  -16.7092  -13.3743 C   0  0  0  0  0  0  0  0  0  0  0  0
   18.9704  -16.4654  -14.5480 O   0  0  0  0  0  0  0  0  0  0  0  0
   20.4431  -21.6125  -13.4560 C   0  0  0  0  0  0  0  0  0  0  0  0
   21.1369  -22.0374  -14.3998 O   0  0  0  0  0  0  0  0  0  0  0  0
   18.8514  -15.7221  -12.4449 O   0  0  0  0  0  0  0  0  0  0  0  0
   19.4445  -22.4219  -12.9434 O   0  0  0  0  0  0  0  0  0  0  0  0
  2 10  1  0
  2  1  1  6
  3  4  1  0
  3  2  1  0
  4  5  2  0
  5  6  1  0
  7  6  2  0
  8  7  1  0
  9  8  2  0
  9  4  1  0
 10 11  2  0
 13 12  1  6
 14 13  1  0
 15 13  1  0
 15 16  1  1
 16 10  1  0
 17 15  1  0
 18 17  2  0
 19 17  1  0
 20 19  1  0
 20 21  1  6
 22 21  1  0
 23 22  1  0
 24 23  2  0
 25 20  1  0
 25 28  1  0
 26 25  2  0
 27 23  1  0
M  END
$$$$
