FVE.pdb
     RDKit          3D

 28 28  0  0  1  0  0  0  0  0999 V2000
   29.5127  -29.3093  -16.2664 N   0  0  0  0  0  0  0  0  0  0  0  0
   28.8883  -28.3943  -17.1672 C   0  0  1  0  0  0  0  0  0  0  0  0
   27.5726  -28.9065  -17.6493 C   0  0  0  0  0  0  0  0  0  0  0  0
   27.8249  -30.0418  -18.5586 C   0  0  0  0  0  0  0  0  0  0  0  0
   28.1975  -29.8315  -19.8605 C   0  0  0  0  0  0  0  0  0  0  0  0
   28.4399  -30.8944  -20.7375 C   0  0  0  0  0  0  0  0  0  0  0  0
   28.2927  -32.1909  -20.2533 C   0  0  0  0  0  0  0  0  0  0  0  0
   27.9198  -32.4191  -18.9511 C   0  0  0  0  0  0  0  0  0  0  0  0
   27.6905  -31.3425  -18.1201 C   0  0  0  0  0  0  0  0  0  0  0  0
   28.8222  -27.0092  -16.6187 C   0  0  0  0  0  0  0  0  0  0  0  0
   28.7939  -26.8350  -15.3951 O   0  0  0  0  0  0  0  0  0  0  0  0
   29.9219  -22.3015  -16.8672 C   0  0  0  0  0  0  0  0  0  0  0  0
   29.9509  -23.6989  -17.3806 C   0  0  2  0  0  0  0  0  0  0  0  0
   30.0260  -23.7153  -18.8951 C   0  0  0  0  0  0  0  0  0  0  0  0
   28.7471  -24.5202  -16.9745 C   0  0  2  0  0  0  0  0  0  0  0  0
   28.7901  -25.8629  -17.4598 N   0  0  0  0  0  0  0  0  0  0  0  0
   27.4650  -23.8226  -17.3062 C   0  0  0  0  0  0  0  0  0  0  0  0
   26.9890  -23.7749  -18.4482 O   0  0  0  0  0  0  0  0  0  0  0  0
   26.7442  -23.1770  -16.2706 N   0  0  0  0  0  0  0  0  0  0  0  0
   25.4050  -22.6438  -16.5005 C   0  0  1  0  0  0  0  0  0  0  0  0
   24.3544  -23.5954  -16.0481 C   0  0  0  0  0  0  0  0  0  0  0  0
   22.9404  -23.2079  -16.1734 C   0  0  0  0  0  0  0  0  0  0  0  0
   22.1172  -23.7529  -17.2248 C   0  0  0  0  0  0  0  0  0  0  0  0
   21.6691  -24.8965  -17.3582 O   0  0  0  0  0  0  0  0  0  0  0  0
   25.3470  -21.2857  -15.9804 C   0  0  0  0  0  0  0  0  0  0  0  0
   24.3393  -20.8746  -15.3739 O   0  0  0  0  0  0  0  0  0  0  0  0
   21.7606  -22.8577  -18.2663 O   0  0  0  0  0  0  0  0  0  0  0  0
   26.4209  -20.4292  -16.1497 O   0  0  0  0  0  0  0  0  0  0  0  0
  2 10  1  0
  2  1  1  1
  3  4  1  0
  3  2  1  0
  4  5  2  0
  5  6  1  0
  7  6  2  0
  8  7  1  0
  9  8  2  0
  9  4  1  0
 10 11  2  0
 13 12  1  6
 14 13  1  0
 15 13  1  0
 15 16  1  6
 16 10  1  0
 17 15  1  0
 18 17  2  0
 19 17  1  0
 20 19  1  0
 20 21  1  1
 22 21  1  0
 23 22  1  0
 24 23  2  0
 25 20  1  0
 25 28  1  0
 26 25  2  0
 27 23  1  0
M  END
$$$$
