FVE.pdb
     RDKit          3D

 28 28  0  0  1  0  0  0  0  0999 V2000
   27.3384  -10.8487  -19.4751 N   0  0  0  0  0  0  0  0  0  0  0  0
   27.2444  -10.2159  -18.1987 C   0  0  1  0  0  0  0  0  0  0  0  0
   28.1996   -9.0763  -18.0767 C   0  0  0  0  0  0  0  0  0  0  0  0
   29.5690   -9.6029  -18.2405 C   0  0  0  0  0  0  0  0  0  0  0  0
   30.5031   -8.9189  -18.9737 C   0  0  0  0  0  0  0  0  0  0  0  0
   31.8054   -9.4022  -19.1410 C   0  0  0  0  0  0  0  0  0  0  0  0
   32.1388  -10.6115  -18.5381 C   0  0  0  0  0  0  0  0  0  0  0  0
   31.2144  -11.3097  -17.7999 C   0  0  0  0  0  0  0  0  0  0  0  0
   29.9415  -10.7973  -17.6601 C   0  0  0  0  0  0  0  0  0  0  0  0
   25.8418   -9.8566  -17.8420 C   0  0  0  0  0  0  0  0  0  0  0  0
   25.0436   -9.5439  -18.7327 O   0  0  0  0  0  0  0  0  0  0  0  0
   22.0867   -9.9313  -14.6332 C   0  0  0  0  0  0  0  0  0  0  0  0
   23.4539  -10.3483  -15.0503 C   0  0  2  0  0  0  0  0  0  0  0  0
   24.3978  -10.3655  -13.8637 C   0  0  0  0  0  0  0  0  0  0  0  0
   24.0654   -9.4548  -16.1069 C   0  0  2  0  0  0  0  0  0  0  0  0
   25.3784   -9.8595  -16.4974 N   0  0  0  0  0  0  0  0  0  0  0  0
   23.9931   -8.0110  -15.7188 C   0  0  0  0  0  0  0  0  0  0  0  0
   24.9216   -7.4044  -15.1682 O   0  0  0  0  0  0  0  0  0  0  0  0
   22.8067   -7.2838  -15.9882 N   0  0  0  0  0  0  0  0  0  0  0  0
   22.6874   -5.8733  -15.6325 C   0  0  1  0  0  0  0  0  0  0  0  0
   21.8778   -5.1256  -16.6322 C   0  0  0  0  0  0  0  0  0  0  0  0
   21.6186   -3.6941  -16.4120 C   0  0  0  0  0  0  0  0  0  0  0  0
   20.7313   -2.9631  -17.2831 C   0  0  0  0  0  0  0  0  0  0  0  0
   20.1728   -3.3302  -18.3222 O   0  0  0  0  0  0  0  0  0  0  0  0
   22.2850   -5.7756  -14.2371 C   0  0  0  0  0  0  0  0  0  0  0  0
   21.4299   -6.5471  -13.7617 O   0  0  0  0  0  0  0  0  0  0  0  0
   20.4479   -1.6250  -16.9057 O   0  0  0  0  0  0  0  0  0  0  0  0
   22.8554   -4.8209  -13.4134 O   0  0  0  0  0  0  0  0  0  0  0  0
  2 10  1  0
  2  1  1  6
  3  4  1  0
  3  2  1  0
  4  5  2  0
  5  6  1  0
  7  6  2  0
  8  7  1  0
  9  8  2  0
  9  4  1  0
 10 11  2  0
 13 12  1  1
 14 13  1  0
 15 13  1  0
 15 16  1  1
 16 10  1  0
 17 15  1  0
 18 17  2  0
 19 17  1  0
 20 19  1  0
 20 21  1  6
 22 21  1  0
 23 22  1  0
 24 23  2  0
 25 20  1  0
 25 28  1  0
 26 25  2  0
 27 23  1  0
M  END
$$$$
