FVE.pdb
     RDKit          3D

 28 28  0  0  1  0  0  0  0  0999 V2000
   26.5737  -21.4106  -13.5817 N   0  0  0  0  0  0  0  0  0  0  0  0
   25.9954  -21.0921  -12.3157 C   0  0  1  0  0  0  0  0  0  0  0  0
   26.8356  -20.1226  -11.5542 C   0  0  0  0  0  0  0  0  0  0  0  0
   28.1630  -20.7319  -11.3393 C   0  0  0  0  0  0  0  0  0  0  0  0
   28.4371  -21.4371  -10.1967 C   0  0  0  0  0  0  0  0  0  0  0  0
   29.6891  -22.0209   -9.9747 C   0  0  0  0  0  0  0  0  0  0  0  0
   30.6666  -21.8687  -10.9536 C   0  0  0  0  0  0  0  0  0  0  0  0
   30.4083  -21.1649  -12.1046 C   0  0  0  0  0  0  0  0  0  0  0  0
   29.1604  -20.6054  -12.2834 C   0  0  0  0  0  0  0  0  0  0  0  0
   24.5667  -20.6801  -12.4287 C   0  0  0  0  0  0  0  0  0  0  0  0
   24.2867  -19.5299  -12.7847 O   0  0  0  0  0  0  0  0  0  0  0  0
   21.8890  -21.6949  -14.7581 C   0  0  0  0  0  0  0  0  0  0  0  0
   21.7899  -20.6856  -13.6679 C   0  0  2  0  0  0  0  0  0  0  0  0
   22.7240  -19.5193  -13.9265 C   0  0  0  0  0  0  0  0  0  0  0  0
   22.1172  -21.2373  -12.2979 C   0  0  2  0  0  0  0  0  0  0  0  0
   23.4969  -21.5712  -12.1388 N   0  0  0  0  0  0  0  0  0  0  0  0
   21.2002  -22.3585  -11.9203 C   0  0  0  0  0  0  0  0  0  0  0  0
   21.2619  -23.4894  -12.4207 O   0  0  0  0  0  0  0  0  0  0  0  0
   20.2023  -22.1316  -10.9397 N   0  0  0  0  0  0  0  0  0  0  0  0
   19.3110  -23.2031  -10.5062 C   0  0  1  0  0  0  0  0  0  0  0  0
   19.1993  -23.2529   -9.0233 C   0  0  0  0  0  0  0  0  0  0  0  0
   18.3909  -24.3155   -8.4050 C   0  0  0  0  0  0  0  0  0  0  0  0
   18.2072  -24.3644   -6.9753 C   0  0  0  0  0  0  0  0  0  0  0  0
   17.1946  -24.6388   -6.3228 O   0  0  0  0  0  0  0  0  0  0  0  0
   18.0738  -23.1190  -11.2684 C   0  0  0  0  0  0  0  0  0  0  0  0
   17.6186  -24.1151  -11.8624 O   0  0  0  0  0  0  0  0  0  0  0  0
   19.3465  -24.0549   -6.1882 O   0  0  0  0  0  0  0  0  0  0  0  0
   17.3797  -21.9238  -11.3387 O   0  0  0  0  0  0  0  0  0  0  0  0
  2 10  1  0
  2  1  1  6
  3  4  1  0
  3  2  1  0
  4  5  2  0
  5  6  1  0
  7  6  2  0
  8  7  1  0
  9  8  2  0
  9  4  1  0
 10 11  2  0
 13 12  1  6
 14 13  1  0
 15 13  1  0
 15 16  1  6
 16 10  1  0
 17 15  1  0
 18 17  2  0
 19 17  1  0
 20 19  1  0
 20 21  1  1
 22 21  1  0
 23 22  1  0
 24 23  2  0
 25 20  1  0
 25 28  1  0
 26 25  2  0
 27 23  1  0
M  END
$$$$
