FVE.pdb
     RDKit          3D

 28 28  0  0  1  0  0  0  0  0999 V2000
   27.6812  -21.6787  -16.3648 N   0  0  0  0  0  0  0  0  0  0  0  0
   27.2207  -20.6909  -15.4424 C   0  0  1  0  0  0  0  0  0  0  0  0
   26.6446  -19.5072  -16.1444 C   0  0  0  0  0  0  0  0  0  0  0  0
   27.7331  -18.8307  -16.8772 C   0  0  0  0  0  0  0  0  0  0  0  0
   28.9524  -18.6190  -16.2885 C   0  0  0  0  0  0  0  0  0  0  0  0
   29.9957  -17.9790  -16.9663 C   0  0  0  0  0  0  0  0  0  0  0  0
   29.7668  -17.5546  -18.2719 C   0  0  0  0  0  0  0  0  0  0  0  0
   28.5504  -17.7590  -18.8766 C   0  0  0  0  0  0  0  0  0  0  0  0
   27.5490  -18.3941  -18.1724 C   0  0  0  0  0  0  0  0  0  0  0  0
   26.3198  -21.2602  -14.3994 C   0  0  0  0  0  0  0  0  0  0  0  0
   25.6086  -22.2347  -14.6691 O   0  0  0  0  0  0  0  0  0  0  0  0
   24.6873  -21.3509   -9.6970 C   0  0  0  0  0  0  0  0  0  0  0  0
   25.7323  -21.0097  -10.7013 C   0  0  2  0  0  0  0  0  0  0  0  0
   26.2672  -19.6100  -10.4685 C   0  0  0  0  0  0  0  0  0  0  0  0
   25.2455  -21.0801  -12.1320 C   0  0  2  0  0  0  0  0  0  0  0  0
   26.2448  -20.7185  -13.0866 N   0  0  0  0  0  0  0  0  0  0  0  0
   23.9648  -20.3280  -12.3174 C   0  0  0  0  0  0  0  0  0  0  0  0
   23.9037  -19.0944  -12.4057 O   0  0  0  0  0  0  0  0  0  0  0  0
   22.7477  -21.0497  -12.3984 N   0  0  0  0  0  0  0  0  0  0  0  0
   21.5179  -20.4092  -12.8544 C   0  0  1  0  0  0  0  0  0  0  0  0
   21.4486  -20.3575  -14.3398 C   0  0  0  0  0  0  0  0  0  0  0  0
   20.7383  -21.4277  -15.0576 C   0  0  0  0  0  0  0  0  0  0  0  0
   20.2798  -21.2294  -16.4106 C   0  0  0  0  0  0  0  0  0  0  0  0
   20.9032  -20.8319  -17.4005 O   0  0  0  0  0  0  0  0  0  0  0  0
   20.3917  -21.0064  -12.1520 C   0  0  0  0  0  0  0  0  0  0  0  0
   19.2989  -20.4132  -12.0727 O   0  0  0  0  0  0  0  0  0  0  0  0
   18.9155  -21.5302  -16.6582 O   0  0  0  0  0  0  0  0  0  0  0  0
   20.5199  -22.2525  -11.5637 O   0  0  0  0  0  0  0  0  0  0  0  0
  2 10  1  0
  2  1  1  6
  3  4  1  0
  3  2  1  0
  4  5  2  0
  5  6  1  0
  7  6  2  0
  8  7  1  0
  9  8  2  0
  9  4  1  0
 10 11  2  0
 13 12  1  1
 14 13  1  0
 15 13  1  0
 15 16  1  6
 16 10  1  0
 17 15  1  0
 18 17  2  0
 19 17  1  0
 20 19  1  0
 20 21  1  6
 22 21  1  0
 23 22  1  0
 24 23  2  0
 25 20  1  0
 25 28  1  0
 26 25  2  0
 27 23  1  0
M  END
$$$$
