FVE.pdb
     RDKit          3D

 28 28  0  0  1  0  0  0  0  0999 V2000
   27.2832  -22.2559  -11.1272 N   0  0  0  0  0  0  0  0  0  0  0  0
   26.3695  -21.1981  -10.8359 C   0  0  1  0  0  0  0  0  0  0  0  0
   27.0677  -19.8855  -10.7111 C   0  0  0  0  0  0  0  0  0  0  0  0
   27.6463  -19.7978   -9.3558 C   0  0  0  0  0  0  0  0  0  0  0  0
   26.9389  -19.2399   -8.3233 C   0  0  0  0  0  0  0  0  0  0  0  0
   27.4706  -19.1470   -7.0324 C   0  0  0  0  0  0  0  0  0  0  0  0
   28.7534  -19.6406   -6.8144 C   0  0  0  0  0  0  0  0  0  0  0  0
   29.4760  -20.2029   -7.8385 C   0  0  0  0  0  0  0  0  0  0  0  0
   28.9140  -20.2746   -9.0959 C   0  0  0  0  0  0  0  0  0  0  0  0
   25.2121  -21.1690  -11.7756 C   0  0  0  0  0  0  0  0  0  0  0  0
   25.3767  -21.4796  -12.9608 O   0  0  0  0  0  0  0  0  0  0  0  0
   20.2897  -21.5023  -12.2096 C   0  0  0  0  0  0  0  0  0  0  0  0
   21.4992  -21.2850  -11.3689 C   0  0  2  0  0  0  0  0  0  0  0  0
   21.2683  -20.1667  -10.3711 C   0  0  0  0  0  0  0  0  0  0  0  0
   22.7378  -20.9376  -12.1651 C   0  0  2  0  0  0  0  0  0  0  0  0
   23.9063  -20.7924  -11.3565 N   0  0  0  0  0  0  0  0  0  0  0  0
   22.5046  -19.7652  -13.0660 C   0  0  0  0  0  0  0  0  0  0  0  0
   22.3807  -18.6032  -12.6566 O   0  0  0  0  0  0  0  0  0  0  0  0
   22.4183  -19.9777  -14.4646 N   0  0  0  0  0  0  0  0  0  0  0  0
   22.2244  -18.8639  -15.3879 C   0  0  1  0  0  0  0  0  0  0  0  0
   22.9866  -19.0631  -16.6501 C   0  0  0  0  0  0  0  0  0  0  0  0
   22.8248  -18.0895  -17.7414 C   0  0  0  0  0  0  0  0  0  0  0  0
   23.5444  -18.2460  -18.9815 C   0  0  0  0  0  0  0  0  0  0  0  0
   24.2331  -19.1930  -19.3755 O   0  0  0  0  0  0  0  0  0  0  0  0
   20.7986  -18.5945  -15.5023 C   0  0  0  0  0  0  0  0  0  0  0  0
   19.9615  -19.5073  -15.3664 O   0  0  0  0  0  0  0  0  0  0  0  0
   23.4592  -17.1628  -19.8940 O   0  0  0  0  0  0  0  0  0  0  0  0
   20.3514  -17.3104  -15.7598 O   0  0  0  0  0  0  0  0  0  0  0  0
  2 10  1  0
  2  1  1  6
  3  4  1  0
  3  2  1  0
  4  5  2  0
  5  6  1  0
  7  6  2  0
  8  7  1  0
  9  8  2  0
  9  4  1  0
 10 11  2  0
 13 12  1  6
 14 13  1  0
 15 13  1  0
 15 16  1  1
 16 10  1  0
 17 15  1  0
 18 17  2  0
 19 17  1  0
 20 19  1  0
 20 21  1  6
 22 21  1  0
 23 22  1  0
 24 23  2  0
 25 20  1  0
 25 28  1  0
 26 25  2  0
 27 23  1  0
M  END
$$$$
