FVE.pdb
     RDKit          3D

 28 28  0  0  1  0  0  0  0  0999 V2000
   23.3603  -13.4926  -17.7881 N   0  0  0  0  0  0  0  0  0  0  0  0
   23.7509  -12.4778  -16.8629 C   0  0  1  0  0  0  0  0  0  0  0  0
   25.1830  -12.0966  -17.0350 C   0  0  0  0  0  0  0  0  0  0  0  0
   26.0106  -13.2978  -16.8074 C   0  0  0  0  0  0  0  0  0  0  0  0
   26.1627  -13.8195  -15.5494 C   0  0  0  0  0  0  0  0  0  0  0  0
   26.9435  -14.9563  -15.3136 C   0  0  0  0  0  0  0  0  0  0  0  0
   27.5730  -15.5566  -16.4001 C   0  0  0  0  0  0  0  0  0  0  0  0
   27.4308  -15.0463  -17.6675 C   0  0  0  0  0  0  0  0  0  0  0  0
   26.6518  -13.9238  -17.8556 C   0  0  0  0  0  0  0  0  0  0  0  0
   22.8208  -11.3124  -16.8681 C   0  0  0  0  0  0  0  0  0  0  0  0
   22.3677  -10.8943  -17.9397 O   0  0  0  0  0  0  0  0  0  0  0  0
   19.2570   -8.8134  -14.7456 C   0  0  0  0  0  0  0  0  0  0  0  0
   20.1879   -9.9597  -14.9364 C   0  0  2  0  0  0  0  0  0  0  0  0
   20.5458  -10.5910  -13.6049 C   0  0  0  0  0  0  0  0  0  0  0  0
   21.4812   -9.5835  -15.6254 C   0  0  2  0  0  0  0  0  0  0  0  0
   22.4278  -10.6523  -15.6713 N   0  0  0  0  0  0  0  0  0  0  0  0
   22.0573   -8.3198  -15.0672 C   0  0  0  0  0  0  0  0  0  0  0  0
   22.8725   -8.2940  -14.1356 O   0  0  0  0  0  0  0  0  0  0  0  0
   21.6600   -7.0777  -15.6221 N   0  0  0  0  0  0  0  0  0  0  0  0
   22.2107   -5.8189  -15.1295 C   0  0  1  0  0  0  0  0  0  0  0  0
   22.2108   -4.7728  -16.1876 C   0  0  0  0  0  0  0  0  0  0  0  0
   22.5816   -3.3952  -15.8275 C   0  0  0  0  0  0  0  0  0  0  0  0
   22.5726   -2.3466  -16.8178 C   0  0  0  0  0  0  0  0  0  0  0  0
   22.8337   -1.1456  -16.6919 O   0  0  0  0  0  0  0  0  0  0  0  0
   21.5695   -5.4916  -13.8645 C   0  0  0  0  0  0  0  0  0  0  0  0
   20.3434   -5.6483  -13.7085 O   0  0  0  0  0  0  0  0  0  0  0  0
   22.2135   -2.7342  -18.1346 O   0  0  0  0  0  0  0  0  0  0  0  0
   22.3206   -5.0036  -12.8094 O   0  0  0  0  0  0  0  0  0  0  0  0
  2 10  1  0
  2  1  1  6
  3  4  1  0
  3  2  1  0
  4  5  2  0
  5  6  1  0
  7  6  2  0
  8  7  1  0
  9  8  2  0
  9  4  1  0
 10 11  2  0
 13 12  1  1
 14 13  1  0
 15 13  1  0
 15 16  1  1
 16 10  1  0
 17 15  1  0
 18 17  2  0
 19 17  1  0
 20 19  1  0
 20 21  1  6
 22 21  1  0
 23 22  1  0
 24 23  2  0
 25 20  1  0
 25 28  1  0
 26 25  2  0
 27 23  1  0
M  END
$$$$
