FVE.pdb
     RDKit          3D

 28 28  0  0  1  0  0  0  0  0999 V2000
   26.3739  -18.6623   -7.7111 N   0  0  0  0  0  0  0  0  0  0  0  0
   26.9344  -19.8216   -8.3279 C   0  0  1  0  0  0  0  0  0  0  0  0
   27.0656  -20.9510   -7.3619 C   0  0  0  0  0  0  0  0  0  0  0  0
   27.9189  -20.5042   -6.2431 C   0  0  0  0  0  0  0  0  0  0  0  0
   27.3673  -20.0931   -5.0579 C   0  0  0  0  0  0  0  0  0  0  0  0
   28.1593  -19.6654   -3.9867 C   0  0  0  0  0  0  0  0  0  0  0  0
   29.5412  -19.6657   -4.1517 C   0  0  0  0  0  0  0  0  0  0  0  0
   30.1102  -20.0746   -5.3332 C   0  0  0  0  0  0  0  0  0  0  0  0
   29.2926  -20.4886   -6.3639 C   0  0  0  0  0  0  0  0  0  0  0  0
   26.2288  -20.1953   -9.5872 C   0  0  0  0  0  0  0  0  0  0  0  0
   24.9930  -20.2175   -9.6142 O   0  0  0  0  0  0  0  0  0  0  0  0
   27.2974  -19.3064  -14.3370 C   0  0  0  0  0  0  0  0  0  0  0  0
   27.7014  -19.8146  -12.9971 C   0  0  2  0  0  0  0  0  0  0  0  0
   28.5163  -21.0869  -13.1263 C   0  0  0  0  0  0  0  0  0  0  0  0
   26.5333  -20.1118  -12.0828 C   0  0  2  0  0  0  0  0  0  0  0  0
   26.9313  -20.5323  -10.7770 N   0  0  0  0  0  0  0  0  0  0  0  0
   25.5554  -21.0474  -12.7222 C   0  0  0  0  0  0  0  0  0  0  0  0
   25.7275  -22.2715  -12.7932 O   0  0  0  0  0  0  0  0  0  0  0  0
   24.3638  -20.5219  -13.2813 N   0  0  0  0  0  0  0  0  0  0  0  0
   23.2770  -21.3989  -13.7059 C   0  0  1  0  0  0  0  0  0  0  0  0
   22.0680  -21.2186  -12.8576 C   0  0  0  0  0  0  0  0  0  0  0  0
   20.8760  -22.0362  -13.1330 C   0  0  0  0  0  0  0  0  0  0  0  0
   19.6553  -21.8325  -12.3924 C   0  0  0  0  0  0  0  0  0  0  0  0
   19.4196  -21.0478  -11.4676 O   0  0  0  0  0  0  0  0  0  0  0  0
   23.1094  -21.2718  -15.1461 C   0  0  0  0  0  0  0  0  0  0  0  0
   23.3902  -20.2088  -15.7322 O   0  0  0  0  0  0  0  0  0  0  0  0
   18.5538  -22.6439  -12.7685 O   0  0  0  0  0  0  0  0  0  0  0  0
   22.6376  -22.3400  -15.8888 O   0  0  0  0  0  0  0  0  0  0  0  0
  2 10  1  0
  2  1  1  1
  3  4  1  0
  3  2  1  0
  4  5  2  0
  5  6  1  0
  7  6  2  0
  8  7  1  0
  9  8  2  0
  9  4  1  0
 10 11  2  0
 13 12  1  6
 14 13  1  0
 15 13  1  0
 15 16  1  1
 16 10  1  0
 17 15  1  0
 18 17  2  0
 19 17  1  0
 20 19  1  0
 20 21  1  1
 22 21  1  0
 23 22  1  0
 24 23  2  0
 25 20  1  0
 25 28  1  0
 26 25  2  0
 27 23  1  0
M  END
$$$$
