FVE.pdb
     RDKit          3D

 28 28  0  0  1  0  0  0  0  0999 V2000
   26.2478  -18.4060   -9.2646 N   0  0  0  0  0  0  0  0  0  0  0  0
   27.0654  -19.2150   -8.4187 C   0  0  1  0  0  0  0  0  0  0  0  0
   26.3662  -19.5663   -7.1485 C   0  0  0  0  0  0  0  0  0  0  0  0
   27.3272  -19.4205   -6.0374 C   0  0  0  0  0  0  0  0  0  0  0  0
   27.8068  -18.1879   -5.6788 C   0  0  0  0  0  0  0  0  0  0  0  0
   28.7187  -18.0297   -4.6295 C   0  0  0  0  0  0  0  0  0  0  0  0
   29.1358  -19.1679   -3.9459 C   0  0  0  0  0  0  0  0  0  0  0  0
   28.6648  -20.4109   -4.2925 C   0  0  0  0  0  0  0  0  0  0  0  0
   27.7668  -20.5220   -5.3334 C   0  0  0  0  0  0  0  0  0  0  0  0
   27.6312  -20.3959   -9.1321 C   0  0  0  0  0  0  0  0  0  0  0  0
   26.8804  -21.1493   -9.7621 O   0  0  0  0  0  0  0  0  0  0  0  0
   31.7323  -22.7993  -10.7046 C   0  0  0  0  0  0  0  0  0  0  0  0
   31.1186  -21.7316   -9.8678 C   0  0  2  0  0  0  0  0  0  0  0  0
   31.6272  -21.8055   -8.4412 C   0  0  0  0  0  0  0  0  0  0  0  0
   29.6078  -21.7927   -9.8174 C   0  0  2  0  0  0  0  0  0  0  0  0
   29.0216  -20.6947   -9.1166 N   0  0  0  0  0  0  0  0  0  0  0  0
   29.1248  -23.1213   -9.3253 C   0  0  0  0  0  0  0  0  0  0  0  0
   28.7487  -23.3236   -8.1631 O   0  0  0  0  0  0  0  0  0  0  0  0
   29.0892  -24.2170  -10.2235 N   0  0  0  0  0  0  0  0  0  0  0  0
   28.6072  -25.5276   -9.7985 C   0  0  1  0  0  0  0  0  0  0  0  0
   27.1946  -25.7487  -10.2104 C   0  0  0  0  0  0  0  0  0  0  0  0
   26.5273  -27.0016   -9.8233 C   0  0  0  0  0  0  0  0  0  0  0  0
   25.1622  -27.2599  -10.2105 C   0  0  0  0  0  0  0  0  0  0  0  0
   24.3883  -26.5607  -10.8728 O   0  0  0  0  0  0  0  0  0  0  0  0
   29.5837  -26.5339  -10.1887 C   0  0  0  0  0  0  0  0  0  0  0  0
   30.1898  -26.4511  -11.2741 O   0  0  0  0  0  0  0  0  0  0  0  0
   24.6121  -28.4931   -9.7750 O   0  0  0  0  0  0  0  0  0  0  0  0
   29.8572  -27.6002   -9.3500 O   0  0  0  0  0  0  0  0  0  0  0  0
  2 10  1  0
  2  1  1  6
  3  4  1  0
  3  2  1  0
  4  5  2  0
  5  6  1  0
  7  6  2  0
  8  7  1  0
  9  8  2  0
  9  4  1  0
 10 11  2  0
 13 12  1  6
 14 13  1  0
 15 13  1  0
 15 16  1  1
 16 10  1  0
 17 15  1  0
 18 17  2  0
 19 17  1  0
 20 19  1  0
 20 21  1  6
 22 21  1  0
 23 22  1  0
 24 23  2  0
 25 20  1  0
 25 28  1  0
 26 25  2  0
 27 23  1  0
M  END
$$$$
