DFH.pdb
     RDKit          3D

 30 31  0  0  1  0  0  0  0  0999 V2000
   28.1951  -19.6395  -19.1950 N   0  0  0  0  0  0  0  0  0  0  0  0
   27.5086  -18.7525  -18.2208 C   0  0  1  0  0  0  0  0  0  0  0  0
   26.4354  -18.0790  -18.9998 C   0  0  0  0  0  0  0  0  0  0  0  0
   26.8256  -17.0658  -19.9576 C   0  0  0  0  0  0  0  0  0  0  0  0
   26.2538  -16.9475  -21.0571 O   0  0  0  0  0  0  0  0  0  0  0  0
   27.0457  -19.5631  -17.0724 C   0  0  0  0  0  0  0  0  0  0  0  0
   26.3966  -20.6144  -17.2425 O   0  0  0  0  0  0  0  0  0  0  0  0
   27.8615  -16.1942  -19.6613 O   0  0  0  0  0  0  0  0  0  0  0  0
   27.3160  -19.1871  -15.7162 N   0  0  0  0  0  0  0  0  0  0  0  0
   26.7417  -19.8955  -14.5769 C   0  0  1  0  0  0  0  0  0  0  0  0
   27.3946  -19.4942  -13.2938 C   0  0  0  0  0  0  0  0  0  0  0  0
   26.8098  -20.0900  -12.0801 C   0  0  0  0  0  0  0  0  0  0  0  0
   26.9015  -21.4473  -11.8835 C   0  0  0  0  0  0  0  0  0  0  0  0
   26.3635  -22.0480  -10.7441 C   0  0  0  0  0  0  0  0  0  0  0  0
   25.7269  -21.2774   -9.7930 C   0  0  0  0  0  0  0  0  0  0  0  0
   25.6496  -19.9245  -10.0150 C   0  0  0  0  0  0  0  0  0  0  0  0
   26.1754  -19.3146  -11.1343 C   0  0  0  0  0  0  0  0  0  0  0  0
   25.2903  -19.6060  -14.5604 C   0  0  0  0  0  0  0  0  0  0  0  0
   24.8676  -18.4165  -14.5610 O   0  0  0  0  0  0  0  0  0  0  0  0
   24.3225  -20.6429  -14.5434 N   0  0  0  0  0  0  0  0  0  0  0  0
   22.9107  -20.2905  -14.4865 C   0  0  1  0  0  0  0  0  0  0  0  0
   22.1507  -21.0751  -15.5409 C   0  0  0  0  0  0  0  0  0  0  0  0
   20.7187  -20.7296  -15.5974 C   0  0  0  0  0  0  0  0  0  0  0  0
   19.9882  -19.8502  -14.8554 C   0  0  0  0  0  0  0  0  0  0  0  0
   18.7123  -19.9157  -15.2974 N   0  0  0  0  0  0  0  0  0  0  0  0
   18.6443  -20.8070  -16.2843 C   0  0  0  0  0  0  0  0  0  0  0  0
   19.8680  -21.3154  -16.4802 N   0  0  0  0  0  0  0  0  0  0  0  0
   22.3717  -20.5951  -13.1390 C   0  0  0  0  0  0  0  0  0  0  0  0
   21.7592  -19.7544  -12.4385 O   0  0  0  0  0  0  0  0  0  0  0  0
   22.5258  -21.8674  -12.5727 O   0  0  0  0  0  0  0  0  0  0  0  0
  2  1  1  6
  2  3  1  0
  4  5  2  0
  4  3  1  0
  6  2  1  0
  6  7  2  0
  8  4  1  0
  9  6  1  0
 10  9  1  0
 11 12  1  0
 10 11  1  1
 12 17  2  0
 13 14  2  0
 13 12  1  0
 14 15  1  0
 15 16  2  0
 17 16  1  0
 18 10  1  0
 18 19  2  0
 20 18  1  0
 21 20  1  0
 21 28  1  0
 21 22  1  6
 23 22  1  0
 24 23  2  0
 25 24  1  0
 26 25  1  0
 26 27  2  0
 27 23  1  0
 28 30  1  0
 29 28  2  0
M  END
$$$$
