DFH.pdb
     RDKit          3D

 30 31  0  0  1  0  0  0  0  0999 V2000
   39.8274  -24.0366    5.7598 N   0  0  0  0  0  0  0  0  0  0  0  0
   38.4937  -24.5353    5.3358 C   0  0  1  0  0  0  0  0  0  0  0  0
   38.4529  -25.9550    5.7771 C   0  0  0  0  0  0  0  0  0  0  0  0
   39.0605  -26.9504    4.9192 C   0  0  0  0  0  0  0  0  0  0  0  0
   39.4521  -26.6751    3.7700 O   0  0  0  0  0  0  0  0  0  0  0  0
   37.4465  -23.6617    5.9106 C   0  0  0  0  0  0  0  0  0  0  0  0
   37.5002  -23.2825    7.0975 O   0  0  0  0  0  0  0  0  0  0  0  0
   39.2196  -28.2508    5.3710 O   0  0  0  0  0  0  0  0  0  0  0  0
   36.3253  -23.2089    5.1414 N   0  0  0  0  0  0  0  0  0  0  0  0
   35.2931  -22.3396    5.6969 C   0  0  1  0  0  0  0  0  0  0  0  0
   34.5179  -21.6496    4.6216 C   0  0  0  0  0  0  0  0  0  0  0  0
   33.4310  -20.7753    5.0953 C   0  0  0  0  0  0  0  0  0  0  0  0
   32.1768  -20.9008    4.5469 C   0  0  0  0  0  0  0  0  0  0  0  0
   31.1207  -20.0934    4.9725 C   0  0  0  0  0  0  0  0  0  0  0  0
   31.3266  -19.1505    5.9585 C   0  0  0  0  0  0  0  0  0  0  0  0
   32.5891  -19.0467    6.4886 C   0  0  0  0  0  0  0  0  0  0  0  0
   33.6437  -19.8358    6.0804 C   0  0  0  0  0  0  0  0  0  0  0  0
   34.4161  -23.1780    6.5446 C   0  0  0  0  0  0  0  0  0  0  0  0
   33.9681  -24.2797    6.1214 O   0  0  0  0  0  0  0  0  0  0  0  0
   34.0457  -22.7827    7.8555 N   0  0  0  0  0  0  0  0  0  0  0  0
   33.1884  -23.6590    8.6417 C   0  0  1  0  0  0  0  0  0  0  0  0
   33.9796  -24.2297    9.8049 C   0  0  0  0  0  0  0  0  0  0  0  0
   34.6876  -25.4773    9.4650 C   0  0  0  0  0  0  0  0  0  0  0  0
   35.3142  -25.8570    8.3156 C   0  0  0  0  0  0  0  0  0  0  0  0
   35.7965  -27.1041    8.5151 N   0  0  0  0  0  0  0  0  0  0  0  0
   35.4828  -27.4942    9.7489 C   0  0  0  0  0  0  0  0  0  0  0  0
   34.8019  -26.5065   10.3447 N   0  0  0  0  0  0  0  0  0  0  0  0
   32.0205  -22.8971    9.1461 C   0  0  0  0  0  0  0  0  0  0  0  0
   32.1095  -21.7415    9.6250 O   0  0  0  0  0  0  0  0  0  0  0  0
   30.7321  -23.4468    9.1098 O   0  0  0  0  0  0  0  0  0  0  0  0
  2  1  1  1
  2  3  1  0
  4  5  2  0
  4  3  1  0
  6  2  1  0
  6  7  2  0
  8  4  1  0
  9  6  1  0
 10  9  1  0
 11 12  1  0
 10 11  1  6
 12 17  2  0
 13 14  2  0
 13 12  1  0
 14 15  1  0
 15 16  2  0
 17 16  1  0
 18 10  1  0
 18 19  2  0
 20 18  1  0
 21 20  1  0
 21 28  1  0
 21 22  1  1
 23 22  1  0
 24 23  2  0
 25 24  1  0
 26 25  1  0
 26 27  2  0
 27 23  1  0
 28 30  1  0
 29 28  2  0
M  END
$$$$
