DFH.pdb
     RDKit          3D

 30 31  0  0  1  0  0  0  0  0999 V2000
   16.2128  -18.6751    3.2188 N   0  0  0  0  0  0  0  0  0  0  0  0
   15.7032  -17.6455    4.1608 C   0  0  1  0  0  0  0  0  0  0  0  0
   14.8875  -18.3970    5.1517 C   0  0  0  0  0  0  0  0  0  0  0  0
   13.5353  -18.7599    4.7824 C   0  0  0  0  0  0  0  0  0  0  0  0
   12.9065  -18.1408    3.9043 O   0  0  0  0  0  0  0  0  0  0  0  0
   16.8487  -16.8944    4.7211 C   0  0  0  0  0  0  0  0  0  0  0  0
   17.9652  -17.4308    4.8661 O   0  0  0  0  0  0  0  0  0  0  0  0
   12.9064  -19.8222    5.4119 O   0  0  0  0  0  0  0  0  0  0  0  0
   16.7374  -15.5233    5.1230 N   0  0  0  0  0  0  0  0  0  0  0  0
   17.8704  -14.7640    5.6422 C   0  0  1  0  0  0  0  0  0  0  0  0
   17.7533  -13.3100    5.3171 C   0  0  0  0  0  0  0  0  0  0  0  0
   18.8169  -12.4560    5.8736 C   0  0  0  0  0  0  0  0  0  0  0  0
   18.5480  -11.6720    6.9701 C   0  0  0  0  0  0  0  0  0  0  0  0
   19.5308  -10.8528    7.5282 C   0  0  0  0  0  0  0  0  0  0  0  0
   20.7962  -10.8208    6.9791 C   0  0  0  0  0  0  0  0  0  0  0  0
   21.0370  -11.6138    5.8842 C   0  0  0  0  0  0  0  0  0  0  0  0
   20.0784  -12.4289    5.3202 C   0  0  0  0  0  0  0  0  0  0  0  0
   17.9235  -14.9901    7.1039 C   0  0  0  0  0  0  0  0  0  0  0  0
   16.8837  -14.8893    7.8126 O   0  0  0  0  0  0  0  0  0  0  0  0
   19.1333  -15.3265    7.7637 N   0  0  0  0  0  0  0  0  0  0  0  0
   19.1244  -15.5011    9.2095 C   0  0  1  0  0  0  0  0  0  0  0  0
   19.4869  -16.9360    9.5478 C   0  0  0  0  0  0  0  0  0  0  0  0
   18.3797  -17.8814    9.3160 C   0  0  0  0  0  0  0  0  0  0  0  0
   17.1440  -17.9575    9.8861 C   0  0  0  0  0  0  0  0  0  0  0  0
   16.5111  -19.0156    9.3315 N   0  0  0  0  0  0  0  0  0  0  0  0
   17.3230  -19.5849    8.4429 C   0  0  0  0  0  0  0  0  0  0  0  0
   18.4741  -18.9001    8.4219 N   0  0  0  0  0  0  0  0  0  0  0  0
   20.0961  -14.5705    9.8329 C   0  0  0  0  0  0  0  0  0  0  0  0
   20.2887  -14.5068   11.0705 O   0  0  0  0  0  0  0  0  0  0  0  0
   20.8627  -13.6983    9.0487 O   0  0  0  0  0  0  0  0  0  0  0  0
  2  1  1  6
  2  3  1  0
  4  5  2  0
  4  3  1  0
  6  2  1  0
  6  7  2  0
  8  4  1  0
  9  6  1  0
 10  9  1  0
 11 12  1  0
 10 11  1  1
 12 17  2  0
 13 14  2  0
 13 12  1  0
 14 15  1  0
 15 16  2  0
 17 16  1  0
 18 10  1  0
 18 19  2  0
 20 18  1  0
 21 20  1  0
 21 28  1  0
 21 22  1  6
 23 22  1  0
 24 23  2  0
 25 24  1  0
 26 25  1  0
 26 27  2  0
 27 23  1  0
 28 30  1  0
 29 28  2  0
M  END
$$$$
