DFH.pdb
     RDKit          3D

 30 31  0  0  1  0  0  0  0  0999 V2000
   27.5787  -20.4656  -19.1735 N   0  0  0  0  0  0  0  0  0  0  0  0
   27.3680  -19.4270  -18.1323 C   0  0  1  0  0  0  0  0  0  0  0  0
   26.4686  -18.4241  -18.7624 C   0  0  0  0  0  0  0  0  0  0  0  0
   27.0755  -17.3403  -19.5062 C   0  0  0  0  0  0  0  0  0  0  0  0
   28.0609  -17.5226  -20.2448 O   0  0  0  0  0  0  0  0  0  0  0  0
   26.8419  -20.0706  -16.9078 C   0  0  0  0  0  0  0  0  0  0  0  0
   26.0478  -21.0302  -16.9715 O   0  0  0  0  0  0  0  0  0  0  0  0
   26.5603  -16.0576  -19.4067 O   0  0  0  0  0  0  0  0  0  0  0  0
   27.2133  -19.6298  -15.5958 N   0  0  0  0  0  0  0  0  0  0  0  0
   26.6081  -20.1752  -14.3849 C   0  0  1  0  0  0  0  0  0  0  0  0
   27.3426  -19.7391  -13.1586 C   0  0  0  0  0  0  0  0  0  0  0  0
   26.7191  -20.1302  -11.8825 C   0  0  0  0  0  0  0  0  0  0  0  0
   26.1338  -19.1678  -11.0948 C   0  0  0  0  0  0  0  0  0  0  0  0
   25.5295  -19.5001   -9.8812 C   0  0  0  0  0  0  0  0  0  0  0  0
   25.5132  -20.8122   -9.4547 C   0  0  0  0  0  0  0  0  0  0  0  0
   26.1053  -21.7527  -10.2611 C   0  0  0  0  0  0  0  0  0  0  0  0
   26.7065  -21.4424  -11.4627 C   0  0  0  0  0  0  0  0  0  0  0  0
   25.1959  -19.7329  -14.3570 C   0  0  0  0  0  0  0  0  0  0  0  0
   24.8691  -18.5846  -14.7672 O   0  0  0  0  0  0  0  0  0  0  0  0
   24.1603  -20.5727  -13.8730 N   0  0  0  0  0  0  0  0  0  0  0  0
   22.7924  -20.0730  -13.8630 C   0  0  1  0  0  0  0  0  0  0  0  0
   22.2081  -20.1707  -15.2608 C   0  0  0  0  0  0  0  0  0  0  0  0
   21.7858  -18.8664  -15.8027 C   0  0  0  0  0  0  0  0  0  0  0  0
   21.7101  -17.6416  -15.2095 C   0  0  0  0  0  0  0  0  0  0  0  0
   21.2512  -16.7736  -16.1389 N   0  0  0  0  0  0  0  0  0  0  0  0
   21.0455  -17.4321  -17.2777 C   0  0  0  0  0  0  0  0  0  0  0  0
   21.3690  -18.7179  -17.0874 N   0  0  0  0  0  0  0  0  0  0  0  0
   21.9755  -20.8669  -12.9136 C   0  0  0  0  0  0  0  0  0  0  0  0
   22.2021  -22.0728  -12.6549 O   0  0  0  0  0  0  0  0  0  0  0  0
   20.8862  -20.2920  -12.2456 O   0  0  0  0  0  0  0  0  0  0  0  0
  2  1  1  6
  2  3  1  0
  4  5  2  0
  4  3  1  0
  6  2  1  0
  6  7  2  0
  8  4  1  0
  9  6  1  0
 10  9  1  0
 11 12  1  0
 10 11  1  1
 12 17  2  0
 13 14  2  0
 13 12  1  0
 14 15  1  0
 15 16  2  0
 17 16  1  0
 18 10  1  0
 18 19  2  0
 20 18  1  0
 21 20  1  0
 21 28  1  0
 21 22  1  6
 23 22  1  0
 24 23  2  0
 25 24  1  0
 26 25  1  0
 26 27  2  0
 27 23  1  0
 28 30  1  0
 29 28  2  0
M  END
$$$$
