DFH.pdb
     RDKit          3D

 30 31  0  0  1  0  0  0  0  0999 V2000
   29.8861  -16.2697  -20.8010 N   0  0  0  0  0  0  0  0  0  0  0  0
   30.1169  -14.9239  -20.2157 C   0  0  1  0  0  0  0  0  0  0  0  0
   31.0816  -14.2624  -21.1343 C   0  0  0  0  0  0  0  0  0  0  0  0
   32.4203  -14.8072  -21.2200 C   0  0  0  0  0  0  0  0  0  0  0  0
   32.8194  -15.4107  -22.2330 O   0  0  0  0  0  0  0  0  0  0  0  0
   28.8160  -14.2359  -20.0590 C   0  0  0  0  0  0  0  0  0  0  0  0
   27.7984  -14.6312  -20.6620 O   0  0  0  0  0  0  0  0  0  0  0  0
   33.2965  -14.6633  -20.1560 O   0  0  0  0  0  0  0  0  0  0  0  0
   28.6574  -13.0895  -19.2138 N   0  0  0  0  0  0  0  0  0  0  0  0
   27.3641  -12.4496  -18.9951 C   0  0  1  0  0  0  0  0  0  0  0  0
   27.0410  -12.3460  -17.5396 C   0  0  0  0  0  0  0  0  0  0  0  0
   26.5795  -13.5951  -16.9097 C   0  0  0  0  0  0  0  0  0  0  0  0
   27.3698  -14.2066  -15.9659 C   0  0  0  0  0  0  0  0  0  0  0  0
   26.9648  -15.3889  -15.3440 C   0  0  0  0  0  0  0  0  0  0  0  0
   25.7541  -15.9625  -15.6738 C   0  0  0  0  0  0  0  0  0  0  0  0
   24.9850  -15.3305  -16.6197 C   0  0  0  0  0  0  0  0  0  0  0  0
   25.3692  -14.1625  -17.2438 C   0  0  0  0  0  0  0  0  0  0  0  0
   27.4151  -11.1162  -19.6353 C   0  0  0  0  0  0  0  0  0  0  0  0
   28.4003  -10.3482  -19.4535 O   0  0  0  0  0  0  0  0  0  0  0  0
   26.3691  -10.6497  -20.4723 N   0  0  0  0  0  0  0  0  0  0  0  0
   26.4983   -9.3432  -21.1025 C   0  0  1  0  0  0  0  0  0  0  0  0
   27.0276   -9.5133  -22.5152 C   0  0  0  0  0  0  0  0  0  0  0  0
   28.4925   -9.6699  -22.5681 C   0  0  0  0  0  0  0  0  0  0  0  0
   29.4841   -8.9478  -21.9740 C   0  0  0  0  0  0  0  0  0  0  0  0
   30.6607   -9.4957  -22.3521 N   0  0  0  0  0  0  0  0  0  0  0  0
   30.4157  -10.5276  -23.1571 C   0  0  0  0  0  0  0  0  0  0  0  0
   29.0891  -10.6474  -23.2995 N   0  0  0  0  0  0  0  0  0  0  0  0
   25.1785   -8.6678  -21.1318 C   0  0  0  0  0  0  0  0  0  0  0  0
   25.0030   -7.5244  -21.6161 O   0  0  0  0  0  0  0  0  0  0  0  0
   24.0388   -9.2915  -20.6069 O   0  0  0  0  0  0  0  0  0  0  0  0
  2  1  1  6
  2  3  1  0
  4  5  2  0
  4  3  1  0
  6  2  1  0
  6  7  2  0
  8  4  1  0
  9  6  1  0
 10  9  1  0
 11 12  1  0
 10 11  1  1
 12 17  2  0
 13 14  2  0
 13 12  1  0
 14 15  1  0
 15 16  2  0
 17 16  1  0
 18 10  1  0
 18 19  2  0
 20 18  1  0
 21 20  1  0
 21 28  1  0
 21 22  1  6
 23 22  1  0
 24 23  2  0
 25 24  1  0
 26 25  1  0
 26 27  2  0
 27 23  1  0
 28 30  1  0
 29 28  2  0
M  END
$$$$
