DFH.pdb
     RDKit          3D

 30 31  0  0  1  0  0  0  0  0999 V2000
   23.9168  -24.7138  -14.9951 N   0  0  0  0  0  0  0  0  0  0  0  0
   25.2281  -24.0753  -14.7122 C   0  0  1  0  0  0  0  0  0  0  0  0
   26.0667  -24.3681  -15.9050 C   0  0  0  0  0  0  0  0  0  0  0  0
   25.5256  -24.0508  -17.2099 C   0  0  0  0  0  0  0  0  0  0  0  0
   24.6579  -24.7610  -17.7507 O   0  0  0  0  0  0  0  0  0  0  0  0
   25.0139  -22.6396  -14.4240 C   0  0  0  0  0  0  0  0  0  0  0  0
   23.8840  -22.1212  -14.5242 O   0  0  0  0  0  0  0  0  0  0  0  0
   25.9727  -22.9302  -17.8917 O   0  0  0  0  0  0  0  0  0  0  0  0
   26.0833  -21.7763  -14.0179 N   0  0  0  0  0  0  0  0  0  0  0  0
   25.9016  -20.3414  -13.8234 C   0  0  1  0  0  0  0  0  0  0  0  0
   26.8453  -19.8016  -12.7980 C   0  0  0  0  0  0  0  0  0  0  0  0
   26.5295  -20.1614  -11.4048 C   0  0  0  0  0  0  0  0  0  0  0  0
   26.9540  -21.3705  -10.9075 C   0  0  0  0  0  0  0  0  0  0  0  0
   26.6777  -21.7450   -9.5915 C   0  0  0  0  0  0  0  0  0  0  0  0
   25.9678  -20.8965   -8.7670 C   0  0  0  0  0  0  0  0  0  0  0  0
   25.5560  -19.6953   -9.2898 C   0  0  0  0  0  0  0  0  0  0  0  0
   25.8201  -19.3092  -10.5869 C   0  0  0  0  0  0  0  0  0  0  0  0
   26.0965  -19.6876  -15.1369 C   0  0  0  0  0  0  0  0  0  0  0  0
   26.7998  -20.2319  -16.0328 O   0  0  0  0  0  0  0  0  0  0  0  0
   25.5068  -18.4339  -15.4414 N   0  0  0  0  0  0  0  0  0  0  0  0
   24.8019  -18.2735  -16.7056 C   0  0  1  0  0  0  0  0  0  0  0  0
   23.7300  -19.3418  -16.8260 C   0  0  0  0  0  0  0  0  0  0  0  0
   22.9537  -19.2428  -18.0753 C   0  0  0  0  0  0  0  0  0  0  0  0
   23.3568  -18.9931  -19.3531 C   0  0  0  0  0  0  0  0  0  0  0  0
   22.2508  -18.9969  -20.1305 N   0  0  0  0  0  0  0  0  0  0  0  0
   21.1885  -19.2407  -19.3657 C   0  0  0  0  0  0  0  0  0  0  0  0
   21.6036  -19.3939  -18.1013 N   0  0  0  0  0  0  0  0  0  0  0  0
   24.1862  -16.9259  -16.7688 C   0  0  0  0  0  0  0  0  0  0  0  0
   23.4600  -16.4596  -15.8589 O   0  0  0  0  0  0  0  0  0  0  0  0
   24.3926  -16.0912  -17.8752 O   0  0  0  0  0  0  0  0  0  0  0  0
  2  1  1  6
  2  3  1  0
  4  5  2  0
  4  3  1  0
  6  2  1  0
  6  7  2  0
  8  4  1  0
  9  6  1  0
 10  9  1  0
 11 12  1  0
 10 11  1  1
 12 17  2  0
 13 14  2  0
 13 12  1  0
 14 15  1  0
 15 16  2  0
 17 16  1  0
 18 10  1  0
 18 19  2  0
 20 18  1  0
 21 20  1  0
 21 28  1  0
 21 22  1  1
 23 22  1  0
 24 23  2  0
 25 24  1  0
 26 25  1  0
 26 27  2  0
 27 23  1  0
 28 30  1  0
 29 28  2  0
M  END
$$$$
