DFH.pdb
     RDKit          3D

 30 31  0  0  1  0  0  0  0  0999 V2000
   20.7182  -14.2650  -19.3722 N   0  0  0  0  0  0  0  0  0  0  0  0
   20.8926  -12.8135  -19.6364 C   0  0  1  0  0  0  0  0  0  0  0  0
   19.6193  -12.3796  -20.2707 C   0  0  0  0  0  0  0  0  0  0  0  0
   19.4077  -12.7106  -21.6643 C   0  0  0  0  0  0  0  0  0  0  0  0
   18.3498  -12.4222  -22.2537 O   0  0  0  0  0  0  0  0  0  0  0  0
   21.2356  -12.1298  -18.3695 C   0  0  0  0  0  0  0  0  0  0  0  0
   20.5855  -12.3379  -17.3256 O   0  0  0  0  0  0  0  0  0  0  0  0
   20.3975  -13.3662  -22.3789 O   0  0  0  0  0  0  0  0  0  0  0  0
   22.3228  -11.2010  -18.2751 N   0  0  0  0  0  0  0  0  0  0  0  0
   22.7144  -10.5779  -17.0148 C   0  0  1  0  0  0  0  0  0  0  0  0
   24.1854  -10.6939  -16.7777 C   0  0  0  0  0  0  0  0  0  0  0  0
   24.6809  -12.0661  -16.5737 C   0  0  0  0  0  0  0  0  0  0  0  0
   25.0790  -12.8080  -17.6601 C   0  0  0  0  0  0  0  0  0  0  0  0
   25.5580  -14.1101  -17.5065 C   0  0  0  0  0  0  0  0  0  0  0  0
   25.6376  -14.6724  -16.2491 C   0  0  0  0  0  0  0  0  0  0  0  0
   25.2332  -13.9089  -15.1818 C   0  0  0  0  0  0  0  0  0  0  0  0
   24.7578  -12.6214  -15.3151 C   0  0  0  0  0  0  0  0  0  0  0  0
   22.2837   -9.1628  -17.0671 C   0  0  0  0  0  0  0  0  0  0  0  0
   22.2310   -8.5425  -18.1653 O   0  0  0  0  0  0  0  0  0  0  0  0
   21.9155   -8.4510  -15.8967 N   0  0  0  0  0  0  0  0  0  0  0  0
   21.4865   -7.0647  -16.0188 C   0  0  1  0  0  0  0  0  0  0  0  0
   20.2267   -6.9977  -16.8634 C   0  0  0  0  0  0  0  0  0  0  0  0
   19.7197   -5.6243  -17.0364 C   0  0  0  0  0  0  0  0  0  0  0  0
   20.2524   -4.5587  -17.6985 C   0  0  0  0  0  0  0  0  0  0  0  0
   19.3970   -3.5231  -17.5454 N   0  0  0  0  0  0  0  0  0  0  0  0
   18.3617   -3.9255  -16.8112 C   0  0  0  0  0  0  0  0  0  0  0  0
   18.5452   -5.2132  -16.4909 N   0  0  0  0  0  0  0  0  0  0  0  0
   21.2269   -6.4997  -14.6725 C   0  0  0  0  0  0  0  0  0  0  0  0
   20.9878   -7.2077  -13.6654 O   0  0  0  0  0  0  0  0  0  0  0  0
   21.2371   -5.1150  -14.4586 O   0  0  0  0  0  0  0  0  0  0  0  0
  2  1  1  1
  2  3  1  0
  4  5  2  0
  4  3  1  0
  6  2  1  0
  6  7  2  0
  8  4  1  0
  9  6  1  0
 10  9  1  0
 11 12  1  0
 10 11  1  6
 12 17  2  0
 13 14  2  0
 13 12  1  0
 14 15  1  0
 15 16  2  0
 17 16  1  0
 18 10  1  0
 18 19  2  0
 20 18  1  0
 21 20  1  0
 21 28  1  0
 21 22  1  6
 23 22  1  0
 24 23  2  0
 25 24  1  0
 26 25  1  0
 26 27  2  0
 27 23  1  0
 28 30  1  0
 29 28  2  0
M  END
$$$$
