DFH.pdb
     RDKit          3D

 30 31  0  0  1  0  0  0  0  0999 V2000
   28.2644  -21.6030  -15.0212 N   0  0  0  0  0  0  0  0  0  0  0  0
   27.5972  -20.4464  -14.3696 C   0  0  1  0  0  0  0  0  0  0  0  0
   26.9521  -19.6958  -15.4797 C   0  0  0  0  0  0  0  0  0  0  0  0
   27.8085  -18.9918  -16.4110 C   0  0  0  0  0  0  0  0  0  0  0  0
   28.5407  -18.0528  -16.0478 O   0  0  0  0  0  0  0  0  0  0  0  0
   26.6778  -20.9461  -13.3230 C   0  0  0  0  0  0  0  0  0  0  0  0
   26.0392  -22.0064  -13.4756 O   0  0  0  0  0  0  0  0  0  0  0  0
   27.8281  -19.3581  -17.7474 O   0  0  0  0  0  0  0  0  0  0  0  0
   26.4743  -20.2451  -12.0898 N   0  0  0  0  0  0  0  0  0  0  0  0
   25.4496  -20.6347  -11.1264 C   0  0  1  0  0  0  0  0  0  0  0  0
   25.5782  -19.8715   -9.8480 C   0  0  0  0  0  0  0  0  0  0  0  0
   26.8323  -20.0953   -9.1081 C   0  0  0  0  0  0  0  0  0  0  0  0
   27.7904  -20.9250   -9.6399 C   0  0  0  0  0  0  0  0  0  0  0  0
   28.9930  -21.1584   -8.9707 C   0  0  0  0  0  0  0  0  0  0  0  0
   29.2352  -20.5524   -7.7551 C   0  0  0  0  0  0  0  0  0  0  0  0
   28.2609  -19.7287   -7.2472 C   0  0  0  0  0  0  0  0  0  0  0  0
   27.0677  -19.4868   -7.8945 C   0  0  0  0  0  0  0  0  0  0  0  0
   24.1329  -20.4077  -11.7631 C   0  0  0  0  0  0  0  0  0  0  0  0
   24.0177  -19.6328  -12.7530 O   0  0  0  0  0  0  0  0  0  0  0  0
   22.9565  -21.0452  -11.2924 N   0  0  0  0  0  0  0  0  0  0  0  0
   21.7209  -20.8948  -12.0485 C   0  0  1  0  0  0  0  0  0  0  0  0
   21.8217  -21.6802  -13.3437 C   0  0  0  0  0  0  0  0  0  0  0  0
   20.5886  -21.6257  -14.1497 C   0  0  0  0  0  0  0  0  0  0  0  0
   19.3904  -21.0265  -13.8988 C   0  0  0  0  0  0  0  0  0  0  0  0
   18.5849  -21.2837  -14.9536 N   0  0  0  0  0  0  0  0  0  0  0  0
   19.2554  -22.0201  -15.8373 C   0  0  0  0  0  0  0  0  0  0  0  0
   20.4871  -22.2385  -15.3582 N   0  0  0  0  0  0  0  0  0  0  0  0
   20.5771  -21.3867  -11.2430 C   0  0  0  0  0  0  0  0  0  0  0  0
   19.3822  -21.2716  -11.6057 O   0  0  0  0  0  0  0  0  0  0  0  0
   20.7840  -22.0182  -10.0094 O   0  0  0  0  0  0  0  0  0  0  0  0
  2  1  1  6
  2  3  1  0
  4  5  2  0
  4  3  1  0
  6  2  1  0
  6  7  2  0
  8  4  1  0
  9  6  1  0
 10  9  1  0
 11 12  1  0
 10 11  1  1
 12 17  2  0
 13 14  2  0
 13 12  1  0
 14 15  1  0
 15 16  2  0
 17 16  1  0
 18 10  1  0
 18 19  2  0
 20 18  1  0
 21 20  1  0
 21 28  1  0
 21 22  1  6
 23 22  1  0
 24 23  2  0
 25 24  1  0
 26 25  1  0
 26 27  2  0
 27 23  1  0
 28 30  1  0
 29 28  2  0
M  END
$$$$
