DFH.pdb
     RDKit          3D

 30 31  0  0  1  0  0  0  0  0999 V2000
   25.5062  -10.4598  -20.7467 N   0  0  0  0  0  0  0  0  0  0  0  0
   24.4712  -11.1700  -19.9521 C   0  0  1  0  0  0  0  0  0  0  0  0
   25.1005  -12.4597  -19.5612 C   0  0  0  0  0  0  0  0  0  0  0  0
   25.4742  -13.3797  -20.6149 C   0  0  0  0  0  0  0  0  0  0  0  0
   24.9938  -13.2956  -21.7602 O   0  0  0  0  0  0  0  0  0  0  0  0
   24.0467  -10.3049  -18.8289 C   0  0  0  0  0  0  0  0  0  0  0  0
   23.2714  -10.7243  -17.9466 O   0  0  0  0  0  0  0  0  0  0  0  0
   26.3902  -14.3883  -20.3616 O   0  0  0  0  0  0  0  0  0  0  0  0
   24.4996   -8.9518  -18.6961 N   0  0  0  0  0  0  0  0  0  0  0  0
   24.1623   -8.1216  -17.5443 C   0  0  1  0  0  0  0  0  0  0  0  0
   25.3855   -7.6762  -16.8102 C   0  0  0  0  0  0  0  0  0  0  0  0
   26.1889   -8.7589  -16.2164 C   0  0  0  0  0  0  0  0  0  0  0  0
   25.6969   -9.4478  -15.1334 C   0  0  0  0  0  0  0  0  0  0  0  0
   26.4267  -10.4825  -14.5460 C   0  0  0  0  0  0  0  0  0  0  0  0
   27.6631  -10.8284  -15.0514 C   0  0  0  0  0  0  0  0  0  0  0  0
   28.1302  -10.1237  -16.1334 C   0  0  0  0  0  0  0  0  0  0  0  0
   27.4228   -9.0991  -16.7261 C   0  0  0  0  0  0  0  0  0  0  0  0
   23.3794   -6.9686  -18.0427 C   0  0  0  0  0  0  0  0  0  0  0  0
   23.7483   -6.3301  -19.0672 O   0  0  0  0  0  0  0  0  0  0  0  0
   22.1928   -6.5368  -17.3963 N   0  0  0  0  0  0  0  0  0  0  0  0
   21.4149   -5.4602  -17.9935 C   0  0  1  0  0  0  0  0  0  0  0  0
   20.0135   -5.9579  -18.2985 C   0  0  0  0  0  0  0  0  0  0  0  0
   19.9375   -6.7421  -19.5445 C   0  0  0  0  0  0  0  0  0  0  0  0
   20.8884   -7.0106  -20.4833 C   0  0  0  0  0  0  0  0  0  0  0  0
   20.3049   -7.7667  -21.4401 N   0  0  0  0  0  0  0  0  0  0  0  0
   19.0298   -7.9660  -21.1127 C   0  0  0  0  0  0  0  0  0  0  0  0
   18.7889   -7.3432  -19.9515 N   0  0  0  0  0  0  0  0  0  0  0  0
   21.3541   -4.3087  -17.0612 C   0  0  0  0  0  0  0  0  0  0  0  0
   21.1633   -4.4333  -15.8280 O   0  0  0  0  0  0  0  0  0  0  0  0
   21.5110   -2.9964  -17.5265 O   0  0  0  0  0  0  0  0  0  0  0  0
  2  1  1  1
  2  3  1  0
  4  5  2  0
  4  3  1  0
  6  2  1  0
  6  7  2  0
  8  4  1  0
  9  6  1  0
 10  9  1  0
 11 12  1  0
 10 11  1  6
 12 17  2  0
 13 14  2  0
 13 12  1  0
 14 15  1  0
 15 16  2  0
 17 16  1  0
 18 10  1  0
 18 19  2  0
 20 18  1  0
 21 20  1  0
 21 28  1  0
 21 22  1  1
 23 22  1  0
 24 23  2  0
 25 24  1  0
 26 25  1  0
 26 27  2  0
 27 23  1  0
 28 30  1  0
 29 28  2  0
M  END
$$$$
