DFH.pdb
     RDKit          3D

 30 31  0  0  1  0  0  0  0  0999 V2000
   28.5702  -22.0607  -18.4451 N   0  0  0  0  0  0  0  0  0  0  0  0
   28.2476  -20.8229  -17.6895 C   0  0  1  0  0  0  0  0  0  0  0  0
   27.4999  -19.9673  -18.6491 C   0  0  0  0  0  0  0  0  0  0  0  0
   28.2354  -19.3756  -19.7469 C   0  0  0  0  0  0  0  0  0  0  0  0
   29.4129  -18.9929  -19.6170 O   0  0  0  0  0  0  0  0  0  0  0  0
   27.5124  -21.1868  -16.4577 C   0  0  0  0  0  0  0  0  0  0  0  0
   26.6795  -22.1151  -16.4519 O   0  0  0  0  0  0  0  0  0  0  0  0
   27.6300  -19.2225  -20.9840 O   0  0  0  0  0  0  0  0  0  0  0  0
   27.7164  -20.4988  -15.2173 N   0  0  0  0  0  0  0  0  0  0  0  0
   26.9220  -20.7788  -14.0255 C   0  0  1  0  0  0  0  0  0  0  0  0
   27.5566  -20.2134  -12.7962 C   0  0  0  0  0  0  0  0  0  0  0  0
   26.7467  -20.3148  -11.5698 C   0  0  0  0  0  0  0  0  0  0  0  0
   26.6526  -21.5232  -10.9216 C   0  0  0  0  0  0  0  0  0  0  0  0
   25.8983  -21.6577   -9.7548 C   0  0  0  0  0  0  0  0  0  0  0  0
   25.2319  -20.5674   -9.2343 C   0  0  0  0  0  0  0  0  0  0  0  0
   25.3432  -19.3728   -9.9022 C   0  0  0  0  0  0  0  0  0  0  0  0
   26.0838  -19.2219  -11.0555 C   0  0  0  0  0  0  0  0  0  0  0  0
   25.5729  -20.2125  -14.2486 C   0  0  0  0  0  0  0  0  0  0  0  0
   25.4287  -19.0451  -14.7067 O   0  0  0  0  0  0  0  0  0  0  0  0
   24.3965  -20.9506  -13.9599 N   0  0  0  0  0  0  0  0  0  0  0  0
   23.1005  -20.3073  -14.1257 C   0  0  1  0  0  0  0  0  0  0  0  0
   22.7275  -20.2933  -15.5972 C   0  0  0  0  0  0  0  0  0  0  0  0
   21.4128  -19.6780  -15.8539 C   0  0  0  0  0  0  0  0  0  0  0  0
   20.9624  -18.4142  -15.6135 C   0  0  0  0  0  0  0  0  0  0  0  0
   19.6753  -18.3624  -16.0237 N   0  0  0  0  0  0  0  0  0  0  0  0
   19.3292  -19.5544  -16.5055 C   0  0  0  0  0  0  0  0  0  0  0  0
   20.3851  -20.3729  -16.4081 N   0  0  0  0  0  0  0  0  0  0  0  0
   22.0734  -21.0410  -13.3475 C   0  0  0  0  0  0  0  0  0  0  0  0
   22.1046  -22.2818  -13.1681 O   0  0  0  0  0  0  0  0  0  0  0  0
   20.9943  -20.3652  -12.7626 O   0  0  0  0  0  0  0  0  0  0  0  0
  2  1  1  6
  2  3  1  0
  4  5  2  0
  4  3  1  0
  6  2  1  0
  6  7  2  0
  8  4  1  0
  9  6  1  0
 10  9  1  0
 11 12  1  0
 10 11  1  1
 12 17  2  0
 13 14  2  0
 13 12  1  0
 14 15  1  0
 15 16  2  0
 17 16  1  0
 18 10  1  0
 18 19  2  0
 20 18  1  0
 21 20  1  0
 21 28  1  0
 21 22  1  6
 23 22  1  0
 24 23  2  0
 25 24  1  0
 26 25  1  0
 26 27  2  0
 27 23  1  0
 28 30  1  0
 29 28  2  0
M  END
$$$$
