DFH.pdb
     RDKit          3D

 30 31  0  0  1  0  0  0  0  0999 V2000
   32.0283  -35.2836   -7.0068 N   0  0  0  0  0  0  0  0  0  0  0  0
   31.4264  -36.1361   -5.9494 C   0  0  1  0  0  0  0  0  0  0  0  0
   32.5755  -36.6069   -5.1309 C   0  0  0  0  0  0  0  0  0  0  0  0
   33.4595  -37.5977   -5.7082 C   0  0  0  0  0  0  0  0  0  0  0  0
   34.6252  -37.7539   -5.3002 O   0  0  0  0  0  0  0  0  0  0  0  0
   30.4063  -35.3513   -5.2189 C   0  0  0  0  0  0  0  0  0  0  0  0
   30.6828  -34.2477   -4.7080 O   0  0  0  0  0  0  0  0  0  0  0  0
   33.0148  -38.4039   -6.7438 O   0  0  0  0  0  0  0  0  0  0  0  0
   29.0589  -35.8131   -5.0610 N   0  0  0  0  0  0  0  0  0  0  0  0
   28.0282  -35.0146   -4.4053 C   0  0  1  0  0  0  0  0  0  0  0  0
   26.7598  -34.9978   -5.1955 C   0  0  0  0  0  0  0  0  0  0  0  0
   26.6965  -33.9785   -6.2572 C   0  0  0  0  0  0  0  0  0  0  0  0
   27.4206  -34.1608   -7.4113 C   0  0  0  0  0  0  0  0  0  0  0  0
   27.3830  -33.2195   -8.4413 C   0  0  0  0  0  0  0  0  0  0  0  0
   26.6104  -32.0838   -8.3105 C   0  0  0  0  0  0  0  0  0  0  0  0
   25.8977  -31.9272   -7.1473 C   0  0  0  0  0  0  0  0  0  0  0  0
   25.9230  -32.8467   -6.1200 C   0  0  0  0  0  0  0  0  0  0  0  0
   27.8183  -35.5836   -3.0552 C   0  0  0  0  0  0  0  0  0  0  0  0
   28.4892  -36.5772   -2.6602 O   0  0  0  0  0  0  0  0  0  0  0  0
   26.8636  -35.0414   -2.1569 N   0  0  0  0  0  0  0  0  0  0  0  0
   26.7255  -35.6311   -0.8325 C   0  0  1  0  0  0  0  0  0  0  0  0
   28.0636  -35.5860   -0.1168 C   0  0  0  0  0  0  0  0  0  0  0  0
   28.0013  -36.1143    1.2580 C   0  0  0  0  0  0  0  0  0  0  0  0
   27.6182  -37.3373    1.7220 C   0  0  0  0  0  0  0  0  0  0  0  0
   27.7340  -37.3094    3.0687 N   0  0  0  0  0  0  0  0  0  0  0  0
   28.1750  -36.1085    3.4376 C   0  0  0  0  0  0  0  0  0  0  0  0
   28.3439  -35.3634    2.3373 N   0  0  0  0  0  0  0  0  0  0  0  0
   25.7073  -34.8844   -0.0549 C   0  0  0  0  0  0  0  0  0  0  0  0
   24.8027  -35.4452    0.6083 O   0  0  0  0  0  0  0  0  0  0  0  0
   25.7092  -33.4835   -0.0246 O   0  0  0  0  0  0  0  0  0  0  0  0
  2  1  1  6
  2  3  1  0
  4  5  2  0
  4  3  1  0
  6  2  1  0
  6  7  2  0
  8  4  1  0
  9  6  1  0
 10  9  1  0
 11 12  1  0
 10 11  1  6
 12 17  2  0
 13 14  2  0
 13 12  1  0
 14 15  1  0
 15 16  2  0
 17 16  1  0
 18 10  1  0
 18 19  2  0
 20 18  1  0
 21 20  1  0
 21 28  1  0
 21 22  1  1
 23 22  1  0
 24 23  2  0
 25 24  1  0
 26 25  1  0
 26 27  2  0
 27 23  1  0
 28 30  1  0
 29 28  2  0
M  END
$$$$
