DFH.pdb
     RDKit          3D

 30 31  0  0  1  0  0  0  0  0999 V2000
   20.5969   -6.4775  -14.3013 N   0  0  0  0  0  0  0  0  0  0  0  0
   20.6964   -7.9175  -14.6528 C   0  0  1  0  0  0  0  0  0  0  0  0
   19.5493   -8.1738  -15.5642 C   0  0  0  0  0  0  0  0  0  0  0  0
   18.2158   -8.1487  -15.0008 C   0  0  0  0  0  0  0  0  0  0  0  0
   17.8794   -8.9124  -14.0771 O   0  0  0  0  0  0  0  0  0  0  0  0
   22.0345   -8.1831  -15.2266 C   0  0  0  0  0  0  0  0  0  0  0  0
   22.5689   -7.3822  -16.0194 O   0  0  0  0  0  0  0  0  0  0  0  0
   17.2737   -7.2575  -15.4894 O   0  0  0  0  0  0  0  0  0  0  0  0
   22.7807   -9.3635  -14.9050 N   0  0  0  0  0  0  0  0  0  0  0  0
   24.1134   -9.6191  -15.4420 C   0  0  1  0  0  0  0  0  0  0  0  0
   25.0188  -10.2084  -14.4093 C   0  0  0  0  0  0  0  0  0  0  0  0
   26.3057  -10.7130  -14.9187 C   0  0  0  0  0  0  0  0  0  0  0  0
   26.7167  -11.9793  -14.5769 C   0  0  0  0  0  0  0  0  0  0  0  0
   27.9275  -12.4939  -15.0431 C   0  0  0  0  0  0  0  0  0  0  0  0
   28.7335  -11.7286  -15.8607 C   0  0  0  0  0  0  0  0  0  0  0  0
   28.2986  -10.4674  -16.1861 C   0  0  0  0  0  0  0  0  0  0  0  0
   27.1057   -9.9433  -15.7348 C   0  0  0  0  0  0  0  0  0  0  0  0
   23.9574  -10.5216  -16.6047 C   0  0  0  0  0  0  0  0  0  0  0  0
   23.3127  -11.6022  -16.5033 O   0  0  0  0  0  0  0  0  0  0  0  0
   24.5203  -10.2132  -17.8697 N   0  0  0  0  0  0  0  0  0  0  0  0
   24.4127  -11.1872  -18.9470 C   0  0  1  0  0  0  0  0  0  0  0  0
   23.8857  -10.5037  -20.1959 C   0  0  0  0  0  0  0  0  0  0  0  0
   23.6550  -11.4385  -21.3122 C   0  0  0  0  0  0  0  0  0  0  0  0
   23.6395  -12.8012  -21.3397 C   0  0  0  0  0  0  0  0  0  0  0  0
   23.3926  -13.1737  -22.6155 N   0  0  0  0  0  0  0  0  0  0  0  0
   23.2577  -12.0809  -23.3642 C   0  0  0  0  0  0  0  0  0  0  0  0
   23.4162  -11.0076  -22.5785 N   0  0  0  0  0  0  0  0  0  0  0  0
   25.7425  -11.7852  -19.2170 C   0  0  0  0  0  0  0  0  0  0  0  0
   25.8996  -12.8409  -19.8755 O   0  0  0  0  0  0  0  0  0  0  0  0
   26.9134  -11.1834  -18.7372 O   0  0  0  0  0  0  0  0  0  0  0  0
  2  1  1  6
  2  3  1  0
  4  5  2  0
  4  3  1  0
  6  2  1  0
  6  7  2  0
  8  4  1  0
  9  6  1  0
 10  9  1  0
 11 12  1  0
 10 11  1  1
 12 17  2  0
 13 14  2  0
 13 12  1  0
 14 15  1  0
 15 16  2  0
 17 16  1  0
 18 10  1  0
 18 19  2  0
 20 18  1  0
 21 20  1  0
 21 28  1  0
 21 22  1  6
 23 22  1  0
 24 23  2  0
 25 24  1  0
 26 25  1  0
 26 27  2  0
 27 23  1  0
 28 30  1  0
 29 28  2  0
M  END
$$$$
