MRK.pdb
     RDKit          3D

 29 28  0  0  1  0  0  0  0  0999 V2000
   32.2308  -24.3333  -18.5732 C   0  0  0  0  0  0  0  0  0  0  0  0
   31.1365  -23.3088  -17.5736 S   0  0  0  0  0  0  0  0  0  0  0  0
   29.8841  -22.4693  -18.5608 C   0  0  0  0  0  0  0  0  0  0  0  0
   28.9536  -21.6264  -17.7488 C   0  0  0  0  0  0  0  0  0  0  0  0
   28.4810  -22.3056  -16.4873 C   0  0  2  0  0  0  0  0  0  0  0  0
   27.7547  -23.5213  -16.7989 N   0  0  0  0  0  0  0  0  0  0  0  0
   27.6693  -21.4346  -15.6314 C   0  0  0  0  0  0  0  0  0  0  0  0
   28.0663  -20.2725  -15.3550 O   0  0  0  0  0  0  0  0  0  0  0  0
   20.5286  -20.4755  -12.0264 N   0  0  0  0  0  0  0  0  0  0  0  0
   20.4303  -19.2330  -12.7400 C   0  0  0  0  0  0  0  0  0  0  0  0
   19.7379  -18.2915  -12.2050 N   0  0  0  0  0  0  0  0  0  0  0  0
   21.0636  -19.0340  -13.9834 N   0  0  0  0  0  0  0  0  0  0  0  0
   21.9015  -20.0605  -14.5354 C   0  0  0  0  0  0  0  0  0  0  0  0
   23.3156  -19.9907  -13.9585 C   0  0  0  0  0  0  0  0  0  0  0  0
   24.2031  -20.8444  -14.8380 C   0  0  0  0  0  0  0  0  0  0  0  0
   25.6111  -20.9236  -14.2977 C   0  0  2  0  0  0  0  0  0  0  0  0
   26.4280  -21.8456  -15.0850 N   0  0  0  0  0  0  0  0  0  0  0  0
   25.5319  -21.3530  -12.8774 C   0  0  0  0  0  0  0  0  0  0  0  0
   25.0975  -22.4900  -12.5690 O   0  0  0  0  0  0  0  0  0  0  0  0
   19.6012  -17.3961  -12.7131 N   0  0  0  0  0  0  0  0  0  0  0  0
   25.9461  -20.4829  -11.8507 C   0  0  2  0  0  0  0  0  0  0  0  0
   25.7516  -20.8997  -10.3967 C   0  0  0  0  0  0  0  0  0  0  0  0
   26.7502  -20.1534   -9.6201 C   0  0  0  0  0  0  0  0  0  0  0  0
   26.9083  -20.2768   -8.1729 C   0  0  0  0  0  0  0  0  0  0  0  0
   27.8737  -19.4202   -7.4668 C   0  0  0  0  0  0  0  0  0  0  0  0
   27.8329  -19.8656   -5.9673 N   0  0  0  0  0  0  0  0  0  0  0  0
   28.8418  -19.0856   -5.2747 C   0  0  0  0  0  0  0  0  0  0  0  0
   24.3405  -20.7891  -10.1423 O   0  0  0  0  0  0  0  0  0  0  0  0
   23.5991  -19.9387  -10.6516 O   0  0  0  0  0  0  0  0  0  0  0  0
  2  1  1  0
  3  2  1  0
  4  3  1  0
  4  5  1  0
  5  7  1  0
  5  6  1  6
  7  8  2  0
  9 10  1  0
 10 12  1  0
 11 10  2  0
 12 13  1  0
 13 14  1  0
 14 15  1  0
 16 15  1  6
 17 16  1  0
 17  7  1  0
 18 19  2  0
 18 16  1  0
 20 18  1  0
 21 27  1  0
 21 20  1  0
 21 22  1  6
 23 22  1  0
 24 23  1  0
 25 24  1  0
 26 25  1  0
 27 29  1  0
 28 27  2  0
M  END
$$$$
