MRK.pdb
     RDKit          3D

 29 28  0  0  1  0  0  0  0  0999 V2000
   27.5112  -20.5849   -6.7692 C   0  0  0  0  0  0  0  0  0  0  0  0
   26.6638  -20.6143   -8.3589 S   0  0  0  0  0  0  0  0  0  0  0  0
   27.3561  -19.4345   -9.5322 C   0  0  0  0  0  0  0  0  0  0  0  0
   26.6353  -19.4060  -10.8419 C   0  0  0  0  0  0  0  0  0  0  0  0
   26.6644  -20.7283  -11.5675 C   0  0  2  0  0  0  0  0  0  0  0  0
   28.0137  -21.0569  -11.9839 N   0  0  0  0  0  0  0  0  0  0  0  0
   25.7527  -20.7780  -12.7148 C   0  0  0  0  0  0  0  0  0  0  0  0
   26.1402  -20.3880  -13.8472 O   0  0  0  0  0  0  0  0  0  0  0  0
   25.1164  -24.6846  -17.4076 N   0  0  0  0  0  0  0  0  0  0  0  0
   25.5468  -25.6446  -16.4299 C   0  0  0  0  0  0  0  0  0  0  0  0
   26.5958  -26.3378  -16.6966 N   0  0  0  0  0  0  0  0  0  0  0  0
   24.8569  -25.8341  -15.2154 N   0  0  0  0  0  0  0  0  0  0  0  0
   23.7893  -24.9469  -14.8496 C   0  0  0  0  0  0  0  0  0  0  0  0
   24.3191  -23.5540  -14.5087 C   0  0  0  0  0  0  0  0  0  0  0  0
   23.1313  -22.7063  -14.1079 C   0  0  0  0  0  0  0  0  0  0  0  0
   23.5433  -21.2913  -13.7785 C   0  0  2  0  0  0  0  0  0  0  0  0
   24.4224  -21.2553  -12.6109 N   0  0  0  0  0  0  0  0  0  0  0  0
   22.3083  -20.4981  -13.5471 C   0  0  0  0  0  0  0  0  0  0  0  0
   21.6307  -20.6473  -12.5006 O   0  0  0  0  0  0  0  0  0  0  0  0
   26.9738  -26.9983  -15.9899 N   0  0  0  0  0  0  0  0  0  0  0  0
   21.8784  -19.5614  -14.5066 C   0  0  2  0  0  0  0  0  0  0  0  0
   20.6403  -18.7178  -14.2223 C   0  0  0  0  0  0  0  0  0  0  0  0
   20.5967  -17.6892  -15.2700 C   0  0  0  0  0  0  0  0  0  0  0  0
   19.5687  -16.6539  -15.3464 C   0  0  0  0  0  0  0  0  0  0  0  0
   19.5413  -15.7335  -16.4937 C   0  0  0  0  0  0  0  0  0  0  0  0
   18.3436  -14.7590  -16.2393 N   0  0  0  0  0  0  0  0  0  0  0  0
   18.2934  -13.8573  -17.3752 C   0  0  0  0  0  0  0  0  0  0  0  0
   19.5670  -19.6527  -14.0180 O   0  0  0  0  0  0  0  0  0  0  0  0
   19.4482  -20.7286  -14.6185 O   0  0  0  0  0  0  0  0  0  0  0  0
  2  1  1  0
  3  2  1  0
  4  3  1  0
  4  5  1  0
  5  7  1  0
  5  6  1  6
  7  8  2  0
  9 10  1  0
 10 12  1  0
 11 10  2  0
 12 13  1  0
 13 14  1  0
 14 15  1  0
 16 15  1  1
 17 16  1  0
 17  7  1  0
 18 19  2  0
 18 16  1  0
 20 18  1  0
 21 27  1  0
 21 20  1  0
 21 22  1  1
 23 22  1  0
 24 23  1  0
 25 24  1  0
 26 25  1  0
 27 29  1  0
 28 27  2  0
M  END
$$$$
