MRK.pdb
     RDKit          3D

 29 28  0  0  1  0  0  0  0  0999 V2000
   24.9649   -8.8851  -23.7658 C   0  0  0  0  0  0  0  0  0  0  0  0
   23.2604   -9.2039  -24.2552 S   0  0  0  0  0  0  0  0  0  0  0  0
   22.3503  -10.1430  -23.0151 C   0  0  0  0  0  0  0  0  0  0  0  0
   22.4826   -9.5873  -21.6333 C   0  0  0  0  0  0  0  0  0  0  0  0
   22.0004  -10.5333  -20.5615 C   0  0  2  0  0  0  0  0  0  0  0  0
   20.8328  -11.2665  -21.0101 N   0  0  0  0  0  0  0  0  0  0  0  0
   21.7221   -9.8670  -19.2853 C   0  0  0  0  0  0  0  0  0  0  0  0
   20.5585   -9.4647  -19.0231 O   0  0  0  0  0  0  0  0  0  0  0  0
   26.8355  -12.6246  -16.1230 N   0  0  0  0  0  0  0  0  0  0  0  0
   27.4941  -11.3509  -16.0427 C   0  0  0  0  0  0  0  0  0  0  0  0
   28.6613  -11.2489  -16.5714 N   0  0  0  0  0  0  0  0  0  0  0  0
   26.8982  -10.2407  -15.4111 N   0  0  0  0  0  0  0  0  0  0  0  0
   25.4858  -10.2325  -15.1547 C   0  0  0  0  0  0  0  0  0  0  0  0
   24.7099   -9.6721  -16.3469 C   0  0  0  0  0  0  0  0  0  0  0  0
   23.2656   -9.5311  -15.9178 C   0  0  0  0  0  0  0  0  0  0  0  0
   22.4023   -8.9979  -17.0363 C   0  0  2  0  0  0  0  0  0  0  0  0
   22.7229   -9.6470  -18.3065 N   0  0  0  0  0  0  0  0  0  0  0  0
   22.6119   -7.5289  -17.1144 C   0  0  0  0  0  0  0  0  0  0  0  0
   23.5822   -7.0472  -17.7492 O   0  0  0  0  0  0  0  0  0  0  0  0
   29.1215  -10.3201  -16.6357 N   0  0  0  0  0  0  0  0  0  0  0  0
   21.7176   -6.6512  -16.4721 C   0  0  1  0  0  0  0  0  0  0  0  0
   21.9321   -5.1464  -16.5956 C   0  0  0  0  0  0  0  0  0  0  0  0
   21.1656   -4.7192  -17.7735 C   0  0  0  0  0  0  0  0  0  0  0  0
   21.0189   -3.3243  -18.1823 C   0  0  0  0  0  0  0  0  0  0  0  0
   20.2531   -2.9938  -19.3942 C   0  0  0  0  0  0  0  0  0  0  0  0
   20.3260   -1.4376  -19.5422 N   0  0  0  0  0  0  0  0  0  0  0  0
   19.5808   -1.0991  -20.7405 C   0  0  0  0  0  0  0  0  0  0  0  0
   21.6912   -4.6068  -15.2847 O   0  0  0  0  0  0  0  0  0  0  0  0
   21.0106   -5.1599  -14.4112 O   0  0  0  0  0  0  0  0  0  0  0  0
  2  1  1  0
  3  2  1  0
  4  3  1  0
  4  5  1  0
  5  7  1  0
  5  6  1  6
  7  8  2  0
  9 10  1  0
 10 12  1  0
 11 10  2  0
 12 13  1  0
 13 14  1  0
 14 15  1  0
 16 15  1  1
 17 16  1  0
 17  7  1  0
 18 19  2  0
 18 16  1  0
 20 18  1  0
 21 27  1  0
 21 20  1  0
 21 22  1  1
 23 22  1  0
 24 23  1  0
 25 24  1  0
 26 25  1  0
 27 29  1  0
 28 27  2  0
M  END
$$$$
