MRK.pdb
     RDKit          3D

 29 28  0  0  1  0  0  0  0  0999 V2000
   29.4771  -18.4591  -13.4832 C   0  0  0  0  0  0  0  0  0  0  0  0
   29.7122  -18.0428  -11.7460 S   0  0  0  0  0  0  0  0  0  0  0  0
   28.6506  -19.0077  -10.6552 C   0  0  0  0  0  0  0  0  0  0  0  0
   27.6741  -19.8714  -11.3875 C   0  0  0  0  0  0  0  0  0  0  0  0
   26.6996  -20.5749  -10.4757 C   0  0  2  0  0  0  0  0  0  0  0  0
   27.3931  -21.4871   -9.5873 N   0  0  0  0  0  0  0  0  0  0  0  0
   25.6373  -21.2806  -11.1994 C   0  0  0  0  0  0  0  0  0  0  0  0
   25.6755  -22.5336  -11.3140 O   0  0  0  0  0  0  0  0  0  0  0  0
   17.1083  -21.0228  -12.5865 N   0  0  0  0  0  0  0  0  0  0  0  0
   17.9426  -21.9705  -11.9019 C   0  0  0  0  0  0  0  0  0  0  0  0
   17.4042  -22.6764  -10.9724 N   0  0  0  0  0  0  0  0  0  0  0  0
   19.3049  -22.1352  -12.2238 N   0  0  0  0  0  0  0  0  0  0  0  0
   19.9102  -21.3100  -13.2304 C   0  0  0  0  0  0  0  0  0  0  0  0
   21.3519  -21.7385  -13.5044 C   0  0  0  0  0  0  0  0  0  0  0  0
   22.2433  -20.9348  -12.5828 C   0  0  0  0  0  0  0  0  0  0  0  0
   23.7018  -21.2672  -12.7899 C   0  0  2  0  0  0  0  0  0  0  0  0
   24.5412  -20.6059  -11.7922 N   0  0  0  0  0  0  0  0  0  0  0  0
   24.0739  -20.8517  -14.1672 C   0  0  0  0  0  0  0  0  0  0  0  0
   24.1277  -19.6380  -14.4840 O   0  0  0  0  0  0  0  0  0  0  0  0
   17.9620  -23.4056  -10.4868 N   0  0  0  0  0  0  0  0  0  0  0  0
   24.3731  -21.8221  -15.1428 C   0  0  2  0  0  0  0  0  0  0  0  0
   24.9052  -21.3750  -16.5002 C   0  0  0  0  0  0  0  0  0  0  0  0
   26.0064  -22.2895  -16.8293 C   0  0  0  0  0  0  0  0  0  0  0  0
   26.8646  -22.1352  -18.0016 C   0  0  0  0  0  0  0  0  0  0  0  0
   27.9755  -23.0737  -18.2236 C   0  0  0  0  0  0  0  0  0  0  0  0
   28.7336  -22.5563  -19.4910 N   0  0  0  0  0  0  0  0  0  0  0  0
   29.9389  -23.3558  -19.6092 C   0  0  0  0  0  0  0  0  0  0  0  0
   23.7508  -21.2267  -17.3447 O   0  0  0  0  0  0  0  0  0  0  0  0
   23.7008  -20.5001  -18.3455 O   0  0  0  0  0  0  0  0  0  0  0  0
  2  1  1  0
  3  2  1  0
  4  3  1  0
  4  5  1  0
  5  7  1  0
  5  6  1  6
  7  8  2  0
  9 10  1  0
 10 12  1  0
 11 10  2  0
 12 13  1  0
 13 14  1  0
 14 15  1  0
 16 15  1  1
 17 16  1  0
 17  7  1  0
 18 19  2  0
 18 16  1  0
 20 18  1  0
 21 27  1  0
 21 20  1  0
 21 22  1  1
 23 22  1  0
 24 23  1  0
 25 24  1  0
 26 25  1  0
 27 29  1  0
 28 27  2  0
M  END
$$$$
