MRK.pdb
     RDKit          3D

 29 28  0  0  1  0  0  0  0  0999 V2000
   24.1355  -19.4444   -8.2635 C   0  0  0  0  0  0  0  0  0  0  0  0
   24.2820  -21.2327   -8.4281 S   0  0  0  0  0  0  0  0  0  0  0  0
   24.8902  -21.7290  -10.0503 C   0  0  0  0  0  0  0  0  0  0  0  0
   24.6054  -20.7279  -11.1238 C   0  0  0  0  0  0  0  0  0  0  0  0
   24.9855  -21.2077  -12.5027 C   0  0  2  0  0  0  0  0  0  0  0  0
   26.3769  -21.6139  -12.5404 N   0  0  0  0  0  0  0  0  0  0  0  0
   24.7163  -20.2203  -13.5527 C   0  0  0  0  0  0  0  0  0  0  0  0
   25.3030  -19.1067  -13.5383 O   0  0  0  0  0  0  0  0  0  0  0  0
   28.4245  -20.5983  -16.6202 N   0  0  0  0  0  0  0  0  0  0  0  0
   28.2063  -21.9362  -17.0947 C   0  0  0  0  0  0  0  0  0  0  0  0
   29.0533  -22.8379  -16.7459 N   0  0  0  0  0  0  0  0  0  0  0  0
   27.1085  -22.2680  -17.9139 N   0  0  0  0  0  0  0  0  0  0  0  0
   26.0252  -21.3400  -18.0743 C   0  0  0  0  0  0  0  0  0  0  0  0
   25.4879  -20.8766  -16.7201 C   0  0  0  0  0  0  0  0  0  0  0  0
   24.2495  -20.0487  -16.9866 C   0  0  0  0  0  0  0  0  0  0  0  0
   23.6562  -19.5075  -15.7077 C   0  0  2  0  0  0  0  0  0  0  0  0
   23.8052  -20.4623  -14.6107 N   0  0  0  0  0  0  0  0  0  0  0  0
   22.2250  -19.1996  -15.9627 C   0  0  0  0  0  0  0  0  0  0  0  0
   21.3520  -20.1009  -15.9191 O   0  0  0  0  0  0  0  0  0  0  0  0
   28.9614  -23.8049  -17.1136 N   0  0  0  0  0  0  0  0  0  0  0  0
   21.8264  -17.8819  -16.2592 C   0  0  2  0  0  0  0  0  0  0  0  0
   20.3580  -17.5961  -16.5552 C   0  0  0  0  0  0  0  0  0  0  0  0
   20.1432  -16.1799  -16.2301 C   0  0  0  0  0  0  0  0  0  0  0  0
   18.8442  -15.5170  -16.3165 C   0  0  0  0  0  0  0  0  0  0  0  0
   18.7097  -14.1136  -15.8961 C   0  0  0  0  0  0  0  0  0  0  0  0
   17.2330  -13.7052  -16.2144 N   0  0  0  0  0  0  0  0  0  0  0  0
   17.0611  -12.3512  -15.7217 C   0  0  0  0  0  0  0  0  0  0  0  0
   20.1113  -18.1295  -17.8676 O   0  0  0  0  0  0  0  0  0  0  0  0
   20.9281  -18.1138  -18.7976 O   0  0  0  0  0  0  0  0  0  0  0  0
  2  1  1  0
  3  2  1  0
  4  3  1  0
  4  5  1  0
  5  7  1  0
  5  6  1  1
  7  8  2  0
  9 10  1  0
 10 12  1  0
 11 10  2  0
 12 13  1  0
 13 14  1  0
 14 15  1  0
 16 15  1  6
 17 16  1  0
 17  7  1  0
 18 19  2  0
 18 16  1  0
 20 18  1  0
 21 27  1  0
 21 20  1  0
 21 22  1  1
 23 22  1  0
 24 23  1  0
 25 24  1  0
 26 25  1  0
 27 29  1  0
 28 27  2  0
M  END
$$$$
