MRK.pdb
     RDKit          3D

 29 28  0  0  1  0  0  0  0  0999 V2000
   27.6824  -18.2002   -6.1890 C   0  0  0  0  0  0  0  0  0  0  0  0
   28.8591  -19.2702   -7.0357 S   0  0  0  0  0  0  0  0  0  0  0  0
   28.0492  -20.5298   -8.0384 C   0  0  0  0  0  0  0  0  0  0  0  0
   26.9075  -20.0023   -8.8471 C   0  0  0  0  0  0  0  0  0  0  0  0
   26.2465  -21.0545   -9.7026 C   0  0  2  0  0  0  0  0  0  0  0  0
   27.2344  -21.7925  -10.4653 N   0  0  0  0  0  0  0  0  0  0  0  0
   25.2182  -20.5110  -10.5955 C   0  0  0  0  0  0  0  0  0  0  0  0
   24.4332  -19.6167  -10.1848 O   0  0  0  0  0  0  0  0  0  0  0  0
   28.5094  -21.7253  -15.3914 N   0  0  0  0  0  0  0  0  0  0  0  0
   27.3690  -21.8202  -16.2591 C   0  0  0  0  0  0  0  0  0  0  0  0
   27.2146  -22.9095  -16.9237 N   0  0  0  0  0  0  0  0  0  0  0  0
   26.4411  -20.7674  -16.3904 N   0  0  0  0  0  0  0  0  0  0  0  0
   26.5348  -19.6165  -15.5376 C   0  0  0  0  0  0  0  0  0  0  0  0
   26.0785  -19.9425  -14.1154 C   0  0  0  0  0  0  0  0  0  0  0  0
   24.5655  -19.9660  -14.1224 C   0  0  0  0  0  0  0  0  0  0  0  0
   24.0095  -20.4001  -12.7871 C   0  0  2  0  0  0  0  0  0  0  0  0
   25.0589  -20.9531  -11.9324 N   0  0  0  0  0  0  0  0  0  0  0  0
   22.9396  -21.3995  -13.0409 C   0  0  0  0  0  0  0  0  0  0  0  0
   23.1931  -22.4857  -13.6176 O   0  0  0  0  0  0  0  0  0  0  0  0
   26.4272  -22.9996  -17.5951 N   0  0  0  0  0  0  0  0  0  0  0  0
   21.6167  -21.1389  -12.6347 C   0  0  1  0  0  0  0  0  0  0  0  0
   20.5554  -22.2192  -12.8140 C   0  0  0  0  0  0  0  0  0  0  0  0
   19.5471  -21.9789  -11.7733 C   0  0  0  0  0  0  0  0  0  0  0  0
   18.6739  -23.0196  -11.2358 C   0  0  0  0  0  0  0  0  0  0  0  0
   18.9234  -23.5613   -9.8910 C   0  0  0  0  0  0  0  0  0  0  0  0
   17.7507  -24.5555   -9.5996 N   0  0  0  0  0  0  0  0  0  0  0  0
   17.9551  -25.0556   -8.2527 C   0  0  0  0  0  0  0  0  0  0  0  0
   20.2293  -22.2202  -14.2146 O   0  0  0  0  0  0  0  0  0  0  0  0
   20.2894  -21.2270  -14.9509 O   0  0  0  0  0  0  0  0  0  0  0  0
  2  1  1  0
  3  2  1  0
  4  3  1  0
  4  5  1  0
  5  7  1  0
  5  6  1  6
  7  8  2  0
  9 10  1  0
 10 12  1  0
 11 10  2  0
 12 13  1  0
 13 14  1  0
 14 15  1  0
 16 15  1  6
 17 16  1  0
 17  7  1  0
 18 19  2  0
 18 16  1  0
 20 18  1  0
 21 27  1  0
 21 20  1  0
 21 22  1  6
 23 22  1  0
 24 23  1  0
 25 24  1  0
 26 25  1  0
 27 29  1  0
 28 27  2  0
M  END
$$$$
