MRK.pdb
     RDKit          3D

 29 28  0  0  1  0  0  0  0  0999 V2000
   25.9364  -20.6625   -9.2814 C   0  0  0  0  0  0  0  0  0  0  0  0
   24.3864  -21.5091   -8.9250 S   0  0  0  0  0  0  0  0  0  0  0  0
   23.1501  -21.2564  -10.2117 C   0  0  0  0  0  0  0  0  0  0  0  0
   23.5578  -20.2485  -11.2380 C   0  0  0  0  0  0  0  0  0  0  0  0
   22.9672  -20.5127  -12.6009 C   0  0  2  0  0  0  0  0  0  0  0  0
   23.0973  -21.9127  -12.9551 N   0  0  0  0  0  0  0  0  0  0  0  0
   23.5407  -19.6675  -13.6530 C   0  0  0  0  0  0  0  0  0  0  0  0
   23.5915  -18.4187  -13.5027 O   0  0  0  0  0  0  0  0  0  0  0  0
   27.5624  -22.8702  -17.7921 N   0  0  0  0  0  0  0  0  0  0  0  0
   28.4920  -22.0913  -17.0227 C   0  0  0  0  0  0  0  0  0  0  0  0
   29.2687  -22.7186  -16.2132 N   0  0  0  0  0  0  0  0  0  0  0  0
   28.5651  -20.6884  -17.1376 N   0  0  0  0  0  0  0  0  0  0  0  0
   27.7378  -20.0012  -18.0884 C   0  0  0  0  0  0  0  0  0  0  0  0
   26.6800  -19.1483  -17.3876 C   0  0  0  0  0  0  0  0  0  0  0  0
   25.8576  -20.0751  -16.5190 C   0  0  0  0  0  0  0  0  0  0  0  0
   24.7302  -19.3407  -15.8334 C   0  0  2  0  0  0  0  0  0  0  0  0
   24.0539  -20.1990  -14.8621 N   0  0  0  0  0  0  0  0  0  0  0  0
   23.7888  -18.8683  -16.8816 C   0  0  0  0  0  0  0  0  0  0  0  0
   23.0272  -19.6704  -17.4758 O   0  0  0  0  0  0  0  0  0  0  0  0
   29.8613  -22.1864  -15.5467 N   0  0  0  0  0  0  0  0  0  0  0  0
   23.7386  -17.5035  -17.2249 C   0  0  2  0  0  0  0  0  0  0  0  0
   22.7172  -17.0308  -18.2539 C   0  0  0  0  0  0  0  0  0  0  0  0
   22.2088  -15.7428  -17.7638 C   0  0  0  0  0  0  0  0  0  0  0  0
   21.1125  -15.0118  -18.3949 C   0  0  0  0  0  0  0  0  0  0  0  0
   20.6612  -13.7334  -17.8235 C   0  0  0  0  0  0  0  0  0  0  0  0
   19.5783  -13.1772  -18.8067 N   0  0  0  0  0  0  0  0  0  0  0  0
   19.1545  -11.8950  -18.2756 C   0  0  0  0  0  0  0  0  0  0  0  0
   23.3578  -17.1675  -19.5340 O   0  0  0  0  0  0  0  0  0  0  0  0
   24.5690  -17.0086  -19.7343 O   0  0  0  0  0  0  0  0  0  0  0  0
  2  1  1  0
  3  2  1  0
  4  3  1  0
  4  5  1  0
  5  7  1  0
  5  6  1  6
  7  8  2  0
  9 10  1  0
 10 12  1  0
 11 10  2  0
 12 13  1  0
 13 14  1  0
 14 15  1  0
 16 15  1  6
 17 16  1  0
 17  7  1  0
 18 19  2  0
 18 16  1  0
 20 18  1  0
 21 27  1  0
 21 20  1  0
 21 22  1  1
 23 22  1  0
 24 23  1  0
 25 24  1  0
 26 25  1  0
 27 29  1  0
 28 27  2  0
M  END
$$$$
