MRK.pdb
     RDKit          3D

 29 28  0  0  1  0  0  0  0  0999 V2000
   19.7216  -21.6755  -10.3264 C   0  0  0  0  0  0  0  0  0  0  0  0
   20.1838  -22.5164   -8.8014 S   0  0  0  0  0  0  0  0  0  0  0  0
   21.9114  -22.2505   -8.3628 C   0  0  0  0  0  0  0  0  0  0  0  0
   22.6783  -21.4939   -9.3997 C   0  0  0  0  0  0  0  0  0  0  0  0
   24.1415  -21.3404   -9.0655 C   0  0  2  0  0  0  0  0  0  0  0  0
   24.3109  -20.6403   -7.8072 N   0  0  0  0  0  0  0  0  0  0  0  0
   24.9092  -20.6761  -10.1235 C   0  0  0  0  0  0  0  0  0  0  0  0
   25.0065  -19.4212  -10.1406 O   0  0  0  0  0  0  0  0  0  0  0  0
   31.5075  -22.5887  -10.9890 N   0  0  0  0  0  0  0  0  0  0  0  0
   31.0270  -21.8065   -9.8845 C   0  0  0  0  0  0  0  0  0  0  0  0
   31.6820  -21.8688   -8.7803 N   0  0  0  0  0  0  0  0  0  0  0  0
   29.8804  -20.9934   -9.9884 N   0  0  0  0  0  0  0  0  0  0  0  0
   28.7233  -21.4695  -10.6920 C   0  0  0  0  0  0  0  0  0  0  0  0
   28.6867  -20.9342  -12.1236 C   0  0  0  0  0  0  0  0  0  0  0  0
   27.4146  -21.4465  -12.7633 C   0  0  0  0  0  0  0  0  0  0  0  0
   26.2015  -20.6948  -12.2696 C   0  0  2  0  0  0  0  0  0  0  0  0
   25.5643  -21.3939  -11.1549 N   0  0  0  0  0  0  0  0  0  0  0  0
   25.2650  -20.5378  -13.4125 C   0  0  0  0  0  0  0  0  0  0  0  0
   24.4765  -21.4606  -13.7336 O   0  0  0  0  0  0  0  0  0  0  0  0
   31.4043  -21.2694   -7.9788 N   0  0  0  0  0  0  0  0  0  0  0  0
   25.2500  -19.3422  -14.1563 C   0  0  2  0  0  0  0  0  0  0  0  0
   24.2501  -19.1866  -15.2971 C   0  0  0  0  0  0  0  0  0  0  0  0
   24.1375  -17.7438  -15.5485 C   0  0  0  0  0  0  0  0  0  0  0  0
   23.1763  -17.1563  -16.4787 C   0  0  0  0  0  0  0  0  0  0  0  0
   23.1909  -15.7063  -16.7269 C   0  0  0  0  0  0  0  0  0  0  0  0
   22.1334  -15.4481  -17.8510 N   0  0  0  0  0  0  0  0  0  0  0  0
   22.1501  -14.0216  -18.1172 C   0  0  0  0  0  0  0  0  0  0  0  0
   24.6676  -20.1137  -16.3140 O   0  0  0  0  0  0  0  0  0  0  0  0
   25.8461  -20.3413  -16.6164 O   0  0  0  0  0  0  0  0  0  0  0  0
  2  1  1  0
  3  2  1  0
  4  3  1  0
  4  5  1  0
  5  7  1  0
  5  6  1  1
  7  8  2  0
  9 10  1  0
 10 12  1  0
 11 10  2  0
 12 13  1  0
 13 14  1  0
 14 15  1  0
 16 15  1  6
 17 16  1  0
 17  7  1  0
 18 19  2  0
 18 16  1  0
 20 18  1  0
 21 27  1  0
 21 20  1  0
 21 22  1  1
 23 22  1  0
 24 23  1  0
 25 24  1  0
 26 25  1  0
 27 29  1  0
 28 27  2  0
M  END
$$$$
