MRK.pdb
     RDKit          3D

 29 28  0  0  1  0  0  0  0  0999 V2000
   27.1554  -21.7872   -4.2469 C   0  0  0  0  0  0  0  0  0  0  0  0
   28.0537  -20.2334   -4.0884 S   0  0  0  0  0  0  0  0  0  0  0  0
   28.4224  -19.4833   -5.6850 C   0  0  0  0  0  0  0  0  0  0  0  0
   27.4248  -19.8227   -6.7458 C   0  0  0  0  0  0  0  0  0  0  0  0
   27.7949  -19.2856   -8.1061 C   0  0  2  0  0  0  0  0  0  0  0  0
   27.9321  -17.8426   -8.0695 N   0  0  0  0  0  0  0  0  0  0  0  0
   26.8530  -19.6793   -9.1587 C   0  0  0  0  0  0  0  0  0  0  0  0
   25.6980  -19.1800   -9.1921 O   0  0  0  0  0  0  0  0  0  0  0  0
   30.1941  -22.4699  -16.4654 N   0  0  0  0  0  0  0  0  0  0  0  0
   30.2219  -22.5533  -15.0319 C   0  0  0  0  0  0  0  0  0  0  0  0
   31.2896  -23.0114  -14.4820 N   0  0  0  0  0  0  0  0  0  0  0  0
   29.1278  -22.1517  -14.2393 N   0  0  0  0  0  0  0  0  0  0  0  0
   27.8498  -21.9117  -14.8474 C   0  0  0  0  0  0  0  0  0  0  0  0
   26.9410  -21.0998  -13.9242 C   0  0  0  0  0  0  0  0  0  0  0  0
   27.4969  -21.2242  -12.5223 C   0  0  0  0  0  0  0  0  0  0  0  0
   26.6353  -20.4997  -11.5158 C   0  0  2  0  0  0  0  0  0  0  0  0
   27.1856  -20.6183  -10.1665 N   0  0  0  0  0  0  0  0  0  0  0  0
   25.2659  -21.0717  -11.5909 C   0  0  0  0  0  0  0  0  0  0  0  0
   25.0108  -22.2033  -11.1104 O   0  0  0  0  0  0  0  0  0  0  0  0
   31.3515  -23.0790  -13.4475 N   0  0  0  0  0  0  0  0  0  0  0  0
   24.2284  -20.3461  -12.2072 C   0  0  2  0  0  0  0  0  0  0  0  0
   22.7985  -20.8684  -12.1181 C   0  0  0  0  0  0  0  0  0  0  0  0
   21.9279  -19.7399  -12.4730 C   0  0  0  0  0  0  0  0  0  0  0  0
   20.4756  -19.8441  -12.5941 C   0  0  0  0  0  0  0  0  0  0  0  0
   19.6854  -18.6592  -12.9628 C   0  0  0  0  0  0  0  0  0  0  0  0
   18.1927  -19.1274  -12.9982 N   0  0  0  0  0  0  0  0  0  0  0  0
   17.4003  -17.9628  -13.3472 C   0  0  0  0  0  0  0  0  0  0  0  0
   22.7871  -22.1072  -12.8482 O   0  0  0  0  0  0  0  0  0  0  0  0
   21.9550  -23.0096  -12.6883 O   0  0  0  0  0  0  0  0  0  0  0  0
  2  1  1  0
  3  2  1  0
  4  3  1  0
  4  5  1  0
  5  7  1  0
  5  6  1  1
  7  8  2  0
  9 10  1  0
 10 12  1  0
 11 10  2  0
 12 13  1  0
 13 14  1  0
 14 15  1  0
 16 15  1  6
 17 16  1  0
 17  7  1  0
 18 19  2  0
 18 16  1  0
 20 18  1  0
 21 27  1  0
 21 20  1  0
 21 22  1  6
 23 22  1  0
 24 23  1  0
 25 24  1  0
 26 25  1  0
 27 29  1  0
 28 27  2  0
M  END
$$$$
