MRK.pdb
     RDKit          3D

 29 28  0  0  1  0  0  0  0  0999 V2000
   21.4922  -18.2910  -18.4291 C   0  0  0  0  0  0  0  0  0  0  0  0
   22.4901  -18.4576  -19.9200 S   0  0  0  0  0  0  0  0  0  0  0  0
   24.2583  -18.4392  -19.5727 C   0  0  0  0  0  0  0  0  0  0  0  0
   24.6531  -19.3447  -18.4503 C   0  0  0  0  0  0  0  0  0  0  0  0
   25.6344  -18.7150  -17.4929 C   0  0  2  0  0  0  0  0  0  0  0  0
   26.8279  -18.2800  -18.1919 N   0  0  0  0  0  0  0  0  0  0  0  0
   25.9928  -19.5913  -16.3732 C   0  0  0  0  0  0  0  0  0  0  0  0
   25.3063  -20.6179  -16.1294 O   0  0  0  0  0  0  0  0  0  0  0  0
   31.5806  -22.9575  -11.9939 N   0  0  0  0  0  0  0  0  0  0  0  0
   31.3225  -22.2198  -10.7889 C   0  0  0  0  0  0  0  0  0  0  0  0
   31.6645  -22.7607   -9.6741 N   0  0  0  0  0  0  0  0  0  0  0  0
   30.7173  -20.9471  -10.8077 N   0  0  0  0  0  0  0  0  0  0  0  0
   30.4152  -20.3136  -12.0599 C   0  0  0  0  0  0  0  0  0  0  0  0
   28.9884  -20.6284  -12.5098 C   0  0  0  0  0  0  0  0  0  0  0  0
   28.7726  -19.9372  -13.8386 C   0  0  0  0  0  0  0  0  0  0  0  0
   27.3854  -20.1906  -14.3788 C   0  0  2  0  0  0  0  0  0  0  0  0
   27.1019  -19.3344  -15.5294 N   0  0  0  0  0  0  0  0  0  0  0  0
   26.4160  -19.9519  -13.2783 C   0  0  0  0  0  0  0  0  0  0  0  0
   26.3513  -18.8372  -12.7041 O   0  0  0  0  0  0  0  0  0  0  0  0
   31.4675  -22.2718   -8.7792 N   0  0  0  0  0  0  0  0  0  0  0  0
   25.5504  -20.9815  -12.8616 C   0  0  2  0  0  0  0  0  0  0  0  0
   24.5567  -20.7105  -11.7371 C   0  0  0  0  0  0  0  0  0  0  0  0
   23.2386  -21.1039  -12.2522 C   0  0  0  0  0  0  0  0  0  0  0  0
   21.9914  -20.9141  -11.5154 C   0  0  0  0  0  0  0  0  0  0  0  0
   20.7262  -21.4101  -12.0789 C   0  0  0  0  0  0  0  0  0  0  0  0
   19.6222  -21.0844  -11.0188 N   0  0  0  0  0  0  0  0  0  0  0  0
   18.3735  -21.6015  -11.5472 C   0  0  0  0  0  0  0  0  0  0  0  0
   25.1285  -21.3014  -10.5573 O   0  0  0  0  0  0  0  0  0  0  0  0
   25.9033  -22.2668  -10.5597 O   0  0  0  0  0  0  0  0  0  0  0  0
  2  1  1  0
  3  2  1  0
  4  3  1  0
  4  5  1  0
  5  7  1  0
  5  6  1  6
  7  8  2  0
  9 10  1  0
 10 12  1  0
 11 10  2  0
 12 13  1  0
 13 14  1  0
 14 15  1  0
 16 15  1  1
 17 16  1  0
 17  7  1  0
 18 19  2  0
 18 16  1  0
 20 18  1  0
 21 27  1  0
 21 20  1  0
 21 22  1  6
 23 22  1  0
 24 23  1  0
 25 24  1  0
 26 25  1  0
 27 29  1  0
 28 27  2  0
M  END
$$$$
