MRK.pdb
     RDKit          3D

 29 28  0  0  1  0  0  0  0  0999 V2000
   26.7973  -19.7348  -20.5632 C   0  0  0  0  0  0  0  0  0  0  0  0
   28.2444  -20.8043  -20.6559 S   0  0  0  0  0  0  0  0  0  0  0  0
   28.4510  -21.8156  -19.1786 C   0  0  0  0  0  0  0  0  0  0  0  0
   27.2683  -21.7811  -18.2644 C   0  0  0  0  0  0  0  0  0  0  0  0
   27.4809  -22.5518  -16.9850 C   0  0  2  0  0  0  0  0  0  0  0  0
   27.7245  -23.9537  -17.2635 N   0  0  0  0  0  0  0  0  0  0  0  0
   26.3748  -22.4080  -16.0332 C   0  0  0  0  0  0  0  0  0  0  0  0
   25.3744  -23.1685  -16.1075 O   0  0  0  0  0  0  0  0  0  0  0  0
   24.3455  -20.8405   -8.2329 N   0  0  0  0  0  0  0  0  0  0  0  0
   25.6658  -20.7899   -8.7959 C   0  0  0  0  0  0  0  0  0  0  0  0
   26.6310  -21.2706   -8.0963 N   0  0  0  0  0  0  0  0  0  0  0  0
   25.9142  -20.2372  -10.0685 N   0  0  0  0  0  0  0  0  0  0  0  0
   24.8802  -19.5124  -10.7512 C   0  0  0  0  0  0  0  0  0  0  0  0
   24.3921  -20.2733  -11.9842 C   0  0  0  0  0  0  0  0  0  0  0  0
   25.5923  -20.5001  -12.8775 C   0  0  0  0  0  0  0  0  0  0  0  0
   25.2214  -21.2687  -14.1233 C   0  0  2  0  0  0  0  0  0  0  0  0
   26.3747  -21.4307  -15.0071 N   0  0  0  0  0  0  0  0  0  0  0  0
   24.1219  -20.5351  -14.8022 C   0  0  0  0  0  0  0  0  0  0  0  0
   24.3282  -19.4256  -15.3525 O   0  0  0  0  0  0  0  0  0  0  0  0
   27.6105  -21.1698   -8.4266 N   0  0  0  0  0  0  0  0  0  0  0  0
   22.8237  -21.0794  -14.8370 C   0  0  2  0  0  0  0  0  0  0  0  0
   21.7065  -20.2994  -15.5218 C   0  0  0  0  0  0  0  0  0  0  0  0
   21.2528  -21.1332  -16.6427 C   0  0  0  0  0  0  0  0  0  0  0  0
   20.1492  -20.7693  -17.5281 C   0  0  0  0  0  0  0  0  0  0  0  0
   19.7798  -21.6587  -18.6403 C   0  0  0  0  0  0  0  0  0  0  0  0
   18.6272  -20.9335  -19.4111 N   0  0  0  0  0  0  0  0  0  0  0  0
   18.2874  -21.7783  -20.5410 C   0  0  0  0  0  0  0  0  0  0  0  0
   20.8211  -19.8773  -14.4702 O   0  0  0  0  0  0  0  0  0  0  0  0
   20.8941  -20.2583  -13.2947 O   0  0  0  0  0  0  0  0  0  0  0  0
  2  1  1  0
  3  2  1  0
  4  3  1  0
  4  5  1  0
  5  7  1  0
  5  6  1  6
  7  8  2  0
  9 10  1  0
 10 12  1  0
 11 10  2  0
 12 13  1  0
 13 14  1  0
 14 15  1  0
 16 15  1  1
 17 16  1  0
 17  7  1  0
 18 19  2  0
 18 16  1  0
 20 18  1  0
 21 27  1  0
 21 20  1  0
 21 22  1  6
 23 22  1  0
 24 23  1  0
 25 24  1  0
 26 25  1  0
 27 29  1  0
 28 27  2  0
M  END
$$$$
