MRK.pdb
     RDKit          3D

 29 28  0  0  1  0  0  0  0  0999 V2000
   20.5889  -20.2005   -8.9456 C   0  0  0  0  0  0  0  0  0  0  0  0
   20.9606  -18.8583  -10.0887 S   0  0  0  0  0  0  0  0  0  0  0  0
   20.8817  -19.3779  -11.8125 C   0  0  0  0  0  0  0  0  0  0  0  0
   20.3258  -20.7541  -11.9936 C   0  0  0  0  0  0  0  0  0  0  0  0
   20.3915  -21.2408  -13.4201 C   0  0  2  0  0  0  0  0  0  0  0  0
   19.6201  -20.3783  -14.2938 N   0  0  0  0  0  0  0  0  0  0  0  0
   19.9632  -22.6345  -13.5755 C   0  0  0  0  0  0  0  0  0  0  0  0
   18.8141  -22.9878  -13.2022 O   0  0  0  0  0  0  0  0  0  0  0  0
   23.7434  -30.0439  -15.8780 N   0  0  0  0  0  0  0  0  0  0  0  0
   22.3552  -30.3668  -16.0549 C   0  0  0  0  0  0  0  0  0  0  0  0
   22.0166  -31.6044  -15.9788 N   0  0  0  0  0  0  0  0  0  0  0  0
   21.3841  -29.3760  -16.3036 N   0  0  0  0  0  0  0  0  0  0  0  0
   21.7265  -27.9874  -16.1808 C   0  0  0  0  0  0  0  0  0  0  0  0
   20.8629  -27.2953  -15.1262 C   0  0  0  0  0  0  0  0  0  0  0  0
   21.2716  -25.8386  -15.0950 C   0  0  0  0  0  0  0  0  0  0  0  0
   20.3741  -25.0281  -14.1905 C   0  0  2  0  0  0  0  0  0  0  0  0
   20.7992  -23.6302  -14.1393 N   0  0  0  0  0  0  0  0  0  0  0  0
   20.4041  -25.6496  -12.8412 C   0  0  0  0  0  0  0  0  0  0  0  0
   21.4322  -25.5868  -12.1231 O   0  0  0  0  0  0  0  0  0  0  0  0
   21.0478  -31.8921  -16.2182 N   0  0  0  0  0  0  0  0  0  0  0  0
   19.2705  -26.3228  -12.3465 C   0  0  2  0  0  0  0  0  0  0  0  0
   19.3137  -26.9261  -10.9466 C   0  0  0  0  0  0  0  0  0  0  0  0
   18.7656  -25.9051  -10.0441 C   0  0  0  0  0  0  0  0  0  0  0  0
   18.6926  -26.0615   -8.5933 C   0  0  0  0  0  0  0  0  0  0  0  0
   18.2351  -24.9396   -7.7588 C   0  0  0  0  0  0  0  0  0  0  0  0
   18.1617  -25.4895   -6.2955 N   0  0  0  0  0  0  0  0  0  0  0  0
   17.8055  -24.3671   -5.4475 C   0  0  0  0  0  0  0  0  0  0  0  0
   18.7346  -28.2369  -11.0663 O   0  0  0  0  0  0  0  0  0  0  0  0
   17.9456  -28.5781  -11.9570 O   0  0  0  0  0  0  0  0  0  0  0  0
  2  1  1  0
  3  2  1  0
  4  3  1  0
  4  5  1  0
  5  7  1  0
  5  6  1  6
  7  8  2  0
  9 10  1  0
 10 12  1  0
 11 10  2  0
 12 13  1  0
 13 14  1  0
 14 15  1  0
 16 15  1  6
 17 16  1  0
 17  7  1  0
 18 19  2  0
 18 16  1  0
 20 18  1  0
 21 27  1  0
 21 20  1  0
 21 22  1  6
 23 22  1  0
 24 23  1  0
 25 24  1  0
 26 25  1  0
 27 29  1  0
 28 27  2  0
M  END
$$$$
