HPN.pdb
     RDKit          3D

 26 27  0  0  1  0  0  0  0  0999 V2000
    9.8898  -14.6120   21.2900 N   0  0  0  0  0  0  0  0  0  0  0  0
    8.6985  -14.1541   21.9261 C   0  0  1  0  0  0  0  0  0  0  0  0
    7.5101  -14.7256   21.1944 C   0  0  0  0  0  0  0  0  0  0  0  0
    7.5030  -14.2950   19.7657 C   0  0  0  0  0  0  0  0  0  0  0  0
    7.7012  -13.0228   19.2668 C   0  0  0  0  0  0  0  0  0  0  0  0
    7.6128  -13.0767   17.9285 N   0  0  0  0  0  0  0  0  0  0  0  0
    7.3642  -14.3435   17.5541 C   0  0  0  0  0  0  0  0  0  0  0  0
    7.3013  -15.0668   18.6835 N   0  0  0  0  0  0  0  0  0  0  0  0
    8.5923  -14.5784   23.3644 C   0  0  0  0  0  0  0  0  0  0  0  0
    9.3077  -15.5546   23.7500 O   0  0  0  0  0  0  0  0  0  0  0  0
    7.7354  -13.9386   24.2938 N   0  0  0  0  0  0  0  0  0  0  0  0
    6.9425  -12.7715   24.0058 C   0  0  0  0  0  0  0  0  0  0  0  0
    6.2182  -12.3874   25.2726 C   0  0  0  0  0  0  0  0  0  0  0  0
    6.3467  -13.5673   26.1990 C   0  0  0  0  0  0  0  0  0  0  0  0
    7.5207  -14.3294   25.6383 C   0  0  1  0  0  0  0  0  0  0  0  0
    7.1812  -15.7734   25.7857 C   0  0  0  0  0  0  0  0  0  0  0  0
    6.3222  -16.3634   25.1192 O   0  0  0  0  0  0  0  0  0  0  0  0
    9.4488  -19.9994   23.8301 N   0  0  0  0  0  0  0  0  0  0  0  0
    9.4904  -19.4524   25.1552 C   0  0  0  0  0  0  0  0  0  0  0  0
    9.9010  -20.2180   26.0550 O   0  0  0  0  0  0  0  0  0  0  0  0
    9.0551  -18.0621   25.3442 C   0  0  0  0  0  0  0  0  0  0  0  0
    8.2917  -17.8915   26.6382 C   0  0  2  0  0  0  0  0  0  0  0  0
    7.9134  -16.4896   26.7675 N   0  0  0  0  0  0  0  0  0  0  0  0
    9.0844  -18.3536   27.7847 C   0  0  0  0  0  0  0  0  0  0  0  0
   10.2310  -17.6901   28.1621 O   0  0  0  0  0  0  0  0  0  0  0  0
    8.7191  -19.3579   28.4273 O   0  0  0  0  0  0  0  0  0  0  0  0
  2  1  1  6
  2  9  1  0
  3  2  1  0
  4  8  1  0
  4  3  1  0
  5  4  2  0
  6  5  1  0
  6  7  1  0
  7  8  2  0
  9 11  1  0
 10  9  2  0
 11 15  1  0
 11 12  1  0
 12 13  1  0
 14 13  1  0
 15 14  1  0
 16 23  1  0
 15 16  1  6
 17 16  2  0
 18 19  1  0
 19 20  2  0
 21 19  1  0
 22 21  1  6
 22 23  1  0
 22 24  1  0
 24 25  1  0
 26 24  2  0
M  END
$$$$
