HPN.pdb
     RDKit          3D

 26 27  0  0  1  0  0  0  0  0999 V2000
   10.7162  -15.6334   15.6466 N   0  0  0  0  0  0  0  0  0  0  0  0
    9.5253  -15.3260   16.3681 C   0  0  1  0  0  0  0  0  0  0  0  0
    8.5434  -16.4556   16.1832 C   0  0  0  0  0  0  0  0  0  0  0  0
    8.1321  -16.5792   14.7541 C   0  0  0  0  0  0  0  0  0  0  0  0
    7.3593  -15.7017   14.0197 C   0  0  0  0  0  0  0  0  0  0  0  0
    7.2303  -16.1926   12.7770 N   0  0  0  0  0  0  0  0  0  0  0  0
    7.8963  -17.3571   12.6921 C   0  0  0  0  0  0  0  0  0  0  0  0
    8.4362  -17.5736   13.9022 N   0  0  0  0  0  0  0  0  0  0  0  0
    9.7518  -15.1595   17.8450 C   0  0  0  0  0  0  0  0  0  0  0  0
   10.6913  -15.8258   18.3805 O   0  0  0  0  0  0  0  0  0  0  0  0
    8.9670  -14.2986   18.6513 N   0  0  0  0  0  0  0  0  0  0  0  0
    7.9095  -13.4548   18.1578 C   0  0  0  0  0  0  0  0  0  0  0  0
    7.3674  -12.6706   19.3274 C   0  0  0  0  0  0  0  0  0  0  0  0
    7.9069  -13.3406   20.5630 C   0  0  0  0  0  0  0  0  0  0  0  0
    9.0898  -14.1233   20.0515 C   0  0  1  0  0  0  0  0  0  0  0  0
    9.0911  -15.4073   20.8088 C   0  0  0  0  0  0  0  0  0  0  0  0
    8.4208  -16.4015   20.5046 O   0  0  0  0  0  0  0  0  0  0  0  0
   10.8702  -18.9090   24.0642 N   0  0  0  0  0  0  0  0  0  0  0  0
   11.7108  -18.5701   22.9527 C   0  0  0  0  0  0  0  0  0  0  0  0
   12.6658  -19.3456   22.7273 O   0  0  0  0  0  0  0  0  0  0  0  0
   11.3873  -17.3612   22.1834 C   0  0  0  0  0  0  0  0  0  0  0  0
   10.1656  -16.6628   22.7364 C   0  0  2  0  0  0  0  0  0  0  0  0
    9.9305  -15.4570   21.9516 N   0  0  0  0  0  0  0  0  0  0  0  0
   10.3283  -16.3643   24.1649 C   0  0  0  0  0  0  0  0  0  0  0  0
   10.3488  -15.0627   24.6151 O   0  0  0  0  0  0  0  0  0  0  0  0
   10.4497  -17.2969   24.9839 O   0  0  0  0  0  0  0  0  0  0  0  0
  2  1  1  6
  2  9  1  0
  3  2  1  0
  4  8  1  0
  4  3  1  0
  5  4  2  0
  6  5  1  0
  6  7  1  0
  7  8  2  0
  9 11  1  0
 10  9  2  0
 11 15  1  0
 11 12  1  0
 12 13  1  0
 14 13  1  0
 15 14  1  0
 16 23  1  0
 15 16  1  1
 17 16  2  0
 18 19  1  0
 19 20  2  0
 21 19  1  0
 22 21  1  6
 22 23  1  0
 22 24  1  0
 24 25  1  0
 26 24  2  0
M  END
$$$$
