HPN.pdb
     RDKit          3D

 26 27  0  0  1  0  0  0  0  0999 V2000
   10.6959  -14.2719   19.8102 N   0  0  0  0  0  0  0  0  0  0  0  0
    9.4431  -14.3403   20.4878 C   0  0  1  0  0  0  0  0  0  0  0  0
    8.5750  -15.3611   19.7961 C   0  0  0  0  0  0  0  0  0  0  0  0
    8.2515  -14.9336   18.4035 C   0  0  0  0  0  0  0  0  0  0  0  0
    8.6799  -13.7957   17.7492 C   0  0  0  0  0  0  0  0  0  0  0  0
    8.1564  -13.7981   16.5132 N   0  0  0  0  0  0  0  0  0  0  0  0
    7.4058  -14.9019   16.3549 C   0  0  0  0  0  0  0  0  0  0  0  0
    7.4768  -15.5773   17.5132 N   0  0  0  0  0  0  0  0  0  0  0  0
    9.5685  -14.7530   21.9280 C   0  0  0  0  0  0  0  0  0  0  0  0
   10.4949  -15.5662   22.2342 O   0  0  0  0  0  0  0  0  0  0  0  0
    8.7033  -14.2753   22.9432 N   0  0  0  0  0  0  0  0  0  0  0  0
    7.7489  -13.2108   22.7700 C   0  0  0  0  0  0  0  0  0  0  0  0
    7.0713  -12.9843   24.0990 C   0  0  0  0  0  0  0  0  0  0  0  0
    7.4145  -14.1783   24.9496 C   0  0  0  0  0  0  0  0  0  0  0  0
    8.6347  -14.7524   24.2751 C   0  0  1  0  0  0  0  0  0  0  0  0
    8.4946  -16.2338   24.3645 C   0  0  0  0  0  0  0  0  0  0  0  0
    7.9123  -16.9348   23.5279 O   0  0  0  0  0  0  0  0  0  0  0  0
   12.2471  -20.1835   24.4810 N   0  0  0  0  0  0  0  0  0  0  0  0
   10.8430  -19.9218   24.3516 C   0  0  0  0  0  0  0  0  0  0  0  0
   10.1044  -20.9239   24.2308 O   0  0  0  0  0  0  0  0  0  0  0  0
   10.3948  -18.5229   24.3711 C   0  0  0  0  0  0  0  0  0  0  0  0
    9.4874  -18.2482   25.5489 C   0  0  2  0  0  0  0  0  0  0  0  0
    9.0817  -16.8488   25.5003 N   0  0  0  0  0  0  0  0  0  0  0  0
   10.1493  -18.5835   26.8161 C   0  0  0  0  0  0  0  0  0  0  0  0
   11.1751  -17.8040   27.3033 O   0  0  0  0  0  0  0  0  0  0  0  0
    9.7818  -19.5847   27.4623 O   0  0  0  0  0  0  0  0  0  0  0  0
  2  1  1  6
  2  9  1  0
  3  2  1  0
  4  8  1  0
  4  3  1  0
  5  4  2  0
  6  5  1  0
  6  7  1  0
  7  8  2  0
  9 11  1  0
 10  9  2  0
 11 15  1  0
 11 12  1  0
 12 13  1  0
 14 13  1  0
 15 14  1  0
 16 23  1  0
 15 16  1  6
 17 16  2  0
 18 19  1  0
 19 20  2  0
 21 19  1  0
 22 21  1  6
 22 23  1  0
 22 24  1  0
 24 25  1  0
 26 24  2  0
M  END
$$$$
