HPN.pdb
     RDKit          3D

 26 27  0  0  1  0  0  0  0  0999 V2000
   11.1075  -15.3184   16.3103 N   0  0  0  0  0  0  0  0  0  0  0  0
    9.8848  -14.9841   16.9633 C   0  0  1  0  0  0  0  0  0  0  0  0
    8.8650  -16.0514   16.6549 C   0  0  0  0  0  0  0  0  0  0  0  0
    8.5215  -16.0604   15.2028 C   0  0  0  0  0  0  0  0  0  0  0  0
    8.6793  -15.0345   14.2921 C   0  0  0  0  0  0  0  0  0  0  0  0
    8.2444  -15.4622   13.0964 N   0  0  0  0  0  0  0  0  0  0  0  0
    7.8128  -16.7299   13.2122 C   0  0  0  0  0  0  0  0  0  0  0  0
    7.9895  -17.0740   14.4980 N   0  0  0  0  0  0  0  0  0  0  0  0
   10.0139  -14.8991   18.4587 C   0  0  0  0  0  0  0  0  0  0  0  0
   10.9414  -15.5666   19.0136 O   0  0  0  0  0  0  0  0  0  0  0  0
    9.1513  -14.1128   19.2619 N   0  0  0  0  0  0  0  0  0  0  0  0
    8.1956  -13.1651   18.7499 C   0  0  0  0  0  0  0  0  0  0  0  0
    7.5216  -12.5123   19.9316 C   0  0  0  0  0  0  0  0  0  0  0  0
    7.8682  -13.3587   21.1276 C   0  0  0  0  0  0  0  0  0  0  0  0
    9.0870  -14.1235   20.6769 C   0  0  1  0  0  0  0  0  0  0  0  0
    8.9484  -15.4923   21.2507 C   0  0  0  0  0  0  0  0  0  0  0  0
    8.4608  -16.4581   20.6507 O   0  0  0  0  0  0  0  0  0  0  0  0
   11.1893  -19.2236   23.7874 N   0  0  0  0  0  0  0  0  0  0  0  0
   11.7617  -18.5544   22.6554 C   0  0  0  0  0  0  0  0  0  0  0  0
   12.7184  -19.1355   22.0973 O   0  0  0  0  0  0  0  0  0  0  0  0
   11.1879  -17.2639   22.2509 C   0  0  0  0  0  0  0  0  0  0  0  0
    9.9807  -16.9074   23.0886 C   0  0  2  0  0  0  0  0  0  0  0  0
    9.4183  -15.6629   22.5785 N   0  0  0  0  0  0  0  0  0  0  0  0
   10.3345  -16.8070   24.5103 C   0  0  0  0  0  0  0  0  0  0  0  0
   10.8436  -15.6370   25.0291 O   0  0  0  0  0  0  0  0  0  0  0  0
   10.1738  -17.7900   25.2607 O   0  0  0  0  0  0  0  0  0  0  0  0
  2  1  1  6
  2  9  1  0
  3  2  1  0
  4  8  1  0
  4  3  1  0
  5  4  2  0
  6  5  1  0
  6  7  1  0
  7  8  2  0
  9 11  1  0
 10  9  2  0
 11 15  1  0
 11 12  1  0
 12 13  1  0
 14 13  1  0
 15 14  1  0
 16 23  1  0
 15 16  1  6
 17 16  2  0
 18 19  1  0
 19 20  2  0
 21 19  1  0
 22 21  1  6
 22 23  1  0
 22 24  1  0
 24 25  1  0
 26 24  2  0
M  END
$$$$
