HPN.pdb
     RDKit          3D

 26 27  0  0  1  0  0  0  0  0999 V2000
   10.0803  -14.7539   21.1726 N   0  0  0  0  0  0  0  0  0  0  0  0
    8.9363  -14.1980   21.8173 C   0  0  1  0  0  0  0  0  0  0  0  0
    7.7026  -14.6184   21.0587 C   0  0  0  0  0  0  0  0  0  0  0  0
    7.8121  -14.2565   19.6152 C   0  0  0  0  0  0  0  0  0  0  0  0
    8.1806  -13.0399   19.0759 C   0  0  0  0  0  0  0  0  0  0  0  0
    8.1487  -13.1452   17.7381 N   0  0  0  0  0  0  0  0  0  0  0  0
    7.7713  -14.3910   17.4031 C   0  0  0  0  0  0  0  0  0  0  0  0
    7.5719  -15.0492   18.5563 N   0  0  0  0  0  0  0  0  0  0  0  0
    8.7732  -14.6585   23.2390 C   0  0  0  0  0  0  0  0  0  0  0  0
    9.3896  -15.7098   23.5972 O   0  0  0  0  0  0  0  0  0  0  0  0
    7.9682  -13.9730   24.1821 N   0  0  0  0  0  0  0  0  0  0  0  0
    7.2516  -12.7534   23.9122 C   0  0  0  0  0  0  0  0  0  0  0  0
    6.5649  -12.3350   25.1890 C   0  0  0  0  0  0  0  0  0  0  0  0
    6.6230  -13.5300   26.1031 C   0  0  0  0  0  0  0  0  0  0  0  0
    7.7394  -14.3622   25.5247 C   0  0  1  0  0  0  0  0  0  0  0  0
    7.3067  -15.7821   25.6617 C   0  0  0  0  0  0  0  0  0  0  0  0
    6.4102  -16.3096   24.9920 O   0  0  0  0  0  0  0  0  0  0  0  0
    8.4881  -20.5145   23.9922 N   0  0  0  0  0  0  0  0  0  0  0  0
    8.9614  -19.8286   25.1594 C   0  0  0  0  0  0  0  0  0  0  0  0
    9.5426  -20.5323   26.0145 O   0  0  0  0  0  0  0  0  0  0  0  0
    8.7290  -18.3811   25.2537 C   0  0  0  0  0  0  0  0  0  0  0  0
    8.1192  -18.0033   26.5848 C   0  0  2  0  0  0  0  0  0  0  0  0
    7.9917  -16.5520   26.6368 N   0  0  0  0  0  0  0  0  0  0  0  0
    8.9201  -18.5237   27.7001 C   0  0  0  0  0  0  0  0  0  0  0  0
    8.4958  -19.6170   28.4227 O   0  0  0  0  0  0  0  0  0  0  0  0
    9.9978  -17.9727   28.0004 O   0  0  0  0  0  0  0  0  0  0  0  0
  2  1  1  6
  2  9  1  0
  3  2  1  0
  4  8  1  0
  4  3  1  0
  5  4  2  0
  6  5  1  0
  6  7  1  0
  7  8  2  0
  9 11  1  0
 10  9  2  0
 11 15  1  0
 11 12  1  0
 12 13  1  0
 14 13  1  0
 15 14  1  0
 16 23  1  0
 15 16  1  6
 17 16  2  0
 18 19  1  0
 19 20  2  0
 21 19  1  0
 22 21  1  6
 22 23  1  0
 22 24  1  0
 24 25  1  0
 26 24  2  0
M  END
$$$$
