HPN.pdb
     RDKit          3D

 26 27  0  0  1  0  0  0  0  0999 V2000
   10.0338  -14.6398   20.6917 N   0  0  0  0  0  0  0  0  0  0  0  0
    8.9005  -14.3061   21.4902 C   0  0  1  0  0  0  0  0  0  0  0  0
    7.6647  -14.8680   20.8335 C   0  0  0  0  0  0  0  0  0  0  0  0
    7.5322  -14.3753   19.4312 C   0  0  0  0  0  0  0  0  0  0  0  0
    7.5421  -13.0661   18.9923 C   0  0  0  0  0  0  0  0  0  0  0  0
    7.3952  -13.0680   17.6581 N   0  0  0  0  0  0  0  0  0  0  0  0
    7.2914  -14.3373   17.2281 C   0  0  0  0  0  0  0  0  0  0  0  0
    7.3770  -15.1149   18.3194 N   0  0  0  0  0  0  0  0  0  0  0  0
    8.9690  -14.8678   22.8830 C   0  0  0  0  0  0  0  0  0  0  0  0
    9.7393  -15.8569   23.0872 O   0  0  0  0  0  0  0  0  0  0  0  0
    8.2165  -14.3422   23.9622 N   0  0  0  0  0  0  0  0  0  0  0  0
    7.2230  -13.3070   23.8387 C   0  0  0  0  0  0  0  0  0  0  0  0
    6.6991  -13.0093   25.2221 C   0  0  0  0  0  0  0  0  0  0  0  0
    7.1676  -14.1418   26.0967 C   0  0  0  0  0  0  0  0  0  0  0  0
    8.3147  -14.7361   25.3193 C   0  0  1  0  0  0  0  0  0  0  0  0
    8.2218  -16.2112   25.5134 C   0  0  0  0  0  0  0  0  0  0  0  0
    7.2522  -16.9028   25.1788 O   0  0  0  0  0  0  0  0  0  0  0  0
   11.5147  -18.3513   23.7312 N   0  0  0  0  0  0  0  0  0  0  0  0
   10.4096  -18.8882   24.4710 C   0  0  0  0  0  0  0  0  0  0  0  0
    9.4345  -19.2845   23.7952 O   0  0  0  0  0  0  0  0  0  0  0  0
   10.5111  -18.9281   25.9359 C   0  0  0  0  0  0  0  0  0  0  0  0
    9.3510  -18.2135   26.5915 C   0  0  2  0  0  0  0  0  0  0  0  0
    9.3404  -16.8316   26.1271 N   0  0  0  0  0  0  0  0  0  0  0  0
    9.4356  -18.2995   28.0549 C   0  0  0  0  0  0  0  0  0  0  0  0
    9.1377  -19.4738   28.7104 O   0  0  0  0  0  0  0  0  0  0  0  0
    9.7807  -17.3003   28.7164 O   0  0  0  0  0  0  0  0  0  0  0  0
  2  1  1  6
  2  9  1  0
  3  2  1  0
  4  8  1  0
  4  3  1  0
  5  4  2  0
  6  5  1  0
  6  7  1  0
  7  8  2  0
  9 11  1  0
 10  9  2  0
 11 15  1  0
 11 12  1  0
 12 13  1  0
 14 13  1  0
 15 14  1  0
 16 23  1  0
 15 16  1  6
 17 16  2  0
 18 19  1  0
 19 20  2  0
 21 19  1  0
 22 21  1  6
 22 23  1  0
 22 24  1  0
 24 25  1  0
 26 24  2  0
M  END
$$$$
