HPN.pdb
     RDKit          3D

 26 27  0  0  1  0  0  0  0  0999 V2000
   10.0728  -14.0894   20.8360 N   0  0  0  0  0  0  0  0  0  0  0  0
    8.8435  -14.0821   21.5586 C   0  0  1  0  0  0  0  0  0  0  0  0
    7.8571  -14.9701   20.8426 C   0  0  0  0  0  0  0  0  0  0  0  0
    7.5675  -14.4536   19.4729 C   0  0  0  0  0  0  0  0  0  0  0  0
    8.0916  -13.3289   18.8670 C   0  0  0  0  0  0  0  0  0  0  0  0
    7.5656  -13.2298   17.6360 N   0  0  0  0  0  0  0  0  0  0  0  0
    6.7208  -14.2557   17.4341 C   0  0  0  0  0  0  0  0  0  0  0  0
    6.7363  -14.9863   18.5605 N   0  0  0  0  0  0  0  0  0  0  0  0
    8.9782  -14.5958   22.9651 C   0  0  0  0  0  0  0  0  0  0  0  0
    9.8641  -15.4770   23.1932 O   0  0  0  0  0  0  0  0  0  0  0  0
    8.1646  -14.1400   24.0317 N   0  0  0  0  0  0  0  0  0  0  0  0
    7.0889  -13.1927   23.8924 C   0  0  0  0  0  0  0  0  0  0  0  0
    6.5172  -12.9455   25.2668 C   0  0  0  0  0  0  0  0  0  0  0  0
    7.0648  -14.0372   26.1474 C   0  0  0  0  0  0  0  0  0  0  0  0
    8.2719  -14.5290   25.3895 C   0  0  1  0  0  0  0  0  0  0  0  0
    8.3015  -16.0073   25.5789 C   0  0  0  0  0  0  0  0  0  0  0  0
    7.4228  -16.7827   25.1827 O   0  0  0  0  0  0  0  0  0  0  0  0
   12.2122  -17.6115   24.3022 N   0  0  0  0  0  0  0  0  0  0  0  0
   11.0729  -18.3262   24.8004 C   0  0  0  0  0  0  0  0  0  0  0  0
   10.3052  -18.8089   23.9390 O   0  0  0  0  0  0  0  0  0  0  0  0
   10.9038  -18.4313   26.2558 C   0  0  0  0  0  0  0  0  0  0  0  0
    9.5529  -17.9135   26.6955 C   0  0  2  0  0  0  0  0  0  0  0  0
    9.4298  -16.5262   26.2649 N   0  0  0  0  0  0  0  0  0  0  0  0
    9.3791  -18.0547   28.1467 C   0  0  0  0  0  0  0  0  0  0  0  0
    9.3185  -19.3003   28.7315 O   0  0  0  0  0  0  0  0  0  0  0  0
    9.2848  -17.0377   28.8623 O   0  0  0  0  0  0  0  0  0  0  0  0
  2  1  1  6
  2  9  1  0
  3  2  1  0
  4  8  1  0
  4  3  1  0
  5  4  2  0
  6  5  1  0
  6  7  1  0
  7  8  2  0
  9 11  1  0
 10  9  2  0
 11 15  1  0
 11 12  1  0
 12 13  1  0
 14 13  1  0
 15 14  1  0
 16 23  1  0
 15 16  1  6
 17 16  2  0
 18 19  1  0
 19 20  2  0
 21 19  1  0
 22 21  1  1
 22 23  1  0
 22 24  1  0
 24 25  1  0
 26 24  2  0
M  END
$$$$
