HPN.pdb
     RDKit          3D

 26 27  0  0  1  0  0  0  0  0999 V2000
    9.6615  -15.8837   15.0324 N   0  0  0  0  0  0  0  0  0  0  0  0
    8.7193  -15.2531   15.8973 C   0  0  1  0  0  0  0  0  0  0  0  0
    7.4749  -16.1028   15.9574 C   0  0  0  0  0  0  0  0  0  0  0  0
    7.8093  -17.5202   16.2831 C   0  0  0  0  0  0  0  0  0  0  0  0
    9.0634  -18.0781   16.4331 C   0  0  0  0  0  0  0  0  0  0  0  0
    8.9133  -19.3800   16.7233 N   0  0  0  0  0  0  0  0  0  0  0  0
    7.6023  -19.6739   16.7640 C   0  0  0  0  0  0  0  0  0  0  0  0
    6.9497  -18.5319   16.4941 N   0  0  0  0  0  0  0  0  0  0  0  0
    9.2230  -15.0867   17.3040 C   0  0  0  0  0  0  0  0  0  0  0  0
   10.1984  -15.8108   17.6751 O   0  0  0  0  0  0  0  0  0  0  0  0
    8.6579  -14.1646   18.2193 N   0  0  0  0  0  0  0  0  0  0  0  0
    7.5787  -13.2627   17.9100 C   0  0  0  0  0  0  0  0  0  0  0  0
    7.3156  -12.4270   19.1385 C   0  0  0  0  0  0  0  0  0  0  0  0
    8.0380  -13.1106   20.2689 C   0  0  0  0  0  0  0  0  0  0  0  0
    9.0536  -13.9755   19.5661 C   0  0  1  0  0  0  0  0  0  0  0  0
    9.1212  -15.2449   20.3448 C   0  0  0  0  0  0  0  0  0  0  0  0
    8.3804  -16.2189   20.1636 O   0  0  0  0  0  0  0  0  0  0  0  0
   11.1121  -18.5422   23.7616 N   0  0  0  0  0  0  0  0  0  0  0  0
   12.1156  -18.0639   22.8555 C   0  0  0  0  0  0  0  0  0  0  0  0
   13.2038  -18.6803   22.8630 O   0  0  0  0  0  0  0  0  0  0  0  0
   11.7892  -16.9095   22.0077 C   0  0  0  0  0  0  0  0  0  0  0  0
   10.3533  -16.4737   22.1936 C   0  0  2  0  0  0  0  0  0  0  0  0
   10.1153  -15.3050   21.3553 N   0  0  0  0  0  0  0  0  0  0  0  0
   10.0616  -16.2032   23.6071 C   0  0  0  0  0  0  0  0  0  0  0  0
    9.7523  -14.9299   24.0319 O   0  0  0  0  0  0  0  0  0  0  0  0
   10.0929  -17.1340   24.4364 O   0  0  0  0  0  0  0  0  0  0  0  0
  2  1  1  6
  2  9  1  0
  3  2  1  0
  4  8  1  0
  4  3  1  0
  5  4  2  0
  6  5  1  0
  6  7  1  0
  7  8  2  0
  9 11  1  0
 10  9  2  0
 11 15  1  0
 11 12  1  0
 12 13  1  0
 14 13  1  0
 15 14  1  0
 16 23  1  0
 15 16  1  1
 17 16  2  0
 18 19  1  0
 19 20  2  0
 21 19  1  0
 22 21  1  1
 22 23  1  0
 22 24  1  0
 24 25  1  0
 26 24  2  0
M  END
$$$$
