HPN.pdb
     RDKit          3D

 26 27  0  0  1  0  0  0  0  0999 V2000
   10.9419  -14.5449   18.8318 N   0  0  0  0  0  0  0  0  0  0  0  0
    9.7042  -14.4503   19.5336 C   0  0  1  0  0  0  0  0  0  0  0  0
    8.6955  -15.3437   18.8564 C   0  0  0  0  0  0  0  0  0  0  0  0
    8.5248  -14.9680   17.4223 C   0  0  0  0  0  0  0  0  0  0  0  0
    8.2753  -13.7133   16.9027 C   0  0  0  0  0  0  0  0  0  0  0  0
    8.1929  -13.8192   15.5672 N   0  0  0  0  0  0  0  0  0  0  0  0
    8.3817  -15.1025   15.2146 C   0  0  0  0  0  0  0  0  0  0  0  0
    8.5814  -15.7830   16.3547 N   0  0  0  0  0  0  0  0  0  0  0  0
    9.8012  -14.8835   20.9700 C   0  0  0  0  0  0  0  0  0  0  0  0
   10.7193  -15.7039   21.2821 O   0  0  0  0  0  0  0  0  0  0  0  0
    8.9186  -14.4170   21.9754 N   0  0  0  0  0  0  0  0  0  0  0  0
    7.8454  -13.4831   21.7521 C   0  0  0  0  0  0  0  0  0  0  0  0
    7.1868  -13.2174   23.0835 C   0  0  0  0  0  0  0  0  0  0  0  0
    7.6880  -14.2878   24.0162 C   0  0  0  0  0  0  0  0  0  0  0  0
    8.9444  -14.7808   23.3441 C   0  0  1  0  0  0  0  0  0  0  0  0
    8.9752  -16.2552   23.5619 C   0  0  0  0  0  0  0  0  0  0  0  0
    8.4412  -17.0855   22.8164 O   0  0  0  0  0  0  0  0  0  0  0  0
   12.5746  -17.9718   22.8809 N   0  0  0  0  0  0  0  0  0  0  0  0
   11.9383  -18.7007   23.9395 C   0  0  0  0  0  0  0  0  0  0  0  0
   12.6956  -19.1765   24.8138 O   0  0  0  0  0  0  0  0  0  0  0  0
   10.4750  -18.8266   23.9111 C   0  0  0  0  0  0  0  0  0  0  0  0
    9.8339  -18.1047   25.0747 C   0  0  2  0  0  0  0  0  0  0  0  0
    9.6738  -16.7015   24.7134 N   0  0  0  0  0  0  0  0  0  0  0  0
   10.6263  -18.2684   26.3001 C   0  0  0  0  0  0  0  0  0  0  0  0
   10.5625  -19.4347   27.0302 O   0  0  0  0  0  0  0  0  0  0  0  0
   11.3672  -17.3435   26.6882 O   0  0  0  0  0  0  0  0  0  0  0  0
  2  1  1  6
  2  9  1  0
  3  2  1  0
  4  8  1  0
  4  3  1  0
  5  4  2  0
  6  5  1  0
  6  7  1  0
  7  8  2  0
  9 11  1  0
 10  9  2  0
 11 15  1  0
 11 12  1  0
 12 13  1  0
 14 13  1  0
 15 14  1  0
 16 23  1  0
 15 16  1  6
 17 16  2  0
 18 19  1  0
 19 20  2  0
 21 19  1  0
 22 21  1  6
 22 23  1  0
 22 24  1  0
 24 25  1  0
 26 24  2  0
M  END
$$$$
