HPN.pdb
     RDKit          3D

 26 27  0  0  1  0  0  0  0  0999 V2000
    9.9558  -14.1818   21.2274 N   0  0  0  0  0  0  0  0  0  0  0  0
    8.7414  -13.9807   21.9473 C   0  0  1  0  0  0  0  0  0  0  0  0
    7.6459  -14.7710   21.2768 C   0  0  0  0  0  0  0  0  0  0  0  0
    7.4251  -14.3002   19.8781 C   0  0  0  0  0  0  0  0  0  0  0  0
    8.0923  -13.2913   19.2122 C   0  0  0  0  0  0  0  0  0  0  0  0
    7.5821  -13.1944   17.9744 N   0  0  0  0  0  0  0  0  0  0  0  0
    6.6089  -14.1096   17.8262 C   0  0  0  0  0  0  0  0  0  0  0  0
    6.5294  -14.7701   18.9926 N   0  0  0  0  0  0  0  0  0  0  0  0
    8.8172  -14.4348   23.3785 C   0  0  0  0  0  0  0  0  0  0  0  0
    9.6988  -15.2974   23.6819 O   0  0  0  0  0  0  0  0  0  0  0  0
    7.9534  -13.9432   24.3882 N   0  0  0  0  0  0  0  0  0  0  0  0
    6.8611  -13.0333   24.1581 C   0  0  0  0  0  0  0  0  0  0  0  0
    6.2324  -12.7270   25.4951 C   0  0  0  0  0  0  0  0  0  0  0  0
    6.7728  -13.7545   26.4538 C   0  0  0  0  0  0  0  0  0  0  0  0
    8.0191  -14.2550   25.7684 C   0  0  1  0  0  0  0  0  0  0  0  0
    8.0772  -15.7196   26.0401 C   0  0  0  0  0  0  0  0  0  0  0  0
    7.1810  -16.5222   25.7521 O   0  0  0  0  0  0  0  0  0  0  0  0
   10.2535  -20.1710   27.3257 N   0  0  0  0  0  0  0  0  0  0  0  0
   11.0522  -19.4394   26.3857 C   0  0  0  0  0  0  0  0  0  0  0  0
   11.9848  -20.0729   25.8441 O   0  0  0  0  0  0  0  0  0  0  0  0
   10.7157  -18.0307   26.1399 C   0  0  0  0  0  0  0  0  0  0  0  0
    9.5209  -17.5955   26.9580 C   0  0  2  0  0  0  0  0  0  0  0  0
    9.2561  -16.1904   26.6736 N   0  0  0  0  0  0  0  0  0  0  0  0
    9.7457  -17.8322   28.3897 C   0  0  0  0  0  0  0  0  0  0  0  0
    9.7885  -19.1133   28.8941 O   0  0  0  0  0  0  0  0  0  0  0  0
    9.9002  -16.8652   29.1618 O   0  0  0  0  0  0  0  0  0  0  0  0
  2  1  1  6
  2  9  1  0
  3  2  1  0
  4  8  1  0
  4  3  1  0
  5  4  2  0
  6  5  1  0
  6  7  1  0
  7  8  2  0
  9 11  1  0
 10  9  2  0
 11 15  1  0
 11 12  1  0
 12 13  1  0
 14 13  1  0
 15 14  1  0
 16 23  1  0
 15 16  1  6
 17 16  2  0
 18 19  1  0
 19 20  2  0
 21 19  1  0
 22 21  1  6
 22 23  1  0
 22 24  1  0
 24 25  1  0
 26 24  2  0
M  END
$$$$
