HPN.pdb
     RDKit          3D

 26 27  0  0  1  0  0  0  0  0999 V2000
   10.3938  -15.3045   15.1329 N   0  0  0  0  0  0  0  0  0  0  0  0
    9.2565  -15.0685   15.9600 C   0  0  1  0  0  0  0  0  0  0  0  0
    8.2972  -16.2215   15.8026 C   0  0  0  0  0  0  0  0  0  0  0  0
    7.7566  -16.2825   14.4131 C   0  0  0  0  0  0  0  0  0  0  0  0
    7.7673  -17.3604   13.5501 C   0  0  0  0  0  0  0  0  0  0  0  0
    7.1797  -16.9870   12.4025 N   0  0  0  0  0  0  0  0  0  0  0  0
    6.7927  -15.7037   12.5030 C   0  0  0  0  0  0  0  0  0  0  0  0
    7.1520  -15.2948   13.7304 N   0  0  0  0  0  0  0  0  0  0  0  0
    9.5966  -14.9579   17.4202 C   0  0  0  0  0  0  0  0  0  0  0  0
   10.6023  -15.6061   17.8465 O   0  0  0  0  0  0  0  0  0  0  0  0
    8.8471  -14.1682   18.3269 N   0  0  0  0  0  0  0  0  0  0  0  0
    7.8163  -13.2387   17.9430 C   0  0  0  0  0  0  0  0  0  0  0  0
    7.3091  -12.5746   19.1994 C   0  0  0  0  0  0  0  0  0  0  0  0
    7.8330  -13.3983   20.3456 C   0  0  0  0  0  0  0  0  0  0  0  0
    8.9849  -14.1572   19.7366 C   0  0  1  0  0  0  0  0  0  0  0  0
    8.9466  -15.5182   20.3436 C   0  0  0  0  0  0  0  0  0  0  0  0
    8.2364  -16.4467   19.9389 O   0  0  0  0  0  0  0  0  0  0  0  0
   12.0863  -19.9484   20.7475 N   0  0  0  0  0  0  0  0  0  0  0  0
   11.0624  -19.2282   21.4474 C   0  0  0  0  0  0  0  0  0  0  0  0
   10.5821  -19.7925   22.4550 O   0  0  0  0  0  0  0  0  0  0  0  0
   10.6683  -17.9099   20.9329 C   0  0  0  0  0  0  0  0  0  0  0  0
   10.0891  -17.0393   22.0250 C   0  0  2  0  0  0  0  0  0  0  0  0
    9.7960  -15.7275   21.4605 N   0  0  0  0  0  0  0  0  0  0  0  0
   11.0026  -16.9512   23.1714 C   0  0  0  0  0  0  0  0  0  0  0  0
   11.9511  -15.9549   23.2420 O   0  0  0  0  0  0  0  0  0  0  0  0
   10.9224  -17.7861   24.0943 O   0  0  0  0  0  0  0  0  0  0  0  0
  2  1  1  6
  2  9  1  0
  3  2  1  0
  4  8  1  0
  4  3  1  0
  5  4  2  0
  6  5  1  0
  6  7  1  0
  7  8  2  0
  9 11  1  0
 10  9  2  0
 11 15  1  0
 11 12  1  0
 12 13  1  0
 14 13  1  0
 15 14  1  0
 16 23  1  0
 15 16  1  1
 17 16  2  0
 18 19  1  0
 19 20  2  0
 21 19  1  0
 22 21  1  6
 22 23  1  0
 22 24  1  0
 24 25  1  0
 26 24  2  0
M  END
$$$$
