HPN.pdb
     RDKit          3D

 26 27  0  0  1  0  0  0  0  0999 V2000
   11.0344  -14.7355   17.0732 N   0  0  0  0  0  0  0  0  0  0  0  0
    9.7944  -14.5945   17.7630 C   0  0  1  0  0  0  0  0  0  0  0  0
    8.8588  -15.6838   17.3023 C   0  0  0  0  0  0  0  0  0  0  0  0
    8.5474  -15.5435   15.8497 C   0  0  0  0  0  0  0  0  0  0  0  0
    7.8991  -14.4978   15.2229 C   0  0  0  0  0  0  0  0  0  0  0  0
    7.8273  -14.7725   13.9110 N   0  0  0  0  0  0  0  0  0  0  0  0
    8.4093  -15.9614   13.6774 C   0  0  0  0  0  0  0  0  0  0  0  0
    8.8396  -16.4125   14.8666 N   0  0  0  0  0  0  0  0  0  0  0  0
    9.9282  -14.7131   19.2557 C   0  0  0  0  0  0  0  0  0  0  0  0
   10.9181  -15.3644   19.7133 O   0  0  0  0  0  0  0  0  0  0  0  0
    9.0038  -14.1334   20.1594 N   0  0  0  0  0  0  0  0  0  0  0  0
    7.8852  -13.3136   19.7711 C   0  0  0  0  0  0  0  0  0  0  0  0
    7.1896  -12.8631   21.0321 C   0  0  0  0  0  0  0  0  0  0  0  0
    7.7320  -13.7289   22.1381 C   0  0  0  0  0  0  0  0  0  0  0  0
    9.0252  -14.2568   21.5703 C   0  0  1  0  0  0  0  0  0  0  0  0
    9.1327  -15.6685   22.0372 C   0  0  0  0  0  0  0  0  0  0  0  0
    8.4942  -16.6150   21.5612 O   0  0  0  0  0  0  0  0  0  0  0  0
   12.1413  -18.7778   21.6336 N   0  0  0  0  0  0  0  0  0  0  0  0
   12.2599  -17.5568   22.3763 C   0  0  0  0  0  0  0  0  0  0  0  0
   12.8305  -16.6094   21.7921 O   0  0  0  0  0  0  0  0  0  0  0  0
   11.7113  -17.5190   23.7386 C   0  0  0  0  0  0  0  0  0  0  0  0
   10.2318  -17.2070   23.7317 C   0  0  2  0  0  0  0  0  0  0  0  0
   10.0392  -15.9061   23.1025 N   0  0  0  0  0  0  0  0  0  0  0  0
    9.6766  -17.2465   25.0905 C   0  0  0  0  0  0  0  0  0  0  0  0
    9.6267  -18.4276   25.7974 O   0  0  0  0  0  0  0  0  0  0  0  0
    9.2440  -16.2010   25.6148 O   0  0  0  0  0  0  0  0  0  0  0  0
  2  1  1  6
  2  9  1  0
  3  2  1  0
  4  8  1  0
  4  3  1  0
  5  4  2  0
  6  5  1  0
  6  7  1  0
  7  8  2  0
  9 11  1  0
 10  9  2  0
 11 15  1  0
 11 12  1  0
 12 13  1  0
 14 13  1  0
 15 14  1  0
 16 23  1  0
 15 16  1  6
 17 16  2  0
 18 19  1  0
 19 20  2  0
 21 19  1  0
 22 21  1  1
 22 23  1  0
 22 24  1  0
 24 25  1  0
 26 24  2  0
M  END
$$$$
