HPN.pdb
     RDKit          3D

 26 27  0  0  1  0  0  0  0  0999 V2000
   11.2141  -15.4965   16.4634 N   0  0  0  0  0  0  0  0  0  0  0  0
    9.9874  -15.0576   17.0431 C   0  0  1  0  0  0  0  0  0  0  0  0
    8.8901  -16.0041   16.6257 C   0  0  0  0  0  0  0  0  0  0  0  0
    8.3683  -15.6556   15.2718 C   0  0  0  0  0  0  0  0  0  0  0  0
    8.8071  -14.6520   14.4311 C   0  0  0  0  0  0  0  0  0  0  0  0
    8.0654  -14.6849   13.3128 N   0  0  0  0  0  0  0  0  0  0  0  0
    7.1649  -15.6781   13.4106 C   0  0  0  0  0  0  0  0  0  0  0  0
    7.3654  -16.2546   14.6065 N   0  0  0  0  0  0  0  0  0  0  0  0
   10.0164  -15.0316   18.5459 C   0  0  0  0  0  0  0  0  0  0  0  0
   10.8293  -15.8077   19.1378 O   0  0  0  0  0  0  0  0  0  0  0  0
    9.1819  -14.1851   19.3169 N   0  0  0  0  0  0  0  0  0  0  0  0
    8.3237  -13.1656   18.7710 C   0  0  0  0  0  0  0  0  0  0  0  0
    7.6505  -12.4679   19.9273 C   0  0  0  0  0  0  0  0  0  0  0  0
    7.8800  -13.3426   21.1311 C   0  0  0  0  0  0  0  0  0  0  0  0
    9.0558  -14.1960   20.7277 C   0  0  1  0  0  0  0  0  0  0  0  0
    8.7892  -15.5525   21.2855 C   0  0  0  0  0  0  0  0  0  0  0  0
    8.1396  -16.4328   20.7082 O   0  0  0  0  0  0  0  0  0  0  0  0
   12.6034  -19.2556   22.6098 N   0  0  0  0  0  0  0  0  0  0  0  0
   11.1990  -19.0362   22.4193 C   0  0  0  0  0  0  0  0  0  0  0  0
   10.4573  -20.0277   22.5958 O   0  0  0  0  0  0  0  0  0  0  0  0
   10.7541  -17.6888   22.0390 C   0  0  0  0  0  0  0  0  0  0  0  0
    9.7431  -17.1413   23.0210 C   0  0  2  0  0  0  0  0  0  0  0  0
    9.3331  -15.8174   22.5688 N   0  0  0  0  0  0  0  0  0  0  0  0
   10.2916  -17.1102   24.3827 C   0  0  0  0  0  0  0  0  0  0  0  0
    9.8383  -17.9848   25.3454 O   0  0  0  0  0  0  0  0  0  0  0  0
   11.1785  -16.2838   24.6758 O   0  0  0  0  0  0  0  0  0  0  0  0
  2  1  1  1
  2  9  1  0
  3  2  1  0
  4  8  1  0
  4  3  1  0
  5  4  2  0
  6  5  1  0
  6  7  1  0
  7  8  2  0
  9 11  1  0
 10  9  2  0
 11 15  1  0
 11 12  1  0
 12 13  1  0
 14 13  1  0
 15 14  1  0
 16 23  1  0
 15 16  1  6
 17 16  2  0
 18 19  1  0
 19 20  2  0
 21 19  1  0
 22 21  1  6
 22 23  1  0
 22 24  1  0
 24 25  1  0
 26 24  2  0
M  END
$$$$
