HPN.pdb
     RDKit          3D

 26 27  0  0  1  0  0  0  0  0999 V2000
   10.0186  -14.7839   21.0067 N   0  0  0  0  0  0  0  0  0  0  0  0
    8.9038  -14.2639   21.7280 C   0  0  1  0  0  0  0  0  0  0  0  0
    7.6363  -14.6858   21.0280 C   0  0  0  0  0  0  0  0  0  0  0  0
    7.6584  -14.2829   19.5914 C   0  0  0  0  0  0  0  0  0  0  0  0
    7.7047  -13.0033   19.0745 C   0  0  0  0  0  0  0  0  0  0  0  0
    7.7096  -13.0900   17.7350 N   0  0  0  0  0  0  0  0  0  0  0  0
    7.6678  -14.3850   17.3773 C   0  0  0  0  0  0  0  0  0  0  0  0
    7.6372  -15.0923   18.5182 N   0  0  0  0  0  0  0  0  0  0  0  0
    8.8273  -14.7630   23.1440 C   0  0  0  0  0  0  0  0  0  0  0  0
    9.5124  -15.7877   23.4504 O   0  0  0  0  0  0  0  0  0  0  0  0
    8.0300  -14.1414   24.1367 N   0  0  0  0  0  0  0  0  0  0  0  0
    7.1160  -13.0562   23.8901 C   0  0  0  0  0  0  0  0  0  0  0  0
    6.5090  -12.6605   25.2137 C   0  0  0  0  0  0  0  0  0  0  0  0
    6.8378  -13.7747   26.1715 C   0  0  0  0  0  0  0  0  0  0  0  0
    8.0005  -14.4736   25.5133 C   0  0  1  0  0  0  0  0  0  0  0  0
    7.8004  -15.9293   25.7646 C   0  0  0  0  0  0  0  0  0  0  0  0
    6.8490  -16.5912   25.3321 O   0  0  0  0  0  0  0  0  0  0  0  0
   11.2415  -17.3658   26.0583 N   0  0  0  0  0  0  0  0  0  0  0  0
   10.6018  -18.4445   25.3627 C   0  0  0  0  0  0  0  0  0  0  0  0
   11.2824  -19.0116   24.4797 O   0  0  0  0  0  0  0  0  0  0  0  0
    9.2238  -18.7894   25.7372 C   0  0  0  0  0  0  0  0  0  0  0  0
    8.7524  -17.9782   26.9229 C   0  0  2  0  0  0  0  0  0  0  0  0
    8.7883  -16.5672   26.5583 N   0  0  0  0  0  0  0  0  0  0  0  0
    9.5665  -18.2580   28.1125 C   0  0  0  0  0  0  0  0  0  0  0  0
    9.5533  -19.5045   28.6985 O   0  0  0  0  0  0  0  0  0  0  0  0
   10.2800  -17.3597   28.6016 O   0  0  0  0  0  0  0  0  0  0  0  0
  2  1  1  6
  2  9  1  0
  3  2  1  0
  4  8  1  0
  4  3  1  0
  5  4  2  0
  6  5  1  0
  6  7  1  0
  7  8  2  0
  9 11  1  0
 10  9  2  0
 11 15  1  0
 11 12  1  0
 12 13  1  0
 14 13  1  0
 15 14  1  0
 16 23  1  0
 15 16  1  6
 17 16  2  0
 18 19  1  0
 19 20  2  0
 21 19  1  0
 22 21  1  6
 22 23  1  0
 22 24  1  0
 24 25  1  0
 26 24  2  0
M  END
$$$$
