HPN.pdb
     RDKit          3D

 26 27  0  0  1  0  0  0  0  0999 V2000
   10.7341  -14.6977   16.3397 N   0  0  0  0  0  0  0  0  0  0  0  0
    9.5118  -14.7548   17.0718 C   0  0  1  0  0  0  0  0  0  0  0  0
    8.7825  -16.0202   16.6963 C   0  0  0  0  0  0  0  0  0  0  0  0
    8.3941  -16.0071   15.2555 C   0  0  0  0  0  0  0  0  0  0  0  0
    8.2797  -14.9119   14.4224 C   0  0  0  0  0  0  0  0  0  0  0  0
    7.9072  -15.3440   13.2074 N   0  0  0  0  0  0  0  0  0  0  0  0
    7.7793  -16.6818   13.2357 C   0  0  0  0  0  0  0  0  0  0  0  0
    8.0791  -17.0644   14.4873 N   0  0  0  0  0  0  0  0  0  0  0  0
    9.7119  -14.7721   18.5617 C   0  0  0  0  0  0  0  0  0  0  0  0
   10.7727  -15.3061   19.0122 O   0  0  0  0  0  0  0  0  0  0  0  0
    8.7741  -14.2223   19.4703 N   0  0  0  0  0  0  0  0  0  0  0  0
    7.5763  -13.5217   19.0850 C   0  0  0  0  0  0  0  0  0  0  0  0
    6.8901  -13.0616   20.3476 C   0  0  0  0  0  0  0  0  0  0  0  0
    7.5438  -13.8163   21.4746 C   0  0  0  0  0  0  0  0  0  0  0  0
    8.8563  -14.2650   20.8837 C   0  0  1  0  0  0  0  0  0  0  0  0
    9.1008  -15.6346   21.4191 C   0  0  0  0  0  0  0  0  0  0  0  0
    8.6008  -16.6676   20.9573 O   0  0  0  0  0  0  0  0  0  0  0  0
   11.8028  -18.0175   20.9592 N   0  0  0  0  0  0  0  0  0  0  0  0
   12.4563  -17.1685   21.9126 C   0  0  0  0  0  0  0  0  0  0  0  0
   13.4986  -16.5992   21.5205 O   0  0  0  0  0  0  0  0  0  0  0  0
   11.8586  -17.0391   23.2483 C   0  0  0  0  0  0  0  0  0  0  0  0
   10.3496  -16.9757   23.1765 C   0  0  2  0  0  0  0  0  0  0  0  0
    9.9721  -15.7220   22.5354 N   0  0  0  0  0  0  0  0  0  0  0  0
    9.7504  -17.1117   24.5101 C   0  0  0  0  0  0  0  0  0  0  0  0
    9.7288  -18.3302   25.1522 O   0  0  0  0  0  0  0  0  0  0  0  0
    9.2541  -16.1152   25.0721 O   0  0  0  0  0  0  0  0  0  0  0  0
  2  1  1  6
  2  9  1  0
  3  2  1  0
  4  8  1  0
  4  3  1  0
  5  4  2  0
  6  5  1  0
  6  7  1  0
  7  8  2  0
  9 11  1  0
 10  9  2  0
 11 15  1  0
 11 12  1  0
 12 13  1  0
 14 13  1  0
 15 14  1  0
 16 23  1  0
 15 16  1  6
 17 16  2  0
 18 19  1  0
 19 20  2  0
 21 19  1  0
 22 21  1  1
 22 23  1  0
 22 24  1  0
 24 25  1  0
 26 24  2  0
M  END
$$$$
