DRQ.pdb
     RDKit          3D

 29 28  0  0  1  0  0  0  0  0999 V2000
    5.1644  -19.6395   23.8598 N   0  0  0  0  0  0  0  0  0  0  0  0
    6.3624  -19.9459   23.1411 C   0  0  1  0  0  0  0  0  0  0  0  0
    6.0498  -20.6513   21.8111 C   0  0  0  0  0  0  0  0  0  0  0  0
    4.7231  -21.2759   21.8499 C   0  0  0  0  0  0  0  0  0  0  0  0
    3.6753  -20.6074   21.8622 O   0  0  0  0  0  0  0  0  0  0  0  0
    7.1645  -18.7548   22.7841 C   0  0  0  0  0  0  0  0  0  0  0  0
    8.2394  -18.9321   22.1723 O   0  0  0  0  0  0  0  0  0  0  0  0
    4.6954  -22.6717   21.8720 O   0  0  0  0  0  0  0  0  0  0  0  0
    9.4556  -13.9152   18.6835 N   0  0  0  0  0  0  0  0  0  0  0  0
    8.7933  -12.7286   19.1032 C   0  0  0  0  0  0  0  0  0  0  0  0
    9.3939  -11.5818   19.0326 N   0  0  0  0  0  0  0  0  0  0  0  0
    7.4486  -12.7312   19.6209 N   0  0  0  0  0  0  0  0  0  0  0  0
    6.8514  -13.9534   20.0698 C   0  0  0  0  0  0  0  0  0  0  0  0
    7.2954  -14.1473   21.5418 C   0  0  0  0  0  0  0  0  0  0  0  0
    6.6588  -15.4126   21.9860 C   0  0  0  0  0  0  0  0  0  0  0  0
    7.5575  -16.3335   22.7596 C   0  0  2  0  0  0  0  0  0  0  0  0
    6.7248  -17.4704   23.1233 N   0  0  0  0  0  0  0  0  0  0  0  0
    8.0169  -15.6297   23.9936 C   0  0  0  0  0  0  0  0  0  0  0  0
    7.1744  -14.9507   24.5990 O   0  0  0  0  0  0  0  0  0  0  0  0
    8.8505  -10.7390   19.2841 N   0  0  0  0  0  0  0  0  0  0  0  0
    7.1613  -19.6912   26.8096 C   0  0  0  0  0  0  0  0  0  0  0  0
    8.1167  -19.1867   27.7213 O   0  0  0  0  0  0  0  0  0  0  0  0
    8.2713  -19.7453   28.8665 C   0  0  0  0  0  0  0  0  0  0  0  0
    8.9502  -18.0367   27.3927 C   0  0  0  0  0  0  0  0  0  0  0  0
    8.7596  -17.4337   26.0461 C   0  0  2  0  0  0  0  0  0  0  0  0
    9.6487  -16.3053   25.7393 N   0  0  0  0  0  0  0  0  0  0  0  0
    9.3576  -15.7617   24.4123 C   0  0  0  0  0  0  0  0  0  0  0  0
   11.0912  -16.4151   25.8785 O   0  0  0  0  0  0  0  0  0  0  0  0
   11.7081  -16.1774   27.1242 O   0  0  0  0  0  0  0  0  0  0  0  0
  2  3  1  0
  2  1  1  6
  4  8  1  0
  4  3  1  0
  5  4  2  0
  6  2  1  0
  7  6  2  0
 10  9  1  0
 10 12  1  0
 11 10  2  0
 13 12  1  0
 13 14  1  0
 15 14  1  0
 16 15  1  6
 16 17  1  0
 17  6  1  0
 18 19  2  0
 18 16  1  0
 21 22  2  0
 21 20  1  0
 23 21  1  0
 24 23  1  0
 25 24  1  1
 25 26  1  0
 26 18  1  0
 27 28  1  0
 27 25  1  0
 29 27  2  0
M  END
$$$$
