DRQ.pdb
     RDKit          3D

 29 28  0  0  1  0  0  0  0  0999 V2000
    7.7533  -21.1335   21.1817 N   0  0  0  0  0  0  0  0  0  0  0  0
    6.9022  -20.2116   21.8684 C   0  0  1  0  0  0  0  0  0  0  0  0
    6.3767  -20.8110   23.1832 C   0  0  0  0  0  0  0  0  0  0  0  0
    5.5245  -21.9762   22.9227 C   0  0  0  0  0  0  0  0  0  0  0  0
    4.9629  -22.1559   21.8285 O   0  0  0  0  0  0  0  0  0  0  0  0
    7.5730  -18.9475   22.2442 C   0  0  0  0  0  0  0  0  0  0  0  0
    8.8139  -18.9615   22.3895 O   0  0  0  0  0  0  0  0  0  0  0  0
    5.3747  -22.8823   23.9745 O   0  0  0  0  0  0  0  0  0  0  0  0
    9.7351  -13.1905   20.2399 N   0  0  0  0  0  0  0  0  0  0  0  0
    8.6911  -13.1790   19.2740 C   0  0  0  0  0  0  0  0  0  0  0  0
    8.9267  -12.7971   18.0576 N   0  0  0  0  0  0  0  0  0  0  0  0
    7.3421  -13.5798   19.5833 N   0  0  0  0  0  0  0  0  0  0  0  0
    6.7797  -13.2866   20.8678 C   0  0  0  0  0  0  0  0  0  0  0  0
    7.5465  -14.1576   21.8948 C   0  0  0  0  0  0  0  0  0  0  0  0
    6.9671  -15.5189   21.7731 C   0  0  0  0  0  0  0  0  0  0  0  0
    7.5499  -16.5388   22.7083 C   0  0  2  0  0  0  0  0  0  0  0  0
    6.8331  -17.7740   22.4279 N   0  0  0  0  0  0  0  0  0  0  0  0
    7.2831  -16.1086   24.1128 C   0  0  0  0  0  0  0  0  0  0  0  0
    6.0967  -15.9458   24.4342 O   0  0  0  0  0  0  0  0  0  0  0  0
    8.1160  -12.6712   17.4285 N   0  0  0  0  0  0  0  0  0  0  0  0
    7.5888  -20.7708   26.5789 C   0  0  0  0  0  0  0  0  0  0  0  0
    7.0761  -19.8869   27.5556 O   0  0  0  0  0  0  0  0  0  0  0  0
    6.6073  -20.3475   28.6580 C   0  0  0  0  0  0  0  0  0  0  0  0
    7.0694  -18.4438   27.3486 C   0  0  0  0  0  0  0  0  0  0  0  0
    7.6408  -17.9478   26.0678 C   0  0  2  0  0  0  0  0  0  0  0  0
    8.4875  -16.7532   26.1866 N   0  0  0  0  0  0  0  0  0  0  0  0
    8.3640  -15.9097   24.9973 C   0  0  0  0  0  0  0  0  0  0  0  0
    9.8965  -16.8517   26.5290 O   0  0  0  0  0  0  0  0  0  0  0  0
   10.3001  -16.9169   27.8787 O   0  0  0  0  0  0  0  0  0  0  0  0
  2  3  1  0
  2  1  1  1
  4  8  1  0
  4  3  1  0
  5  4  2  0
  6  2  1  0
  7  6  2  0
 10  9  1  0
 10 12  1  0
 11 10  2  0
 13 12  1  0
 13 14  1  0
 15 14  1  0
 16 15  1  6
 16 17  1  0
 17  6  1  0
 18 19  2  0
 18 16  1  0
 21 22  2  0
 21 20  1  0
 23 21  1  0
 24 23  1  0
 25 24  1  1
 25 26  1  0
 26 18  1  0
 27 28  1  0
 27 25  1  0
 29 27  2  0
M  END
$$$$
