DRQ.pdb
     RDKit          3D

 29 28  0  0  1  0  0  0  0  0999 V2000
    9.2836  -15.4328   16.8078 N   0  0  0  0  0  0  0  0  0  0  0  0
   10.0655  -14.5724   17.6411 C   0  0  1  0  0  0  0  0  0  0  0  0
    9.2549  -14.0818   18.8521 C   0  0  0  0  0  0  0  0  0  0  0  0
    7.9835  -13.4883   18.4243 C   0  0  0  0  0  0  0  0  0  0  0  0
    7.6551  -13.4146   17.2277 O   0  0  0  0  0  0  0  0  0  0  0  0
   11.2714  -15.2207   18.2021 C   0  0  0  0  0  0  0  0  0  0  0  0
   11.1822  -16.4128   18.5658 O   0  0  0  0  0  0  0  0  0  0  0  0
    7.1523  -13.0062   19.4374 O   0  0  0  0  0  0  0  0  0  0  0  0
   15.1794  -12.4418   13.6343 N   0  0  0  0  0  0  0  0  0  0  0  0
   15.1545  -13.8003   13.2137 C   0  0  0  0  0  0  0  0  0  0  0  0
   14.9114  -14.0996   11.9760 N   0  0  0  0  0  0  0  0  0  0  0  0
   15.3903  -14.8976   14.1172 N   0  0  0  0  0  0  0  0  0  0  0  0
   15.6752  -14.6457   15.4984 C   0  0  0  0  0  0  0  0  0  0  0  0
   14.4672  -15.1869   16.3042 C   0  0  0  0  0  0  0  0  0  0  0  0
   14.7283  -14.8075   17.7154 C   0  0  0  0  0  0  0  0  0  0  0  0
   13.6750  -15.2451   18.6918 C   0  0  2  0  0  0  0  0  0  0  0  0
   12.4736  -14.5139   18.3172 N   0  0  0  0  0  0  0  0  0  0  0  0
   14.1002  -14.8460   20.0662 C   0  0  0  0  0  0  0  0  0  0  0  0
   14.2756  -13.6357   20.2701 O   0  0  0  0  0  0  0  0  0  0  0  0
   14.9313  -15.0987   11.7109 N   0  0  0  0  0  0  0  0  0  0  0  0
   12.9451  -18.0263   25.3826 C   0  0  0  0  0  0  0  0  0  0  0  0
   12.1580  -17.0823   24.6844 O   0  0  0  0  0  0  0  0  0  0  0  0
   10.9120  -16.9514   24.9629 C   0  0  0  0  0  0  0  0  0  0  0  0
   12.7289  -16.2341   23.6451 C   0  0  0  0  0  0  0  0  0  0  0  0
   14.1925  -16.3568   23.4089 C   0  0  2  0  0  0  0  0  0  0  0  0
   14.7356  -15.4486   22.3899 N   0  0  0  0  0  0  0  0  0  0  0  0
   14.2809  -15.8366   21.0543 C   0  0  0  0  0  0  0  0  0  0  0  0
   16.1563  -15.1509   22.3172 O   0  0  0  0  0  0  0  0  0  0  0  0
   16.9292  -15.6200   21.2349 O   0  0  0  0  0  0  0  0  0  0  0  0
  2  3  1  0
  2  1  1  1
  4  8  1  0
  4  3  1  0
  5  4  2  0
  6  2  1  0
  7  6  2  0
 10  9  1  0
 10 12  1  0
 11 10  2  0
 13 12  1  0
 13 14  1  0
 15 14  1  0
 16 15  1  6
 16 17  1  0
 17  6  1  0
 18 19  2  0
 18 16  1  0
 21 22  2  0
 21 20  1  0
 23 21  1  0
 24 23  1  0
 25 24  1  1
 25 26  1  0
 26 18  1  0
 27 28  1  0
 27 25  1  0
 29 27  2  0
M  END
$$$$
