DRQ.pdb
     RDKit          3D

 29 28  0  0  1  0  0  0  0  0999 V2000
    9.3196  -15.6153   19.6270 N   0  0  0  0  0  0  0  0  0  0  0  0
    8.5045  -14.7047   20.3701 C   0  0  1  0  0  0  0  0  0  0  0  0
    7.3992  -14.0994   19.4891 C   0  0  0  0  0  0  0  0  0  0  0  0
    7.9077  -13.7964   18.1469 C   0  0  0  0  0  0  0  0  0  0  0  0
    9.0592  -14.0992   17.7899 O   0  0  0  0  0  0  0  0  0  0  0  0
    7.8069  -15.3282   21.5163 C   0  0  0  0  0  0  0  0  0  0  0  0
    7.0026  -14.6272   22.1666 O   0  0  0  0  0  0  0  0  0  0  0  0
    7.0257  -13.1456   17.2820 O   0  0  0  0  0  0  0  0  0  0  0  0
    4.7109  -21.8371   24.1110 N   0  0  0  0  0  0  0  0  0  0  0  0
    4.7324  -21.8397   22.6889 C   0  0  0  0  0  0  0  0  0  0  0  0
    3.6378  -22.0136   22.0164 N   0  0  0  0  0  0  0  0  0  0  0  0
    5.9433  -21.6555   21.9300 N   0  0  0  0  0  0  0  0  0  0  0  0
    7.0303  -20.9010   22.4788 C   0  0  0  0  0  0  0  0  0  0  0  0
    6.5336  -19.4384   22.6040 C   0  0  0  0  0  0  0  0  0  0  0  0
    7.7100  -18.6566   23.0609 C   0  0  0  0  0  0  0  0  0  0  0  0
    7.5008  -17.1705   23.1069 C   0  0  2  0  0  0  0  0  0  0  0  0
    8.0445  -16.6650   21.8551 N   0  0  0  0  0  0  0  0  0  0  0  0
    8.2756  -16.6129   24.2549 C   0  0  0  0  0  0  0  0  0  0  0  0
    9.4753  -16.3702   24.0571 O   0  0  0  0  0  0  0  0  0  0  0  0
    3.7050  -22.0263   20.9848 N   0  0  0  0  0  0  0  0  0  0  0  0
    5.8917  -12.3117   26.1745 C   0  0  0  0  0  0  0  0  0  0  0  0
    7.2118  -12.1024   26.6346 O   0  0  0  0  0  0  0  0  0  0  0  0
    7.7057  -10.9179   26.6564 C   0  0  0  0  0  0  0  0  0  0  0  0
    8.0409  -13.2078   27.0992 C   0  0  0  0  0  0  0  0  0  0  0  0
    7.4337  -14.5653   27.0560 C   0  0  2  0  0  0  0  0  0  0  0  0
    8.3097  -15.6213   26.5313 N   0  0  0  0  0  0  0  0  0  0  0  0
    7.6287  -16.3893   25.4885 C   0  0  0  0  0  0  0  0  0  0  0  0
    8.9862  -16.5560   27.4150 O   0  0  0  0  0  0  0  0  0  0  0  0
    8.8143  -17.9460   27.2501 O   0  0  0  0  0  0  0  0  0  0  0  0
  2  3  1  0
  2  1  1  6
  4  8  1  0
  4  3  1  0
  5  4  2  0
  6  2  1  0
  7  6  2  0
 10  9  1  0
 10 12  1  0
 11 10  2  0
 13 12  1  0
 13 14  1  0
 15 14  1  0
 16 15  1  6
 16 17  1  0
 17  6  1  0
 18 19  2  0
 18 16  1  0
 21 22  2  0
 21 20  1  0
 23 21  1  0
 24 23  1  0
 25 24  1  6
 25 26  1  0
 26 18  1  0
 27 28  1  0
 27 25  1  0
 29 27  2  0
M  END
$$$$
