DRQ.pdb
     RDKit          3D

 29 28  0  0  1  0  0  0  0  0999 V2000
   14.1766  -14.1547   15.7206 N   0  0  0  0  0  0  0  0  0  0  0  0
   14.5359  -15.1752   16.6563 C   0  0  1  0  0  0  0  0  0  0  0  0
   16.0588  -15.2344   16.8593 C   0  0  0  0  0  0  0  0  0  0  0  0
   16.7374  -15.6163   15.6161 C   0  0  0  0  0  0  0  0  0  0  0  0
   17.9451  -15.9086   15.5824 O   0  0  0  0  0  0  0  0  0  0  0  0
   13.9593  -14.9774   18.0045 C   0  0  0  0  0  0  0  0  0  0  0  0
   14.5004  -14.1402   18.7579 O   0  0  0  0  0  0  0  0  0  0  0  0
   15.9519  -15.6361   14.4619 O   0  0  0  0  0  0  0  0  0  0  0  0
    7.4564  -12.7757   20.5158 N   0  0  0  0  0  0  0  0  0  0  0  0
    7.4178  -13.1305   19.1390 C   0  0  0  0  0  0  0  0  0  0  0  0
    7.1207  -12.2440   18.2409 N   0  0  0  0  0  0  0  0  0  0  0  0
    7.6980  -14.4647   18.6726 N   0  0  0  0  0  0  0  0  0  0  0  0
    8.4524  -15.3696   19.4874 C   0  0  0  0  0  0  0  0  0  0  0  0
    9.8421  -14.7178   19.7008 C   0  0  0  0  0  0  0  0  0  0  0  0
   10.8207  -15.8310   19.6168 C   0  0  0  0  0  0  0  0  0  0  0  0
   12.2598  -15.4151   19.7185 C   0  0  2  0  0  0  0  0  0  0  0  0
   12.8395  -15.7087   18.4163 N   0  0  0  0  0  0  0  0  0  0  0  0
   12.9256  -16.2453   20.7657 C   0  0  0  0  0  0  0  0  0  0  0  0
   13.1780  -17.4230   20.4716 O   0  0  0  0  0  0  0  0  0  0  0  0
    7.1280  -12.5422   17.2511 N   0  0  0  0  0  0  0  0  0  0  0  0
   18.1299  -15.2518   23.3827 C   0  0  0  0  0  0  0  0  0  0  0  0
   17.5866  -16.2323   24.2439 O   0  0  0  0  0  0  0  0  0  0  0  0
   18.3193  -16.7706   25.1499 C   0  0  0  0  0  0  0  0  0  0  0  0
   16.1949  -16.6529   24.1374 C   0  0  0  0  0  0  0  0  0  0  0  0
   15.3549  -15.9431   23.1355 C   0  0  1  0  0  0  0  0  0  0  0  0
   13.9830  -16.4514   23.0030 N   0  0  0  0  0  0  0  0  0  0  0  0
   13.2341  -15.6716   22.0170 C   0  0  0  0  0  0  0  0  0  0  0  0
   13.1321  -16.6527   24.1639 O   0  0  0  0  0  0  0  0  0  0  0  0
   13.3317  -17.7623   25.0112 O   0  0  0  0  0  0  0  0  0  0  0  0
  2  3  1  0
  2  1  1  6
  4  8  1  0
  4  3  1  0
  5  4  2  0
  6  2  1  0
  7  6  2  0
 10  9  1  0
 10 12  1  0
 11 10  2  0
 13 12  1  0
 13 14  1  0
 15 14  1  0
 16 15  1  6
 16 17  1  0
 17  6  1  0
 18 19  2  0
 18 16  1  0
 21 22  2  0
 21 20  1  0
 23 21  1  0
 24 23  1  0
 25 24  1  6
 25 26  1  0
 26 18  1  0
 27 28  1  0
 27 25  1  0
 29 27  2  0
M  END
$$$$
