DRQ.pdb
     RDKit          3D

 29 28  0  0  1  0  0  0  0  0999 V2000
   11.1648  -18.8288   20.3972 N   0  0  0  0  0  0  0  0  0  0  0  0
   12.2321  -17.9597   20.7862 C   0  0  1  0  0  0  0  0  0  0  0  0
   12.9129  -17.3293   19.5601 C   0  0  0  0  0  0  0  0  0  0  0  0
   13.7773  -18.3028   18.8841 C   0  0  0  0  0  0  0  0  0  0  0  0
   14.0139  -19.4250   19.3634 O   0  0  0  0  0  0  0  0  0  0  0  0
   11.7988  -16.8251   21.6314 C   0  0  0  0  0  0  0  0  0  0  0  0
   12.6743  -16.0419   22.0573 O   0  0  0  0  0  0  0  0  0  0  0  0
   14.3256  -17.9028   17.6639 O   0  0  0  0  0  0  0  0  0  0  0  0
    8.0994  -13.3038   16.8710 N   0  0  0  0  0  0  0  0  0  0  0  0
    8.0061  -13.2827   18.2901 C   0  0  0  0  0  0  0  0  0  0  0  0
    8.6810  -12.4164   18.9792 N   0  0  0  0  0  0  0  0  0  0  0  0
    7.1773  -14.2019   19.0279 N   0  0  0  0  0  0  0  0  0  0  0  0
    7.2840  -14.2833   20.4541 C   0  0  0  0  0  0  0  0  0  0  0  0
    8.7196  -14.7793   20.7618 C   0  0  0  0  0  0  0  0  0  0  0  0
    8.7456  -15.0402   22.2229 C   0  0  0  0  0  0  0  0  0  0  0  0
   10.0716  -15.4972   22.7588 C   0  0  2  0  0  0  0  0  0  0  0  0
   10.4463  -16.6399   21.9391 N   0  0  0  0  0  0  0  0  0  0  0  0
    9.8919  -15.9306   24.1762 C   0  0  0  0  0  0  0  0  0  0  0  0
    9.5203  -17.0986   24.3631 O   0  0  0  0  0  0  0  0  0  0  0  0
    8.6300  -12.4783   20.0100 N   0  0  0  0  0  0  0  0  0  0  0  0
    5.4008  -13.5946   26.1754 C   0  0  0  0  0  0  0  0  0  0  0  0
    6.4455  -12.7869   26.6798 O   0  0  0  0  0  0  0  0  0  0  0  0
    6.2032  -11.5861   27.0628 C   0  0  0  0  0  0  0  0  0  0  0  0
    7.8110  -13.2863   26.7863 C   0  0  0  0  0  0  0  0  0  0  0  0
    8.0451  -14.6930   26.3627 C   0  0  2  0  0  0  0  0  0  0  0  0
    9.4327  -15.1577   26.4910 N   0  0  0  0  0  0  0  0  0  0  0  0
   10.1460  -15.0175   25.2211 C   0  0  0  0  0  0  0  0  0  0  0  0
    9.7485  -16.4627   27.0473 O   0  0  0  0  0  0  0  0  0  0  0  0
    9.9777  -17.5644   26.1973 O   0  0  0  0  0  0  0  0  0  0  0  0
  2  3  1  0
  2  1  1  6
  4  8  1  0
  4  3  1  0
  5  4  2  0
  6  2  1  0
  7  6  2  0
 10  9  1  0
 10 12  1  0
 11 10  2  0
 13 12  1  0
 13 14  1  0
 15 14  1  0
 16 15  1  6
 16 17  1  0
 17  6  1  0
 18 19  2  0
 18 16  1  0
 21 22  2  0
 21 20  1  0
 23 21  1  0
 24 23  1  0
 25 24  1  1
 25 26  1  0
 26 18  1  0
 27 28  1  0
 27 25  1  0
 29 27  2  0
M  END
$$$$
