DRQ.pdb
     RDKit          3D

 29 28  0  0  1  0  0  0  0  0999 V2000
   14.3819  -15.8621   16.0623 N   0  0  0  0  0  0  0  0  0  0  0  0
   15.2300  -15.4620   17.1423 C   0  0  1  0  0  0  0  0  0  0  0  0
   16.1214  -14.2752   16.7411 C   0  0  0  0  0  0  0  0  0  0  0  0
   17.0676  -14.6641   15.6898 C   0  0  0  0  0  0  0  0  0  0  0  0
   16.9324  -15.7080   15.0287 O   0  0  0  0  0  0  0  0  0  0  0  0
   14.4929  -15.0203   18.3468 C   0  0  0  0  0  0  0  0  0  0  0  0
   15.1561  -14.6301   19.3313 O   0  0  0  0  0  0  0  0  0  0  0  0
   18.1373  -13.7950   15.4660 O   0  0  0  0  0  0  0  0  0  0  0  0
    6.0687  -14.6395   18.3831 N   0  0  0  0  0  0  0  0  0  0  0  0
    7.2611  -13.8641   18.3827 C   0  0  0  0  0  0  0  0  0  0  0  0
    7.8655  -13.5904   17.2689 N   0  0  0  0  0  0  0  0  0  0  0  0
    7.8544  -13.3510   19.5913 N   0  0  0  0  0  0  0  0  0  0  0  0
    9.1600  -12.7622   19.5597 C   0  0  0  0  0  0  0  0  0  0  0  0
   10.1194  -13.7794   20.2277 C   0  0  0  0  0  0  0  0  0  0  0  0
   11.0143  -14.2539   19.1425 C   0  0  0  0  0  0  0  0  0  0  0  0
   12.4174  -14.5690   19.5742 C   0  0  2  0  0  0  0  0  0  0  0  0
   13.0940  -15.0399   18.3747 N   0  0  0  0  0  0  0  0  0  0  0  0
   12.3722  -15.6624   20.5897 C   0  0  0  0  0  0  0  0  0  0  0  0
   12.3421  -16.8255   20.1612 O   0  0  0  0  0  0  0  0  0  0  0  0
    8.7330  -13.0302   17.3185 N   0  0  0  0  0  0  0  0  0  0  0  0
   16.9581  -16.9971   23.3545 C   0  0  0  0  0  0  0  0  0  0  0  0
   16.0606  -18.0843   23.4590 O   0  0  0  0  0  0  0  0  0  0  0  0
   16.5058  -19.2671   23.6826 C   0  0  0  0  0  0  0  0  0  0  0  0
   14.6208  -17.8992   23.3250 C   0  0  0  0  0  0  0  0  0  0  0  0
   14.1417  -16.5085   23.1021 C   0  0  2  0  0  0  0  0  0  0  0  0
   12.6874  -16.3695   22.9492 N   0  0  0  0  0  0  0  0  0  0  0  0
   12.3659  -15.3378   21.9626 C   0  0  0  0  0  0  0  0  0  0  0  0
   11.8168  -16.1857   24.0984 O   0  0  0  0  0  0  0  0  0  0  0  0
   11.6457  -17.2239   25.0374 O   0  0  0  0  0  0  0  0  0  0  0  0
  2  3  1  0
  2  1  1  6
  4  8  1  0
  4  3  1  0
  5  4  2  0
  6  2  1  0
  7  6  2  0
 10  9  1  0
 10 12  1  0
 11 10  2  0
 13 12  1  0
 13 14  1  0
 15 14  1  0
 16 15  1  6
 16 17  1  0
 17  6  1  0
 18 19  2  0
 18 16  1  0
 21 22  2  0
 21 20  1  0
 23 21  1  0
 24 23  1  0
 25 24  1  6
 25 26  1  0
 26 18  1  0
 27 28  1  0
 27 25  1  0
 29 27  2  0
M  END
$$$$
