DRQ.pdb
     RDKit          3D

 29 28  0  0  1  0  0  0  0  0999 V2000
   13.6448  -16.9782   19.2846 N   0  0  0  0  0  0  0  0  0  0  0  0
   12.8999  -17.7076   20.2639 C   0  0  1  0  0  0  0  0  0  0  0  0
   13.8079  -18.6595   21.0599 C   0  0  0  0  0  0  0  0  0  0  0  0
   14.2521  -19.7796   20.2234 C   0  0  0  0  0  0  0  0  0  0  0  0
   13.9808  -19.8516   19.0125 O   0  0  0  0  0  0  0  0  0  0  0  0
   12.2387  -16.8487   21.2712 C   0  0  0  0  0  0  0  0  0  0  0  0
   12.8919  -15.8988   21.7530 O   0  0  0  0  0  0  0  0  0  0  0  0
   15.0025  -20.7699   20.8606 O   0  0  0  0  0  0  0  0  0  0  0  0
    8.0876  -14.0414   18.5867 N   0  0  0  0  0  0  0  0  0  0  0  0
    7.8935  -13.1036   19.6382 C   0  0  0  0  0  0  0  0  0  0  0  0
    8.1130  -11.8413   19.4405 N   0  0  0  0  0  0  0  0  0  0  0  0
    7.4538  -13.4921   20.9543 N   0  0  0  0  0  0  0  0  0  0  0  0
    7.1529  -14.8636   21.2381 C   0  0  0  0  0  0  0  0  0  0  0  0
    8.4582  -15.6620   20.9925 C   0  0  0  0  0  0  0  0  0  0  0  0
    8.8311  -16.2303   22.3123 C   0  0  0  0  0  0  0  0  0  0  0  0
   10.2995  -16.1935   22.6231 C   0  0  2  0  0  0  0  0  0  0  0  0
   10.9197  -17.0979   21.6663 N   0  0  0  0  0  0  0  0  0  0  0  0
   10.5087  -16.7056   24.0098 C   0  0  0  0  0  0  0  0  0  0  0  0
   10.8485  -17.8925   24.1244 O   0  0  0  0  0  0  0  0  0  0  0  0
    8.0441  -11.2087   20.2553 N   0  0  0  0  0  0  0  0  0  0  0  0
   10.5442  -13.1842   29.4532 C   0  0  0  0  0  0  0  0  0  0  0  0
   10.7010  -14.5362   29.8350 O   0  0  0  0  0  0  0  0  0  0  0  0
   10.8227  -14.8450   31.0748 C   0  0  0  0  0  0  0  0  0  0  0  0
   10.7225  -15.6089   28.8480 C   0  0  0  0  0  0  0  0  0  0  0  0
   10.5838  -15.2100   27.4215 C   0  0  1  0  0  0  0  0  0  0  0  0
   10.5929  -16.3221   26.4618 N   0  0  0  0  0  0  0  0  0  0  0  0
   10.3169  -15.8409   25.1078 C   0  0  0  0  0  0  0  0  0  0  0  0
    9.8079  -17.5247   26.6851 O   0  0  0  0  0  0  0  0  0  0  0  0
    8.5449  -17.6758   26.0761 O   0  0  0  0  0  0  0  0  0  0  0  0
  2  3  1  0
  2  1  1  6
  4  8  1  0
  4  3  1  0
  5  4  2  0
  6  2  1  0
  7  6  2  0
 10  9  1  0
 10 12  1  0
 11 10  2  0
 13 12  1  0
 13 14  1  0
 15 14  1  0
 16 15  1  6
 16 17  1  0
 17  6  1  0
 18 19  2  0
 18 16  1  0
 21 22  2  0
 21 20  1  0
 23 21  1  0
 24 23  1  0
 25 24  1  6
 25 26  1  0
 26 18  1  0
 27 28  1  0
 27 25  1  0
 29 27  2  0
M  END
$$$$
