DRQ.pdb
     RDKit          3D

 29 28  0  0  1  0  0  0  0  0999 V2000
   19.7516  -16.8869   15.6683 N   0  0  0  0  0  0  0  0  0  0  0  0
   18.5852  -16.0649   15.7669 C   0  0  1  0  0  0  0  0  0  0  0  0
   18.1566  -15.5374   14.3876 C   0  0  0  0  0  0  0  0  0  0  0  0
   19.0002  -14.4110   13.9736 C   0  0  0  0  0  0  0  0  0  0  0  0
   19.8530  -13.9093   14.7260 O   0  0  0  0  0  0  0  0  0  0  0  0
   17.4036  -16.7698   16.3112 C   0  0  0  0  0  0  0  0  0  0  0  0
   16.3732  -16.1004   16.5384 O   0  0  0  0  0  0  0  0  0  0  0  0
   18.7963  -13.9263   12.6801 O   0  0  0  0  0  0  0  0  0  0  0  0
   14.7647  -23.6654   13.2345 N   0  0  0  0  0  0  0  0  0  0  0  0
   15.2272  -22.3279   13.0926 C   0  0  0  0  0  0  0  0  0  0  0  0
   15.7447  -21.9277   11.9734 N   0  0  0  0  0  0  0  0  0  0  0  0
   15.1513  -21.3624   14.1596 N   0  0  0  0  0  0  0  0  0  0  0  0
   14.6377  -21.7435   15.4414 C   0  0  0  0  0  0  0  0  0  0  0  0
   14.6347  -20.4631   16.3143 C   0  0  0  0  0  0  0  0  0  0  0  0
   16.0538  -20.0356   16.3982 C   0  0  0  0  0  0  0  0  0  0  0  0
   16.2880  -18.7748   17.1791 C   0  0  2  0  0  0  0  0  0  0  0  0
   17.4454  -18.1462   16.5598 N   0  0  0  0  0  0  0  0  0  0  0  0
   16.6071  -19.1382   18.5916 C   0  0  0  0  0  0  0  0  0  0  0  0
   17.7397  -18.8474   19.0038 O   0  0  0  0  0  0  0  0  0  0  0  0
   16.0546  -20.9433   11.9125 N   0  0  0  0  0  0  0  0  0  0  0  0
   13.6131  -20.7622   25.1818 C   0  0  0  0  0  0  0  0  0  0  0  0
   13.5887  -20.4007   23.8154 O   0  0  0  0  0  0  0  0  0  0  0  0
   12.4784  -20.0905   23.2514 C   0  0  0  0  0  0  0  0  0  0  0  0
   14.8070  -20.3625   23.0157 C   0  0  0  0  0  0  0  0  0  0  0  0
   14.6510  -20.0409   21.5716 C   0  0  1  0  0  0  0  0  0  0  0  0
   15.9005  -20.0289   20.7993 N   0  0  0  0  0  0  0  0  0  0  0  0
   15.6319  -19.7818   19.3823 C   0  0  0  0  0  0  0  0  0  0  0  0
   16.8640  -21.1127   20.8964 O   0  0  0  0  0  0  0  0  0  0  0  0
   17.8676  -21.0887   21.8869 O   0  0  0  0  0  0  0  0  0  0  0  0
  2  3  1  0
  2  1  1  6
  4  8  1  0
  4  3  1  0
  5  4  2  0
  6  2  1  0
  7  6  2  0
 10  9  1  0
 10 12  1  0
 11 10  2  0
 13 12  1  0
 13 14  1  0
 15 14  1  0
 16 15  1  6
 16 17  1  0
 17  6  1  0
 18 19  2  0
 18 16  1  0
 21 22  2  0
 21 20  1  0
 23 21  1  0
 24 23  1  0
 25 24  1  1
 25 26  1  0
 26 18  1  0
 27 28  1  0
 27 25  1  0
 29 27  2  0
M  END
$$$$
