DRQ.pdb
     RDKit          3D

 29 28  0  0  1  0  0  0  0  0999 V2000
   10.4389  -18.3843   18.2877 N   0  0  0  0  0  0  0  0  0  0  0  0
   11.5330  -17.8762   19.0563 C   0  0  1  0  0  0  0  0  0  0  0  0
   12.2251  -16.7073   18.3360 C   0  0  0  0  0  0  0  0  0  0  0  0
   12.5620  -17.0701   16.9552 C   0  0  0  0  0  0  0  0  0  0  0  0
   13.4851  -16.5194   16.3310 O   0  0  0  0  0  0  0  0  0  0  0  0
   11.1373  -17.3520   20.3822 C   0  0  0  0  0  0  0  0  0  0  0  0
   12.0379  -16.9378   21.1429 O   0  0  0  0  0  0  0  0  0  0  0  0
   11.7876  -18.0748   16.3716 O   0  0  0  0  0  0  0  0  0  0  0  0
    9.4461  -13.6331   18.4211 N   0  0  0  0  0  0  0  0  0  0  0  0
    8.7643  -12.7551   19.3083 C   0  0  0  0  0  0  0  0  0  0  0  0
    8.9763  -11.4771   19.2585 N   0  0  0  0  0  0  0  0  0  0  0  0
    7.8217  -13.2233   20.2925 N   0  0  0  0  0  0  0  0  0  0  0  0
    7.5597  -14.6249   20.4302 C   0  0  0  0  0  0  0  0  0  0  0  0
    7.7230  -14.9588   21.9346 C   0  0  0  0  0  0  0  0  0  0  0  0
    8.0002  -16.4161   21.9908 C   0  0  0  0  0  0  0  0  0  0  0  0
    9.4548  -16.7791   22.0730 C   0  0  2  0  0  0  0  0  0  0  0  0
    9.7918  -17.3223   20.7654 N   0  0  0  0  0  0  0  0  0  0  0  0
    9.6275  -17.8328   23.1165 C   0  0  0  0  0  0  0  0  0  0  0  0
    9.5633  -19.0121   22.7392 O   0  0  0  0  0  0  0  0  0  0  0  0
    8.4143  -10.8726   19.8811 N   0  0  0  0  0  0  0  0  0  0  0  0
   14.5219  -19.0077   23.1260 C   0  0  0  0  0  0  0  0  0  0  0  0
   14.3799  -19.3807   24.4821 O   0  0  0  0  0  0  0  0  0  0  0  0
   15.3441  -19.9681   25.0925 C   0  0  0  0  0  0  0  0  0  0  0  0
   13.1541  -19.1084   25.2228 C   0  0  0  0  0  0  0  0  0  0  0  0
   12.0847  -18.3685   24.5002 C   0  0  2  0  0  0  0  0  0  0  0  0
   10.8389  -18.1820   25.2559 N   0  0  0  0  0  0  0  0  0  0  0  0
    9.8518  -17.4550   24.4571 C   0  0  0  0  0  0  0  0  0  0  0  0
   10.8404  -17.6207   26.5965 O   0  0  0  0  0  0  0  0  0  0  0  0
   10.9391  -18.4635   27.7229 O   0  0  0  0  0  0  0  0  0  0  0  0
  2  3  1  0
  2  1  1  6
  4  8  1  0
  4  3  1  0
  5  4  2  0
  6  2  1  0
  7  6  2  0
 10  9  1  0
 10 12  1  0
 11 10  2  0
 13 12  1  0
 13 14  1  0
 15 14  1  0
 16 15  1  6
 16 17  1  0
 17  6  1  0
 18 19  2  0
 18 16  1  0
 21 22  2  0
 21 20  1  0
 23 21  1  0
 24 23  1  0
 25 24  1  6
 25 26  1  0
 26 18  1  0
 27 28  1  0
 27 25  1  0
 29 27  2  0
M  END
$$$$
