DRQ.pdb
     RDKit          3D

 29 28  0  0  1  0  0  0  0  0999 V2000
    7.9117  -21.0935   22.4692 N   0  0  0  0  0  0  0  0  0  0  0  0
    8.6487  -21.0154   21.2459 C   0  0  1  0  0  0  0  0  0  0  0  0
    7.7126  -21.0625   20.0269 C   0  0  0  0  0  0  0  0  0  0  0  0
    6.5862  -20.1383   20.1970 C   0  0  0  0  0  0  0  0  0  0  0  0
    6.3963  -19.5111   21.2532 O   0  0  0  0  0  0  0  0  0  0  0  0
    9.4328  -19.7690   21.1009 C   0  0  0  0  0  0  0  0  0  0  0  0
   10.1375  -19.6338   20.0780 O   0  0  0  0  0  0  0  0  0  0  0  0
    5.7303  -19.9962   19.1030 O   0  0  0  0  0  0  0  0  0  0  0  0
    6.6895  -12.3524   19.3169 N   0  0  0  0  0  0  0  0  0  0  0  0
    7.8687  -12.8284   18.6797 C   0  0  0  0  0  0  0  0  0  0  0  0
    8.1259  -12.5066   17.4505 N   0  0  0  0  0  0  0  0  0  0  0  0
    8.8230  -13.6776   19.3463 N   0  0  0  0  0  0  0  0  0  0  0  0
    8.4466  -14.3976   20.5261 C   0  0  0  0  0  0  0  0  0  0  0  0
    9.6712  -15.2581   20.9278 C   0  0  0  0  0  0  0  0  0  0  0  0
    9.1094  -16.5188   21.4743 C   0  0  0  0  0  0  0  0  0  0  0  0
   10.1309  -17.5462   21.8686 C   0  0  2  0  0  0  0  0  0  0  0  0
    9.3803  -18.7744   22.0838 N   0  0  0  0  0  0  0  0  0  0  0  0
   10.7734  -17.1174   23.1462 C   0  0  0  0  0  0  0  0  0  0  0  0
   10.1870  -17.4160   24.1971 O   0  0  0  0  0  0  0  0  0  0  0  0
    8.9998  -12.8677   17.0326 N   0  0  0  0  0  0  0  0  0  0  0  0
   13.2276  -21.6752   24.5505 C   0  0  0  0  0  0  0  0  0  0  0  0
   13.7721  -20.4450   24.9845 O   0  0  0  0  0  0  0  0  0  0  0  0
   14.9503  -20.4059   25.4922 C   0  0  0  0  0  0  0  0  0  0  0  0
   13.0269  -19.1977   24.8652 C   0  0  0  0  0  0  0  0  0  0  0  0
   13.2515  -18.3982   23.6309 C   0  0  2  0  0  0  0  0  0  0  0  0
   13.1604  -16.9429   23.8083 N   0  0  0  0  0  0  0  0  0  0  0  0
   11.9919  -16.4074   23.1089 C   0  0  0  0  0  0  0  0  0  0  0  0
   14.2914  -16.0719   23.5352 O   0  0  0  0  0  0  0  0  0  0  0  0
   15.2907  -15.8731   24.5103 O   0  0  0  0  0  0  0  0  0  0  0  0
  2  3  1  0
  2  1  1  1
  4  8  1  0
  4  3  1  0
  5  4  2  0
  6  2  1  0
  7  6  2  0
 10  9  1  0
 10 12  1  0
 11 10  2  0
 13 12  1  0
 13 14  1  0
 15 14  1  0
 16 15  1  1
 16 17  1  0
 17  6  1  0
 18 19  2  0
 18 16  1  0
 21 22  2  0
 21 20  1  0
 23 21  1  0
 24 23  1  0
 25 24  1  1
 25 26  1  0
 26 18  1  0
 27 28  1  0
 27 25  1  0
 29 27  2  0
M  END
$$$$
