DRQ.pdb
     RDKit          3D

 29 28  0  0  1  0  0  0  0  0999 V2000
   13.0348  -15.3521   17.3242 N   0  0  0  0  0  0  0  0  0  0  0  0
   13.8616  -14.9374   18.4152 C   0  0  1  0  0  0  0  0  0  0  0  0
   14.4811  -13.5551   18.1511 C   0  0  0  0  0  0  0  0  0  0  0  0
   15.4061  -13.6055   17.0138 C   0  0  0  0  0  0  0  0  0  0  0  0
   15.3839  -12.7603   16.1026 O   0  0  0  0  0  0  0  0  0  0  0  0
   13.1364  -14.8128   19.6989 C   0  0  0  0  0  0  0  0  0  0  0  0
   13.7844  -14.4624   20.7082 O   0  0  0  0  0  0  0  0  0  0  0  0
   16.3219  -14.6595   17.0057 O   0  0  0  0  0  0  0  0  0  0  0  0
    8.1579  -12.7762   17.1785 N   0  0  0  0  0  0  0  0  0  0  0  0
    7.8545  -14.1596   17.3097 C   0  0  0  0  0  0  0  0  0  0  0  0
    7.8519  -14.9324   16.2687 N   0  0  0  0  0  0  0  0  0  0  0  0
    7.5379  -14.7687   18.5765 N   0  0  0  0  0  0  0  0  0  0  0  0
    7.5759  -13.9918   19.7794 C   0  0  0  0  0  0  0  0  0  0  0  0
    9.0685  -13.6815   20.0576 C   0  0  0  0  0  0  0  0  0  0  0  0
    9.6138  -14.8998   20.7072 C   0  0  0  0  0  0  0  0  0  0  0  0
   11.0781  -14.8396   21.0332 C   0  0  2  0  0  0  0  0  0  0  0  0
   11.7647  -15.0795   19.7726 N   0  0  0  0  0  0  0  0  0  0  0  0
   11.3995  -15.9324   21.9984 C   0  0  0  0  0  0  0  0  0  0  0  0
   11.2370  -17.0962   21.6029 O   0  0  0  0  0  0  0  0  0  0  0  0
    7.6643  -15.9381   16.4179 N   0  0  0  0  0  0  0  0  0  0  0  0
   16.5682  -17.7261   22.4099 C   0  0  0  0  0  0  0  0  0  0  0  0
   15.7507  -17.2701   23.4692 O   0  0  0  0  0  0  0  0  0  0  0  0
   16.2581  -17.0596   24.6292 C   0  0  0  0  0  0  0  0  0  0  0  0
   14.3268  -17.0212   23.2797 C   0  0  0  0  0  0  0  0  0  0  0  0
   13.4989  -16.8958   24.5094 C   0  0  2  0  0  0  0  0  0  0  0  0
   12.0666  -16.6706   24.2736 N   0  0  0  0  0  0  0  0  0  0  0  0
   11.8640  -15.6064   23.2900 C   0  0  0  0  0  0  0  0  0  0  0  0
   11.1404  -16.4552   25.3727 O   0  0  0  0  0  0  0  0  0  0  0  0
   10.2547  -15.3579   25.3550 O   0  0  0  0  0  0  0  0  0  0  0  0
  2  3  1  0
  2  1  1  6
  4  8  1  0
  4  3  1  0
  5  4  2  0
  6  2  1  0
  7  6  2  0
 10  9  1  0
 10 12  1  0
 11 10  2  0
 13 12  1  0
 13 14  1  0
 15 14  1  0
 16 15  1  6
 16 17  1  0
 17  6  1  0
 18 19  2  0
 18 16  1  0
 21 22  2  0
 21 20  1  0
 23 21  1  0
 24 23  1  0
 25 24  1  6
 25 26  1  0
 26 18  1  0
 27 28  1  0
 27 25  1  0
 29 27  2  0
M  END
$$$$
