DRQ.pdb
     RDKit          3D

 29 28  0  0  1  0  0  0  0  0999 V2000
    6.2114  -21.5259   22.3168 N   0  0  0  0  0  0  0  0  0  0  0  0
    5.8555  -20.3364   23.0271 C   0  0  1  0  0  0  0  0  0  0  0  0
    5.7200  -20.6067   24.5347 C   0  0  0  0  0  0  0  0  0  0  0  0
    4.8013  -21.7225   24.7852 C   0  0  0  0  0  0  0  0  0  0  0  0
    3.6527  -21.7553   24.3111 O   0  0  0  0  0  0  0  0  0  0  0  0
    6.8501  -19.2480   22.9029 C   0  0  0  0  0  0  0  0  0  0  0  0
    8.0615  -19.5526   22.9351 O   0  0  0  0  0  0  0  0  0  0  0  0
    5.2858  -22.7559   25.5895 O   0  0  0  0  0  0  0  0  0  0  0  0
    8.0154  -11.7238   18.7779 N   0  0  0  0  0  0  0  0  0  0  0  0
    7.8307  -13.0867   18.4154 C   0  0  0  0  0  0  0  0  0  0  0  0
    8.2314  -13.5187   17.2606 N   0  0  0  0  0  0  0  0  0  0  0  0
    7.2006  -14.0442   19.2886 N   0  0  0  0  0  0  0  0  0  0  0  0
    6.8812  -13.6875   20.6387 C   0  0  0  0  0  0  0  0  0  0  0  0
    7.7067  -14.6294   21.5513 C   0  0  0  0  0  0  0  0  0  0  0  0
    6.8289  -15.7969   21.8159 C   0  0  0  0  0  0  0  0  0  0  0  0
    7.4578  -16.8865   22.6354 C   0  0  2  0  0  0  0  0  0  0  0  0
    6.4388  -17.9190   22.7523 N   0  0  0  0  0  0  0  0  0  0  0  0
    7.7820  -16.3426   23.9875 C   0  0  0  0  0  0  0  0  0  0  0  0
    6.8646  -16.3282   24.8213 O   0  0  0  0  0  0  0  0  0  0  0  0
    8.0476  -14.5092   17.0284 N   0  0  0  0  0  0  0  0  0  0  0  0
    8.0066  -19.8263   27.3059 C   0  0  0  0  0  0  0  0  0  0  0  0
    8.8172  -18.9521   28.0654 O   0  0  0  0  0  0  0  0  0  0  0  0
    9.0650  -19.2116   29.2977 C   0  0  0  0  0  0  0  0  0  0  0  0
    9.3954  -17.7483   27.4806 C   0  0  0  0  0  0  0  0  0  0  0  0
    9.1205  -17.5048   26.0390 C   0  0  2  0  0  0  0  0  0  0  0  0
    9.7701  -16.3141   25.4752 N   0  0  0  0  0  0  0  0  0  0  0  0
    9.0867  -15.8785   24.2568 C   0  0  0  0  0  0  0  0  0  0  0  0
   11.2024  -16.2737   25.2315 O   0  0  0  0  0  0  0  0  0  0  0  0
   11.7132  -16.5089   23.9383 O   0  0  0  0  0  0  0  0  0  0  0  0
  2  3  1  0
  2  1  1  6
  4  8  1  0
  4  3  1  0
  5  4  2  0
  6  2  1  0
  7  6  2  0
 10  9  1  0
 10 12  1  0
 11 10  2  0
 13 12  1  0
 13 14  1  0
 15 14  1  0
 16 15  1  6
 16 17  1  0
 17  6  1  0
 18 19  2  0
 18 16  1  0
 21 22  2  0
 21 20  1  0
 23 21  1  0
 24 23  1  0
 25 24  1  1
 25 26  1  0
 26 18  1  0
 27 28  1  0
 27 25  1  0
 29 27  2  0
M  END
$$$$
