DRQ.pdb
     RDKit          3D

 29 28  0  0  1  0  0  0  0  0999 V2000
    6.4177  -22.2250   17.8299 N   0  0  0  0  0  0  0  0  0  0  0  0
    7.4075  -21.2465   17.5001 C   0  0  1  0  0  0  0  0  0  0  0  0
    6.9272  -19.8281   17.8485 C   0  0  0  0  0  0  0  0  0  0  0  0
    5.6192  -19.5557   17.2429 C   0  0  0  0  0  0  0  0  0  0  0  0
    5.0301  -20.3893   16.5335 O   0  0  0  0  0  0  0  0  0  0  0  0
    8.6863  -21.4253   18.2227 C   0  0  0  0  0  0  0  0  0  0  0  0
    8.7492  -22.3193   19.0933 O   0  0  0  0  0  0  0  0  0  0  0  0
    5.0632  -18.3022   17.5059 O   0  0  0  0  0  0  0  0  0  0  0  0
   16.9617  -20.8521   17.9872 N   0  0  0  0  0  0  0  0  0  0  0  0
   16.3081  -21.3779   16.8387 C   0  0  0  0  0  0  0  0  0  0  0  0
   16.8521  -22.3356   16.1548 N   0  0  0  0  0  0  0  0  0  0  0  0
   15.0340  -20.8877   16.3774 N   0  0  0  0  0  0  0  0  0  0  0  0
   14.3868  -19.8079   17.0609 C   0  0  0  0  0  0  0  0  0  0  0  0
   13.5002  -20.4484   18.1587 C   0  0  0  0  0  0  0  0  0  0  0  0
   12.1109  -20.3756   17.6406 C   0  0  0  0  0  0  0  0  0  0  0  0
   11.0630  -20.9237   18.5656 C   0  0  2  0  0  0  0  0  0  0  0  0
    9.7894  -20.6145   17.9327 N   0  0  0  0  0  0  0  0  0  0  0  0
   11.1609  -20.2135   19.8752 C   0  0  0  0  0  0  0  0  0  0  0  0
   10.9692  -18.9885   19.8650 O   0  0  0  0  0  0  0  0  0  0  0  0
   16.3371  -22.6900   15.3314 N   0  0  0  0  0  0  0  0  0  0  0  0
   11.3848  -20.9767   27.2639 C   0  0  0  0  0  0  0  0  0  0  0  0
   11.4116  -21.4618   25.9364 O   0  0  0  0  0  0  0  0  0  0  0  0
   11.3977  -22.7255   25.7125 C   0  0  0  0  0  0  0  0  0  0  0  0
   11.4483  -20.5558   24.7949 C   0  0  0  0  0  0  0  0  0  0  0  0
   11.3855  -21.1764   23.4443 C   0  0  2  0  0  0  0  0  0  0  0  0
   11.5741  -20.2457   22.3236 N   0  0  0  0  0  0  0  0  0  0  0  0
   11.4597  -20.9454   21.0436 C   0  0  0  0  0  0  0  0  0  0  0  0
   12.7253  -19.3611   22.2562 O   0  0  0  0  0  0  0  0  0  0  0  0
   12.5819  -18.0372   21.7919 O   0  0  0  0  0  0  0  0  0  0  0  0
  2  3  1  0
  2  1  1  1
  4  8  1  0
  4  3  1  0
  5  4  2  0
  6  2  1  0
  7  6  2  0
 10  9  1  0
 10 12  1  0
 11 10  2  0
 13 12  1  0
 13 14  1  0
 15 14  1  0
 16 15  1  6
 16 17  1  0
 17  6  1  0
 18 19  2  0
 18 16  1  0
 21 22  2  0
 21 20  1  0
 23 21  1  0
 24 23  1  0
 25 24  1  6
 25 26  1  0
 26 18  1  0
 27 28  1  0
 27 25  1  0
 29 27  2  0
M  END
$$$$
