DRQ.pdb
     RDKit          3D

 29 28  0  0  1  0  0  0  0  0999 V2000
   14.1180  -17.2107   20.2169 N   0  0  0  0  0  0  0  0  0  0  0  0
   14.2419  -15.9551   20.8907 C   0  0  1  0  0  0  0  0  0  0  0  0
   14.3218  -14.7907   19.8897 C   0  0  0  0  0  0  0  0  0  0  0  0
   15.5205  -14.9032   19.0517 C   0  0  0  0  0  0  0  0  0  0  0  0
   16.5361  -15.5147   19.4253 O   0  0  0  0  0  0  0  0  0  0  0  0
   13.1021  -15.6412   21.7804 C   0  0  0  0  0  0  0  0  0  0  0  0
   13.1072  -14.5429   22.3764 O   0  0  0  0  0  0  0  0  0  0  0  0
   15.4632  -14.2841   17.8014 O   0  0  0  0  0  0  0  0  0  0  0  0
    6.6984  -20.7904   20.3991 N   0  0  0  0  0  0  0  0  0  0  0  0
    7.9807  -21.2791   20.7732 C   0  0  0  0  0  0  0  0  0  0  0  0
    8.2528  -22.5434   20.6836 N   0  0  0  0  0  0  0  0  0  0  0  0
    9.0271  -20.4186   21.2639 N   0  0  0  0  0  0  0  0  0  0  0  0
    8.7622  -19.0336   21.5165 C   0  0  0  0  0  0  0  0  0  0  0  0
   10.0800  -18.4236   22.0577 C   0  0  0  0  0  0  0  0  0  0  0  0
    9.7751  -16.9967   22.3307 C   0  0  0  0  0  0  0  0  0  0  0  0
   10.9422  -16.1825   22.8096 C   0  0  2  0  0  0  0  0  0  0  0  0
   12.0519  -16.5515   21.9434 N   0  0  0  0  0  0  0  0  0  0  0  0
   11.2512  -16.5701   24.2179 C   0  0  0  0  0  0  0  0  0  0  0  0
   12.2284  -17.3128   24.3940 O   0  0  0  0  0  0  0  0  0  0  0  0
    9.1898  -22.8556   20.9892 N   0  0  0  0  0  0  0  0  0  0  0  0
    9.3073  -13.3558   29.2793 C   0  0  0  0  0  0  0  0  0  0  0  0
    9.2907  -13.1770   27.8772 O   0  0  0  0  0  0  0  0  0  0  0  0
    8.8807  -12.0696   27.3743 C   0  0  0  0  0  0  0  0  0  0  0  0
    9.7384  -14.2267   26.9700 C   0  0  0  0  0  0  0  0  0  0  0  0
   10.2735  -15.4674   27.5925 C   0  0  2  0  0  0  0  0  0  0  0  0
   10.7250  -16.4938   26.6435 N   0  0  0  0  0  0  0  0  0  0  0  0
   10.4402  -16.0882   25.2668 C   0  0  0  0  0  0  0  0  0  0  0  0
   10.3437  -17.8881   26.7942 O   0  0  0  0  0  0  0  0  0  0  0  0
   10.7298  -18.6137   27.9402 O   0  0  0  0  0  0  0  0  0  0  0  0
  2  3  1  0
  2  1  1  6
  4  8  1  0
  4  3  1  0
  5  4  2  0
  6  2  1  0
  7  6  2  0
 10  9  1  0
 10 12  1  0
 11 10  2  0
 13 12  1  0
 13 14  1  0
 15 14  1  0
 16 15  1  6
 16 17  1  0
 17  6  1  0
 18 19  2  0
 18 16  1  0
 21 22  2  0
 21 20  1  0
 23 21  1  0
 24 23  1  0
 25 24  1  6
 25 26  1  0
 26 18  1  0
 27 28  1  0
 27 25  1  0
 29 27  2  0
M  END
$$$$
