DRQ.pdb
     RDKit          3D

 29 28  0  0  1  0  0  0  0  0999 V2000
   11.6013  -19.5982   18.3076 N   0  0  0  0  0  0  0  0  0  0  0  0
   12.6610  -18.7684   18.7918 C   0  0  1  0  0  0  0  0  0  0  0  0
   13.1840  -17.8322   17.6898 C   0  0  0  0  0  0  0  0  0  0  0  0
   14.1653  -18.5189   16.8429 C   0  0  0  0  0  0  0  0  0  0  0  0
   14.0471  -19.7152   16.5268 O   0  0  0  0  0  0  0  0  0  0  0  0
   12.2634  -17.8865   19.9114 C   0  0  0  0  0  0  0  0  0  0  0  0
   13.1442  -17.1756   20.4407 O   0  0  0  0  0  0  0  0  0  0  0  0
   15.2488  -17.7547   16.4049 O   0  0  0  0  0  0  0  0  0  0  0  0
    7.6031  -12.1532   21.9560 N   0  0  0  0  0  0  0  0  0  0  0  0
    7.7676  -12.8589   20.7322 C   0  0  0  0  0  0  0  0  0  0  0  0
    7.9991  -12.2165   19.6302 N   0  0  0  0  0  0  0  0  0  0  0  0
    7.6867  -14.2950   20.6468 N   0  0  0  0  0  0  0  0  0  0  0  0
    7.3733  -15.0698   21.8102 C   0  0  0  0  0  0  0  0  0  0  0  0
    8.7174  -15.6237   22.3470 C   0  0  0  0  0  0  0  0  0  0  0  0
    9.3002  -16.4066   21.2284 C   0  0  0  0  0  0  0  0  0  0  0  0
   10.6207  -17.0535   21.5317 C   0  0  2  0  0  0  0  0  0  0  0  0
   10.9376  -17.8533   20.3577 N   0  0  0  0  0  0  0  0  0  0  0  0
   10.4567  -17.9437   22.7190 C   0  0  0  0  0  0  0  0  0  0  0  0
    9.6337  -18.8657   22.6198 O   0  0  0  0  0  0  0  0  0  0  0  0
    8.1456  -12.7734   18.7716 N   0  0  0  0  0  0  0  0  0  0  0  0
   13.9143  -21.9725   26.6903 C   0  0  0  0  0  0  0  0  0  0  0  0
   13.5619  -20.6513   27.0487 O   0  0  0  0  0  0  0  0  0  0  0  0
   14.3614  -19.9423   27.7597 C   0  0  0  0  0  0  0  0  0  0  0  0
   12.3005  -20.0572   26.6230 C   0  0  0  0  0  0  0  0  0  0  0  0
   12.3323  -19.2313   25.3861 C   0  0  1  0  0  0  0  0  0  0  0  0
   11.0621  -18.5785   25.0422 N   0  0  0  0  0  0  0  0  0  0  0  0
   11.2254  -17.7072   23.8780 C   0  0  0  0  0  0  0  0  0  0  0  0
   10.2812  -17.8640   26.0381 O   0  0  0  0  0  0  0  0  0  0  0  0
    9.3269  -18.5463   26.8208 O   0  0  0  0  0  0  0  0  0  0  0  0
  2  3  1  0
  2  1  1  6
  4  8  1  0
  4  3  1  0
  5  4  2  0
  6  2  1  0
  7  6  2  0
 10  9  1  0
 10 12  1  0
 11 10  2  0
 13 12  1  0
 13 14  1  0
 15 14  1  0
 16 15  1  6
 16 17  1  0
 17  6  1  0
 18 19  2  0
 18 16  1  0
 21 22  2  0
 21 20  1  0
 23 21  1  0
 24 23  1  0
 25 24  1  6
 25 26  1  0
 26 18  1  0
 27 28  1  0
 27 25  1  0
 29 27  2  0
M  END
$$$$
