HGD.pdb
     RDKit          3D

 23 23  0  0  1  0  0  0  0  0999 V2000
   21.5466  -12.5018  -18.0229 N   0  0  0  0  0  0  0  0  0  0  0  0
   20.1153  -12.4951  -18.2535 C   0  0  1  0  0  0  0  0  0  0  0  0
   19.5753  -13.7768  -17.6132 C   0  0  0  0  0  0  0  0  0  0  0  0
   20.1819  -14.9043  -18.3687 C   0  0  0  0  0  0  0  0  0  0  0  0
   21.0747  -15.8453  -17.8439 C   0  0  0  0  0  0  0  0  0  0  0  0
   21.4141  -16.7152  -18.8107 N   0  0  0  0  0  0  0  0  0  0  0  0
   20.7696  -16.3628  -19.9340 C   0  0  0  0  0  0  0  0  0  0  0  0
   20.0218  -15.2593  -19.6558 N   0  0  0  0  0  0  0  0  0  0  0  0
   19.4644  -11.2939  -17.7025 C   0  0  0  0  0  0  0  0  0  0  0  0
   18.2399  -11.1477  -17.8386 O   0  0  0  0  0  0  0  0  0  0  0  0
   20.2670  -10.3334  -17.0271 N   0  0  0  0  0  0  0  0  0  0  0  0
   19.6249   -9.1868  -16.4580 C   0  0  0  0  0  0  0  0  0  0  0  0
   20.6268   -8.3067  -15.7996 C   0  0  0  0  0  0  0  0  0  0  0  0
   21.5720   -8.8333  -15.1381 O   0  0  0  0  0  0  0  0  0  0  0  0
   20.5920   -6.9039  -15.8652 N   0  0  0  0  0  0  0  0  0  0  0  0
   21.5908   -6.0561  -15.2132 C   0  0  1  0  0  0  0  0  0  0  0  0
   21.2754   -4.6530  -15.6859 C   0  0  0  0  0  0  0  0  0  0  0  0
   22.2824   -3.6924  -15.2453 C   0  0  0  0  0  0  0  0  0  0  0  0
   23.4328   -4.0415  -14.8979 O   0  0  0  0  0  0  0  0  0  0  0  0
   21.4627   -6.0958  -13.7499 C   0  0  0  0  0  0  0  0  0  0  0  0
   20.4908   -6.7559  -13.0374 O   0  0  0  0  0  0  0  0  0  0  0  0
   21.9715   -2.3445  -15.2039 O   0  0  0  0  0  0  0  0  0  0  0  0
   22.3371   -5.4553  -13.0715 O   0  0  0  0  0  0  0  0  0  0  0  0
  2  1  1  1
  2  3  1  0
  4  3  1  0
  4  5  2  0
  6  5  1  0
  7  6  1  0
  8  7  2  0
  8  4  1  0
  9  2  1  0
  9 10  2  0
 11  9  1  0
 12 11  1  0
 12 13  1  0
 13 15  1  0
 14 13  2  0
 15 16  1  0
 16 17  1  6
 17 18  1  0
 18 22  1  0
 19 18  2  0
 20 16  1  0
 20 21  1  0
 23 20  2  0
M  END
$$$$
