HGD.pdb
     RDKit          3D

 23 23  0  0  1  0  0  0  0  0999 V2000
   20.9388  -17.4853  -17.1773 N   0  0  0  0  0  0  0  0  0  0  0  0
   21.0266  -16.6814  -15.9741 C   0  0  1  0  0  0  0  0  0  0  0  0
   22.2597  -17.1820  -15.2170 C   0  0  0  0  0  0  0  0  0  0  0  0
   22.0319  -18.6295  -14.9662 C   0  0  0  0  0  0  0  0  0  0  0  0
   21.0721  -19.1613  -14.0979 C   0  0  0  0  0  0  0  0  0  0  0  0
   21.1522  -20.5027  -14.1235 N   0  0  0  0  0  0  0  0  0  0  0  0
   22.1291  -20.8462  -14.9773 C   0  0  0  0  0  0  0  0  0  0  0  0
   22.6593  -19.6995  -15.4857 N   0  0  0  0  0  0  0  0  0  0  0  0
   21.1145  -15.2406  -16.2678 C   0  0  0  0  0  0  0  0  0  0  0  0
   21.4439  -14.4539  -15.3667 O   0  0  0  0  0  0  0  0  0  0  0  0
   20.8167  -14.7944  -17.5851 N   0  0  0  0  0  0  0  0  0  0  0  0
   20.9385  -13.3976  -17.8762 C   0  0  0  0  0  0  0  0  0  0  0  0
   19.7341  -12.6640  -17.4037 C   0  0  0  0  0  0  0  0  0  0  0  0
   18.6804  -13.3156  -17.1327 O   0  0  0  0  0  0  0  0  0  0  0  0
   19.6888  -11.2700  -17.2355 N   0  0  0  0  0  0  0  0  0  0  0  0
   18.4929  -10.5677  -16.7689 C   0  0  1  0  0  0  0  0  0  0  0  0
   19.0190   -9.3472  -16.0441 C   0  0  0  0  0  0  0  0  0  0  0  0
   17.9373   -8.4929  -15.5633 C   0  0  0  0  0  0  0  0  0  0  0  0
   16.9789   -8.9403  -14.8945 O   0  0  0  0  0  0  0  0  0  0  0  0
   17.6555  -10.1200  -17.8903 C   0  0  0  0  0  0  0  0  0  0  0  0
   16.3120   -9.8366  -17.8381 O   0  0  0  0  0  0  0  0  0  0  0  0
   17.9560   -7.1387  -15.8476 O   0  0  0  0  0  0  0  0  0  0  0  0
   18.2283   -9.9804  -19.0249 O   0  0  0  0  0  0  0  0  0  0  0  0
  2  1  1  6
  2  3  1  0
  4  3  1  0
  4  5  2  0
  6  5  1  0
  7  6  1  0
  8  7  2  0
  8  4  1  0
  9  2  1  0
  9 10  2  0
 11  9  1  0
 12 11  1  0
 12 13  1  0
 13 15  1  0
 14 13  2  0
 15 16  1  0
 16 17  1  6
 17 18  1  0
 18 22  1  0
 19 18  2  0
 20 16  1  0
 20 21  1  0
 23 20  2  0
M  END
$$$$
