HGD.pdb
     RDKit          3D

 23 23  0  0  1  0  0  0  0  0999 V2000
   19.2402  -11.0350  -16.3482 N   0  0  0  0  0  0  0  0  0  0  0  0
   20.4513  -11.5480  -16.9580 C   0  0  1  0  0  0  0  0  0  0  0  0
   20.0085  -12.6591  -17.9138 C   0  0  0  0  0  0  0  0  0  0  0  0
   19.4215  -13.7276  -17.0630 C   0  0  0  0  0  0  0  0  0  0  0  0
   20.0946  -14.8696  -16.6152 C   0  0  0  0  0  0  0  0  0  0  0  0
   19.2552  -15.6105  -15.8715 N   0  0  0  0  0  0  0  0  0  0  0  0
   18.0702  -14.9819  -15.8286 C   0  0  0  0  0  0  0  0  0  0  0  0
   18.1805  -13.8364  -16.5567 N   0  0  0  0  0  0  0  0  0  0  0  0
   21.2146  -10.4995  -17.6566 C   0  0  0  0  0  0  0  0  0  0  0  0
   22.3082  -10.7818  -18.1703 O   0  0  0  0  0  0  0  0  0  0  0  0
   20.6692   -9.1875  -17.7201 N   0  0  0  0  0  0  0  0  0  0  0  0
   21.4554   -8.1499  -18.3168 C   0  0  0  0  0  0  0  0  0  0  0  0
   21.5070   -6.9618  -17.4237 C   0  0  0  0  0  0  0  0  0  0  0  0
   22.1180   -5.9213  -17.8139 O   0  0  0  0  0  0  0  0  0  0  0  0
   20.9110   -6.9182  -16.1522 N   0  0  0  0  0  0  0  0  0  0  0  0
   20.9464   -5.7278  -15.3021 C   0  0  1  0  0  0  0  0  0  0  0  0
   19.5473   -5.6155  -14.7349 C   0  0  0  0  0  0  0  0  0  0  0  0
   18.5706   -5.2699  -15.7633 C   0  0  0  0  0  0  0  0  0  0  0  0
   18.6427   -4.2102  -16.4249 O   0  0  0  0  0  0  0  0  0  0  0  0
   21.8908   -5.8862  -14.1874 C   0  0  0  0  0  0  0  0  0  0  0  0
   22.2282   -4.9242  -13.2660 O   0  0  0  0  0  0  0  0  0  0  0  0
   17.5216   -6.1325  -16.0292 O   0  0  0  0  0  0  0  0  0  0  0  0
   22.4549   -7.0265  -14.0602 O   0  0  0  0  0  0  0  0  0  0  0  0
  2  1  1  6
  2  3  1  0
  4  3  1  0
  4  5  2  0
  6  5  1  0
  7  6  1  0
  8  7  2  0
  8  4  1  0
  9  2  1  0
  9 10  2  0
 11  9  1  0
 12 11  1  0
 12 13  1  0
 13 15  1  0
 14 13  2  0
 15 16  1  0
 16 17  1  1
 17 18  1  0
 18 22  1  0
 19 18  2  0
 20 16  1  0
 20 21  1  0
 23 20  2  0
M  END
$$$$
