HGD.pdb
     RDKit          3D

 23 23  0  0  1  0  0  0  0  0999 V2000
   25.0755  -18.2260  -17.4884 N   0  0  0  0  0  0  0  0  0  0  0  0
   25.4278  -18.3626  -16.0888 C   0  0  1  0  0  0  0  0  0  0  0  0
   26.3473  -17.1822  -15.7644 C   0  0  0  0  0  0  0  0  0  0  0  0
   27.5305  -17.3227  -16.6534 C   0  0  0  0  0  0  0  0  0  0  0  0
   28.3330  -18.4638  -16.7616 C   0  0  0  0  0  0  0  0  0  0  0  0
   29.3072  -18.2319  -17.6582 N   0  0  0  0  0  0  0  0  0  0  0  0
   29.1550  -16.9833  -18.1261 C   0  0  0  0  0  0  0  0  0  0  0  0
   28.0709  -16.4370  -17.5089 N   0  0  0  0  0  0  0  0  0  0  0  0
   24.2437  -18.3886  -15.2127 C   0  0  0  0  0  0  0  0  0  0  0  0
   23.3559  -17.5350  -15.3627 O   0  0  0  0  0  0  0  0  0  0  0  0
   24.1559  -19.3992  -14.2158 N   0  0  0  0  0  0  0  0  0  0  0  0
   23.0726  -19.3430  -13.2809 C   0  0  0  0  0  0  0  0  0  0  0  0
   22.0851  -20.4172  -13.5687 C   0  0  0  0  0  0  0  0  0  0  0  0
   22.2716  -21.1770  -14.5668 O   0  0  0  0  0  0  0  0  0  0  0  0
   20.9381  -20.6479  -12.7910 N   0  0  0  0  0  0  0  0  0  0  0  0
   20.0172  -21.7556  -13.0482 C   0  0  1  0  0  0  0  0  0  0  0  0
   19.6763  -22.3015  -11.6780 C   0  0  0  0  0  0  0  0  0  0  0  0
   18.8696  -23.5152  -11.7623 C   0  0  0  0  0  0  0  0  0  0  0  0
   18.5799  -24.0510  -12.8554 O   0  0  0  0  0  0  0  0  0  0  0  0
   18.7780  -21.2924  -13.6879 C   0  0  0  0  0  0  0  0  0  0  0  0
   18.0167  -21.9973  -14.5888 O   0  0  0  0  0  0  0  0  0  0  0  0
   18.4001  -24.1075  -10.6030 O   0  0  0  0  0  0  0  0  0  0  0  0
   18.3663  -20.1219  -13.3796 O   0  0  0  0  0  0  0  0  0  0  0  0
  2  1  1  6
  2  3  1  0
  4  3  1  0
  4  5  2  0
  6  5  1  0
  7  6  1  0
  8  7  2  0
  8  4  1  0
  9  2  1  0
  9 10  2  0
 11  9  1  0
 12 11  1  0
 12 13  1  0
 13 15  1  0
 14 13  2  0
 15 16  1  0
 16 17  1  1
 17 18  1  0
 18 22  1  0
 19 18  2  0
 20 16  1  0
 20 21  1  0
 23 20  2  0
M  END
$$$$
