HGD.pdb
     RDKit          3D

 23 23  0  0  1  0  0  0  0  0999 V2000
   22.2477  -19.4836  -16.3676 N   0  0  0  0  0  0  0  0  0  0  0  0
   22.6368  -18.2326  -15.7467 C   0  0  1  0  0  0  0  0  0  0  0  0
   22.7289  -17.2063  -16.8791 C   0  0  0  0  0  0  0  0  0  0  0  0
   23.8058  -17.6851  -17.7852 C   0  0  0  0  0  0  0  0  0  0  0  0
   25.1794  -17.5743  -17.5424 C   0  0  0  0  0  0  0  0  0  0  0  0
   25.8523  -18.1135  -18.5734 N   0  0  0  0  0  0  0  0  0  0  0  0
   24.9570  -18.5646  -19.4657 C   0  0  0  0  0  0  0  0  0  0  0  0
   23.7136  -18.2996  -18.9778 N   0  0  0  0  0  0  0  0  0  0  0  0
   21.6903  -17.8078  -14.7010 C   0  0  0  0  0  0  0  0  0  0  0  0
   21.8446  -16.7067  -14.1503 O   0  0  0  0  0  0  0  0  0  0  0  0
   20.6220  -18.6802  -14.3537 N   0  0  0  0  0  0  0  0  0  0  0  0
   19.6958  -18.2575  -13.3466 C   0  0  0  0  0  0  0  0  0  0  0  0
   18.6104  -19.2619  -13.1881 C   0  0  0  0  0  0  0  0  0  0  0  0
   17.6839  -19.0436  -12.3503 O   0  0  0  0  0  0  0  0  0  0  0  0
   18.5453  -20.4587  -13.9210 N   0  0  0  0  0  0  0  0  0  0  0  0
   17.4867  -21.4498  -13.7254 C   0  0  1  0  0  0  0  0  0  0  0  0
   17.9277  -22.2547  -12.5216 C   0  0  0  0  0  0  0  0  0  0  0  0
   18.9481  -23.2386  -12.8705 C   0  0  0  0  0  0  0  0  0  0  0  0
   19.3733  -24.0812  -12.0488 O   0  0  0  0  0  0  0  0  0  0  0  0
   16.1992  -20.8130  -13.4152 C   0  0  0  0  0  0  0  0  0  0  0  0
   14.9598  -21.2487  -13.8179 O   0  0  0  0  0  0  0  0  0  0  0  0
   19.4751  -23.2547  -14.1500 O   0  0  0  0  0  0  0  0  0  0  0  0
   16.2315  -19.7514  -12.7033 O   0  0  0  0  0  0  0  0  0  0  0  0
  2  1  1  6
  2  3  1  0
  4  3  1  0
  4  5  2  0
  6  5  1  0
  7  6  1  0
  8  7  2  0
  8  4  1  0
  9  2  1  0
  9 10  2  0
 11  9  1  0
 12 11  1  0
 12 13  1  0
 13 15  1  0
 14 13  2  0
 15 16  1  0
 16 17  1  1
 17 18  1  0
 18 22  1  0
 19 18  2  0
 20 16  1  0
 20 21  1  0
 23 20  2  0
M  END
$$$$
