HGD.pdb
     RDKit          3D

 23 23  0  0  1  0  0  0  0  0999 V2000
   23.4347  -21.4282  -14.5868 N   0  0  0  0  0  0  0  0  0  0  0  0
   23.8108  -20.1753  -13.9621 C   0  0  1  0  0  0  0  0  0  0  0  0
   23.6027  -19.0914  -15.0233 C   0  0  0  0  0  0  0  0  0  0  0  0
   24.5137  -19.4323  -16.1475 C   0  0  0  0  0  0  0  0  0  0  0  0
   24.1124  -19.9000  -17.4037 C   0  0  0  0  0  0  0  0  0  0  0  0
   25.2014  -20.1019  -18.1653 N   0  0  0  0  0  0  0  0  0  0  0  0
   26.2835  -19.7798  -17.4398 C   0  0  0  0  0  0  0  0  0  0  0  0
   25.8556  -19.3731  -16.2125 N   0  0  0  0  0  0  0  0  0  0  0  0
   23.0319  -19.9012  -12.7422 C   0  0  0  0  0  0  0  0  0  0  0  0
   23.1189  -18.7882  -12.2008 O   0  0  0  0  0  0  0  0  0  0  0  0
   22.1988  -20.9291  -12.2205 N   0  0  0  0  0  0  0  0  0  0  0  0
   21.4428  -20.6587  -11.0347 C   0  0  0  0  0  0  0  0  0  0  0  0
   20.6006  -21.8320  -10.6797 C   0  0  0  0  0  0  0  0  0  0  0  0
   20.0293  -22.4851  -11.6044 O   0  0  0  0  0  0  0  0  0  0  0  0
   20.3941  -22.2705   -9.3611 N   0  0  0  0  0  0  0  0  0  0  0  0
   19.4943  -23.3747   -9.0260 C   0  0  1  0  0  0  0  0  0  0  0  0
   19.5682  -23.4903   -7.5184 C   0  0  0  0  0  0  0  0  0  0  0  0
   18.8723  -24.6770   -7.0301 C   0  0  0  0  0  0  0  0  0  0  0  0
   18.3216  -25.4941   -7.8015 O   0  0  0  0  0  0  0  0  0  0  0  0
   18.1061  -23.0759   -9.4040 C   0  0  0  0  0  0  0  0  0  0  0  0
   17.4685  -21.8668   -9.2635 O   0  0  0  0  0  0  0  0  0  0  0  0
   18.8094  -24.9229   -5.6697 O   0  0  0  0  0  0  0  0  0  0  0  0
   17.4230  -24.0299   -9.9119 O   0  0  0  0  0  0  0  0  0  0  0  0
  2  1  1  6
  2  3  1  0
  4  3  1  0
  4  5  2  0
  6  5  1  0
  7  6  1  0
  8  7  2  0
  8  4  1  0
  9  2  1  0
  9 10  2  0
 11  9  1  0
 12 11  1  0
 12 13  1  0
 13 15  1  0
 14 13  2  0
 15 16  1  0
 16 17  1  1
 17 18  1  0
 18 22  1  0
 19 18  2  0
 20 16  1  0
 20 21  1  0
 23 20  2  0
M  END
$$$$
