HGD.pdb
     RDKit          3D

 23 23  0  0  1  0  0  0  0  0999 V2000
   19.1563  -13.0690  -15.8602 N   0  0  0  0  0  0  0  0  0  0  0  0
   18.0146  -12.7002  -16.6739 C   0  0  1  0  0  0  0  0  0  0  0  0
   16.7755  -13.1636  -15.9032 C   0  0  0  0  0  0  0  0  0  0  0  0
   16.8914  -14.6408  -15.7828 C   0  0  0  0  0  0  0  0  0  0  0  0
   16.4622  -15.5689  -16.7380 C   0  0  0  0  0  0  0  0  0  0  0  0
   16.7266  -16.8097  -16.2942 N   0  0  0  0  0  0  0  0  0  0  0  0
   17.3094  -16.7067  -15.0897 C   0  0  0  0  0  0  0  0  0  0  0  0
   17.4058  -15.3827  -14.7861 N   0  0  0  0  0  0  0  0  0  0  0  0
   17.9718  -11.2552  -16.9574 C   0  0  0  0  0  0  0  0  0  0  0  0
   17.0659  -10.8013  -17.6735 O   0  0  0  0  0  0  0  0  0  0  0  0
   18.9781  -10.4209  -16.3970 N   0  0  0  0  0  0  0  0  0  0  0  0
   18.8620   -9.0037  -16.5667 C   0  0  0  0  0  0  0  0  0  0  0  0
   19.9298   -8.3026  -15.8050 C   0  0  0  0  0  0  0  0  0  0  0  0
   20.5669   -8.9349  -14.9092 O   0  0  0  0  0  0  0  0  0  0  0  0
   20.2838   -6.9599  -16.0187 N   0  0  0  0  0  0  0  0  0  0  0  0
   21.4058   -6.3185  -15.3325 C   0  0  1  0  0  0  0  0  0  0  0  0
   21.4645   -4.9204  -15.9101 C   0  0  0  0  0  0  0  0  0  0  0  0
   22.5948   -4.1620  -15.3825 C   0  0  0  0  0  0  0  0  0  0  0  0
   23.4044   -4.6512  -14.5633 O   0  0  0  0  0  0  0  0  0  0  0  0
   21.1691   -6.2166  -13.8858 C   0  0  0  0  0  0  0  0  0  0  0  0
   22.0736   -6.5055  -12.8926 O   0  0  0  0  0  0  0  0  0  0  0  0
   22.7933   -2.8549  -15.7916 O   0  0  0  0  0  0  0  0  0  0  0  0
   20.0117   -5.8224  -13.5118 O   0  0  0  0  0  0  0  0  0  0  0  0
  2  1  1  1
  2  3  1  0
  4  3  1  0
  4  5  2  0
  6  5  1  0
  7  6  1  0
  8  7  2  0
  8  4  1  0
  9  2  1  0
  9 10  2  0
 11  9  1  0
 12 11  1  0
 12 13  1  0
 13 15  1  0
 14 13  2  0
 15 16  1  0
 16 17  1  6
 17 18  1  0
 18 22  1  0
 19 18  2  0
 20 16  1  0
 20 21  1  0
 23 20  2  0
M  END
$$$$
