HGD.pdb
     RDKit          3D

 23 23  0  0  1  0  0  0  0  0999 V2000
   19.6643   -8.3451  -15.1068 N   0  0  0  0  0  0  0  0  0  0  0  0
   20.7196   -8.7357  -14.1928 C   0  0  1  0  0  0  0  0  0  0  0  0
   22.0035   -8.0946  -14.7265 C   0  0  0  0  0  0  0  0  0  0  0  0
   22.2588   -8.7199  -16.0508 C   0  0  0  0  0  0  0  0  0  0  0  0
   22.1633   -8.0704  -17.2865 C   0  0  0  0  0  0  0  0  0  0  0  0
   22.4630   -8.9421  -18.2648 N   0  0  0  0  0  0  0  0  0  0  0  0
   22.7464  -10.1248  -17.6975 C   0  0  0  0  0  0  0  0  0  0  0  0
   22.6197   -9.9805  -16.3492 N   0  0  0  0  0  0  0  0  0  0  0  0
   20.4404   -8.3249  -12.8059 C   0  0  0  0  0  0  0  0  0  0  0  0
   21.2564   -8.6004  -11.9128 O   0  0  0  0  0  0  0  0  0  0  0  0
   19.2354   -7.6203  -12.5336 N   0  0  0  0  0  0  0  0  0  0  0  0
   18.9870   -7.1864  -11.1916 C   0  0  0  0  0  0  0  0  0  0  0  0
   17.5310   -6.9700  -10.9793 C   0  0  0  0  0  0  0  0  0  0  0  0
   16.8095   -6.6147  -11.9598 O   0  0  0  0  0  0  0  0  0  0  0  0
   16.8926   -7.1371   -9.7391 N   0  0  0  0  0  0  0  0  0  0  0  0
   15.4825   -6.8105   -9.5245 C   0  0  1  0  0  0  0  0  0  0  0  0
   15.0412   -7.7215   -8.3988 C   0  0  0  0  0  0  0  0  0  0  0  0
   13.5874   -7.8337   -8.3292 C   0  0  0  0  0  0  0  0  0  0  0  0
   12.8318   -7.2393   -9.1302 O   0  0  0  0  0  0  0  0  0  0  0  0
   15.3090   -5.4167   -9.0926 C   0  0  0  0  0  0  0  0  0  0  0  0
   16.2834   -4.6017   -8.5687 O   0  0  0  0  0  0  0  0  0  0  0  0
   13.0072   -8.6204   -7.3496 O   0  0  0  0  0  0  0  0  0  0  0  0
   14.1410   -4.9110   -9.2136 O   0  0  0  0  0  0  0  0  0  0  0  0
  2  1  1  6
  2  3  1  0
  4  3  1  0
  4  5  2  0
  6  5  1  0
  7  6  1  0
  8  7  2  0
  8  4  1  0
  9  2  1  0
  9 10  2  0
 11  9  1  0
 12 11  1  0
 12 13  1  0
 13 15  1  0
 14 13  2  0
 15 16  1  0
 16 17  1  1
 17 18  1  0
 18 22  1  0
 19 18  2  0
 20 16  1  0
 20 21  1  0
 23 20  2  0
M  END
$$$$
