HGD.pdb
     RDKit          3D

 23 23  0  0  1  0  0  0  0  0999 V2000
   23.6535  -14.4383  -18.6544 N   0  0  0  0  0  0  0  0  0  0  0  0
   22.8009  -13.3737  -19.1458 C   0  0  1  0  0  0  0  0  0  0  0  0
   22.1922  -13.8858  -20.4541 C   0  0  0  0  0  0  0  0  0  0  0  0
   23.3374  -14.1968  -21.3496 C   0  0  0  0  0  0  0  0  0  0  0  0
   23.9790  -13.2832  -22.1932 C   0  0  0  0  0  0  0  0  0  0  0  0
   24.9669  -13.9131  -22.8519 N   0  0  0  0  0  0  0  0  0  0  0  0
   24.9787  -15.1962  -22.4587 C   0  0  0  0  0  0  0  0  0  0  0  0
   23.9833  -15.3601  -21.5439 N   0  0  0  0  0  0  0  0  0  0  0  0
   21.7622  -12.9933  -18.1730 C   0  0  0  0  0  0  0  0  0  0  0  0
   21.0141  -13.8668  -17.7074 O   0  0  0  0  0  0  0  0  0  0  0  0
   21.6497  -11.6265  -17.7959 N   0  0  0  0  0  0  0  0  0  0  0  0
   20.6774  -11.2693  -16.8071 C   0  0  0  0  0  0  0  0  0  0  0  0
   20.6988   -9.8016  -16.5676 C   0  0  0  0  0  0  0  0  0  0  0  0
   21.5812   -9.0945  -17.1415 O   0  0  0  0  0  0  0  0  0  0  0  0
   19.7869   -9.1369  -15.7307 N   0  0  0  0  0  0  0  0  0  0  0  0
   19.7823   -7.6834  -15.5617 C   0  0  1  0  0  0  0  0  0  0  0  0
   18.4592   -7.3756  -14.8937 C   0  0  0  0  0  0  0  0  0  0  0  0
   18.3084   -5.9500  -14.6187 C   0  0  0  0  0  0  0  0  0  0  0  0
   18.8732   -5.0723  -15.3091 O   0  0  0  0  0  0  0  0  0  0  0  0
   20.8672   -7.2377  -14.6765 C   0  0  0  0  0  0  0  0  0  0  0  0
   21.7129   -8.0473  -13.9571 O   0  0  0  0  0  0  0  0  0  0  0  0
   17.5170   -5.5363  -13.5615 O   0  0  0  0  0  0  0  0  0  0  0  0
   21.0436   -5.9765  -14.5615 O   0  0  0  0  0  0  0  0  0  0  0  0
  2  1  1  1
  2  3  1  0
  4  3  1  0
  4  5  2  0
  6  5  1  0
  7  6  1  0
  8  7  2  0
  8  4  1  0
  9  2  1  0
  9 10  2  0
 11  9  1  0
 12 11  1  0
 12 13  1  0
 13 15  1  0
 14 13  2  0
 15 16  1  0
 16 17  1  1
 17 18  1  0
 18 22  1  0
 19 18  2  0
 20 16  1  0
 20 21  1  0
 23 20  2  0
M  END
$$$$
