HGD.pdb
     RDKit          3D

 23 23  0  0  1  0  0  0  0  0999 V2000
   17.8303  -12.3322  -15.9061 N   0  0  0  0  0  0  0  0  0  0  0  0
   19.0741  -12.3556  -16.6505 C   0  0  1  0  0  0  0  0  0  0  0  0
   18.8013  -13.1842  -17.9088 C   0  0  0  0  0  0  0  0  0  0  0  0
   18.4262  -14.5429  -17.4364 C   0  0  0  0  0  0  0  0  0  0  0  0
   18.9547  -15.1852  -16.3112 C   0  0  0  0  0  0  0  0  0  0  0  0
   18.3855  -16.3968  -16.1897 N   0  0  0  0  0  0  0  0  0  0  0  0
   17.5125  -16.5506  -17.1973 C   0  0  0  0  0  0  0  0  0  0  0  0
   17.5437  -15.4171  -17.9515 N   0  0  0  0  0  0  0  0  0  0  0  0
   19.5546  -11.0030  -16.9816 C   0  0  0  0  0  0  0  0  0  0  0  0
   19.0560  -10.3975  -17.9430 O   0  0  0  0  0  0  0  0  0  0  0  0
   20.5823  -10.4305  -16.1824 N   0  0  0  0  0  0  0  0  0  0  0  0
   21.0423   -9.1128  -16.5034 C   0  0  0  0  0  0  0  0  0  0  0  0
   20.3396   -8.1022  -15.6686 C   0  0  0  0  0  0  0  0  0  0  0  0
   19.3676   -8.4692  -14.9414 O   0  0  0  0  0  0  0  0  0  0  0  0
   20.6907   -6.7424  -15.6338 N   0  0  0  0  0  0  0  0  0  0  0  0
   20.0329   -5.7775  -14.7521 C   0  0  1  0  0  0  0  0  0  0  0  0
   21.0118   -4.6286  -14.6366 C   0  0  0  0  0  0  0  0  0  0  0  0
   22.1888   -4.9946  -13.8544 C   0  0  0  0  0  0  0  0  0  0  0  0
   22.1393   -5.8271  -12.9215 O   0  0  0  0  0  0  0  0  0  0  0  0
   18.7849   -5.2705  -15.3392 C   0  0  0  0  0  0  0  0  0  0  0  0
   17.6826   -4.8293  -14.6475 O   0  0  0  0  0  0  0  0  0  0  0  0
   23.4102   -4.4103  -14.1406 O   0  0  0  0  0  0  0  0  0  0  0  0
   18.7141   -5.2358  -16.6153 O   0  0  0  0  0  0  0  0  0  0  0  0
  2  1  1  6
  2  3  1  0
  4  3  1  0
  4  5  2  0
  6  5  1  0
  7  6  1  0
  8  7  2  0
  8  4  1  0
  9  2  1  0
  9 10  2  0
 11  9  1  0
 12 11  1  0
 12 13  1  0
 13 15  1  0
 14 13  2  0
 15 16  1  0
 16 17  1  6
 17 18  1  0
 18 22  1  0
 19 18  2  0
 20 16  1  0
 20 21  1  0
 23 20  2  0
M  END
$$$$
