HGD.pdb
     RDKit          3D

 23 23  0  0  1  0  0  0  0  0999 V2000
   22.8623  -15.9552  -18.3584 N   0  0  0  0  0  0  0  0  0  0  0  0
   23.3826  -17.3059  -18.4403 C   0  0  1  0  0  0  0  0  0  0  0  0
   24.8001  -17.1822  -19.0058 C   0  0  0  0  0  0  0  0  0  0  0  0
   24.6622  -16.5108  -20.3250 C   0  0  0  0  0  0  0  0  0  0  0  0
   25.2271  -15.2782  -20.6710 C   0  0  0  0  0  0  0  0  0  0  0  0
   24.8949  -14.9838  -21.9397 N   0  0  0  0  0  0  0  0  0  0  0  0
   24.1380  -15.9846  -22.4158 C   0  0  0  0  0  0  0  0  0  0  0  0
   24.0014  -16.9100  -21.4261 N   0  0  0  0  0  0  0  0  0  0  0  0
   23.3736  -17.9900  -17.1357 C   0  0  0  0  0  0  0  0  0  0  0  0
   23.7601  -17.3816  -16.1258 O   0  0  0  0  0  0  0  0  0  0  0  0
   22.9186  -19.3362  -17.0755 N   0  0  0  0  0  0  0  0  0  0  0  0
   22.9438  -20.0091  -15.8117 C   0  0  0  0  0  0  0  0  0  0  0  0
   21.5895  -20.0057  -15.1971 C   0  0  0  0  0  0  0  0  0  0  0  0
   20.6615  -19.3414  -15.7500 O   0  0  0  0  0  0  0  0  0  0  0  0
   21.2671  -20.7044  -14.0217 N   0  0  0  0  0  0  0  0  0  0  0  0
   19.9084  -20.7598  -13.4813 C   0  0  1  0  0  0  0  0  0  0  0  0
   19.9224  -21.9271  -12.5176 C   0  0  0  0  0  0  0  0  0  0  0  0
   18.5783  -22.2754  -12.0670 C   0  0  0  0  0  0  0  0  0  0  0  0
   17.5657  -21.6329  -12.4244 O   0  0  0  0  0  0  0  0  0  0  0  0
   19.5730  -19.5404  -12.7330 C   0  0  0  0  0  0  0  0  0  0  0  0
   18.3654  -18.8849  -12.7477 O   0  0  0  0  0  0  0  0  0  0  0  0
   18.3988  -23.3507  -11.2146 O   0  0  0  0  0  0  0  0  0  0  0  0
   20.4903  -19.0381  -11.9975 O   0  0  0  0  0  0  0  0  0  0  0  0
  2  1  1  1
  2  3  1  0
  4  3  1  0
  4  5  2  0
  6  5  1  0
  7  6  1  0
  8  7  2  0
  8  4  1  0
  9  2  1  0
  9 10  2  0
 11  9  1  0
 12 11  1  0
 12 13  1  0
 13 15  1  0
 14 13  2  0
 15 16  1  0
 16 17  1  1
 17 18  1  0
 18 22  1  0
 19 18  2  0
 20 16  1  0
 20 21  1  0
 23 20  2  0
M  END
$$$$
