HGD.pdb
     RDKit          3D

 23 23  0  0  1  0  0  0  0  0999 V2000
   20.1865  -15.5555  -15.2317 N   0  0  0  0  0  0  0  0  0  0  0  0
   21.4474  -15.7482  -15.9206 C   0  0  1  0  0  0  0  0  0  0  0  0
   21.1888  -16.8114  -16.9916 C   0  0  0  0  0  0  0  0  0  0  0  0
   20.7962  -18.0462  -16.2628 C   0  0  0  0  0  0  0  0  0  0  0  0
   19.4893  -18.5276  -16.1277 C   0  0  0  0  0  0  0  0  0  0  0  0
   19.5119  -19.6628  -15.4083 N   0  0  0  0  0  0  0  0  0  0  0  0
   20.7868  -19.9231  -15.0795 C   0  0  0  0  0  0  0  0  0  0  0  0
   21.5619  -18.9337  -15.6039 N   0  0  0  0  0  0  0  0  0  0  0  0
   21.9631  -14.4985  -16.5058 C   0  0  0  0  0  0  0  0  0  0  0  0
   22.9638  -14.5361  -17.2383 O   0  0  0  0  0  0  0  0  0  0  0  0
   21.2920  -13.2800  -16.2098 N   0  0  0  0  0  0  0  0  0  0  0  0
   21.7805  -12.0709  -16.8016 C   0  0  0  0  0  0  0  0  0  0  0  0
   20.9510  -10.9134  -16.3724 C   0  0  0  0  0  0  0  0  0  0  0  0
   19.8327  -11.1276  -15.8142 O   0  0  0  0  0  0  0  0  0  0  0  0
   21.3347   -9.5736  -16.5495 N   0  0  0  0  0  0  0  0  0  0  0  0
   20.4997   -8.4488  -16.1265 C   0  0  1  0  0  0  0  0  0  0  0  0
   21.4253   -7.5605  -15.3228 C   0  0  0  0  0  0  0  0  0  0  0  0
   21.6921   -8.1118  -13.9978 C   0  0  0  0  0  0  0  0  0  0  0  0
   22.8222   -8.5327  -13.6637 O   0  0  0  0  0  0  0  0  0  0  0  0
   19.9995   -7.6830  -17.2766 C   0  0  0  0  0  0  0  0  0  0  0  0
   18.8820   -6.8837  -17.2959 O   0  0  0  0  0  0  0  0  0  0  0  0
   20.6714   -8.1793  -13.0657 O   0  0  0  0  0  0  0  0  0  0  0  0
   20.6649   -7.7666  -18.3652 O   0  0  0  0  0  0  0  0  0  0  0  0
  2  1  1  6
  2  3  1  0
  4  3  1  0
  4  5  2  0
  6  5  1  0
  7  6  1  0
  8  7  2  0
  8  4  1  0
  9  2  1  0
  9 10  2  0
 11  9  1  0
 12 11  1  0
 12 13  1  0
 13 15  1  0
 14 13  2  0
 15 16  1  0
 16 17  1  1
 17 18  1  0
 18 22  1  0
 19 18  2  0
 20 16  1  0
 20 21  1  0
 23 20  2  0
M  END
$$$$
