WVM.pdb
     RDKit          3D

 30 31  0  0  1  0  0  0  0  0999 V2000
   22.8112  -22.1432  -13.7099 N   0  0  0  0  0  0  0  0  0  0  0  0
   23.4528  -20.9813  -13.1537 C   0  0  1  0  0  0  0  0  0  0  0  0
   22.5075  -20.0207  -12.5195 C   0  0  0  0  0  0  0  0  0  0  0  0
   21.6288  -19.2884  -13.4342 C   0  0  0  0  0  0  0  0  0  0  0  0
   20.2261  -19.2404  -13.4178 C   0  0  0  0  0  0  0  0  0  0  0  0
   19.8196  -18.4359  -14.4098 N   0  0  0  0  0  0  0  0  0  0  0  0
   20.8917  -17.9392  -15.0959 C   0  0  0  0  0  0  0  0  0  0  0  0
   20.9553  -17.0905  -16.1791 C   0  0  0  0  0  0  0  0  0  0  0  0
   22.1752  -16.7351  -16.7063 C   0  0  0  0  0  0  0  0  0  0  0  0
   23.2936  -17.2642  -16.1027 C   0  0  0  0  0  0  0  0  0  0  0  0
   23.2436  -18.1132  -15.0195 C   0  0  0  0  0  0  0  0  0  0  0  0
   22.0136  -18.4794  -14.4769 C   0  0  0  0  0  0  0  0  0  0  0  0
   24.4853  -21.3495  -12.1218 C   0  0  0  0  0  0  0  0  0  0  0  0
   24.1862  -22.2700  -11.3199 O   0  0  0  0  0  0  0  0  0  0  0  0
   29.2457  -21.2466  -10.7905 C   0  0  0  0  0  0  0  0  0  0  0  0
   28.0961  -20.8177  -11.6573 C   0  0  2  0  0  0  0  0  0  0  0  0
   28.3631  -19.3819  -12.0593 C   0  0  0  0  0  0  0  0  0  0  0  0
   26.7428  -21.0484  -11.1177 C   0  0  2  0  0  0  0  0  0  0  0  0
   25.7117  -20.6584  -12.1042 N   0  0  0  0  0  0  0  0  0  0  0  0
   26.3714  -20.3998   -9.8670 C   0  0  0  0  0  0  0  0  0  0  0  0
   25.6410  -19.3499   -9.8146 O   0  0  0  0  0  0  0  0  0  0  0  0
   30.0559  -21.4903   -4.6286 C   0  0  0  0  0  0  0  0  0  0  0  0
   28.4825  -21.0943   -3.8221 S   0  0  0  0  0  0  0  0  0  0  0  0
   27.3963  -20.2922   -4.9764 C   0  0  0  0  0  0  0  0  0  0  0  0
   27.3361  -20.8274   -6.3460 C   0  0  0  0  0  0  0  0  0  0  0  0
   26.5299  -20.1144   -7.3814 C   0  0  2  0  0  0  0  0  0  0  0  0
   26.8006  -20.9043   -8.6225 N   0  0  0  0  0  0  0  0  0  0  0  0
   26.9889  -18.7370   -7.6104 C   0  0  0  0  0  0  0  0  0  0  0  0
   26.2875  -17.6852   -6.9635 O   0  0  0  0  0  0  0  0  0  0  0  0
   27.9692  -18.4171   -8.3464 O   0  0  0  0  0  0  0  0  0  0  0  0
  2  1  1  1
  2 13  1  0
  3  2  1  0
  3  4  1  0
  4  5  2  0
  4 12  1  0
  5  6  1  0
  6  7  1  0
  7  8  2  0
  8  9  1  0
 10  9  2  0
 11 10  1  0
 12 11  2  0
 12  7  1  0
 13 19  1  0
 13 14  2  0
 16 18  1  0
 16 15  1  1
 17 16  1  0
 18 20  1  0
 18 19  1  6
 20 21  2  0
 22 23  1  0
 23 24  1  0
 24 25  1  0
 26 25  1  1
 26 28  1  0
 27 26  1  0
 27 20  1  0
 28 29  1  0
 30 28  2  0
M  END
$$$$
