WVM.pdb
     RDKit          3D

 30 31  0  0  1  0  0  0  0  0999 V2000
   20.0056  -13.2421  -17.6173 N   0  0  0  0  0  0  0  0  0  0  0  0
   20.2312  -11.8537  -17.9210 C   0  0  1  0  0  0  0  0  0  0  0  0
   19.0250  -11.1500  -18.4393 C   0  0  0  0  0  0  0  0  0  0  0  0
   18.4992  -11.6365  -19.7167 C   0  0  0  0  0  0  0  0  0  0  0  0
   18.4324  -12.9653  -20.1639 C   0  0  0  0  0  0  0  0  0  0  0  0
   17.8585  -12.9749  -21.3751 N   0  0  0  0  0  0  0  0  0  0  0  0
   17.5356  -11.7055  -21.7640 C   0  0  0  0  0  0  0  0  0  0  0  0
   16.9439  -11.2380  -22.9169 C   0  0  0  0  0  0  0  0  0  0  0  0
   16.7260   -9.8899  -23.0827 C   0  0  0  0  0  0  0  0  0  0  0  0
   17.1241   -9.0629  -22.0567 C   0  0  0  0  0  0  0  0  0  0  0  0
   17.7162   -9.5174  -20.8994 C   0  0  0  0  0  0  0  0  0  0  0  0
   17.9411  -10.8809  -20.7204 C   0  0  0  0  0  0  0  0  0  0  0  0
   20.7218  -11.0885  -16.7208 C   0  0  0  0  0  0  0  0  0  0  0  0
   20.0097  -11.1341  -15.6861 O   0  0  0  0  0  0  0  0  0  0  0  0
   24.8704  -10.3057  -16.0813 C   0  0  0  0  0  0  0  0  0  0  0  0
   23.6972  -10.3482  -15.1439 C   0  0  2  0  0  0  0  0  0  0  0  0
   23.5154  -11.7956  -14.7360 C   0  0  0  0  0  0  0  0  0  0  0  0
   22.4590   -9.6954  -15.6089 C   0  0  2  0  0  0  0  0  0  0  0  0
   21.9302  -10.3722  -16.8134 N   0  0  0  0  0  0  0  0  0  0  0  0
   22.4978   -8.2743  -15.9280 C   0  0  0  0  0  0  0  0  0  0  0  0
   22.6063   -7.8295  -17.1233 O   0  0  0  0  0  0  0  0  0  0  0  0
   18.7719   -2.5689  -17.8222 C   0  0  0  0  0  0  0  0  0  0  0  0
   19.0924   -4.2827  -17.3293 S   0  0  0  0  0  0  0  0  0  0  0  0
   20.6408   -4.3838  -16.4645 C   0  0  0  0  0  0  0  0  0  0  0  0
   21.1199   -5.7185  -16.0710 C   0  0  0  0  0  0  0  0  0  0  0  0
   22.3962   -5.8478  -15.3063 C   0  0  2  0  0  0  0  0  0  0  0  0
   22.4128   -7.2927  -14.9197 N   0  0  0  0  0  0  0  0  0  0  0  0
   22.4040   -5.0476  -14.0735 C   0  0  0  0  0  0  0  0  0  0  0  0
   22.6599   -3.6552  -14.1851 O   0  0  0  0  0  0  0  0  0  0  0  0
   22.1983   -5.5107  -12.9124 O   0  0  0  0  0  0  0  0  0  0  0  0
  2  1  1  1
  2 13  1  0
  3  2  1  0
  3  4  1  0
  4  5  2  0
  4 12  1  0
  5  6  1  0
  6  7  1  0
  7  8  2  0
  8  9  1  0
 10  9  2  0
 11 10  1  0
 12 11  2  0
 12  7  1  0
 13 19  1  0
 13 14  2  0
 16 18  1  0
 16 15  1  6
 17 16  1  0
 18 20  1  0
 18 19  1  6
 20 21  2  0
 22 23  1  0
 23 24  1  0
 24 25  1  0
 26 25  1  1
 26 28  1  0
 27 26  1  0
 27 20  1  0
 28 29  1  0
 30 28  2  0
M  END
$$$$
