WVM.pdb
     RDKit          3D

 30 31  0  0  1  0  0  0  0  0999 V2000
   24.2163  -20.4402  -16.2128 N   0  0  0  0  0  0  0  0  0  0  0  0
   24.6335  -19.8384  -14.9740 C   0  0  1  0  0  0  0  0  0  0  0  0
   23.5034  -19.3623  -14.1286 C   0  0  0  0  0  0  0  0  0  0  0  0
   22.5432  -18.4721  -14.7849 C   0  0  0  0  0  0  0  0  0  0  0  0
   21.1425  -18.5202  -14.7095 C   0  0  0  0  0  0  0  0  0  0  0  0
   20.6456  -17.5099  -15.4368 N   0  0  0  0  0  0  0  0  0  0  0  0
   21.6550  -16.7819  -16.0009 C   0  0  0  0  0  0  0  0  0  0  0  0
   21.6202  -15.6748  -16.8200 C   0  0  0  0  0  0  0  0  0  0  0  0
   22.7921  -15.1152  -17.2736 C   0  0  0  0  0  0  0  0  0  0  0  0
   23.9653  -15.7123  -16.8707 C   0  0  0  0  0  0  0  0  0  0  0  0
   24.0137  -16.8188  -16.0522 C   0  0  0  0  0  0  0  0  0  0  0  0
   22.8329  -17.3934  -15.5862 C   0  0  0  0  0  0  0  0  0  0  0  0
   25.4571  -20.7831  -14.1399 C   0  0  0  0  0  0  0  0  0  0  0  0
   25.1534  -22.0017  -14.1919 O   0  0  0  0  0  0  0  0  0  0  0  0
   29.8479  -21.1983  -11.8879 C   0  0  0  0  0  0  0  0  0  0  0  0
   28.8469  -20.7570  -12.9175 C   0  0  2  0  0  0  0  0  0  0  0  0
   28.9977  -19.2565  -13.0593 C   0  0  0  0  0  0  0  0  0  0  0  0
   27.4557  -21.2044  -12.7174 C   0  0  2  0  0  0  0  0  0  0  0  0
   26.5066  -20.2666  -13.3564 N   0  0  0  0  0  0  0  0  0  0  0  0
   26.9756  -21.4002  -11.3558 C   0  0  0  0  0  0  0  0  0  0  0  0
   27.2872  -22.4179  -10.6448 O   0  0  0  0  0  0  0  0  0  0  0  0
   27.3110  -19.3282   -4.4549 C   0  0  0  0  0  0  0  0  0  0  0  0
   27.7272  -19.5451   -6.2050 S   0  0  0  0  0  0  0  0  0  0  0  0
   26.3066  -19.1950   -7.2123 C   0  0  0  0  0  0  0  0  0  0  0  0
   26.4256  -19.4110   -8.6632 C   0  0  0  0  0  0  0  0  0  0  0  0
   25.8029  -20.6190   -9.2824 C   0  0  2  0  0  0  0  0  0  0  0  0
   26.1289  -20.4603  -10.7335 N   0  0  0  0  0  0  0  0  0  0  0  0
   24.3396  -20.6380   -9.1450 C   0  0  0  0  0  0  0  0  0  0  0  0
   23.7900  -21.1716   -7.9491 O   0  0  0  0  0  0  0  0  0  0  0  0
   23.5281  -20.2115  -10.0192 O   0  0  0  0  0  0  0  0  0  0  0  0
  2  1  1  6
  2 13  1  0
  3  2  1  0
  3  4  1  0
  4  5  2  0
  4 12  1  0
  5  6  1  0
  6  7  1  0
  7  8  2  0
  8  9  1  0
 10  9  2  0
 11 10  1  0
 12 11  2  0
 12  7  1  0
 13 19  1  0
 13 14  2  0
 16 18  1  0
 16 15  1  1
 17 16  1  0
 18 20  1  0
 18 19  1  1
 20 21  2  0
 22 23  1  0
 23 24  1  0
 24 25  1  0
 26 25  1  1
 26 28  1  0
 27 26  1  0
 27 20  1  0
 28 29  1  0
 30 28  2  0
M  END
$$$$
