WVM.pdb
     RDKit          3D

 30 31  0  0  1  0  0  0  0  0999 V2000
   22.5874  -20.4594  -16.7374 N   0  0  0  0  0  0  0  0  0  0  0  0
   23.4944  -19.5934  -16.0316 C   0  0  1  0  0  0  0  0  0  0  0  0
   22.8391  -18.3947  -15.4382 C   0  0  0  0  0  0  0  0  0  0  0  0
   22.2769  -17.4346  -16.3908 C   0  0  0  0  0  0  0  0  0  0  0  0
   20.9729  -16.9157  -16.4134 C   0  0  0  0  0  0  0  0  0  0  0  0
   20.8809  -16.0492  -17.4318 N   0  0  0  0  0  0  0  0  0  0  0  0
   22.0706  -15.9628  -18.0984 C   0  0  0  0  0  0  0  0  0  0  0  0
   22.4376  -15.2159  -19.1962 C   0  0  0  0  0  0  0  0  0  0  0  0
   23.7155  -15.3078  -19.6971 C   0  0  0  0  0  0  0  0  0  0  0  0
   24.5777  -16.1662  -19.0529 C   0  0  0  0  0  0  0  0  0  0  0  0
   24.2234  -16.9180  -17.9549 C   0  0  0  0  0  0  0  0  0  0  0  0
   22.9320  -16.8323  -17.4386 C   0  0  0  0  0  0  0  0  0  0  0  0
   24.2106  -20.3149  -14.9212 C   0  0  0  0  0  0  0  0  0  0  0  0
   23.5293  -21.1106  -14.2265 O   0  0  0  0  0  0  0  0  0  0  0  0
   28.5157  -21.5778  -12.8004 C   0  0  0  0  0  0  0  0  0  0  0  0
   27.7056  -20.8743  -13.8519 C   0  0  2  0  0  0  0  0  0  0  0  0
   28.4240  -19.5776  -14.1629 C   0  0  0  0  0  0  0  0  0  0  0  0
   26.2660  -20.7116  -13.5746 C   0  0  2  0  0  0  0  0  0  0  0  0
   25.5816  -20.0682  -14.7175 N   0  0  0  0  0  0  0  0  0  0  0  0
   25.8645  -19.9641  -12.3902 C   0  0  0  0  0  0  0  0  0  0  0  0
   25.7602  -18.6884  -12.3714 O   0  0  0  0  0  0  0  0  0  0  0  0
   21.5889  -22.4450   -6.9227 C   0  0  0  0  0  0  0  0  0  0  0  0
   21.8039  -21.2987   -8.3093 S   0  0  0  0  0  0  0  0  0  0  0  0
   23.5327  -20.9886   -8.5751 C   0  0  0  0  0  0  0  0  0  0  0  0
   23.9029  -20.0339   -9.6321 C   0  0  0  0  0  0  0  0  0  0  0  0
   25.3450  -19.8009   -9.9431 C   0  0  2  0  0  0  0  0  0  0  0  0
   25.5596  -20.6167  -11.1784 N   0  0  0  0  0  0  0  0  0  0  0  0
   26.2421  -20.3142   -8.8981 C   0  0  0  0  0  0  0  0  0  0  0  0
   26.4428  -19.5151   -7.7415 O   0  0  0  0  0  0  0  0  0  0  0  0
   26.8529  -21.4226   -8.9534 O   0  0  0  0  0  0  0  0  0  0  0  0
  2  1  1  1
  2 13  1  0
  3  2  1  0
  3  4  1  0
  4  5  2  0
  4 12  1  0
  5  6  1  0
  6  7  1  0
  7  8  2  0
  8  9  1  0
 10  9  2  0
 11 10  1  0
 12 11  2  0
 12  7  1  0
 13 19  1  0
 13 14  2  0
 16 18  1  0
 16 15  1  1
 17 16  1  0
 18 20  1  0
 18 19  1  6
 20 21  2  0
 22 23  1  0
 23 24  1  0
 24 25  1  0
 26 25  1  1
 26 28  1  0
 27 26  1  0
 27 20  1  0
 28 29  1  0
 30 28  2  0
M  END
$$$$
