WVM.pdb
     RDKit          3D

 30 31  0  0  1  0  0  0  0  0999 V2000
   26.0656  -19.1078  -12.0820 N   0  0  0  0  0  0  0  0  0  0  0  0
   25.9994  -20.5450  -12.0514 C   0  0  1  0  0  0  0  0  0  0  0  0
   25.6379  -21.1000  -10.7174 C   0  0  0  0  0  0  0  0  0  0  0  0
   26.3912  -20.5712   -9.5781 C   0  0  0  0  0  0  0  0  0  0  0  0
   25.8901  -19.8559   -8.4793 C   0  0  0  0  0  0  0  0  0  0  0  0
   26.9095  -19.5827   -7.6529 N   0  0  0  0  0  0  0  0  0  0  0  0
   28.0791  -20.0844   -8.1503 C   0  0  0  0  0  0  0  0  0  0  0  0
   29.3633  -20.0404   -7.6535 C   0  0  0  0  0  0  0  0  0  0  0  0
   30.3941  -20.6226   -8.3541 C   0  0  0  0  0  0  0  0  0  0  0  0
   30.0723  -21.2326   -9.5456 C   0  0  0  0  0  0  0  0  0  0  0  0
   28.7931  -21.2836  -10.0528 C   0  0  0  0  0  0  0  0  0  0  0  0
   27.7411  -20.6980   -9.3514 C   0  0  0  0  0  0  0  0  0  0  0  0
   25.0094  -21.0832  -13.0498 C   0  0  0  0  0  0  0  0  0  0  0  0
   24.0509  -20.3328  -13.3629 O   0  0  0  0  0  0  0  0  0  0  0  0
   24.4808  -23.9142  -16.9906 C   0  0  0  0  0  0  0  0  0  0  0  0
   25.1860  -23.4950  -15.7321 C   0  0  2  0  0  0  0  0  0  0  0  0
   25.9309  -24.7114  -15.2221 C   0  0  0  0  0  0  0  0  0  0  0  0
   24.3633  -22.8223  -14.7092 C   0  0  2  0  0  0  0  0  0  0  0  0
   25.2003  -22.3758  -13.5739 N   0  0  0  0  0  0  0  0  0  0  0  0
   23.2448  -23.5504  -14.1249 C   0  0  0  0  0  0  0  0  0  0  0  0
   23.3955  -24.5639  -13.3577 O   0  0  0  0  0  0  0  0  0  0  0  0
   18.8480  -20.8392  -11.1760 C   0  0  0  0  0  0  0  0  0  0  0  0
   17.8347  -22.3180  -11.4392 S   0  0  0  0  0  0  0  0  0  0  0  0
   18.7177  -23.4847  -12.4465 C   0  0  0  0  0  0  0  0  0  0  0  0
   19.9994  -23.0553  -13.0284 C   0  0  0  0  0  0  0  0  0  0  0  0
   20.7978  -24.0180  -13.8447 C   0  0  2  0  0  0  0  0  0  0  0  0
   21.9104  -23.1697  -14.3739 N   0  0  0  0  0  0  0  0  0  0  0  0
   20.0476  -24.5502  -14.9911 C   0  0  0  0  0  0  0  0  0  0  0  0
   19.3110  -25.7501  -14.8057 O   0  0  0  0  0  0  0  0  0  0  0  0
   20.0095  -24.0148  -16.1386 O   0  0  0  0  0  0  0  0  0  0  0  0
  2  1  1  1
  2 13  1  0
  3  2  1  0
  3  4  1  0
  4  5  2  0
  4 12  1  0
  5  6  1  0
  6  7  1  0
  7  8  2  0
  8  9  1  0
 10  9  2  0
 11 10  1  0
 12 11  2  0
 12  7  1  0
 13 19  1  0
 13 14  2  0
 16 18  1  0
 16 15  1  6
 17 16  1  0
 18 20  1  0
 18 19  1  1
 20 21  2  0
 22 23  1  0
 23 24  1  0
 24 25  1  0
 26 25  1  1
 26 28  1  0
 27 26  1  0
 27 20  1  0
 28 29  1  0
 30 28  2  0
M  END
$$$$
