WVM.pdb
     RDKit          3D

 30 31  0  0  1  0  0  0  0  0999 V2000
   23.8090  -20.1720   -9.8467 N   0  0  0  0  0  0  0  0  0  0  0  0
   23.5380  -21.1199   -8.7985 C   0  0  1  0  0  0  0  0  0  0  0  0
   24.2628  -20.8332   -7.5291 C   0  0  0  0  0  0  0  0  0  0  0  0
   25.7178  -20.7057   -7.6371 C   0  0  0  0  0  0  0  0  0  0  0  0
   26.5218  -20.9984   -8.7498 C   0  0  0  0  0  0  0  0  0  0  0  0
   27.7945  -20.7176   -8.4366 N   0  0  0  0  0  0  0  0  0  0  0  0
   27.8821  -20.2477   -7.1566 C   0  0  0  0  0  0  0  0  0  0  0  0
   28.9715  -19.8444   -6.4160 C   0  0  0  0  0  0  0  0  0  0  0  0
   28.8031  -19.4104   -5.1216 C   0  0  0  0  0  0  0  0  0  0  0  0
   27.5180  -19.4048   -4.6277 C   0  0  0  0  0  0  0  0  0  0  0  0
   26.4209  -19.8051   -5.3575 C   0  0  0  0  0  0  0  0  0  0  0  0
   26.5796  -20.2458   -6.6698 C   0  0  0  0  0  0  0  0  0  0  0  0
   22.0696  -21.1954   -8.4750 C   0  0  0  0  0  0  0  0  0  0  0  0
   21.4261  -20.1159   -8.4930 O   0  0  0  0  0  0  0  0  0  0  0  0
   19.7292  -24.3069   -9.8599 C   0  0  0  0  0  0  0  0  0  0  0  0
   19.4266  -22.9266   -9.3500 C   0  0  2  0  0  0  0  0  0  0  0  0
   19.7458  -21.9646  -10.4757 C   0  0  0  0  0  0  0  0  0  0  0  0
   20.0284  -22.5565   -8.0551 C   0  0  2  0  0  0  0  0  0  0  0  0
   21.4990  -22.4465   -8.1730 N   0  0  0  0  0  0  0  0  0  0  0  0
   19.7783  -23.4098   -6.9010 C   0  0  0  0  0  0  0  0  0  0  0  0
   20.7092  -24.0181   -6.2671 O   0  0  0  0  0  0  0  0  0  0  0  0
   14.5839  -24.6352   -1.1264 C   0  0  0  0  0  0  0  0  0  0  0  0
   15.1122  -23.6909   -2.5797 S   0  0  0  0  0  0  0  0  0  0  0  0
   16.5045  -24.4861   -3.3443 C   0  0  0  0  0  0  0  0  0  0  0  0
   17.0787  -23.8572   -4.5445 C   0  0  0  0  0  0  0  0  0  0  0  0
   18.2758  -24.4681   -5.1958 C   0  0  2  0  0  0  0  0  0  0  0  0
   18.4735  -23.6134   -6.4074 N   0  0  0  0  0  0  0  0  0  0  0  0
   18.0366  -25.8465   -5.6464 C   0  0  0  0  0  0  0  0  0  0  0  0
   17.5305  -26.0395   -6.9592 O   0  0  0  0  0  0  0  0  0  0  0  0
   18.2495  -26.8807   -4.9464 O   0  0  0  0  0  0  0  0  0  0  0  0
  2  1  1  6
  2 13  1  0
  3  2  1  0
  3  4  1  0
  4  5  2  0
  4 12  1  0
  5  6  1  0
  6  7  1  0
  7  8  2  0
  8  9  1  0
 10  9  2  0
 11 10  1  0
 12 11  2  0
 12  7  1  0
 13 19  1  0
 13 14  2  0
 16 18  1  0
 16 15  1  6
 17 16  1  0
 18 20  1  0
 18 19  1  6
 20 21  2  0
 22 23  1  0
 23 24  1  0
 24 25  1  0
 26 25  1  6
 26 28  1  0
 27 26  1  0
 27 20  1  0
 28 29  1  0
 30 28  2  0
M  END
$$$$
