WVM.pdb
     RDKit          3D

 30 31  0  0  1  0  0  0  0  0999 V2000
   23.3816  -22.2293  -16.0690 N   0  0  0  0  0  0  0  0  0  0  0  0
   23.6188  -21.3215  -14.9779 C   0  0  1  0  0  0  0  0  0  0  0  0
   22.4865  -21.2340  -14.0142 C   0  0  0  0  0  0  0  0  0  0  0  0
   21.2457  -20.6553  -14.5346 C   0  0  0  0  0  0  0  0  0  0  0  0
   19.9946  -21.2802  -14.6539 C   0  0  0  0  0  0  0  0  0  0  0  0
   19.1242  -20.3908  -15.1518 N   0  0  0  0  0  0  0  0  0  0  0  0
   19.7379  -19.1905  -15.3743 C   0  0  0  0  0  0  0  0  0  0  0  0
   19.2466  -18.0052  -15.8761 C   0  0  0  0  0  0  0  0  0  0  0  0
   20.0778  -16.9181  -16.0157 C   0  0  0  0  0  0  0  0  0  0  0  0
   21.3904  -17.0834  -15.6348 C   0  0  0  0  0  0  0  0  0  0  0  0
   21.8936  -18.2624  -15.1317 C   0  0  0  0  0  0  0  0  0  0  0  0
   21.0607  -19.3698  -14.9853 C   0  0  0  0  0  0  0  0  0  0  0  0
   24.8514  -21.6919  -14.1967 C   0  0  0  0  0  0  0  0  0  0  0  0
   25.1121  -22.9168  -14.0910 O   0  0  0  0  0  0  0  0  0  0  0  0
   27.5706  -18.6340  -12.5761 C   0  0  0  0  0  0  0  0  0  0  0  0
   27.8854  -20.0574  -12.9392 C   0  0  2  0  0  0  0  0  0  0  0  0
   28.4944  -20.0308  -14.3258 C   0  0  0  0  0  0  0  0  0  0  0  0
   26.7912  -21.0342  -12.7826 C   0  0  2  0  0  0  0  0  0  0  0  0
   25.6369  -20.6687  -13.6326 N   0  0  0  0  0  0  0  0  0  0  0  0
   26.2529  -21.2699  -11.4495 C   0  0  0  0  0  0  0  0  0  0  0  0
   25.0093  -21.4726  -11.2241 O   0  0  0  0  0  0  0  0  0  0  0  0
   29.2466  -18.4766   -6.2704 C   0  0  0  0  0  0  0  0  0  0  0  0
   28.5936  -20.0331   -5.6117 S   0  0  0  0  0  0  0  0  0  0  0  0
   27.2628  -20.6122   -6.6359 C   0  0  0  0  0  0  0  0  0  0  0  0
   27.5362  -20.8077   -8.0687 C   0  0  0  0  0  0  0  0  0  0  0  0
   26.4694  -21.3640   -8.9536 C   0  0  2  0  0  0  0  0  0  0  0  0
   27.0878  -21.2919  -10.3137 N   0  0  0  0  0  0  0  0  0  0  0  0
   25.2523  -20.5401   -8.9638 C   0  0  0  0  0  0  0  0  0  0  0  0
   24.0953  -21.0537   -8.3200 O   0  0  0  0  0  0  0  0  0  0  0  0
   25.1585  -19.3998   -9.5075 O   0  0  0  0  0  0  0  0  0  0  0  0
  2  1  1  6
  2 13  1  0
  3  2  1  0
  3  4  1  0
  4  5  2  0
  4 12  1  0
  5  6  1  0
  6  7  1  0
  7  8  2  0
  8  9  1  0
 10  9  2  0
 11 10  1  0
 12 11  2  0
 12  7  1  0
 13 19  1  0
 13 14  2  0
 16 18  1  0
 16 15  1  6
 17 16  1  0
 18 20  1  0
 18 19  1  6
 20 21  2  0
 22 23  1  0
 23 24  1  0
 24 25  1  0
 26 25  1  1
 26 28  1  0
 27 26  1  0
 27 20  1  0
 28 29  1  0
 30 28  2  0
M  END
$$$$
