WVM.pdb
     RDKit          3D

 30 31  0  0  1  0  0  0  0  0999 V2000
   25.2157  -18.2824  -15.5106 N   0  0  0  0  0  0  0  0  0  0  0  0
   26.1395  -18.9094  -14.6027 C   0  0  1  0  0  0  0  0  0  0  0  0
   27.4933  -18.2885  -14.6014 C   0  0  0  0  0  0  0  0  0  0  0  0
   28.3126  -18.5360  -15.7900 C   0  0  0  0  0  0  0  0  0  0  0  0
   28.7809  -17.5925  -16.7177 C   0  0  0  0  0  0  0  0  0  0  0  0
   29.5152  -18.2334  -17.6377 N   0  0  0  0  0  0  0  0  0  0  0  0
   29.5608  -19.5723  -17.3688 C   0  0  0  0  0  0  0  0  0  0  0  0
   30.1823  -20.6058  -18.0348 C   0  0  0  0  0  0  0  0  0  0  0  0
   30.0739  -21.8938  -17.5641 C   0  0  0  0  0  0  0  0  0  0  0  0
   29.3285  -22.0798  -16.4217 C   0  0  0  0  0  0  0  0  0  0  0  0
   28.7026  -21.0555  -15.7467 C   0  0  0  0  0  0  0  0  0  0  0  0
   28.8063  -19.7469  -16.2139 C   0  0  0  0  0  0  0  0  0  0  0  0
   25.6322  -18.8937  -13.1852 C   0  0  0  0  0  0  0  0  0  0  0  0
   25.0318  -17.8565  -12.8065 O   0  0  0  0  0  0  0  0  0  0  0  0
   22.9880  -20.8504   -9.9863 C   0  0  0  0  0  0  0  0  0  0  0  0
   23.8459  -20.7709  -11.2170 C   0  0  2  0  0  0  0  0  0  0  0  0
   23.9269  -22.1727  -11.7852 C   0  0  0  0  0  0  0  0  0  0  0  0
   25.1548  -20.1079  -11.0655 C   0  0  2  0  0  0  0  0  0  0  0  0
   25.8510  -20.0189  -12.3678 N   0  0  0  0  0  0  0  0  0  0  0  0
   26.1182  -20.6731  -10.1300 C   0  0  0  0  0  0  0  0  0  0  0  0
   26.7643  -21.7538  -10.3603 O   0  0  0  0  0  0  0  0  0  0  0  0
   28.6912  -17.2463   -5.3973 C   0  0  0  0  0  0  0  0  0  0  0  0
   29.2966  -18.8722   -4.8750 S   0  0  0  0  0  0  0  0  0  0  0  0
   28.4350  -20.1505   -5.7577 C   0  0  0  0  0  0  0  0  0  0  0  0
   27.7449  -19.7776   -7.0029 C   0  0  0  0  0  0  0  0  0  0  0  0
   27.0703  -20.8329   -7.8164 C   0  0  2  0  0  0  0  0  0  0  0  0
   26.3998  -20.0473   -8.8985 N   0  0  0  0  0  0  0  0  0  0  0  0
   26.0307  -21.5514   -7.0660 C   0  0  0  0  0  0  0  0  0  0  0  0
   24.7116  -21.0258   -7.0860 O   0  0  0  0  0  0  0  0  0  0  0  0
   26.2255  -22.6106   -6.3989 O   0  0  0  0  0  0  0  0  0  0  0  0
  2  1  1  6
  2 13  1  0
  3  2  1  0
  3  4  1  0
  4  5  2  0
  4 12  1  0
  5  6  1  0
  6  7  1  0
  7  8  2  0
  8  9  1  0
 10  9  2  0
 11 10  1  0
 12 11  2  0
 12  7  1  0
 13 19  1  0
 13 14  2  0
 16 18  1  0
 16 15  1  1
 17 16  1  0
 18 20  1  0
 18 19  1  6
 20 21  2  0
 22 23  1  0
 23 24  1  0
 24 25  1  0
 26 25  1  1
 26 28  1  0
 27 26  1  0
 27 20  1  0
 28 29  1  0
 30 28  2  0
M  END
$$$$
