WVM.pdb
     RDKit          3D

 30 31  0  0  1  0  0  0  0  0999 V2000
   24.0529  -19.2782  -17.8839 N   0  0  0  0  0  0  0  0  0  0  0  0
   24.5862  -18.5675  -16.7519 C   0  0  1  0  0  0  0  0  0  0  0  0
   23.6389  -17.5803  -16.1634 C   0  0  0  0  0  0  0  0  0  0  0  0
   23.3293  -16.4152  -16.9953 C   0  0  0  0  0  0  0  0  0  0  0  0
   22.1576  -16.1761  -17.7303 C   0  0  0  0  0  0  0  0  0  0  0  0
   22.2712  -14.9824  -18.3293 N   0  0  0  0  0  0  0  0  0  0  0  0
   23.4731  -14.4063  -18.0287 C   0  0  0  0  0  0  0  0  0  0  0  0
   24.0193  -13.2029  -18.4179 C   0  0  0  0  0  0  0  0  0  0  0  0
   25.2727  -12.8409  -17.9814 C   0  0  0  0  0  0  0  0  0  0  0  0
   25.9267  -13.7288  -17.1573 C   0  0  0  0  0  0  0  0  0  0  0  0
   25.3918  -14.9343  -16.7609 C   0  0  0  0  0  0  0  0  0  0  0  0
   24.1229  -15.3109  -17.1963 C   0  0  0  0  0  0  0  0  0  0  0  0
   25.0093  -19.5023  -15.6502 C   0  0  0  0  0  0  0  0  0  0  0  0
   24.2688  -20.4933  -15.4282 O   0  0  0  0  0  0  0  0  0  0  0  0
   28.7158  -21.1161  -12.7886 C   0  0  0  0  0  0  0  0  0  0  0  0
   28.1133  -20.2639  -13.8691 C   0  0  2  0  0  0  0  0  0  0  0  0
   28.8071  -18.9190  -13.8035 C   0  0  0  0  0  0  0  0  0  0  0  0
   26.6410  -20.1793  -13.8967 C   0  0  2  0  0  0  0  0  0  0  0  0
   26.1901  -19.2266  -14.9349 N   0  0  0  0  0  0  0  0  0  0  0  0
   25.9413  -19.8060  -12.6745 C   0  0  0  0  0  0  0  0  0  0  0  0
   25.5981  -18.6025  -12.4057 O   0  0  0  0  0  0  0  0  0  0  0  0
   19.6889  -19.8667   -9.3354 C   0  0  0  0  0  0  0  0  0  0  0  0
   20.7824  -21.0437  -10.1731 S   0  0  0  0  0  0  0  0  0  0  0  0
   22.4703  -20.7324   -9.7153 C   0  0  0  0  0  0  0  0  0  0  0  0
   23.4491  -20.5394  -10.7972 C   0  0  0  0  0  0  0  0  0  0  0  0
   24.8888  -20.3293  -10.4601 C   0  0  2  0  0  0  0  0  0  0  0  0
   25.5939  -20.7680  -11.7042 N   0  0  0  0  0  0  0  0  0  0  0  0
   25.3444  -21.1838   -9.3544 C   0  0  0  0  0  0  0  0  0  0  0  0
   25.9454  -22.4288   -9.6791 O   0  0  0  0  0  0  0  0  0  0  0  0
   25.2396  -20.8902   -8.1265 O   0  0  0  0  0  0  0  0  0  0  0  0
  2  1  1  6
  2 13  1  0
  3  2  1  0
  3  4  1  0
  4  5  2  0
  4 12  1  0
  5  6  1  0
  6  7  1  0
  7  8  2  0
  8  9  1  0
 10  9  2  0
 11 10  1  0
 12 11  2  0
 12  7  1  0
 13 19  1  0
 13 14  2  0
 16 18  1  0
 16 15  1  1
 17 16  1  0
 18 20  1  0
 18 19  1  6
 20 21  2  0
 22 23  1  0
 23 24  1  0
 24 25  1  0
 26 25  1  6
 26 28  1  0
 27 26  1  0
 27 20  1  0
 28 29  1  0
 30 28  2  0
M  END
$$$$
