WVM.pdb
     RDKit          3D

 30 31  0  0  1  0  0  0  0  0999 V2000
   26.0204  -18.5104  -16.2654 N   0  0  0  0  0  0  0  0  0  0  0  0
   26.6090  -19.3584  -15.2627 C   0  0  1  0  0  0  0  0  0  0  0  0
   28.0804  -19.1803  -15.1157 C   0  0  0  0  0  0  0  0  0  0  0  0
   28.8964  -19.6345  -16.2440 C   0  0  0  0  0  0  0  0  0  0  0  0
   29.3756  -18.8667  -17.3168 C   0  0  0  0  0  0  0  0  0  0  0  0
   30.1020  -19.6623  -18.1142 N   0  0  0  0  0  0  0  0  0  0  0  0
   30.1319  -20.9370  -17.6230 C   0  0  0  0  0  0  0  0  0  0  0  0
   30.7410  -22.0753  -18.1039 C   0  0  0  0  0  0  0  0  0  0  0  0
   30.6175  -23.2640  -17.4227 C   0  0  0  0  0  0  0  0  0  0  0  0
   29.8703  -23.2457  -16.2666 C   0  0  0  0  0  0  0  0  0  0  0  0
   29.2567  -22.1149  -15.7753 C   0  0  0  0  0  0  0  0  0  0  0  0
   29.3757  -20.9053  -16.4566 C   0  0  0  0  0  0  0  0  0  0  0  0
   25.9885  -19.1410  -13.9083 C   0  0  0  0  0  0  0  0  0  0  0  0
   25.6187  -17.9719  -13.6322 O   0  0  0  0  0  0  0  0  0  0  0  0
   22.7649  -20.4045  -10.8002 C   0  0  0  0  0  0  0  0  0  0  0  0
   23.6896  -20.5514  -11.9751 C   0  0  2  0  0  0  0  0  0  0  0  0
   23.5941  -21.9933  -12.4294 C   0  0  0  0  0  0  0  0  0  0  0  0
   25.0717  -20.0707  -11.7893 C   0  0  2  0  0  0  0  0  0  0  0  0
   25.8556  -20.2356  -13.0330 N   0  0  0  0  0  0  0  0  0  0  0  0
   25.8757  -20.6556  -10.7243 C   0  0  0  0  0  0  0  0  0  0  0  0
   26.4720  -21.7826  -10.8377 O   0  0  0  0  0  0  0  0  0  0  0  0
   29.7037  -18.1164   -6.0851 C   0  0  0  0  0  0  0  0  0  0  0  0
   28.3819  -18.8786   -5.1079 S   0  0  0  0  0  0  0  0  0  0  0  0
   27.5584  -20.1233   -6.0712 C   0  0  0  0  0  0  0  0  0  0  0  0
   27.1753  -19.7803   -7.4502 C   0  0  0  0  0  0  0  0  0  0  0  0
   26.4690  -20.7914   -8.2924 C   0  0  2  0  0  0  0  0  0  0  0  0
   26.0477  -19.9987   -9.4888 N   0  0  0  0  0  0  0  0  0  0  0  0
   25.2583  -21.3212   -7.6491 C   0  0  0  0  0  0  0  0  0  0  0  0
   25.4046  -22.4104   -6.7496 O   0  0  0  0  0  0  0  0  0  0  0  0
   24.0877  -20.8757   -7.8389 O   0  0  0  0  0  0  0  0  0  0  0  0
  2  1  1  6
  2 13  1  0
  3  2  1  0
  3  4  1  0
  4  5  2  0
  4 12  1  0
  5  6  1  0
  6  7  1  0
  7  8  2  0
  8  9  1  0
 10  9  2  0
 11 10  1  0
 12 11  2  0
 12  7  1  0
 13 19  1  0
 13 14  2  0
 16 18  1  0
 16 15  1  1
 17 16  1  0
 18 20  1  0
 18 19  1  6
 20 21  2  0
 22 23  1  0
 23 24  1  0
 24 25  1  0
 26 25  1  1
 26 28  1  0
 27 26  1  0
 27 20  1  0
 28 29  1  0
 30 28  2  0
M  END
$$$$
