WVM.pdb
     RDKit          3D

 30 31  0  0  1  0  0  0  0  0999 V2000
   28.2242  -20.7154   -9.7491 N   0  0  0  0  0  0  0  0  0  0  0  0
   26.9272  -21.2301   -9.3974 C   0  0  1  0  0  0  0  0  0  0  0  0
   26.5609  -21.0078   -7.9708 C   0  0  0  0  0  0  0  0  0  0  0  0
   27.4653  -20.1482   -7.2038 C   0  0  0  0  0  0  0  0  0  0  0  0
   28.1930  -19.0417   -7.6688 C   0  0  0  0  0  0  0  0  0  0  0  0
   28.8750  -18.5218   -6.6387 N   0  0  0  0  0  0  0  0  0  0  0  0
   28.6375  -19.2336   -5.4968 C   0  0  0  0  0  0  0  0  0  0  0  0
   29.1190  -19.0720   -4.2162 C   0  0  0  0  0  0  0  0  0  0  0  0
   28.7321  -19.9376   -3.2194 C   0  0  0  0  0  0  0  0  0  0  0  0
   27.8610  -20.9441   -3.5707 C   0  0  0  0  0  0  0  0  0  0  0  0
   27.3723  -21.1162   -4.8467 C   0  0  0  0  0  0  0  0  0  0  0  0
   27.7569  -20.2451   -5.8639 C   0  0  0  0  0  0  0  0  0  0  0  0
   25.8363  -20.6308  -10.2443 C   0  0  0  0  0  0  0  0  0  0  0  0
   25.5099  -19.4427   -9.9958 O   0  0  0  0  0  0  0  0  0  0  0  0
   25.7457  -22.3176  -14.0821 C   0  0  0  0  0  0  0  0  0  0  0  0
   25.5102  -20.9089  -13.6166 C   0  0  2  0  0  0  0  0  0  0  0  0
   26.8715  -20.2573  -13.4877 C   0  0  0  0  0  0  0  0  0  0  0  0
   24.6502  -20.7428  -12.4297 C   0  0  2  0  0  0  0  0  0  0  0  0
   25.2451  -21.4144  -11.2535 N   0  0  0  0  0  0  0  0  0  0  0  0
   23.2688  -21.2001  -12.5005 C   0  0  0  0  0  0  0  0  0  0  0  0
   22.8627  -22.2836  -11.9532 O   0  0  0  0  0  0  0  0  0  0  0  0
   18.1461  -17.9056  -10.7449 C   0  0  0  0  0  0  0  0  0  0  0  0
   17.6760  -18.4306  -12.4141 S   0  0  0  0  0  0  0  0  0  0  0  0
   18.5981  -19.8772  -12.8752 C   0  0  0  0  0  0  0  0  0  0  0  0
   20.0670  -19.7906  -12.8488 C   0  0  0  0  0  0  0  0  0  0  0  0
   20.8828  -20.9796  -13.2378 C   0  0  2  0  0  0  0  0  0  0  0  0
   22.2841  -20.4589  -13.1852 N   0  0  0  0  0  0  0  0  0  0  0  0
   20.6158  -21.4272  -14.6121 C   0  0  0  0  0  0  0  0  0  0  0  0
   19.5569  -22.3509  -14.8176 O   0  0  0  0  0  0  0  0  0  0  0  0
   21.2642  -21.0481  -15.6322 O   0  0  0  0  0  0  0  0  0  0  0  0
  2  1  1  6
  2 13  1  0
  3  2  1  0
  3  4  1  0
  4  5  2  0
  4 12  1  0
  5  6  1  0
  6  7  1  0
  7  8  2  0
  8  9  1  0
 10  9  2  0
 11 10  1  0
 12 11  2  0
 12  7  1  0
 13 19  1  0
 13 14  2  0
 16 18  1  0
 16 15  1  1
 17 16  1  0
 18 20  1  0
 18 19  1  1
 20 21  2  0
 22 23  1  0
 23 24  1  0
 24 25  1  0
 26 25  1  6
 26 28  1  0
 27 26  1  0
 27 20  1  0
 28 29  1  0
 30 28  2  0
M  END
$$$$
