WVM.pdb
     RDKit          3D

 30 31  0  0  1  0  0  0  0  0999 V2000
   27.0276  -19.6679  -11.7237 N   0  0  0  0  0  0  0  0  0  0  0  0
   26.3776  -20.9428  -11.5720 C   0  0  1  0  0  0  0  0  0  0  0  0
   25.9105  -21.2161  -10.1843 C   0  0  0  0  0  0  0  0  0  0  0  0
   26.8267  -20.8234   -9.1112 C   0  0  0  0  0  0  0  0  0  0  0  0
   26.5209  -20.1017   -7.9468 C   0  0  0  0  0  0  0  0  0  0  0  0
   27.6400  -19.9802   -7.2192 N   0  0  0  0  0  0  0  0  0  0  0  0
   28.6895  -20.5904   -7.8462 C   0  0  0  0  0  0  0  0  0  0  0  0
   30.0119  -20.7129   -7.4799 C   0  0  0  0  0  0  0  0  0  0  0  0
   30.8953  -21.3788   -8.2974 C   0  0  0  0  0  0  0  0  0  0  0  0
   30.3912  -21.8988   -9.4681 C   0  0  0  0  0  0  0  0  0  0  0  0
   29.0719  -21.7835   -9.8457 C   0  0  0  0  0  0  0  0  0  0  0  0
   28.1681  -21.1118   -9.0251 C   0  0  0  0  0  0  0  0  0  0  0  0
   25.1888  -21.0795  -12.4856 C   0  0  0  0  0  0  0  0  0  0  0  0
   24.5381  -20.0334  -12.7343 O   0  0  0  0  0  0  0  0  0  0  0  0
   24.1423  -23.1559  -16.6252 C   0  0  0  0  0  0  0  0  0  0  0  0
   24.5812  -23.3521  -15.2019 C   0  0  2  0  0  0  0  0  0  0  0  0
   24.3839  -24.8194  -14.8815 C   0  0  0  0  0  0  0  0  0  0  0  0
   24.0013  -22.4360  -14.2018 C   0  0  2  0  0  0  0  0  0  0  0  0
   24.8687  -22.3477  -13.0067 N   0  0  0  0  0  0  0  0  0  0  0  0
   22.6576  -22.7046  -13.7069 C   0  0  0  0  0  0  0  0  0  0  0  0
   22.4174  -23.5041  -12.7366 O   0  0  0  0  0  0  0  0  0  0  0  0
   17.9510  -18.3027  -13.7047 C   0  0  0  0  0  0  0  0  0  0  0  0
   17.0043  -19.7380  -14.2761 S   0  0  0  0  0  0  0  0  0  0  0  0
   17.9015  -21.2314  -13.9292 C   0  0  0  0  0  0  0  0  0  0  0  0
   19.3599  -21.2158  -14.1262 C   0  0  0  0  0  0  0  0  0  0  0  0
   20.1679  -22.4132  -13.7468 C   0  0  2  0  0  0  0  0  0  0  0  0
   21.5273  -22.0847  -14.2776 N   0  0  0  0  0  0  0  0  0  0  0  0
   19.7072  -23.6426  -14.4075 C   0  0  0  0  0  0  0  0  0  0  0  0
   20.1565  -23.8958  -15.7307 O   0  0  0  0  0  0  0  0  0  0  0  0
   18.9347  -24.4976  -13.8811 O   0  0  0  0  0  0  0  0  0  0  0  0
  2  1  1  1
  2 13  1  0
  3  2  1  0
  3  4  1  0
  4  5  2  0
  4 12  1  0
  5  6  1  0
  6  7  1  0
  7  8  2  0
  8  9  1  0
 10  9  2  0
 11 10  1  0
 12 11  2  0
 12  7  1  0
 13 19  1  0
 13 14  2  0
 16 18  1  0
 16 15  1  6
 17 16  1  0
 18 20  1  0
 18 19  1  1
 20 21  2  0
 22 23  1  0
 23 24  1  0
 24 25  1  0
 26 25  1  6
 26 28  1  0
 27 26  1  0
 27 20  1  0
 28 29  1  0
 30 28  2  0
M  END
$$$$
