WVM.pdb
     RDKit          3D

 30 31  0  0  1  0  0  0  0  0999 V2000
   22.5107  -21.9957  -14.1077 N   0  0  0  0  0  0  0  0  0  0  0  0
   23.2520  -20.8862  -13.5691 C   0  0  1  0  0  0  0  0  0  0  0  0
   22.4004  -19.8685  -12.8925 C   0  0  0  0  0  0  0  0  0  0  0  0
   21.6021  -19.0133  -13.7737 C   0  0  0  0  0  0  0  0  0  0  0  0
   20.2030  -18.9197  -13.8369 C   0  0  0  0  0  0  0  0  0  0  0  0
   19.8826  -18.0006  -14.7584 N   0  0  0  0  0  0  0  0  0  0  0  0
   21.0094  -17.4704  -15.3206 C   0  0  0  0  0  0  0  0  0  0  0  0
   21.1650  -16.5137  -16.2995 C   0  0  0  0  0  0  0  0  0  0  0  0
   22.4252  -16.1458  -16.7104 C   0  0  0  0  0  0  0  0  0  0  0  0
   23.4880  -16.7740  -16.1014 C   0  0  0  0  0  0  0  0  0  0  0  0
   23.3461  -17.7314  -15.1218 C   0  0  0  0  0  0  0  0  0  0  0  0
   22.0744  -18.1113  -14.6973 C   0  0  0  0  0  0  0  0  0  0  0  0
   24.2949  -21.3344  -12.5802 C   0  0  0  0  0  0  0  0  0  0  0  0
   23.9772  -22.2679  -11.8009 O   0  0  0  0  0  0  0  0  0  0  0  0
   29.1032  -21.4579  -11.4078 C   0  0  0  0  0  0  0  0  0  0  0  0
   27.9421  -20.9272  -12.1997 C   0  0  2  0  0  0  0  0  0  0  0  0
   28.2301  -19.4653  -12.4725 C   0  0  0  0  0  0  0  0  0  0  0  0
   26.5979  -21.1816  -11.6482 C   0  0  2  0  0  0  0  0  0  0  0  0
   25.5510  -20.6985  -12.5752 N   0  0  0  0  0  0  0  0  0  0  0  0
   26.2653  -20.6311  -10.3409 C   0  0  0  0  0  0  0  0  0  0  0  0
   25.6694  -19.5088  -10.1865 O   0  0  0  0  0  0  0  0  0  0  0  0
   28.4396  -19.7557   -3.3721 C   0  0  0  0  0  0  0  0  0  0  0  0
   28.6075  -20.8664   -4.7938 S   0  0  0  0  0  0  0  0  0  0  0  0
   27.0017  -21.2817   -5.4297 C   0  0  0  0  0  0  0  0  0  0  0  0
   26.8993  -21.6339   -6.8549 C   0  0  0  0  0  0  0  0  0  0  0  0
   26.6256  -20.5644   -7.8608 C   0  0  2  0  0  0  0  0  0  0  0  0
   26.5840  -21.3185   -9.1520 N   0  0  0  0  0  0  0  0  0  0  0  0
   27.7089  -19.5748   -7.9475 C   0  0  0  0  0  0  0  0  0  0  0  0
   27.5017  -18.3062   -7.3437 O   0  0  0  0  0  0  0  0  0  0  0  0
   28.8197  -19.7709   -8.5242 O   0  0  0  0  0  0  0  0  0  0  0  0
  2  1  1  1
  2 13  1  0
  3  2  1  0
  3  4  1  0
  4  5  2  0
  4 12  1  0
  5  6  1  0
  6  7  1  0
  7  8  2  0
  8  9  1  0
 10  9  2  0
 11 10  1  0
 12 11  2  0
 12  7  1  0
 13 19  1  0
 13 14  2  0
 16 18  1  0
 16 15  1  1
 17 16  1  0
 18 20  1  0
 18 19  1  6
 20 21  2  0
 22 23  1  0
 23 24  1  0
 24 25  1  0
 26 25  1  1
 26 28  1  0
 27 26  1  0
 27 20  1  0
 28 29  1  0
 30 28  2  0
M  END
$$$$
