WVM.pdb
     RDKit          3D

 30 31  0  0  1  0  0  0  0  0999 V2000
   24.0621  -20.2535  -10.7541 N   0  0  0  0  0  0  0  0  0  0  0  0
   23.8159  -20.9637   -9.5270 C   0  0  1  0  0  0  0  0  0  0  0  0
   24.5340  -20.3963   -8.3518 C   0  0  0  0  0  0  0  0  0  0  0  0
   25.9946  -20.5004   -8.3823 C   0  0  0  0  0  0  0  0  0  0  0  0
   26.7883  -21.1094   -9.3668 C   0  0  0  0  0  0  0  0  0  0  0  0
   28.0754  -20.9591   -9.0241 N   0  0  0  0  0  0  0  0  0  0  0  0
   28.1824  -20.2737   -7.8469 C   0  0  0  0  0  0  0  0  0  0  0  0
   29.2901  -19.8977   -7.1193 C   0  0  0  0  0  0  0  0  0  0  0  0
   29.1384  -19.2080   -5.9388 C   0  0  0  0  0  0  0  0  0  0  0  0
   27.8506  -18.9260   -5.5422 C   0  0  0  0  0  0  0  0  0  0  0  0
   26.7353  -19.2960   -6.2603 C   0  0  0  0  0  0  0  0  0  0  0  0
   26.8771  -19.9942   -7.4578 C   0  0  0  0  0  0  0  0  0  0  0  0
   22.3501  -21.0048   -9.1860 C   0  0  0  0  0  0  0  0  0  0  0  0
   21.7965  -19.9087   -8.9183 O   0  0  0  0  0  0  0  0  0  0  0  0
   17.9350  -22.1618   -9.8990 C   0  0  0  0  0  0  0  0  0  0  0  0
   19.4262  -22.1523  -10.0816 C   0  0  2  0  0  0  0  0  0  0  0  0
   19.7430  -23.1815  -11.1469 C   0  0  0  0  0  0  0  0  0  0  0  0
   20.2401  -22.2840   -8.8586 C   0  0  2  0  0  0  0  0  0  0  0  0
   21.6831  -22.2447   -9.1826 N   0  0  0  0  0  0  0  0  0  0  0  0
   20.0470  -23.4567   -8.0158 C   0  0  0  0  0  0  0  0  0  0  0  0
   20.7896  -24.4970   -8.0855 O   0  0  0  0  0  0  0  0  0  0  0  0
   19.5842  -24.8608   -1.8612 C   0  0  0  0  0  0  0  0  0  0  0  0
   17.9115  -25.2890   -2.4104 S   0  0  0  0  0  0  0  0  0  0  0  0
   17.9114  -25.6055   -4.1584 C   0  0  0  0  0  0  0  0  0  0  0  0
   18.4477  -24.5596   -5.0440 C   0  0  0  0  0  0  0  0  0  0  0  0
   18.5991  -24.8360   -6.5039 C   0  0  2  0  0  0  0  0  0  0  0  0
   19.0149  -23.5099   -7.0569 N   0  0  0  0  0  0  0  0  0  0  0  0
   17.3327  -25.2184   -7.1444 C   0  0  0  0  0  0  0  0  0  0  0  0
   17.1155  -26.5942   -7.4214 O   0  0  0  0  0  0  0  0  0  0  0  0
   16.4158  -24.4070   -7.4696 O   0  0  0  0  0  0  0  0  0  0  0  0
  2  1  1  6
  2 13  1  0
  3  2  1  0
  3  4  1  0
  4  5  2  0
  4 12  1  0
  5  6  1  0
  6  7  1  0
  7  8  2  0
  8  9  1  0
 10  9  2  0
 11 10  1  0
 12 11  2  0
 12  7  1  0
 13 19  1  0
 13 14  2  0
 16 18  1  0
 16 15  1  1
 17 16  1  0
 18 20  1  0
 18 19  1  6
 20 21  2  0
 22 23  1  0
 23 24  1  0
 24 25  1  0
 26 25  1  1
 26 28  1  0
 27 26  1  0
 27 20  1  0
 28 29  1  0
 30 28  2  0
M  END
$$$$
