WGQ.pdb
     RDKit          3D

 28 29  0  0  1  0  0  0  0  0999 V2000
   24.7407  -18.7300  -17.7417 N   0  0  0  0  0  0  0  0  0  0  0  0
   26.1236  -19.0412  -17.6187 C   0  0  1  0  0  0  0  0  0  0  0  0
   27.0701  -18.0577  -18.2345 C   0  0  0  0  0  0  0  0  0  0  0  0
   26.7163  -17.7574  -19.6388 C   0  0  0  0  0  0  0  0  0  0  0  0
   25.9248  -16.6989  -20.0551 C   0  0  0  0  0  0  0  0  0  0  0  0
   25.8455  -16.7403  -21.3904 N   0  0  0  0  0  0  0  0  0  0  0  0
   26.5528  -17.7823  -21.8546 C   0  0  0  0  0  0  0  0  0  0  0  0
   26.7762  -18.2508  -23.1550 C   0  0  0  0  0  0  0  0  0  0  0  0
   27.5489  -19.3664  -23.3843 C   0  0  0  0  0  0  0  0  0  0  0  0
   28.0823  -19.9892  -22.2910 C   0  0  0  0  0  0  0  0  0  0  0  0
   27.8794  -19.5509  -21.0041 C   0  0  0  0  0  0  0  0  0  0  0  0
   27.0958  -18.4191  -20.7784 C   0  0  0  0  0  0  0  0  0  0  0  0
   26.5180  -19.3022  -16.1977 C   0  0  0  0  0  0  0  0  0  0  0  0
   26.2152  -18.4600  -15.3176 O   0  0  0  0  0  0  0  0  0  0  0  0
   27.2217  -20.4666  -15.8059 N   0  0  0  0  0  0  0  0  0  0  0  0
   27.5622  -20.7213  -14.4516 C   0  0  0  0  0  0  0  0  0  0  0  0
   26.4808  -21.1108  -13.5493 C   0  0  0  0  0  0  0  0  0  0  0  0
   25.3729  -21.3978  -14.0523 O   0  0  0  0  0  0  0  0  0  0  0  0
   25.2608  -20.9281   -7.3945 N   0  0  0  0  0  0  0  0  0  0  0  0
   26.1592  -20.0179   -7.9929 C   0  0  0  0  0  0  0  0  0  0  0  0
   26.4391  -18.9513   -7.3994 O   0  0  0  0  0  0  0  0  0  0  0  0
   26.7337  -20.3899   -9.3257 C   0  0  0  0  0  0  0  0  0  0  0  0
   26.2230  -21.7097   -9.7956 C   0  0  0  0  0  0  0  0  0  0  0  0
   25.6731  -21.5719  -11.1757 C   0  0  2  0  0  0  0  0  0  0  0  0
   26.6543  -21.1730  -12.1494 N   0  0  0  0  0  0  0  0  0  0  0  0
   24.4137  -20.7997  -11.1866 C   0  0  0  0  0  0  0  0  0  0  0  0
   24.4343  -19.5217  -11.7183 O   0  0  0  0  0  0  0  0  0  0  0  0
   23.3609  -21.2510  -10.7437 O   0  0  0  0  0  0  0  0  0  0  0  0
  2  1  1  1
  3  4  1  0
  3  2  1  0
  4  5  2  0
  6  5  1  0
  7  6  1  0
  8  7  2  0
  9  8  1  0
 10  9  2  0
 10 11  1  0
 11 12  2  0
 12  7  1  0
 12  4  1  0
 13 15  1  0
 13  2  1  0
 14 13  2  0
 16 15  1  0
 17 16  1  0
 17 25  1  0
 18 17  2  0
 19 20  1  0
 20 21  2  0
 22 23  1  0
 22 20  1  0
 24 23  1  1
 24 25  1  0
 24 26  1  0
 26 27  1  0
 28 26  2  0
M  END
$$$$
