WGQ.pdb
     RDKit          3D

 28 29  0  0  1  0  0  0  0  0999 V2000
   20.1703  -19.5874  -13.9153 N   0  0  0  0  0  0  0  0  0  0  0  0
   20.8322  -20.8090  -14.2220 C   0  0  1  0  0  0  0  0  0  0  0  0
   22.2394  -20.6811  -14.7177 C   0  0  0  0  0  0  0  0  0  0  0  0
   22.3256  -19.8162  -15.9143 C   0  0  0  0  0  0  0  0  0  0  0  0
   22.6781  -18.4761  -15.9085 C   0  0  0  0  0  0  0  0  0  0  0  0
   22.6658  -18.0384  -17.1732 N   0  0  0  0  0  0  0  0  0  0  0  0
   22.3195  -19.0403  -17.9964 C   0  0  0  0  0  0  0  0  0  0  0  0
   22.1616  -19.0908  -19.3868 C   0  0  0  0  0  0  0  0  0  0  0  0
   21.7865  -20.2557  -20.0164 C   0  0  0  0  0  0  0  0  0  0  0  0
   21.5773  -21.3507  -19.2259 C   0  0  0  0  0  0  0  0  0  0  0  0
   21.7252  -21.3293  -17.8595 C   0  0  0  0  0  0  0  0  0  0  0  0
   22.1063  -20.1456  -17.2273 C   0  0  0  0  0  0  0  0  0  0  0  0
   20.7833  -21.7780  -13.0811 C   0  0  0  0  0  0  0  0  0  0  0  0
   21.1216  -21.3884  -11.9368 O   0  0  0  0  0  0  0  0  0  0  0  0
   20.3683  -23.1219  -13.2426 N   0  0  0  0  0  0  0  0  0  0  0  0
   20.3851  -24.0501  -12.1688 C   0  0  0  0  0  0  0  0  0  0  0  0
   19.1487  -24.2197  -11.4087 C   0  0  0  0  0  0  0  0  0  0  0  0
   18.0672  -23.9810  -11.9885 O   0  0  0  0  0  0  0  0  0  0  0  0
   18.8196  -25.5945   -5.1738 N   0  0  0  0  0  0  0  0  0  0  0  0
   17.4564  -25.4833   -5.5244 C   0  0  0  0  0  0  0  0  0  0  0  0
   16.5802  -25.6649   -4.6482 O   0  0  0  0  0  0  0  0  0  0  0  0
   17.1347  -25.1487   -6.9489 C   0  0  0  0  0  0  0  0  0  0  0  0
   18.3696  -24.9129   -7.7507 C   0  0  0  0  0  0  0  0  0  0  0  0
   18.0069  -24.7214   -9.1853 C   0  0  2  0  0  0  0  0  0  0  0  0
   19.1454  -24.6420  -10.0613 N   0  0  0  0  0  0  0  0  0  0  0  0
   16.9964  -23.6573   -9.3552 C   0  0  0  0  0  0  0  0  0  0  0  0
   15.6671  -24.0283   -9.4624 O   0  0  0  0  0  0  0  0  0  0  0  0
   17.2955  -22.4672   -9.4039 O   0  0  0  0  0  0  0  0  0  0  0  0
  2  1  1  1
  3  4  1  0
  3  2  1  0
  4  5  2  0
  6  5  1  0
  7  6  1  0
  8  7  2  0
  9  8  1  0
 10  9  2  0
 10 11  1  0
 11 12  2  0
 12  7  1  0
 12  4  1  0
 13 15  1  0
 13  2  1  0
 14 13  2  0
 16 15  1  0
 17 16  1  0
 17 25  1  0
 18 17  2  0
 19 20  1  0
 20 21  2  0
 22 23  1  0
 22 20  1  0
 24 23  1  1
 24 25  1  0
 24 26  1  0
 26 27  1  0
 28 26  2  0
M  END
$$$$
