WGQ.pdb
     RDKit          3D

 28 29  0  0  1  0  0  0  0  0999 V2000
   24.5406  -20.9066   -9.3458 N   0  0  0  0  0  0  0  0  0  0  0  0
   25.7088  -20.1042   -9.4715 C   0  0  1  0  0  0  0  0  0  0  0  0
   26.9288  -20.6148   -8.7692 C   0  0  0  0  0  0  0  0  0  0  0  0
   26.7631  -20.6049   -7.2995 C   0  0  0  0  0  0  0  0  0  0  0  0
   25.8106  -21.3261   -6.5974 C   0  0  0  0  0  0  0  0  0  0  0  0
   25.9821  -21.0799   -5.2931 N   0  0  0  0  0  0  0  0  0  0  0  0
   27.0059  -20.2289   -5.1231 C   0  0  0  0  0  0  0  0  0  0  0  0
   27.5694  -19.6686   -3.9702 C   0  0  0  0  0  0  0  0  0  0  0  0
   28.6330  -18.7987   -4.0511 C   0  0  0  0  0  0  0  0  0  0  0  0
   29.1078  -18.5109   -5.2998 C   0  0  0  0  0  0  0  0  0  0  0  0
   28.5740  -19.0465   -6.4477 C   0  0  0  0  0  0  0  0  0  0  0  0
   27.4965  -19.9281   -6.3590 C   0  0  0  0  0  0  0  0  0  0  0  0
   26.0359  -19.8054  -10.9022 C   0  0  0  0  0  0  0  0  0  0  0  0
   27.0636  -19.1340  -11.1640 O   0  0  0  0  0  0  0  0  0  0  0  0
   25.2286  -20.2527  -11.9758 N   0  0  0  0  0  0  0  0  0  0  0  0
   25.4620  -19.8446  -13.3151 C   0  0  0  0  0  0  0  0  0  0  0  0
   24.6035  -20.4161  -14.3503 C   0  0  0  0  0  0  0  0  0  0  0  0
   23.5537  -20.9909  -13.9893 O   0  0  0  0  0  0  0  0  0  0  0  0
   25.2339  -24.2248  -14.8193 N   0  0  0  0  0  0  0  0  0  0  0  0
   25.9304  -23.3423  -15.6736 C   0  0  0  0  0  0  0  0  0  0  0  0
   27.0409  -22.8885  -15.3144 O   0  0  0  0  0  0  0  0  0  0  0  0
   25.2871  -22.9959  -16.9816 C   0  0  0  0  0  0  0  0  0  0  0  0
   23.9688  -22.3272  -16.7860 C   0  0  0  0  0  0  0  0  0  0  0  0
   24.1477  -20.8463  -16.8214 C   0  0  2  0  0  0  0  0  0  0  0  0
   24.9231  -20.3337  -15.7232 N   0  0  0  0  0  0  0  0  0  0  0  0
   22.8717  -20.1486  -17.0812 C   0  0  0  0  0  0  0  0  0  0  0  0
   22.8056  -19.2865  -18.1623 O   0  0  0  0  0  0  0  0  0  0  0  0
   21.8790  -20.3077  -16.3760 O   0  0  0  0  0  0  0  0  0  0  0  0
  2  1  1  6
  3  4  1  0
  3  2  1  0
  4  5  2  0
  6  5  1  0
  7  6  1  0
  8  7  2  0
  9  8  1  0
 10  9  2  0
 10 11  1  0
 11 12  2  0
 12  7  1  0
 12  4  1  0
 13 15  1  0
 13  2  1  0
 14 13  2  0
 16 15  1  0
 17 16  1  0
 17 25  1  0
 18 17  2  0
 19 20  1  0
 20 21  2  0
 22 23  1  0
 22 20  1  0
 24 23  1  1
 24 25  1  0
 24 26  1  0
 26 27  1  0
 28 26  2  0
M  END
$$$$
