WGQ.pdb
     RDKit          3D

 28 29  0  0  1  0  0  0  0  0999 V2000
   27.1151  -19.0388  -18.2408 N   0  0  0  0  0  0  0  0  0  0  0  0
   26.5815  -18.5591  -17.0121 C   0  0  1  0  0  0  0  0  0  0  0  0
   25.0895  -18.4500  -16.9480 C   0  0  0  0  0  0  0  0  0  0  0  0
   24.5729  -17.4119  -17.8660 C   0  0  0  0  0  0  0  0  0  0  0  0
   24.9471  -16.0776  -17.8559 C   0  0  0  0  0  0  0  0  0  0  0  0
   24.2878  -15.4544  -18.8398 N   0  0  0  0  0  0  0  0  0  0  0  0
   23.5024  -16.3306  -19.4853 C   0  0  0  0  0  0  0  0  0  0  0  0
   22.6265  -16.1751  -20.5666 C   0  0  0  0  0  0  0  0  0  0  0  0
   21.9109  -17.2427  -21.0591 C   0  0  0  0  0  0  0  0  0  0  0  0
   22.0948  -18.4506  -20.4469 C   0  0  0  0  0  0  0  0  0  0  0  0
   22.9480  -18.6314  -19.3844 C   0  0  0  0  0  0  0  0  0  0  0  0
   23.6710  -17.5456  -18.8904 C   0  0  0  0  0  0  0  0  0  0  0  0
   27.0831  -19.3404  -15.8370 C   0  0  0  0  0  0  0  0  0  0  0  0
   26.7223  -20.5351  -15.7017 O   0  0  0  0  0  0  0  0  0  0  0  0
   27.9524  -18.7828  -14.8686 N   0  0  0  0  0  0  0  0  0  0  0  0
   28.4442  -19.5391  -13.7727 C   0  0  0  0  0  0  0  0  0  0  0  0
   27.4594  -20.1356  -12.8729 C   0  0  0  0  0  0  0  0  0  0  0  0
   26.9678  -21.2400  -13.1917 O   0  0  0  0  0  0  0  0  0  0  0  0
   22.9434  -22.2980  -12.2836 N   0  0  0  0  0  0  0  0  0  0  0  0
   22.8043  -21.8599  -10.9486 C   0  0  0  0  0  0  0  0  0  0  0  0
   21.7470  -22.1120  -10.3266 O   0  0  0  0  0  0  0  0  0  0  0  0
   23.9505  -21.1064  -10.3461 C   0  0  0  0  0  0  0  0  0  0  0  0
   25.0092  -20.8163  -11.3554 C   0  0  0  0  0  0  0  0  0  0  0  0
   26.0839  -19.9906  -10.7314 C   0  0  2  0  0  0  0  0  0  0  0  0
   27.0593  -19.5085  -11.6728 N   0  0  0  0  0  0  0  0  0  0  0  0
   26.6314  -20.6334   -9.5191 C   0  0  0  0  0  0  0  0  0  0  0  0
   26.6458  -19.9050   -8.3420 O   0  0  0  0  0  0  0  0  0  0  0  0
   27.0693  -21.7807   -9.5231 O   0  0  0  0  0  0  0  0  0  0  0  0
  2  1  1  6
  3  4  1  0
  3  2  1  0
  4  5  2  0
  6  5  1  0
  7  6  1  0
  8  7  2  0
  9  8  1  0
 10  9  2  0
 10 11  1  0
 11 12  2  0
 12  7  1  0
 12  4  1  0
 13 15  1  0
 13  2  1  0
 14 13  2  0
 16 15  1  0
 17 16  1  0
 17 25  1  0
 18 17  2  0
 19 20  1  0
 20 21  2  0
 22 23  1  0
 22 20  1  0
 24 23  1  6
 24 25  1  0
 24 26  1  0
 26 27  1  0
 28 26  2  0
M  END
$$$$
