WGQ.pdb
     RDKit          3D

 28 29  0  0  1  0  0  0  0  0999 V2000
   26.1484  -22.6597  -12.2785 N   0  0  0  0  0  0  0  0  0  0  0  0
   25.6973  -21.5524  -11.5072 C   0  0  1  0  0  0  0  0  0  0  0  0
   26.6569  -20.4094  -11.3846 C   0  0  0  0  0  0  0  0  0  0  0  0
   27.8070  -20.7460  -10.5178 C   0  0  0  0  0  0  0  0  0  0  0  0
   28.9860  -21.3347  -10.9465 C   0  0  0  0  0  0  0  0  0  0  0  0
   29.7938  -21.4648   -9.8874 N   0  0  0  0  0  0  0  0  0  0  0  0
   29.1854  -20.9849   -8.7915 C   0  0  0  0  0  0  0  0  0  0  0  0
   29.6023  -20.8982   -7.4576 C   0  0  0  0  0  0  0  0  0  0  0  0
   28.7827  -20.3603   -6.4916 C   0  0  0  0  0  0  0  0  0  0  0  0
   27.5533  -19.9193   -6.8939 C   0  0  0  0  0  0  0  0  0  0  0  0
   27.1188  -19.9920   -8.1959 C   0  0  0  0  0  0  0  0  0  0  0  0
   27.9546  -20.5376   -9.1705 C   0  0  0  0  0  0  0  0  0  0  0  0
   24.3655  -21.0481  -11.9709 C   0  0  0  0  0  0  0  0  0  0  0  0
   24.1851  -20.8443  -13.1962 O   0  0  0  0  0  0  0  0  0  0  0  0
   23.2972  -20.7914  -11.0781 N   0  0  0  0  0  0  0  0  0  0  0  0
   22.0243  -20.3563  -11.5313 C   0  0  0  0  0  0  0  0  0  0  0  0
   21.1003  -21.3778  -12.0192 C   0  0  0  0  0  0  0  0  0  0  0  0
   21.4123  -22.0027  -13.0561 O   0  0  0  0  0  0  0  0  0  0  0  0
   19.2400  -24.3040   -7.2221 N   0  0  0  0  0  0  0  0  0  0  0  0
   18.2526  -24.2642   -8.2306 C   0  0  0  0  0  0  0  0  0  0  0  0
   17.3022  -25.0787   -8.1920 O   0  0  0  0  0  0  0  0  0  0  0  0
   18.4044  -23.2314   -9.3053 C   0  0  0  0  0  0  0  0  0  0  0  0
   19.0018  -23.8095  -10.5432 C   0  0  0  0  0  0  0  0  0  0  0  0
   19.0089  -22.7810  -11.6240 C   0  0  2  0  0  0  0  0  0  0  0  0
   19.8877  -21.6731  -11.3588 N   0  0  0  0  0  0  0  0  0  0  0  0
   17.6389  -22.4215  -12.0441 C   0  0  0  0  0  0  0  0  0  0  0  0
   16.8596  -23.3983  -12.6397 O   0  0  0  0  0  0  0  0  0  0  0  0
   17.1752  -21.2958  -11.8832 O   0  0  0  0  0  0  0  0  0  0  0  0
  2  1  1  6
  3  4  1  0
  3  2  1  0
  4  5  2  0
  6  5  1  0
  7  6  1  0
  8  7  2  0
  9  8  1  0
 10  9  2  0
 10 11  1  0
 11 12  2  0
 12  7  1  0
 12  4  1  0
 13 15  1  0
 13  2  1  0
 14 13  2  0
 16 15  1  0
 17 16  1  0
 17 25  1  0
 18 17  2  0
 19 20  1  0
 20 21  2  0
 22 23  1  0
 22 20  1  0
 24 23  1  1
 24 25  1  0
 24 26  1  0
 26 27  1  0
 28 26  2  0
M  END
$$$$
