WGQ.pdb
     RDKit          3D

 28 29  0  0  1  0  0  0  0  0999 V2000
   28.3049  -20.8435   -9.2265 N   0  0  0  0  0  0  0  0  0  0  0  0
   26.8893  -20.7356   -9.1325 C   0  0  1  0  0  0  0  0  0  0  0  0
   26.3748  -19.5471   -8.3809 C   0  0  0  0  0  0  0  0  0  0  0  0
   27.2785  -19.1607   -7.2756 C   0  0  0  0  0  0  0  0  0  0  0  0
   27.4497  -17.8719   -6.7962 C   0  0  0  0  0  0  0  0  0  0  0  0
   28.3262  -17.9181   -5.7859 N   0  0  0  0  0  0  0  0  0  0  0  0
   28.7290  -19.1837   -5.5926 C   0  0  0  0  0  0  0  0  0  0  0  0
   29.6269  -19.7455   -4.6767 C   0  0  0  0  0  0  0  0  0  0  0  0
   29.8871  -21.0971   -4.6762 C   0  0  0  0  0  0  0  0  0  0  0  0
   29.2328  -21.8570   -5.6047 C   0  0  0  0  0  0  0  0  0  0  0  0
   28.3467  -21.3318   -6.5149 C   0  0  0  0  0  0  0  0  0  0  0  0
   28.0867  -19.9613   -6.5098 C   0  0  0  0  0  0  0  0  0  0  0  0
   26.2282  -20.8112  -10.4743 C   0  0  0  0  0  0  0  0  0  0  0  0
   25.0680  -20.3511  -10.6078 O   0  0  0  0  0  0  0  0  0  0  0  0
   26.8630  -21.3831  -11.6032 N   0  0  0  0  0  0  0  0  0  0  0  0
   26.2397  -21.4243  -12.8779 C   0  0  0  0  0  0  0  0  0  0  0  0
   24.9223  -22.0508  -12.9610 C   0  0  0  0  0  0  0  0  0  0  0  0
   24.7896  -23.2007  -12.4887 O   0  0  0  0  0  0  0  0  0  0  0  0
   20.7420  -22.6553   -9.2149 N   0  0  0  0  0  0  0  0  0  0  0  0
   20.6212  -22.4021  -10.5988 C   0  0  0  0  0  0  0  0  0  0  0  0
   20.1961  -23.3064  -11.3537 O   0  0  0  0  0  0  0  0  0  0  0  0
   21.0162  -21.0427  -11.0892 C   0  0  0  0  0  0  0  0  0  0  0  0
   22.4308  -21.0175  -11.5600 C   0  0  0  0  0  0  0  0  0  0  0  0
   22.4791  -21.3252  -13.0192 C   0  0  2  0  0  0  0  0  0  0  0  0
   23.8150  -21.4002  -13.5479 N   0  0  0  0  0  0  0  0  0  0  0  0
   21.5365  -20.4846  -13.7856 C   0  0  0  0  0  0  0  0  0  0  0  0
   20.3191  -21.0330  -14.1512 O   0  0  0  0  0  0  0  0  0  0  0  0
   21.7963  -19.3276  -14.1048 O   0  0  0  0  0  0  0  0  0  0  0  0
  2  1  1  6
  3  4  1  0
  3  2  1  0
  4  5  2  0
  6  5  1  0
  7  6  1  0
  8  7  2  0
  9  8  1  0
 10  9  2  0
 10 11  1  0
 11 12  2  0
 12  7  1  0
 12  4  1  0
 13 15  1  0
 13  2  1  0
 14 13  2  0
 16 15  1  0
 17 16  1  0
 17 25  1  0
 18 17  2  0
 19 20  1  0
 20 21  2  0
 22 23  1  0
 22 20  1  0
 24 23  1  1
 24 25  1  0
 24 26  1  0
 26 27  1  0
 28 26  2  0
M  END
$$$$
