WGQ.pdb
     RDKit          3D

 28 29  0  0  1  0  0  0  0  0999 V2000
   25.5220  -22.6101  -11.8805 N   0  0  0  0  0  0  0  0  0  0  0  0
   24.9949  -21.4143  -11.3179 C   0  0  1  0  0  0  0  0  0  0  0  0
   25.9006  -20.2223  -11.3549 C   0  0  0  0  0  0  0  0  0  0  0  0
   27.1313  -20.4407  -10.5642 C   0  0  0  0  0  0  0  0  0  0  0  0
   28.3649  -20.7948  -11.0866 C   0  0  0  0  0  0  0  0  0  0  0  0
   29.2352  -20.8810  -10.0735 N   0  0  0  0  0  0  0  0  0  0  0  0
   28.6149  -20.5976   -8.9176 C   0  0  0  0  0  0  0  0  0  0  0  0
   29.0794  -20.5561   -7.5973 C   0  0  0  0  0  0  0  0  0  0  0  0
   28.2351  -20.2389   -6.5577 C   0  0  0  0  0  0  0  0  0  0  0  0
   26.9331  -19.9691   -6.8738 C   0  0  0  0  0  0  0  0  0  0  0  0
   26.4507  -20.0023   -8.1605 C   0  0  0  0  0  0  0  0  0  0  0  0
   27.3117  -20.3239   -9.2098 C   0  0  0  0  0  0  0  0  0  0  0  0
   23.6629  -21.0564  -11.9016 C   0  0  0  0  0  0  0  0  0  0  0  0
   23.3135  -21.5809  -12.9872 O   0  0  0  0  0  0  0  0  0  0  0  0
   22.7780  -20.1465  -11.2745 N   0  0  0  0  0  0  0  0  0  0  0  0
   21.5252  -19.7994  -11.8445 C   0  0  0  0  0  0  0  0  0  0  0  0
   21.4623  -19.6690  -13.2986 C   0  0  0  0  0  0  0  0  0  0  0  0
   22.1287  -18.7569  -13.8342 O   0  0  0  0  0  0  0  0  0  0  0  0
   22.7167  -23.8131  -17.1464 N   0  0  0  0  0  0  0  0  0  0  0  0
   22.3773  -22.7976  -18.0669 C   0  0  0  0  0  0  0  0  0  0  0  0
   22.4977  -23.0160  -19.2941 O   0  0  0  0  0  0  0  0  0  0  0  0
   21.8850  -21.4969  -17.5098 C   0  0  0  0  0  0  0  0  0  0  0  0
   21.8537  -21.5139  -16.0190 C   0  0  0  0  0  0  0  0  0  0  0  0
   20.7322  -20.6591  -15.5314 C   0  0  2  0  0  0  0  0  0  0  0  0
   20.6844  -20.5339  -14.0990 N   0  0  0  0  0  0  0  0  0  0  0  0
   19.4542  -21.0115  -16.1834 C   0  0  0  0  0  0  0  0  0  0  0  0
   19.2254  -20.5488  -17.4679 O   0  0  0  0  0  0  0  0  0  0  0  0
   18.5981  -21.6945  -15.6277 O   0  0  0  0  0  0  0  0  0  0  0  0
  2  1  1  6
  3  4  1  0
  3  2  1  0
  4  5  2  0
  6  5  1  0
  7  6  1  0
  8  7  2  0
  9  8  1  0
 10  9  2  0
 10 11  1  0
 11 12  2  0
 12  7  1  0
 12  4  1  0
 13 15  1  0
 13  2  1  0
 14 13  2  0
 16 15  1  0
 17 16  1  0
 17 25  1  0
 18 17  2  0
 19 20  1  0
 20 21  2  0
 22 23  1  0
 22 20  1  0
 24 23  1  1
 24 25  1  0
 24 26  1  0
 26 27  1  0
 28 26  2  0
M  END
$$$$
