WGQ.pdb
     RDKit          3D

 28 29  0  0  1  0  0  0  0  0999 V2000
   27.3212  -22.4116   -9.9158 N   0  0  0  0  0  0  0  0  0  0  0  0
   26.9670  -21.0339   -9.9496 C   0  0  1  0  0  0  0  0  0  0  0  0
   28.1054  -20.0659   -9.8544 C   0  0  0  0  0  0  0  0  0  0  0  0
   28.9738  -20.3491   -8.6912 C   0  0  0  0  0  0  0  0  0  0  0  0
   30.1890  -21.0131   -8.7434 C   0  0  0  0  0  0  0  0  0  0  0  0
   30.6890  -21.0613   -7.5029 N   0  0  0  0  0  0  0  0  0  0  0  0
   29.8470  -20.4562   -6.6508 C   0  0  0  0  0  0  0  0  0  0  0  0
   29.9113  -20.2495   -5.2674 C   0  0  0  0  0  0  0  0  0  0  0  0
   28.9020  -19.5933   -4.6004 C   0  0  0  0  0  0  0  0  0  0  0  0
   27.8436  -19.1574   -5.3470 C   0  0  0  0  0  0  0  0  0  0  0  0
   27.7548  -19.3465   -6.7056 C   0  0  0  0  0  0  0  0  0  0  0  0
   28.7815  -20.0118   -7.3759 C   0  0  0  0  0  0  0  0  0  0  0  0
   26.1160  -20.7000  -11.1359 C   0  0  0  0  0  0  0  0  0  0  0  0
   25.7826  -19.5053  -11.3286 O   0  0  0  0  0  0  0  0  0  0  0  0
   25.6713  -21.6826  -12.0530 N   0  0  0  0  0  0  0  0  0  0  0  0
   24.8867  -21.3530  -13.1890 C   0  0  0  0  0  0  0  0  0  0  0  0
   23.4706  -21.0687  -12.9673 C   0  0  0  0  0  0  0  0  0  0  0  0
   22.9804  -21.3660  -11.8563 O   0  0  0  0  0  0  0  0  0  0  0  0
   20.1407  -17.1813  -16.5668 N   0  0  0  0  0  0  0  0  0  0  0  0
   21.3233  -16.9522  -15.8299 C   0  0  0  0  0  0  0  0  0  0  0  0
   21.9658  -15.8931  -16.0137 O   0  0  0  0  0  0  0  0  0  0  0  0
   21.7453  -18.0090  -14.8555 C   0  0  0  0  0  0  0  0  0  0  0  0
   20.7885  -19.1525  -14.8356 C   0  0  0  0  0  0  0  0  0  0  0  0
   21.2537  -20.1786  -13.8574 C   0  0  2  0  0  0  0  0  0  0  0  0
   22.6581  -20.4746  -13.9576 N   0  0  0  0  0  0  0  0  0  0  0  0
   20.3557  -21.3512  -13.8280 C   0  0  0  0  0  0  0  0  0  0  0  0
   19.1418  -21.2296  -13.1738 O   0  0  0  0  0  0  0  0  0  0  0  0
   20.6491  -22.4185  -14.3599 O   0  0  0  0  0  0  0  0  0  0  0  0
  2  1  1  6
  3  4  1  0
  3  2  1  0
  4  5  2  0
  6  5  1  0
  7  6  1  0
  8  7  2  0
  9  8  1  0
 10  9  2  0
 10 11  1  0
 11 12  2  0
 12  7  1  0
 12  4  1  0
 13 15  1  0
 13  2  1  0
 14 13  2  0
 16 15  1  0
 17 16  1  0
 17 25  1  0
 18 17  2  0
 19 20  1  0
 20 21  2  0
 22 23  1  0
 22 20  1  0
 24 23  1  6
 24 25  1  0
 24 26  1  0
 26 27  1  0
 28 26  2  0
M  END
$$$$
