WGQ.pdb
     RDKit          3D

 28 29  0  0  1  0  0  0  0  0999 V2000
   25.6287  -22.0674  -14.1370 N   0  0  0  0  0  0  0  0  0  0  0  0
   25.1832  -21.2206  -13.0839 C   0  0  1  0  0  0  0  0  0  0  0  0
   25.9898  -19.9789  -12.8606 C   0  0  0  0  0  0  0  0  0  0  0  0
   27.3717  -20.2888  -12.4343 C   0  0  0  0  0  0  0  0  0  0  0  0
   28.4772  -20.3233  -13.2692 C   0  0  0  0  0  0  0  0  0  0  0  0
   29.5500  -20.6174  -12.5251 N   0  0  0  0  0  0  0  0  0  0  0  0
   29.1836  -20.7749  -11.2436 C   0  0  0  0  0  0  0  0  0  0  0  0
   29.9217  -21.0887  -10.0958 C   0  0  0  0  0  0  0  0  0  0  0  0
   29.3100  -21.2039   -8.8683 C   0  0  0  0  0  0  0  0  0  0  0  0
   27.9595  -20.9992   -8.8245 C   0  0  0  0  0  0  0  0  0  0  0  0
   27.2108  -20.6900   -9.9351 C   0  0  0  0  0  0  0  0  0  0  0  0
   27.8369  -20.5740  -11.1762 C   0  0  0  0  0  0  0  0  0  0  0  0
   23.7347  -20.8656  -13.2211 C   0  0  0  0  0  0  0  0  0  0  0  0
   23.2890  -20.5539  -14.3524 O   0  0  0  0  0  0  0  0  0  0  0  0
   22.8440  -20.8682  -12.1206 N   0  0  0  0  0  0  0  0  0  0  0  0
   21.4636  -20.5718  -12.2676 C   0  0  0  0  0  0  0  0  0  0  0  0
   20.5901  -21.6511  -12.7231 C   0  0  0  0  0  0  0  0  0  0  0  0
   21.0565  -22.4786  -13.5360 O   0  0  0  0  0  0  0  0  0  0  0  0
   19.7306  -23.9912   -8.4510 N   0  0  0  0  0  0  0  0  0  0  0  0
   19.0433  -23.3266   -9.4901 C   0  0  0  0  0  0  0  0  0  0  0  0
   18.8706  -22.0883   -9.4183 O   0  0  0  0  0  0  0  0  0  0  0  0
   18.5534  -24.1579  -10.6362 C   0  0  0  0  0  0  0  0  0  0  0  0
   17.5928  -23.4036  -11.4916 C   0  0  0  0  0  0  0  0  0  0  0  0
   18.3172  -22.8033  -12.6497 C   0  0  2  0  0  0  0  0  0  0  0  0
   19.2580  -21.7818  -12.2735 N   0  0  0  0  0  0  0  0  0  0  0  0
   17.3931  -22.4463  -13.7457 C   0  0  0  0  0  0  0  0  0  0  0  0
   16.6933  -23.4649  -14.3694 O   0  0  0  0  0  0  0  0  0  0  0  0
   17.2284  -21.2872  -14.1166 O   0  0  0  0  0  0  0  0  0  0  0  0
  2  1  1  6
  3  4  1  0
  3  2  1  0
  4  5  2  0
  6  5  1  0
  7  6  1  0
  8  7  2  0
  9  8  1  0
 10  9  2  0
 10 11  1  0
 11 12  2  0
 12  7  1  0
 12  4  1  0
 13 15  1  0
 13  2  1  0
 14 13  2  0
 16 15  1  0
 17 16  1  0
 17 25  1  0
 18 17  2  0
 19 20  1  0
 20 21  2  0
 22 23  1  0
 22 20  1  0
 24 23  1  1
 24 25  1  0
 24 26  1  0
 26 27  1  0
 28 26  2  0
M  END
$$$$
