WGQ.pdb
     RDKit          3D

 28 29  0  0  1  0  0  0  0  0999 V2000
   19.2921  -18.8338  -14.1687 N   0  0  0  0  0  0  0  0  0  0  0  0
   20.5062  -19.3999  -14.6481 C   0  0  1  0  0  0  0  0  0  0  0  0
   21.2020  -18.6309  -15.7283 C   0  0  0  0  0  0  0  0  0  0  0  0
   20.3611  -18.4955  -16.9374 C   0  0  0  0  0  0  0  0  0  0  0  0
   19.6099  -17.3790  -17.2680 C   0  0  0  0  0  0  0  0  0  0  0  0
   19.0029  -17.6185  -18.4364 N   0  0  0  0  0  0  0  0  0  0  0  0
   19.3304  -18.8440  -18.8747 C   0  0  0  0  0  0  0  0  0  0  0  0
   18.9585  -19.5521  -20.0241 C   0  0  0  0  0  0  0  0  0  0  0  0
   19.4294  -20.8242  -20.2570 C   0  0  0  0  0  0  0  0  0  0  0  0
   20.2696  -21.3579  -19.3206 C   0  0  0  0  0  0  0  0  0  0  0  0
   20.6509  -20.6854  -18.1840 C   0  0  0  0  0  0  0  0  0  0  0  0
   20.1707  -19.3960  -17.9540 C   0  0  0  0  0  0  0  0  0  0  0  0
   21.4669  -19.6956  -13.5378 C   0  0  0  0  0  0  0  0  0  0  0  0
   22.6692  -19.3593  -13.6677 O   0  0  0  0  0  0  0  0  0  0  0  0
   21.0708  -20.3417  -12.3420 N   0  0  0  0  0  0  0  0  0  0  0  0
   21.9948  -20.6464  -11.3083 C   0  0  0  0  0  0  0  0  0  0  0  0
   21.4652  -21.2670  -10.0960 C   0  0  0  0  0  0  0  0  0  0  0  0
   22.2822  -21.6848   -9.2470 O   0  0  0  0  0  0  0  0  0  0  0  0
   15.9676  -24.0925   -6.6441 N   0  0  0  0  0  0  0  0  0  0  0  0
   16.1058  -23.5941   -7.9580 C   0  0  0  0  0  0  0  0  0  0  0  0
   15.1236  -23.0537   -8.5162 O   0  0  0  0  0  0  0  0  0  0  0  0
   17.4429  -23.7447   -8.6167 C   0  0  0  0  0  0  0  0  0  0  0  0
   18.0479  -22.4212   -8.9422 C   0  0  0  0  0  0  0  0  0  0  0  0
   19.3587  -22.6236   -9.6255 C   0  0  2  0  0  0  0  0  0  0  0  0
   20.0791  -21.4010   -9.8629 N   0  0  0  0  0  0  0  0  0  0  0  0
   19.2342  -23.5261  -10.7885 C   0  0  0  0  0  0  0  0  0  0  0  0
   18.5340  -23.0756  -11.8944 O   0  0  0  0  0  0  0  0  0  0  0  0
   19.7268  -24.6509  -10.8045 O   0  0  0  0  0  0  0  0  0  0  0  0
  2  1  1  1
  3  4  1  0
  3  2  1  0
  4  5  2  0
  6  5  1  0
  7  6  1  0
  8  7  2  0
  9  8  1  0
 10  9  2  0
 10 11  1  0
 11 12  2  0
 12  7  1  0
 12  4  1  0
 13 15  1  0
 13  2  1  0
 14 13  2  0
 16 15  1  0
 17 16  1  0
 17 25  1  0
 18 17  2  0
 19 20  1  0
 20 21  2  0
 22 23  1  0
 22 20  1  0
 24 23  1  6
 24 25  1  0
 24 26  1  0
 26 27  1  0
 28 26  2  0
M  END
$$$$
