WGQ.pdb
     RDKit          3D

 28 29  0  0  1  0  0  0  0  0999 V2000
   25.1915  -20.3277   -9.5789 N   0  0  0  0  0  0  0  0  0  0  0  0
   26.5693  -20.4381   -9.9165 C   0  0  1  0  0  0  0  0  0  0  0  0
   27.4412  -21.0929   -8.8903 C   0  0  0  0  0  0  0  0  0  0  0  0
   27.5639  -20.2716   -7.6664 C   0  0  0  0  0  0  0  0  0  0  0  0
   26.9122  -19.0696   -7.4415 C   0  0  0  0  0  0  0  0  0  0  0  0
   27.2529  -18.6346   -6.2225 N   0  0  0  0  0  0  0  0  0  0  0  0
   28.0984  -19.5058   -5.6502 C   0  0  0  0  0  0  0  0  0  0  0  0
   28.7348  -19.5033   -4.4030 C   0  0  0  0  0  0  0  0  0  0  0  0
   29.5797  -20.5258   -4.0355 C   0  0  0  0  0  0  0  0  0  0  0  0
   29.7656  -21.5343   -4.9389 C   0  0  0  0  0  0  0  0  0  0  0  0
   29.1537  -21.5620   -6.1695 C   0  0  0  0  0  0  0  0  0  0  0  0
   28.2979  -20.5230   -6.5357 C   0  0  0  0  0  0  0  0  0  0  0  0
   26.7725  -21.0947  -11.2471 C   0  0  0  0  0  0  0  0  0  0  0  0
   26.3478  -22.2632  -11.4202 O   0  0  0  0  0  0  0  0  0  0  0  0
   27.4269  -20.4468  -12.3224 N   0  0  0  0  0  0  0  0  0  0  0  0
   27.3597  -20.9390  -13.6521 C   0  0  0  0  0  0  0  0  0  0  0  0
   26.1871  -20.5746  -14.4443 C   0  0  0  0  0  0  0  0  0  0  0  0
   25.8107  -19.3828  -14.4194 O   0  0  0  0  0  0  0  0  0  0  0  0
   23.4309  -25.8351  -14.2695 N   0  0  0  0  0  0  0  0  0  0  0  0
   22.5489  -24.9811  -13.5722 C   0  0  0  0  0  0  0  0  0  0  0  0
   21.7515  -25.4695  -12.7392 O   0  0  0  0  0  0  0  0  0  0  0  0
   22.6214  -23.5159  -13.8766 C   0  0  0  0  0  0  0  0  0  0  0  0
   24.0325  -23.0424  -13.9676 C   0  0  0  0  0  0  0  0  0  0  0  0
   24.1392  -21.9825  -15.0124 C   0  0  2  0  0  0  0  0  0  0  0  0
   25.4839  -21.5175  -15.2255 N   0  0  0  0  0  0  0  0  0  0  0  0
   23.1220  -20.9276  -14.8253 C   0  0  0  0  0  0  0  0  0  0  0  0
   22.1839  -20.7383  -15.8256 O   0  0  0  0  0  0  0  0  0  0  0  0
   23.0832  -20.2212  -13.8215 O   0  0  0  0  0  0  0  0  0  0  0  0
  2  1  1  1
  3  4  1  0
  3  2  1  0
  4  5  2  0
  6  5  1  0
  7  6  1  0
  8  7  2  0
  9  8  1  0
 10  9  2  0
 10 11  1  0
 11 12  2  0
 12  7  1  0
 12  4  1  0
 13 15  1  0
 13  2  1  0
 14 13  2  0
 16 15  1  0
 17 16  1  0
 17 25  1  0
 18 17  2  0
 19 20  1  0
 20 21  2  0
 22 23  1  0
 22 20  1  0
 24 23  1  1
 24 25  1  0
 24 26  1  0
 26 27  1  0
 28 26  2  0
M  END
$$$$
