WGQ.pdb
     RDKit          3D

 28 29  0  0  1  0  0  0  0  0999 V2000
   27.7843  -22.0812  -10.5603 N   0  0  0  0  0  0  0  0  0  0  0  0
   26.7600  -21.1929  -10.1289 C   0  0  1  0  0  0  0  0  0  0  0  0
   27.2242  -19.9562   -9.4236 C   0  0  0  0  0  0  0  0  0  0  0  0
   28.2436  -20.2581   -8.3954 C   0  0  0  0  0  0  0  0  0  0  0  0
   29.4697  -20.8571   -8.6367 C   0  0  0  0  0  0  0  0  0  0  0  0
   30.1237  -20.9471   -7.4725 N   0  0  0  0  0  0  0  0  0  0  0  0
   29.3708  -20.4314   -6.4884 C   0  0  0  0  0  0  0  0  0  0  0  0
   29.6001  -20.2966   -5.1137 C   0  0  0  0  0  0  0  0  0  0  0  0
   28.6558  -19.7283   -4.2892 C   0  0  0  0  0  0  0  0  0  0  0  0
   27.4941  -19.3061   -4.8722 C   0  0  0  0  0  0  0  0  0  0  0  0
   27.2430  -19.4259   -6.2183 C   0  0  0  0  0  0  0  0  0  0  0  0
   28.2044  -20.0022   -7.0487 C   0  0  0  0  0  0  0  0  0  0  0  0
   25.8302  -20.8217  -11.2428 C   0  0  0  0  0  0  0  0  0  0  0  0
   26.3087  -20.3500  -12.3031 O   0  0  0  0  0  0  0  0  0  0  0  0
   24.4269  -20.9830  -11.1471 N   0  0  0  0  0  0  0  0  0  0  0  0
   23.5207  -20.0644  -11.7386 C   0  0  0  0  0  0  0  0  0  0  0  0
   22.0971  -20.2617  -11.4750 C   0  0  0  0  0  0  0  0  0  0  0  0
   21.7404  -20.4441  -10.2907 O   0  0  0  0  0  0  0  0  0  0  0  0
   18.8348  -19.0302  -16.0553 N   0  0  0  0  0  0  0  0  0  0  0  0
   18.2759  -18.2718  -15.0036 C   0  0  0  0  0  0  0  0  0  0  0  0
   17.7901  -17.1443  -15.2504 O   0  0  0  0  0  0  0  0  0  0  0  0
   18.2985  -18.8726  -13.6313 C   0  0  0  0  0  0  0  0  0  0  0  0
   18.9519  -20.2129  -13.6284 C   0  0  0  0  0  0  0  0  0  0  0  0
   19.7088  -20.3989  -12.3561 C   0  0  2  0  0  0  0  0  0  0  0  0
   21.1318  -20.2484  -12.5054 N   0  0  0  0  0  0  0  0  0  0  0  0
   19.2684  -21.6084  -11.6310 C   0  0  0  0  0  0  0  0  0  0  0  0
   18.5124  -21.4443  -10.4831 O   0  0  0  0  0  0  0  0  0  0  0  0
   19.5490  -22.7422  -12.0107 O   0  0  0  0  0  0  0  0  0  0  0  0
  2  1  1  6
  3  4  1  0
  3  2  1  0
  4  5  2  0
  6  5  1  0
  7  6  1  0
  8  7  2  0
  9  8  1  0
 10  9  2  0
 10 11  1  0
 11 12  2  0
 12  7  1  0
 12  4  1  0
 13 15  1  0
 13  2  1  0
 14 13  2  0
 16 15  1  0
 17 16  1  0
 17 25  1  0
 18 17  2  0
 19 20  1  0
 20 21  2  0
 22 23  1  0
 22 20  1  0
 24 23  1  6
 24 25  1  0
 24 26  1  0
 26 27  1  0
 28 26  2  0
M  END
$$$$
