QCK.pdb
     RDKit          3D

 25 24  0  0  1  0  0  0  0  0999 V2000
    9.1534  -14.0813   15.2813 N   0  0  0  0  0  0  0  0  0  0  0  0
    7.8030  -13.7711   15.6916 C   0  0  0  0  0  0  0  0  0  0  0  0
    6.9286  -14.0748   14.8483 O   0  0  0  0  0  0  0  0  0  0  0  0
    7.5357  -13.1588   16.9910 C   0  0  0  0  0  0  0  0  0  0  0  0
    8.6820  -12.8239   17.8469 C   0  0  0  0  0  0  0  0  0  0  0  0
    9.2400  -13.8204   18.7700 C   0  0  2  0  0  0  0  0  0  0  0  0
    9.3640  -15.1060   18.1836 N   0  0  0  0  0  0  0  0  0  0  0  0
    8.6461  -13.8390   20.1164 C   0  0  0  0  0  0  0  0  0  0  0  0
    8.4319  -12.7741   20.7598 O   0  0  0  0  0  0  0  0  0  0  0  0
    8.2905  -15.0549   20.7479 N   0  0  0  0  0  0  0  0  0  0  0  0
    7.8051  -15.0160   22.1349 C   0  0  1  0  0  0  0  0  0  0  0  0
    6.6673  -16.0177   22.2441 C   0  0  0  0  0  0  0  0  0  0  0  0
    7.1950  -17.6986   21.8785 S   0  0  0  0  0  0  0  0  0  0  0  0
    8.8692  -15.4878   23.0695 C   0  0  0  0  0  0  0  0  0  0  0  0
    9.8365  -16.1750   22.6937 O   0  0  0  0  0  0  0  0  0  0  0  0
    8.7639  -15.1362   24.4230 N   0  0  0  0  0  0  0  0  0  0  0  0
    9.6546  -15.6109   25.4633 C   0  0  1  0  0  0  0  0  0  0  0  0
    9.3384  -14.8917   26.7377 C   0  0  0  0  0  0  0  0  0  0  0  0
   10.1403  -15.2831   27.9184 C   0  0  0  0  0  0  0  0  0  0  0  0
    9.8832  -14.5521   29.1844 C   0  0  0  0  0  0  0  0  0  0  0  0
   10.6551  -15.0061   30.3753 C   0  0  0  0  0  0  0  0  0  0  0  0
   10.3904  -14.2810   31.5922 N   0  0  0  0  0  0  0  0  0  0  0  0
    9.6228  -17.0783   25.5951 C   0  0  0  0  0  0  0  0  0  0  0  0
    8.5373  -17.7113   25.5770 O   0  0  0  0  0  0  0  0  0  0  0  0
   10.7756  -17.8523   25.7465 O   0  0  0  0  0  0  0  0  0  0  0  0
  1  2  1  0
  2  4  1  0
  3  2  2  0
  4  5  1  0
  5  6  1  0
  6  7  1  6
  8  6  1  0
  8 10  1  0
  9  8  2  0
 11 10  1  0
 11 14  1  0
 11 12  1  6
 13 12  1  0
 14 15  2  0
 16 14  1  0
 16 17  1  0
 17 23  1  0
 17 18  1  1
 19 18  1  0
 20 19  1  0
 21 22  1  0
 21 20  1  0
 23 25  1  0
 24 23  2  0
M  END
$$$$
