QCK.pdb
     RDKit          3D

 25 24  0  0  1  0  0  0  0  0999 V2000
    8.8055  -13.4631   14.4823 N   0  0  0  0  0  0  0  0  0  0  0  0
    7.9466  -14.2610   15.3271 C   0  0  0  0  0  0  0  0  0  0  0  0
    7.9636  -15.4853   15.0648 O   0  0  0  0  0  0  0  0  0  0  0  0
    7.1498  -13.6426   16.3843 C   0  0  0  0  0  0  0  0  0  0  0  0
    7.8496  -13.1435   17.5759 C   0  0  0  0  0  0  0  0  0  0  0  0
    8.6468  -14.0531   18.4086 C   0  0  2  0  0  0  0  0  0  0  0  0
    8.8382  -15.3241   17.8084 N   0  0  0  0  0  0  0  0  0  0  0  0
    8.2558  -14.1209   19.8257 C   0  0  0  0  0  0  0  0  0  0  0  0
    8.0825  -13.0773   20.5148 O   0  0  0  0  0  0  0  0  0  0  0  0
    8.0585  -15.3621   20.4769 N   0  0  0  0  0  0  0  0  0  0  0  0
    7.6397  -15.3629   21.8860 C   0  0  1  0  0  0  0  0  0  0  0  0
    6.6959  -16.5389   22.0766 C   0  0  0  0  0  0  0  0  0  0  0  0
    7.5588  -18.1178   22.0823 S   0  0  0  0  0  0  0  0  0  0  0  0
    8.8117  -15.6185   22.7746 C   0  0  0  0  0  0  0  0  0  0  0  0
    9.8902  -16.0717   22.3497 O   0  0  0  0  0  0  0  0  0  0  0  0
    8.6801  -15.3327   24.1411 N   0  0  0  0  0  0  0  0  0  0  0  0
    9.7393  -15.4964   25.1169 C   0  0  1  0  0  0  0  0  0  0  0  0
    9.3204  -14.8496   26.4005 C   0  0  0  0  0  0  0  0  0  0  0  0
   10.2598  -14.9934   27.5350 C   0  0  0  0  0  0  0  0  0  0  0  0
    9.8725  -14.3587   28.8197 C   0  0  0  0  0  0  0  0  0  0  0  0
   10.8866  -14.4077   29.9103 C   0  0  0  0  0  0  0  0  0  0  0  0
   10.4743  -13.8196   31.1597 N   0  0  0  0  0  0  0  0  0  0  0  0
   10.1370  -16.9067   25.2739 C   0  0  0  0  0  0  0  0  0  0  0  0
   11.3436  -17.2336   25.4028 O   0  0  0  0  0  0  0  0  0  0  0  0
    9.2172  -17.9577   25.2899 O   0  0  0  0  0  0  0  0  0  0  0  0
  1  2  1  0
  2  4  1  0
  3  2  2  0
  4  5  1  0
  5  6  1  0
  6  7  1  6
  8  6  1  0
  8 10  1  0
  9  8  2  0
 11 10  1  0
 11 14  1  0
 11 12  1  6
 13 12  1  0
 14 15  2  0
 16 14  1  0
 16 17  1  0
 17 23  1  0
 17 18  1  1
 19 18  1  0
 20 19  1  0
 21 22  1  0
 21 20  1  0
 23 25  1  0
 24 23  2  0
M  END
$$$$
