QCK.pdb
     RDKit          3D

 25 24  0  0  1  0  0  0  0  0999 V2000
   11.2360  -17.0639   15.9319 N   0  0  0  0  0  0  0  0  0  0  0  0
   10.0627  -17.4543   16.6796 C   0  0  0  0  0  0  0  0  0  0  0  0
    9.5681  -18.5479   16.3227 O   0  0  0  0  0  0  0  0  0  0  0  0
    9.5414  -16.6102   17.7523 C   0  0  0  0  0  0  0  0  0  0  0  0
    9.9689  -16.8975   19.1283 C   0  0  0  0  0  0  0  0  0  0  0  0
    8.9761  -17.0890   20.1932 C   0  0  2  0  0  0  0  0  0  0  0  0
    7.6452  -16.8786   19.7500 N   0  0  0  0  0  0  0  0  0  0  0  0
    9.2847  -16.4306   21.4726 C   0  0  0  0  0  0  0  0  0  0  0  0
   10.4174  -16.5437   22.0187 O   0  0  0  0  0  0  0  0  0  0  0  0
    8.3215  -15.6420   22.1464 N   0  0  0  0  0  0  0  0  0  0  0  0
    8.6327  -15.1435   23.4939 C   0  0  1  0  0  0  0  0  0  0  0  0
    7.5081  -14.2050   23.8997 C   0  0  0  0  0  0  0  0  0  0  0  0
    7.7503  -13.5137   25.5432 S   0  0  0  0  0  0  0  0  0  0  0  0
    8.6167  -16.2659   24.4779 C   0  0  0  0  0  0  0  0  0  0  0  0
    7.7563  -17.1650   24.4569 O   0  0  0  0  0  0  0  0  0  0  0  0
    9.6166  -16.2979   25.4607 N   0  0  0  0  0  0  0  0  0  0  0  0
    9.9301  -17.4578   26.2714 C   0  0  1  0  0  0  0  0  0  0  0  0
   10.3568  -18.5765   25.3727 C   0  0  0  0  0  0  0  0  0  0  0  0
   10.7348  -19.8395   26.0453 C   0  0  0  0  0  0  0  0  0  0  0  0
   11.0895  -20.9896   25.1768 C   0  0  0  0  0  0  0  0  0  0  0  0
   11.4250  -22.2627   25.8745 C   0  0  0  0  0  0  0  0  0  0  0  0
   11.5113  -23.4244   25.0259 N   0  0  0  0  0  0  0  0  0  0  0  0
   10.9097  -17.1487   27.3280 C   0  0  0  0  0  0  0  0  0  0  0  0
   11.9003  -16.4088   27.1028 O   0  0  0  0  0  0  0  0  0  0  0  0
   10.8066  -17.6476   28.6286 O   0  0  0  0  0  0  0  0  0  0  0  0
  1  2  1  0
  2  4  1  0
  3  2  2  0
  4  5  1  0
  5  6  1  0
  6  7  1  6
  8  6  1  0
  8 10  1  0
  9  8  2  0
 11 10  1  0
 11 14  1  0
 11 12  1  1
 13 12  1  0
 14 15  2  0
 16 14  1  0
 16 17  1  0
 17 23  1  0
 17 18  1  6
 19 18  1  0
 20 19  1  0
 21 22  1  0
 21 20  1  0
 23 25  1  0
 24 23  2  0
M  END
$$$$
