QCK.pdb
     RDKit          3D

 25 24  0  0  1  0  0  0  0  0999 V2000
   12.6476  -18.6166   17.3590 N   0  0  0  0  0  0  0  0  0  0  0  0
   12.3462  -17.7371   16.2527 C   0  0  0  0  0  0  0  0  0  0  0  0
   13.3567  -17.2855   15.6670 O   0  0  0  0  0  0  0  0  0  0  0  0
   10.9635  -17.4362   15.8887 C   0  0  0  0  0  0  0  0  0  0  0  0
    9.8900  -18.0939   16.6461 C   0  0  0  0  0  0  0  0  0  0  0  0
    8.7887  -17.3070   17.2155 C   0  0  2  0  0  0  0  0  0  0  0  0
    8.0752  -16.5690   16.2365 N   0  0  0  0  0  0  0  0  0  0  0  0
    9.1234  -16.5264   18.4173 C   0  0  0  0  0  0  0  0  0  0  0  0
   10.2615  -16.6006   18.9586 O   0  0  0  0  0  0  0  0  0  0  0  0
    8.1804  -15.6585   19.0182 N   0  0  0  0  0  0  0  0  0  0  0  0
    8.5495  -14.9636   20.2599 C   0  0  1  0  0  0  0  0  0  0  0  0
    7.3909  -14.0517   20.6293 C   0  0  0  0  0  0  0  0  0  0  0  0
    5.8641  -14.9610   20.9104 S   0  0  0  0  0  0  0  0  0  0  0  0
    8.6860  -15.9413   21.3797 C   0  0  0  0  0  0  0  0  0  0  0  0
    8.1147  -17.0471   21.3790 O   0  0  0  0  0  0  0  0  0  0  0  0
    9.4930  -15.5883   22.4709 N   0  0  0  0  0  0  0  0  0  0  0  0
    9.6266  -16.3781   23.6790 C   0  0  1  0  0  0  0  0  0  0  0  0
   11.0580  -16.7884   23.8341 C   0  0  0  0  0  0  0  0  0  0  0  0
   11.3725  -17.6021   25.0297 C   0  0  0  0  0  0  0  0  0  0  0  0
   12.7874  -18.0089   25.2191 C   0  0  0  0  0  0  0  0  0  0  0  0
   13.0966  -18.7520   26.4730 C   0  0  0  0  0  0  0  0  0  0  0  0
   14.4777  -19.1287   26.6395 N   0  0  0  0  0  0  0  0  0  0  0  0
    9.0849  -15.6828   24.8600 C   0  0  0  0  0  0  0  0  0  0  0  0
    8.9719  -14.4314   24.8853 O   0  0  0  0  0  0  0  0  0  0  0  0
    8.6676  -16.3544   26.0115 O   0  0  0  0  0  0  0  0  0  0  0  0
  1  2  1  0
  2  4  1  0
  3  2  2  0
  4  5  1  0
  5  6  1  0
  6  7  1  6
  8  6  1  0
  8 10  1  0
  9  8  2  0
 11 10  1  0
 11 14  1  0
 11 12  1  1
 13 12  1  0
 14 15  2  0
 16 14  1  0
 16 17  1  0
 17 23  1  0
 17 18  1  1
 19 18  1  0
 20 19  1  0
 21 22  1  0
 21 20  1  0
 23 25  1  0
 24 23  2  0
M  END
$$$$
