QCK.pdb
     RDKit          3D

 25 24  0  0  1  0  0  0  0  0999 V2000
    8.8442  -12.3237   17.7490 N   0  0  0  0  0  0  0  0  0  0  0  0
    8.2063  -13.5960   17.4991 C   0  0  0  0  0  0  0  0  0  0  0  0
    8.0092  -13.8411   16.2871 O   0  0  0  0  0  0  0  0  0  0  0  0
    7.8458  -14.4839   18.6021 C   0  0  0  0  0  0  0  0  0  0  0  0
    8.0509  -14.0009   19.9744 C   0  0  0  0  0  0  0  0  0  0  0  0
    7.6790  -14.8370   21.1229 C   0  0  2  0  0  0  0  0  0  0  0  0
    6.2780  -15.0300   21.2332 N   0  0  0  0  0  0  0  0  0  0  0  0
    8.3305  -14.4903   22.3961 C   0  0  0  0  0  0  0  0  0  0  0  0
    9.5811  -14.3389   22.4796 O   0  0  0  0  0  0  0  0  0  0  0  0
    7.5802  -14.3126   23.5831 N   0  0  0  0  0  0  0  0  0  0  0  0
    8.2958  -14.2019   24.8624 C   0  0  1  0  0  0  0  0  0  0  0  0
    7.6220  -13.1000   25.6636 C   0  0  0  0  0  0  0  0  0  0  0  0
    5.8294  -13.2551   25.6718 S   0  0  0  0  0  0  0  0  0  0  0  0
    8.1340  -15.4556   25.6565 C   0  0  0  0  0  0  0  0  0  0  0  0
    7.1586  -16.2163   25.5190 O   0  0  0  0  0  0  0  0  0  0  0  0
    9.1276  -15.7785   26.5920 N   0  0  0  0  0  0  0  0  0  0  0  0
    9.5760  -17.1272   26.8765 C   0  0  1  0  0  0  0  0  0  0  0  0
   10.0902  -17.7439   25.6129 C   0  0  0  0  0  0  0  0  0  0  0  0
   10.6529  -19.1069   25.7397 C   0  0  0  0  0  0  0  0  0  0  0  0
   11.1556  -19.7501   24.5001 C   0  0  0  0  0  0  0  0  0  0  0  0
   11.6244  -21.1582   24.6326 C   0  0  0  0  0  0  0  0  0  0  0  0
   12.1819  -21.7356   23.4356 N   0  0  0  0  0  0  0  0  0  0  0  0
   10.5459  -17.1678   27.9853 C   0  0  0  0  0  0  0  0  0  0  0  0
   11.4569  -16.3081   28.0869 O   0  0  0  0  0  0  0  0  0  0  0  0
   10.5198  -18.1467   28.9814 O   0  0  0  0  0  0  0  0  0  0  0  0
  1  2  1  0
  2  4  1  0
  3  2  2  0
  4  5  1  0
  5  6  1  0
  6  7  1  1
  8  6  1  0
  8 10  1  0
  9  8  2  0
 11 10  1  0
 11 14  1  0
 11 12  1  1
 13 12  1  0
 14 15  2  0
 16 14  1  0
 16 17  1  0
 17 23  1  0
 17 18  1  6
 19 18  1  0
 20 19  1  0
 21 22  1  0
 21 20  1  0
 23 25  1  0
 24 23  2  0
M  END
$$$$
