QCK.pdb
     RDKit          3D

 25 24  0  0  1  0  0  0  0  0999 V2000
    6.0036  -17.9830   20.0213 N   0  0  0  0  0  0  0  0  0  0  0  0
    7.0824  -17.4041   19.2538 C   0  0  0  0  0  0  0  0  0  0  0  0
    7.5816  -18.1789   18.4061 O   0  0  0  0  0  0  0  0  0  0  0  0
    7.5128  -16.0270   19.4848 C   0  0  0  0  0  0  0  0  0  0  0  0
    6.7527  -15.2168   20.4463 C   0  0  0  0  0  0  0  0  0  0  0  0
    7.1910  -13.8573   20.7871 C   0  0  2  0  0  0  0  0  0  0  0  0
    7.7292  -13.1574   19.6768 N   0  0  0  0  0  0  0  0  0  0  0  0
    8.0021  -13.7411   22.0094 C   0  0  0  0  0  0  0  0  0  0  0  0
    9.2569  -13.6104   21.9607 O   0  0  0  0  0  0  0  0  0  0  0  0
    7.4078  -13.7722   23.2937 N   0  0  0  0  0  0  0  0  0  0  0  0
    8.2803  -13.7911   24.4766 C   0  0  1  0  0  0  0  0  0  0  0  0
    7.5662  -13.0241   25.5776 C   0  0  0  0  0  0  0  0  0  0  0  0
    5.8686  -13.5743   25.8075 S   0  0  0  0  0  0  0  0  0  0  0  0
    8.4434  -15.1878   24.9776 C   0  0  0  0  0  0  0  0  0  0  0  0
    7.4825  -15.9653   25.1236 O   0  0  0  0  0  0  0  0  0  0  0  0
    9.7361  -15.6303   25.2932 N   0  0  0  0  0  0  0  0  0  0  0  0
   10.0505  -16.9603   25.7761 C   0  0  1  0  0  0  0  0  0  0  0  0
   11.4961  -17.2440   25.5092 C   0  0  0  0  0  0  0  0  0  0  0  0
   11.9881  -18.5688   25.9487 C   0  0  0  0  0  0  0  0  0  0  0  0
   13.4299  -18.8572   25.7462 C   0  0  0  0  0  0  0  0  0  0  0  0
   13.9049  -20.1931   26.2044 C   0  0  0  0  0  0  0  0  0  0  0  0
   15.3233  -20.4162   26.0819 N   0  0  0  0  0  0  0  0  0  0  0  0
    9.6682  -17.1437   27.1874 C   0  0  0  0  0  0  0  0  0  0  0  0
    9.3569  -18.2752   27.6371 O   0  0  0  0  0  0  0  0  0  0  0  0
    9.6263  -16.0919   28.1056 O   0  0  0  0  0  0  0  0  0  0  0  0
  1  2  1  0
  2  4  1  0
  3  2  2  0
  4  5  1  0
  5  6  1  0
  6  7  1  6
  8  6  1  0
  8 10  1  0
  9  8  2  0
 11 10  1  0
 11 14  1  0
 11 12  1  1
 13 12  1  0
 14 15  2  0
 16 14  1  0
 16 17  1  0
 17 23  1  0
 17 18  1  1
 19 18  1  0
 20 19  1  0
 21 22  1  0
 21 20  1  0
 23 25  1  0
 24 23  2  0
M  END
$$$$
