QCK.pdb
     RDKit          3D

 25 24  0  0  1  0  0  0  0  0999 V2000
    7.6524  -12.8724   17.2531 N   0  0  0  0  0  0  0  0  0  0  0  0
    8.4547  -13.8827   16.6021 C   0  0  0  0  0  0  0  0  0  0  0  0
    8.7886  -13.5953   15.4299 O   0  0  0  0  0  0  0  0  0  0  0  0
    8.8194  -15.1146   17.2980 C   0  0  0  0  0  0  0  0  0  0  0  0
    8.2710  -15.3379   18.6426 C   0  0  0  0  0  0  0  0  0  0  0  0
    8.5244  -16.5986   19.3518 C   0  0  2  0  0  0  0  0  0  0  0  0
    8.4245  -17.7347   18.5084 N   0  0  0  0  0  0  0  0  0  0  0  0
    7.8261  -16.7532   20.6379 C   0  0  0  0  0  0  0  0  0  0  0  0
    6.6711  -17.2582   20.7070 O   0  0  0  0  0  0  0  0  0  0  0  0
    8.4216  -16.3403   21.8538 N   0  0  0  0  0  0  0  0  0  0  0  0
    7.6767  -16.5304   23.1067 C   0  0  1  0  0  0  0  0  0  0  0  0
    7.4844  -18.0262   23.2960 C   0  0  0  0  0  0  0  0  0  0  0  0
    6.7129  -18.4251   24.8718 S   0  0  0  0  0  0  0  0  0  0  0  0
    8.4890  -16.0624   24.2684 C   0  0  0  0  0  0  0  0  0  0  0  0
    9.6925  -16.3487   24.4050 O   0  0  0  0  0  0  0  0  0  0  0  0
    7.8597  -15.2689   25.2384 N   0  0  0  0  0  0  0  0  0  0  0  0
    8.5474  -14.6222   26.3383 C   0  0  1  0  0  0  0  0  0  0  0  0
    7.5865  -13.7190   27.0470 C   0  0  0  0  0  0  0  0  0  0  0  0
    7.1372  -12.5293   26.2898 C   0  0  0  0  0  0  0  0  0  0  0  0
    6.1210  -11.6603   26.9343 C   0  0  0  0  0  0  0  0  0  0  0  0
    5.6478  -10.4958   26.1342 C   0  0  0  0  0  0  0  0  0  0  0  0
    4.6494   -9.6762   26.7732 N   0  0  0  0  0  0  0  0  0  0  0  0
    9.2053  -15.5935   27.2302 C   0  0  0  0  0  0  0  0  0  0  0  0
    9.9742  -15.2173   28.1503 O   0  0  0  0  0  0  0  0  0  0  0  0
    9.0228  -16.9736   27.1165 O   0  0  0  0  0  0  0  0  0  0  0  0
  1  2  1  0
  2  4  1  0
  3  2  2  0
  4  5  1  0
  5  6  1  0
  6  7  1  6
  8  6  1  0
  8 10  1  0
  9  8  2  0
 11 10  1  0
 11 14  1  0
 11 12  1  1
 13 12  1  0
 14 15  2  0
 16 14  1  0
 16 17  1  0
 17 23  1  0
 17 18  1  1
 19 18  1  0
 20 19  1  0
 21 22  1  0
 21 20  1  0
 23 25  1  0
 24 23  2  0
M  END
$$$$
