QCK.pdb
     RDKit          3D

 25 24  0  0  1  0  0  0  0  0999 V2000
    8.9118  -12.5009   18.0848 N   0  0  0  0  0  0  0  0  0  0  0  0
    8.2212  -13.7579   17.9084 C   0  0  0  0  0  0  0  0  0  0  0  0
    8.1900  -14.1638   16.7242 O   0  0  0  0  0  0  0  0  0  0  0  0
    7.6305  -14.4558   19.0481 C   0  0  0  0  0  0  0  0  0  0  0  0
    7.7728  -13.8505   20.3793 C   0  0  0  0  0  0  0  0  0  0  0  0
    7.5740  -14.6568   21.5905 C   0  0  2  0  0  0  0  0  0  0  0  0
    6.2958  -15.2699   21.6405 N   0  0  0  0  0  0  0  0  0  0  0  0
    7.9708  -14.0123   22.8526 C   0  0  0  0  0  0  0  0  0  0  0  0
    8.3598  -12.8117   22.8886 O   0  0  0  0  0  0  0  0  0  0  0  0
    7.9337  -14.7138   24.0814 N   0  0  0  0  0  0  0  0  0  0  0  0
    8.6352  -14.1457   25.2417 C   0  0  1  0  0  0  0  0  0  0  0  0
    7.8862  -12.8883   25.6519 C   0  0  0  0  0  0  0  0  0  0  0  0
    6.1516  -13.2077   26.0073 S   0  0  0  0  0  0  0  0  0  0  0  0
    8.5541  -15.0791   26.4039 C   0  0  0  0  0  0  0  0  0  0  0  0
    7.5207  -15.7131   26.6850 O   0  0  0  0  0  0  0  0  0  0  0  0
    9.6948  -15.2396   27.2037 N   0  0  0  0  0  0  0  0  0  0  0  0
    9.9308  -16.3746   28.0737 C   0  0  1  0  0  0  0  0  0  0  0  0
   10.8182  -17.3512   27.3666 C   0  0  0  0  0  0  0  0  0  0  0  0
   11.1410  -18.5894   28.1104 C   0  0  0  0  0  0  0  0  0  0  0  0
   12.0328  -19.5689   27.4407 C   0  0  0  0  0  0  0  0  0  0  0  0
   12.2206  -20.8723   28.1378 C   0  0  0  0  0  0  0  0  0  0  0  0
   13.0694  -21.8169   27.4566 N   0  0  0  0  0  0  0  0  0  0  0  0
   10.4435  -15.9660   29.3935 C   0  0  0  0  0  0  0  0  0  0  0  0
   11.0215  -14.8618   29.5553 O   0  0  0  0  0  0  0  0  0  0  0  0
   10.3247  -16.7630   30.5344 O   0  0  0  0  0  0  0  0  0  0  0  0
  1  2  1  0
  2  4  1  0
  3  2  2  0
  4  5  1  0
  5  6  1  0
  6  7  1  1
  8  6  1  0
  8 10  1  0
  9  8  2  0
 11 10  1  0
 11 14  1  0
 11 12  1  1
 13 12  1  0
 14 15  2  0
 16 14  1  0
 16 17  1  0
 17 23  1  0
 17 18  1  6
 19 18  1  0
 20 19  1  0
 21 22  1  0
 21 20  1  0
 23 25  1  0
 24 23  2  0
M  END
$$$$
