QCK.pdb
     RDKit          3D

 25 24  0  0  1  0  0  0  0  0999 V2000
    7.7463  -12.3821   17.3898 N   0  0  0  0  0  0  0  0  0  0  0  0
    8.2990  -13.5450   16.7337 C   0  0  0  0  0  0  0  0  0  0  0  0
    8.2116  -13.5187   15.4848 O   0  0  0  0  0  0  0  0  0  0  0  0
    8.8994  -14.6288   17.5081 C   0  0  0  0  0  0  0  0  0  0  0  0
    8.9040  -14.5124   18.9727 C   0  0  0  0  0  0  0  0  0  0  0  0
    9.4648  -15.5848   19.8045 C   0  0  2  0  0  0  0  0  0  0  0  0
    9.5033  -16.8362   19.1377 N   0  0  0  0  0  0  0  0  0  0  0  0
    8.9402  -15.6617   21.1772 C   0  0  0  0  0  0  0  0  0  0  0  0
    8.8509  -14.6373   21.9097 O   0  0  0  0  0  0  0  0  0  0  0  0
    8.5137  -16.8907   21.7351 N   0  0  0  0  0  0  0  0  0  0  0  0
    7.9856  -16.8994   23.1069 C   0  0  1  0  0  0  0  0  0  0  0  0
    7.1783  -18.1766   23.2726 C   0  0  0  0  0  0  0  0  0  0  0  0
    5.4694  -17.9819   22.7444 S   0  0  0  0  0  0  0  0  0  0  0  0
    9.1042  -16.9806   24.0921 C   0  0  0  0  0  0  0  0  0  0  0  0
   10.1934  -17.5221   23.8282 O   0  0  0  0  0  0  0  0  0  0  0  0
    8.9081  -16.4208   25.3628 N   0  0  0  0  0  0  0  0  0  0  0  0
    9.8720  -16.4862   26.4433 C   0  0  1  0  0  0  0  0  0  0  0  0
    9.5289  -15.4449   27.4628 C   0  0  0  0  0  0  0  0  0  0  0  0
   10.3785  -15.4200   28.6744 C   0  0  0  0  0  0  0  0  0  0  0  0
   10.0987  -14.3612   29.6763 C   0  0  0  0  0  0  0  0  0  0  0  0
   11.0164  -14.3051   30.8488 C   0  0  0  0  0  0  0  0  0  0  0  0
   10.8011  -13.1976   31.7453 N   0  0  0  0  0  0  0  0  0  0  0  0
    9.9841  -17.8433   27.0065 C   0  0  0  0  0  0  0  0  0  0  0  0
    8.9683  -18.5619   27.1834 O   0  0  0  0  0  0  0  0  0  0  0  0
   11.2044  -18.4139   27.3757 O   0  0  0  0  0  0  0  0  0  0  0  0
  1  2  1  0
  2  4  1  0
  3  2  2  0
  4  5  1  0
  5  6  1  0
  6  7  1  6
  8  6  1  0
  8 10  1  0
  9  8  2  0
 11 10  1  0
 11 14  1  0
 11 12  1  6
 13 12  1  0
 14 15  2  0
 16 14  1  0
 16 17  1  0
 17 23  1  0
 17 18  1  1
 19 18  1  0
 20 19  1  0
 21 22  1  0
 21 20  1  0
 23 25  1  0
 24 23  2  0
M  END
$$$$
