QCK.pdb
     RDKit          3D

 25 24  0  0  1  0  0  0  0  0999 V2000
   11.3748  -20.3456   16.7786 N   0  0  0  0  0  0  0  0  0  0  0  0
   10.6256  -19.2505   16.2063 C   0  0  0  0  0  0  0  0  0  0  0  0
   10.5346  -19.2889   14.9580 O   0  0  0  0  0  0  0  0  0  0  0  0
   10.0425  -18.2152   17.0565 C   0  0  0  0  0  0  0  0  0  0  0  0
   10.2082  -18.3400   18.5111 C   0  0  0  0  0  0  0  0  0  0  0  0
    9.1305  -17.9341   19.4222 C   0  0  2  0  0  0  0  0  0  0  0  0
    8.1307  -17.1578   18.7818 N   0  0  0  0  0  0  0  0  0  0  0  0
    9.5678  -17.3848   20.7155 C   0  0  0  0  0  0  0  0  0  0  0  0
   10.6237  -17.7841   21.2808 O   0  0  0  0  0  0  0  0  0  0  0  0
    8.8202  -16.3843   21.3817 N   0  0  0  0  0  0  0  0  0  0  0  0
    9.2919  -15.9003   22.6871 C   0  0  1  0  0  0  0  0  0  0  0  0
    8.3861  -14.7508   23.0974 C   0  0  0  0  0  0  0  0  0  0  0  0
    8.7118  -14.1849   24.7740 S   0  0  0  0  0  0  0  0  0  0  0  0
    9.1204  -16.9594   23.7251 C   0  0  0  0  0  0  0  0  0  0  0  0
    8.0199  -17.4861   23.9714 O   0  0  0  0  0  0  0  0  0  0  0  0
   10.2519  -17.3691   24.4450 N   0  0  0  0  0  0  0  0  0  0  0  0
   10.2421  -18.3918   25.4720 C   0  0  1  0  0  0  0  0  0  0  0  0
   10.6267  -19.7011   24.8562 C   0  0  0  0  0  0  0  0  0  0  0  0
   10.6808  -20.8588   25.7766 C   0  0  0  0  0  0  0  0  0  0  0  0
   10.9426  -22.1904   25.1754 C   0  0  0  0  0  0  0  0  0  0  0  0
   10.9939  -23.3410   26.1207 C   0  0  0  0  0  0  0  0  0  0  0  0
   11.4062  -24.5945   25.5414 N   0  0  0  0  0  0  0  0  0  0  0  0
   11.0736  -18.0229   26.6315 C   0  0  0  0  0  0  0  0  0  0  0  0
   12.1060  -17.3192   26.4962 O   0  0  0  0  0  0  0  0  0  0  0  0
   10.7769  -18.4226   27.9365 O   0  0  0  0  0  0  0  0  0  0  0  0
  1  2  1  0
  2  4  1  0
  3  2  2  0
  4  5  1  0
  5  6  1  0
  6  7  1  6
  8  6  1  0
  8 10  1  0
  9  8  2  0
 11 10  1  0
 11 14  1  0
 11 12  1  1
 13 12  1  0
 14 15  2  0
 16 14  1  0
 16 17  1  0
 17 23  1  0
 17 18  1  6
 19 18  1  0
 20 19  1  0
 21 22  1  0
 21 20  1  0
 23 25  1  0
 24 23  2  0
M  END
$$$$
