QCK.pdb
     RDKit          3D

 25 24  0  0  1  0  0  0  0  0999 V2000
    8.7263  -12.8426   17.6617 N   0  0  0  0  0  0  0  0  0  0  0  0
    8.8759  -13.9730   16.7740 C   0  0  0  0  0  0  0  0  0  0  0  0
    8.3994  -13.7929   15.6301 O   0  0  0  0  0  0  0  0  0  0  0  0
    9.5373  -15.1964   17.2220 C   0  0  0  0  0  0  0  0  0  0  0  0
   10.0127  -15.2570   18.6110 C   0  0  0  0  0  0  0  0  0  0  0  0
    9.6124  -16.3640   19.4888 C   0  0  2  0  0  0  0  0  0  0  0  0
    8.5518  -17.1376   18.9512 N   0  0  0  0  0  0  0  0  0  0  0  0
    9.4298  -16.0140   20.9065 C   0  0  0  0  0  0  0  0  0  0  0  0
   10.3092  -15.3752   21.5488 O   0  0  0  0  0  0  0  0  0  0  0  0
    8.2581  -16.3808   21.6108 N   0  0  0  0  0  0  0  0  0  0  0  0
    8.1506  -16.0325   23.0349 C   0  0  1  0  0  0  0  0  0  0  0  0
    6.8221  -15.3194   23.2270 C   0  0  0  0  0  0  0  0  0  0  0  0
    6.8258  -13.6612   22.5285 S   0  0  0  0  0  0  0  0  0  0  0  0
    8.0855  -17.2699   23.8673 C   0  0  0  0  0  0  0  0  0  0  0  0
    7.4586  -18.2852   23.5132 O   0  0  0  0  0  0  0  0  0  0  0  0
    8.7619  -17.2768   25.0958 N   0  0  0  0  0  0  0  0  0  0  0  0
    8.7376  -18.3788   26.0369 C   0  0  1  0  0  0  0  0  0  0  0  0
    9.7391  -18.1152   27.1181 C   0  0  0  0  0  0  0  0  0  0  0  0
    9.8486  -19.1538   28.1668 C   0  0  0  0  0  0  0  0  0  0  0  0
   10.8378  -18.9219   29.2490 C   0  0  0  0  0  0  0  0  0  0  0  0
   11.0620  -20.0554   30.1899 C   0  0  0  0  0  0  0  0  0  0  0  0
   12.1580  -19.8830   31.1096 N   0  0  0  0  0  0  0  0  0  0  0  0
    7.3808  -18.6442   26.5469 C   0  0  0  0  0  0  0  0  0  0  0  0
    6.5333  -17.7226   26.6564 O   0  0  0  0  0  0  0  0  0  0  0  0
    6.9511  -19.9148   26.9367 O   0  0  0  0  0  0  0  0  0  0  0  0
  1  2  1  0
  2  4  1  0
  3  2  2  0
  4  5  1  0
  5  6  1  0
  6  7  1  6
  8  6  1  0
  8 10  1  0
  9  8  2  0
 11 10  1  0
 11 14  1  0
 11 12  1  6
 13 12  1  0
 14 15  2  0
 16 14  1  0
 16 17  1  0
 17 23  1  0
 17 18  1  1
 19 18  1  0
 20 19  1  0
 21 22  1  0
 21 20  1  0
 23 25  1  0
 24 23  2  0
M  END
$$$$
