QCK.pdb
     RDKit          3D

 25 24  0  0  1  0  0  0  0  0999 V2000
    5.5557  -20.3588   18.7160 N   0  0  0  0  0  0  0  0  0  0  0  0
    6.4181  -20.4057   17.5575 C   0  0  0  0  0  0  0  0  0  0  0  0
    6.3294  -21.4646   16.8950 O   0  0  0  0  0  0  0  0  0  0  0  0
    7.2968  -19.2850   17.2304 C   0  0  0  0  0  0  0  0  0  0  0  0
    7.3201  -18.1347   18.1442 C   0  0  0  0  0  0  0  0  0  0  0  0
    8.1680  -16.9708   17.8568 C   0  0  2  0  0  0  0  0  0  0  0  0
    8.9667  -17.1439   16.6974 N   0  0  0  0  0  0  0  0  0  0  0  0
    8.9058  -16.4251   19.0073 C   0  0  0  0  0  0  0  0  0  0  0  0
   10.1432  -16.6268   19.1557 O   0  0  0  0  0  0  0  0  0  0  0  0
    8.2568  -15.6504   19.9984 N   0  0  0  0  0  0  0  0  0  0  0  0
    9.0093  -15.2667   21.2014 C   0  0  1  0  0  0  0  0  0  0  0  0
    8.1456  -14.2899   21.9826 C   0  0  0  0  0  0  0  0  0  0  0  0
    6.5660  -15.0038   22.4647 S   0  0  0  0  0  0  0  0  0  0  0  0
    9.2080  -16.4512   22.0879 C   0  0  0  0  0  0  0  0  0  0  0  0
    8.6207  -17.5331   21.9046 O   0  0  0  0  0  0  0  0  0  0  0  0
   10.0946  -16.3278   23.1674 N   0  0  0  0  0  0  0  0  0  0  0  0
   10.6363  -17.4465   23.9131 C   0  0  1  0  0  0  0  0  0  0  0  0
   11.3828  -18.3404   22.9724 C   0  0  0  0  0  0  0  0  0  0  0  0
   12.8036  -17.9959   22.7417 C   0  0  0  0  0  0  0  0  0  0  0  0
   13.5900  -18.9094   21.8756 C   0  0  0  0  0  0  0  0  0  0  0  0
   15.0354  -18.5843   21.7168 C   0  0  0  0  0  0  0  0  0  0  0  0
   15.7778  -19.4825   20.8689 N   0  0  0  0  0  0  0  0  0  0  0  0
   11.4409  -17.0075   25.0671 C   0  0  0  0  0  0  0  0  0  0  0  0
   11.8155  -15.8136   25.1846 O   0  0  0  0  0  0  0  0  0  0  0  0
   11.8354  -17.8721   26.0907 O   0  0  0  0  0  0  0  0  0  0  0  0
  1  2  1  0
  2  4  1  0
  3  2  2  0
  4  5  1  0
  5  6  1  0
  6  7  1  6
  8  6  1  0
  8 10  1  0
  9  8  2  0
 11 10  1  0
 11 14  1  0
 11 12  1  1
 13 12  1  0
 14 15  2  0
 16 14  1  0
 16 17  1  0
 17 23  1  0
 17 18  1  6
 19 18  1  0
 20 19  1  0
 21 22  1  0
 21 20  1  0
 23 25  1  0
 24 23  2  0
M  END
$$$$
