QCK.pdb
     RDKit          3D

 25 24  0  0  1  0  0  0  0  0999 V2000
    8.7246  -12.2829   18.2281 N   0  0  0  0  0  0  0  0  0  0  0  0
    7.8533  -13.4222   18.0521 C   0  0  0  0  0  0  0  0  0  0  0  0
    7.3667  -13.5224   16.9026 O   0  0  0  0  0  0  0  0  0  0  0  0
    7.5980  -14.3486   19.1527 C   0  0  0  0  0  0  0  0  0  0  0  0
    8.2669  -14.0984   20.4368 C   0  0  0  0  0  0  0  0  0  0  0  0
    8.0008  -14.9589   21.5966 C   0  0  2  0  0  0  0  0  0  0  0  0
    6.6568  -15.4095   21.6515 N   0  0  0  0  0  0  0  0  0  0  0  0
    8.5112  -14.4620   22.8843 C   0  0  0  0  0  0  0  0  0  0  0  0
    9.7099  -14.0901   23.0217 O   0  0  0  0  0  0  0  0  0  0  0  0
    7.6776  -14.3810   24.0254 N   0  0  0  0  0  0  0  0  0  0  0  0
    8.3023  -14.3073   25.3540 C   0  0  1  0  0  0  0  0  0  0  0  0
    7.4460  -13.3845   26.2058 C   0  0  0  0  0  0  0  0  0  0  0  0
    5.6875  -13.7204   26.0268 S   0  0  0  0  0  0  0  0  0  0  0  0
    8.2660  -15.6436   26.0183 C   0  0  0  0  0  0  0  0  0  0  0  0
    7.2480  -16.3596   26.0311 O   0  0  0  0  0  0  0  0  0  0  0  0
    9.4319  -16.0999   26.6500 N   0  0  0  0  0  0  0  0  0  0  0  0
    9.5546  -17.3830   27.3130 C   0  0  1  0  0  0  0  0  0  0  0  0
   10.0748  -18.3876   26.3325 C   0  0  0  0  0  0  0  0  0  0  0  0
   10.2210  -19.7708   26.8383 C   0  0  0  0  0  0  0  0  0  0  0  0
   10.8213  -20.7686   25.9179 C   0  0  0  0  0  0  0  0  0  0  0  0
   10.8371  -22.1797   26.3962 C   0  0  0  0  0  0  0  0  0  0  0  0
   11.5730  -23.1012   25.5679 N   0  0  0  0  0  0  0  0  0  0  0  0
   10.3577  -17.2969   28.5456 C   0  0  0  0  0  0  0  0  0  0  0  0
   11.1357  -16.3316   28.7510 O   0  0  0  0  0  0  0  0  0  0  0  0
   10.3103  -18.2644   29.5519 O   0  0  0  0  0  0  0  0  0  0  0  0
  1  2  1  0
  2  4  1  0
  3  2  2  0
  4  5  1  0
  5  6  1  0
  6  7  1  1
  8  6  1  0
  8 10  1  0
  9  8  2  0
 11 10  1  0
 11 14  1  0
 11 12  1  1
 13 12  1  0
 14 15  2  0
 16 14  1  0
 16 17  1  0
 17 23  1  0
 17 18  1  6
 19 18  1  0
 20 19  1  0
 21 22  1  0
 21 20  1  0
 23 25  1  0
 24 23  2  0
M  END
$$$$
