QCK.pdb
     RDKit          3D

 25 24  0  0  1  0  0  0  0  0999 V2000
   10.4852  -15.4453   12.7902 N   0  0  0  0  0  0  0  0  0  0  0  0
    9.0568  -15.4687   13.0076 C   0  0  0  0  0  0  0  0  0  0  0  0
    8.3849  -15.0297   12.0465 O   0  0  0  0  0  0  0  0  0  0  0  0
    8.4966  -15.9743   14.2588 C   0  0  0  0  0  0  0  0  0  0  0  0
    9.4225  -16.5198   15.2608 C   0  0  0  0  0  0  0  0  0  0  0  0
    8.9188  -17.0291   16.5427 C   0  0  2  0  0  0  0  0  0  0  0  0
    7.5683  -17.4575   16.4730 N   0  0  0  0  0  0  0  0  0  0  0  0
    9.2142  -16.1924   17.7167 C   0  0  0  0  0  0  0  0  0  0  0  0
   10.3924  -15.8326   17.9931 O   0  0  0  0  0  0  0  0  0  0  0  0
    8.1872  -15.7560   18.5875 N   0  0  0  0  0  0  0  0  0  0  0  0
    8.5591  -15.0499   19.8221 C   0  0  1  0  0  0  0  0  0  0  0  0
    7.2789  -14.5070   20.4357 C   0  0  0  0  0  0  0  0  0  0  0  0
    7.5585  -13.7358   22.0371 S   0  0  0  0  0  0  0  0  0  0  0  0
    9.1261  -16.0084   20.8162 C   0  0  0  0  0  0  0  0  0  0  0  0
    8.6247  -17.1270   21.0319 O   0  0  0  0  0  0  0  0  0  0  0  0
   10.2697  -15.6217   21.5297 N   0  0  0  0  0  0  0  0  0  0  0  0
   10.9322  -16.4447   22.5220 C   0  0  1  0  0  0  0  0  0  0  0  0
   12.3842  -16.0820   22.5616 C   0  0  0  0  0  0  0  0  0  0  0  0
   13.2435  -16.9408   23.4069 C   0  0  0  0  0  0  0  0  0  0  0  0
   14.6827  -16.5870   23.4892 C   0  0  0  0  0  0  0  0  0  0  0  0
   15.5471  -17.5216   24.2635 C   0  0  0  0  0  0  0  0  0  0  0  0
   16.9218  -17.1128   24.4048 N   0  0  0  0  0  0  0  0  0  0  0  0
   10.2728  -16.3678   23.8376 C   0  0  0  0  0  0  0  0  0  0  0  0
   10.5077  -17.2152   24.7355 O   0  0  0  0  0  0  0  0  0  0  0  0
    9.3582  -15.3662   24.1711 O   0  0  0  0  0  0  0  0  0  0  0  0
  1  2  1  0
  2  4  1  0
  3  2  2  0
  4  5  1  0
  5  6  1  0
  6  7  1  6
  8  6  1  0
  8 10  1  0
  9  8  2  0
 11 10  1  0
 11 14  1  0
 11 12  1  1
 13 12  1  0
 14 15  2  0
 16 14  1  0
 16 17  1  0
 17 23  1  0
 17 18  1  1
 19 18  1  0
 20 19  1  0
 21 22  1  0
 21 20  1  0
 23 25  1  0
 24 23  2  0
M  END
$$$$
