TVS.pdb
     RDKit          3D

 21 20  0  0  1  0  0  0  0  0999 V2000
   18.8548   -7.7255  -12.2123 C   0  0  0  0  0  0  0  0  0  0  0  0
   18.1186   -8.9955  -12.4095 C   0  0  1  0  0  0  0  0  0  0  0  0
   18.9761  -10.0736  -12.6358 O   0  0  0  0  0  0  0  0  0  0  0  0
   17.1670   -9.3883  -11.3268 C   0  0  2  0  0  0  0  0  0  0  0  0
   16.6821  -10.7481  -11.4865 N   0  0  0  0  0  0  0  0  0  0  0  0
   16.0904   -8.4358  -11.0590 C   0  0  0  0  0  0  0  0  0  0  0  0
   15.1395   -8.1745  -11.8313 O   0  0  0  0  0  0  0  0  0  0  0  0
   15.1096   -7.3676   -7.0817 C   0  0  0  0  0  0  0  0  0  0  0  0
   14.2854   -7.2033   -8.3247 C   0  0  2  0  0  0  0  0  0  0  0  0
   13.5359   -8.4664   -8.6060 C   0  0  0  0  0  0  0  0  0  0  0  0
   15.1035   -6.7259   -9.4902 C   0  0  2  0  0  0  0  0  0  0  0  0
   16.0938   -7.7280   -9.8235 N   0  0  0  0  0  0  0  0  0  0  0  0
   15.7280   -5.4055   -9.2428 C   0  0  0  0  0  0  0  0  0  0  0  0
   16.7808   -5.3335   -8.5617 O   0  0  0  0  0  0  0  0  0  0  0  0
   16.1208   -0.8088  -10.6337 O   0  0  0  0  0  0  0  0  0  0  0  0
   15.5425   -2.0756  -10.7607 C   0  0  0  0  0  0  0  0  0  0  0  0
   15.8028   -2.9405   -9.5538 C   0  0  2  0  0  0  0  0  0  0  0  0
   15.1572   -4.2203   -9.7623 N   0  0  0  0  0  0  0  0  0  0  0  0
   15.2390   -2.2319   -8.3751 C   0  0  0  0  0  0  0  0  0  0  0  0
   14.1178   -2.5782   -7.9586 O   0  0  0  0  0  0  0  0  0  0  0  0
   15.9904   -1.2244   -7.8028 O   0  0  0  0  0  0  0  0  0  0  0  0
  2  3  1  0
  2  1  1  1
  4  2  1  0
  4  5  1  6
  6 12  1  0
  6  4  1  0
  7  6  2  0
  9  8  1  1
  9 11  1  0
 10  9  1  0
 11 13  1  0
 11 12  1  1
 13 18  1  0
 14 13  2  0
 15 16  1  0
 17 19  1  0
 17 16  1  6
 18 17  1  0
 19 20  2  0
 19 21  1  0
M  END
$$$$
