TVS.pdb
     RDKit          3D

 21 20  0  0  1  0  0  0  0  0999 V2000
   17.3813  -10.0105  -19.5911 C   0  0  0  0  0  0  0  0  0  0  0  0
   18.0075   -9.3917  -18.4000 C   0  0  1  0  0  0  0  0  0  0  0  0
   17.3376   -8.2375  -17.9904 O   0  0  0  0  0  0  0  0  0  0  0  0
   18.1754  -10.2709  -17.2038 C   0  0  2  0  0  0  0  0  0  0  0  0
   16.9338  -10.9181  -16.8173 N   0  0  0  0  0  0  0  0  0  0  0  0
   18.8694   -9.6637  -16.0689 C   0  0  0  0  0  0  0  0  0  0  0  0
   18.3205   -9.1915  -15.0467 O   0  0  0  0  0  0  0  0  0  0  0  0
   21.8140  -11.2610  -14.2136 C   0  0  0  0  0  0  0  0  0  0  0  0
   22.2393   -9.9151  -14.7225 C   0  0  2  0  0  0  0  0  0  0  0  0
   23.2274   -9.3062  -13.7797 C   0  0  0  0  0  0  0  0  0  0  0  0
   21.0679   -9.0215  -15.0140 C   0  0  2  0  0  0  0  0  0  0  0  0
   20.2909   -9.5871  -16.0967 N   0  0  0  0  0  0  0  0  0  0  0  0
   21.4759   -7.6279  -15.3078 C   0  0  0  0  0  0  0  0  0  0  0  0
   22.0931   -7.3719  -16.3713 O   0  0  0  0  0  0  0  0  0  0  0  0
   20.5890   -2.9965  -14.7967 O   0  0  0  0  0  0  0  0  0  0  0  0
   20.3143   -4.3481  -14.5660 C   0  0  0  0  0  0  0  0  0  0  0  0
   21.5393   -5.2110  -14.7307 C   0  0  2  0  0  0  0  0  0  0  0  0
   21.1813   -6.5771  -14.4082 N   0  0  0  0  0  0  0  0  0  0  0  0
   22.5750   -4.6860  -13.8029 C   0  0  0  0  0  0  0  0  0  0  0  0
   22.6549   -5.1841  -12.6644 O   0  0  0  0  0  0  0  0  0  0  0  0
   23.3959   -3.6712  -14.2536 O   0  0  0  0  0  0  0  0  0  0  0  0
  2  3  1  0
  2  1  1  6
  4  2  1  0
  4  5  1  1
  6 12  1  0
  6  4  1  0
  7  6  2  0
  9  8  1  1
  9 11  1  0
 10  9  1  0
 11 13  1  0
 11 12  1  6
 13 18  1  0
 14 13  2  0
 15 16  1  0
 17 19  1  0
 17 16  1  1
 18 17  1  0
 19 20  2  0
 19 21  1  0
M  END
$$$$
