TVS.pdb
     RDKit          3D

 21 20  0  0  1  0  0  0  0  0999 V2000
   21.2768   -8.1957  -20.2556 C   0  0  0  0  0  0  0  0  0  0  0  0
   20.6325   -9.5146  -20.4530 C   0  0  1  0  0  0  0  0  0  0  0  0
   20.9069  -10.0537  -21.7111 O   0  0  0  0  0  0  0  0  0  0  0  0
   20.9342  -10.5624  -19.4315 C   0  0  2  0  0  0  0  0  0  0  0  0
   20.2753  -11.8231  -19.7247 N   0  0  0  0  0  0  0  0  0  0  0  0
   20.7650  -10.1506  -18.0386 C   0  0  0  0  0  0  0  0  0  0  0  0
   19.6808  -10.1278  -17.4119 O   0  0  0  0  0  0  0  0  0  0  0  0
   22.6512   -9.6663  -13.6246 C   0  0  0  0  0  0  0  0  0  0  0  0
   22.7044  -10.0977  -15.0607 C   0  0  2  0  0  0  0  0  0  0  0  0
   24.1269  -10.1635  -15.5174 C   0  0  0  0  0  0  0  0  0  0  0  0
   21.8363   -9.2467  -15.9425 C   0  0  2  0  0  0  0  0  0  0  0  0
   21.9112   -9.7342  -17.3036 N   0  0  0  0  0  0  0  0  0  0  0  0
   22.1807   -7.8081  -15.8606 C   0  0  0  0  0  0  0  0  0  0  0  0
   23.1905   -7.3749  -16.4691 O   0  0  0  0  0  0  0  0  0  0  0  0
   20.0771   -4.8268  -16.6106 O   0  0  0  0  0  0  0  0  0  0  0  0
   20.5190   -4.6854  -15.2914 C   0  0  0  0  0  0  0  0  0  0  0  0
   21.7496   -5.5108  -15.0149 C   0  0  2  0  0  0  0  0  0  0  0  0
   21.3894   -6.9109  -15.1062 N   0  0  0  0  0  0  0  0  0  0  0  0
   22.2187   -5.1572  -13.6495 C   0  0  0  0  0  0  0  0  0  0  0  0
   22.0447   -5.9823  -12.7333 O   0  0  0  0  0  0  0  0  0  0  0  0
   22.8242   -3.9293  -13.4689 O   0  0  0  0  0  0  0  0  0  0  0  0
  2  3  1  0
  2  1  1  1
  4  2  1  0
  4  5  1  6
  6 12  1  0
  6  4  1  0
  7  6  2  0
  9  8  1  1
  9 11  1  0
 10  9  1  0
 11 13  1  0
 11 12  1  6
 13 18  1  0
 14 13  2  0
 15 16  1  0
 17 19  1  0
 17 16  1  1
 18 17  1  0
 19 20  2  0
 19 21  1  0
M  END
$$$$
