TVS.pdb
     RDKit          3D

 21 20  0  0  1  0  0  0  0  0999 V2000
   21.6445   -9.5081  -20.4106 C   0  0  0  0  0  0  0  0  0  0  0  0
   21.3045  -10.9399  -20.2432 C   0  0  1  0  0  0  0  0  0  0  0  0
   21.1934  -11.6031  -21.4666 O   0  0  0  0  0  0  0  0  0  0  0  0
   22.2132  -11.7421  -19.3698 C   0  0  2  0  0  0  0  0  0  0  0  0
   21.8443  -13.1465  -19.3340 N   0  0  0  0  0  0  0  0  0  0  0  0
   22.4541  -11.1905  -18.0372 C   0  0  0  0  0  0  0  0  0  0  0  0
   21.6234  -11.1590  -17.1002 O   0  0  0  0  0  0  0  0  0  0  0  0
   25.8331   -9.5292  -14.8410 C   0  0  0  0  0  0  0  0  0  0  0  0
   25.4759  -10.1422  -16.1630 C   0  0  2  0  0  0  0  0  0  0  0  0
   26.4064   -9.6420  -17.2213 C   0  0  0  0  0  0  0  0  0  0  0  0
   24.0267   -9.9485  -16.5064 C   0  0  2  0  0  0  0  0  0  0  0  0
   23.7321  -10.6337  -17.7473 N   0  0  0  0  0  0  0  0  0  0  0  0
   23.6445   -8.5185  -16.5710 C   0  0  0  0  0  0  0  0  0  0  0  0
   23.8207   -7.8754  -17.6353 O   0  0  0  0  0  0  0  0  0  0  0  0
   20.7537   -5.1482  -16.1803 O   0  0  0  0  0  0  0  0  0  0  0  0
   21.2403   -6.4529  -16.0523 C   0  0  0  0  0  0  0  0  0  0  0  0
   22.6590   -6.4808  -15.5438 C   0  0  2  0  0  0  0  0  0  0  0  0
   23.0828   -7.8629  -15.4507 N   0  0  0  0  0  0  0  0  0  0  0  0
   22.6622   -5.8195  -14.2127 C   0  0  0  0  0  0  0  0  0  0  0  0
   22.6122   -4.5760  -14.1711 O   0  0  0  0  0  0  0  0  0  0  0  0
   22.7206   -6.6211  -13.0897 O   0  0  0  0  0  0  0  0  0  0  0  0
  2  3  1  0
  2  1  1  6
  4  2  1  0
  4  5  1  1
  6 12  1  0
  6  4  1  0
  7  6  2  0
  9  8  1  1
  9 11  1  0
 10  9  1  0
 11 13  1  0
 11 12  1  6
 13 18  1  0
 14 13  2  0
 15 16  1  0
 17 19  1  0
 17 16  1  1
 18 17  1  0
 19 20  2  0
 19 21  1  0
M  END
$$$$
