TVS.pdb
     RDKit          3D

 21 20  0  0  1  0  0  0  0  0999 V2000
   17.5510   -8.0235  -17.9944 C   0  0  0  0  0  0  0  0  0  0  0  0
   16.2673   -8.7610  -17.9510 C   0  0  1  0  0  0  0  0  0  0  0  0
   16.0792   -9.5611  -19.0794 O   0  0  0  0  0  0  0  0  0  0  0  0
   16.0273   -9.6091  -16.7447 C   0  0  2  0  0  0  0  0  0  0  0  0
   14.8531  -10.4519  -16.8888 N   0  0  0  0  0  0  0  0  0  0  0  0
   16.0595   -8.9048  -15.4636 C   0  0  0  0  0  0  0  0  0  0  0  0
   15.2342   -8.0416  -15.0854 O   0  0  0  0  0  0  0  0  0  0  0  0
   18.3858  -10.4863  -12.2801 C   0  0  0  0  0  0  0  0  0  0  0  0
   17.2724   -9.4876  -12.1607 C   0  0  2  0  0  0  0  0  0  0  0  0
   15.9678  -10.2003  -11.9989 C   0  0  0  0  0  0  0  0  0  0  0  0
   17.2726   -8.4983  -13.2907 C   0  0  2  0  0  0  0  0  0  0  0  0
   17.1054   -9.2024  -14.5446 N   0  0  0  0  0  0  0  0  0  0  0  0
   18.4864   -7.6489  -13.3018 C   0  0  0  0  0  0  0  0  0  0  0  0
   18.7223   -6.8889  -12.3300 O   0  0  0  0  0  0  0  0  0  0  0  0
   21.9429   -8.7178  -14.8416 O   0  0  0  0  0  0  0  0  0  0  0  0
   21.5985   -7.4367  -15.2840 C   0  0  0  0  0  0  0  0  0  0  0  0
   20.5409   -6.8034  -14.4165 C   0  0  2  0  0  0  0  0  0  0  0  0
   19.3873   -7.6791  -14.3916 N   0  0  0  0  0  0  0  0  0  0  0  0
   20.2107   -5.4847  -15.0176 C   0  0  0  0  0  0  0  0  0  0  0  0
   19.0509   -5.2980  -15.4309 O   0  0  0  0  0  0  0  0  0  0  0  0
   21.2099   -4.5340  -15.0861 O   0  0  0  0  0  0  0  0  0  0  0  0
  2  3  1  0
  2  1  1  1
  4  2  1  0
  4  5  1  6
  6 12  1  0
  6  4  1  0
  7  6  2  0
  9  8  1  6
  9 11  1  0
 10  9  1  0
 11 13  1  0
 11 12  1  6
 13 18  1  0
 14 13  2  0
 15 16  1  0
 17 19  1  0
 17 16  1  6
 18 17  1  0
 19 20  2  0
 19 21  1  0
M  END
$$$$
