TVS.pdb
     RDKit          3D

 21 20  0  0  1  0  0  0  0  0999 V2000
   16.5364  -12.6126  -17.1774 C   0  0  0  0  0  0  0  0  0  0  0  0
   17.4630  -11.9821  -16.2091 C   0  0  1  0  0  0  0  0  0  0  0  0
   18.0407  -12.9151  -15.3463 O   0  0  0  0  0  0  0  0  0  0  0  0
   18.5627  -11.1505  -16.7848 C   0  0  2  0  0  0  0  0  0  0  0  0
   19.4895  -11.9370  -17.5798 N   0  0  0  0  0  0  0  0  0  0  0  0
   19.2434  -10.2660  -15.8400 C   0  0  0  0  0  0  0  0  0  0  0  0
   18.6966   -9.6440  -14.9002 O   0  0  0  0  0  0  0  0  0  0  0  0
   23.5575   -9.8705  -16.1869 C   0  0  0  0  0  0  0  0  0  0  0  0
   22.7934   -9.8980  -14.8959 C   0  0  2  0  0  0  0  0  0  0  0  0
   22.7735  -11.2896  -14.3488 C   0  0  0  0  0  0  0  0  0  0  0  0
   21.4253   -9.2938  -15.0321 C   0  0  2  0  0  0  0  0  0  0  0  0
   20.6479  -10.0737  -15.9721 N   0  0  0  0  0  0  0  0  0  0  0  0
   21.4716   -7.8644  -15.4190 C   0  0  0  0  0  0  0  0  0  0  0  0
   21.5906   -7.5515  -16.6296 O   0  0  0  0  0  0  0  0  0  0  0  0
   20.1406   -3.5418  -15.3871 O   0  0  0  0  0  0  0  0  0  0  0  0
   20.1164   -4.8903  -15.0176 C   0  0  0  0  0  0  0  0  0  0  0  0
   21.5029   -5.4504  -14.8275 C   0  0  2  0  0  0  0  0  0  0  0  0
   21.3838   -6.8425  -14.4452 N   0  0  0  0  0  0  0  0  0  0  0  0
   22.1594   -4.6475  -13.7627 C   0  0  0  0  0  0  0  0  0  0  0  0
   22.3167   -5.1686  -12.6427 O   0  0  0  0  0  0  0  0  0  0  0  0
   22.5610   -3.3632  -14.0726 O   0  0  0  0  0  0  0  0  0  0  0  0
  2  3  1  0
  2  1  1  6
  4  2  1  0
  4  5  1  1
  6 12  1  0
  6  4  1  0
  7  6  2  0
  9  8  1  6
  9 11  1  0
 10  9  1  0
 11 13  1  0
 11 12  1  6
 13 18  1  0
 14 13  2  0
 15 16  1  0
 17 19  1  0
 17 16  1  1
 18 17  1  0
 19 20  2  0
 19 21  1  0
M  END
$$$$
