TVS.pdb
     RDKit          3D

 21 20  0  0  1  0  0  0  0  0999 V2000
   17.1332  -15.3354  -14.2327 C   0  0  0  0  0  0  0  0  0  0  0  0
   17.7978  -14.2352  -14.9686 C   0  0  1  0  0  0  0  0  0  0  0  0
   19.0788  -14.5855  -15.3988 O   0  0  0  0  0  0  0  0  0  0  0  0
   17.0591  -13.6771  -16.1412 C   0  0  2  0  0  0  0  0  0  0  0  0
   16.7101  -14.7012  -17.1103 N   0  0  0  0  0  0  0  0  0  0  0  0
   17.6621  -12.4984  -16.7619 C   0  0  0  0  0  0  0  0  0  0  0  0
   18.2934  -12.4867  -17.8437 O   0  0  0  0  0  0  0  0  0  0  0  0
   15.9067   -8.8559  -16.1401 C   0  0  0  0  0  0  0  0  0  0  0  0
   16.9112   -9.1923  -17.2026 C   0  0  2  0  0  0  0  0  0  0  0  0
   16.2228   -9.8297  -18.3671 C   0  0  0  0  0  0  0  0  0  0  0  0
   18.0525  -10.0089  -16.6677 C   0  0  2  0  0  0  0  0  0  0  0  0
   17.5391  -11.2406  -16.1061 N   0  0  0  0  0  0  0  0  0  0  0  0
   18.8726   -9.2634  -15.6846 C   0  0  0  0  0  0  0  0  0  0  0  0
   18.5515   -9.2757  -14.4704 O   0  0  0  0  0  0  0  0  0  0  0  0
   22.8778   -8.8803  -15.8783 O   0  0  0  0  0  0  0  0  0  0  0  0
   22.2129   -7.6631  -15.6996 C   0  0  0  0  0  0  0  0  0  0  0  0
   20.8365   -7.8503  -15.1143 C   0  0  2  0  0  0  0  0  0  0  0  0
   20.0150   -8.5354  -16.0911 N   0  0  0  0  0  0  0  0  0  0  0  0
   20.3020   -6.4981  -14.8058 C   0  0  0  0  0  0  0  0  0  0  0  0
   19.4010   -6.0394  -15.5326 O   0  0  0  0  0  0  0  0  0  0  0  0
   20.8344   -5.8204  -13.7267 O   0  0  0  0  0  0  0  0  0  0  0  0
  2  3  1  0
  2  1  1  6
  4  2  1  0
  4  5  1  6
  6 12  1  0
  6  4  1  0
  7  6  2  0
  9  8  1  1
  9 11  1  0
 10  9  1  0
 11 13  1  0
 11 12  1  1
 13 18  1  0
 14 13  2  0
 15 16  1  0
 17 19  1  0
 17 16  1  6
 18 17  1  0
 19 20  2  0
 19 21  1  0
M  END
$$$$
