TVS.pdb
     RDKit          3D

 21 20  0  0  1  0  0  0  0  0999 V2000
   15.1062  -10.5317  -16.7684 C   0  0  0  0  0  0  0  0  0  0  0  0
   16.3922  -10.0484  -16.2149 C   0  0  1  0  0  0  0  0  0  0  0  0
   16.2374   -9.4513  -14.9626 O   0  0  0  0  0  0  0  0  0  0  0  0
   17.4911  -11.0549  -16.1082 C   0  0  2  0  0  0  0  0  0  0  0  0
   17.0706  -12.2574  -15.4104 N   0  0  0  0  0  0  0  0  0  0  0  0
   18.7703  -10.5407  -15.6206 C   0  0  0  0  0  0  0  0  0  0  0  0
   19.2422  -10.7277  -14.4754 O   0  0  0  0  0  0  0  0  0  0  0  0
   22.1030  -11.1410  -17.1040 C   0  0  0  0  0  0  0  0  0  0  0  0
   21.8976   -9.6547  -17.1100 C   0  0  2  0  0  0  0  0  0  0  0  0
   23.2111   -8.9611  -16.9374 C   0  0  0  0  0  0  0  0  0  0  0  0
   20.8610   -9.2201  -16.1138 C   0  0  2  0  0  0  0  0  0  0  0  0
   19.5723   -9.7567  -16.4976 N   0  0  0  0  0  0  0  0  0  0  0  0
   20.8107   -7.7483  -15.9519 C   0  0  0  0  0  0  0  0  0  0  0  0
   20.2776   -7.0425  -16.8436 O   0  0  0  0  0  0  0  0  0  0  0  0
   20.9606   -6.0471  -12.2758 O   0  0  0  0  0  0  0  0  0  0  0  0
   21.6927   -5.3426  -13.2366 C   0  0  0  0  0  0  0  0  0  0  0  0
   21.2629   -5.6860  -14.6400 C   0  0  2  0  0  0  0  0  0  0  0  0
   21.3548   -7.1220  -14.8064 N   0  0  0  0  0  0  0  0  0  0  0  0
   22.1779   -4.9708  -15.5676 C   0  0  0  0  0  0  0  0  0  0  0  0
   23.1254   -5.6050  -16.0682 O   0  0  0  0  0  0  0  0  0  0  0  0
   21.9282   -3.6374  -15.8260 O   0  0  0  0  0  0  0  0  0  0  0  0
  2  3  1  0
  2  1  1  1
  4  2  1  0
  4  5  1  1
  6 12  1  0
  6  4  1  0
  7  6  2  0
  9  8  1  1
  9 11  1  0
 10  9  1  0
 11 13  1  0
 11 12  1  6
 13 18  1  0
 14 13  2  0
 15 16  1  0
 17 19  1  0
 17 16  1  1
 18 17  1  0
 19 20  2  0
 19 21  1  0
M  END
$$$$
