TVS.pdb
     RDKit          3D

 21 20  0  0  1  0  0  0  0  0999 V2000
   15.5618  -11.8082  -11.8442 C   0  0  0  0  0  0  0  0  0  0  0  0
   14.2189  -12.0574  -11.2714 C   0  0  1  0  0  0  0  0  0  0  0  0
   14.0693  -13.3726  -10.8280 O   0  0  0  0  0  0  0  0  0  0  0  0
   13.7886  -11.1508  -10.1646 C   0  0  2  0  0  0  0  0  0  0  0  0
   12.5220  -11.5568   -9.5810 N   0  0  0  0  0  0  0  0  0  0  0  0
   13.8345   -9.7211  -10.4684 C   0  0  0  0  0  0  0  0  0  0  0  0
   12.9887   -9.0922  -11.1453 O   0  0  0  0  0  0  0  0  0  0  0  0
   16.0503   -7.2070   -7.9710 C   0  0  0  0  0  0  0  0  0  0  0  0
   14.9996   -6.7696   -8.9488 C   0  0  2  0  0  0  0  0  0  0  0  0
   13.6523   -6.8231   -8.3023 C   0  0  0  0  0  0  0  0  0  0  0  0
   15.0701   -7.5349  -10.2391 C   0  0  2  0  0  0  0  0  0  0  0  0
   14.9205   -8.9489   -9.9668 N   0  0  0  0  0  0  0  0  0  0  0  0
   16.3114   -7.2557  -10.9980 C   0  0  0  0  0  0  0  0  0  0  0  0
   17.4089   -7.7017  -10.5807 O   0  0  0  0  0  0  0  0  0  0  0  0
   16.8220   -7.8782  -14.5888 O   0  0  0  0  0  0  0  0  0  0  0  0
   17.2242   -6.5535  -14.3917 C   0  0  0  0  0  0  0  0  0  0  0  0
   17.4974   -6.2547  -12.9397 C   0  0  2  0  0  0  0  0  0  0  0  0
   16.2819   -6.4930  -12.1887 N   0  0  0  0  0  0  0  0  0  0  0  0
   17.9197   -4.8321  -12.8552 C   0  0  0  0  0  0  0  0  0  0  0  0
   17.1526   -4.0202  -12.3048 O   0  0  0  0  0  0  0  0  0  0  0  0
   19.1434   -4.4852  -13.3930 O   0  0  0  0  0  0  0  0  0  0  0  0
  2  3  1  0
  2  1  1  1
  4  2  1  0
  4  5  1  6
  6 12  1  0
  6  4  1  0
  7  6  2  0
  9  8  1  1
  9 11  1  0
 10  9  1  0
 11 13  1  0
 11 12  1  1
 13 18  1  0
 14 13  2  0
 15 16  1  0
 17 19  1  0
 17 16  1  6
 18 17  1  0
 19 20  2  0
 19 21  1  0
M  END
$$$$
