KSD.pdb
     RDKit          3D

 24 23  0  0  1  0  0  0  0  0999 V2000
   15.2876  -12.7682  -17.5261 N   0  0  0  0  0  0  0  0  0  0  0  0
   16.3024  -12.2389  -16.6862 C   0  0  1  0  0  0  0  0  0  0  0  0
   17.2224  -13.2875  -16.1850 C   0  0  0  0  0  0  0  0  0  0  0  0
   16.4755  -14.3904  -15.5023 C   0  0  0  0  0  0  0  0  0  0  0  0
   17.3095  -15.3983  -14.7786 C   0  0  0  0  0  0  0  0  0  0  0  0
   16.4448  -16.4505  -14.0941 C   0  0  0  0  0  0  0  0  0  0  0  0
   17.3470  -17.3763  -13.4358 N   0  0  0  0  0  0  0  0  0  0  0  0
   17.0033  -11.0948  -17.3216 C   0  0  0  0  0  0  0  0  0  0  0  0
   17.1838  -10.9995  -18.5546 O   0  0  0  0  0  0  0  0  0  0  0  0
   16.2319   -7.4875  -17.2470 O   0  0  0  0  0  0  0  0  0  0  0  0
   17.2667   -8.0782  -17.9412 C   0  0  0  0  0  0  0  0  0  0  0  0
   18.1632   -8.8792  -17.0307 C   0  0  2  0  0  0  0  0  0  0  0  0
   17.4958  -10.0556  -16.5028 N   0  0  0  0  0  0  0  0  0  0  0  0
   18.6369   -8.0893  -15.8659 C   0  0  0  0  0  0  0  0  0  0  0  0
   17.9416   -7.9900  -14.8177 O   0  0  0  0  0  0  0  0  0  0  0  0
   19.8835   -7.4067  -15.8593 N   0  0  0  0  0  0  0  0  0  0  0  0
   20.2480   -6.5425  -14.7522 C   0  0  1  0  0  0  0  0  0  0  0  0
   21.7467   -6.3366  -14.7501 C   0  0  0  0  0  0  0  0  0  0  0  0
   22.1897   -5.4770  -13.6422 C   0  0  0  0  0  0  0  0  0  0  0  0
   21.6044   -5.5164  -12.5445 O   0  0  0  0  0  0  0  0  0  0  0  0
   19.5431   -5.2183  -14.8816 C   0  0  0  0  0  0  0  0  0  0  0  0
   19.1119   -4.5294  -13.7616 O   0  0  0  0  0  0  0  0  0  0  0  0
   23.2561   -4.6227  -13.8135 O   0  0  0  0  0  0  0  0  0  0  0  0
   19.3255   -4.7003  -15.9987 O   0  0  0  0  0  0  0  0  0  0  0  0
  2  1  1  6
  3  2  1  0
  4  3  1  0
  5  4  1  0
  5  6  1  0
  6  7  1  0
  8  2  1  0
  8  9  2  0
 12 11  1  1
 11 10  1  0
 13 12  1  0
 13  8  1  0
 14 15  2  0
 14 12  1  0
 16 14  1  0
 17 21  1  0
 17 16  1  0
 17 18  1  6
 19 23  1  0
 19 18  1  0
 20 19  2  0
 21 22  1  0
 24 21  2  0
M  END
$$$$
