KSD.pdb
     RDKit          3D

 24 23  0  0  1  0  0  0  0  0999 V2000
   19.6766  -23.3944  -12.8034 N   0  0  0  0  0  0  0  0  0  0  0  0
   19.6158  -22.3301  -11.8658 C   0  0  1  0  0  0  0  0  0  0  0  0
   19.7459  -22.8035  -10.4672 C   0  0  0  0  0  0  0  0  0  0  0  0
   18.5875  -23.6644  -10.0707 C   0  0  0  0  0  0  0  0  0  0  0  0
   18.6420  -24.2452   -8.6941 C   0  0  0  0  0  0  0  0  0  0  0  0
   17.4390  -25.1395   -8.4175 C   0  0  0  0  0  0  0  0  0  0  0  0
   17.5686  -25.6120   -7.0521 N   0  0  0  0  0  0  0  0  0  0  0  0
   20.5615  -21.2382  -12.2086 C   0  0  0  0  0  0  0  0  0  0  0  0
   20.7133  -20.2158  -11.5061 O   0  0  0  0  0  0  0  0  0  0  0  0
   24.6391  -20.7147  -13.2775 O   0  0  0  0  0  0  0  0  0  0  0  0
   23.6336  -21.0037  -14.1758 C   0  0  0  0  0  0  0  0  0  0  0  0
   22.3277  -20.3642  -13.7756 C   0  0  2  0  0  0  0  0  0  0  0  0
   21.3340  -21.3481  -13.3851 N   0  0  0  0  0  0  0  0  0  0  0  0
   21.7333  -19.5585  -14.8723 C   0  0  0  0  0  0  0  0  0  0  0  0
   22.3632  -18.5959  -15.3910 O   0  0  0  0  0  0  0  0  0  0  0  0
   20.4384  -19.8172  -15.3977 N   0  0  0  0  0  0  0  0  0  0  0  0
   19.8849  -18.9813  -16.4466 C   0  0  1  0  0  0  0  0  0  0  0  0
   19.2531  -19.8584  -17.5050 C   0  0  0  0  0  0  0  0  0  0  0  0
   18.6530  -19.0735  -18.5941 C   0  0  0  0  0  0  0  0  0  0  0  0
   18.7554  -17.8330  -18.6039 O   0  0  0  0  0  0  0  0  0  0  0  0
   18.8571  -18.0454  -15.8679 C   0  0  0  0  0  0  0  0  0  0  0  0
   18.1148  -18.4034  -14.7562 O   0  0  0  0  0  0  0  0  0  0  0  0
   17.9735  -19.7074  -19.6104 O   0  0  0  0  0  0  0  0  0  0  0  0
   18.6415  -16.9206  -16.3696 O   0  0  0  0  0  0  0  0  0  0  0  0
  2  1  1  6
  3  2  1  0
  4  3  1  0
  5  4  1  0
  5  6  1  0
  6  7  1  0
  8  2  1  0
  8  9  2  0
 12 11  1  6
 11 10  1  0
 13 12  1  0
 13  8  1  0
 14 15  2  0
 14 12  1  0
 16 14  1  0
 17 21  1  0
 17 16  1  0
 17 18  1  6
 19 23  1  0
 19 18  1  0
 20 19  2  0
 21 22  1  0
 24 21  2  0
M  END
$$$$
