KSD.pdb
     RDKit          3D

 24 23  0  0  1  0  0  0  0  0999 V2000
   21.1782  -13.4031  -16.9756 N   0  0  0  0  0  0  0  0  0  0  0  0
   20.4694  -12.1736  -16.9401 C   0  0  1  0  0  0  0  0  0  0  0  0
   19.0493  -12.3306  -17.3347 C   0  0  0  0  0  0  0  0  0  0  0  0
   18.9238  -12.8809  -18.7209 C   0  0  0  0  0  0  0  0  0  0  0  0
   17.5304  -13.0884  -19.2214 C   0  0  0  0  0  0  0  0  0  0  0  0
   17.5241  -13.6715  -20.6298 C   0  0  0  0  0  0  0  0  0  0  0  0
   16.1401  -13.7173  -21.0622 N   0  0  0  0  0  0  0  0  0  0  0  0
   20.6466  -11.4720  -15.6438 C   0  0  0  0  0  0  0  0  0  0  0  0
   20.4832  -12.0260  -14.5355 O   0  0  0  0  0  0  0  0  0  0  0  0
   22.8298   -9.2188  -12.5852 O   0  0  0  0  0  0  0  0  0  0  0  0
   22.4829   -9.9783  -13.6827 C   0  0  0  0  0  0  0  0  0  0  0  0
   21.3306   -9.3687  -14.4410 C   0  0  2  0  0  0  0  0  0  0  0  0
   21.0179  -10.1101  -15.6495 N   0  0  0  0  0  0  0  0  0  0  0  0
   21.6011   -7.9668  -14.8493 C   0  0  0  0  0  0  0  0  0  0  0  0
   22.4168   -7.7018  -15.7749 O   0  0  0  0  0  0  0  0  0  0  0  0
   20.9680   -6.8537  -14.2329 N   0  0  0  0  0  0  0  0  0  0  0  0
   21.2280   -5.5039  -14.6972 C   0  0  1  0  0  0  0  0  0  0  0  0
   19.9212   -4.7482  -14.7972 C   0  0  0  0  0  0  0  0  0  0  0  0
   20.1088   -3.3712  -15.2780 C   0  0  0  0  0  0  0  0  0  0  0  0
   21.0765   -3.0876  -16.0076 O   0  0  0  0  0  0  0  0  0  0  0  0
   22.1597   -4.8039  -13.7436 C   0  0  0  0  0  0  0  0  0  0  0  0
   22.5968   -5.4287  -12.5888 O   0  0  0  0  0  0  0  0  0  0  0  0
   19.2138   -2.3867  -14.9230 O   0  0  0  0  0  0  0  0  0  0  0  0
   22.5667   -3.6420  -13.9623 O   0  0  0  0  0  0  0  0  0  0  0  0
  2  1  1  1
  3  2  1  0
  4  3  1  0
  5  4  1  0
  5  6  1  0
  6  7  1  0
  8  2  1  0
  8  9  2  0
 12 11  1  6
 11 10  1  0
 13 12  1  0
 13  8  1  0
 14 15  2  0
 14 12  1  0
 16 14  1  0
 17 21  1  0
 17 16  1  0
 17 18  1  1
 19 23  1  0
 19 18  1  0
 20 19  2  0
 21 22  1  0
 24 21  2  0
M  END
$$$$
