KSD.pdb
     RDKit          3D

 24 23  0  0  1  0  0  0  0  0999 V2000
   23.2106  -20.5489   -9.8175 N   0  0  0  0  0  0  0  0  0  0  0  0
   23.0161  -20.9285  -11.1716 C   0  0  1  0  0  0  0  0  0  0  0  0
   21.6094  -20.7598  -11.6073 C   0  0  0  0  0  0  0  0  0  0  0  0
   20.7775  -21.9502  -11.2452 C   0  0  0  0  0  0  0  0  0  0  0  0
   19.7493  -21.7337  -10.1818 C   0  0  0  0  0  0  0  0  0  0  0  0
   18.4929  -22.5560  -10.4445 C   0  0  0  0  0  0  0  0  0  0  0  0
   18.5444  -23.7021   -9.5566 N   0  0  0  0  0  0  0  0  0  0  0  0
   23.9952  -20.2727  -12.0745 C   0  0  0  0  0  0  0  0  0  0  0  0
   24.0868  -19.0330  -12.2034 O   0  0  0  0  0  0  0  0  0  0  0  0
   26.5298  -22.6622  -14.6063 O   0  0  0  0  0  0  0  0  0  0  0  0
   26.9810  -21.4989  -14.0191 C   0  0  0  0  0  0  0  0  0  0  0  0
   25.8525  -20.5342  -13.7541 C   0  0  2  0  0  0  0  0  0  0  0  0
   24.8727  -21.0789  -12.8314 N   0  0  0  0  0  0  0  0  0  0  0  0
   25.1229  -20.1634  -14.9932 C   0  0  0  0  0  0  0  0  0  0  0  0
   23.9957  -20.6628  -15.2618 O   0  0  0  0  0  0  0  0  0  0  0  0
   25.6408  -19.2375  -15.9389 N   0  0  0  0  0  0  0  0  0  0  0  0
   24.9022  -18.9234  -17.1477 C   0  0  1  0  0  0  0  0  0  0  0  0
   24.1026  -17.6575  -16.9313 C   0  0  0  0  0  0  0  0  0  0  0  0
   23.3972  -17.2287  -18.1483 C   0  0  0  0  0  0  0  0  0  0  0  0
   23.0999  -18.0588  -19.0268 O   0  0  0  0  0  0  0  0  0  0  0  0
   25.8556  -18.7436  -18.2992 C   0  0  0  0  0  0  0  0  0  0  0  0
   27.2219  -18.8670  -18.1175 O   0  0  0  0  0  0  0  0  0  0  0  0
   23.0614  -15.9047  -18.3228 O   0  0  0  0  0  0  0  0  0  0  0  0
   25.4468  -18.4785  -19.4508 O   0  0  0  0  0  0  0  0  0  0  0  0
  2  1  1  1
  3  2  1  0
  4  3  1  0
  5  4  1  0
  5  6  1  0
  6  7  1  0
  8  2  1  0
  8  9  2  0
 12 11  1  6
 11 10  1  0
 13 12  1  0
 13  8  1  0
 14 15  2  0
 14 12  1  0
 16 14  1  0
 17 21  1  0
 17 16  1  0
 17 18  1  1
 19 23  1  0
 19 18  1  0
 20 19  2  0
 21 22  1  0
 24 21  2  0
M  END
$$$$
