KSD.pdb
     RDKit          3D

 24 23  0  0  1  0  0  0  0  0999 V2000
   14.0179  -10.8814  -10.5423 N   0  0  0  0  0  0  0  0  0  0  0  0
   15.1708  -10.1246  -10.8792 C   0  0  1  0  0  0  0  0  0  0  0  0
   15.7202  -10.4952  -12.2051 C   0  0  0  0  0  0  0  0  0  0  0  0
   16.3841  -11.8361  -12.1673 C   0  0  0  0  0  0  0  0  0  0  0  0
   15.6502  -12.9513  -12.8404 C   0  0  0  0  0  0  0  0  0  0  0  0
   16.4347  -14.2565  -12.7732 C   0  0  0  0  0  0  0  0  0  0  0  0
   15.6086  -15.2784  -13.3876 N   0  0  0  0  0  0  0  0  0  0  0  0
   14.9381   -8.6666  -10.7245 C   0  0  0  0  0  0  0  0  0  0  0  0
   13.8413   -8.1173  -10.9638 O   0  0  0  0  0  0  0  0  0  0  0  0
   15.8959   -6.3917   -7.6180 O   0  0  0  0  0  0  0  0  0  0  0  0
   16.5794   -6.0164   -8.7554 C   0  0  0  0  0  0  0  0  0  0  0  0
   15.8484   -6.4314  -10.0075 C   0  0  2  0  0  0  0  0  0  0  0  0
   16.0014   -7.8480  -10.2860 N   0  0  0  0  0  0  0  0  0  0  0  0
   16.3238   -5.6989  -11.2086 C   0  0  0  0  0  0  0  0  0  0  0  0
   17.4141   -5.9995  -11.7680 O   0  0  0  0  0  0  0  0  0  0  0  0
   15.5917   -4.6305  -11.7938 N   0  0  0  0  0  0  0  0  0  0  0  0
   16.1384   -3.8836  -12.9112 C   0  0  1  0  0  0  0  0  0  0  0  0
   15.0124   -3.2014  -13.6564 C   0  0  0  0  0  0  0  0  0  0  0  0
   15.4964   -2.4208  -14.8048 C   0  0  0  0  0  0  0  0  0  0  0  0
   15.5517   -1.1790  -14.7410 O   0  0  0  0  0  0  0  0  0  0  0  0
   17.1236   -2.8605  -12.4112 C   0  0  0  0  0  0  0  0  0  0  0  0
   18.2300   -2.5104  -13.1652 O   0  0  0  0  0  0  0  0  0  0  0  0
   15.8916   -3.0602  -15.9585 O   0  0  0  0  0  0  0  0  0  0  0  0
   16.9755   -2.2967  -11.3050 O   0  0  0  0  0  0  0  0  0  0  0  0
  2  1  1  6
  3  2  1  0
  4  3  1  0
  5  4  1  0
  5  6  1  0
  6  7  1  0
  8  2  1  0
  8  9  2  0
 12 11  1  1
 11 10  1  0
 13 12  1  0
 13  8  1  0
 14 15  2  0
 14 12  1  0
 16 14  1  0
 17 21  1  0
 17 16  1  0
 17 18  1  1
 19 23  1  0
 19 18  1  0
 20 19  2  0
 21 22  1  0
 24 21  2  0
M  END
$$$$
