KSD.pdb
     RDKit          3D

 24 23  0  0  1  0  0  0  0  0999 V2000
   19.4665  -12.5778  -16.6029 N   0  0  0  0  0  0  0  0  0  0  0  0
   20.0580  -11.3322  -16.9404 C   0  0  1  0  0  0  0  0  0  0  0  0
   19.6475  -10.8595  -18.2840 C   0  0  0  0  0  0  0  0  0  0  0  0
   19.4807  -12.0004  -19.2384 C   0  0  0  0  0  0  0  0  0  0  0  0
   19.0256  -11.6422  -20.6167 C   0  0  0  0  0  0  0  0  0  0  0  0
   18.8351  -12.8828  -21.4817 C   0  0  0  0  0  0  0  0  0  0  0  0
   17.4727  -13.3367  -21.2758 N   0  0  0  0  0  0  0  0  0  0  0  0
   19.8585  -10.3196  -15.8733 C   0  0  0  0  0  0  0  0  0  0  0  0
   18.7536  -10.1021  -15.3312 O   0  0  0  0  0  0  0  0  0  0  0  0
   21.7273   -7.9938  -12.2091 O   0  0  0  0  0  0  0  0  0  0  0  0
   21.7329   -8.9707  -13.1824 C   0  0  0  0  0  0  0  0  0  0  0  0
   20.8841   -8.5824  -14.3669 C   0  0  2  0  0  0  0  0  0  0  0  0
   20.9647   -9.5568  -15.4402 N   0  0  0  0  0  0  0  0  0  0  0  0
   21.2799   -7.2710  -14.9404 C   0  0  0  0  0  0  0  0  0  0  0  0
   22.2598   -7.1720  -15.7292 O   0  0  0  0  0  0  0  0  0  0  0  0
   20.5905   -6.0648  -14.6413 N   0  0  0  0  0  0  0  0  0  0  0  0
   21.0166   -4.8054  -15.2224 C   0  0  1  0  0  0  0  0  0  0  0  0
   19.8590   -3.8314  -15.2108 C   0  0  0  0  0  0  0  0  0  0  0  0
   20.2105   -2.5405  -15.8210 C   0  0  0  0  0  0  0  0  0  0  0  0
   19.7806   -1.4785  -15.3345 O   0  0  0  0  0  0  0  0  0  0  0  0
   22.1737   -4.2445  -14.4389 C   0  0  0  0  0  0  0  0  0  0  0  0
   23.2269   -3.6143  -15.0783 O   0  0  0  0  0  0  0  0  0  0  0  0
   21.0181   -2.4994  -16.9356 O   0  0  0  0  0  0  0  0  0  0  0  0
   22.2209   -4.3290  -13.1923 O   0  0  0  0  0  0  0  0  0  0  0  0
  2  1  1  1
  3  2  1  0
  4  3  1  0
  5  4  1  0
  5  6  1  0
  6  7  1  0
  8  2  1  0
  8  9  2  0
 12 11  1  1
 11 10  1  0
 13 12  1  0
 13  8  1  0
 14 15  2  0
 14 12  1  0
 16 14  1  0
 17 21  1  0
 17 16  1  0
 17 18  1  1
 19 23  1  0
 19 18  1  0
 20 19  2  0
 21 22  1  0
 24 21  2  0
M  END
$$$$
