KSD.pdb
     RDKit          3D

 24 23  0  0  1  0  0  0  0  0999 V2000
   19.6445  -13.3418  -17.3873 N   0  0  0  0  0  0  0  0  0  0  0  0
   20.2867  -12.0978  -17.6230 C   0  0  1  0  0  0  0  0  0  0  0  0
   19.6422  -11.3293  -18.7144 C   0  0  0  0  0  0  0  0  0  0  0  0
   18.9637  -12.2343  -19.6947 C   0  0  0  0  0  0  0  0  0  0  0  0
   18.3703  -11.5730  -20.8970 C   0  0  0  0  0  0  0  0  0  0  0  0
   17.7159  -12.5885  -21.8267 C   0  0  0  0  0  0  0  0  0  0  0  0
   17.1663  -11.8453  -22.9448 N   0  0  0  0  0  0  0  0  0  0  0  0
   20.4532  -11.3171  -16.3714 C   0  0  0  0  0  0  0  0  0  0  0  0
   19.5442  -11.1735  -15.5258 O   0  0  0  0  0  0  0  0  0  0  0  0
   24.3147   -9.9253  -15.2858 O   0  0  0  0  0  0  0  0  0  0  0  0
   23.3231  -10.1534  -14.3549 C   0  0  0  0  0  0  0  0  0  0  0  0
   21.9514   -9.8992  -14.9278 C   0  0  2  0  0  0  0  0  0  0  0  0
   21.6962  -10.7002  -16.1115 N   0  0  0  0  0  0  0  0  0  0  0  0
   21.7543   -8.4789  -15.3139 C   0  0  0  0  0  0  0  0  0  0  0  0
   22.0573   -8.0675  -16.4677 O   0  0  0  0  0  0  0  0  0  0  0  0
   21.2206   -7.5097  -14.4220 N   0  0  0  0  0  0  0  0  0  0  0  0
   21.1888   -6.1059  -14.7874 C   0  0  1  0  0  0  0  0  0  0  0  0
   19.7513   -5.6624  -14.9471 C   0  0  0  0  0  0  0  0  0  0  0  0
   19.6432   -4.2414  -15.3099 C   0  0  0  0  0  0  0  0  0  0  0  0
   20.6591   -3.5955  -15.6264 O   0  0  0  0  0  0  0  0  0  0  0  0
   21.8698   -5.2839  -13.7254 C   0  0  0  0  0  0  0  0  0  0  0  0
   22.3435   -5.8716  -12.5656 O   0  0  0  0  0  0  0  0  0  0  0  0
   18.4160   -3.6168  -15.3016 O   0  0  0  0  0  0  0  0  0  0  0  0
   22.0289   -4.0505  -13.8556 O   0  0  0  0  0  0  0  0  0  0  0  0
  2  1  1  1
  3  2  1  0
  4  3  1  0
  5  4  1  0
  5  6  1  0
  6  7  1  0
  8  2  1  0
  8  9  2  0
 12 11  1  6
 11 10  1  0
 13 12  1  0
 13  8  1  0
 14 15  2  0
 14 12  1  0
 16 14  1  0
 17 21  1  0
 17 16  1  0
 17 18  1  1
 19 23  1  0
 19 18  1  0
 20 19  2  0
 21 22  1  0
 24 21  2  0
M  END
$$$$
