KSD.pdb
     RDKit          3D

 24 23  0  0  1  0  0  0  0  0999 V2000
   20.7814  -11.9150  -17.8585 N   0  0  0  0  0  0  0  0  0  0  0  0
   19.7586  -10.9832  -17.5403 C   0  0  1  0  0  0  0  0  0  0  0  0
   18.4241  -11.6216  -17.4476 C   0  0  0  0  0  0  0  0  0  0  0  0
   18.0884  -12.3727  -18.6980 C   0  0  0  0  0  0  0  0  0  0  0  0
   18.2447  -13.8582  -18.6337 C   0  0  0  0  0  0  0  0  0  0  0  0
   17.7869  -14.5242  -19.9261 C   0  0  0  0  0  0  0  0  0  0  0  0
   17.9218  -15.9559  -19.7348 N   0  0  0  0  0  0  0  0  0  0  0  0
   20.1060  -10.1683  -16.3490 C   0  0  0  0  0  0  0  0  0  0  0  0
   19.2922   -9.4163  -15.7708 O   0  0  0  0  0  0  0  0  0  0  0  0
   24.1846   -9.8529  -15.1237 O   0  0  0  0  0  0  0  0  0  0  0  0
   23.1946   -9.9250  -14.1664 C   0  0  0  0  0  0  0  0  0  0  0  0
   21.8671   -9.4483  -14.7002 C   0  0  2  0  0  0  0  0  0  0  0  0
   21.4184  -10.2369  -15.8336 N   0  0  0  0  0  0  0  0  0  0  0  0
   21.9129   -8.0328  -15.1470 C   0  0  0  0  0  0  0  0  0  0  0  0
   22.2913   -7.7273  -16.3114 O   0  0  0  0  0  0  0  0  0  0  0  0
   21.5393   -6.9511  -14.3043 N   0  0  0  0  0  0  0  0  0  0  0  0
   21.7245   -5.5784  -14.7364 C   0  0  1  0  0  0  0  0  0  0  0  0
   20.3789   -4.9724  -15.0692 C   0  0  0  0  0  0  0  0  0  0  0  0
   20.4845   -3.5564  -15.4519 C   0  0  0  0  0  0  0  0  0  0  0  0
   21.1949   -3.2182  -16.4164 O   0  0  0  0  0  0  0  0  0  0  0  0
   22.3955   -4.7840  -13.6474 C   0  0  0  0  0  0  0  0  0  0  0  0
   22.7026   -5.3647  -12.4294 O   0  0  0  0  0  0  0  0  0  0  0  0
   19.7971   -2.5956  -14.7443 O   0  0  0  0  0  0  0  0  0  0  0  0
   22.6957   -3.5807  -13.8066 O   0  0  0  0  0  0  0  0  0  0  0  0
  2  1  1  1
  3  2  1  0
  4  3  1  0
  5  4  1  0
  5  6  1  0
  6  7  1  0
  8  2  1  0
  8  9  2  0
 12 11  1  6
 11 10  1  0
 13 12  1  0
 13  8  1  0
 14 15  2  0
 14 12  1  0
 16 14  1  0
 17 21  1  0
 17 16  1  0
 17 18  1  1
 19 23  1  0
 19 18  1  0
 20 19  2  0
 21 22  1  0
 24 21  2  0
M  END
$$$$
