KSD.pdb
     RDKit          3D

 24 23  0  0  1  0  0  0  0  0999 V2000
   19.3344  -12.8342  -17.0048 N   0  0  0  0  0  0  0  0  0  0  0  0
   19.9703  -11.5959  -17.2833 C   0  0  1  0  0  0  0  0  0  0  0  0
   19.3016  -10.8530  -18.3778 C   0  0  0  0  0  0  0  0  0  0  0  0
   18.0690  -11.5610  -18.8468 C   0  0  0  0  0  0  0  0  0  0  0  0
   17.3127  -10.8993  -19.9537 C   0  0  0  0  0  0  0  0  0  0  0  0
   16.0751  -11.7004  -20.3410 C   0  0  0  0  0  0  0  0  0  0  0  0
   15.5073  -11.0611  -21.5129 N   0  0  0  0  0  0  0  0  0  0  0  0
   20.1637  -10.7862  -16.0541 C   0  0  0  0  0  0  0  0  0  0  0  0
   19.2788  -10.6370  -15.1842 O   0  0  0  0  0  0  0  0  0  0  0  0
   24.0330   -9.3932  -15.0390 O   0  0  0  0  0  0  0  0  0  0  0  0
   23.0253   -9.5270  -14.1072 C   0  0  0  0  0  0  0  0  0  0  0  0
   21.6677   -9.2759  -14.7141 C   0  0  2  0  0  0  0  0  0  0  0  0
   21.4050  -10.1471  -15.8455 N   0  0  0  0  0  0  0  0  0  0  0  0
   21.5134   -7.8798  -15.1961 C   0  0  0  0  0  0  0  0  0  0  0  0
   21.8058   -7.5620  -16.3818 O   0  0  0  0  0  0  0  0  0  0  0  0
   21.0344   -6.8312  -14.3651 N   0  0  0  0  0  0  0  0  0  0  0  0
   21.0574   -5.4547  -14.8234 C   0  0  1  0  0  0  0  0  0  0  0  0
   19.6790   -4.8514  -14.6663 C   0  0  0  0  0  0  0  0  0  0  0  0
   19.6392   -3.4386  -15.0722 C   0  0  0  0  0  0  0  0  0  0  0  0
   19.8312   -2.5390  -14.2337 O   0  0  0  0  0  0  0  0  0  0  0  0
   22.0623   -4.6656  -14.0266 C   0  0  0  0  0  0  0  0  0  0  0  0
   22.7079   -3.5729  -14.5785 O   0  0  0  0  0  0  0  0  0  0  0  0
   19.3890   -3.1027  -16.3841 O   0  0  0  0  0  0  0  0  0  0  0  0
   22.3451   -4.9696  -12.8472 O   0  0  0  0  0  0  0  0  0  0  0  0
  2  1  1  1
  3  2  1  0
  4  3  1  0
  5  4  1  0
  5  6  1  0
  6  7  1  0
  8  2  1  0
  8  9  2  0
 12 11  1  6
 11 10  1  0
 13 12  1  0
 13  8  1  0
 14 15  2  0
 14 12  1  0
 16 14  1  0
 17 21  1  0
 17 16  1  0
 17 18  1  1
 19 23  1  0
 19 18  1  0
 20 19  2  0
 21 22  1  0
 24 21  2  0
M  END
$$$$
