KSD.pdb
     RDKit          3D

 24 23  0  0  1  0  0  0  0  0999 V2000
   27.8100  -21.3606  -16.2180 N   0  0  0  0  0  0  0  0  0  0  0  0
   27.4309  -20.5696  -15.1018 C   0  0  1  0  0  0  0  0  0  0  0  0
   27.2622  -19.1402  -15.4557 C   0  0  0  0  0  0  0  0  0  0  0  0
   28.4216  -18.6337  -16.2556 C   0  0  0  0  0  0  0  0  0  0  0  0
   28.0885  -18.0146  -17.5750 C   0  0  0  0  0  0  0  0  0  0  0  0
   29.3163  -17.3838  -18.2215 C   0  0  0  0  0  0  0  0  0  0  0  0
   28.8925  -16.8496  -19.5019 N   0  0  0  0  0  0  0  0  0  0  0  0
   26.2601  -21.1429  -14.3916 C   0  0  0  0  0  0  0  0  0  0  0  0
   25.3385  -21.7565  -14.9714 O   0  0  0  0  0  0  0  0  0  0  0  0
   25.5914  -20.1331  -10.3062 O   0  0  0  0  0  0  0  0  0  0  0  0
   25.3048  -21.4134  -10.7310 C   0  0  0  0  0  0  0  0  0  0  0  0
   25.0366  -21.4616  -12.2143 C   0  0  2  0  0  0  0  0  0  0  0  0
   26.1709  -20.9940  -12.9906 N   0  0  0  0  0  0  0  0  0  0  0  0
   23.8703  -20.6298  -12.6053 C   0  0  0  0  0  0  0  0  0  0  0  0
   24.0081  -19.4125  -12.9075 O   0  0  0  0  0  0  0  0  0  0  0  0
   22.5470  -21.1448  -12.6626 N   0  0  0  0  0  0  0  0  0  0  0  0
   21.4399  -20.2974  -13.0645 C   0  0  1  0  0  0  0  0  0  0  0  0
   21.6218  -19.8876  -14.5094 C   0  0  0  0  0  0  0  0  0  0  0  0
   20.4683  -19.1351  -15.0248 C   0  0  0  0  0  0  0  0  0  0  0  0
   19.7260  -18.5117  -14.2441 O   0  0  0  0  0  0  0  0  0  0  0  0
   20.1396  -21.0376  -12.8955 C   0  0  0  0  0  0  0  0  0  0  0  0
   20.1186  -22.4129  -12.7429 O   0  0  0  0  0  0  0  0  0  0  0  0
   20.2029  -19.1159  -16.3760 O   0  0  0  0  0  0  0  0  0  0  0  0
   19.0425  -20.4379  -12.8874 O   0  0  0  0  0  0  0  0  0  0  0  0
  2  1  1  6
  3  2  1  0
  4  3  1  0
  5  4  1  0
  5  6  1  0
  6  7  1  0
  8  2  1  0
  8  9  2  0
 12 11  1  1
 11 10  1  0
 13 12  1  0
 13  8  1  0
 14 15  2  0
 14 12  1  0
 16 14  1  0
 17 21  1  0
 17 16  1  0
 17 18  1  6
 19 23  1  0
 19 18  1  0
 20 19  2  0
 21 22  1  0
 24 21  2  0
M  END
$$$$
