KSD.pdb
     RDKit          3D

 24 23  0  0  1  0  0  0  0  0999 V2000
   23.7049  -21.8799  -14.1924 N   0  0  0  0  0  0  0  0  0  0  0  0
   22.8553  -20.8257  -14.6194 C   0  0  1  0  0  0  0  0  0  0  0  0
   21.6486  -20.6951  -13.7686 C   0  0  0  0  0  0  0  0  0  0  0  0
   20.7402  -21.8747  -13.9221 C   0  0  0  0  0  0  0  0  0  0  0  0
   19.9993  -22.2970  -12.6942 C   0  0  0  0  0  0  0  0  0  0  0  0
   19.2180  -23.5847  -12.9288 C   0  0  0  0  0  0  0  0  0  0  0  0
   18.4955  -23.8700  -11.7036 N   0  0  0  0  0  0  0  0  0  0  0  0
   23.5987  -19.5517  -14.7871 C   0  0  0  0  0  0  0  0  0  0  0  0
   24.6414  -19.2770  -14.1551 O   0  0  0  0  0  0  0  0  0  0  0  0
   23.6079  -17.8064  -18.4119 O   0  0  0  0  0  0  0  0  0  0  0  0
   24.5221  -17.5364  -17.4153 C   0  0  0  0  0  0  0  0  0  0  0  0
   23.8555  -17.4002  -16.0694 C   0  0  2  0  0  0  0  0  0  0  0  0
   23.1137  -18.5934  -15.7033 N   0  0  0  0  0  0  0  0  0  0  0  0
   22.9004  -16.2641  -16.0239 C   0  0  0  0  0  0  0  0  0  0  0  0
   21.6932  -16.4117  -16.3601 O   0  0  0  0  0  0  0  0  0  0  0  0
   23.2805  -14.9602  -15.6055 N   0  0  0  0  0  0  0  0  0  0  0  0
   22.3369  -13.8595  -15.6649 C   0  0  1  0  0  0  0  0  0  0  0  0
   22.9149  -12.6646  -14.9392 C   0  0  0  0  0  0  0  0  0  0  0  0
   22.0071  -11.5079  -14.9586 C   0  0  0  0  0  0  0  0  0  0  0  0
   20.8713  -11.6097  -15.4575 O   0  0  0  0  0  0  0  0  0  0  0  0
   22.0514  -13.5057  -17.1004 C   0  0  0  0  0  0  0  0  0  0  0  0
   20.7676  -13.1981  -17.5155 O   0  0  0  0  0  0  0  0  0  0  0  0
   22.4092  -10.3041  -14.4242 O   0  0  0  0  0  0  0  0  0  0  0  0
   22.9594  -13.4783  -17.9597 O   0  0  0  0  0  0  0  0  0  0  0  0
  2  1  1  1
  3  2  1  0
  4  3  1  0
  5  4  1  0
  5  6  1  0
  6  7  1  0
  8  2  1  0
  8  9  2  0
 12 11  1  6
 11 10  1  0
 13 12  1  0
 13  8  1  0
 14 15  2  0
 14 12  1  0
 16 14  1  0
 17 21  1  0
 17 16  1  0
 17 18  1  1
 19 23  1  0
 19 18  1  0
 20 19  2  0
 21 22  1  0
 24 21  2  0
M  END
$$$$
