KSD.pdb
     RDKit          3D

 24 23  0  0  1  0  0  0  0  0999 V2000
   20.0853  -14.2418  -18.9296 N   0  0  0  0  0  0  0  0  0  0  0  0
   20.8330  -13.4522  -18.0169 C   0  0  1  0  0  0  0  0  0  0  0  0
   22.2950  -13.6000  -18.2106 C   0  0  0  0  0  0  0  0  0  0  0  0
   22.6368  -14.9306  -18.8048 C   0  0  0  0  0  0  0  0  0  0  0  0
   24.0928  -15.2073  -19.0016 C   0  0  0  0  0  0  0  0  0  0  0  0
   24.3241  -16.6035  -19.5680 C   0  0  0  0  0  0  0  0  0  0  0  0
   25.7574  -16.8272  -19.5691 N   0  0  0  0  0  0  0  0  0  0  0  0
   20.3795  -12.0386  -18.0102 C   0  0  0  0  0  0  0  0  0  0  0  0
   20.3699  -11.3160  -19.0299 O   0  0  0  0  0  0  0  0  0  0  0  0
   17.9288  -10.8107  -14.8942 O   0  0  0  0  0  0  0  0  0  0  0  0
   17.9419  -10.1987  -16.1299 C   0  0  0  0  0  0  0  0  0  0  0  0
   19.3315  -10.1517  -16.7141 C   0  0  2  0  0  0  0  0  0  0  0  0
   19.9345  -11.4698  -16.7972 N   0  0  0  0  0  0  0  0  0  0  0  0
   20.2519   -9.3027  -15.9158 C   0  0  0  0  0  0  0  0  0  0  0  0
   21.0262   -9.8073  -15.0567 O   0  0  0  0  0  0  0  0  0  0  0  0
   20.3169   -7.8911  -16.0673 N   0  0  0  0  0  0  0  0  0  0  0  0
   21.1781   -7.0942  -15.2137 C   0  0  1  0  0  0  0  0  0  0  0  0
   21.3262   -5.7095  -15.8046 C   0  0  0  0  0  0  0  0  0  0  0  0
   22.1849   -4.8422  -14.9843 C   0  0  0  0  0  0  0  0  0  0  0  0
   23.3731   -5.1498  -14.7777 O   0  0  0  0  0  0  0  0  0  0  0  0
   20.5903   -7.0070  -13.8301 C   0  0  0  0  0  0  0  0  0  0  0  0
   21.3970   -6.7908  -12.7268 O   0  0  0  0  0  0  0  0  0  0  0  0
   21.6783   -3.6833  -14.4394 O   0  0  0  0  0  0  0  0  0  0  0  0
   19.3613   -7.1265  -13.6336 O   0  0  0  0  0  0  0  0  0  0  0  0
  2  1  1  6
  3  2  1  0
  4  3  1  0
  5  4  1  0
  5  6  1  0
  6  7  1  0
  8  2  1  0
  8  9  2  0
 12 11  1  1
 11 10  1  0
 13 12  1  0
 13  8  1  0
 14 15  2  0
 14 12  1  0
 16 14  1  0
 17 21  1  0
 17 16  1  0
 17 18  1  6
 19 23  1  0
 19 18  1  0
 20 19  2  0
 21 22  1  0
 24 21  2  0
M  END
$$$$
