CAS.pdb
     RDKit          3D

 18 17  0  0  1  0  0  0  0  0999 V2000
   19.8121  -11.7881  -17.7673 N   0  0  0  0  0  0  0  0  0  0  0  0
   18.8570  -10.8804  -17.1782 C   0  0  1  0  0  0  0  0  0  0  0  0
   17.6136  -11.6001  -16.7148 C   0  0  0  0  0  0  0  0  0  0  0  0
   18.0992  -12.7404  -15.3844 S   0  0  0  0  0  0  0  0  0  0  0  0
   19.4742  -10.0635  -16.1090 C   0  0  0  0  0  0  0  0  0  0  0  0
   18.7721   -9.1718  -15.5664 O   0  0  0  0  0  0  0  0  0  0  0  0
   22.8040   -9.9803  -14.3808 C   0  0  0  0  0  0  0  0  0  0  0  0
   21.4178   -9.3764  -14.6409 C   0  0  2  0  0  0  0  0  0  0  0  0
   20.7981  -10.2077  -15.6470 N   0  0  0  0  0  0  0  0  0  0  0  0
   21.6647   -7.9909  -15.1392 C   0  0  0  0  0  0  0  0  0  0  0  0
   22.0994   -7.8142  -16.3053 O   0  0  0  0  0  0  0  0  0  0  0  0
   19.4485   -4.8451  -14.0944 O   0  0  0  0  0  0  0  0  0  0  0  0
   20.3360   -4.8053  -15.1686 C   0  0  0  0  0  0  0  0  0  0  0  0
   21.6305   -5.4864  -14.7957 C   0  0  2  0  0  0  0  0  0  0  0  0
   21.4256   -6.8428  -14.3383 N   0  0  0  0  0  0  0  0  0  0  0  0
   22.2363   -4.7133  -13.6784 C   0  0  0  0  0  0  0  0  0  0  0  0
   22.6428   -3.5241  -13.8342 O   0  0  0  0  0  0  0  0  0  0  0  0
   22.3946   -5.2438  -12.3968 O   0  0  0  0  0  0  0  0  0  0  0  0
  2  1  1  1
  2  3  1  0
  4  3  1  0
  5  2  1  0
  6  5  2  0
  8  7  1  6
  8  9  1  0
  9  5  1  0
 10  8  1  0
 10 15  1  0
 11 10  2  0
 13 12  1  0
 14 13  1  1
 14 15  1  0
 14 16  1  0
 16 18  1  0
 17 16  2  0
M  END
$$$$
