CAS.pdb
     RDKit          3D

 18 17  0  0  1  0  0  0  0  0999 V2000
   21.8757  -12.6313  -17.2854 N   0  0  0  0  0  0  0  0  0  0  0  0
   22.5056  -11.7488  -16.3327 C   0  0  1  0  0  0  0  0  0  0  0  0
   23.9240  -11.4179  -16.7296 C   0  0  0  0  0  0  0  0  0  0  0  0
   25.0101  -12.6814  -16.0016 S   0  0  0  0  0  0  0  0  0  0  0  0
   21.6857  -10.5406  -16.0890 C   0  0  0  0  0  0  0  0  0  0  0  0
   21.3700   -9.8309  -17.0786 O   0  0  0  0  0  0  0  0  0  0  0  0
   19.9608   -9.0166  -13.1335 C   0  0  0  0  0  0  0  0  0  0  0  0
   20.4600   -8.9194  -14.5809 C   0  0  2  0  0  0  0  0  0  0  0  0
   21.2270  -10.1192  -14.8245 N   0  0  0  0  0  0  0  0  0  0  0  0
   21.3116   -7.6943  -14.6359 C   0  0  0  0  0  0  0  0  0  0  0  0
   22.5422   -7.7771  -14.3939 O   0  0  0  0  0  0  0  0  0  0  0  0
   21.6869   -3.0236  -16.0030 O   0  0  0  0  0  0  0  0  0  0  0  0
   20.9347   -4.1971  -15.9955 C   0  0  0  0  0  0  0  0  0  0  0  0
   21.5893   -5.2257  -15.1054 C   0  0  2  0  0  0  0  0  0  0  0  0
   20.7819   -6.4160  -14.9557 N   0  0  0  0  0  0  0  0  0  0  0  0
   21.7539   -4.6123  -13.7601 C   0  0  0  0  0  0  0  0  0  0  0  0
   22.8573   -4.1179  -13.3835 O   0  0  0  0  0  0  0  0  0  0  0  0
   20.7120   -4.5423  -12.8337 O   0  0  0  0  0  0  0  0  0  0  0  0
  2  1  1  6
  2  3  1  0
  4  3  1  0
  5  2  1  0
  6  5  2  0
  8  7  1  1
  8  9  1  0
  9  5  1  0
 10  8  1  0
 10 15  1  0
 11 10  2  0
 13 12  1  0
 14 13  1  6
 14 15  1  0
 14 16  1  0
 16 18  1  0
 17 16  2  0
M  END
$$$$
