CAS.pdb
     RDKit          3D

 18 17  0  0  1  0  0  0  0  0999 V2000
   18.5367  -12.3840  -17.2896 N   0  0  0  0  0  0  0  0  0  0  0  0
   18.9184  -11.0297  -17.6107 C   0  0  1  0  0  0  0  0  0  0  0  0
   17.7767  -10.2578  -18.2267 C   0  0  0  0  0  0  0  0  0  0  0  0
   18.3872   -8.5916  -18.6231 S   0  0  0  0  0  0  0  0  0  0  0  0
   19.5057  -10.3403  -16.4396 C   0  0  0  0  0  0  0  0  0  0  0  0
   18.7526  -10.0848  -15.4650 O   0  0  0  0  0  0  0  0  0  0  0  0
   22.9006   -9.5703  -15.1677 C   0  0  0  0  0  0  0  0  0  0  0  0
   21.4112   -9.2057  -15.2203 C   0  0  2  0  0  0  0  0  0  0  0  0
   20.8541   -9.9443  -16.3299 N   0  0  0  0  0  0  0  0  0  0  0  0
   21.3614   -7.7317  -15.4524 C   0  0  0  0  0  0  0  0  0  0  0  0
   21.3965   -7.2822  -16.6257 O   0  0  0  0  0  0  0  0  0  0  0  0
   19.8658   -3.4167  -14.3014 O   0  0  0  0  0  0  0  0  0  0  0  0
   19.8465   -4.8080  -14.2189 C   0  0  0  0  0  0  0  0  0  0  0  0
   21.2032   -5.3663  -14.5741 C   0  0  2  0  0  0  0  0  0  0  0  0
   21.2743   -6.7983  -14.3857 N   0  0  0  0  0  0  0  0  0  0  0  0
   22.1978   -4.7353  -13.6653 C   0  0  0  0  0  0  0  0  0  0  0  0
   22.5172   -5.2614  -12.5585 O   0  0  0  0  0  0  0  0  0  0  0  0
   22.8378   -3.5329  -13.9708 O   0  0  0  0  0  0  0  0  0  0  0  0
  2  1  1  1
  2  3  1  0
  4  3  1  0
  5  2  1  0
  6  5  2  0
  8  7  1  6
  8  9  1  0
  9  5  1  0
 10  8  1  0
 10 15  1  0
 11 10  2  0
 13 12  1  0
 14 13  1  1
 14 15  1  0
 14 16  1  0
 16 18  1  0
 17 16  2  0
M  END
$$$$
