CAS.pdb
     RDKit          3D

 18 17  0  0  1  0  0  0  0  0999 V2000
   21.6844   -7.2030  -14.3627 N   0  0  0  0  0  0  0  0  0  0  0  0
   20.5891   -8.1280  -14.1962 C   0  0  1  0  0  0  0  0  0  0  0  0
   21.0328   -9.4055  -13.5253 C   0  0  0  0  0  0  0  0  0  0  0  0
   22.1725  -10.2566  -14.6579 S   0  0  0  0  0  0  0  0  0  0  0  0
   19.4427   -7.4921  -13.5085 C   0  0  0  0  0  0  0  0  0  0  0  0
   19.6744   -6.8217  -12.4695 O   0  0  0  0  0  0  0  0  0  0  0  0
   15.8115   -7.0030  -14.2571 C   0  0  0  0  0  0  0  0  0  0  0  0
   16.9832   -6.9458  -13.2684 C   0  0  2  0  0  0  0  0  0  0  0  0
   18.1004   -7.5794  -13.9300 N   0  0  0  0  0  0  0  0  0  0  0  0
   16.5398   -7.7137  -12.0673 C   0  0  0  0  0  0  0  0  0  0  0  0
   16.6650   -8.9642  -12.0437 O   0  0  0  0  0  0  0  0  0  0  0  0
   16.6806   -6.3036   -8.2059 O   0  0  0  0  0  0  0  0  0  0  0  0
   15.4454   -6.8549   -8.5422 C   0  0  0  0  0  0  0  0  0  0  0  0
   15.5974   -7.7838   -9.7224 C   0  0  2  0  0  0  0  0  0  0  0  0
   15.9723   -7.0812  -10.9295 N   0  0  0  0  0  0  0  0  0  0  0  0
   14.2765   -8.4261   -9.9584 C   0  0  0  0  0  0  0  0  0  0  0  0
   13.4151   -7.9139  -10.7326 O   0  0  0  0  0  0  0  0  0  0  0  0
   13.9040   -9.6246   -9.3471 O   0  0  0  0  0  0  0  0  0  0  0  0
  2  1  1  1
  2  3  1  0
  4  3  1  0
  5  2  1  0
  6  5  2  0
  8  7  1  6
  8  9  1  0
  9  5  1  0
 10  8  1  0
 10 15  1  0
 11 10  2  0
 13 12  1  0
 14 13  1  1
 14 15  1  0
 14 16  1  0
 16 18  1  0
 17 16  2  0
M  END
$$$$
