CAS.pdb
     RDKit          3D

 18 17  0  0  1  0  0  0  0  0999 V2000
   19.5028  -16.7631  -16.5219 N   0  0  0  0  0  0  0  0  0  0  0  0
   19.5789  -18.1439  -16.1084 C   0  0  1  0  0  0  0  0  0  0  0  0
   19.0946  -19.0792  -17.1898 C   0  0  0  0  0  0  0  0  0  0  0  0
   18.8155  -20.7064  -16.4281 S   0  0  0  0  0  0  0  0  0  0  0  0
   20.9333  -18.4895  -15.6209 C   0  0  0  0  0  0  0  0  0  0  0  0
   21.9222  -18.0162  -16.2377 O   0  0  0  0  0  0  0  0  0  0  0  0
   22.3382  -20.4023  -12.7191 C   0  0  0  0  0  0  0  0  0  0  0  0
   22.5247  -19.7030  -14.0718 C   0  0  2  0  0  0  0  0  0  0  0  0
   21.2042  -19.3143  -14.5104 N   0  0  0  0  0  0  0  0  0  0  0  0
   23.1334  -20.7229  -14.9764 C   0  0  0  0  0  0  0  0  0  0  0  0
   22.4235  -21.6516  -15.4384 O   0  0  0  0  0  0  0  0  0  0  0  0
   27.2609  -20.6375  -15.9631 O   0  0  0  0  0  0  0  0  0  0  0  0
   26.3488  -21.0928  -16.9138 C   0  0  0  0  0  0  0  0  0  0  0  0
   25.1235  -21.6495  -16.2302 C   0  0  2  0  0  0  0  0  0  0  0  0
   24.5046  -20.6888  -15.3442 N   0  0  0  0  0  0  0  0  0  0  0  0
   25.5586  -22.8129  -15.4115 C   0  0  0  0  0  0  0  0  0  0  0  0
   25.4692  -22.8097  -14.1483 O   0  0  0  0  0  0  0  0  0  0  0  0
   26.0891  -23.9736  -15.9775 O   0  0  0  0  0  0  0  0  0  0  0  0
  2  1  1  6
  2  3  1  0
  4  3  1  0
  5  2  1  0
  6  5  2  0
  8  7  1  1
  8  9  1  0
  9  5  1  0
 10  8  1  0
 10 15  1  0
 11 10  2  0
 13 12  1  0
 14 13  1  1
 14 15  1  0
 14 16  1  0
 16 18  1  0
 17 16  2  0
M  END
$$$$
