CAS.pdb
     RDKit          3D

 18 17  0  0  1  0  0  0  0  0999 V2000
   17.6428  -11.1865  -14.7985 N   0  0  0  0  0  0  0  0  0  0  0  0
   18.2566  -10.3519  -15.8034 C   0  0  1  0  0  0  0  0  0  0  0  0
   17.2638   -9.9220  -16.8562 C   0  0  0  0  0  0  0  0  0  0  0  0
   16.8568  -11.3822  -17.8602 S   0  0  0  0  0  0  0  0  0  0  0  0
   18.9721   -9.2079  -15.1943 C   0  0  0  0  0  0  0  0  0  0  0  0
   18.3762   -8.5414  -14.3093 O   0  0  0  0  0  0  0  0  0  0  0  0
   22.4165   -7.7516  -15.4492 C   0  0  0  0  0  0  0  0  0  0  0  0
   20.9625   -7.6613  -14.9680 C   0  0  2  0  0  0  0  0  0  0  0  0
   20.2797   -8.8034  -15.5309 N   0  0  0  0  0  0  0  0  0  0  0  0
   20.4338   -6.3746  -15.5102 C   0  0  0  0  0  0  0  0  0  0  0  0
   19.7034   -6.3805  -16.5331 O   0  0  0  0  0  0  0  0  0  0  0  0
   18.1789   -2.5489  -15.4866 O   0  0  0  0  0  0  0  0  0  0  0  0
   18.6668   -3.7989  -15.1091 C   0  0  0  0  0  0  0  0  0  0  0  0
   20.1557   -3.8670  -15.3485 C   0  0  2  0  0  0  0  0  0  0  0  0
   20.7257   -5.1214  -14.9094 N   0  0  0  0  0  0  0  0  0  0  0  0
   20.7857   -2.7761  -14.5571 C   0  0  0  0  0  0  0  0  0  0  0  0
   21.2139   -2.9679  -13.3808 O   0  0  0  0  0  0  0  0  0  0  0  0
   20.9445   -1.4818  -15.0553 O   0  0  0  0  0  0  0  0  0  0  0  0
  2  1  1  1
  2  3  1  0
  4  3  1  0
  5  2  1  0
  6  5  2  0
  8  7  1  6
  8  9  1  0
  9  5  1  0
 10  8  1  0
 10 15  1  0
 11 10  2  0
 13 12  1  0
 14 13  1  1
 14 15  1  0
 14 16  1  0
 16 18  1  0
 17 16  2  0
M  END
$$$$
