CAS.pdb
     RDKit          3D

 18 17  0  0  1  0  0  0  0  0999 V2000
   24.1338  -12.3789  -19.7928 N   0  0  0  0  0  0  0  0  0  0  0  0
   24.5744  -11.1119  -19.2601 C   0  0  1  0  0  0  0  0  0  0  0  0
   24.9365  -10.1396  -20.3566 C   0  0  0  0  0  0  0  0  0  0  0  0
   26.3031  -10.8669  -21.3103 S   0  0  0  0  0  0  0  0  0  0  0  0
   23.5898  -10.5536  -18.3060 C   0  0  0  0  0  0  0  0  0  0  0  0
   22.4161  -10.3582  -18.7143 O   0  0  0  0  0  0  0  0  0  0  0  0
   23.4002   -9.9967  -14.6383 C   0  0  0  0  0  0  0  0  0  0  0  0
   22.9206   -9.6270  -16.0480 C   0  0  2  0  0  0  0  0  0  0  0  0
   23.8664  -10.2210  -16.9644 N   0  0  0  0  0  0  0  0  0  0  0  0
   22.9487   -8.1356  -16.1090 C   0  0  0  0  0  0  0  0  0  0  0  0
   24.0278   -7.5403  -16.3562 O   0  0  0  0  0  0  0  0  0  0  0  0
   20.4008   -3.9619  -16.1517 O   0  0  0  0  0  0  0  0  0  0  0  0
   20.3648   -5.3484  -16.0125 C   0  0  0  0  0  0  0  0  0  0  0  0
   21.7687   -5.9028  -15.9906 C   0  0  2  0  0  0  0  0  0  0  0  0
   21.7879   -7.3457  -15.8959 N   0  0  0  0  0  0  0  0  0  0  0  0
   22.4462   -5.3560  -14.7843 C   0  0  0  0  0  0  0  0  0  0  0  0
   22.2860   -5.8716  -13.6388 O   0  0  0  0  0  0  0  0  0  0  0  0
   23.2949   -4.2489  -14.8363 O   0  0  0  0  0  0  0  0  0  0  0  0
  2  1  1  6
  2  3  1  0
  4  3  1  0
  5  2  1  0
  6  5  2  0
  8  7  1  1
  8  9  1  0
  9  5  1  0
 10  8  1  0
 10 15  1  0
 11 10  2  0
 13 12  1  0
 14 13  1  1
 14 15  1  0
 14 16  1  0
 16 18  1  0
 17 16  2  0
M  END
$$$$
