CAS.pdb
     RDKit          3D

 18 17  0  0  1  0  0  0  0  0999 V2000
   19.2696  -13.4037  -17.5757 N   0  0  0  0  0  0  0  0  0  0  0  0
   20.3259  -12.5005  -17.9650 C   0  0  1  0  0  0  0  0  0  0  0  0
   19.9956  -11.7720  -19.2452 C   0  0  0  0  0  0  0  0  0  0  0  0
   19.9596  -13.0000  -20.5856 S   0  0  0  0  0  0  0  0  0  0  0  0
   20.6855  -11.5803  -16.8625 C   0  0  0  0  0  0  0  0  0  0  0  0
   19.7612  -10.9298  -16.3102 O   0  0  0  0  0  0  0  0  0  0  0  0
   23.7579  -10.8822  -14.8548 C   0  0  0  0  0  0  0  0  0  0  0  0
   22.3436  -10.4839  -15.2961 C   0  0  2  0  0  0  0  0  0  0  0  0
   21.9933  -11.3740  -16.3789 N   0  0  0  0  0  0  0  0  0  0  0  0
   22.4441   -9.0659  -15.7523 C   0  0  0  0  0  0  0  0  0  0  0  0
   22.5647   -8.8104  -16.9771 O   0  0  0  0  0  0  0  0  0  0  0  0
   21.0072   -4.9199  -16.3136 O   0  0  0  0  0  0  0  0  0  0  0  0
   21.0453   -6.2714  -15.9743 C   0  0  0  0  0  0  0  0  0  0  0  0
   22.3356   -6.5889  -15.2580 C   0  0  2  0  0  0  0  0  0  0  0  0
   22.4088   -7.9731  -14.8461 N   0  0  0  0  0  0  0  0  0  0  0  0
   22.3869   -5.7441  -14.0346 C   0  0  0  0  0  0  0  0  0  0  0  0
   21.8704   -6.1217  -12.9417 O   0  0  0  0  0  0  0  0  0  0  0  0
   23.0023   -4.4912  -14.0120 O   0  0  0  0  0  0  0  0  0  0  0  0
  2  1  1  1
  2  3  1  0
  4  3  1  0
  5  2  1  0
  6  5  2  0
  8  7  1  6
  8  9  1  0
  9  5  1  0
 10  8  1  0
 10 15  1  0
 11 10  2  0
 13 12  1  0
 14 13  1  1
 14 15  1  0
 14 16  1  0
 16 18  1  0
 17 16  2  0
M  END
$$$$
