CAS.pdb
     RDKit          3D

 18 17  0  0  1  0  0  0  0  0999 V2000
   18.6872  -12.7054  -17.1388 N   0  0  0  0  0  0  0  0  0  0  0  0
   19.5550  -11.6827  -17.6719 C   0  0  1  0  0  0  0  0  0  0  0  0
   18.8524  -10.8359  -18.7055 C   0  0  0  0  0  0  0  0  0  0  0  0
   18.5004  -11.8955  -20.1405 S   0  0  0  0  0  0  0  0  0  0  0  0
   20.1659  -10.8741  -16.5929 C   0  0  0  0  0  0  0  0  0  0  0  0
   19.3994  -10.3151  -15.7667 O   0  0  0  0  0  0  0  0  0  0  0  0
   23.6471  -10.1578  -15.4107 C   0  0  0  0  0  0  0  0  0  0  0  0
   22.1457   -9.8425  -15.4006 C   0  0  2  0  0  0  0  0  0  0  0  0
   21.5509  -10.6795  -16.4169 N   0  0  0  0  0  0  0  0  0  0  0  0
   22.0323   -8.3925  -15.7379 C   0  0  0  0  0  0  0  0  0  0  0  0
   21.7985   -8.0428  -16.9224 O   0  0  0  0  0  0  0  0  0  0  0  0
   20.2665   -4.3527  -15.5726 O   0  0  0  0  0  0  0  0  0  0  0  0
   20.4769   -5.7178  -15.3853 C   0  0  0  0  0  0  0  0  0  0  0  0
   21.9175   -5.9731  -15.0135 C   0  0  2  0  0  0  0  0  0  0  0  0
   22.1798   -7.3726  -14.7609 N   0  0  0  0  0  0  0  0  0  0  0  0
   22.1951   -5.2219  -13.7598 C   0  0  0  0  0  0  0  0  0  0  0  0
   22.3712   -3.9678  -13.7593 O   0  0  0  0  0  0  0  0  0  0  0  0
   22.2788   -5.8452  -12.5134 O   0  0  0  0  0  0  0  0  0  0  0  0
  2  1  1  1
  2  3  1  0
  4  3  1  0
  5  2  1  0
  6  5  2  0
  8  7  1  6
  8  9  1  0
  9  5  1  0
 10  8  1  0
 10 15  1  0
 11 10  2  0
 13 12  1  0
 14 13  1  1
 14 15  1  0
 14 16  1  0
 16 18  1  0
 17 16  2  0
M  END
$$$$
