CAS.pdb
     RDKit          3D

 18 17  0  0  1  0  0  0  0  0999 V2000
   15.2464  -13.1800  -11.0951 N   0  0  0  0  0  0  0  0  0  0  0  0
   14.6339  -11.9086  -11.3975 C   0  0  1  0  0  0  0  0  0  0  0  0
   13.1955  -11.8582  -10.9421 C   0  0  0  0  0  0  0  0  0  0  0  0
   12.2478  -13.0137  -11.9776 S   0  0  0  0  0  0  0  0  0  0  0  0
   15.4374  -10.7817  -10.8724 C   0  0  0  0  0  0  0  0  0  0  0  0
   15.7254  -10.7810   -9.6478 O   0  0  0  0  0  0  0  0  0  0  0  0
   17.4400   -8.0014  -12.3143 C   0  0  0  0  0  0  0  0  0  0  0  0
   16.6645   -8.5827  -11.1250 C   0  0  2  0  0  0  0  0  0  0  0  0
   15.9093   -9.7000  -11.6433 N   0  0  0  0  0  0  0  0  0  0  0  0
   15.7741   -7.4848  -10.6445 C   0  0  0  0  0  0  0  0  0  0  0  0
   14.7005   -7.2402  -11.2506 O   0  0  0  0  0  0  0  0  0  0  0  0
   14.6591   -4.2980   -7.1324 O   0  0  0  0  0  0  0  0  0  0  0  0
   15.4607   -5.3602   -7.5472 C   0  0  0  0  0  0  0  0  0  0  0  0
   15.2575   -5.6171   -9.0208 C   0  0  2  0  0  0  0  0  0  0  0  0
   16.0934   -6.6902   -9.5116 N   0  0  0  0  0  0  0  0  0  0  0  0
   15.6345   -4.3747   -9.7469 C   0  0  0  0  0  0  0  0  0  0  0  0
   16.8035   -4.1963  -10.2002 O   0  0  0  0  0  0  0  0  0  0  0  0
   14.7323   -3.3339   -9.9739 O   0  0  0  0  0  0  0  0  0  0  0  0
  2  1  1  1
  2  3  1  0
  4  3  1  0
  5  2  1  0
  6  5  2  0
  8  7  1  6
  8  9  1  0
  9  5  1  0
 10  8  1  0
 10 15  1  0
 11 10  2  0
 13 12  1  0
 14 13  1  1
 14 15  1  0
 14 16  1  0
 16 18  1  0
 17 16  2  0
M  END
$$$$
