CAS.pdb
     RDKit          3D

 18 17  0  0  1  0  0  0  0  0999 V2000
   18.3680  -12.3785  -17.1171 N   0  0  0  0  0  0  0  0  0  0  0  0
   19.3309  -11.4220  -17.6081 C   0  0  1  0  0  0  0  0  0  0  0  0
   18.8237  -10.6944  -18.8297 C   0  0  0  0  0  0  0  0  0  0  0  0
   18.8451  -11.8669  -20.2192 S   0  0  0  0  0  0  0  0  0  0  0  0
   19.7721  -10.4993  -16.5379 C   0  0  0  0  0  0  0  0  0  0  0  0
   18.9103   -9.7492  -16.0116 O   0  0  0  0  0  0  0  0  0  0  0  0
   22.9553   -9.8868  -14.6601 C   0  0  0  0  0  0  0  0  0  0  0  0
   21.5353   -9.4572  -15.0513 C   0  0  2  0  0  0  0  0  0  0  0  0
   21.0934  -10.3943  -16.0580 N   0  0  0  0  0  0  0  0  0  0  0  0
   21.6650   -8.0739  -15.5978 C   0  0  0  0  0  0  0  0  0  0  0  0
   22.0450   -7.9035  -16.7837 O   0  0  0  0  0  0  0  0  0  0  0  0
   19.4152   -4.9957  -14.4975 O   0  0  0  0  0  0  0  0  0  0  0  0
   20.2947   -4.8452  -15.5684 C   0  0  0  0  0  0  0  0  0  0  0  0
   21.5889   -5.5669  -15.2804 C   0  0  2  0  0  0  0  0  0  0  0  0
   21.3723   -6.9211  -14.8218 N   0  0  0  0  0  0  0  0  0  0  0  0
   22.2838   -4.8222  -14.1961 C   0  0  0  0  0  0  0  0  0  0  0  0
   22.4974   -5.3424  -13.0614 O   0  0  0  0  0  0  0  0  0  0  0  0
   22.7416   -3.5133  -14.3576 O   0  0  0  0  0  0  0  0  0  0  0  0
  2  1  1  1
  2  3  1  0
  4  3  1  0
  5  2  1  0
  6  5  2  0
  8  7  1  6
  8  9  1  0
  9  5  1  0
 10  8  1  0
 10 15  1  0
 11 10  2  0
 13 12  1  0
 14 13  1  1
 14 15  1  0
 14 16  1  0
 16 18  1  0
 17 16  2  0
M  END
$$$$
