CAS.pdb
     RDKit          3D

 18 17  0  0  1  0  0  0  0  0999 V2000
   23.1450  -11.3060  -17.1542 N   0  0  0  0  0  0  0  0  0  0  0  0
   22.8323  -10.5857  -15.9432 C   0  0  1  0  0  0  0  0  0  0  0  0
   23.9881  -10.5959  -14.9721 C   0  0  0  0  0  0  0  0  0  0  0  0
   24.1439  -12.2849  -14.3171 S   0  0  0  0  0  0  0  0  0  0  0  0
   22.3467   -9.2183  -16.2362 C   0  0  0  0  0  0  0  0  0  0  0  0
   23.0512   -8.4872  -16.9789 O   0  0  0  0  0  0  0  0  0  0  0  0
   19.1894   -7.3117  -15.6318 C   0  0  0  0  0  0  0  0  0  0  0  0
   20.6700   -7.3335  -16.0330 C   0  0  2  0  0  0  0  0  0  0  0  0
   21.1466   -8.6664  -15.7441 N   0  0  0  0  0  0  0  0  0  0  0  0
   21.3379   -6.3069  -15.1790 C   0  0  0  0  0  0  0  0  0  0  0  0
   21.7391   -6.6159  -14.0286 O   0  0  0  0  0  0  0  0  0  0  0  0
   21.5810   -2.2697  -16.3729 O   0  0  0  0  0  0  0  0  0  0  0  0
   22.6754   -2.7946  -15.6875 C   0  0  0  0  0  0  0  0  0  0  0  0
   22.2429   -3.9701  -14.8449 C   0  0  2  0  0  0  0  0  0  0  0  0
   21.5433   -4.9721  -15.6181 N   0  0  0  0  0  0  0  0  0  0  0  0
   21.3076   -3.4566  -13.8083 C   0  0  0  0  0  0  0  0  0  0  0  0
   20.0693   -3.7205  -13.8383 O   0  0  0  0  0  0  0  0  0  0  0  0
   21.7303   -2.6576  -12.7445 O   0  0  0  0  0  0  0  0  0  0  0  0
  2  1  1  6
  2  3  1  0
  4  3  1  0
  5  2  1  0
  6  5  2  0
  8  7  1  1
  8  9  1  0
  9  5  1  0
 10  8  1  0
 10 15  1  0
 11 10  2  0
 13 12  1  0
 14 13  1  6
 14 15  1  0
 14 16  1  0
 16 18  1  0
 17 16  2  0
M  END
$$$$
