CAS.pdb
     RDKit          3D

 18 17  0  0  1  0  0  0  0  0999 V2000
   17.6185  -11.4949  -16.7719 N   0  0  0  0  0  0  0  0  0  0  0  0
   18.6872  -10.7146  -17.3482 C   0  0  1  0  0  0  0  0  0  0  0  0
   18.2057   -9.8776  -18.5086 C   0  0  0  0  0  0  0  0  0  0  0  0
   17.6965  -11.0129  -19.8344 S   0  0  0  0  0  0  0  0  0  0  0  0
   19.3880   -9.9128  -16.3198 C   0  0  0  0  0  0  0  0  0  0  0  0
   18.6978   -9.1602  -15.5852 O   0  0  0  0  0  0  0  0  0  0  0  0
   22.9194   -9.6315  -15.0905 C   0  0  0  0  0  0  0  0  0  0  0  0
   21.4642   -9.1455  -15.0928 C   0  0  2  0  0  0  0  0  0  0  0  0
   20.7798   -9.9267  -16.0971 N   0  0  0  0  0  0  0  0  0  0  0  0
   21.5193   -7.6984  -15.4560 C   0  0  0  0  0  0  0  0  0  0  0  0
   21.7536   -7.3605  -16.6438 O   0  0  0  0  0  0  0  0  0  0  0  0
   19.1115   -5.0520  -15.5814 O   0  0  0  0  0  0  0  0  0  0  0  0
   20.0163   -4.5884  -14.6278 C   0  0  0  0  0  0  0  0  0  0  0  0
   21.3560   -5.2578  -14.8170 C   0  0  2  0  0  0  0  0  0  0  0  0
   21.3148   -6.6682  -14.5002 N   0  0  0  0  0  0  0  0  0  0  0  0
   22.3159   -4.6074  -13.8850 C   0  0  0  0  0  0  0  0  0  0  0  0
   22.7879   -5.2181  -12.8810 O   0  0  0  0  0  0  0  0  0  0  0  0
   22.7550   -3.2932  -14.0552 O   0  0  0  0  0  0  0  0  0  0  0  0
  2  1  1  1
  2  3  1  0
  4  3  1  0
  5  2  1  0
  6  5  2  0
  8  7  1  6
  8  9  1  0
  9  5  1  0
 10  8  1  0
 10 15  1  0
 11 10  2  0
 13 12  1  0
 14 13  1  1
 14 15  1  0
 14 16  1  0
 16 18  1  0
 17 16  2  0
M  END
$$$$
