CAS.pdb
     RDKit          3D

 18 17  0  0  1  0  0  0  0  0999 V2000
   14.2836  -10.4011  -10.6642 N   0  0  0  0  0  0  0  0  0  0  0  0
   15.6436  -10.1536  -10.2492 C   0  0  1  0  0  0  0  0  0  0  0  0
   16.5687  -11.2701  -10.6692 C   0  0  0  0  0  0  0  0  0  0  0  0
   16.1111  -12.7524   -9.7209 S   0  0  0  0  0  0  0  0  0  0  0  0
   16.1140   -8.8242  -10.6998 C   0  0  0  0  0  0  0  0  0  0  0  0
   16.0466   -8.5581  -11.9274 O   0  0  0  0  0  0  0  0  0  0  0  0
   17.0869   -5.6100   -9.0985 C   0  0  0  0  0  0  0  0  0  0  0  0
   17.1691   -6.5586  -10.3015 C   0  0  2  0  0  0  0  0  0  0  0  0
   16.6359   -7.8245   -9.8540 N   0  0  0  0  0  0  0  0  0  0  0  0
   18.6190   -6.6559  -10.6443 C   0  0  0  0  0  0  0  0  0  0  0  0
   19.4103   -7.2327   -9.8562 O   0  0  0  0  0  0  0  0  0  0  0  0
   20.2517   -8.4937  -13.1213 O   0  0  0  0  0  0  0  0  0  0  0  0
   20.6465   -7.2010  -13.4619 C   0  0  0  0  0  0  0  0  0  0  0  0
   20.5253   -6.2904  -12.2641 C   0  0  2  0  0  0  0  0  0  0  0  0
   19.1527   -6.1151  -11.8440 N   0  0  0  0  0  0  0  0  0  0  0  0
   21.0562   -4.9583  -12.6602 C   0  0  0  0  0  0  0  0  0  0  0  0
   22.2968   -4.7529  -12.8099 O   0  0  0  0  0  0  0  0  0  0  0  0
   20.2286   -3.8579  -12.8905 O   0  0  0  0  0  0  0  0  0  0  0  0
  2  1  1  6
  2  3  1  0
  4  3  1  0
  5  2  1  0
  6  5  2  0
  8  7  1  1
  8  9  1  0
  9  5  1  0
 10  8  1  0
 10 15  1  0
 11 10  2  0
 13 12  1  0
 14 13  1  6
 14 15  1  0
 14 16  1  0
 16 18  1  0
 17 16  2  0
M  END
$$$$
