CAS.pdb
     RDKit          3D

 18 17  0  0  1  0  0  0  0  0999 V2000
   13.8500  -10.6987  -10.6660 N   0  0  0  0  0  0  0  0  0  0  0  0
   15.2723  -10.5952  -10.4436 C   0  0  1  0  0  0  0  0  0  0  0  0
   16.0303  -11.6931  -11.1498 C   0  0  0  0  0  0  0  0  0  0  0  0
   15.8252  -13.2174  -10.1801 S   0  0  0  0  0  0  0  0  0  0  0  0
   15.7768   -9.2455  -10.7830 C   0  0  0  0  0  0  0  0  0  0  0  0
   15.5410   -8.7986  -11.9351 O   0  0  0  0  0  0  0  0  0  0  0  0
   17.0299   -6.2862   -8.9738 C   0  0  0  0  0  0  0  0  0  0  0  0
   17.0524   -7.1233  -10.2593 C   0  0  2  0  0  0  0  0  0  0  0  0
   16.5070   -8.4145   -9.9093 N   0  0  0  0  0  0  0  0  0  0  0  0
   18.4878   -7.2157  -10.6593 C   0  0  0  0  0  0  0  0  0  0  0  0
   19.1615   -8.2280  -10.3407 O   0  0  0  0  0  0  0  0  0  0  0  0
   21.6281   -7.5564  -13.7152 O   0  0  0  0  0  0  0  0  0  0  0  0
   20.3831   -7.4501  -13.0976 C   0  0  0  0  0  0  0  0  0  0  0  0
   20.4142   -6.3593  -12.0546 C   0  0  2  0  0  0  0  0  0  0  0  0
   19.1371   -6.1910  -11.3975 N   0  0  0  0  0  0  0  0  0  0  0  0
   20.7425   -5.0857  -12.7499 C   0  0  0  0  0  0  0  0  0  0  0  0
   19.8521   -4.3899  -13.3215 O   0  0  0  0  0  0  0  0  0  0  0  0
   22.0417   -4.5794  -12.8167 O   0  0  0  0  0  0  0  0  0  0  0  0
  2  1  1  6
  2  3  1  0
  4  3  1  0
  5  2  1  0
  6  5  2  0
  8  7  1  1
  8  9  1  0
  9  5  1  0
 10  8  1  0
 10 15  1  0
 11 10  2  0
 13 12  1  0
 14 13  1  6
 14 15  1  0
 14 16  1  0
 16 18  1  0
 17 16  2  0
M  END
$$$$
