WVT.pdb
     RDKit          3D

 29 30  0  0  1  0  0  0  0  0999 V2000
   26.5337  -19.9445  -17.2762 N   0  0  0  0  0  0  0  0  0  0  0  0
   26.7286  -19.3005  -16.0073 C   0  0  1  0  0  0  0  0  0  0  0  0
   26.1194  -17.9199  -15.9807 C   0  0  0  0  0  0  0  0  0  0  0  0
   26.7047  -16.9696  -16.9261 C   0  0  0  0  0  0  0  0  0  0  0  0
   26.0079  -16.0083  -17.6248 C   0  0  0  0  0  0  0  0  0  0  0  0
   26.8714  -15.3058  -18.3786 N   0  0  0  0  0  0  0  0  0  0  0  0
   28.1195  -15.7655  -18.2072 C   0  0  0  0  0  0  0  0  0  0  0  0
   29.3143  -15.3714  -18.7620 C   0  0  0  0  0  0  0  0  0  0  0  0
   30.4617  -16.0487  -18.3939 C   0  0  0  0  0  0  0  0  0  0  0  0
   30.3820  -17.0868  -17.4939 C   0  0  0  0  0  0  0  0  0  0  0  0
   29.1871  -17.4921  -16.9292 C   0  0  0  0  0  0  0  0  0  0  0  0
   28.0215  -16.8136  -17.2939 C   0  0  0  0  0  0  0  0  0  0  0  0
   25.9933  -20.0874  -14.9634 C   0  0  0  0  0  0  0  0  0  0  0  0
   25.1315  -20.9058  -15.3732 O   0  0  0  0  0  0  0  0  0  0  0  0
   27.6339  -21.1602  -11.4224 C   0  0  0  0  0  0  0  0  0  0  0  0
   26.2068  -20.7300  -11.3003 C   0  0  2  0  0  0  0  0  0  0  0  0
   25.4517  -21.5385  -10.2658 C   0  0  0  0  0  0  0  0  0  0  0  0
   25.5170  -20.7870  -12.6522 C   0  0  2  0  0  0  0  0  0  0  0  0
   26.2568  -19.9168  -13.5782 N   0  0  0  0  0  0  0  0  0  0  0  0
   24.1303  -20.3613  -12.5219 C   0  0  0  0  0  0  0  0  0  0  0  0
   23.9194  -19.1042  -12.3076 O   0  0  0  0  0  0  0  0  0  0  0  0
   19.3192  -20.6634  -13.6290 C   0  0  0  0  0  0  0  0  0  0  0  0
   20.7277  -21.1462  -13.6488 C   0  0  1  0  0  0  0  0  0  0  0  0
   21.2746  -20.9567  -14.9163 O   0  0  0  0  0  0  0  0  0  0  0  0
   21.6206  -20.5299  -12.5957 C   0  0  2  0  0  0  0  0  0  0  0  0
   22.9456  -21.1263  -12.6010 N   0  0  0  0  0  0  0  0  0  0  0  0
   20.9969  -20.7708  -11.2788 C   0  0  0  0  0  0  0  0  0  0  0  0
   21.2771  -21.7935  -10.5798 O   0  0  0  0  0  0  0  0  0  0  0  0
   20.0655  -19.9139  -10.6994 O   0  0  0  0  0  0  0  0  0  0  0  0
  2  1  1  6
  2 13  1  0
  3  2  1  0
  3  4  1  0
  4 12  1  0
  5  6  1  0
  5  4  2  0
  6  7  1  0
  7 12  2  0
  7  8  1  0
  8  9  2  0
  9 10  1  0
 11 10  2  0
 12 11  1  0
 13 19  1  0
 13 14  2  0
 16 15  1  6
 16 18  1  0
 16 17  1  0
 18 20  1  0
 18 19  1  6
 20 21  2  0
 23 22  1  6
 23 24  1  0
 23 25  1  0
 25 27  1  0
 25 26  1  1
 26 20  1  0
 27 29  1  0
 28 27  2  0
M  END
$$$$
