WVT.pdb
     RDKit          3D

 29 30  0  0  1  0  0  0  0  0999 V2000
   23.8598  -21.7874  -14.1456 N   0  0  0  0  0  0  0  0  0  0  0  0
   24.0077  -20.8829  -13.0399 C   0  0  1  0  0  0  0  0  0  0  0  0
   22.8089  -20.9181  -12.1235 C   0  0  0  0  0  0  0  0  0  0  0  0
   21.6102  -20.2673  -12.6514 C   0  0  0  0  0  0  0  0  0  0  0  0
   21.4485  -19.8225  -13.9452 C   0  0  0  0  0  0  0  0  0  0  0  0
   20.2167  -19.3000  -14.0758 N   0  0  0  0  0  0  0  0  0  0  0  0
   19.5516  -19.3804  -12.9141 C   0  0  0  0  0  0  0  0  0  0  0  0
   18.2832  -18.9792  -12.5666 C   0  0  0  0  0  0  0  0  0  0  0  0
   17.8630  -19.1905  -11.2668 C   0  0  0  0  0  0  0  0  0  0  0  0
   18.7123  -19.7886  -10.3640 C   0  0  0  0  0  0  0  0  0  0  0  0
   19.9894  -20.1964  -10.7012 C   0  0  0  0  0  0  0  0  0  0  0  0
   20.4236  -19.9882  -12.0127 C   0  0  0  0  0  0  0  0  0  0  0  0
   25.1670  -21.3441  -12.2074 C   0  0  0  0  0  0  0  0  0  0  0  0
   25.1291  -22.5295  -11.7906 O   0  0  0  0  0  0  0  0  0  0  0  0
   28.8689  -21.2032  -12.7565 C   0  0  0  0  0  0  0  0  0  0  0  0
   28.6197  -20.6103  -11.4063 C   0  0  2  0  0  0  0  0  0  0  0  0
   29.6774  -21.0134  -10.3999 C   0  0  0  0  0  0  0  0  0  0  0  0
   27.2287  -20.9722  -10.9156 C   0  0  2  0  0  0  0  0  0  0  0  0
   26.2556  -20.4838  -11.9038 N   0  0  0  0  0  0  0  0  0  0  0  0
   26.9932  -20.3803   -9.6058 C   0  0  0  0  0  0  0  0  0  0  0  0
   26.5203  -19.1776   -9.5811 O   0  0  0  0  0  0  0  0  0  0  0  0
   26.4443  -22.2733   -5.8227 C   0  0  0  0  0  0  0  0  0  0  0  0
   26.0746  -20.8670   -6.1434 C   0  0  1  0  0  0  0  0  0  0  0  0
   25.9480  -20.1315   -4.9667 O   0  0  0  0  0  0  0  0  0  0  0  0
   27.0165  -20.1692   -7.0984 C   0  0  2  0  0  0  0  0  0  0  0  0
   27.2005  -20.9311   -8.3219 N   0  0  0  0  0  0  0  0  0  0  0  0
   28.3230  -20.0323   -6.4233 C   0  0  0  0  0  0  0  0  0  0  0  0
   29.2814  -20.8354   -6.6459 O   0  0  0  0  0  0  0  0  0  0  0  0
   28.6126  -19.0300   -5.5021 O   0  0  0  0  0  0  0  0  0  0  0  0
  2  1  1  6
  2 13  1  0
  3  2  1  0
  3  4  1  0
  4 12  1  0
  5  6  1  0
  5  4  2  0
  6  7  1  0
  7 12  2  0
  7  8  1  0
  8  9  2  0
  9 10  1  0
 11 10  2  0
 12 11  1  0
 13 19  1  0
 13 14  2  0
 16 15  1  6
 16 18  1  0
 16 17  1  0
 18 20  1  0
 18 19  1  6
 20 21  2  0
 23 22  1  1
 23 24  1  0
 23 25  1  0
 25 27  1  0
 25 26  1  6
 26 20  1  0
 27 29  1  0
 28 27  2  0
M  END
$$$$
