WVT.pdb
     RDKit          3D

 29 30  0  0  1  0  0  0  0  0999 V2000
   26.8490  -18.1934   -9.4668 N   0  0  0  0  0  0  0  0  0  0  0  0
   26.8994  -19.6287   -9.4746 C   0  0  1  0  0  0  0  0  0  0  0  0
   26.6508  -20.2051   -8.1020 C   0  0  0  0  0  0  0  0  0  0  0  0
   27.5243  -19.6882   -7.0489 C   0  0  0  0  0  0  0  0  0  0  0  0
   28.1320  -18.4518   -7.0524 C   0  0  0  0  0  0  0  0  0  0  0  0
   28.8390  -18.3104   -5.9177 N   0  0  0  0  0  0  0  0  0  0  0  0
   28.7242  -19.4096   -5.1580 C   0  0  0  0  0  0  0  0  0  0  0  0
   29.2629  -19.7243   -3.9327 C   0  0  0  0  0  0  0  0  0  0  0  0
   28.9683  -20.9593   -3.3860 C   0  0  0  0  0  0  0  0  0  0  0  0
   28.1547  -21.8322   -4.0715 C   0  0  0  0  0  0  0  0  0  0  0  0
   27.6071  -21.5274   -5.3037 C   0  0  0  0  0  0  0  0  0  0  0  0
   27.8979  -20.2813   -5.8648 C   0  0  0  0  0  0  0  0  0  0  0  0
   25.7789  -20.1334  -10.3344 C   0  0  0  0  0  0  0  0  0  0  0  0
   24.6932  -19.5022  -10.2784 O   0  0  0  0  0  0  0  0  0  0  0  0
   27.8102  -21.2949  -13.3310 C   0  0  0  0  0  0  0  0  0  0  0  0
   26.4385  -21.8768  -13.4589 C   0  0  2  0  0  0  0  0  0  0  0  0
   25.9544  -21.8917  -14.8941 C   0  0  0  0  0  0  0  0  0  0  0  0
   25.4626  -21.1403  -12.5580 C   0  0  2  0  0  0  0  0  0  0  0  0
   25.9356  -21.2699  -11.1717 N   0  0  0  0  0  0  0  0  0  0  0  0
   24.1252  -21.6956  -12.7134 C   0  0  0  0  0  0  0  0  0  0  0  0
   23.9659  -22.9400  -12.4020 O   0  0  0  0  0  0  0  0  0  0  0  0
   20.4616  -19.7387  -14.1433 C   0  0  0  0  0  0  0  0  0  0  0  0
   20.5318  -20.6437  -12.9629 C   0  0  1  0  0  0  0  0  0  0  0  0
   19.2970  -21.2578  -12.7640 O   0  0  0  0  0  0  0  0  0  0  0  0
   21.6286  -21.6823  -13.0287 C   0  0  2  0  0  0  0  0  0  0  0  0
   22.9398  -21.0694  -13.1578 N   0  0  0  0  0  0  0  0  0  0  0  0
   21.3800  -22.5258  -14.2154 C   0  0  0  0  0  0  0  0  0  0  0  0
   22.0575  -22.4005  -15.2823 O   0  0  0  0  0  0  0  0  0  0  0  0
   20.4004  -23.5132  -14.2668 O   0  0  0  0  0  0  0  0  0  0  0  0
  2  1  1  1
  2 13  1  0
  3  2  1  0
  3  4  1  0
  4 12  1  0
  5  6  1  0
  5  4  2  0
  6  7  1  0
  7 12  2  0
  7  8  1  0
  8  9  2  0
  9 10  1  0
 11 10  2  0
 12 11  1  0
 13 19  1  0
 13 14  2  0
 16 15  1  6
 16 18  1  0
 16 17  1  0
 18 20  1  0
 18 19  1  1
 20 21  2  0
 23 22  1  6
 23 24  1  0
 23 25  1  0
 25 27  1  0
 25 26  1  6
 26 20  1  0
 27 29  1  0
 28 27  2  0
M  END
$$$$
