WVT.pdb
     RDKit          3D

 29 30  0  0  1  0  0  0  0  0999 V2000
   28.7658  -21.2399  -15.7091 N   0  0  0  0  0  0  0  0  0  0  0  0
   27.8811  -20.2307  -15.1976 C   0  0  1  0  0  0  0  0  0  0  0  0
   26.9935  -19.6641  -16.2789 C   0  0  0  0  0  0  0  0  0  0  0  0
   27.4746  -18.4222  -16.8835 C   0  0  0  0  0  0  0  0  0  0  0  0
   28.0312  -18.3098  -18.1386 C   0  0  0  0  0  0  0  0  0  0  0  0
   28.3345  -17.0202  -18.3670 N   0  0  0  0  0  0  0  0  0  0  0  0
   28.0000  -16.2689  -17.3077 C   0  0  0  0  0  0  0  0  0  0  0  0
   28.1223  -14.9184  -17.0799 C   0  0  0  0  0  0  0  0  0  0  0  0
   27.6880  -14.4173  -15.8670 C   0  0  0  0  0  0  0  0  0  0  0  0
   27.1515  -15.2700  -14.9294 C   0  0  0  0  0  0  0  0  0  0  0  0
   27.0231  -16.6292  -15.1467 C   0  0  0  0  0  0  0  0  0  0  0  0
   27.4582  -17.1457  -16.3697 C   0  0  0  0  0  0  0  0  0  0  0  0
   26.9545  -20.8751  -14.2098 C   0  0  0  0  0  0  0  0  0  0  0  0
   26.5998  -22.0564  -14.4530 O   0  0  0  0  0  0  0  0  0  0  0  0
   27.2875  -20.7965  -10.3439 C   0  0  0  0  0  0  0  0  0  0  0  0
   25.8818  -20.4662  -10.7330 C   0  0  2  0  0  0  0  0  0  0  0  0
   24.8695  -21.0405   -9.7636 C   0  0  0  0  0  0  0  0  0  0  0  0
   25.6022  -20.9238  -12.1539 C   0  0  2  0  0  0  0  0  0  0  0  0
   26.4988  -20.1849  -13.0552 N   0  0  0  0  0  0  0  0  0  0  0  0
   24.2047  -20.6855  -12.4878 C   0  0  0  0  0  0  0  0  0  0  0  0
   23.7446  -19.4963  -12.2760 O   0  0  0  0  0  0  0  0  0  0  0  0
   22.0580  -21.5534  -15.8766 C   0  0  0  0  0  0  0  0  0  0  0  0
   21.3900  -21.9090  -14.5942 C   0  0  1  0  0  0  0  0  0  0  0  0
   21.4783  -23.2831  -14.3803 O   0  0  0  0  0  0  0  0  0  0  0  0
   21.9020  -21.1571  -13.3865 C   0  0  2  0  0  0  0  0  0  0  0  0
   23.2473  -21.5727  -13.0275 N   0  0  0  0  0  0  0  0  0  0  0  0
   20.9973  -21.4498  -12.2563 C   0  0  0  0  0  0  0  0  0  0  0  0
   21.3468  -22.2001  -11.2931 O   0  0  0  0  0  0  0  0  0  0  0  0
   19.7072  -20.9382  -12.1501 O   0  0  0  0  0  0  0  0  0  0  0  0
  2  1  1  6
  2 13  1  0
  3  2  1  0
  3  4  1  0
  4 12  1  0
  5  6  1  0
  5  4  2  0
  6  7  1  0
  7 12  2  0
  7  8  1  0
  8  9  2  0
  9 10  1  0
 11 10  2  0
 12 11  1  0
 13 19  1  0
 13 14  2  0
 16 15  1  1
 16 18  1  0
 16 17  1  0
 18 20  1  0
 18 19  1  6
 20 21  2  0
 23 22  1  6
 23 24  1  0
 23 25  1  0
 25 27  1  0
 25 26  1  1
 26 20  1  0
 27 29  1  0
 28 27  2  0
M  END
$$$$
