WVT.pdb
     RDKit          3D

 29 30  0  0  1  0  0  0  0  0999 V2000
   26.1733  -18.4213   -8.5394 N   0  0  0  0  0  0  0  0  0  0  0  0
   26.5746  -19.7414   -8.9381 C   0  0  1  0  0  0  0  0  0  0  0  0
   26.1268  -20.7864   -7.9454 C   0  0  0  0  0  0  0  0  0  0  0  0
   26.5452  -20.5447   -6.5650 C   0  0  0  0  0  0  0  0  0  0  0  0
   25.7046  -20.4895   -5.4749 C   0  0  0  0  0  0  0  0  0  0  0  0
   26.4382  -20.2733   -4.3693 N   0  0  0  0  0  0  0  0  0  0  0  0
   27.7385  -20.1819   -4.6841 C   0  0  0  0  0  0  0  0  0  0  0  0
   28.8473  -19.9645   -3.9005 C   0  0  0  0  0  0  0  0  0  0  0  0
   30.0838  -19.9126   -4.5163 C   0  0  0  0  0  0  0  0  0  0  0  0
   30.1744  -20.0772   -5.8796 C   0  0  0  0  0  0  0  0  0  0  0  0
   29.0674  -20.2965   -6.6779 C   0  0  0  0  0  0  0  0  0  0  0  0
   27.8129  -20.3515   -6.0654 C   0  0  0  0  0  0  0  0  0  0  0  0
   25.8759  -20.0772  -10.2220 C   0  0  0  0  0  0  0  0  0  0  0  0
   24.8338  -19.4259  -10.4870 O   0  0  0  0  0  0  0  0  0  0  0  0
   28.5752  -20.5114  -12.8386 C   0  0  0  0  0  0  0  0  0  0  0  0
   27.3942  -21.3188  -13.2744 C   0  0  2  0  0  0  0  0  0  0  0  0
   27.1898  -21.2705  -14.7744 C   0  0  0  0  0  0  0  0  0  0  0  0
   26.1443  -20.8736  -12.5354 C   0  0  2  0  0  0  0  0  0  0  0  0
   26.3667  -21.0826  -11.0970 N   0  0  0  0  0  0  0  0  0  0  0  0
   24.9917  -21.6293  -13.0064 C   0  0  0  0  0  0  0  0  0  0  0  0
   25.0426  -22.9151  -12.8847 O   0  0  0  0  0  0  0  0  0  0  0  0
   20.9388  -21.1502  -12.2465 C   0  0  0  0  0  0  0  0  0  0  0  0
   21.3439  -21.3235  -13.6689 C   0  0  1  0  0  0  0  0  0  0  0  0
   21.3639  -20.0858  -14.3087 O   0  0  0  0  0  0  0  0  0  0  0  0
   22.6623  -22.0367  -13.8669 C   0  0  2  0  0  0  0  0  0  0  0  0
   23.7904  -21.1649  -13.5863 N   0  0  0  0  0  0  0  0  0  0  0  0
   22.7344  -22.4672  -15.2779 C   0  0  0  0  0  0  0  0  0  0  0  0
   23.5254  -21.9201  -16.1074 O   0  0  0  0  0  0  0  0  0  0  0  0
   21.9569  -23.4909  -15.8114 O   0  0  0  0  0  0  0  0  0  0  0  0
  2  1  1  1
  2 13  1  0
  3  2  1  0
  3  4  1  0
  4 12  1  0
  5  6  1  0
  5  4  2  0
  6  7  1  0
  7 12  2  0
  7  8  1  0
  8  9  2  0
  9 10  1  0
 11 10  2  0
 12 11  1  0
 13 19  1  0
 13 14  2  0
 16 15  1  6
 16 18  1  0
 16 17  1  0
 18 20  1  0
 18 19  1  1
 20 21  2  0
 23 22  1  1
 23 24  1  0
 23 25  1  0
 25 27  1  0
 25 26  1  6
 26 20  1  0
 27 29  1  0
 28 27  2  0
M  END
$$$$
