WVT.pdb
     RDKit          3D

 29 30  0  0  1  0  0  0  0  0999 V2000
   24.8894  -18.9963  -11.3328 N   0  0  0  0  0  0  0  0  0  0  0  0
   25.9773  -19.9013  -11.5785 C   0  0  1  0  0  0  0  0  0  0  0  0
   25.9452  -21.0831  -10.6404 C   0  0  0  0  0  0  0  0  0  0  0  0
   26.1342  -20.7541   -9.2278 C   0  0  0  0  0  0  0  0  0  0  0  0
   25.1233  -20.5348   -8.3180 C   0  0  0  0  0  0  0  0  0  0  0  0
   25.6670  -20.2809   -7.1150 N   0  0  0  0  0  0  0  0  0  0  0  0
   27.0052  -20.3228   -7.1911 C   0  0  0  0  0  0  0  0  0  0  0  0
   27.9737  -20.1266   -6.2349 C   0  0  0  0  0  0  0  0  0  0  0  0
   29.2988  -20.2294   -6.6148 C   0  0  0  0  0  0  0  0  0  0  0  0
   29.6128  -20.5212   -7.9225 C   0  0  0  0  0  0  0  0  0  0  0  0
   28.6485  -20.7208   -8.8927 C   0  0  0  0  0  0  0  0  0  0  0  0
   27.3061  -20.6200   -8.5191 C   0  0  0  0  0  0  0  0  0  0  0  0
   25.8110  -20.4728  -12.9552 C   0  0  0  0  0  0  0  0  0  0  0  0
   24.6390  -20.5329  -13.4060 O   0  0  0  0  0  0  0  0  0  0  0  0
   29.2058  -21.2910  -15.3561 C   0  0  0  0  0  0  0  0  0  0  0  0
   28.0481  -20.4569  -15.8039 C   0  0  2  0  0  0  0  0  0  0  0  0
   28.2607  -18.9839  -15.5221 C   0  0  0  0  0  0  0  0  0  0  0  0
   26.7589  -20.9557  -15.1748 C   0  0  2  0  0  0  0  0  0  0  0  0
   26.9233  -20.9251  -13.7139 N   0  0  0  0  0  0  0  0  0  0  0  0
   26.4641  -22.3024  -15.6446 C   0  0  0  0  0  0  0  0  0  0  0  0
   27.2088  -23.2580  -15.1940 O   0  0  0  0  0  0  0  0  0  0  0  0
   23.2489  -25.7129  -17.3833 C   0  0  0  0  0  0  0  0  0  0  0  0
   23.6883  -24.3016  -17.2026 C   0  0  1  0  0  0  0  0  0  0  0  0
   22.7943  -23.6312  -16.3702 O   0  0  0  0  0  0  0  0  0  0  0  0
   25.1017  -24.1417  -16.6901 C   0  0  2  0  0  0  0  0  0  0  0  0
   25.4605  -22.7422  -16.5358 N   0  0  0  0  0  0  0  0  0  0  0  0
   26.0113  -24.7591  -17.6764 C   0  0  0  0  0  0  0  0  0  0  0  0
   26.4574  -24.1134  -18.6749 O   0  0  0  0  0  0  0  0  0  0  0  0
   26.4511  -26.0774  -17.5989 O   0  0  0  0  0  0  0  0  0  0  0  0
  2  1  1  1
  2 13  1  0
  3  2  1  0
  3  4  1  0
  4 12  1  0
  5  6  1  0
  5  4  2  0
  6  7  1  0
  7 12  2  0
  7  8  1  0
  8  9  2  0
  9 10  1  0
 11 10  2  0
 12 11  1  0
 13 19  1  0
 13 14  2  0
 16 15  1  1
 16 18  1  0
 16 17  1  0
 18 20  1  0
 18 19  1  1
 20 21  2  0
 23 22  1  1
 23 24  1  0
 23 25  1  0
 25 27  1  0
 25 26  1  6
 26 20  1  0
 27 29  1  0
 28 27  2  0
M  END
$$$$
