WVT.pdb
     RDKit          3D

 29 30  0  0  1  0  0  0  0  0999 V2000
   27.5983  -22.0931  -14.1596 N   0  0  0  0  0  0  0  0  0  0  0  0
   26.5029  -21.6666  -13.3343 C   0  0  1  0  0  0  0  0  0  0  0  0
   26.8138  -20.3776  -12.6135 C   0  0  0  0  0  0  0  0  0  0  0  0
   27.7300  -20.5101  -11.4812 C   0  0  0  0  0  0  0  0  0  0  0  0
   29.0991  -20.6322  -11.5733 C   0  0  0  0  0  0  0  0  0  0  0  0
   29.6142  -20.7090  -10.3339 N   0  0  0  0  0  0  0  0  0  0  0  0
   28.6363  -20.6428   -9.4186 C   0  0  0  0  0  0  0  0  0  0  0  0
   28.6769  -20.6843   -8.0449 C   0  0  0  0  0  0  0  0  0  0  0  0
   27.4837  -20.5987   -7.3520 C   0  0  0  0  0  0  0  0  0  0  0  0
   26.3005  -20.4760   -8.0439 C   0  0  0  0  0  0  0  0  0  0  0  0
   26.2467  -20.4328   -9.4246 C   0  0  0  0  0  0  0  0  0  0  0  0
   27.4471  -20.5178  -10.1344 C   0  0  0  0  0  0  0  0  0  0  0  0
   25.3353  -21.3609  -14.2247 C   0  0  0  0  0  0  0  0  0  0  0  0
   25.5787  -20.7194  -15.2781 O   0  0  0  0  0  0  0  0  0  0  0  0
   21.5998  -22.8408  -16.5559 C   0  0  0  0  0  0  0  0  0  0  0  0
   22.7135  -22.9451  -15.5632 C   0  0  2  0  0  0  0  0  0  0  0  0
   22.4445  -23.9996  -14.5097 C   0  0  0  0  0  0  0  0  0  0  0  0
   22.9882  -21.5928  -14.9287 C   0  0  2  0  0  0  0  0  0  0  0  0
   24.0175  -21.7754  -13.8946 N   0  0  0  0  0  0  0  0  0  0  0  0
   21.7612  -21.0503  -14.3620 C   0  0  0  0  0  0  0  0  0  0  0  0
   21.4018  -21.4963  -13.2032 O   0  0  0  0  0  0  0  0  0  0  0  0
   20.6427  -17.2006  -13.7904 C   0  0  0  0  0  0  0  0  0  0  0  0
   19.5843  -18.0604  -14.3887 C   0  0  1  0  0  0  0  0  0  0  0  0
   19.4873  -17.8083  -15.7557 O   0  0  0  0  0  0  0  0  0  0  0  0
   19.7595  -19.5415  -14.1404 C   0  0  2  0  0  0  0  0  0  0  0  0
   20.8800  -20.0817  -14.8914 N   0  0  0  0  0  0  0  0  0  0  0  0
   18.5232  -20.2211  -14.5775 C   0  0  0  0  0  0  0  0  0  0  0  0
   18.4620  -20.8674  -15.6691 O   0  0  0  0  0  0  0  0  0  0  0  0
   17.3398  -20.2132  -13.8449 O   0  0  0  0  0  0  0  0  0  0  0  0
  2  1  1  6
  2 13  1  0
  3  2  1  0
  3  4  1  0
  4 12  1  0
  5  6  1  0
  5  4  2  0
  6  7  1  0
  7 12  2  0
  7  8  1  0
  8  9  2  0
  9 10  1  0
 11 10  2  0
 12 11  1  0
 13 19  1  0
 13 14  2  0
 16 15  1  6
 16 18  1  0
 16 17  1  0
 18 20  1  0
 18 19  1  1
 20 21  2  0
 23 22  1  6
 23 24  1  0
 23 25  1  0
 25 27  1  0
 25 26  1  6
 26 20  1  0
 27 29  1  0
 28 27  2  0
M  END
$$$$
