WVT.pdb
     RDKit          3D

 29 30  0  0  1  0  0  0  0  0999 V2000
   26.2530  -22.8666  -12.6322 N   0  0  0  0  0  0  0  0  0  0  0  0
   25.5974  -21.7924  -11.9400 C   0  0  1  0  0  0  0  0  0  0  0  0
   26.4716  -20.5650  -11.8550 C   0  0  0  0  0  0  0  0  0  0  0  0
   27.5642  -20.6523  -10.8866 C   0  0  0  0  0  0  0  0  0  0  0  0
   28.8890  -20.8687  -11.1964 C   0  0  0  0  0  0  0  0  0  0  0  0
   29.6084  -20.8656  -10.0607 N   0  0  0  0  0  0  0  0  0  0  0  0
   28.8095  -20.6552   -9.0044 C   0  0  0  0  0  0  0  0  0  0  0  0
   29.0872  -20.5749   -7.6602 C   0  0  0  0  0  0  0  0  0  0  0  0
   28.0386  -20.3517   -6.7874 C   0  0  0  0  0  0  0  0  0  0  0  0
   26.7598  -20.2173   -7.2778 C   0  0  0  0  0  0  0  0  0  0  0  0
   26.4680  -20.2958   -8.6268 C   0  0  0  0  0  0  0  0  0  0  0  0
   27.5207  -20.5204   -9.5175 C   0  0  0  0  0  0  0  0  0  0  0  0
   24.3981  -21.3803  -12.7408 C   0  0  0  0  0  0  0  0  0  0  0  0
   24.3688  -21.7421  -13.9443 O   0  0  0  0  0  0  0  0  0  0  0  0
   19.6167  -21.0054  -12.2800 C   0  0  0  0  0  0  0  0  0  0  0  0
   20.9804  -20.8104  -11.6978 C   0  0  2  0  0  0  0  0  0  0  0  0
   21.0496  -19.5949  -10.7966 C   0  0  0  0  0  0  0  0  0  0  0  0
   22.0231  -20.7370  -12.7996 C   0  0  2  0  0  0  0  0  0  0  0  0
   23.3456  -20.6177  -12.1680 N   0  0  0  0  0  0  0  0  0  0  0  0
   21.7492  -19.6013  -13.6694 C   0  0  0  0  0  0  0  0  0  0  0  0
   21.9768  -18.4238  -13.1873 O   0  0  0  0  0  0  0  0  0  0  0  0
   22.6074  -18.8090  -17.7531 C   0  0  0  0  0  0  0  0  0  0  0  0
   21.2189  -18.6167  -17.2504 C   0  0  1  0  0  0  0  0  0  0  0  0
   20.4319  -19.7102  -17.6062 O   0  0  0  0  0  0  0  0  0  0  0  0
   21.1161  -18.3590  -15.7642 C   0  0  2  0  0  0  0  0  0  0  0  0
   21.2660  -19.5835  -14.9964 N   0  0  0  0  0  0  0  0  0  0  0  0
   19.7790  -17.7916  -15.4965 C   0  0  0  0  0  0  0  0  0  0  0  0
   18.8670  -18.4634  -14.9222 O   0  0  0  0  0  0  0  0  0  0  0  0
   19.4089  -16.4955  -15.8434 O   0  0  0  0  0  0  0  0  0  0  0  0
  2  1  1  6
  2 13  1  0
  3  2  1  0
  3  4  1  0
  4 12  1  0
  5  6  1  0
  5  4  2  0
  6  7  1  0
  7 12  2  0
  7  8  1  0
  8  9  2  0
  9 10  1  0
 11 10  2  0
 12 11  1  0
 13 19  1  0
 13 14  2  0
 16 15  1  6
 16 18  1  0
 16 17  1  0
 18 20  1  0
 18 19  1  1
 20 21  2  0
 23 22  1  1
 23 24  1  0
 23 25  1  0
 25 27  1  0
 25 26  1  1
 26 20  1  0
 27 29  1  0
 28 27  2  0
M  END
$$$$
