WVT.pdb
     RDKit          3D

 29 30  0  0  1  0  0  0  0  0999 V2000
   26.7235  -22.4550   -9.6135 N   0  0  0  0  0  0  0  0  0  0  0  0
   26.1566  -21.1462   -9.7821 C   0  0  1  0  0  0  0  0  0  0  0  0
   26.9158  -20.1022   -8.9999 C   0  0  0  0  0  0  0  0  0  0  0  0
   26.7105  -20.1464   -7.5524 C   0  0  0  0  0  0  0  0  0  0  0  0
   25.5754  -20.6064   -6.9217 C   0  0  0  0  0  0  0  0  0  0  0  0
   25.7501  -20.5190   -5.5916 N   0  0  0  0  0  0  0  0  0  0  0  0
   26.9618  -20.0162   -5.3135 C   0  0  0  0  0  0  0  0  0  0  0  0
   27.5763  -19.7442   -4.1139 C   0  0  0  0  0  0  0  0  0  0  0  0
   28.8521  -19.2127   -4.1378 C   0  0  0  0  0  0  0  0  0  0  0  0
   29.4681  -18.9715   -5.3446 C   0  0  0  0  0  0  0  0  0  0  0  0
   28.8610  -19.2408   -6.5570 C   0  0  0  0  0  0  0  0  0  0  0  0
   27.5717  -19.7790   -6.5439 C   0  0  0  0  0  0  0  0  0  0  0  0
   26.2987  -20.7548  -11.2230 C   0  0  0  0  0  0  0  0  0  0  0  0
   27.4156  -20.9656  -11.7599 O   0  0  0  0  0  0  0  0  0  0  0  0
   24.3775  -22.5634  -13.2756 C   0  0  0  0  0  0  0  0  0  0  0  0
   24.1896  -21.2061  -13.8749 C   0  0  2  0  0  0  0  0  0  0  0  0
   24.1090  -21.2539  -15.3866 C   0  0  0  0  0  0  0  0  0  0  0  0
   25.2882  -20.2646  -13.4132 C   0  0  2  0  0  0  0  0  0  0  0  0
   25.2238  -20.1735  -11.9470 N   0  0  0  0  0  0  0  0  0  0  0  0
   25.1158  -18.9571  -14.0312 C   0  0  0  0  0  0  0  0  0  0  0  0
   24.1679  -18.2094  -13.5695 O   0  0  0  0  0  0  0  0  0  0  0  0
   27.8453  -15.9612  -15.1276 C   0  0  0  0  0  0  0  0  0  0  0  0
   26.8273  -16.3715  -16.1340 C   0  0  1  0  0  0  0  0  0  0  0  0
   27.4081  -17.2191  -17.0752 O   0  0  0  0  0  0  0  0  0  0  0  0
   25.5855  -17.0079  -15.5518 C   0  0  2  0  0  0  0  0  0  0  0  0
   25.8455  -18.3579  -15.0816 N   0  0  0  0  0  0  0  0  0  0  0  0
   24.5658  -17.0649  -16.6187 C   0  0  0  0  0  0  0  0  0  0  0  0
   24.1832  -18.1655  -17.1240 O   0  0  0  0  0  0  0  0  0  0  0  0
   23.9465  -15.9388  -17.1532 O   0  0  0  0  0  0  0  0  0  0  0  0
  2  1  1  6
  2 13  1  0
  3  2  1  0
  3  4  1  0
  4 12  1  0
  5  6  1  0
  5  4  2  0
  6  7  1  0
  7 12  2  0
  7  8  1  0
  8  9  2  0
  9 10  1  0
 11 10  2  0
 12 11  1  0
 13 19  1  0
 13 14  2  0
 16 15  1  6
 16 18  1  0
 16 17  1  0
 18 20  1  0
 18 19  1  1
 20 21  2  0
 23 22  1  1
 23 24  1  0
 23 25  1  0
 25 27  1  0
 25 26  1  6
 26 20  1  0
 27 29  1  0
 28 27  2  0
M  END
$$$$
