WVT.pdb
     RDKit          3D

 29 30  0  0  1  0  0  0  0  0999 V2000
   28.2991  -21.2533  -11.2675 N   0  0  0  0  0  0  0  0  0  0  0  0
   27.0344  -21.3783  -10.5985 C   0  0  1  0  0  0  0  0  0  0  0  0
   26.9778  -20.5378   -9.3462 C   0  0  0  0  0  0  0  0  0  0  0  0
   28.0628  -20.7757   -8.3947 C   0  0  0  0  0  0  0  0  0  0  0  0
   29.1861  -21.5347   -8.6396 C   0  0  0  0  0  0  0  0  0  0  0  0
   29.9733  -21.5123   -7.5500 N   0  0  0  0  0  0  0  0  0  0  0  0
   29.4139  -20.7653   -6.5871 C   0  0  0  0  0  0  0  0  0  0  0  0
   29.8392  -20.4590   -5.3159 C   0  0  0  0  0  0  0  0  0  0  0  0
   29.0333  -19.6546   -4.5321 C   0  0  0  0  0  0  0  0  0  0  0  0
   27.8412  -19.1863   -5.0355 C   0  0  0  0  0  0  0  0  0  0  0  0
   27.4028  -19.4870   -6.3116 C   0  0  0  0  0  0  0  0  0  0  0  0
   28.2103  -20.2987   -7.1123 C   0  0  0  0  0  0  0  0  0  0  0  0
   25.9692  -20.8310  -11.5016 C   0  0  0  0  0  0  0  0  0  0  0  0
   26.1914  -19.7100  -12.0253 O   0  0  0  0  0  0  0  0  0  0  0  0
   23.5999  -23.4337  -13.5353 C   0  0  0  0  0  0  0  0  0  0  0  0
   24.0502  -22.0853  -13.9997 C   0  0  2  0  0  0  0  0  0  0  0  0
   25.4514  -22.1161  -14.5741 C   0  0  0  0  0  0  0  0  0  0  0  0
   23.9404  -21.0716  -12.8742 C   0  0  2  0  0  0  0  0  0  0  0  0
   24.7668  -21.5439  -11.7534 N   0  0  0  0  0  0  0  0  0  0  0  0
   22.5478  -20.9192  -12.4754 C   0  0  0  0  0  0  0  0  0  0  0  0
   22.1501  -21.6068  -11.4558 O   0  0  0  0  0  0  0  0  0  0  0  0
   20.2790  -17.4599  -12.0546 C   0  0  0  0  0  0  0  0  0  0  0  0
   19.6233  -18.6036  -12.7470 C   0  0  1  0  0  0  0  0  0  0  0  0
   19.6167  -18.3823  -14.1227 O   0  0  0  0  0  0  0  0  0  0  0  0
   20.2232  -19.9564  -12.4371 C   0  0  2  0  0  0  0  0  0  0  0  0
   21.5363  -20.1110  -13.0398 N   0  0  0  0  0  0  0  0  0  0  0  0
   19.3220  -20.9868  -12.9917 C   0  0  0  0  0  0  0  0  0  0  0  0
   19.6443  -21.6888  -13.9999 O   0  0  0  0  0  0  0  0  0  0  0  0
   18.0649  -21.2734  -12.4675 O   0  0  0  0  0  0  0  0  0  0  0  0
  2  1  1  6
  2 13  1  0
  3  2  1  0
  3  4  1  0
  4 12  1  0
  5  6  1  0
  5  4  2  0
  6  7  1  0
  7 12  2  0
  7  8  1  0
  8  9  2  0
  9 10  1  0
 11 10  2  0
 12 11  1  0
 13 19  1  0
 13 14  2  0
 16 15  1  1
 16 18  1  0
 16 17  1  0
 18 20  1  0
 18 19  1  1
 20 21  2  0
 23 22  1  1
 23 24  1  0
 23 25  1  0
 25 27  1  0
 25 26  1  6
 26 20  1  0
 27 29  1  0
 28 27  2  0
M  END
$$$$
