WVT.pdb
     RDKit          3D

 29 30  0  0  1  0  0  0  0  0999 V2000
   27.2448  -21.4339  -12.3235 N   0  0  0  0  0  0  0  0  0  0  0  0
   26.7632  -20.4286  -11.4178 C   0  0  1  0  0  0  0  0  0  0  0  0
   25.3161  -20.0875  -11.6782 C   0  0  0  0  0  0  0  0  0  0  0  0
   25.0575  -19.4380  -12.9629 C   0  0  0  0  0  0  0  0  0  0  0  0
   23.8225  -19.3184  -13.5616 C   0  0  0  0  0  0  0  0  0  0  0  0
   23.9618  -18.6463  -14.7176 N   0  0  0  0  0  0  0  0  0  0  0  0
   25.2466  -18.3141  -14.9107 C   0  0  0  0  0  0  0  0  0  0  0  0
   25.8630  -17.6370  -15.9365 C   0  0  0  0  0  0  0  0  0  0  0  0
   27.2300  -17.4448  -15.8656 C   0  0  0  0  0  0  0  0  0  0  0  0
   27.9318  -17.9292  -14.7853 C   0  0  0  0  0  0  0  0  0  0  0  0
   27.3236  -18.6111  -13.7479 C   0  0  0  0  0  0  0  0  0  0  0  0
   25.9421  -18.8101  -13.8096 C   0  0  0  0  0  0  0  0  0  0  0  0
   26.8026  -20.9908  -10.0279 C   0  0  0  0  0  0  0  0  0  0  0  0
   26.6856  -22.2376   -9.9175 O   0  0  0  0  0  0  0  0  0  0  0  0
   27.6266  -18.6480   -6.5573 C   0  0  0  0  0  0  0  0  0  0  0  0
   28.0548  -20.0701   -6.7328 C   0  0  2  0  0  0  0  0  0  0  0  0
   29.4523  -20.1805   -7.3064 C   0  0  0  0  0  0  0  0  0  0  0  0
   27.0503  -20.8263   -7.5846 C   0  0  2  0  0  0  0  0  0  0  0  0
   26.9640  -20.1558   -8.8903 N   0  0  0  0  0  0  0  0  0  0  0  0
   25.7549  -20.8550   -6.9194 C   0  0  0  0  0  0  0  0  0  0  0  0
   24.9280  -19.9026   -7.2023 O   0  0  0  0  0  0  0  0  0  0  0  0
   21.9846  -23.2215   -4.6634 C   0  0  0  0  0  0  0  0  0  0  0  0
   23.3857  -23.1611   -5.1641 C   0  0  1  0  0  0  0  0  0  0  0  0
   23.5417  -24.0346   -6.2385 O   0  0  0  0  0  0  0  0  0  0  0  0
   23.8617  -21.7765   -5.5415 C   0  0  2  0  0  0  0  0  0  0  0  0
   25.2431  -21.7891   -5.9919 N   0  0  0  0  0  0  0  0  0  0  0  0
   23.7617  -20.9227   -4.3405 C   0  0  0  0  0  0  0  0  0  0  0  0
   24.6859  -20.8763   -3.4705 O   0  0  0  0  0  0  0  0  0  0  0  0
   22.6669  -20.1094   -4.0628 O   0  0  0  0  0  0  0  0  0  0  0  0
  2  1  1  6
  2 13  1  0
  3  2  1  0
  3  4  1  0
  4 12  1  0
  5  6  1  0
  5  4  2  0
  6  7  1  0
  7 12  2  0
  7  8  1  0
  8  9  2  0
  9 10  1  0
 11 10  2  0
 12 11  1  0
 13 19  1  0
 13 14  2  0
 16 15  1  6
 16 18  1  0
 16 17  1  0
 18 20  1  0
 18 19  1  6
 20 21  2  0
 23 22  1  6
 23 24  1  0
 23 25  1  0
 25 27  1  0
 25 26  1  1
 26 20  1  0
 27 29  1  0
 28 27  2  0
M  END
$$$$
