WVT.pdb
     RDKit          3D

 29 30  0  0  1  0  0  0  0  0999 V2000
   22.9966  -21.2052  -10.8276 N   0  0  0  0  0  0  0  0  0  0  0  0
   23.0796  -21.5170   -9.4281 C   0  0  1  0  0  0  0  0  0  0  0  0
   23.7667  -20.4213   -8.6502 C   0  0  0  0  0  0  0  0  0  0  0  0
   25.2241  -20.4000   -8.7716 C   0  0  0  0  0  0  0  0  0  0  0  0
   25.9291  -20.5622   -9.9441 C   0  0  0  0  0  0  0  0  0  0  0  0
   27.2434  -20.4616   -9.6799 N   0  0  0  0  0  0  0  0  0  0  0  0
   27.4394  -20.2385   -8.3722 C   0  0  0  0  0  0  0  0  0  0  0  0
   28.5942  -20.0733   -7.6444 C   0  0  0  0  0  0  0  0  0  0  0  0
   28.4850  -19.8601   -6.2829 C   0  0  0  0  0  0  0  0  0  0  0  0
   27.2406  -19.8193   -5.6966 C   0  0  0  0  0  0  0  0  0  0  0  0
   26.0725  -19.9837   -6.4174 C   0  0  0  0  0  0  0  0  0  0  0  0
   26.1718  -20.1989   -7.7943 C   0  0  0  0  0  0  0  0  0  0  0  0
   21.6856  -21.5897   -8.8795 C   0  0  0  0  0  0  0  0  0  0  0  0
   20.9266  -20.6195   -9.1307 O   0  0  0  0  0  0  0  0  0  0  0  0
   17.9786  -23.9250   -9.4902 C   0  0  0  0  0  0  0  0  0  0  0  0
   19.4578  -23.7387   -9.3724 C   0  0  2  0  0  0  0  0  0  0  0  0
   20.2067  -25.0540   -9.4288 C   0  0  0  0  0  0  0  0  0  0  0  0
   19.7972  -22.9674   -8.1088 C   0  0  2  0  0  0  0  0  0  0  0  0
   21.2432  -22.7004   -8.1127 N   0  0  0  0  0  0  0  0  0  0  0  0
   19.4058  -23.7367   -6.9356 C   0  0  0  0  0  0  0  0  0  0  0  0
   20.3238  -24.4453   -6.3647 O   0  0  0  0  0  0  0  0  0  0  0  0
   15.4276  -24.4448   -5.2989 C   0  0  0  0  0  0  0  0  0  0  0  0
   16.6120  -24.2110   -4.4271 C   0  0  1  0  0  0  0  0  0  0  0  0
   16.4576  -24.8992   -3.2254 O   0  0  0  0  0  0  0  0  0  0  0  0
   17.9402  -24.5564   -5.0615 C   0  0  2  0  0  0  0  0  0  0  0  0
   18.1469  -23.8285   -6.3020 N   0  0  0  0  0  0  0  0  0  0  0  0
   17.9366  -26.0038   -5.3554 C   0  0  0  0  0  0  0  0  0  0  0  0
   17.6507  -26.4544   -6.5079 O   0  0  0  0  0  0  0  0  0  0  0  0
   18.2407  -26.9818   -4.4129 O   0  0  0  0  0  0  0  0  0  0  0  0
  2  1  1  6
  2 13  1  0
  3  2  1  0
  3  4  1  0
  4 12  1  0
  5  6  1  0
  5  4  2  0
  6  7  1  0
  7 12  2  0
  7  8  1  0
  8  9  2  0
  9 10  1  0
 11 10  2  0
 12 11  1  0
 13 19  1  0
 13 14  2  0
 16 15  1  1
 16 18  1  0
 16 17  1  0
 18 20  1  0
 18 19  1  1
 20 21  2  0
 23 22  1  6
 23 24  1  0
 23 25  1  0
 25 27  1  0
 25 26  1  6
 26 20  1  0
 27 29  1  0
 28 27  2  0
M  END
$$$$
