WVT.pdb
     RDKit          3D

 29 30  0  0  1  0  0  0  0  0999 V2000
   24.2580  -16.8237  -16.8503 N   0  0  0  0  0  0  0  0  0  0  0  0
   24.8770  -17.8436  -16.0508 C   0  0  1  0  0  0  0  0  0  0  0  0
   26.1088  -17.3313  -15.3451 C   0  0  0  0  0  0  0  0  0  0  0  0
   27.2451  -17.0428  -16.2197 C   0  0  0  0  0  0  0  0  0  0  0  0
   27.7716  -15.7921  -16.4567 C   0  0  0  0  0  0  0  0  0  0  0  0
   28.8191  -15.9110  -17.2910 N   0  0  0  0  0  0  0  0  0  0  0  0
   29.0090  -17.1974  -17.6189 C   0  0  0  0  0  0  0  0  0  0  0  0
   29.9397  -17.7965  -18.4347 C   0  0  0  0  0  0  0  0  0  0  0  0
   29.8859  -19.1689  -18.5913 C   0  0  0  0  0  0  0  0  0  0  0  0
   28.9156  -19.8926  -17.9365 C   0  0  0  0  0  0  0  0  0  0  0  0
   27.9748  -19.3020  -17.1137 C   0  0  0  0  0  0  0  0  0  0  0  0
   28.0209  -17.9155  -16.9479 C   0  0  0  0  0  0  0  0  0  0  0  0
   23.9202  -18.2331  -14.9633 C   0  0  0  0  0  0  0  0  0  0  0  0
   23.2871  -17.3014  -14.4052 O   0  0  0  0  0  0  0  0  0  0  0  0
   20.6176  -20.9712  -13.0237 C   0  0  0  0  0  0  0  0  0  0  0  0
   21.6245  -20.6561  -14.0837 C   0  0  2  0  0  0  0  0  0  0  0  0
   22.1302  -21.9018  -14.7814 C   0  0  0  0  0  0  0  0  0  0  0  0
   22.7719  -19.8479  -13.5033 C   0  0  2  0  0  0  0  0  0  0  0  0
   23.7378  -19.5889  -14.5813 N   0  0  0  0  0  0  0  0  0  0  0  0
   23.3900  -20.5784  -12.4052 C   0  0  0  0  0  0  0  0  0  0  0  0
   23.8790  -21.7438  -12.6764 O   0  0  0  0  0  0  0  0  0  0  0  0
   26.5768  -20.2834  -10.5259 C   0  0  0  0  0  0  0  0  0  0  0  0
   25.4682  -20.3962   -9.5382 C   0  0  1  0  0  0  0  0  0  0  0  0
   25.1768  -19.1404   -9.0092 O   0  0  0  0  0  0  0  0  0  0  0  0
   24.2109  -21.0440  -10.0724 C   0  0  2  0  0  0  0  0  0  0  0  0
   23.5491  -20.2008  -11.0535 N   0  0  0  0  0  0  0  0  0  0  0  0
   23.2945  -21.2564   -8.9338 C   0  0  0  0  0  0  0  0  0  0  0  0
   22.1880  -20.6403   -8.8381 O   0  0  0  0  0  0  0  0  0  0  0  0
   23.5583  -22.1341   -7.8862 O   0  0  0  0  0  0  0  0  0  0  0  0
  2  1  1  6
  2 13  1  0
  3  2  1  0
  3  4  1  0
  4 12  1  0
  5  6  1  0
  5  4  2  0
  6  7  1  0
  7 12  2  0
  7  8  1  0
  8  9  2  0
  9 10  1  0
 11 10  2  0
 12 11  1  0
 13 19  1  0
 13 14  2  0
 16 15  1  1
 16 18  1  0
 16 17  1  0
 18 20  1  0
 18 19  1  6
 20 21  2  0
 23 22  1  6
 23 24  1  0
 23 25  1  0
 25 27  1  0
 25 26  1  6
 26 20  1  0
 27 29  1  0
 28 27  2  0
M  END
$$$$
