QDE.pdb
     RDKit          3D

 27 26  0  0  1  0  0  0  0  0999 V2000
    8.3610  -12.3072   17.2333 N   0  0  0  0  0  0  0  0  0  0  0  0
    7.8092  -13.5356   17.6872 C   0  0  0  0  0  0  0  0  0  0  0  0
    7.9136  -14.5451   16.9559 O   0  0  0  0  0  0  0  0  0  0  0  0
    7.1243  -13.6529   18.9821 C   0  0  0  0  0  0  0  0  0  0  0  0
    8.1269  -13.7896   20.1021 C   0  0  0  0  0  0  0  0  0  0  0  0
    7.9806  -15.0984   20.8358 C   0  0  2  0  0  0  0  0  0  0  0  0
    6.6332  -15.3391   21.2661 N   0  0  0  0  0  0  0  0  0  0  0  0
    8.8826  -15.1857   22.0106 C   0  0  0  0  0  0  0  0  0  0  0  0
    8.9377  -14.2035   22.7861 O   0  0  0  0  0  0  0  0  0  0  0  0
    9.6770  -16.3241   22.2883 N   0  0  0  0  0  0  0  0  0  0  0  0
   10.6786  -16.3311   23.3432 C   0  0  1  0  0  0  0  0  0  0  0  0
   10.3099  -17.2146   24.5062 C   0  0  0  0  0  0  0  0  0  0  0  0
   11.3252  -17.2372   25.5615 C   0  0  0  0  0  0  0  0  0  0  0  0
   12.0576  -16.2386   25.7676 O   0  0  0  0  0  0  0  0  0  0  0  0
   11.9720  -16.8049   22.7724 C   0  0  0  0  0  0  0  0  0  0  0  0
   12.1579  -18.0139   22.4364 O   0  0  0  0  0  0  0  0  0  0  0  0
   11.4777  -18.3767   26.3417 O   0  0  0  0  0  0  0  0  0  0  0  0
   13.0764  -15.9353   22.5687 N   0  0  0  0  0  0  0  0  0  0  0  0
   14.3278  -16.2979   21.9736 C   0  0  1  0  0  0  0  0  0  0  0  0
   14.4277  -15.7933   20.5812 C   0  0  0  0  0  0  0  0  0  0  0  0
   14.2732  -14.3424   20.3545 C   0  0  0  0  0  0  0  0  0  0  0  0
   14.4460  -13.9763   18.9388 C   0  0  0  0  0  0  0  0  0  0  0  0
   14.2747  -12.8044   18.5214 O   0  0  0  0  0  0  0  0  0  0  0  0
   15.4925  -16.0753   22.8363 C   0  0  0  0  0  0  0  0  0  0  0  0
   16.6525  -16.3523   22.4310 O   0  0  0  0  0  0  0  0  0  0  0  0
   14.8138  -14.9116   17.9595 O   0  0  0  0  0  0  0  0  0  0  0  0
   15.4386  -15.5598   24.1328 O   0  0  0  0  0  0  0  0  0  0  0  0
  2  1  1  0
  3  2  2  0
  4  2  1  0
  5  4  1  0
  6  5  1  0
  6  8  1  0
  6  7  1  1
  8  9  2  0
 10 11  1  0
 10  8  1  0
 11 15  1  0
 12 13  1  0
 11 12  1  1
 13 17  1  0
 14 13  2  0
 15 16  2  0
 18 19  1  0
 18 15  1  0
 19 24  1  0
 19 20  1  6
 21 20  1  0
 22 21  1  0
 23 22  2  0
 24 25  2  0
 24 27  1  0
 26 22  1  0
M  END
$$$$
