QDE.pdb
     RDKit          3D

 27 26  0  0  1  0  0  0  0  0999 V2000
   16.0883  -15.0500   18.1809 N   0  0  0  0  0  0  0  0  0  0  0  0
   15.2476  -13.9873   18.6094 C   0  0  0  0  0  0  0  0  0  0  0  0
   15.7259  -13.1141   19.3667 O   0  0  0  0  0  0  0  0  0  0  0  0
   13.8426  -13.8859   18.1911 C   0  0  0  0  0  0  0  0  0  0  0  0
   13.2873  -15.2501   17.8611 C   0  0  0  0  0  0  0  0  0  0  0  0
   11.8235  -15.3632   18.2037 C   0  0  2  0  0  0  0  0  0  0  0  0
   11.1259  -14.1189   18.0499 N   0  0  0  0  0  0  0  0  0  0  0  0
   11.6085  -15.8670   19.5825 C   0  0  0  0  0  0  0  0  0  0  0  0
   11.6583  -15.0440   20.5256 O   0  0  0  0  0  0  0  0  0  0  0  0
   11.3514  -17.2285   19.8732 N   0  0  0  0  0  0  0  0  0  0  0  0
   11.2468  -17.7229   21.2373 C   0  0  1  0  0  0  0  0  0  0  0  0
   10.4865  -19.0191   21.3424 C   0  0  0  0  0  0  0  0  0  0  0  0
   10.3140  -19.4796   22.7219 C   0  0  0  0  0  0  0  0  0  0  0  0
    9.1744  -19.5160   23.2475 O   0  0  0  0  0  0  0  0  0  0  0  0
   12.6207  -17.9277   21.7792 C   0  0  0  0  0  0  0  0  0  0  0  0
   13.5764  -18.3410   21.0546 O   0  0  0  0  0  0  0  0  0  0  0  0
   11.4242  -19.8798   23.4549 O   0  0  0  0  0  0  0  0  0  0  0  0
   12.9470  -17.6740   23.1380 N   0  0  0  0  0  0  0  0  0  0  0  0
   14.2699  -17.5277   23.6672 C   0  0  1  0  0  0  0  0  0  0  0  0
   15.1061  -16.6653   22.7950 C   0  0  0  0  0  0  0  0  0  0  0  0
   16.4966  -16.3950   23.2117 C   0  0  0  0  0  0  0  0  0  0  0  0
   17.1935  -15.4915   22.2811 C   0  0  0  0  0  0  0  0  0  0  0  0
   16.8600  -15.3797   21.0756 O   0  0  0  0  0  0  0  0  0  0  0  0
   14.3161  -17.2456   25.1055 C   0  0  0  0  0  0  0  0  0  0  0  0
   15.4190  -17.1762   25.7098 O   0  0  0  0  0  0  0  0  0  0  0  0
   18.2777  -14.6937   22.6775 O   0  0  0  0  0  0  0  0  0  0  0  0
   13.1973  -17.0363   25.9141 O   0  0  0  0  0  0  0  0  0  0  0  0
  2  1  1  0
  3  2  2  0
  4  2  1  0
  5  4  1  0
  6  5  1  0
  6  8  1  0
  6  7  1  1
  8  9  2  0
 10 11  1  0
 10  8  1  0
 11 15  1  0
 12 13  1  0
 11 12  1  6
 13 17  1  0
 14 13  2  0
 15 16  2  0
 18 19  1  0
 18 15  1  0
 19 24  1  0
 19 20  1  6
 21 20  1  0
 22 21  1  0
 23 22  2  0
 24 25  2  0
 24 27  1  0
 26 22  1  0
M  END
$$$$
