QDE.pdb
     RDKit          3D

 27 26  0  0  1  0  0  0  0  0999 V2000
    9.1846  -12.2796   19.0453 N   0  0  0  0  0  0  0  0  0  0  0  0
    7.9744  -12.9906   18.8230 C   0  0  0  0  0  0  0  0  0  0  0  0
    6.9808  -12.3619   18.3959 O   0  0  0  0  0  0  0  0  0  0  0  0
    7.8579  -14.4330   19.0785 C   0  0  0  0  0  0  0  0  0  0  0  0
    9.1557  -14.9827   19.6188 C   0  0  0  0  0  0  0  0  0  0  0  0
    9.9353  -15.7298   18.5666 C   0  0  2  0  0  0  0  0  0  0  0  0
    9.2634  -16.9183   18.1259 N   0  0  0  0  0  0  0  0  0  0  0  0
   11.2971  -16.0921   19.0307 C   0  0  0  0  0  0  0  0  0  0  0  0
   11.5912  -17.3076   19.1043 O   0  0  0  0  0  0  0  0  0  0  0  0
   12.2695  -15.1283   19.3909 N   0  0  0  0  0  0  0  0  0  0  0  0
   13.6193  -15.4999   19.7857 C   0  0  1  0  0  0  0  0  0  0  0  0
   14.6159  -14.3828   19.6178 C   0  0  0  0  0  0  0  0  0  0  0  0
   14.8755  -14.0435   18.2169 C   0  0  0  0  0  0  0  0  0  0  0  0
   14.9646  -12.8450   17.8538 O   0  0  0  0  0  0  0  0  0  0  0  0
   13.6021  -15.9158   21.2175 C   0  0  0  0  0  0  0  0  0  0  0  0
   14.6388  -16.3499   21.8057 O   0  0  0  0  0  0  0  0  0  0  0  0
   15.0245  -15.0600   17.2817 O   0  0  0  0  0  0  0  0  0  0  0  0
   12.4271  -15.8528   22.0127 N   0  0  0  0  0  0  0  0  0  0  0  0
   12.3370  -16.1960   23.4005 C   0  0  1  0  0  0  0  0  0  0  0  0
   11.1772  -15.5305   24.0451 C   0  0  0  0  0  0  0  0  0  0  0  0
    9.8213  -15.9201   23.6093 C   0  0  0  0  0  0  0  0  0  0  0  0
    8.7687  -15.2355   24.3782 C   0  0  0  0  0  0  0  0  0  0  0  0
    7.7956  -14.6651   23.8263 O   0  0  0  0  0  0  0  0  0  0  0  0
   12.5116  -17.6247   23.6807 C   0  0  0  0  0  0  0  0  0  0  0  0
   12.7352  -18.0250   24.8539 O   0  0  0  0  0  0  0  0  0  0  0  0
    8.7808  -15.1737   25.7801 O   0  0  0  0  0  0  0  0  0  0  0  0
   12.4521  -18.6390   22.7230 O   0  0  0  0  0  0  0  0  0  0  0  0
  2  1  1  0
  3  2  2  0
  4  2  1  0
  5  4  1  0
  6  5  1  0
  6  8  1  0
  6  7  1  1
  8  9  2  0
 10 11  1  0
 10  8  1  0
 11 15  1  0
 12 13  1  0
 11 12  1  1
 13 17  1  0
 14 13  2  0
 15 16  2  0
 18 19  1  0
 18 15  1  0
 19 24  1  0
 19 20  1  6
 21 20  1  0
 22 21  1  0
 23 22  2  0
 24 25  2  0
 24 27  1  0
 26 22  1  0
M  END
$$$$
