QDE.pdb
     RDKit          3D

 27 26  0  0  1  0  0  0  0  0999 V2000
   11.8028  -18.6043   12.8735 N   0  0  0  0  0  0  0  0  0  0  0  0
   10.6761  -19.4686   12.9276 C   0  0  0  0  0  0  0  0  0  0  0  0
    9.6219  -19.1142   12.3549 O   0  0  0  0  0  0  0  0  0  0  0  0
   10.7139  -20.7577   13.6322 C   0  0  0  0  0  0  0  0  0  0  0  0
   12.0836  -21.0026   14.2172 C   0  0  0  0  0  0  0  0  0  0  0  0
   12.1832  -20.5253   15.6437 C   0  0  2  0  0  0  0  0  0  0  0  0
   11.5736  -19.2409   15.8368 N   0  0  0  0  0  0  0  0  0  0  0  0
   13.5879  -20.4661   16.1176 C   0  0  0  0  0  0  0  0  0  0  0  0
   14.1204  -21.5269   16.5181 O   0  0  0  0  0  0  0  0  0  0  0  0
   14.3446  -19.2698   16.1354 N   0  0  0  0  0  0  0  0  0  0  0  0
   15.7356  -19.2393   16.5599 C   0  0  1  0  0  0  0  0  0  0  0  0
   16.5643  -18.2316   15.8068 C   0  0  0  0  0  0  0  0  0  0  0  0
   16.7902  -18.5973   14.4067 C   0  0  0  0  0  0  0  0  0  0  0  0
   17.0826  -19.7769   14.0917 O   0  0  0  0  0  0  0  0  0  0  0  0
   15.7857  -18.9108   18.0135 C   0  0  0  0  0  0  0  0  0  0  0  0
   15.0090  -18.0562   18.5385 O   0  0  0  0  0  0  0  0  0  0  0  0
   16.6792  -17.6272   13.4184 O   0  0  0  0  0  0  0  0  0  0  0  0
   16.7038  -19.5319   18.9014 N   0  0  0  0  0  0  0  0  0  0  0  0
   16.8366  -19.2495   20.2993 C   0  0  1  0  0  0  0  0  0  0  0  0
   17.1237  -20.4836   21.0727 C   0  0  0  0  0  0  0  0  0  0  0  0
   17.2361  -20.3739   22.5409 C   0  0  0  0  0  0  0  0  0  0  0  0
   17.5448  -21.6659   23.1761 C   0  0  0  0  0  0  0  0  0  0  0  0
   16.6664  -22.5376   23.3892 O   0  0  0  0  0  0  0  0  0  0  0  0
   17.6666  -18.0789   20.6016 C   0  0  0  0  0  0  0  0  0  0  0  0
   17.4225  -17.3632   21.6089 O   0  0  0  0  0  0  0  0  0  0  0  0
   18.8414  -22.0114   23.5866 O   0  0  0  0  0  0  0  0  0  0  0  0
   18.7586  -17.6569   19.8408 O   0  0  0  0  0  0  0  0  0  0  0  0
  2  1  1  0
  3  2  2  0
  4  2  1  0
  5  4  1  0
  6  5  1  0
  6  8  1  0
  6  7  1  6
  8  9  2  0
 10 11  1  0
 10  8  1  0
 11 15  1  0
 12 13  1  0
 11 12  1  6
 13 17  1  0
 14 13  2  0
 15 16  2  0
 18 19  1  0
 18 15  1  0
 19 24  1  0
 19 20  1  1
 21 20  1  0
 22 21  1  0
 23 22  2  0
 24 25  2  0
 24 27  1  0
 26 22  1  0
M  END
$$$$
