QDE.pdb
     RDKit          3D

 27 26  0  0  1  0  0  0  0  0999 V2000
    7.1211  -13.0328   18.3737 N   0  0  0  0  0  0  0  0  0  0  0  0
    8.0437  -13.0507   19.4545 C   0  0  0  0  0  0  0  0  0  0  0  0
    9.1432  -12.4713   19.3123 O   0  0  0  0  0  0  0  0  0  0  0  0
    7.7449  -13.7256   20.7252 C   0  0  0  0  0  0  0  0  0  0  0  0
    6.3437  -14.2865   20.7113 C   0  0  0  0  0  0  0  0  0  0  0  0
    6.2920  -15.6932   21.2512 C   0  0  2  0  0  0  0  0  0  0  0  0
    5.9728  -15.7333   22.6494 N   0  0  0  0  0  0  0  0  0  0  0  0
    7.5626  -16.4258   21.0276 C   0  0  0  0  0  0  0  0  0  0  0  0
    8.2041  -16.8139   22.0311 O   0  0  0  0  0  0  0  0  0  0  0  0
    8.0754  -16.7016   19.7371 N   0  0  0  0  0  0  0  0  0  0  0  0
    9.2137  -17.5828   19.5280 C   0  0  1  0  0  0  0  0  0  0  0  0
    9.5499  -17.7834   18.0733 C   0  0  0  0  0  0  0  0  0  0  0  0
   10.4699  -18.8987   17.8396 C   0  0  0  0  0  0  0  0  0  0  0  0
   10.9459  -19.5493   18.8021 O   0  0  0  0  0  0  0  0  0  0  0  0
   10.4012  -17.0034   20.2190 C   0  0  0  0  0  0  0  0  0  0  0  0
   10.8814  -15.8733   19.9005 O   0  0  0  0  0  0  0  0  0  0  0  0
   10.8183  -19.2388   16.5384 O   0  0  0  0  0  0  0  0  0  0  0  0
   11.0693  -17.6778   21.2754 N   0  0  0  0  0  0  0  0  0  0  0  0
   12.1679  -17.1605   22.0351 C   0  0  1  0  0  0  0  0  0  0  0  0
   11.8857  -17.2103   23.4916 C   0  0  0  0  0  0  0  0  0  0  0  0
   10.5053  -16.9420   23.9421 C   0  0  0  0  0  0  0  0  0  0  0  0
   10.3699  -17.0202   25.4061 C   0  0  0  0  0  0  0  0  0  0  0  0
    9.4265  -17.6345   25.9625 O   0  0  0  0  0  0  0  0  0  0  0  0
   13.4816  -17.6502   21.6053 C   0  0  0  0  0  0  0  0  0  0  0  0
   13.5742  -18.6161   20.8022 O   0  0  0  0  0  0  0  0  0  0  0  0
   11.2855  -16.4138   26.2797 O   0  0  0  0  0  0  0  0  0  0  0  0
   14.7054  -17.1231   22.0224 O   0  0  0  0  0  0  0  0  0  0  0  0
  2  1  1  0
  3  2  2  0
  4  2  1  0
  5  4  1  0
  6  5  1  0
  6  8  1  0
  6  7  1  1
  8  9  2  0
 10 11  1  0
 10  8  1  0
 11 15  1  0
 12 13  1  0
 11 12  1  6
 13 17  1  0
 14 13  2  0
 15 16  2  0
 18 19  1  0
 18 15  1  0
 19 24  1  0
 19 20  1  1
 21 20  1  0
 22 21  1  0
 23 22  2  0
 24 25  2  0
 24 27  1  0
 26 22  1  0
M  END
$$$$
