QDE.pdb
     RDKit          3D

 27 26  0  0  1  0  0  0  0  0999 V2000
    7.7236  -13.1605   20.8072 N   0  0  0  0  0  0  0  0  0  0  0  0
    6.8878  -13.1949   19.6583 C   0  0  0  0  0  0  0  0  0  0  0  0
    5.6637  -13.3998   19.8148 O   0  0  0  0  0  0  0  0  0  0  0  0
    7.4169  -12.9979   18.3016 C   0  0  0  0  0  0  0  0  0  0  0  0
    8.8794  -12.6278   18.3509 C   0  0  0  0  0  0  0  0  0  0  0  0
    9.7723  -13.8140   18.0889 C   0  0  2  0  0  0  0  0  0  0  0  0
    9.3164  -14.6117   16.9871 N   0  0  0  0  0  0  0  0  0  0  0  0
    9.9150  -14.6821   19.2836 C   0  0  0  0  0  0  0  0  0  0  0  0
   10.3257  -14.1606   20.3460 O   0  0  0  0  0  0  0  0  0  0  0  0
    9.6085  -16.0642   19.2720 N   0  0  0  0  0  0  0  0  0  0  0  0
    9.7565  -16.9004   20.4530 C   0  0  1  0  0  0  0  0  0  0  0  0
    9.0996  -18.2487   20.3120 C   0  0  0  0  0  0  0  0  0  0  0  0
    9.1183  -19.0346   21.5477 C   0  0  0  0  0  0  0  0  0  0  0  0
   10.1488  -19.0788   22.2634 O   0  0  0  0  0  0  0  0  0  0  0  0
   11.2099  -17.1007   20.7189 C   0  0  0  0  0  0  0  0  0  0  0  0
   11.9169  -17.8994   20.0323 O   0  0  0  0  0  0  0  0  0  0  0  0
    7.9827  -19.7377   21.9301 O   0  0  0  0  0  0  0  0  0  0  0  0
   11.8945  -16.4120   21.7554 N   0  0  0  0  0  0  0  0  0  0  0  0
   13.2615  -16.6138   22.1326 C   0  0  1  0  0  0  0  0  0  0  0  0
   14.1265  -15.5186   21.6268 C   0  0  0  0  0  0  0  0  0  0  0  0
   13.9414  -15.0744   20.2309 C   0  0  0  0  0  0  0  0  0  0  0  0
   14.9120  -14.0384   19.8405 C   0  0  0  0  0  0  0  0  0  0  0  0
   15.6545  -13.4638   20.6744 O   0  0  0  0  0  0  0  0  0  0  0  0
   13.4490  -17.0026   23.5340 C   0  0  0  0  0  0  0  0  0  0  0  0
   12.4731  -17.0211   24.3301 O   0  0  0  0  0  0  0  0  0  0  0  0
   15.0738  -13.6222   18.5101 O   0  0  0  0  0  0  0  0  0  0  0  0
   14.6690  -17.3731   24.1031 O   0  0  0  0  0  0  0  0  0  0  0  0
  2  1  1  0
  3  2  2  0
  4  2  1  0
  5  4  1  0
  6  5  1  0
  6  8  1  0
  6  7  1  6
  8  9  2  0
 10 11  1  0
 10  8  1  0
 11 15  1  0
 12 13  1  0
 11 12  1  6
 13 17  1  0
 14 13  2  0
 15 16  2  0
 18 19  1  0
 18 15  1  0
 19 24  1  0
 19 20  1  1
 21 20  1  0
 22 21  1  0
 23 22  2  0
 24 25  2  0
 24 27  1  0
 26 22  1  0
M  END
$$$$
