QDE.pdb
     RDKit          3D

 27 26  0  0  1  0  0  0  0  0999 V2000
    8.0572  -12.0619   18.3947 N   0  0  0  0  0  0  0  0  0  0  0  0
    7.8434  -13.1993   17.5700 C   0  0  0  0  0  0  0  0  0  0  0  0
    8.0300  -13.0887   16.3380 O   0  0  0  0  0  0  0  0  0  0  0  0
    7.4124  -14.4923   18.1194 C   0  0  0  0  0  0  0  0  0  0  0  0
    7.2872  -14.4153   19.6216 C   0  0  0  0  0  0  0  0  0  0  0  0
    8.4970  -14.9823   20.3200 C   0  0  2  0  0  0  0  0  0  0  0  0
    9.0886  -16.0709   19.5967 N   0  0  0  0  0  0  0  0  0  0  0  0
    8.1870  -15.4341   21.6988 C   0  0  0  0  0  0  0  0  0  0  0  0
    7.0487  -15.1855   22.1590 O   0  0  0  0  0  0  0  0  0  0  0  0
    9.1174  -16.1287   22.5087 N   0  0  0  0  0  0  0  0  0  0  0  0
    8.7056  -17.1471   23.4623 C   0  0  1  0  0  0  0  0  0  0  0  0
    7.9204  -18.2677   22.8321 C   0  0  0  0  0  0  0  0  0  0  0  0
    7.5562  -19.3241   23.7789 C   0  0  0  0  0  0  0  0  0  0  0  0
    8.4426  -19.9859   24.3727 O   0  0  0  0  0  0  0  0  0  0  0  0
    9.9220  -17.7184   24.1082 C   0  0  0  0  0  0  0  0  0  0  0  0
    9.8505  -18.5651   25.0500 O   0  0  0  0  0  0  0  0  0  0  0  0
    6.2153  -19.5950   24.0211 O   0  0  0  0  0  0  0  0  0  0  0  0
   11.2357  -17.3521   23.7116 N   0  0  0  0  0  0  0  0  0  0  0  0
   12.4503  -17.8097   24.3174 C   0  0  1  0  0  0  0  0  0  0  0  0
   13.6352  -17.4034   23.5209 C   0  0  0  0  0  0  0  0  0  0  0  0
   14.2377  -16.0834   23.7943 C   0  0  0  0  0  0  0  0  0  0  0  0
   15.3479  -15.7748   22.8776 C   0  0  0  0  0  0  0  0  0  0  0  0
   16.4324  -15.2831   23.2761 O   0  0  0  0  0  0  0  0  0  0  0  0
   12.5248  -17.5835   25.7644 C   0  0  0  0  0  0  0  0  0  0  0  0
   13.4733  -18.0634   26.4400 O   0  0  0  0  0  0  0  0  0  0  0  0
   15.2699  -16.0091   21.4962 O   0  0  0  0  0  0  0  0  0  0  0  0
   11.5969  -16.8499   26.5063 O   0  0  0  0  0  0  0  0  0  0  0  0
  2  1  1  0
  3  2  2  0
  4  2  1  0
  5  4  1  0
  6  5  1  0
  6  8  1  0
  6  7  1  6
  8  9  2  0
 10 11  1  0
 10  8  1  0
 11 15  1  0
 12 13  1  0
 11 12  1  6
 13 17  1  0
 14 13  2  0
 15 16  2  0
 18 19  1  0
 18 15  1  0
 19 24  1  0
 19 20  1  6
 21 20  1  0
 22 21  1  0
 23 22  2  0
 24 25  2  0
 24 27  1  0
 26 22  1  0
M  END
$$$$
