QDE.pdb
     RDKit          3D

 27 26  0  0  1  0  0  0  0  0999 V2000
    6.9937  -13.2935   27.3188 N   0  0  0  0  0  0  0  0  0  0  0  0
    6.4296  -12.5585   26.2413 C   0  0  0  0  0  0  0  0  0  0  0  0
    5.6416  -11.6229   26.5028 O   0  0  0  0  0  0  0  0  0  0  0  0
    6.7435  -12.8642   24.8386 C   0  0  0  0  0  0  0  0  0  0  0  0
    7.7329  -14.0008   24.7518 C   0  0  0  0  0  0  0  0  0  0  0  0
    7.6698  -14.7053   23.4204 C   0  0  2  0  0  0  0  0  0  0  0  0
    6.3945  -15.3184   23.1834 N   0  0  0  0  0  0  0  0  0  0  0  0
    8.7302  -15.7335   23.2803 C   0  0  0  0  0  0  0  0  0  0  0  0
    8.4854  -16.8926   23.6875 O   0  0  0  0  0  0  0  0  0  0  0  0
    9.9969  -15.4602   22.7100 N   0  0  0  0  0  0  0  0  0  0  0  0
   11.0778  -16.4336   22.7215 C   0  0  1  0  0  0  0  0  0  0  0  0
   12.1486  -16.1438   21.7024 C   0  0  0  0  0  0  0  0  0  0  0  0
   13.1750  -17.1860   21.6277 C   0  0  0  0  0  0  0  0  0  0  0  0
   12.9112  -18.3695   21.9531 O   0  0  0  0  0  0  0  0  0  0  0  0
   11.6973  -16.4455   24.0777 C   0  0  0  0  0  0  0  0  0  0  0  0
   12.6606  -15.6797   24.3853 O   0  0  0  0  0  0  0  0  0  0  0  0
   14.4531  -16.8593   21.1920 O   0  0  0  0  0  0  0  0  0  0  0  0
   11.2498  -17.3127   25.1096 N   0  0  0  0  0  0  0  0  0  0  0  0
   11.9632  -17.6177   26.3137 C   0  0  1  0  0  0  0  0  0  0  0  0
   11.6376  -16.6504   27.3916 C   0  0  0  0  0  0  0  0  0  0  0  0
   10.7350  -15.5273   27.0690 C   0  0  0  0  0  0  0  0  0  0  0  0
   10.4679  -14.6714   28.2369 C   0  0  0  0  0  0  0  0  0  0  0  0
   10.7995  -15.0011   29.4023 O   0  0  0  0  0  0  0  0  0  0  0  0
   11.9474  -19.0373   26.6806 C   0  0  0  0  0  0  0  0  0  0  0  0
   12.6510  -19.4602   27.6359 O   0  0  0  0  0  0  0  0  0  0  0  0
    9.8245  -13.4291   28.1277 O   0  0  0  0  0  0  0  0  0  0  0  0
   11.1891  -20.0190   26.0396 O   0  0  0  0  0  0  0  0  0  0  0  0
  2  1  1  0
  3  2  2  0
  4  2  1  0
  5  4  1  0
  6  5  1  0
  6  8  1  0
  6  7  1  1
  8  9  2  0
 10 11  1  0
 10  8  1  0
 11 15  1  0
 12 13  1  0
 11 12  1  6
 13 17  1  0
 14 13  2  0
 15 16  2  0
 18 19  1  0
 18 15  1  0
 19 24  1  0
 19 20  1  1
 21 20  1  0
 22 21  1  0
 23 22  2  0
 24 25  2  0
 24 27  1  0
 26 22  1  0
M  END
$$$$
