QDE.pdb
     RDKit          3D

 27 26  0  0  1  0  0  0  0  0999 V2000
    8.2052  -12.8777   19.3746 N   0  0  0  0  0  0  0  0  0  0  0  0
    8.3433  -13.5917   20.5955 C   0  0  0  0  0  0  0  0  0  0  0  0
    8.6361  -12.9547   21.6315 O   0  0  0  0  0  0  0  0  0  0  0  0
    8.1531  -15.0467   20.6750 C   0  0  0  0  0  0  0  0  0  0  0  0
    7.6829  -15.5936   19.3491 C   0  0  0  0  0  0  0  0  0  0  0  0
    7.5761  -17.0973   19.3631 C   0  0  2  0  0  0  0  0  0  0  0  0
    6.6566  -17.5732   20.3562 N   0  0  0  0  0  0  0  0  0  0  0  0
    8.8915  -17.7501   19.5746 C   0  0  0  0  0  0  0  0  0  0  0  0
    8.9176  -18.8359   20.1988 O   0  0  0  0  0  0  0  0  0  0  0  0
   10.1083  -17.2005   19.1036 N   0  0  0  0  0  0  0  0  0  0  0  0
   11.3889  -17.8562   19.3186 C   0  0  1  0  0  0  0  0  0  0  0  0
   12.4786  -17.3413   18.4148 C   0  0  0  0  0  0  0  0  0  0  0  0
   12.3875  -17.8550   17.0463 C   0  0  0  0  0  0  0  0  0  0  0  0
   11.8787  -18.9795   16.8165 O   0  0  0  0  0  0  0  0  0  0  0  0
   11.8024  -17.6466   20.7357 C   0  0  0  0  0  0  0  0  0  0  0  0
   12.9217  -18.0480   21.1776 O   0  0  0  0  0  0  0  0  0  0  0  0
   12.8699  -17.0883   15.9929 O   0  0  0  0  0  0  0  0  0  0  0  0
   10.9719  -16.9858   21.6795 N   0  0  0  0  0  0  0  0  0  0  0  0
   11.3426  -16.6335   23.0175 C   0  0  1  0  0  0  0  0  0  0  0  0
   10.3874  -15.6588   23.6015 C   0  0  0  0  0  0  0  0  0  0  0  0
    9.1707  -16.1828   24.2537 C   0  0  0  0  0  0  0  0  0  0  0  0
    8.3656  -15.1171   24.8735 C   0  0  0  0  0  0  0  0  0  0  0  0
    8.7278  -13.9148   24.8748 O   0  0  0  0  0  0  0  0  0  0  0  0
   11.7119  -17.7747   23.8611 C   0  0  0  0  0  0  0  0  0  0  0  0
   11.2209  -18.9148   23.6477 O   0  0  0  0  0  0  0  0  0  0  0  0
    7.1387  -15.3722   25.5052 O   0  0  0  0  0  0  0  0  0  0  0  0
   12.6013  -17.7179   24.9359 O   0  0  0  0  0  0  0  0  0  0  0  0
  2  1  1  0
  3  2  2  0
  4  2  1  0
  5  4  1  0
  6  5  1  0
  6  8  1  0
  6  7  1  1
  8  9  2  0
 10 11  1  0
 10  8  1  0
 11 15  1  0
 12 13  1  0
 11 12  1  6
 13 17  1  0
 14 13  2  0
 15 16  2  0
 18 19  1  0
 18 15  1  0
 19 24  1  0
 19 20  1  1
 21 20  1  0
 22 21  1  0
 23 22  2  0
 24 25  2  0
 24 27  1  0
 26 22  1  0
M  END
$$$$
