QDE.pdb
     RDKit          3D

 27 26  0  0  1  0  0  0  0  0999 V2000
    8.4187  -12.3118   17.4448 N   0  0  0  0  0  0  0  0  0  0  0  0
    7.6377  -13.4747   17.2055 C   0  0  0  0  0  0  0  0  0  0  0  0
    6.9603  -13.5350   16.1556 O   0  0  0  0  0  0  0  0  0  0  0  0
    7.6036  -14.6004   18.1495 C   0  0  0  0  0  0  0  0  0  0  0  0
    8.5194  -14.3388   19.3205 C   0  0  0  0  0  0  0  0  0  0  0  0
    9.2474  -15.5841   19.7587 C   0  0  2  0  0  0  0  0  0  0  0  0
    8.3519  -16.6378   20.1409 N   0  0  0  0  0  0  0  0  0  0  0  0
   10.1843  -15.3202   20.8785 C   0  0  0  0  0  0  0  0  0  0  0  0
   11.0546  -14.4328   20.7227 O   0  0  0  0  0  0  0  0  0  0  0  0
   10.1351  -16.0247   22.1055 N   0  0  0  0  0  0  0  0  0  0  0  0
   11.0880  -15.7810   23.1773 C   0  0  1  0  0  0  0  0  0  0  0  0
   10.7305  -16.4840   24.4608 C   0  0  0  0  0  0  0  0  0  0  0  0
    9.5642  -15.9065   25.1325 C   0  0  0  0  0  0  0  0  0  0  0  0
    9.0149  -14.8700   24.6848 O   0  0  0  0  0  0  0  0  0  0  0  0
   12.4345  -16.2447   22.7357 C   0  0  0  0  0  0  0  0  0  0  0  0
   12.6728  -17.4605   22.4633 O   0  0  0  0  0  0  0  0  0  0  0  0
    9.0619  -16.5134   26.2768 O   0  0  0  0  0  0  0  0  0  0  0  0
   13.5341  -15.3573   22.5920 N   0  0  0  0  0  0  0  0  0  0  0  0
   14.8517  -15.7209   22.1638 C   0  0  1  0  0  0  0  0  0  0  0  0
   15.3139  -14.8547   21.0504 C   0  0  0  0  0  0  0  0  0  0  0  0
   14.4696  -14.7653   19.8423 C   0  0  0  0  0  0  0  0  0  0  0  0
   15.0528  -13.8844   18.8167 C   0  0  0  0  0  0  0  0  0  0  0  0
   16.1457  -13.2889   18.9839 O   0  0  0  0  0  0  0  0  0  0  0  0
   15.8016  -15.9429   23.2588 C   0  0  0  0  0  0  0  0  0  0  0  0
   15.4929  -15.6499   24.4442 O   0  0  0  0  0  0  0  0  0  0  0  0
   14.4274  -13.6502   17.5825 O   0  0  0  0  0  0  0  0  0  0  0  0
   17.0837  -16.4747   23.1076 O   0  0  0  0  0  0  0  0  0  0  0  0
  2  1  1  0
  3  2  2  0
  4  2  1  0
  5  4  1  0
  6  5  1  0
  6  8  1  0
  6  7  1  1
  8  9  2  0
 10 11  1  0
 10  8  1  0
 11 15  1  0
 12 13  1  0
 11 12  1  1
 13 17  1  0
 14 13  2  0
 15 16  2  0
 18 19  1  0
 18 15  1  0
 19 24  1  0
 19 20  1  6
 21 20  1  0
 22 21  1  0
 23 22  2  0
 24 25  2  0
 24 27  1  0
 26 22  1  0
M  END
$$$$
