QDE.pdb
     RDKit          3D

 27 26  0  0  1  0  0  0  0  0999 V2000
    9.6969  -16.9188   15.5322 N   0  0  0  0  0  0  0  0  0  0  0  0
   10.4253  -15.7190   15.7544 C   0  0  0  0  0  0  0  0  0  0  0  0
   11.3760  -15.4455   14.9888 O   0  0  0  0  0  0  0  0  0  0  0  0
   10.0956  -14.7969   16.8502 C   0  0  0  0  0  0  0  0  0  0  0  0
    8.8847  -15.2847   17.6079 C   0  0  0  0  0  0  0  0  0  0  0  0
    8.5208  -14.3648   18.7455 C   0  0  2  0  0  0  0  0  0  0  0  0
    8.4159  -12.9950   18.3320 N   0  0  0  0  0  0  0  0  0  0  0  0
    9.4857  -14.4547   19.8689 C   0  0  0  0  0  0  0  0  0  0  0  0
   10.5150  -13.7423   19.8208 O   0  0  0  0  0  0  0  0  0  0  0  0
    9.2923  -15.3058   20.9836 N   0  0  0  0  0  0  0  0  0  0  0  0
   10.2362  -15.3610   22.0890 C   0  0  1  0  0  0  0  0  0  0  0  0
    9.7640  -16.2230   23.2305 C   0  0  0  0  0  0  0  0  0  0  0  0
   10.6801  -16.2245   24.3732 C   0  0  0  0  0  0  0  0  0  0  0  0
   11.7374  -15.5480   24.3477 O   0  0  0  0  0  0  0  0  0  0  0  0
   11.5322  -15.8998   21.5857 C   0  0  0  0  0  0  0  0  0  0  0  0
   11.6314  -17.0630   21.0894 O   0  0  0  0  0  0  0  0  0  0  0  0
   10.3741  -16.9832   25.4961 O   0  0  0  0  0  0  0  0  0  0  0  0
   12.7360  -15.1473   21.6295 N   0  0  0  0  0  0  0  0  0  0  0  0
   14.0086  -15.5756   21.1309 C   0  0  1  0  0  0  0  0  0  0  0  0
   14.4663  -14.7134   20.0127 C   0  0  0  0  0  0  0  0  0  0  0  0
   15.8083  -14.9603   19.4483 C   0  0  0  0  0  0  0  0  0  0  0  0
   16.1832  -13.9569   18.4381 C   0  0  0  0  0  0  0  0  0  0  0  0
   15.5108  -12.9142   18.2438 O   0  0  0  0  0  0  0  0  0  0  0  0
   14.9952  -15.8745   22.1739 C   0  0  0  0  0  0  0  0  0  0  0  0
   14.9083  -15.3389   23.3106 O   0  0  0  0  0  0  0  0  0  0  0  0
   17.3172  -14.0970   17.6235 O   0  0  0  0  0  0  0  0  0  0  0  0
   16.0801  -16.7402   22.0218 O   0  0  0  0  0  0  0  0  0  0  0  0
  2  1  1  0
  3  2  2  0
  4  2  1  0
  5  4  1  0
  6  5  1  0
  6  8  1  0
  6  7  1  6
  8  9  2  0
 10 11  1  0
 10  8  1  0
 11 15  1  0
 12 13  1  0
 11 12  1  1
 13 17  1  0
 14 13  2  0
 15 16  2  0
 18 19  1  0
 18 15  1  0
 19 24  1  0
 19 20  1  6
 21 20  1  0
 22 21  1  0
 23 22  2  0
 24 25  2  0
 24 27  1  0
 26 22  1  0
M  END
$$$$
