DVW.pdb
     RDKit          3D

 30 31  0  0  1  0  0  0  0  0999 V2000
   27.5397  -22.3295  -16.3839 N   0  0  0  0  0  0  0  0  0  0  0  0
   27.0306  -21.1640  -15.6886 C   0  0  1  0  0  0  0  0  0  0  0  0
   26.4001  -20.1758  -16.6429 C   0  0  0  0  0  0  0  0  0  0  0  0
   27.4004  -19.5677  -17.5358 C   0  0  0  0  0  0  0  0  0  0  0  0
   27.2279  -18.3607  -17.9147 O   0  0  0  0  0  0  0  0  0  0  0  0
   26.0973  -21.5671  -14.5983 C   0  0  0  0  0  0  0  0  0  0  0  0
   25.2997  -22.5218  -14.7732 O   0  0  0  0  0  0  0  0  0  0  0  0
   28.5305  -20.2041  -18.0068 O   0  0  0  0  0  0  0  0  0  0  0  0
   24.6547  -21.3432   -9.9139 C   0  0  0  0  0  0  0  0  0  0  0  0
   25.6774  -20.9915  -10.9678 C   0  0  1  0  0  0  0  0  0  0  0  0
   26.9948  -21.6636  -10.7658 C   0  0  0  0  0  0  0  0  0  0  0  0
   25.1273  -21.2184  -12.3624 C   0  0  2  0  0  0  0  0  0  0  0  0
   26.0982  -20.8797  -13.3531 N   0  0  0  0  0  0  0  0  0  0  0  0
   23.8395  -20.4896  -12.5563 C   0  0  0  0  0  0  0  0  0  0  0  0
   23.8309  -19.2412  -12.7419 O   0  0  0  0  0  0  0  0  0  0  0  0
   22.5747  -21.1374  -12.5441 N   0  0  0  0  0  0  0  0  0  0  0  0
   21.3375  -20.4959  -12.8721 C   0  0  1  0  0  0  0  0  0  0  0  0
   21.3167  -19.8535  -14.2379 C   0  0  0  0  0  0  0  0  0  0  0  0
   20.9994  -20.8251  -15.3076 C   0  0  0  0  0  0  0  0  0  0  0  0
   19.8385  -21.5704  -15.4446 C   0  0  0  0  0  0  0  0  0  0  0  0
   19.9133  -22.3410  -16.5426 N   0  0  0  0  0  0  0  0  0  0  0  0
   21.0992  -22.1352  -17.1532 C   0  0  0  0  0  0  0  0  0  0  0  0
   21.6494  -22.6764  -18.2965 C   0  0  0  0  0  0  0  0  0  0  0  0
   22.9057  -22.2926  -18.7187 C   0  0  0  0  0  0  0  0  0  0  0  0
   23.5711  -21.3570  -17.9530 C   0  0  0  0  0  0  0  0  0  0  0  0
   23.0332  -20.8053  -16.8047 C   0  0  0  0  0  0  0  0  0  0  0  0
   21.7757  -21.2014  -16.3980 C   0  0  0  0  0  0  0  0  0  0  0  0
   20.1660  -21.3945  -12.6845 C   0  0  0  0  0  0  0  0  0  0  0  0
   19.0249  -20.8680  -12.6602 O   0  0  0  0  0  0  0  0  0  0  0  0
   20.2917  -22.7463  -12.5406 O   0  0  0  0  0  0  0  0  0  0  0  0
  2  1  1  6
  2  6  1  0
  2  3  1  0
  4  3  1  0
  4  5  2  0
  6  7  2  0
  8  4  1  0
 10 11  1  1
 10 12  1  0
 10  9  1  0
 12 13  1  6
 13  6  1  0
 14 12  1  0
 14 15  2  0
 16 14  1  0
 17 16  1  0
 17 28  1  0
 17 18  1  6
 19 18  1  0
 20 19  2  0
 21 22  1  0
 21 20  1  0
 22 27  2  0
 23 24  2  0
 23 22  1  0
 24 25  1  0
 25 26  2  0
 27 26  1  0
 27 19  1  0
 28 29  2  0
 28 30  1  0
M  END
$$$$
