DVW.pdb
     RDKit          3D

 30 31  0  0  1  0  0  0  0  0999 V2000
   18.1526  -15.4175  -16.3248 N   0  0  0  0  0  0  0  0  0  0  0  0
   17.4896  -14.1290  -16.3568 C   0  0  1  0  0  0  0  0  0  0  0  0
   16.4058  -14.0327  -15.3076 C   0  0  0  0  0  0  0  0  0  0  0  0
   15.3516  -15.0383  -15.5206 C   0  0  0  0  0  0  0  0  0  0  0  0
   15.0044  -15.7771  -14.5388 O   0  0  0  0  0  0  0  0  0  0  0  0
   18.4825  -13.0229  -16.2430 C   0  0  0  0  0  0  0  0  0  0  0  0
   19.5666  -13.2100  -15.6364 O   0  0  0  0  0  0  0  0  0  0  0  0
   14.6945  -15.2540  -16.7145 O   0  0  0  0  0  0  0  0  0  0  0  0
   20.3834   -8.9347  -18.0415 C   0  0  0  0  0  0  0  0  0  0  0  0
   19.4087  -10.0856  -18.1171 C   0  0  1  0  0  0  0  0  0  0  0  0
   19.7507  -11.0863  -19.1705 C   0  0  0  0  0  0  0  0  0  0  0  0
   19.2143  -10.7292  -16.7580 C   0  0  2  0  0  0  0  0  0  0  0  0
   18.2164  -11.7489  -16.8167 N   0  0  0  0  0  0  0  0  0  0  0  0
   18.9176   -9.7030  -15.7160 C   0  0  0  0  0  0  0  0  0  0  0  0
   17.7904   -9.1366  -15.6763 O   0  0  0  0  0  0  0  0  0  0  0  0
   19.8604   -9.3084  -14.7285 N   0  0  0  0  0  0  0  0  0  0  0  0
   19.6296   -8.2804  -13.7592 C   0  0  1  0  0  0  0  0  0  0  0  0
   20.6951   -8.1834  -12.6945 C   0  0  0  0  0  0  0  0  0  0  0  0
   20.4240   -7.0946  -11.7302 C   0  0  0  0  0  0  0  0  0  0  0  0
   19.8679   -7.2147  -10.4660 C   0  0  0  0  0  0  0  0  0  0  0  0
   19.7801   -6.0063   -9.8853 N   0  0  0  0  0  0  0  0  0  0  0  0
   20.2641   -5.0693  -10.7274 C   0  0  0  0  0  0  0  0  0  0  0  0
   20.3921   -3.7015  -10.6035 C   0  0  0  0  0  0  0  0  0  0  0  0
   20.9296   -2.9523  -11.6300 C   0  0  0  0  0  0  0  0  0  0  0  0
   21.3253   -3.6290  -12.7658 C   0  0  0  0  0  0  0  0  0  0  0  0
   21.2035   -4.9994  -12.9052 C   0  0  0  0  0  0  0  0  0  0  0  0
   20.6636   -5.7319  -11.8683 C   0  0  0  0  0  0  0  0  0  0  0  0
   19.3777   -6.9550  -14.3878 C   0  0  0  0  0  0  0  0  0  0  0  0
   18.3609   -6.3167  -14.0156 O   0  0  0  0  0  0  0  0  0  0  0  0
   20.2015   -6.4231  -15.3376 O   0  0  0  0  0  0  0  0  0  0  0  0
  2  1  1  1
  2  6  1  0
  2  3  1  0
  4  3  1  0
  4  5  2  0
  6  7  2  0
  8  4  1  0
 10 11  1  6
 10 12  1  0
 10  9  1  0
 12 13  1  6
 13  6  1  0
 14 12  1  0
 14 15  2  0
 16 14  1  0
 17 16  1  0
 17 28  1  0
 17 18  1  1
 19 18  1  0
 20 19  2  0
 21 22  1  0
 21 20  1  0
 22 27  2  0
 23 24  2  0
 23 22  1  0
 24 25  1  0
 25 26  2  0
 27 26  1  0
 27 19  1  0
 28 29  2  0
 28 30  1  0
M  END
$$$$
