DVW.pdb
     RDKit          3D

 30 31  0  0  1  0  0  0  0  0999 V2000
   26.2540  -20.3374  -17.6952 N   0  0  0  0  0  0  0  0  0  0  0  0
   25.4856  -19.2846  -18.3293 C   0  0  1  0  0  0  0  0  0  0  0  0
   24.4243  -19.8442  -19.2487 C   0  0  0  0  0  0  0  0  0  0  0  0
   24.9120  -19.9646  -20.6326 C   0  0  0  0  0  0  0  0  0  0  0  0
   26.1146  -19.6210  -20.8889 O   0  0  0  0  0  0  0  0  0  0  0  0
   24.9150  -18.3608  -17.3078 C   0  0  0  0  0  0  0  0  0  0  0  0
   24.6407  -18.7859  -16.1579 O   0  0  0  0  0  0  0  0  0  0  0  0
   24.1647  -20.4263  -21.6967 O   0  0  0  0  0  0  0  0  0  0  0  0
   24.2577  -14.0968  -15.2662 C   0  0  0  0  0  0  0  0  0  0  0  0
   24.9666  -15.0588  -16.1895 C   0  0  1  0  0  0  0  0  0  0  0  0
   26.2339  -15.6047  -15.6203 C   0  0  0  0  0  0  0  0  0  0  0  0
   24.0317  -16.1558  -16.6604 C   0  0  2  0  0  0  0  0  0  0  0  0
   24.6751  -16.9943  -17.6206 N   0  0  0  0  0  0  0  0  0  0  0  0
   22.7505  -15.5860  -17.1713 C   0  0  0  0  0  0  0  0  0  0  0  0
   22.7444  -14.8181  -18.1730 O   0  0  0  0  0  0  0  0  0  0  0  0
   21.4894  -15.8642  -16.5781 N   0  0  0  0  0  0  0  0  0  0  0  0
   20.2294  -15.5228  -17.1661 C   0  0  1  0  0  0  0  0  0  0  0  0
   19.9981  -16.1291  -18.5289 C   0  0  0  0  0  0  0  0  0  0  0  0
   19.6215  -17.5576  -18.4484 C   0  0  0  0  0  0  0  0  0  0  0  0
   18.4951  -18.0939  -17.8439 C   0  0  0  0  0  0  0  0  0  0  0  0
   18.4938  -19.4308  -17.9772 N   0  0  0  0  0  0  0  0  0  0  0  0
   19.5943  -19.8132  -18.6585 C   0  0  0  0  0  0  0  0  0  0  0  0
   20.0475  -21.0565  -19.0474 C   0  0  0  0  0  0  0  0  0  0  0  0
   21.2284  -21.1836  -19.7497 C   0  0  0  0  0  0  0  0  0  0  0  0
   21.9199  -20.0246  -20.0378 C   0  0  0  0  0  0  0  0  0  0  0  0
   21.4789  -18.7711  -19.6549 C   0  0  0  0  0  0  0  0  0  0  0  0
   20.2958  -18.6638  -18.9532 C   0  0  0  0  0  0  0  0  0  0  0  0
   19.0855  -15.7994  -16.2551 C   0  0  0  0  0  0  0  0  0  0  0  0
   17.9477  -15.3993  -16.6092 O   0  0  0  0  0  0  0  0  0  0  0  0
   19.2324  -16.4613  -15.0702 O   0  0  0  0  0  0  0  0  0  0  0  0
  2  1  1  1
  2  6  1  0
  2  3  1  0
  4  3  1  0
  4  5  2  0
  6  7  2  0
  8  4  1  0
 10 11  1  1
 10 12  1  0
 10  9  1  0
 12 13  1  6
 13  6  1  0
 14 12  1  0
 14 15  2  0
 16 14  1  0
 17 16  1  0
 17 28  1  0
 17 18  1  6
 19 18  1  0
 20 19  2  0
 21 22  1  0
 21 20  1  0
 22 27  2  0
 23 24  2  0
 23 22  1  0
 24 25  1  0
 25 26  2  0
 27 26  1  0
 27 19  1  0
 28 29  2  0
 28 30  1  0
M  END
$$$$
