DVW.pdb
     RDKit          3D

 30 31  0  0  1  0  0  0  0  0999 V2000
   18.4637  -15.8115  -17.6550 N   0  0  0  0  0  0  0  0  0  0  0  0
   17.7824  -14.5629  -17.3764 C   0  0  1  0  0  0  0  0  0  0  0  0
   16.7593  -14.7189  -16.2748 C   0  0  0  0  0  0  0  0  0  0  0  0
   15.7200  -15.6986  -16.6324 C   0  0  0  0  0  0  0  0  0  0  0  0
   15.3574  -16.5526  -15.7554 O   0  0  0  0  0  0  0  0  0  0  0  0
   18.7650  -13.4809  -17.0825 C   0  0  0  0  0  0  0  0  0  0  0  0
   19.8873  -13.7652  -16.5948 O   0  0  0  0  0  0  0  0  0  0  0  0
   15.0926  -15.7733  -17.8591 O   0  0  0  0  0  0  0  0  0  0  0  0
   20.2841  -11.1421  -19.4760 C   0  0  0  0  0  0  0  0  0  0  0  0
   19.6619  -10.2989  -18.3887 C   0  0  1  0  0  0  0  0  0  0  0  0
   18.4306   -9.5778  -18.8268 C   0  0  0  0  0  0  0  0  0  0  0  0
   19.4317  -11.1113  -17.1294 C   0  0  2  0  0  0  0  0  0  0  0  0
   18.4458  -12.1208  -17.3490 N   0  0  0  0  0  0  0  0  0  0  0  0
   19.0930  -10.2278  -15.9754 C   0  0  0  0  0  0  0  0  0  0  0  0
   17.8887  -10.0043  -15.6706 O   0  0  0  0  0  0  0  0  0  0  0  0
   20.0786   -9.5983  -15.1679 N   0  0  0  0  0  0  0  0  0  0  0  0
   19.7876   -8.6639  -14.1229 C   0  0  1  0  0  0  0  0  0  0  0  0
   20.8681   -8.5515  -13.0750 C   0  0  0  0  0  0  0  0  0  0  0  0
   20.5633   -7.5118  -12.0675 C   0  0  0  0  0  0  0  0  0  0  0  0
   19.9527   -7.6924  -10.8361 C   0  0  0  0  0  0  0  0  0  0  0  0
   19.8483   -6.5151  -10.1972 N   0  0  0  0  0  0  0  0  0  0  0  0
   20.3743   -5.5400  -10.9679 C   0  0  0  0  0  0  0  0  0  0  0  0
   20.5061   -4.1817  -10.7673 C   0  0  0  0  0  0  0  0  0  0  0  0
   21.0921   -3.3851  -11.7295 C   0  0  0  0  0  0  0  0  0  0  0  0
   21.5315   -4.0054  -12.8813 C   0  0  0  0  0  0  0  0  0  0  0  0
   21.4066   -5.3656  -13.0973 C   0  0  0  0  0  0  0  0  0  0  0  0
   20.8178   -6.1460  -12.1238 C   0  0  0  0  0  0  0  0  0  0  0  0
   19.4102   -7.3241  -14.6497 C   0  0  0  0  0  0  0  0  0  0  0  0
   20.0857   -6.8606  -15.6030 O   0  0  0  0  0  0  0  0  0  0  0  0
   18.3731   -6.5983  -14.1384 O   0  0  0  0  0  0  0  0  0  0  0  0
  2  1  1  1
  2  6  1  0
  2  3  1  0
  4  3  1  0
  4  5  2  0
  6  7  2  0
  8  4  1  0
 10 11  1  6
 10 12  1  0
 10  9  1  0
 12 13  1  6
 13  6  1  0
 14 12  1  0
 14 15  2  0
 16 14  1  0
 17 16  1  0
 17 28  1  0
 17 18  1  1
 19 18  1  0
 20 19  2  0
 21 22  1  0
 21 20  1  0
 22 27  2  0
 23 24  2  0
 23 22  1  0
 24 25  1  0
 25 26  2  0
 27 26  1  0
 27 19  1  0
 28 29  2  0
 28 30  1  0
M  END
$$$$
