DVW.pdb
     RDKit          3D

 30 31  0  0  1  0  0  0  0  0999 V2000
   28.0129  -22.3661  -15.8585 N   0  0  0  0  0  0  0  0  0  0  0  0
   28.1560  -20.9290  -15.7353 C   0  0  1  0  0  0  0  0  0  0  0  0
   28.0604  -20.2413  -17.0779 C   0  0  0  0  0  0  0  0  0  0  0  0
   28.9468  -20.8662  -18.0735 C   0  0  0  0  0  0  0  0  0  0  0  0
   28.6547  -22.0314  -18.5061 O   0  0  0  0  0  0  0  0  0  0  0  0
   27.1756  -20.3844  -14.7531 C   0  0  0  0  0  0  0  0  0  0  0  0
   27.0467  -19.1424  -14.6148 O   0  0  0  0  0  0  0  0  0  0  0  0
   30.0888  -20.2880  -18.5887 O   0  0  0  0  0  0  0  0  0  0  0  0
   22.9137  -20.5306  -12.7096 C   0  0  0  0  0  0  0  0  0  0  0  0
   23.9875  -20.9815  -13.6709 C   0  0  1  0  0  0  0  0  0  0  0  0
   23.8215  -20.4311  -15.0484 C   0  0  0  0  0  0  0  0  0  0  0  0
   25.3711  -20.7150  -13.1111 C   0  0  2  0  0  0  0  0  0  0  0  0
   26.3782  -21.2593  -13.9647 N   0  0  0  0  0  0  0  0  0  0  0  0
   25.4868  -21.2104  -11.7081 C   0  0  0  0  0  0  0  0  0  0  0  0
   25.5488  -22.4480  -11.4680 O   0  0  0  0  0  0  0  0  0  0  0  0
   25.5329  -20.3433  -10.5831 N   0  0  0  0  0  0  0  0  0  0  0  0
   25.5511  -20.7888   -9.2225 C   0  0  1  0  0  0  0  0  0  0  0  0
   26.1510  -19.7978   -8.2550 C   0  0  0  0  0  0  0  0  0  0  0  0
   27.4915  -20.2144   -7.7877 C   0  0  0  0  0  0  0  0  0  0  0  0
   28.3769  -21.0635   -8.4333 C   0  0  0  0  0  0  0  0  0  0  0  0
   29.4962  -21.2027   -7.7033 N   0  0  0  0  0  0  0  0  0  0  0  0
   29.3896  -20.4670   -6.5769 C   0  0  0  0  0  0  0  0  0  0  0  0
   30.2543  -20.2768   -5.5191 C   0  0  0  0  0  0  0  0  0  0  0  0
   29.9027  -19.4585   -4.4653 C   0  0  0  0  0  0  0  0  0  0  0  0
   28.6648  -18.8513   -4.5227 C   0  0  0  0  0  0  0  0  0  0  0  0
   27.7869  -19.0319   -5.5758 C   0  0  0  0  0  0  0  0  0  0  0  0
   28.1558  -19.8539   -6.6206 C   0  0  0  0  0  0  0  0  0  0  0  0
   24.2136  -21.2483   -8.7589 C   0  0  0  0  0  0  0  0  0  0  0  0
   23.2037  -20.8116   -9.3668 O   0  0  0  0  0  0  0  0  0  0  0  0
   24.0543  -22.1123   -7.7140 O   0  0  0  0  0  0  0  0  0  0  0  0
  2  1  1  6
  2  6  1  0
  2  3  1  0
  4  3  1  0
  4  5  2  0
  6  7  2  0
  8  4  1  0
 10 11  1  6
 10 12  1  0
 10  9  1  0
 12 13  1  6
 13  6  1  0
 14 12  1  0
 14 15  2  0
 16 14  1  0
 17 16  1  0
 17 28  1  0
 17 18  1  1
 19 18  1  0
 20 19  2  0
 21 22  1  0
 21 20  1  0
 22 27  2  0
 23 24  2  0
 23 22  1  0
 24 25  1  0
 25 26  2  0
 27 26  1  0
 27 19  1  0
 28 29  2  0
 28 30  1  0
M  END
$$$$
