DVW.pdb
     RDKit          3D

 30 31  0  0  1  0  0  0  0  0999 V2000
   23.4181  -19.5171  -15.6107 N   0  0  0  0  0  0  0  0  0  0  0  0
   23.8805  -18.9269  -14.3702 C   0  0  1  0  0  0  0  0  0  0  0  0
   22.7329  -18.3914  -13.5449 C   0  0  0  0  0  0  0  0  0  0  0  0
   21.9307  -17.4136  -14.2987 C   0  0  0  0  0  0  0  0  0  0  0  0
   20.6870  -17.3070  -14.0305 O   0  0  0  0  0  0  0  0  0  0  0  0
   24.7188  -19.8948  -13.6068 C   0  0  0  0  0  0  0  0  0  0  0  0
   24.2508  -21.0151  -13.2839 O   0  0  0  0  0  0  0  0  0  0  0  0
   22.4188  -16.5866  -15.2895 O   0  0  0  0  0  0  0  0  0  0  0  0
   29.0655  -21.4856  -12.0765 C   0  0  0  0  0  0  0  0  0  0  0  0
   28.2696  -20.4669  -12.8571 C   0  0  1  0  0  0  0  0  0  0  0  0
   28.4405  -20.5847  -14.3353 C   0  0  0  0  0  0  0  0  0  0  0  0
   26.8100  -20.4807  -12.4469 C   0  0  2  0  0  0  0  0  0  0  0  0
   26.0516  -19.5640  -13.2365 N   0  0  0  0  0  0  0  0  0  0  0  0
   26.6615  -20.2284  -10.9836 C   0  0  0  0  0  0  0  0  0  0  0  0
   27.3336  -19.3222  -10.4176 O   0  0  0  0  0  0  0  0  0  0  0  0
   25.7778  -20.9726  -10.1562 N   0  0  0  0  0  0  0  0  0  0  0  0
   25.7530  -20.8930   -8.7269 C   0  0  1  0  0  0  0  0  0  0  0  0
   25.6551  -19.4868   -8.1871 C   0  0  0  0  0  0  0  0  0  0  0  0
   26.8630  -19.0942   -7.4283 C   0  0  0  0  0  0  0  0  0  0  0  0
   27.7689  -18.0965   -7.7537 C   0  0  0  0  0  0  0  0  0  0  0  0
   28.7356  -18.0314   -6.8229 N   0  0  0  0  0  0  0  0  0  0  0  0
   28.5056  -18.9627   -5.8736 C   0  0  0  0  0  0  0  0  0  0  0  0
   29.1959  -19.2944   -4.7264 C   0  0  0  0  0  0  0  0  0  0  0  0
   28.7447  -20.3074   -3.9054 C   0  0  0  0  0  0  0  0  0  0  0  0
   27.5888  -20.9596   -4.2837 C   0  0  0  0  0  0  0  0  0  0  0  0
   26.8856  -20.6389   -5.4305 C   0  0  0  0  0  0  0  0  0  0  0  0
   27.3522  -19.6231   -6.2391 C   0  0  0  0  0  0  0  0  0  0  0  0
   24.7107  -21.7708   -8.1284 C   0  0  0  0  0  0  0  0  0  0  0  0
   23.8389  -22.2489   -8.8974 O   0  0  0  0  0  0  0  0  0  0  0  0
   24.6742  -22.0659   -6.7960 O   0  0  0  0  0  0  0  0  0  0  0  0
  2  1  1  6
  2  6  1  0
  2  3  1  0
  4  3  1  0
  4  5  2  0
  6  7  2  0
  8  4  1  0
 10 11  1  6
 10 12  1  0
 10  9  1  0
 12 13  1  6
 13  6  1  0
 14 12  1  0
 14 15  2  0
 16 14  1  0
 17 16  1  0
 17 28  1  0
 17 18  1  6
 19 18  1  0
 20 19  2  0
 21 22  1  0
 21 20  1  0
 22 27  2  0
 23 24  2  0
 23 22  1  0
 24 25  1  0
 25 26  2  0
 27 26  1  0
 27 19  1  0
 28 29  2  0
 28 30  1  0
M  END
$$$$
