DVW.pdb
     RDKit          3D

 30 31  0  0  1  0  0  0  0  0999 V2000
   29.3867  -22.6037  -17.5111 N   0  0  0  0  0  0  0  0  0  0  0  0
   28.1156  -22.4704  -16.8275 C   0  0  1  0  0  0  0  0  0  0  0  0
   27.4892  -23.8169  -16.5460 C   0  0  0  0  0  0  0  0  0  0  0  0
   26.8362  -24.3738  -17.7423 C   0  0  0  0  0  0  0  0  0  0  0  0
   26.8311  -23.6805  -18.8144 O   0  0  0  0  0  0  0  0  0  0  0  0
   28.2658  -21.6503  -15.5916 C   0  0  0  0  0  0  0  0  0  0  0  0
   29.3672  -21.6169  -14.9882 O   0  0  0  0  0  0  0  0  0  0  0  0
   26.2173  -25.6055  -17.8040 O   0  0  0  0  0  0  0  0  0  0  0  0
   27.0593  -17.8607  -12.8787 C   0  0  0  0  0  0  0  0  0  0  0  0
   27.0252  -18.6633  -14.1574 C   0  0  1  0  0  0  0  0  0  0  0  0
   27.8742  -18.0891  -15.2426 C   0  0  0  0  0  0  0  0  0  0  0  0
   27.3401  -20.1233  -13.8966 C   0  0  2  0  0  0  0  0  0  0  0  0
   27.1700  -20.8997  -15.0828 N   0  0  0  0  0  0  0  0  0  0  0  0
   26.5379  -20.6492  -12.7533 C   0  0  0  0  0  0  0  0  0  0  0  0
   25.3304  -20.9790  -12.9152 O   0  0  0  0  0  0  0  0  0  0  0  0
   27.0683  -20.8075  -11.4444 N   0  0  0  0  0  0  0  0  0  0  0  0
   26.3503  -21.3846  -10.3483 C   0  0  1  0  0  0  0  0  0  0  0  0
   27.2163  -21.7591   -9.1702 C   0  0  0  0  0  0  0  0  0  0  0  0
   27.2915  -20.6759   -8.1652 C   0  0  0  0  0  0  0  0  0  0  0  0
   26.6388  -19.4534   -8.2012 C   0  0  0  0  0  0  0  0  0  0  0  0
   26.9506  -18.7331   -7.1108 N   0  0  0  0  0  0  0  0  0  0  0  0
   27.8004  -19.4397   -6.3362 C   0  0  0  0  0  0  0  0  0  0  0  0
   28.4045  -19.1462   -5.1313 C   0  0  0  0  0  0  0  0  0  0  0  0
   29.2502  -20.0566   -4.5316 C   0  0  0  0  0  0  0  0  0  0  0  0
   29.4568  -21.2536   -5.1865 C   0  0  0  0  0  0  0  0  0  0  0  0
   28.8588  -21.5627   -6.3945 C   0  0  0  0  0  0  0  0  0  0  0  0
   28.0162  -20.6398   -6.9792 C   0  0  0  0  0  0  0  0  0  0  0  0
   25.1978  -20.5454   -9.9213 C   0  0  0  0  0  0  0  0  0  0  0  0
   25.2686  -19.3078  -10.1292 O   0  0  0  0  0  0  0  0  0  0  0  0
   24.0885  -21.0694   -9.3223 O   0  0  0  0  0  0  0  0  0  0  0  0
  2  1  1  1
  2  6  1  0
  2  3  1  0
  4  3  1  0
  4  5  2  0
  6  7  2  0
  8  4  1  0
 10 11  1  6
 10 12  1  0
 10  9  1  0
 12 13  1  6
 13  6  1  0
 14 12  1  0
 14 15  2  0
 16 14  1  0
 17 16  1  0
 17 28  1  0
 17 18  1  1
 19 18  1  0
 20 19  2  0
 21 22  1  0
 21 20  1  0
 22 27  2  0
 23 24  2  0
 23 22  1  0
 24 25  1  0
 25 26  2  0
 27 26  1  0
 27 19  1  0
 28 29  2  0
 28 30  1  0
M  END
$$$$
