DVW.pdb
     RDKit          3D

 30 31  0  0  1  0  0  0  0  0999 V2000
   28.3918  -23.3844  -17.5865 N   0  0  0  0  0  0  0  0  0  0  0  0
   27.2439  -23.0443  -16.7694 C   0  0  1  0  0  0  0  0  0  0  0  0
   26.5308  -24.2787  -16.2670 C   0  0  0  0  0  0  0  0  0  0  0  0
   25.9176  -25.0390  -17.3687 C   0  0  0  0  0  0  0  0  0  0  0  0
   25.2920  -26.1172  -17.0931 O   0  0  0  0  0  0  0  0  0  0  0  0
   27.6397  -22.1320  -15.6588 C   0  0  0  0  0  0  0  0  0  0  0  0
   28.7923  -22.2053  -15.1643 O   0  0  0  0  0  0  0  0  0  0  0  0
   25.9628  -24.6777  -18.6996 O   0  0  0  0  0  0  0  0  0  0  0  0
   27.0082  -17.9678  -13.2185 C   0  0  0  0  0  0  0  0  0  0  0  0
   26.7978  -18.8618  -14.4171 C   0  0  1  0  0  0  0  0  0  0  0  0
   27.5020  -18.3864  -15.6444 C   0  0  0  0  0  0  0  0  0  0  0  0
   27.1299  -20.3046  -14.0897 C   0  0  2  0  0  0  0  0  0  0  0  0
   26.7225  -21.1726  -15.1478 N   0  0  0  0  0  0  0  0  0  0  0  0
   26.5509  -20.7028  -12.7732 C   0  0  0  0  0  0  0  0  0  0  0  0
   25.3129  -20.9195  -12.6562 O   0  0  0  0  0  0  0  0  0  0  0  0
   27.3355  -20.8589  -11.5986 N   0  0  0  0  0  0  0  0  0  0  0  0
   26.7965  -21.1225  -10.2986 C   0  0  1  0  0  0  0  0  0  0  0  0
   27.8221  -21.1178   -9.1911 C   0  0  0  0  0  0  0  0  0  0  0  0
   27.2249  -20.7894   -7.8780 C   0  0  0  0  0  0  0  0  0  0  0  0
   25.9216  -21.0246   -7.4683 C   0  0  0  0  0  0  0  0  0  0  0  0
   25.7502  -20.5917   -6.2080 N   0  0  0  0  0  0  0  0  0  0  0  0
   26.9081  -20.0679   -5.7538 C   0  0  0  0  0  0  0  0  0  0  0  0
   27.2465  -19.4999   -4.5432 C   0  0  0  0  0  0  0  0  0  0  0  0
   28.5248  -19.0295   -4.3232 C   0  0  0  0  0  0  0  0  0  0  0  0
   29.4306  -19.1540   -5.3569 C   0  0  0  0  0  0  0  0  0  0  0  0
   29.1067  -19.7209   -6.5760 C   0  0  0  0  0  0  0  0  0  0  0  0
   27.8235  -20.1857   -6.7777 C   0  0  0  0  0  0  0  0  0  0  0  0
   25.6487  -20.2339   -9.9702 C   0  0  0  0  0  0  0  0  0  0  0  0
   25.7903  -19.0007  -10.1683 O   0  0  0  0  0  0  0  0  0  0  0  0
   24.4706  -20.7089   -9.4700 O   0  0  0  0  0  0  0  0  0  0  0  0
  2  1  1  1
  2  6  1  0
  2  3  1  0
  4  3  1  0
  4  5  2  0
  6  7  2  0
  8  4  1  0
 10 11  1  6
 10 12  1  0
 10  9  1  0
 12 13  1  6
 13  6  1  0
 14 12  1  0
 14 15  2  0
 16 14  1  0
 17 16  1  0
 17 28  1  0
 17 18  1  1
 19 18  1  0
 20 19  2  0
 21 22  1  0
 21 20  1  0
 22 27  2  0
 23 24  2  0
 23 22  1  0
 24 25  1  0
 25 26  2  0
 27 26  1  0
 27 19  1  0
 28 29  2  0
 28 30  1  0
M  END
$$$$
