DVW.pdb
     RDKit          3D

 30 31  0  0  1  0  0  0  0  0999 V2000
   25.0151  -26.6001  -16.4875 N   0  0  0  0  0  0  0  0  0  0  0  0
   24.2367  -25.5299  -15.8962 C   0  0  1  0  0  0  0  0  0  0  0  0
   23.0377  -26.0611  -15.1446 C   0  0  0  0  0  0  0  0  0  0  0  0
   21.7887  -25.4225  -15.5916 C   0  0  0  0  0  0  0  0  0  0  0  0
   21.5949  -25.2694  -16.8442 O   0  0  0  0  0  0  0  0  0  0  0  0
   25.0972  -24.6626  -15.0419 C   0  0  0  0  0  0  0  0  0  0  0  0
   25.8944  -25.1805  -14.2206 O   0  0  0  0  0  0  0  0  0  0  0  0
   20.7906  -24.9666  -14.7551 O   0  0  0  0  0  0  0  0  0  0  0  0
   27.2192  -20.4286  -13.9758 C   0  0  0  0  0  0  0  0  0  0  0  0
   26.5472  -21.3673  -14.9493 C   0  0  1  0  0  0  0  0  0  0  0  0
   27.4823  -21.9470  -15.9581 C   0  0  0  0  0  0  0  0  0  0  0  0
   25.7556  -22.4365  -14.2219 C   0  0  2  0  0  0  0  0  0  0  0  0
   25.0269  -23.2459  -15.1454 N   0  0  0  0  0  0  0  0  0  0  0  0
   24.8766  -21.8353  -13.1765 C   0  0  0  0  0  0  0  0  0  0  0  0
   23.8059  -21.2493  -13.4982 O   0  0  0  0  0  0  0  0  0  0  0  0
   25.1811  -21.8825  -11.7892 N   0  0  0  0  0  0  0  0  0  0  0  0
   24.4014  -21.2462  -10.7708 C   0  0  1  0  0  0  0  0  0  0  0  0
   24.9093  -21.4766   -9.3683 C   0  0  0  0  0  0  0  0  0  0  0  0
   26.2837  -20.9624   -9.1802 C   0  0  0  0  0  0  0  0  0  0  0  0
   27.2976  -20.9173  -10.1246 C   0  0  0  0  0  0  0  0  0  0  0  0
   28.4048  -20.3799   -9.5858 N   0  0  0  0  0  0  0  0  0  0  0  0
   28.1646  -20.0596   -8.2969 C   0  0  0  0  0  0  0  0  0  0  0  0
   28.9647  -19.4915   -7.3275 C   0  0  0  0  0  0  0  0  0  0  0  0
   28.4726  -19.2621   -6.0590 C   0  0  0  0  0  0  0  0  0  0  0  0
   27.1633  -19.6233   -5.8144 C   0  0  0  0  0  0  0  0  0  0  0  0
   26.3487  -20.1937   -6.7754 C   0  0  0  0  0  0  0  0  0  0  0  0
   26.8583  -20.4156   -8.0381 C   0  0  0  0  0  0  0  0  0  0  0  0
   24.1981  -19.7959  -11.0360 C   0  0  0  0  0  0  0  0  0  0  0  0
   25.0584  -19.2048  -11.7364 O   0  0  0  0  0  0  0  0  0  0  0  0
   23.1268  -19.1027  -10.5508 O   0  0  0  0  0  0  0  0  0  0  0  0
  2  1  1  1
  2  6  1  0
  2  3  1  0
  4  3  1  0
  4  5  2  0
  6  7  2  0
  8  4  1  0
 10 11  1  1
 10 12  1  0
 10  9  1  0
 12 13  1  6
 13  6  1  0
 14 12  1  0
 14 15  2  0
 16 14  1  0
 17 16  1  0
 17 28  1  0
 17 18  1  1
 19 18  1  0
 20 19  2  0
 21 22  1  0
 21 20  1  0
 22 27  2  0
 23 24  2  0
 23 22  1  0
 24 25  1  0
 25 26  2  0
 27 26  1  0
 27 19  1  0
 28 29  2  0
 28 30  1  0
M  END
$$$$
