DVW.pdb
     RDKit          3D

 30 31  0  0  1  0  0  0  0  0999 V2000
   27.5859  -19.6074  -18.5167 N   0  0  0  0  0  0  0  0  0  0  0  0
   27.5202  -20.4826  -17.3631 C   0  0  1  0  0  0  0  0  0  0  0  0
   28.8951  -20.7844  -16.8124 C   0  0  0  0  0  0  0  0  0  0  0  0
   29.6538  -21.6780  -17.7032 C   0  0  0  0  0  0  0  0  0  0  0  0
   29.1315  -22.0174  -18.8177 O   0  0  0  0  0  0  0  0  0  0  0  0
   26.6099  -19.9191  -16.3258 C   0  0  0  0  0  0  0  0  0  0  0  0
   26.7567  -18.7339  -15.9359 O   0  0  0  0  0  0  0  0  0  0  0  0
   30.9058  -22.1897  -17.4301 O   0  0  0  0  0  0  0  0  0  0  0  0
   22.2467  -19.6630  -14.3743 C   0  0  0  0  0  0  0  0  0  0  0  0
   23.2544  -20.0809  -15.4184 C   0  0  1  0  0  0  0  0  0  0  0  0
   23.1843  -19.2708  -16.6702 C   0  0  0  0  0  0  0  0  0  0  0  0
   24.6560  -20.1224  -14.8416 C   0  0  2  0  0  0  0  0  0  0  0  0
   25.5694  -20.7120  -15.7674 N   0  0  0  0  0  0  0  0  0  0  0  0
   24.6703  -20.8066  -13.5154 C   0  0  0  0  0  0  0  0  0  0  0  0
   24.5428  -22.0600  -13.4390 O   0  0  0  0  0  0  0  0  0  0  0  0
   24.8238  -20.1091  -12.2868 N   0  0  0  0  0  0  0  0  0  0  0  0
   24.6955  -20.7137  -10.9953 C   0  0  1  0  0  0  0  0  0  0  0  0
   25.3088  -19.9118   -9.8732 C   0  0  0  0  0  0  0  0  0  0  0  0
   26.7136  -20.2969   -9.6142 C   0  0  0  0  0  0  0  0  0  0  0  0
   27.5295  -21.0784  -10.4175 C   0  0  0  0  0  0  0  0  0  0  0  0
   28.7422  -21.2079   -9.8540 N   0  0  0  0  0  0  0  0  0  0  0  0
   28.7670  -20.5318   -8.6862 C   0  0  0  0  0  0  0  0  0  0  0  0
   29.7619  -20.3583   -7.7466 C   0  0  0  0  0  0  0  0  0  0  0  0
   29.5314  -19.6059   -6.6132 C   0  0  0  0  0  0  0  0  0  0  0  0
   28.2781  -19.0461   -6.4704 C   0  0  0  0  0  0  0  0  0  0  0  0
   27.2706  -19.2108   -7.4032 C   0  0  0  0  0  0  0  0  0  0  0  0
   27.5194  -19.9666   -8.5303 C   0  0  0  0  0  0  0  0  0  0  0  0
   23.2894  -21.0867  -10.6814 C   0  0  0  0  0  0  0  0  0  0  0  0
   22.3794  -20.3121  -11.0712 O   0  0  0  0  0  0  0  0  0  0  0  0
   22.9652  -22.2222   -9.9964 O   0  0  0  0  0  0  0  0  0  0  0  0
  2  1  1  6
  2  6  1  0
  2  3  1  0
  4  3  1  0
  4  5  2  0
  6  7  2  0
  8  4  1  0
 10 11  1  6
 10 12  1  0
 10  9  1  0
 12 13  1  6
 13  6  1  0
 14 12  1  0
 14 15  2  0
 16 14  1  0
 17 16  1  0
 17 28  1  0
 17 18  1  1
 19 18  1  0
 20 19  2  0
 21 22  1  0
 21 20  1  0
 22 27  2  0
 23 24  2  0
 23 22  1  0
 24 25  1  0
 25 26  2  0
 27 26  1  0
 27 19  1  0
 28 29  2  0
 28 30  1  0
M  END
$$$$
