DVW.pdb
     RDKit          3D

 30 31  0  0  1  0  0  0  0  0999 V2000
   25.8544  -17.8748  -16.3980 N   0  0  0  0  0  0  0  0  0  0  0  0
   26.5000  -18.8699  -15.5650 C   0  0  1  0  0  0  0  0  0  0  0  0
   27.9932  -18.6486  -15.4865 C   0  0  0  0  0  0  0  0  0  0  0  0
   28.6300  -18.7606  -16.8092 C   0  0  0  0  0  0  0  0  0  0  0  0
   27.8911  -18.9826  -17.8264 O   0  0  0  0  0  0  0  0  0  0  0  0
   25.8668  -18.9188  -14.2163 C   0  0  0  0  0  0  0  0  0  0  0  0
   25.7011  -17.8606  -13.5598 O   0  0  0  0  0  0  0  0  0  0  0  0
   29.9841  -18.6436  -17.0471 O   0  0  0  0  0  0  0  0  0  0  0  0
   22.8026  -20.9020  -11.0954 C   0  0  0  0  0  0  0  0  0  0  0  0
   23.4176  -20.7458  -12.4657 C   0  0  1  0  0  0  0  0  0  0  0  0
   22.5586  -19.9839  -13.4196 C   0  0  0  0  0  0  0  0  0  0  0  0
   24.8189  -20.1738  -12.3755 C   0  0  2  0  0  0  0  0  0  0  0  0
   25.4447  -20.1574  -13.6589 N   0  0  0  0  0  0  0  0  0  0  0  0
   25.6308  -20.9016  -11.3566 C   0  0  0  0  0  0  0  0  0  0  0  0
   26.4957  -21.7494  -11.7121 O   0  0  0  0  0  0  0  0  0  0  0  0
   25.4855  -20.6923   -9.9585 N   0  0  0  0  0  0  0  0  0  0  0  0
   26.2176  -21.4064   -8.9564 C   0  0  1  0  0  0  0  0  0  0  0  0
   27.6536  -20.9659   -8.8076 C   0  0  0  0  0  0  0  0  0  0  0  0
   27.8055  -19.8827   -7.8115 C   0  0  0  0  0  0  0  0  0  0  0  0
   27.2699  -18.6056   -7.8748 C   0  0  0  0  0  0  0  0  0  0  0  0
   27.6217  -17.9045   -6.7840 N   0  0  0  0  0  0  0  0  0  0  0  0
   28.3840  -18.6776   -5.9823 C   0  0  0  0  0  0  0  0  0  0  0  0
   28.9845  -18.4271   -4.7660 C   0  0  0  0  0  0  0  0  0  0  0  0
   29.7279  -19.4048   -4.1374 C   0  0  0  0  0  0  0  0  0  0  0  0
   29.8379  -20.6233   -4.7757 C   0  0  0  0  0  0  0  0  0  0  0  0
   29.2421  -20.8898   -5.9949 C   0  0  0  0  0  0  0  0  0  0  0  0
   28.5026  -19.8999   -6.6085 C   0  0  0  0  0  0  0  0  0  0  0  0
   25.5198  -21.4129   -7.6418 C   0  0  0  0  0  0  0  0  0  0  0  0
   24.6029  -20.5717   -7.4639 O   0  0  0  0  0  0  0  0  0  0  0  0
   25.8399  -22.2876   -6.6437 O   0  0  0  0  0  0  0  0  0  0  0  0
  2  1  1  6
  2  6  1  0
  2  3  1  0
  4  3  1  0
  4  5  2  0
  6  7  2  0
  8  4  1  0
 10 11  1  6
 10 12  1  0
 10  9  1  0
 12 13  1  6
 13  6  1  0
 14 12  1  0
 14 15  2  0
 16 14  1  0
 17 16  1  0
 17 28  1  0
 17 18  1  1
 19 18  1  0
 20 19  2  0
 21 22  1  0
 21 20  1  0
 22 27  2  0
 23 24  2  0
 23 22  1  0
 24 25  1  0
 25 26  2  0
 27 26  1  0
 27 19  1  0
 28 29  2  0
 28 30  1  0
M  END
$$$$
