DVW.pdb
     RDKit          3D

 30 31  0  0  1  0  0  0  0  0999 V2000
   24.2643  -18.6650  -17.1928 N   0  0  0  0  0  0  0  0  0  0  0  0
   24.6008  -18.3388  -15.8212 C   0  0  1  0  0  0  0  0  0  0  0  0
   23.3839  -17.9067  -15.0355 C   0  0  0  0  0  0  0  0  0  0  0  0
   22.8167  -16.6522  -15.5574 C   0  0  0  0  0  0  0  0  0  0  0  0
   21.9513  -16.0328  -14.8521 O   0  0  0  0  0  0  0  0  0  0  0  0
   25.3169  -19.4729  -15.1706 C   0  0  0  0  0  0  0  0  0  0  0  0
   24.8213  -20.6270  -15.1942 O   0  0  0  0  0  0  0  0  0  0  0  0
   23.1478  -16.0782  -16.7676 O   0  0  0  0  0  0  0  0  0  0  0  0
   29.3023  -21.5092  -13.2633 C   0  0  0  0  0  0  0  0  0  0  0  0
   28.6416  -20.4417  -14.1027 C   0  0  1  0  0  0  0  0  0  0  0  0
   28.8956  -20.5937  -15.5657 C   0  0  0  0  0  0  0  0  0  0  0  0
   27.1625  -20.3337  -13.7869 C   0  0  2  0  0  0  0  0  0  0  0  0
   26.5635  -19.2637  -14.5184 N   0  0  0  0  0  0  0  0  0  0  0  0
   26.9351  -20.2143  -12.3168 C   0  0  0  0  0  0  0  0  0  0  0  0
   27.1404  -19.1196  -11.7230 O   0  0  0  0  0  0  0  0  0  0  0  0
   26.4853  -21.2967  -11.5133 N   0  0  0  0  0  0  0  0  0  0  0  0
   26.3192  -21.2312  -10.0928 C   0  0  1  0  0  0  0  0  0  0  0  0
   27.4848  -20.6106   -9.3616 C   0  0  0  0  0  0  0  0  0  0  0  0
   27.1314  -20.2153   -7.9803 C   0  0  0  0  0  0  0  0  0  0  0  0
   25.8635  -19.9629   -7.4799 C   0  0  0  0  0  0  0  0  0  0  0  0
   25.9392  -19.6334   -6.1796 N   0  0  0  0  0  0  0  0  0  0  0  0
   27.2302  -19.6566   -5.7870 C   0  0  0  0  0  0  0  0  0  0  0  0
   27.8244  -19.3983   -4.5693 C   0  0  0  0  0  0  0  0  0  0  0  0
   29.1932  -19.4926   -4.4236 C   0  0  0  0  0  0  0  0  0  0  0  0
   29.9238  -19.8521   -5.5379 C   0  0  0  0  0  0  0  0  0  0  0  0
   29.3430  -20.1142   -6.7652 C   0  0  0  0  0  0  0  0  0  0  0  0
   27.9728  -20.0147   -6.8917 C   0  0  0  0  0  0  0  0  0  0  0  0
   25.0361  -20.5866   -9.7014 C   0  0  0  0  0  0  0  0  0  0  0  0
   24.6947  -19.5455  -10.3174 O   0  0  0  0  0  0  0  0  0  0  0  0
   24.2355  -21.0824   -8.7131 O   0  0  0  0  0  0  0  0  0  0  0  0
  2  1  1  6
  2  6  1  0
  2  3  1  0
  4  3  1  0
  4  5  2  0
  6  7  2  0
  8  4  1  0
 10 11  1  6
 10 12  1  0
 10  9  1  0
 12 13  1  6
 13  6  1  0
 14 12  1  0
 14 15  2  0
 16 14  1  0
 17 16  1  0
 17 28  1  0
 17 18  1  1
 19 18  1  0
 20 19  2  0
 21 22  1  0
 21 20  1  0
 22 27  2  0
 23 24  2  0
 23 22  1  0
 24 25  1  0
 25 26  2  0
 27 26  1  0
 27 19  1  0
 28 29  2  0
 28 30  1  0
M  END
$$$$
