DVW.pdb
     RDKit          3D

 30 31  0  0  1  0  0  0  0  0999 V2000
   17.0309  -26.7913  -11.7233 N   0  0  0  0  0  0  0  0  0  0  0  0
   17.7553  -26.6498  -10.4759 C   0  0  1  0  0  0  0  0  0  0  0  0
   17.8855  -25.2004  -10.0673 C   0  0  0  0  0  0  0  0  0  0  0  0
   18.7587  -24.4523  -10.9868 C   0  0  0  0  0  0  0  0  0  0  0  0
   19.2596  -25.0654  -11.9885 O   0  0  0  0  0  0  0  0  0  0  0  0
   17.1317  -27.4817   -9.4075 C   0  0  0  0  0  0  0  0  0  0  0  0
   16.1221  -28.1836   -9.6649 O   0  0  0  0  0  0  0  0  0  0  0  0
   19.0879  -23.1188  -10.8551 O   0  0  0  0  0  0  0  0  0  0  0  0
   16.7169  -30.7036   -6.3932 C   0  0  0  0  0  0  0  0  0  0  0  0
   17.2044  -29.7956   -7.4969 C   0  0  1  0  0  0  0  0  0  0  0  0
   16.5690  -30.0726   -8.8189 C   0  0  0  0  0  0  0  0  0  0  0  0
   17.0856  -28.3373   -7.0993 C   0  0  2  0  0  0  0  0  0  0  0  0
   17.6690  -27.4911   -8.0906 N   0  0  0  0  0  0  0  0  0  0  0  0
   17.6604  -28.1026   -5.7423 C   0  0  0  0  0  0  0  0  0  0  0  0
   18.8205  -28.5105   -5.4579 O   0  0  0  0  0  0  0  0  0  0  0  0
   16.9567  -27.4235   -4.7111 N   0  0  0  0  0  0  0  0  0  0  0  0
   17.5584  -26.9513   -3.5008 C   0  0  1  0  0  0  0  0  0  0  0  0
   17.8405  -25.4686   -3.4877 C   0  0  0  0  0  0  0  0  0  0  0  0
   16.6514  -24.6703   -3.8588 C   0  0  0  0  0  0  0  0  0  0  0  0
   15.6561  -24.2072   -3.0122 C   0  0  0  0  0  0  0  0  0  0  0  0
   14.7414  -23.5156   -3.7123 N   0  0  0  0  0  0  0  0  0  0  0  0
   15.0941  -23.4994   -5.0149 C   0  0  0  0  0  0  0  0  0  0  0  0
   14.4967  -22.9315   -6.1210 C   0  0  0  0  0  0  0  0  0  0  0  0
   15.0686  -23.0609   -7.3700 C   0  0  0  0  0  0  0  0  0  0  0  0
   16.2469  -23.7742   -7.4544 C   0  0  0  0  0  0  0  0  0  0  0  0
   16.8580  -24.3494   -6.3553 C   0  0  0  0  0  0  0  0  0  0  0  0
   16.2714  -24.2095   -5.1144 C   0  0  0  0  0  0  0  0  0  0  0  0
   16.7957  -27.3627   -2.2908 C   0  0  0  0  0  0  0  0  0  0  0  0
   17.3353  -27.1786   -1.1706 O   0  0  0  0  0  0  0  0  0  0  0  0
   15.5527  -27.9228   -2.3602 O   0  0  0  0  0  0  0  0  0  0  0  0
  2  1  1  6
  2  6  1  0
  2  3  1  0
  4  3  1  0
  4  5  2  0
  6  7  2  0
  8  4  1  0
 10 11  1  6
 10 12  1  0
 10  9  1  0
 12 13  1  6
 13  6  1  0
 14 12  1  0
 14 15  2  0
 16 14  1  0
 17 16  1  0
 17 28  1  0
 17 18  1  6
 19 18  1  0
 20 19  2  0
 21 22  1  0
 21 20  1  0
 22 27  2  0
 23 24  2  0
 23 22  1  0
 24 25  1  0
 25 26  2  0
 27 26  1  0
 27 19  1  0
 28 29  2  0
 28 30  1  0
M  END
$$$$
