DVW.pdb
     RDKit          3D

 30 31  0  0  1  0  0  0  0  0999 V2000
   18.0687  -25.6667   -5.4579 N   0  0  0  0  0  0  0  0  0  0  0  0
   17.3325  -25.0979   -6.5695 C   0  0  1  0  0  0  0  0  0  0  0  0
   16.6916  -23.7802   -6.1986 C   0  0  0  0  0  0  0  0  0  0  0  0
   15.5072  -23.9724   -5.3454 C   0  0  0  0  0  0  0  0  0  0  0  0
   14.9149  -25.1033   -5.3678 O   0  0  0  0  0  0  0  0  0  0  0  0
   18.2040  -24.9806   -7.7733 C   0  0  0  0  0  0  0  0  0  0  0  0
   19.4405  -24.8031   -7.6405 O   0  0  0  0  0  0  0  0  0  0  0  0
   14.9728  -23.0153   -4.5074 O   0  0  0  0  0  0  0  0  0  0  0  0
   18.9998  -25.7103  -12.5272 C   0  0  0  0  0  0  0  0  0  0  0  0
   18.1675  -25.9296  -11.2864 C   0  0  1  0  0  0  0  0  0  0  0  0
   18.2296  -27.3280  -10.7682 C   0  0  0  0  0  0  0  0  0  0  0  0
   18.4991  -24.9076  -10.2165 C   0  0  2  0  0  0  0  0  0  0  0  0
   17.6494  -25.0676   -9.0801 N   0  0  0  0  0  0  0  0  0  0  0  0
   18.4565  -23.5213  -10.7672 C   0  0  0  0  0  0  0  0  0  0  0  0
   17.3563  -22.9166  -10.8978 O   0  0  0  0  0  0  0  0  0  0  0  0
   19.6209  -22.8127  -11.1693 N   0  0  0  0  0  0  0  0  0  0  0  0
   19.6151  -21.4721  -11.6719 C   0  0  1  0  0  0  0  0  0  0  0  0
   20.9843  -20.8465  -11.7814 C   0  0  0  0  0  0  0  0  0  0  0  0
   20.9365  -19.5012  -12.3955 C   0  0  0  0  0  0  0  0  0  0  0  0
   20.6379  -18.3031  -11.7653 C   0  0  0  0  0  0  0  0  0  0  0  0
   20.6970  -17.2918  -12.6478 N   0  0  0  0  0  0  0  0  0  0  0  0
   21.0289  -17.7773  -13.8625 C   0  0  0  0  0  0  0  0  0  0  0  0
   21.2135  -17.1565  -15.0804 C   0  0  0  0  0  0  0  0  0  0  0  0
   21.5567  -17.8915  -16.1965 C   0  0  0  0  0  0  0  0  0  0  0  0
   21.7032  -19.2542  -16.0350 C   0  0  0  0  0  0  0  0  0  0  0  0
   21.5217  -19.8912  -14.8211 C   0  0  0  0  0  0  0  0  0  0  0  0
   21.1786  -19.1398  -13.7161 C   0  0  0  0  0  0  0  0  0  0  0  0
   18.8660  -21.3501  -12.9522 C   0  0  0  0  0  0  0  0  0  0  0  0
   18.0419  -20.4069  -13.0583 O   0  0  0  0  0  0  0  0  0  0  0  0
   19.0436  -22.2150  -13.9934 O   0  0  0  0  0  0  0  0  0  0  0  0
  2  1  1  1
  2  6  1  0
  2  3  1  0
  4  3  1  0
  4  5  2  0
  6  7  2  0
  8  4  1  0
 10 11  1  1
 10 12  1  0
 10  9  1  0
 12 13  1  1
 13  6  1  0
 14 12  1  0
 14 15  2  0
 16 14  1  0
 17 16  1  0
 17 28  1  0
 17 18  1  6
 19 18  1  0
 20 19  2  0
 21 22  1  0
 21 20  1  0
 22 27  2  0
 23 24  2  0
 23 22  1  0
 24 25  1  0
 25 26  2  0
 27 26  1  0
 27 19  1  0
 28 29  2  0
 28 30  1  0
M  END
$$$$
