DVW.pdb
     RDKit          3D

 30 31  0  0  1  0  0  0  0  0999 V2000
   11.6023  -17.2092    4.4167 N   0  0  0  0  0  0  0  0  0  0  0  0
   12.8680  -16.7383    3.8901 C   0  0  1  0  0  0  0  0  0  0  0  0
   13.0824  -15.2707    4.1814 C   0  0  0  0  0  0  0  0  0  0  0  0
   12.0993  -14.4277    3.4809 C   0  0  0  0  0  0  0  0  0  0  0  0
   11.7577  -14.7461    2.2927 O   0  0  0  0  0  0  0  0  0  0  0  0
   13.9921  -17.5810    4.3886 C   0  0  0  0  0  0  0  0  0  0  0  0
   14.0125  -17.9588    5.5866 O   0  0  0  0  0  0  0  0  0  0  0  0
   11.5044  -13.3009    4.0103 O   0  0  0  0  0  0  0  0  0  0  0  0
   18.1391  -20.1022    3.4951 C   0  0  0  0  0  0  0  0  0  0  0  0
   16.8653  -19.4785    2.9765 C   0  0  1  0  0  0  0  0  0  0  0  0
   15.9372  -20.4610    2.3431 C   0  0  0  0  0  0  0  0  0  0  0  0
   16.1813  -18.6557    4.0508 C   0  0  2  0  0  0  0  0  0  0  0  0
   15.0499  -17.9656    3.5191 N   0  0  0  0  0  0  0  0  0  0  0  0
   17.1475  -17.7340    4.7173 C   0  0  0  0  0  0  0  0  0  0  0  0
   17.5658  -16.7031    4.1212 O   0  0  0  0  0  0  0  0  0  0  0  0
   17.6451  -17.9528    6.0303 N   0  0  0  0  0  0  0  0  0  0  0  0
   18.3475  -16.9709    6.7999 C   0  0  1  0  0  0  0  0  0  0  0  0
   17.5141  -15.7718    7.1816 C   0  0  0  0  0  0  0  0  0  0  0  0
   17.8308  -14.5856    6.3560 C   0  0  0  0  0  0  0  0  0  0  0  0
   17.0446  -14.0225    5.3626 C   0  0  0  0  0  0  0  0  0  0  0  0
   17.6639  -12.9524    4.8370 N   0  0  0  0  0  0  0  0  0  0  0  0
   18.8526  -12.7771    5.4515 C   0  0  0  0  0  0  0  0  0  0  0  0
   19.8461  -11.8361    5.2779 C   0  0  0  0  0  0  0  0  0  0  0  0
   20.9902  -11.8750    6.0482 C   0  0  0  0  0  0  0  0  0  0  0  0
   21.0877  -12.8848    6.9839 C   0  0  0  0  0  0  0  0  0  0  0  0
   20.1007  -13.8353    7.1699 C   0  0  0  0  0  0  0  0  0  0  0  0
   18.9638  -13.7805    6.3902 C   0  0  0  0  0  0  0  0  0  0  0  0
   19.0185  -17.5586    7.9913 C   0  0  0  0  0  0  0  0  0  0  0  0
   18.7839  -18.7645    8.2574 O   0  0  0  0  0  0  0  0  0  0  0  0
   19.8640  -16.8411    8.7877 O   0  0  0  0  0  0  0  0  0  0  0  0
  2  1  1  1
  2  6  1  0
  2  3  1  0
  4  3  1  0
  4  5  2  0
  6  7  2  0
  8  4  1  0
 10 11  1  1
 10 12  1  0
 10  9  1  0
 12 13  1  6
 13  6  1  0
 14 12  1  0
 14 15  2  0
 16 14  1  0
 17 16  1  0
 17 28  1  0
 17 18  1  1
 19 18  1  0
 20 19  2  0
 21 22  1  0
 21 20  1  0
 22 27  2  0
 23 24  2  0
 23 22  1  0
 24 25  1  0
 25 26  2  0
 27 26  1  0
 27 19  1  0
 28 29  2  0
 28 30  1  0
M  END
$$$$
