NLE.pdb
     RDKit          3D

 26 25  0  0  1  0  0  0  0  0999 V2000
    9.4589  -19.8595   16.4114 N   0  0  0  0  0  0  0  0  0  0  0  0
    8.7940  -18.6376   16.1289 C   0  0  0  0  0  0  0  0  0  0  0  0
    8.0692  -18.4571   15.1236 O   0  0  0  0  0  0  0  0  0  0  0  0
    8.9725  -17.5216   17.0795 C   0  0  0  0  0  0  0  0  0  0  0  0
    9.9326  -17.8683   18.1950 C   0  0  2  0  0  0  0  0  0  0  0  0
    9.3392  -18.8920   19.0064 N   0  0  0  0  0  0  0  0  0  0  0  0
   10.1779  -16.6151   18.9795 C   0  0  0  0  0  0  0  0  0  0  0  0
   10.9385  -15.7334   18.4695 O   0  0  0  0  0  0  0  0  0  0  0  0
    6.4739  -13.2495   21.1221 C   0  0  0  0  0  0  0  0  0  0  0  0
    7.7012  -13.8358   20.4628 C   0  0  1  0  0  0  0  0  0  0  0  0
    8.3983  -12.6551   19.7717 C   0  0  0  0  0  0  0  0  0  0  0  0
    8.5850  -14.4940   21.4396 C   0  0  0  0  0  0  0  0  0  0  0  0
    9.7611  -15.2387   20.9564 C   0  0  2  0  0  0  0  0  0  0  0  0
    9.5688  -16.4436   20.2491 N   0  0  0  0  0  0  0  0  0  0  0  0
   10.7206  -15.5560   22.0852 C   0  0  0  0  0  0  0  0  0  0  0  0
   11.0083  -14.7184   22.9748 O   0  0  0  0  0  0  0  0  0  0  0  0
   11.3303  -16.8332   22.1671 N   0  0  0  0  0  0  0  0  0  0  0  0
   12.3105  -17.1688   23.2317 C   0  0  1  0  0  0  0  0  0  0  0  0
   12.0306  -18.5727   23.6479 C   0  0  0  0  0  0  0  0  0  0  0  0
   10.6494  -18.7356   24.1713 C   0  0  0  0  0  0  0  0  0  0  0  0
   10.3732  -20.1224   24.5490 C   0  0  0  0  0  0  0  0  0  0  0  0
    9.9600  -21.0197   23.8016 O   0  0  0  0  0  0  0  0  0  0  0  0
   13.6660  -16.9397   22.6913 C   0  0  0  0  0  0  0  0  0  0  0  0
   13.8703  -16.7321   21.4844 O   0  0  0  0  0  0  0  0  0  0  0  0
   10.5983  -20.4785   25.8983 O   0  0  0  0  0  0  0  0  0  0  0  0
   14.7420  -16.9595   23.5741 O   0  0  0  0  0  0  0  0  0  0  0  0
  2  1  1  0
  2  3  2  0
  4  5  1  0
  4  2  1  0
  5  7  1  0
  5  6  1  1
  7 14  1  0
  7  8  2  0
 10  9  1  1
 10 11  1  0
 12 10  1  0
 13 15  1  0
 13 12  1  1
 14 13  1  0
 15 16  2  0
 17 18  1  0
 17 15  1  0
 19 20  1  0
 18 19  1  6
 20 21  1  0
 21 25  1  0
 21 22  2  0
 23 18  1  0
 23 26  1  0
 24 23  2  0
M  END
$$$$
