NLE.pdb
     RDKit          3D

 26 25  0  0  1  0  0  0  0  0999 V2000
    9.1416  -19.0563   19.1746 N   0  0  0  0  0  0  0  0  0  0  0  0
    8.1874  -18.1595   19.7225 C   0  0  0  0  0  0  0  0  0  0  0  0
    7.0763  -17.9205   19.1964 O   0  0  0  0  0  0  0  0  0  0  0  0
    8.5326  -17.4743   20.9843 C   0  0  0  0  0  0  0  0  0  0  0  0
    8.2893  -15.9838   20.9110 C   0  0  2  0  0  0  0  0  0  0  0  0
    9.1022  -15.4395   19.8616 N   0  0  0  0  0  0  0  0  0  0  0  0
    8.6508  -15.4055   22.2456 C   0  0  0  0  0  0  0  0  0  0  0  0
    9.8788  -15.3893   22.5739 O   0  0  0  0  0  0  0  0  0  0  0  0
    8.3710  -11.8345   26.3385 C   0  0  0  0  0  0  0  0  0  0  0  0
    7.3610  -12.9584   26.3789 C   0  0  1  0  0  0  0  0  0  0  0  0
    6.1262  -12.3740   27.0801 C   0  0  0  0  0  0  0  0  0  0  0  0
    7.0383  -13.4525   25.0298 C   0  0  0  0  0  0  0  0  0  0  0  0
    7.9847  -14.3542   24.3497 C   0  0  2  0  0  0  0  0  0  0  0  0
    7.6352  -14.8993   23.0968 N   0  0  0  0  0  0  0  0  0  0  0  0
    8.3684  -15.5250   25.2314 C   0  0  0  0  0  0  0  0  0  0  0  0
    7.5569  -16.4368   25.5243 O   0  0  0  0  0  0  0  0  0  0  0  0
    9.6808  -15.6227   25.7585 N   0  0  0  0  0  0  0  0  0  0  0  0
   10.1379  -16.8191   26.5112 C   0  0  1  0  0  0  0  0  0  0  0  0
   11.4265  -17.2483   25.8966 C   0  0  0  0  0  0  0  0  0  0  0  0
   11.3343  -18.6035   25.2940 C   0  0  0  0  0  0  0  0  0  0  0  0
   12.5686  -18.9727   24.5994 C   0  0  0  0  0  0  0  0  0  0  0  0
   13.0790  -18.3773   23.6406 O   0  0  0  0  0  0  0  0  0  0  0  0
   10.2225  -16.4534   27.9399 C   0  0  0  0  0  0  0  0  0  0  0  0
   10.1479  -15.2759   28.3266 O   0  0  0  0  0  0  0  0  0  0  0  0
   13.2493  -20.1210   25.0642 O   0  0  0  0  0  0  0  0  0  0  0  0
   10.3914  -17.4713   28.8742 O   0  0  0  0  0  0  0  0  0  0  0  0
  2  1  1  0
  2  3  2  0
  4  5  1  0
  4  2  1  0
  5  7  1  0
  5  6  1  6
  7 14  1  0
  7  8  2  0
 10  9  1  6
 10 11  1  0
 12 10  1  0
 13 15  1  0
 13 12  1  1
 14 13  1  0
 15 16  2  0
 17 18  1  0
 17 15  1  0
 19 20  1  0
 18 19  1  6
 20 21  1  0
 21 25  1  0
 21 22  2  0
 23 18  1  0
 23 26  1  0
 24 23  2  0
M  END
$$$$
