NLE.pdb
     RDKit          3D

 26 25  0  0  1  0  0  0  0  0999 V2000
    7.6224  -12.5023   18.4931 N   0  0  0  0  0  0  0  0  0  0  0  0
    8.1961  -13.6816   19.0364 C   0  0  0  0  0  0  0  0  0  0  0  0
    8.3796  -14.7315   18.3788 O   0  0  0  0  0  0  0  0  0  0  0  0
    8.5961  -13.6602   20.4578 C   0  0  0  0  0  0  0  0  0  0  0  0
    8.2872  -14.9639   21.1587 C   0  0  2  0  0  0  0  0  0  0  0  0
    6.8809  -15.2230   21.0418 N   0  0  0  0  0  0  0  0  0  0  0  0
    8.7031  -14.8113   22.5905 C   0  0  0  0  0  0  0  0  0  0  0  0
    9.9348  -14.6122   22.8340 O   0  0  0  0  0  0  0  0  0  0  0  0
    5.7037  -12.3005   26.6234 C   0  0  0  0  0  0  0  0  0  0  0  0
    6.7956  -12.7298   25.6704 C   0  0  1  0  0  0  0  0  0  0  0  0
    7.9354  -11.7210   25.8727 C   0  0  0  0  0  0  0  0  0  0  0  0
    7.2374  -14.1102   25.9310 C   0  0  0  0  0  0  0  0  0  0  0  0
    8.1367  -14.7702   24.9682 C   0  0  2  0  0  0  0  0  0  0  0  0
    7.7330  -14.8914   23.6223 N   0  0  0  0  0  0  0  0  0  0  0  0
    8.5153  -16.1638   25.4264 C   0  0  0  0  0  0  0  0  0  0  0  0
    7.6973  -17.1159   25.4206 O   0  0  0  0  0  0  0  0  0  0  0  0
    9.8303  -16.4335   25.8824 N   0  0  0  0  0  0  0  0  0  0  0  0
   10.2671  -17.8039   26.2542 C   0  0  1  0  0  0  0  0  0  0  0  0
   11.5245  -18.0746   25.5005 C   0  0  0  0  0  0  0  0  0  0  0  0
   12.1074  -19.3978   25.8429 C   0  0  0  0  0  0  0  0  0  0  0  0
   13.3629  -19.6378   25.1299 C   0  0  0  0  0  0  0  0  0  0  0  0
   14.1526  -20.5718   25.3255 O   0  0  0  0  0  0  0  0  0  0  0  0
   10.4006  -17.8560   27.7244 C   0  0  0  0  0  0  0  0  0  0  0  0
   10.4892  -16.8294   28.4171 O   0  0  0  0  0  0  0  0  0  0  0  0
   13.7137  -18.7161   24.1172 O   0  0  0  0  0  0  0  0  0  0  0  0
   10.4268  -19.1030   28.3423 O   0  0  0  0  0  0  0  0  0  0  0  0
  2  1  1  0
  2  3  2  0
  4  5  1  0
  4  2  1  0
  5  7  1  0
  5  6  1  1
  7 14  1  0
  7  8  2  0
 10  9  1  1
 10 11  1  0
 12 10  1  0
 13 15  1  0
 13 12  1  1
 14 13  1  0
 15 16  2  0
 17 18  1  0
 17 15  1  0
 19 20  1  0
 18 19  1  6
 20 21  1  0
 21 25  1  0
 21 22  2  0
 23 18  1  0
 23 26  1  0
 24 23  2  0
M  END
$$$$
