NLE.pdb
     RDKit          3D

 26 25  0  0  1  0  0  0  0  0999 V2000
    8.4459  -16.2392   18.9980 N   0  0  0  0  0  0  0  0  0  0  0  0
    7.8273  -15.0018   19.3163 C   0  0  0  0  0  0  0  0  0  0  0  0
    7.4665  -14.1642   18.4580 O   0  0  0  0  0  0  0  0  0  0  0  0
    7.6003  -14.6931   20.7425 C   0  0  0  0  0  0  0  0  0  0  0  0
    8.1159  -15.7844   21.6532 C   0  0  2  0  0  0  0  0  0  0  0  0
    7.0142  -16.6220   22.0314 N   0  0  0  0  0  0  0  0  0  0  0  0
    8.7362  -15.1176   22.8436 C   0  0  0  0  0  0  0  0  0  0  0  0
    9.8573  -14.5398   22.6845 O   0  0  0  0  0  0  0  0  0  0  0  0
    5.7454  -12.5721   26.7006 C   0  0  0  0  0  0  0  0  0  0  0  0
    6.7850  -12.8897   25.6504 C   0  0  1  0  0  0  0  0  0  0  0  0
    7.3657  -11.5331   25.2259 C   0  0  0  0  0  0  0  0  0  0  0  0
    7.8284  -13.7906   26.1683 C   0  0  0  0  0  0  0  0  0  0  0  0
    8.6732  -14.5333   25.2165 C   0  0  2  0  0  0  0  0  0  0  0  0
    8.0726  -15.1455   24.0969 N   0  0  0  0  0  0  0  0  0  0  0  0
    9.4774  -15.6127   25.9118 C   0  0  0  0  0  0  0  0  0  0  0  0
    9.4761  -15.7497   27.1596 O   0  0  0  0  0  0  0  0  0  0  0  0
   10.2678  -16.5142   25.1553 N   0  0  0  0  0  0  0  0  0  0  0  0
   11.1111  -17.5524   25.8017 C   0  0  1  0  0  0  0  0  0  0  0  0
   10.3376  -18.8260   25.7552 C   0  0  0  0  0  0  0  0  0  0  0  0
   11.0871  -19.9573   26.3607 C   0  0  0  0  0  0  0  0  0  0  0  0
   11.0995  -19.8787   27.8221 C   0  0  0  0  0  0  0  0  0  0  0  0
   10.2770  -19.2856   28.5335 O   0  0  0  0  0  0  0  0  0  0  0  0
   12.4092  -17.5880   25.0974 C   0  0  0  0  0  0  0  0  0  0  0  0
   12.5174  -17.2972   23.8952 O   0  0  0  0  0  0  0  0  0  0  0  0
   12.1512  -20.5432   28.4931 O   0  0  0  0  0  0  0  0  0  0  0  0
   13.5413  -17.9615   25.8159 O   0  0  0  0  0  0  0  0  0  0  0  0
  2  1  1  0
  2  3  2  0
  4  5  1  0
  4  2  1  0
  5  7  1  0
  5  6  1  1
  7 14  1  0
  7  8  2  0
 10  9  1  1
 10 11  1  0
 12 10  1  0
 13 15  1  0
 13 12  1  1
 14 13  1  0
 15 16  2  0
 17 18  1  0
 17 15  1  0
 19 20  1  0
 18 19  1  6
 20 21  1  0
 21 25  1  0
 21 22  2  0
 23 18  1  0
 23 26  1  0
 24 23  2  0
M  END
$$$$
