NLE.pdb
     RDKit          3D

 26 25  0  0  1  0  0  0  0  0999 V2000
    8.1401  -17.7380   19.5252 N   0  0  0  0  0  0  0  0  0  0  0  0
    7.9709  -16.3321   19.4250 C   0  0  0  0  0  0  0  0  0  0  0  0
    7.6711  -15.7424   18.3616 O   0  0  0  0  0  0  0  0  0  0  0  0
    8.1609  -15.5275   20.6487 C   0  0  0  0  0  0  0  0  0  0  0  0
    8.5658  -16.3751   21.8336 C   0  0  2  0  0  0  0  0  0  0  0  0
    7.3926  -17.0075   22.3647 N   0  0  0  0  0  0  0  0  0  0  0  0
    9.2043  -15.4640   22.8378 C   0  0  0  0  0  0  0  0  0  0  0  0
   10.3109  -14.9202   22.5285 O   0  0  0  0  0  0  0  0  0  0  0  0
    6.1685  -13.0229   26.7722 C   0  0  0  0  0  0  0  0  0  0  0  0
    6.8993  -13.3454   25.4890 C   0  0  1  0  0  0  0  0  0  0  0  0
    6.4420  -12.2828   24.4792 C   0  0  0  0  0  0  0  0  0  0  0  0
    8.3603  -13.3290   25.6726 C   0  0  0  0  0  0  0  0  0  0  0  0
    9.1775  -14.3691   25.0234 C   0  0  2  0  0  0  0  0  0  0  0  0
    8.5730  -15.2333   24.0869 N   0  0  0  0  0  0  0  0  0  0  0  0
    9.8602  -15.2572   26.0435 C   0  0  0  0  0  0  0  0  0  0  0  0
   10.3377  -14.8045   27.1125 O   0  0  0  0  0  0  0  0  0  0  0  0
    9.9792  -16.6508   25.8120 N   0  0  0  0  0  0  0  0  0  0  0  0
   10.7629  -17.5328   26.7147 C   0  0  1  0  0  0  0  0  0  0  0  0
    9.9263  -18.7400   26.9704 C   0  0  0  0  0  0  0  0  0  0  0  0
   10.7476  -19.9188   27.3498 C   0  0  0  0  0  0  0  0  0  0  0  0
   10.1660  -20.6427   28.4812 C   0  0  0  0  0  0  0  0  0  0  0  0
    8.9944  -21.0325   28.5807 O   0  0  0  0  0  0  0  0  0  0  0  0
   12.0639  -17.8039   26.0696 C   0  0  0  0  0  0  0  0  0  0  0  0
   12.2010  -17.8129   24.8357 O   0  0  0  0  0  0  0  0  0  0  0  0
   11.0208  -20.9279   29.5702 O   0  0  0  0  0  0  0  0  0  0  0  0
   13.1653  -18.0562   26.8825 O   0  0  0  0  0  0  0  0  0  0  0  0
  2  1  1  0
  2  3  2  0
  4  5  1  0
  4  2  1  0
  5  7  1  0
  5  6  1  1
  7 14  1  0
  7  8  2  0
 10  9  1  1
 10 11  1  0
 12 10  1  0
 13 15  1  0
 13 12  1  1
 14 13  1  0
 15 16  2  0
 17 18  1  0
 17 15  1  0
 19 20  1  0
 18 19  1  6
 20 21  1  0
 21 25  1  0
 21 22  2  0
 23 18  1  0
 23 26  1  0
 24 23  2  0
M  END
$$$$
