NLE.pdb
     RDKit          3D

 26 25  0  0  1  0  0  0  0  0999 V2000
   10.6700  -18.7545   15.1458 N   0  0  0  0  0  0  0  0  0  0  0  0
   11.1776  -17.4289   15.1341 C   0  0  0  0  0  0  0  0  0  0  0  0
   11.7490  -16.9124   14.1466 O   0  0  0  0  0  0  0  0  0  0  0  0
   11.0184  -16.6206   16.3597 C   0  0  0  0  0  0  0  0  0  0  0  0
   10.4756  -17.4324   17.5140 C   0  0  2  0  0  0  0  0  0  0  0  0
    9.1074  -17.7631   17.2361 N   0  0  0  0  0  0  0  0  0  0  0  0
   10.6005  -16.5927   18.7491 C   0  0  0  0  0  0  0  0  0  0  0  0
   11.7690  -16.2787   19.1391 O   0  0  0  0  0  0  0  0  0  0  0  0
    6.3952  -13.2263   20.6505 C   0  0  0  0  0  0  0  0  0  0  0  0
    7.7124  -13.7255   20.1025 C   0  0  1  0  0  0  0  0  0  0  0  0
    8.5258  -12.4639   19.7791 C   0  0  0  0  0  0  0  0  0  0  0  0
    8.4121  -14.5926   21.0654 C   0  0  0  0  0  0  0  0  0  0  0  0
    9.5628  -15.3915   20.6082 C   0  0  2  0  0  0  0  0  0  0  0  0
    9.4357  -16.1754   19.4427 N   0  0  0  0  0  0  0  0  0  0  0  0
   10.0605  -16.3222   21.6952 C   0  0  0  0  0  0  0  0  0  0  0  0
    9.6364  -17.4974   21.8163 O   0  0  0  0  0  0  0  0  0  0  0  0
   11.0379  -15.8803   22.6221 N   0  0  0  0  0  0  0  0  0  0  0  0
   11.6871  -16.8099   23.5820 C   0  0  1  0  0  0  0  0  0  0  0  0
   13.1218  -16.9034   23.1877 C   0  0  0  0  0  0  0  0  0  0  0  0
   13.8765  -15.6695   23.5282 C   0  0  0  0  0  0  0  0  0  0  0  0
   15.2769  -15.7587   23.1121 C   0  0  0  0  0  0  0  0  0  0  0  0
   16.2511  -15.9655   23.8486 O   0  0  0  0  0  0  0  0  0  0  0  0
   11.4501  -16.2946   24.9459 C   0  0  0  0  0  0  0  0  0  0  0  0
   10.9328  -15.1851   25.1530 O   0  0  0  0  0  0  0  0  0  0  0  0
   15.5504  -15.5935   21.7351 O   0  0  0  0  0  0  0  0  0  0  0  0
   11.8234  -17.0882   26.0268 O   0  0  0  0  0  0  0  0  0  0  0  0
  2  1  1  0
  2  3  2  0
  4  5  1  0
  4  2  1  0
  5  7  1  0
  5  6  1  6
  7 14  1  0
  7  8  2  0
 10  9  1  1
 10 11  1  0
 12 10  1  0
 13 15  1  0
 13 12  1  1
 14 13  1  0
 15 16  2  0
 17 18  1  0
 17 15  1  0
 19 20  1  0
 18 19  1  6
 20 21  1  0
 21 25  1  0
 21 22  2  0
 23 18  1  0
 23 26  1  0
 24 23  2  0
M  END
$$$$
