NLE.pdb
     RDKit          3D

 26 25  0  0  1  0  0  0  0  0999 V2000
    7.1160  -18.8668   19.5669 N   0  0  0  0  0  0  0  0  0  0  0  0
    8.2572  -18.0792   19.2629 C   0  0  0  0  0  0  0  0  0  0  0  0
    9.0613  -18.3478   18.3411 O   0  0  0  0  0  0  0  0  0  0  0  0
    8.5023  -16.8772   20.0851 C   0  0  0  0  0  0  0  0  0  0  0  0
    7.4609  -16.7022   21.1672 C   0  0  2  0  0  0  0  0  0  0  0  0
    6.2078  -16.3799   20.5472 N   0  0  0  0  0  0  0  0  0  0  0  0
    7.9314  -15.5994   22.0665 C   0  0  0  0  0  0  0  0  0  0  0  0
    8.7992  -14.7899   21.6110 O   0  0  0  0  0  0  0  0  0  0  0  0
    7.4925  -11.3723   25.1841 C   0  0  0  0  0  0  0  0  0  0  0  0
    7.1267  -12.6418   25.9185 C   0  0  1  0  0  0  0  0  0  0  0  0
    5.9775  -12.2533   26.8599 C   0  0  0  0  0  0  0  0  0  0  0  0
    6.7320  -13.7157   24.9915 C   0  0  0  0  0  0  0  0  0  0  0  0
    7.7665  -14.3785   24.1780 C   0  0  2  0  0  0  0  0  0  0  0  0
    7.4091  -15.4854   23.3804 N   0  0  0  0  0  0  0  0  0  0  0  0
    8.9391  -14.8259   25.0266 C   0  0  0  0  0  0  0  0  0  0  0  0
    9.5067  -14.0588   25.8421 O   0  0  0  0  0  0  0  0  0  0  0  0
    9.4351  -16.1496   24.9191 N   0  0  0  0  0  0  0  0  0  0  0  0
   10.6019  -16.6178   25.7106 C   0  0  1  0  0  0  0  0  0  0  0  0
   10.1726  -17.8575   26.4185 C   0  0  0  0  0  0  0  0  0  0  0  0
   10.7340  -17.9396   27.7919 C   0  0  0  0  0  0  0  0  0  0  0  0
   10.3543  -19.1859   28.4589 C   0  0  0  0  0  0  0  0  0  0  0  0
    9.6548  -20.0908   27.9832 O   0  0  0  0  0  0  0  0  0  0  0  0
   11.7393  -16.7936   24.7845 C   0  0  0  0  0  0  0  0  0  0  0  0
   12.8999  -16.9698   25.1886 O   0  0  0  0  0  0  0  0  0  0  0  0
   10.8299  -19.3815   29.7756 O   0  0  0  0  0  0  0  0  0  0  0  0
   11.4890  -16.7586   23.4157 O   0  0  0  0  0  0  0  0  0  0  0  0
  2  1  1  0
  2  3  2  0
  4  5  1  0
  4  2  1  0
  5  7  1  0
  5  6  1  6
  7 14  1  0
  7  8  2  0
 10  9  1  6
 10 11  1  0
 12 10  1  0
 13 15  1  0
 13 12  1  1
 14 13  1  0
 15 16  2  0
 17 18  1  0
 17 15  1  0
 19 20  1  0
 18 19  1  6
 20 21  1  0
 21 25  1  0
 21 22  2  0
 23 18  1  0
 23 26  1  0
 24 23  2  0
M  END
$$$$
