NLE.pdb
     RDKit          3D

 26 25  0  0  1  0  0  0  0  0999 V2000
    7.4212  -12.3350   18.5629 N   0  0  0  0  0  0  0  0  0  0  0  0
    7.9911  -13.5209   19.0957 C   0  0  0  0  0  0  0  0  0  0  0  0
    8.1703  -14.5659   18.4293 O   0  0  0  0  0  0  0  0  0  0  0  0
    8.3924  -13.5128   20.5169 C   0  0  0  0  0  0  0  0  0  0  0  0
    8.1603  -14.8494   21.1845 C   0  0  2  0  0  0  0  0  0  0  0  0
    6.7540  -15.1330   21.1619 N   0  0  0  0  0  0  0  0  0  0  0  0
    8.6798  -14.7454   22.5865 C   0  0  0  0  0  0  0  0  0  0  0  0
    9.9312  -14.5897   22.7470 O   0  0  0  0  0  0  0  0  0  0  0  0
    5.6658  -12.5053   26.6430 C   0  0  0  0  0  0  0  0  0  0  0  0
    6.7852  -12.8104   25.6742 C   0  0  1  0  0  0  0  0  0  0  0  0
    7.7166  -11.5908   25.7276 C   0  0  0  0  0  0  0  0  0  0  0  0
    7.4928  -14.0520   26.0293 C   0  0  0  0  0  0  0  0  0  0  0  0
    8.2825  -14.7485   24.9986 C   0  0  2  0  0  0  0  0  0  0  0  0
    7.7821  -14.8219   23.6821 N   0  0  0  0  0  0  0  0  0  0  0  0
    8.6049  -16.1702   25.4114 C   0  0  0  0  0  0  0  0  0  0  0  0
    7.7327  -17.0724   25.4425 O   0  0  0  0  0  0  0  0  0  0  0  0
    9.9269  -16.5248   25.7805 N   0  0  0  0  0  0  0  0  0  0  0  0
   10.2823  -17.9057   26.1976 C   0  0  1  0  0  0  0  0  0  0  0  0
   11.3781  -18.3598   25.2946 C   0  0  0  0  0  0  0  0  0  0  0  0
   12.5924  -17.5124   25.4197 C   0  0  0  0  0  0  0  0  0  0  0  0
   13.6433  -17.9312   24.4910 C   0  0  0  0  0  0  0  0  0  0  0  0
   14.1605  -19.0548   24.4242 O   0  0  0  0  0  0  0  0  0  0  0  0
   10.6332  -17.8720   27.6321 C   0  0  0  0  0  0  0  0  0  0  0  0
   10.6898  -16.8109   28.2742 O   0  0  0  0  0  0  0  0  0  0  0  0
   14.1188  -16.9622   23.5783 O   0  0  0  0  0  0  0  0  0  0  0  0
   10.9074  -19.0761   28.2743 O   0  0  0  0  0  0  0  0  0  0  0  0
  2  1  1  0
  2  3  2  0
  4  5  1  0
  4  2  1  0
  5  7  1  0
  5  6  1  1
  7 14  1  0
  7  8  2  0
 10  9  1  1
 10 11  1  0
 12 10  1  0
 13 15  1  0
 13 12  1  1
 14 13  1  0
 15 16  2  0
 17 18  1  0
 17 15  1  0
 19 20  1  0
 18 19  1  6
 20 21  1  0
 21 25  1  0
 21 22  2  0
 23 18  1  0
 23 26  1  0
 24 23  2  0
M  END
$$$$
