NLE.pdb
     RDKit          3D

 26 25  0  0  1  0  0  0  0  0999 V2000
   12.5607  -16.3191   13.8860 N   0  0  0  0  0  0  0  0  0  0  0  0
   11.2962  -16.2913   14.5303 C   0  0  0  0  0  0  0  0  0  0  0  0
   10.2505  -16.7645   14.0291 O   0  0  0  0  0  0  0  0  0  0  0  0
   11.2185  -15.6674   15.8666 C   0  0  0  0  0  0  0  0  0  0  0  0
   11.2306  -16.6924   16.9781 C   0  0  2  0  0  0  0  0  0  0  0  0
   10.1346  -17.5964   16.7776 N   0  0  0  0  0  0  0  0  0  0  0  0
   11.1031  -15.9491   18.2733 C   0  0  0  0  0  0  0  0  0  0  0  0
   12.1708  -15.5632   18.8451 O   0  0  0  0  0  0  0  0  0  0  0  0
    6.3997  -13.1549   19.9329 C   0  0  0  0  0  0  0  0  0  0  0  0
    7.8057  -13.5131   19.5092 C   0  0  1  0  0  0  0  0  0  0  0  0
    8.5567  -12.1773   19.4118 C   0  0  0  0  0  0  0  0  0  0  0  0
    8.4481  -14.4305   20.4652 C   0  0  0  0  0  0  0  0  0  0  0  0
    9.7115  -15.0895   20.0901 C   0  0  2  0  0  0  0  0  0  0  0  0
    9.8195  -15.6978   18.8222 N   0  0  0  0  0  0  0  0  0  0  0  0
   10.1115  -16.1427   21.1031 C   0  0  0  0  0  0  0  0  0  0  0  0
    9.7858  -17.3487   20.9792 O   0  0  0  0  0  0  0  0  0  0  0  0
   10.8795  -15.7857   22.2399 N   0  0  0  0  0  0  0  0  0  0  0  0
   11.4702  -16.8081   23.1414 C   0  0  1  0  0  0  0  0  0  0  0  0
   12.8878  -16.9893   22.7170 C   0  0  0  0  0  0  0  0  0  0  0  0
   13.7073  -15.7766   22.9736 C   0  0  0  0  0  0  0  0  0  0  0  0
   15.1057  -15.9766   22.5908 C   0  0  0  0  0  0  0  0  0  0  0  0
   16.0549  -16.1886   23.3578 O   0  0  0  0  0  0  0  0  0  0  0  0
   11.2928  -16.3452   24.5330 C   0  0  0  0  0  0  0  0  0  0  0  0
   11.6520  -17.0259   25.5072 O   0  0  0  0  0  0  0  0  0  0  0  0
   15.4087  -15.9238   21.2111 O   0  0  0  0  0  0  0  0  0  0  0  0
   10.7020  -15.1031   24.7464 O   0  0  0  0  0  0  0  0  0  0  0  0
  2  1  1  0
  2  3  2  0
  4  5  1  0
  4  2  1  0
  5  7  1  0
  5  6  1  6
  7 14  1  0
  7  8  2  0
 10  9  1  1
 10 11  1  0
 12 10  1  0
 13 15  1  0
 13 12  1  1
 14 13  1  0
 15 16  2  0
 17 18  1  0
 17 15  1  0
 19 20  1  0
 18 19  1  6
 20 21  1  0
 21 25  1  0
 21 22  2  0
 23 18  1  0
 23 26  1  0
 24 23  2  0
M  END
$$$$
