NLE.pdb
     RDKit          3D

 26 25  0  0  1  0  0  0  0  0999 V2000
    8.2876  -18.1884   19.0138 N   0  0  0  0  0  0  0  0  0  0  0  0
    7.9497  -16.8441   18.7077 C   0  0  0  0  0  0  0  0  0  0  0  0
    7.5672  -16.4639   17.5774 O   0  0  0  0  0  0  0  0  0  0  0  0
    8.0582  -15.8443   19.7891 C   0  0  0  0  0  0  0  0  0  0  0  0
    8.4340  -16.4715   21.1126 C   0  0  2  0  0  0  0  0  0  0  0  0
    7.3629  -17.3290   21.5321 N   0  0  0  0  0  0  0  0  0  0  0  0
    8.6621  -15.3562   22.0873 C   0  0  0  0  0  0  0  0  0  0  0  0
    9.5984  -14.5325   21.8402 O   0  0  0  0  0  0  0  0  0  0  0  0
    7.7863  -11.3436   25.4223 C   0  0  0  0  0  0  0  0  0  0  0  0
    7.2664  -12.6469   25.9841 C   0  0  1  0  0  0  0  0  0  0  0  0
    5.9983  -12.2780   26.7677 C   0  0  0  0  0  0  0  0  0  0  0  0
    6.9843  -13.6268   24.9217 C   0  0  0  0  0  0  0  0  0  0  0  0
    8.1084  -14.2330   24.1869 C   0  0  2  0  0  0  0  0  0  0  0  0
    7.8452  -15.2462   23.2417 N   0  0  0  0  0  0  0  0  0  0  0  0
    9.1528  -14.7924   25.1312 C   0  0  0  0  0  0  0  0  0  0  0  0
    9.6342  -14.1167   26.0732 O   0  0  0  0  0  0  0  0  0  0  0  0
    9.6223  -16.1204   24.9717 N   0  0  0  0  0  0  0  0  0  0  0  0
   10.6680  -16.6954   25.8566 C   0  0  1  0  0  0  0  0  0  0  0  0
   10.1409  -17.9972   26.3567 C   0  0  0  0  0  0  0  0  0  0  0  0
   10.1174  -18.0573   27.8412 C   0  0  0  0  0  0  0  0  0  0  0  0
   10.2579  -19.4296   28.3302 C   0  0  0  0  0  0  0  0  0  0  0  0
   10.3183  -20.4545   27.6372 O   0  0  0  0  0  0  0  0  0  0  0  0
   11.9207  -16.7899   25.0794 C   0  0  0  0  0  0  0  0  0  0  0  0
   11.9644  -16.5438   23.8632 O   0  0  0  0  0  0  0  0  0  0  0  0
   10.3325  -19.6090   29.7304 O   0  0  0  0  0  0  0  0  0  0  0  0
   13.0840  -17.1681   25.7435 O   0  0  0  0  0  0  0  0  0  0  0  0
  2  1  1  0
  2  3  2  0
  4  5  1  0
  4  2  1  0
  5  7  1  0
  5  6  1  1
  7 14  1  0
  7  8  2  0
 10  9  1  6
 10 11  1  0
 12 10  1  0
 13 15  1  0
 13 12  1  1
 14 13  1  0
 15 16  2  0
 17 18  1  0
 17 15  1  0
 19 20  1  0
 18 19  1  6
 20 21  1  0
 21 25  1  0
 21 22  2  0
 23 18  1  0
 23 26  1  0
 24 23  2  0
M  END
$$$$
