CKL.pdb
     RDKit          3D

 24 23  0  0  1  0  0  0  0  0999 V2000
    6.0322  -19.9750   22.9456 N   0  0  0  0  0  0  0  0  0  0  0  0
    6.0471  -18.7120   23.6500 C   0  0  1  0  0  0  0  0  0  0  0  0
    6.2556  -18.9231   25.1433 C   0  0  0  0  0  0  0  0  0  0  0  0
    5.8305  -17.4189   26.0573 S   0  0  0  0  0  0  0  0  0  0  0  0
    7.1188  -17.8681   23.0738 C   0  0  0  0  0  0  0  0  0  0  0  0
    8.2564  -18.3686   22.8902 O   0  0  0  0  0  0  0  0  0  0  0  0
    6.8050  -16.5243   22.7551 N   0  0  0  0  0  0  0  0  0  0  0  0
    7.8226  -15.6804   22.1895 C   0  0  1  0  0  0  0  0  0  0  0  0
    7.2459  -14.5627   21.3520 C   0  0  0  0  0  0  0  0  0  0  0  0
    8.2930  -13.7412   20.6601 C   0  0  0  0  0  0  0  0  0  0  0  0
    7.7599  -13.4315   19.2670 C   0  0  0  0  0  0  0  0  0  0  0  0
    8.8468  -12.7814   18.4390 C   0  0  0  0  0  0  0  0  0  0  0  0
    8.3253  -12.5040   17.1149 N   0  0  0  0  0  0  0  0  0  0  0  0
    8.5702  -15.0316   23.2941 C   0  0  0  0  0  0  0  0  0  0  0  0
    9.0803  -13.9035   23.0808 O   0  0  0  0  0  0  0  0  0  0  0  0
    7.0028  -12.5539   24.9971 C   0  0  0  0  0  0  0  0  0  0  0  0
    7.2585  -13.6791   26.0116 C   0  0  2  0  0  0  0  0  0  0  0  0
    6.5925  -13.2030   27.3052 C   0  0  0  0  0  0  0  0  0  0  0  0
    8.7248  -13.8082   26.2379 C   0  0  0  0  0  0  0  0  0  0  0  0
    9.3951  -14.9773   25.6177 C   0  0  2  0  0  0  0  0  0  0  0  0
    8.7226  -15.6418   24.5658 N   0  0  0  0  0  0  0  0  0  0  0  0
    9.6329  -15.9676   26.7382 C   0  0  0  0  0  0  0  0  0  0  0  0
    9.1762  -17.1211   26.6933 O   0  0  0  0  0  0  0  0  0  0  0  0
   10.3810  -15.5543   27.8297 O   0  0  0  0  0  0  0  0  0  0  0  0
  2  1  1  6
  3  2  1  0
  4  3  1  0
  5  6  2  0
  5  2  1  0
  7  5  1  0
  8  7  1  0
  9 10  1  0
  8  9  1  6
 10 11  1  0
 11 12  1  0
 12 13  1  0
 14 15  2  0
 14  8  1  0
 17 18  1  1
 17 16  1  0
 19 17  1  0
 20 19  1  1
 20 21  1  0
 21 14  1  0
 22 20  1  0
 23 22  2  0
 24 22  1  0
M  END
$$$$
