CKL.pdb
     RDKit          3D

 24 23  0  0  1  0  0  0  0  0999 V2000
    8.0486  -13.9451   17.4777 N   0  0  0  0  0  0  0  0  0  0  0  0
    8.8517  -14.0898   18.6717 C   0  0  1  0  0  0  0  0  0  0  0  0
    9.4596  -12.7564   19.0847 C   0  0  0  0  0  0  0  0  0  0  0  0
   10.7010  -13.0044   20.3794 S   0  0  0  0  0  0  0  0  0  0  0  0
    7.9963  -14.6438   19.7459 C   0  0  0  0  0  0  0  0  0  0  0  0
    6.8474  -14.1654   19.9181 O   0  0  0  0  0  0  0  0  0  0  0  0
    8.5212  -15.6966   20.5346 N   0  0  0  0  0  0  0  0  0  0  0  0
    7.7118  -16.2623   21.5799 C   0  0  1  0  0  0  0  0  0  0  0  0
    7.8783  -17.7598   21.6924 C   0  0  0  0  0  0  0  0  0  0  0  0
    7.0908  -18.3595   22.8194 C   0  0  0  0  0  0  0  0  0  0  0  0
    7.3671  -19.8576   22.8012 C   0  0  0  0  0  0  0  0  0  0  0  0
    6.4788  -20.5514   23.8107 C   0  0  0  0  0  0  0  0  0  0  0  0
    6.8415  -21.9539   23.8691 N   0  0  0  0  0  0  0  0  0  0  0  0
    8.1483  -15.6947   22.8789 C   0  0  0  0  0  0  0  0  0  0  0  0
    9.3788  -15.6723   23.1312 O   0  0  0  0  0  0  0  0  0  0  0  0
    5.9692  -11.7740   27.1713 C   0  0  0  0  0  0  0  0  0  0  0  0
    7.1186  -12.6795   26.7028 C   0  0  2  0  0  0  0  0  0  0  0  0
    8.2685  -11.7221   26.3793 C   0  0  0  0  0  0  0  0  0  0  0  0
    6.7074  -13.3850   25.4575 C   0  0  0  0  0  0  0  0  0  0  0  0
    7.6628  -14.3772   24.9064 C   0  0  2  0  0  0  0  0  0  0  0  0
    7.2274  -15.1844   23.8297 N   0  0  0  0  0  0  0  0  0  0  0  0
    8.0432  -15.2796   26.0612 C   0  0  0  0  0  0  0  0  0  0  0  0
    8.7063  -14.8593   27.0228 O   0  0  0  0  0  0  0  0  0  0  0  0
    7.6303  -16.6025   26.0221 O   0  0  0  0  0  0  0  0  0  0  0  0
  2  1  1  6
  3  2  1  0
  4  3  1  0
  5  6  2  0
  5  2  1  0
  7  5  1  0
  8  7  1  0
  9 10  1  0
  8  9  1  1
 10 11  1  0
 11 12  1  0
 12 13  1  0
 14 15  2  0
 14  8  1  0
 17 18  1  6
 17 16  1  0
 19 17  1  0
 20 19  1  1
 20 21  1  0
 21 14  1  0
 22 20  1  0
 23 22  2  0
 24 22  1  0
M  END
$$$$
