CKL.pdb
     RDKit          3D

 24 23  0  0  1  0  0  0  0  0999 V2000
    7.4932  -15.5016   18.3256 N   0  0  0  0  0  0  0  0  0  0  0  0
    8.1474  -14.8097   19.4142 C   0  0  1  0  0  0  0  0  0  0  0  0
    7.8007  -13.3273   19.4046 C   0  0  0  0  0  0  0  0  0  0  0  0
    8.6805  -12.4663   20.7326 S   0  0  0  0  0  0  0  0  0  0  0  0
    7.7378  -15.4472   20.6863 C   0  0  0  0  0  0  0  0  0  0  0  0
    6.5147  -15.5276   20.9618 O   0  0  0  0  0  0  0  0  0  0  0  0
    8.7560  -15.9398   21.5387 N   0  0  0  0  0  0  0  0  0  0  0  0
    8.3915  -16.5520   22.7878 C   0  0  1  0  0  0  0  0  0  0  0  0
    9.0599  -17.8918   22.9907 C   0  0  0  0  0  0  0  0  0  0  0  0
    8.6861  -18.5490   24.2863 C   0  0  0  0  0  0  0  0  0  0  0  0
    7.6705  -19.6344   23.9522 C   0  0  0  0  0  0  0  0  0  0  0  0
    7.1543  -20.2591   25.2300 C   0  0  0  0  0  0  0  0  0  0  0  0
    6.1913  -21.2891   24.8929 N   0  0  0  0  0  0  0  0  0  0  0  0
    8.8543  -15.6820   23.8964 C   0  0  0  0  0  0  0  0  0  0  0  0
   10.0525  -15.3044   23.8915 O   0  0  0  0  0  0  0  0  0  0  0  0
    7.3672  -11.6240   25.3325 C   0  0  0  0  0  0  0  0  0  0  0  0
    6.5768  -12.8022   25.9224 C   0  0  2  0  0  0  0  0  0  0  0  0
    5.5296  -12.1576   26.8343 C   0  0  0  0  0  0  0  0  0  0  0  0
    7.4915  -13.6393   26.7471 C   0  0  0  0  0  0  0  0  0  0  0  0
    8.4722  -14.4767   26.0139 C   0  0  2  0  0  0  0  0  0  0  0  0
    7.9932  -15.2713   24.9464 N   0  0  0  0  0  0  0  0  0  0  0  0
    9.1014  -15.3876   27.0470 C   0  0  0  0  0  0  0  0  0  0  0  0
    9.7050  -14.9332   28.0319 O   0  0  0  0  0  0  0  0  0  0  0  0
    8.9881  -16.7576   26.8679 O   0  0  0  0  0  0  0  0  0  0  0  0
  2  1  1  6
  3  2  1  0
  4  3  1  0
  5  6  2  0
  5  2  1  0
  7  5  1  0
  8  7  1  0
  9 10  1  0
  8  9  1  1
 10 11  1  0
 11 12  1  0
 12 13  1  0
 14 15  2  0
 14  8  1  0
 17 18  1  1
 17 16  1  0
 19 17  1  0
 20 19  1  1
 20 21  1  0
 21 14  1  0
 22 20  1  0
 23 22  2  0
 24 22  1  0
M  END
$$$$
