CKL.pdb
     RDKit          3D

 24 23  0  0  1  0  0  0  0  0999 V2000
    7.5717  -15.0163   17.6864 N   0  0  0  0  0  0  0  0  0  0  0  0
    8.6049  -15.2290   18.6758 C   0  0  1  0  0  0  0  0  0  0  0  0
    9.5540  -14.0401   18.7371 C   0  0  0  0  0  0  0  0  0  0  0  0
    8.6366  -12.5198   19.0920 S   0  0  0  0  0  0  0  0  0  0  0  0
    7.9561  -15.4643   19.9859 C   0  0  0  0  0  0  0  0  0  0  0  0
    6.8465  -14.9244   20.2223 O   0  0  0  0  0  0  0  0  0  0  0  0
    8.6255  -16.2948   20.9175 N   0  0  0  0  0  0  0  0  0  0  0  0
    7.9430  -16.6970   22.1175 C   0  0  1  0  0  0  0  0  0  0  0  0
    8.3816  -18.0594   22.6020 C   0  0  0  0  0  0  0  0  0  0  0  0
    7.6506  -18.5139   23.8304 C   0  0  0  0  0  0  0  0  0  0  0  0
    8.1852  -19.8986   24.1737 C   0  0  0  0  0  0  0  0  0  0  0  0
    7.3814  -20.4866   25.3129 C   0  0  0  0  0  0  0  0  0  0  0  0
    7.8287  -21.8451   25.5503 N   0  0  0  0  0  0  0  0  0  0  0  0
    8.2803  -15.7403   23.1996 C   0  0  0  0  0  0  0  0  0  0  0  0
    9.4679  -15.3398   23.2863 O   0  0  0  0  0  0  0  0  0  0  0  0
    5.6089  -11.7127   27.0889 C   0  0  0  0  0  0  0  0  0  0  0  0
    6.8955  -12.3894   26.5914 C   0  0  2  0  0  0  0  0  0  0  0  0
    7.7240  -11.2584   25.9767 C   0  0  0  0  0  0  0  0  0  0  0  0
    6.5496  -13.3730   25.5281 C   0  0  0  0  0  0  0  0  0  0  0  0
    7.6352  -14.2785   25.0783 C   0  0  2  0  0  0  0  0  0  0  0  0
    7.3125  -15.2726   24.1254 N   0  0  0  0  0  0  0  0  0  0  0  0
    8.1575  -14.9594   26.3259 C   0  0  0  0  0  0  0  0  0  0  0  0
    7.5446  -15.8984   26.8582 O   0  0  0  0  0  0  0  0  0  0  0  0
    9.3501  -14.5065   26.8686 O   0  0  0  0  0  0  0  0  0  0  0  0
  2  1  1  6
  3  2  1  0
  4  3  1  0
  5  6  2  0
  5  2  1  0
  7  5  1  0
  8  7  1  0
  9 10  1  0
  8  9  1  1
 10 11  1  0
 11 12  1  0
 12 13  1  0
 14 15  2  0
 14  8  1  0
 17 18  1  6
 17 16  1  0
 19 17  1  0
 20 19  1  1
 20 21  1  0
 21 14  1  0
 22 20  1  0
 23 22  2  0
 24 22  1  0
M  END
$$$$
