CKL.pdb
     RDKit          3D

 24 23  0  0  1  0  0  0  0  0999 V2000
    6.5222  -19.1699   20.9076 N   0  0  0  0  0  0  0  0  0  0  0  0
    6.4100  -18.1743   21.9506 C   0  0  1  0  0  0  0  0  0  0  0  0
    6.2608  -18.8302   23.3164 C   0  0  0  0  0  0  0  0  0  0  0  0
    5.7172  -17.6140   24.5429 S   0  0  0  0  0  0  0  0  0  0  0  0
    7.6100  -17.3082   21.9009 C   0  0  0  0  0  0  0  0  0  0  0  0
    8.7444  -17.8422   21.8205 O   0  0  0  0  0  0  0  0  0  0  0  0
    7.4175  -15.9058   21.9470 N   0  0  0  0  0  0  0  0  0  0  0  0
    8.5635  -15.0379   21.9156 C   0  0  1  0  0  0  0  0  0  0  0  0
    8.2324  -13.6636   21.3820 C   0  0  0  0  0  0  0  0  0  0  0  0
    7.4417  -13.6985   20.1078 C   0  0  0  0  0  0  0  0  0  0  0  0
    8.4135  -13.3822   18.9780 C   0  0  0  0  0  0  0  0  0  0  0  0
    7.6856  -13.4288   17.6523 C   0  0  0  0  0  0  0  0  0  0  0  0
    8.6556  -13.3200   16.5803 N   0  0  0  0  0  0  0  0  0  0  0  0
    9.0492  -14.8414   23.3032 C   0  0  0  0  0  0  0  0  0  0  0  0
   10.1973  -14.3579   23.4653 O   0  0  0  0  0  0  0  0  0  0  0  0
    8.0913  -11.8189   26.2676 C   0  0  0  0  0  0  0  0  0  0  0  0
    7.0750  -12.9681   26.1826 C   0  0  2  0  0  0  0  0  0  0  0  0
    5.9569  -12.5787   27.1529 C   0  0  0  0  0  0  0  0  0  0  0  0
    7.7178  -14.2241   26.6591 C   0  0  0  0  0  0  0  0  0  0  0  0
    8.6957  -14.8620   25.7439 C   0  0  2  0  0  0  0  0  0  0  0  0
    8.2639  -15.1798   24.4351 N   0  0  0  0  0  0  0  0  0  0  0  0
    9.1394  -16.1382   26.4274 C   0  0  0  0  0  0  0  0  0  0  0  0
    9.5846  -16.1333   27.5862 O   0  0  0  0  0  0  0  0  0  0  0  0
    9.0369  -17.3279   25.7232 O   0  0  0  0  0  0  0  0  0  0  0  0
  2  1  1  6
  3  2  1  0
  4  3  1  0
  5  6  2  0
  5  2  1  0
  7  5  1  0
  8  7  1  0
  9 10  1  0
  8  9  1  1
 10 11  1  0
 11 12  1  0
 12 13  1  0
 14 15  2  0
 14  8  1  0
 17 18  1  1
 17 16  1  0
 19 17  1  0
 20 19  1  1
 20 21  1  0
 21 14  1  0
 22 20  1  0
 23 22  2  0
 24 22  1  0
M  END
$$$$
