CKL.pdb
     RDKit          3D

 24 23  0  0  1  0  0  0  0  0999 V2000
    7.1692  -13.7244   18.7297 N   0  0  0  0  0  0  0  0  0  0  0  0
    8.4097  -14.1778   19.3189 C   0  0  1  0  0  0  0  0  0  0  0  0
    9.3695  -13.0151   19.5307 C   0  0  0  0  0  0  0  0  0  0  0  0
    8.5060  -11.6161   20.2896 S   0  0  0  0  0  0  0  0  0  0  0  0
    8.0993  -14.8557   20.5982 C   0  0  0  0  0  0  0  0  0  0  0  0
    7.0106  -14.6044   21.1727 O   0  0  0  0  0  0  0  0  0  0  0  0
    9.0550  -15.7633   21.1163 N   0  0  0  0  0  0  0  0  0  0  0  0
    8.7595  -16.4793   22.3279 C   0  0  1  0  0  0  0  0  0  0  0  0
    9.4152  -17.8399   22.3689 C   0  0  0  0  0  0  0  0  0  0  0  0
    9.2011  -18.5608   23.6668 C   0  0  0  0  0  0  0  0  0  0  0  0
    9.8616  -19.9264   23.5259 C   0  0  0  0  0  0  0  0  0  0  0  0
    9.7204  -20.6962   24.8209 C   0  0  0  0  0  0  0  0  0  0  0  0
   10.5091  -21.9096   24.7337 N   0  0  0  0  0  0  0  0  0  0  0  0
    9.3073  -15.7168   23.4762 C   0  0  0  0  0  0  0  0  0  0  0  0
   10.4434  -15.1953   23.3521 O   0  0  0  0  0  0  0  0  0  0  0  0
    7.0929  -11.7036   25.7659 C   0  0  0  0  0  0  0  0  0  0  0  0
    7.2816  -13.2284   25.7775 C   0  0  2  0  0  0  0  0  0  0  0  0
    6.3637  -13.7311   26.8949 C   0  0  0  0  0  0  0  0  0  0  0  0
    8.6941  -13.5425   26.1294 C   0  0  0  0  0  0  0  0  0  0  0  0
    9.1755  -14.9070   25.8020 C   0  0  2  0  0  0  0  0  0  0  0  0
    8.5934  -15.5632   24.6925 N   0  0  0  0  0  0  0  0  0  0  0  0
    8.9324  -15.7458   27.0390 C   0  0  0  0  0  0  0  0  0  0  0  0
    9.3791  -15.4122   28.1480 O   0  0  0  0  0  0  0  0  0  0  0  0
    8.1907  -16.9095   26.9057 O   0  0  0  0  0  0  0  0  0  0  0  0
  2  1  1  1
  3  2  1  0
  4  3  1  0
  5  6  2  0
  5  2  1  0
  7  5  1  0
  8  7  1  0
  9 10  1  0
  8  9  1  6
 10 11  1  0
 11 12  1  0
 12 13  1  0
 14 15  2  0
 14  8  1  0
 17 18  1  1
 17 16  1  0
 19 17  1  0
 20 19  1  1
 20 21  1  0
 21 14  1  0
 22 20  1  0
 23 22  2  0
 24 22  1  0
M  END
$$$$
