CKL.pdb
     RDKit          3D

 24 23  0  0  1  0  0  0  0  0999 V2000
    7.8154  -15.4662   18.0018 N   0  0  0  0  0  0  0  0  0  0  0  0
    8.2545  -14.6739   19.1292 C   0  0  1  0  0  0  0  0  0  0  0  0
    7.7567  -13.2397   19.0146 C   0  0  0  0  0  0  0  0  0  0  0  0
    8.5393  -12.1991   20.2730 S   0  0  0  0  0  0  0  0  0  0  0  0
    7.7621  -15.3141   20.3703 C   0  0  0  0  0  0  0  0  0  0  0  0
    6.5295  -15.5176   20.5035 O   0  0  0  0  0  0  0  0  0  0  0  0
    8.7149  -15.6687   21.3562 N   0  0  0  0  0  0  0  0  0  0  0  0
    8.2780  -16.3596   22.5392 C   0  0  1  0  0  0  0  0  0  0  0  0
    8.7966  -17.7773   22.6045 C   0  0  0  0  0  0  0  0  0  0  0  0
    8.3778  -18.5037   23.8483 C   0  0  0  0  0  0  0  0  0  0  0  0
    8.8413  -19.9466   23.6925 C   0  0  0  0  0  0  0  0  0  0  0  0
    8.4200  -20.7501   24.9034 C   0  0  0  0  0  0  0  0  0  0  0  0
    8.7680  -22.1409   24.6877 N   0  0  0  0  0  0  0  0  0  0  0  0
    8.8244  -15.6599   23.7275 C   0  0  0  0  0  0  0  0  0  0  0  0
   10.0680  -15.4968   23.7981 O   0  0  0  0  0  0  0  0  0  0  0  0
    7.7913  -11.6561   25.1500 C   0  0  0  0  0  0  0  0  0  0  0  0
    6.9007  -12.7021   25.8381 C   0  0  2  0  0  0  0  0  0  0  0  0
    5.9798  -11.8938   26.7559 C   0  0  0  0  0  0  0  0  0  0  0  0
    7.7524  -13.5974   26.6691 C   0  0  0  0  0  0  0  0  0  0  0  0
    8.5469  -14.6212   25.9471 C   0  0  2  0  0  0  0  0  0  0  0  0
    7.9928  -15.1773   24.7706 N   0  0  0  0  0  0  0  0  0  0  0  0
    8.7910  -15.7391   26.9389 C   0  0  0  0  0  0  0  0  0  0  0  0
    8.3378  -16.8802   26.7558 O   0  0  0  0  0  0  0  0  0  0  0  0
    9.5408  -15.4584   28.0706 O   0  0  0  0  0  0  0  0  0  0  0  0
  2  1  1  6
  3  2  1  0
  4  3  1  0
  5  6  2  0
  5  2  1  0
  7  5  1  0
  8  7  1  0
  9 10  1  0
  8  9  1  6
 10 11  1  0
 11 12  1  0
 12 13  1  0
 14 15  2  0
 14  8  1  0
 17 18  1  1
 17 16  1  0
 19 17  1  0
 20 19  1  1
 20 21  1  0
 21 14  1  0
 22 20  1  0
 23 22  2  0
 24 22  1  0
M  END
$$$$
