CKL.pdb
     RDKit          3D

 24 23  0  0  1  0  0  0  0  0999 V2000
    6.9782  -16.6056   18.9813 N   0  0  0  0  0  0  0  0  0  0  0  0
    7.7454  -15.7668   19.8753 C   0  0  1  0  0  0  0  0  0  0  0  0
    7.6272  -14.3005   19.4828 C   0  0  0  0  0  0  0  0  0  0  0  0
    8.5792  -13.2648   20.6229 S   0  0  0  0  0  0  0  0  0  0  0  0
    7.2625  -15.9918   21.2569 C   0  0  0  0  0  0  0  0  0  0  0  0
    6.0701  -15.7137   21.5388 O   0  0  0  0  0  0  0  0  0  0  0  0
    8.1782  -16.5148   22.2022 N   0  0  0  0  0  0  0  0  0  0  0  0
    7.7361  -16.7578   23.5487 C   0  0  1  0  0  0  0  0  0  0  0  0
    7.9873  -18.1807   23.9909 C   0  0  0  0  0  0  0  0  0  0  0  0
    7.4647  -18.4738   25.3660 C   0  0  0  0  0  0  0  0  0  0  0  0
    7.7118  -19.9547   25.6244 C   0  0  0  0  0  0  0  0  0  0  0  0
    7.0520  -20.3618   26.9238 C   0  0  0  0  0  0  0  0  0  0  0  0
    7.2486  -21.7841   27.1243 N   0  0  0  0  0  0  0  0  0  0  0  0
    8.5135  -15.8914   24.4680 C   0  0  0  0  0  0  0  0  0  0  0  0
    9.7415  -15.7456   24.2467 O   0  0  0  0  0  0  0  0  0  0  0  0
    7.6064  -11.6117   24.9629 C   0  0  0  0  0  0  0  0  0  0  0  0
    6.8921  -12.5014   25.9920 C   0  0  2  0  0  0  0  0  0  0  0  0
    6.0278  -11.5402   26.8122 C   0  0  0  0  0  0  0  0  0  0  0  0
    7.9070  -13.1261   26.8849 C   0  0  0  0  0  0  0  0  0  0  0  0
    8.6431  -14.2947   26.3431 C   0  0  2  0  0  0  0  0  0  0  0  0
    7.9165  -15.2330   25.5737 N   0  0  0  0  0  0  0  0  0  0  0  0
    9.2352  -15.0091   27.5397 C   0  0  0  0  0  0  0  0  0  0  0  0
    9.9806  -14.4244   28.3419 O   0  0  0  0  0  0  0  0  0  0  0  0
    8.9236  -16.3474   27.7235 O   0  0  0  0  0  0  0  0  0  0  0  0
  2  1  1  6
  3  2  1  0
  4  3  1  0
  5  6  2  0
  5  2  1  0
  7  5  1  0
  8  7  1  0
  9 10  1  0
  8  9  1  1
 10 11  1  0
 11 12  1  0
 12 13  1  0
 14 15  2  0
 14  8  1  0
 17 18  1  1
 17 16  1  0
 19 17  1  0
 20 19  1  1
 20 21  1  0
 21 14  1  0
 22 20  1  0
 23 22  2  0
 24 22  1  0
M  END
$$$$
