CKL.pdb
     RDKit          3D

 24 23  0  0  1  0  0  0  0  0999 V2000
    6.5244  -19.7906   22.3590 N   0  0  0  0  0  0  0  0  0  0  0  0
    6.0958  -18.4122   22.4477 C   0  0  1  0  0  0  0  0  0  0  0  0
    5.4341  -18.1324   23.7901 C   0  0  0  0  0  0  0  0  0  0  0  0
    6.5046  -18.6768   25.1453 S   0  0  0  0  0  0  0  0  0  0  0  0
    7.2755  -17.5417   22.2405 C   0  0  0  0  0  0  0  0  0  0  0  0
    8.4248  -18.0263   22.3916 O   0  0  0  0  0  0  0  0  0  0  0  0
    7.0476  -16.1915   21.8787 N   0  0  0  0  0  0  0  0  0  0  0  0
    8.1711  -15.3103   21.7090 C   0  0  1  0  0  0  0  0  0  0  0  0
    7.9658  -14.3232   20.5836 C   0  0  0  0  0  0  0  0  0  0  0  0
    8.4633  -14.8235   19.2599 C   0  0  0  0  0  0  0  0  0  0  0  0
    8.1233  -13.7544   18.2292 C   0  0  0  0  0  0  0  0  0  0  0  0
    8.5359  -14.2256   16.8518 C   0  0  0  0  0  0  0  0  0  0  0  0
    8.0203  -13.2975   15.8645 N   0  0  0  0  0  0  0  0  0  0  0  0
    8.3357  -14.5065   22.9447 C   0  0  0  0  0  0  0  0  0  0  0  0
    8.2480  -13.2566   22.8535 O   0  0  0  0  0  0  0  0  0  0  0  0
    5.9132  -12.1238   27.1117 C   0  0  0  0  0  0  0  0  0  0  0  0
    7.2892  -12.7888   26.9534 C   0  0  2  0  0  0  0  0  0  0  0  0
    8.2772  -11.6262   26.8277 C   0  0  0  0  0  0  0  0  0  0  0  0
    7.3062  -13.5808   25.6924 C   0  0  0  0  0  0  0  0  0  0  0  0
    8.5480  -14.3363   25.3959 C   0  0  2  0  0  0  0  0  0  0  0  0
    8.5860  -15.1024   24.2076 N   0  0  0  0  0  0  0  0  0  0  0  0
    8.7663  -15.2633   26.5731 C   0  0  0  0  0  0  0  0  0  0  0  0
    8.9725  -14.8245   27.7158 O   0  0  0  0  0  0  0  0  0  0  0  0
    8.7307  -16.6304   26.3455 O   0  0  0  0  0  0  0  0  0  0  0  0
  2  1  1  1
  3  2  1  0
  4  3  1  0
  5  6  2  0
  5  2  1  0
  7  5  1  0
  8  7  1  0
  9 10  1  0
  8  9  1  6
 10 11  1  0
 11 12  1  0
 12 13  1  0
 14 15  2  0
 14  8  1  0
 17 18  1  6
 17 16  1  0
 19 17  1  0
 20 19  1  1
 20 21  1  0
 21 14  1  0
 22 20  1  0
 23 22  2  0
 24 22  1  0
M  END
$$$$
