CKL.pdb
     RDKit          3D

 24 23  0  0  1  0  0  0  0  0999 V2000
    7.3078  -13.9813   18.4983 N   0  0  0  0  0  0  0  0  0  0  0  0
    8.3448  -14.5008   19.3621 C   0  0  1  0  0  0  0  0  0  0  0  0
    9.4174  -13.4511   19.6185 C   0  0  0  0  0  0  0  0  0  0  0  0
    8.6748  -11.9443   20.2947 S   0  0  0  0  0  0  0  0  0  0  0  0
    7.7188  -14.9468   20.6277 C   0  0  0  0  0  0  0  0  0  0  0  0
    6.5930  -14.4886   20.9456 O   0  0  0  0  0  0  0  0  0  0  0  0
    8.4277  -15.8777   21.4257 N   0  0  0  0  0  0  0  0  0  0  0  0
    7.8071  -16.4023   22.6121 C   0  0  1  0  0  0  0  0  0  0  0  0
    7.9499  -17.9024   22.7230 C   0  0  0  0  0  0  0  0  0  0  0  0
    7.3490  -18.4625   23.9781 C   0  0  0  0  0  0  0  0  0  0  0  0
    7.4756  -19.9781   23.8884 C   0  0  0  0  0  0  0  0  0  0  0  0
    6.8124  -20.6163   25.0893 C   0  0  0  0  0  0  0  0  0  0  0  0
    6.8694  -22.0579   24.9458 N   0  0  0  0  0  0  0  0  0  0  0  0
    8.4886  -15.8290   23.7982 C   0  0  0  0  0  0  0  0  0  0  0  0
    9.7416  -15.7414   23.7758 O   0  0  0  0  0  0  0  0  0  0  0  0
    7.8494  -11.7518   25.3831 C   0  0  0  0  0  0  0  0  0  0  0  0
    6.9046  -12.7722   26.0364 C   0  0  2  0  0  0  0  0  0  0  0  0
    6.0474  -11.9528   27.0046 C   0  0  0  0  0  0  0  0  0  0  0  0
    7.7098  -13.7559   26.8120 C   0  0  0  0  0  0  0  0  0  0  0  0
    8.4438  -14.7812   26.0304 C   0  0  2  0  0  0  0  0  0  0  0  0
    7.7741  -15.3838   24.9401 N   0  0  0  0  0  0  0  0  0  0  0  0
    8.8291  -15.8640   27.0163 C   0  0  0  0  0  0  0  0  0  0  0  0
    9.5099  -15.6129   28.0235 O   0  0  0  0  0  0  0  0  0  0  0  0
    8.4004  -17.1587   26.7677 O   0  0  0  0  0  0  0  0  0  0  0  0
  2  1  1  6
  3  2  1  0
  4  3  1  0
  5  6  2  0
  5  2  1  0
  7  5  1  0
  8  7  1  0
  9 10  1  0
  8  9  1  6
 10 11  1  0
 11 12  1  0
 12 13  1  0
 14 15  2  0
 14  8  1  0
 17 18  1  1
 17 16  1  0
 19 17  1  0
 20 19  1  1
 20 21  1  0
 21 14  1  0
 22 20  1  0
 23 22  2  0
 24 22  1  0
M  END
$$$$
