CKL.pdb
     RDKit          3D

 24 23  0  0  1  0  0  0  0  0999 V2000
    7.8457  -14.6822   18.2001 N   0  0  0  0  0  0  0  0  0  0  0  0
    8.4687  -14.1590   19.3958 C   0  0  1  0  0  0  0  0  0  0  0  0
    8.0155  -12.7310   19.6663 C   0  0  0  0  0  0  0  0  0  0  0  0
    9.0177  -11.5613   18.7143 S   0  0  0  0  0  0  0  0  0  0  0  0
    8.1306  -15.0516   20.5278 C   0  0  0  0  0  0  0  0  0  0  0  0
    6.9379  -15.4150   20.6824 O   0  0  0  0  0  0  0  0  0  0  0  0
    9.1795  -15.4557   21.3894 N   0  0  0  0  0  0  0  0  0  0  0  0
    8.8922  -16.3596   22.4702 C   0  0  1  0  0  0  0  0  0  0  0  0
    9.7174  -17.6234   22.4006 C   0  0  0  0  0  0  0  0  0  0  0  0
    9.4736  -18.5532   23.5522 C   0  0  0  0  0  0  0  0  0  0  0  0
   10.4219  -19.7322   23.3743 C   0  0  0  0  0  0  0  0  0  0  0  0
   10.2466  -20.7040   24.5208 C   0  0  0  0  0  0  0  0  0  0  0  0
   11.1524  -21.8202   24.3323 N   0  0  0  0  0  0  0  0  0  0  0  0
    9.2473  -15.6987   23.7497 C   0  0  0  0  0  0  0  0  0  0  0  0
   10.3979  -15.2072   23.8623 O   0  0  0  0  0  0  0  0  0  0  0  0
    7.5911  -11.9435   25.5993 C   0  0  0  0  0  0  0  0  0  0  0  0
    6.7712  -13.2160   25.8624 C   0  0  2  0  0  0  0  0  0  0  0  0
    5.5597  -12.7448   26.6709 C   0  0  0  0  0  0  0  0  0  0  0  0
    7.5771  -14.1524   26.6939 C   0  0  0  0  0  0  0  0  0  0  0  0
    8.6657  -14.8882   26.0052 C   0  0  2  0  0  0  0  0  0  0  0  0
    8.3362  -15.6085   24.8334 N   0  0  0  0  0  0  0  0  0  0  0  0
    9.2268  -15.8576   27.0241 C   0  0  0  0  0  0  0  0  0  0  0  0
    9.6826  -15.4664   28.1105 O   0  0  0  0  0  0  0  0  0  0  0  0
    9.2213  -17.2089   26.7146 O   0  0  0  0  0  0  0  0  0  0  0  0
  2  1  1  6
  3  2  1  0
  4  3  1  0
  5  6  2  0
  5  2  1  0
  7  5  1  0
  8  7  1  0
  9 10  1  0
  8  9  1  6
 10 11  1  0
 11 12  1  0
 12 13  1  0
 14 15  2  0
 14  8  1  0
 17 18  1  1
 17 16  1  0
 19 17  1  0
 20 19  1  1
 20 21  1  0
 21 14  1  0
 22 20  1  0
 23 22  2  0
 24 22  1  0
M  END
$$$$
