CKL.pdb
     RDKit          3D

 24 23  0  0  1  0  0  0  0  0999 V2000
   10.4527  -17.1620   19.1815 N   0  0  0  0  0  0  0  0  0  0  0  0
   10.5312  -17.4146   20.6033 C   0  0  1  0  0  0  0  0  0  0  0  0
   11.8657  -16.9463   21.1672 C   0  0  0  0  0  0  0  0  0  0  0  0
   12.0311  -17.4541   22.8974 S   0  0  0  0  0  0  0  0  0  0  0  0
    9.3994  -16.7251   21.2637 C   0  0  0  0  0  0  0  0  0  0  0  0
    9.2036  -15.5075   21.0237 O   0  0  0  0  0  0  0  0  0  0  0  0
    8.5850  -17.4803   22.1425 N   0  0  0  0  0  0  0  0  0  0  0  0
    7.5362  -16.8192   22.8710 C   0  0  1  0  0  0  0  0  0  0  0  0
    6.6302  -17.7922   23.5889 C   0  0  0  0  0  0  0  0  0  0  0  0
    7.3699  -18.9355   24.2180 C   0  0  0  0  0  0  0  0  0  0  0  0
    6.3200  -19.8618   24.8185 C   0  0  0  0  0  0  0  0  0  0  0  0
    6.9960  -21.0726   25.4240 C   0  0  0  0  0  0  0  0  0  0  0  0
    6.3256  -21.4132   26.6635 N   0  0  0  0  0  0  0  0  0  0  0  0
    8.1495  -15.9679   23.9195 C   0  0  0  0  0  0  0  0  0  0  0  0
    8.4751  -14.7940   23.6128 O   0  0  0  0  0  0  0  0  0  0  0  0
    8.4393  -12.4521   25.5558 C   0  0  0  0  0  0  0  0  0  0  0  0
    7.3704  -13.5414   25.7342 C   0  0  2  0  0  0  0  0  0  0  0  0
    6.1490  -12.8077   26.2940 C   0  0  0  0  0  0  0  0  0  0  0  0
    7.8463  -14.5319   26.7392 C   0  0  0  0  0  0  0  0  0  0  0  0
    8.8043  -15.5591   26.2618 C   0  0  2  0  0  0  0  0  0  0  0  0
    8.3748  -16.4368   25.2393 N   0  0  0  0  0  0  0  0  0  0  0  0
    9.1772  -16.3820   27.4770 C   0  0  0  0  0  0  0  0  0  0  0  0
    9.6404  -15.8549   28.5010 O   0  0  0  0  0  0  0  0  0  0  0  0
    8.9884  -17.7543   27.4217 O   0  0  0  0  0  0  0  0  0  0  0  0
  2  1  1  6
  3  2  1  0
  4  3  1  0
  5  6  2  0
  5  2  1  0
  7  5  1  0
  8  7  1  0
  9 10  1  0
  8  9  1  1
 10 11  1  0
 11 12  1  0
 12 13  1  0
 14 15  2  0
 14  8  1  0
 17 18  1  1
 17 16  1  0
 19 17  1  0
 20 19  1  1
 20 21  1  0
 21 14  1  0
 22 20  1  0
 23 22  2  0
 24 22  1  0
M  END
$$$$
