CKL.pdb
     RDKit          3D

 24 23  0  0  1  0  0  0  0  0999 V2000
    7.5894  -15.7137   18.0681 N   0  0  0  0  0  0  0  0  0  0  0  0
    8.1911  -15.0183   19.1843 C   0  0  1  0  0  0  0  0  0  0  0  0
    7.9893  -13.5142   19.0622 C   0  0  0  0  0  0  0  0  0  0  0  0
    8.7416  -12.6616   20.4716 S   0  0  0  0  0  0  0  0  0  0  0  0
    7.5946  -15.5388   20.4356 C   0  0  0  0  0  0  0  0  0  0  0  0
    6.3469  -15.6661   20.5092 O   0  0  0  0  0  0  0  0  0  0  0  0
    8.4694  -15.8706   21.4989 N   0  0  0  0  0  0  0  0  0  0  0  0
    7.9311  -16.4668   22.6915 C   0  0  1  0  0  0  0  0  0  0  0  0
    8.2048  -17.9508   22.7692 C   0  0  0  0  0  0  0  0  0  0  0  0
    7.6276  -18.5954   23.9945 C   0  0  0  0  0  0  0  0  0  0  0  0
    7.9071  -20.0886   23.8793 C   0  0  0  0  0  0  0  0  0  0  0  0
    7.2865  -20.8146   25.0529 C   0  0  0  0  0  0  0  0  0  0  0  0
    5.9854  -21.3179   24.6583 N   0  0  0  0  0  0  0  0  0  0  0  0
    8.5956  -15.8574   23.8693 C   0  0  0  0  0  0  0  0  0  0  0  0
    9.8501  -15.7902   23.8718 O   0  0  0  0  0  0  0  0  0  0  0  0
    7.6168  -11.8263   25.2509 C   0  0  0  0  0  0  0  0  0  0  0  0
    6.8397  -12.8767   26.0593 C   0  0  2  0  0  0  0  0  0  0  0  0
    5.9823  -12.0678   27.0361 C   0  0  0  0  0  0  0  0  0  0  0  0
    7.8033  -13.7090   26.8314 C   0  0  0  0  0  0  0  0  0  0  0  0
    8.5229  -14.7666   26.0800 C   0  0  2  0  0  0  0  0  0  0  0  0
    7.8636  -15.3560   24.9762 N   0  0  0  0  0  0  0  0  0  0  0  0
    8.8421  -15.8525   27.0858 C   0  0  0  0  0  0  0  0  0  0  0  0
    8.3994  -17.0053   26.9594 O   0  0  0  0  0  0  0  0  0  0  0  0
    9.6497  -15.5286   28.1651 O   0  0  0  0  0  0  0  0  0  0  0  0
  2  1  1  6
  3  2  1  0
  4  3  1  0
  5  6  2  0
  5  2  1  0
  7  5  1  0
  8  7  1  0
  9 10  1  0
  8  9  1  6
 10 11  1  0
 11 12  1  0
 12 13  1  0
 14 15  2  0
 14  8  1  0
 17 18  1  1
 17 16  1  0
 19 17  1  0
 20 19  1  1
 20 21  1  0
 21 14  1  0
 22 20  1  0
 23 22  2  0
 24 22  1  0
M  END
$$$$
