CKL.pdb
     RDKit          3D

 24 23  0  0  1  0  0  0  0  0999 V2000
    7.2218  -15.0020   18.4077 N   0  0  0  0  0  0  0  0  0  0  0  0
    7.9061  -14.5502   19.5990 C   0  0  1  0  0  0  0  0  0  0  0  0
    7.8013  -13.0387   19.7478 C   0  0  0  0  0  0  0  0  0  0  0  0
    9.1882  -12.2263   18.9137 S   0  0  0  0  0  0  0  0  0  0  0  0
    7.3188  -15.2452   20.7672 C   0  0  0  0  0  0  0  0  0  0  0  0
    6.0771  -15.1881   20.9496 O   0  0  0  0  0  0  0  0  0  0  0  0
    8.1953  -15.9471   21.6304 N   0  0  0  0  0  0  0  0  0  0  0  0
    7.6686  -16.5595   22.8200 C   0  0  1  0  0  0  0  0  0  0  0  0
    7.9626  -18.0401   22.8858 C   0  0  0  0  0  0  0  0  0  0  0  0
    7.4717  -18.6852   24.1479 C   0  0  0  0  0  0  0  0  0  0  0  0
    7.8501  -20.1586   24.0651 C   0  0  0  0  0  0  0  0  0  0  0  0
    7.3830  -20.8751   25.3133 C   0  0  0  0  0  0  0  0  0  0  0  0
    7.6387  -22.2943   25.1630 N   0  0  0  0  0  0  0  0  0  0  0  0
    8.3282  -15.9498   24.0004 C   0  0  0  0  0  0  0  0  0  0  0  0
    9.5839  -15.9433   24.0388 O   0  0  0  0  0  0  0  0  0  0  0  0
    8.2195  -11.6438   25.3600 C   0  0  0  0  0  0  0  0  0  0  0  0
    7.0465  -12.5165   25.8322 C   0  0  2  0  0  0  0  0  0  0  0  0
    6.1339  -11.5642   26.6093 C   0  0  0  0  0  0  0  0  0  0  0  0
    7.5594  -13.5636   26.7587 C   0  0  0  0  0  0  0  0  0  0  0  0
    8.2435  -14.7252   26.1394 C   0  0  2  0  0  0  0  0  0  0  0  0
    7.5903  -15.3827   25.0710 N   0  0  0  0  0  0  0  0  0  0  0  0
    8.4664  -15.7245   27.2550 C   0  0  0  0  0  0  0  0  0  0  0  0
    9.1335  -15.4363   28.2615 O   0  0  0  0  0  0  0  0  0  0  0  0
    7.9027  -16.9846   27.1277 O   0  0  0  0  0  0  0  0  0  0  0  0
  2  1  1  6
  3  2  1  0
  4  3  1  0
  5  6  2  0
  5  2  1  0
  7  5  1  0
  8  7  1  0
  9 10  1  0
  8  9  1  6
 10 11  1  0
 11 12  1  0
 12 13  1  0
 14 15  2  0
 14  8  1  0
 17 18  1  1
 17 16  1  0
 19 17  1  0
 20 19  1  1
 20 21  1  0
 21 14  1  0
 22 20  1  0
 23 22  2  0
 24 22  1  0
M  END
$$$$
