CKL.pdb
     RDKit          3D

 24 23  0  0  1  0  0  0  0  0999 V2000
    6.5260  -20.0490   23.0484 N   0  0  0  0  0  0  0  0  0  0  0  0
    6.0739  -18.7085   23.3488 C   0  0  1  0  0  0  0  0  0  0  0  0
    5.9007  -18.5150   24.8490 C   0  0  0  0  0  0  0  0  0  0  0  0
    7.2295  -19.3532   25.7494 S   0  0  0  0  0  0  0  0  0  0  0  0
    7.0562  -17.7488   22.7950 C   0  0  0  0  0  0  0  0  0  0  0  0
    8.2521  -18.1097   22.6611 O   0  0  0  0  0  0  0  0  0  0  0  0
    6.5941  -16.4580   22.4402 N   0  0  0  0  0  0  0  0  0  0  0  0
    7.5289  -15.4937   21.9265 C   0  0  1  0  0  0  0  0  0  0  0  0
    6.8442  -14.2776   21.3472 C   0  0  0  0  0  0  0  0  0  0  0  0
    7.7934  -13.3244   20.6836 C   0  0  0  0  0  0  0  0  0  0  0  0
    7.8735  -13.7320   19.2179 C   0  0  0  0  0  0  0  0  0  0  0  0
    8.9115  -12.8881   18.5108 C   0  0  0  0  0  0  0  0  0  0  0  0
    8.9901  -13.3051   17.1245 N   0  0  0  0  0  0  0  0  0  0  0  0
    8.3713  -15.0054   23.0455 C   0  0  0  0  0  0  0  0  0  0  0  0
    9.4058  -14.3502   22.7650 O   0  0  0  0  0  0  0  0  0  0  0  0
    7.5800  -11.6323   25.8194 C   0  0  0  0  0  0  0  0  0  0  0  0
    6.9169  -12.9925   26.0854 C   0  0  2  0  0  0  0  0  0  0  0  0
    5.9498  -12.7400   27.2450 C   0  0  0  0  0  0  0  0  0  0  0  0
    7.9567  -13.9652   26.5216 C   0  0  0  0  0  0  0  0  0  0  0  0
    8.7498  -14.6186   25.4516 C   0  0  2  0  0  0  0  0  0  0  0  0
    8.0450  -15.2549   24.4033 N   0  0  0  0  0  0  0  0  0  0  0  0
    9.6179  -15.6490   26.1426 C   0  0  0  0  0  0  0  0  0  0  0  0
    9.5567  -16.8531   25.8471 O   0  0  0  0  0  0  0  0  0  0  0  0
   10.4940  -15.2143   27.1251 O   0  0  0  0  0  0  0  0  0  0  0  0
  2  1  1  1
  3  2  1  0
  4  3  1  0
  5  6  2  0
  5  2  1  0
  7  5  1  0
  8  7  1  0
  9 10  1  0
  8  9  1  1
 10 11  1  0
 11 12  1  0
 12 13  1  0
 14 15  2  0
 14  8  1  0
 17 18  1  1
 17 16  1  0
 19 17  1  0
 20 19  1  1
 20 21  1  0
 21 14  1  0
 22 20  1  0
 23 22  2  0
 24 22  1  0
M  END
$$$$
