NCF.pdb
     RDKit          3D

 26 26  0  0  1  0  0  0  0  0999 V2000
    7.6290  -21.6494   19.7268 N   0  0  0  0  0  0  0  0  0  0  0  0
    8.3275  -21.5291   20.9569 C   0  0  0  0  0  0  0  0  0  0  0  0
    8.4979  -22.5153   21.6910 O   0  0  0  0  0  0  0  0  0  0  0  0
    8.8627  -20.2154   21.3921 C   0  0  0  0  0  0  0  0  0  0  0  0
    8.3086  -19.1630   20.4149 C   0  0  2  0  0  0  0  0  0  0  0  0
    8.9799  -19.4695   19.1354 N   0  0  0  0  0  0  0  0  0  0  0  0
    8.7604  -17.8219   20.8537 C   0  0  0  0  0  0  0  0  0  0  0  0
    9.8917  -17.3785   20.4724 O   0  0  0  0  0  0  0  0  0  0  0  0
    8.0292  -16.9417   21.6911 N   0  0  0  0  0  0  0  0  0  0  0  0
    8.5495  -15.6582   22.1122 C   0  0  1  0  0  0  0  0  0  0  0  0
    7.4312  -14.6400   21.9505 C   0  0  0  0  0  0  0  0  0  0  0  0
    7.8853  -13.0252   22.5729 S   0  0  0  0  0  0  0  0  0  0  0  0
    9.0741  -15.6733   23.4916 C   0  0  0  0  0  0  0  0  0  0  0  0
    8.2375  -15.9146   24.4170 O   0  0  0  0  0  0  0  0  0  0  0  0
   10.3976  -15.4471   23.8767 N   0  0  0  0  0  0  0  0  0  0  0  0
   10.8799  -15.5735   25.2392 C   0  0  1  0  0  0  0  0  0  0  0  0
    9.7842  -15.9352   26.2005 C   0  0  0  0  0  0  0  0  0  0  0  0
    9.2360  -14.6989   26.7933 C   0  0  0  0  0  0  0  0  0  0  0  0
    9.6418  -14.1510   27.9915 C   0  0  0  0  0  0  0  0  0  0  0  0
    9.1142  -13.0079   28.5153 C   0  0  0  0  0  0  0  0  0  0  0  0
    8.1296  -12.3362   27.8535 C   0  0  0  0  0  0  0  0  0  0  0  0
    7.6888  -12.8491   26.6447 C   0  0  0  0  0  0  0  0  0  0  0  0
    8.2368  -14.0046   26.1349 C   0  0  0  0  0  0  0  0  0  0  0  0
   12.0401  -16.4591   25.2394 C   0  0  0  0  0  0  0  0  0  0  0  0
   12.6476  -16.6920   26.3451 O   0  0  0  0  0  0  0  0  0  0  0  0
   12.5915  -17.1098   24.1506 O   0  0  0  0  0  0  0  0  0  0  0  0
  2  3  2  0
  2  1  1  0
  4  2  1  0
  5  4  1  0
  5  6  1  6
  7  5  1  0
  8  7  2  0
  9  7  1  0
 10  9  1  0
 10 11  1  1
 11 12  1  0
 13 15  1  0
 13 10  1  0
 14 13  2  0
 16 24  1  0
 16 15  1  0
 16 17  1  1
 17 18  1  0
 18 19  2  0
 18 23  1  0
 19 20  1  0
 20 21  2  0
 22 21  1  0
 23 22  2  0
 24 26  1  0
 25 24  2  0
M  END
$$$$
