NCF.pdb
     RDKit          3D

 26 26  0  0  1  0  0  0  0  0999 V2000
   12.2431  -20.7370   20.4230 N   0  0  0  0  0  0  0  0  0  0  0  0
   11.9360  -19.8305   19.3744 C   0  0  0  0  0  0  0  0  0  0  0  0
   11.8988  -20.2121   18.1940 O   0  0  0  0  0  0  0  0  0  0  0  0
   11.6595  -18.4033   19.6715 C   0  0  0  0  0  0  0  0  0  0  0  0
   10.6189  -18.3779   20.8055 C   0  0  2  0  0  0  0  0  0  0  0  0
    9.3833  -18.8829   20.1730 N   0  0  0  0  0  0  0  0  0  0  0  0
   10.3821  -16.9702   21.2023 C   0  0  0  0  0  0  0  0  0  0  0  0
   11.3634  -16.1631   21.2892 O   0  0  0  0  0  0  0  0  0  0  0  0
    9.1185  -16.4039   21.5077 N   0  0  0  0  0  0  0  0  0  0  0  0
    8.9750  -15.0658   22.0408 C   0  0  1  0  0  0  0  0  0  0  0  0
    7.6005  -14.5591   21.6313 C   0  0  0  0  0  0  0  0  0  0  0  0
    6.2793  -15.5820   22.2708 S   0  0  0  0  0  0  0  0  0  0  0  0
    9.1620  -15.0049   23.5034 C   0  0  0  0  0  0  0  0  0  0  0  0
    9.5598  -13.8968   23.9816 O   0  0  0  0  0  0  0  0  0  0  0  0
    8.9460  -16.0453   24.4100 N   0  0  0  0  0  0  0  0  0  0  0  0
    9.1935  -15.9445   25.8361 C   0  0  1  0  0  0  0  0  0  0  0  0
    7.9282  -15.7532   26.6221 C   0  0  0  0  0  0  0  0  0  0  0  0
    7.4996  -14.3446   26.5095 C   0  0  0  0  0  0  0  0  0  0  0  0
    8.2740  -13.2549   26.8461 C   0  0  0  0  0  0  0  0  0  0  0  0
    7.8491  -11.9641   26.7335 C   0  0  0  0  0  0  0  0  0  0  0  0
    6.5980  -11.6877   26.2676 C   0  0  0  0  0  0  0  0  0  0  0  0
    5.7829  -12.7512   25.9166 C   0  0  0  0  0  0  0  0  0  0  0  0
    6.2336  -14.0464   26.0382 C   0  0  0  0  0  0  0  0  0  0  0  0
   10.0266  -17.0721   26.2422 C   0  0  0  0  0  0  0  0  0  0  0  0
   10.2307  -18.0286   25.4118 O   0  0  0  0  0  0  0  0  0  0  0  0
   10.6538  -17.2476   27.4624 O   0  0  0  0  0  0  0  0  0  0  0  0
  2  3  2  0
  2  1  1  0
  4  2  1  0
  5  4  1  0
  5  6  1  6
  7  5  1  0
  8  7  2  0
  9  7  1  0
 10  9  1  0
 10 11  1  1
 11 12  1  0
 13 15  1  0
 13 10  1  0
 14 13  2  0
 16 24  1  0
 16 15  1  0
 16 17  1  1
 17 18  1  0
 18 19  2  0
 18 23  1  0
 19 20  1  0
 20 21  2  0
 22 21  1  0
 23 22  2  0
 24 26  1  0
 25 24  2  0
M  END
$$$$
