NCF.pdb
     RDKit          3D

 26 26  0  0  1  0  0  0  0  0999 V2000
    7.6139  -12.4763   17.7958 N   0  0  0  0  0  0  0  0  0  0  0  0
    8.4631  -13.1800   18.6898 C   0  0  0  0  0  0  0  0  0  0  0  0
    9.6667  -13.3389   18.4318 O   0  0  0  0  0  0  0  0  0  0  0  0
    7.9233  -13.7464   19.9505 C   0  0  0  0  0  0  0  0  0  0  0  0
    8.4293  -15.1975   20.0394 C   0  0  2  0  0  0  0  0  0  0  0  0
    7.5634  -15.9399   19.1010 N   0  0  0  0  0  0  0  0  0  0  0  0
    8.1640  -15.7110   21.4036 C   0  0  0  0  0  0  0  0  0  0  0  0
    6.9647  -15.8117   21.8203 O   0  0  0  0  0  0  0  0  0  0  0  0
    9.1523  -16.1213   22.3339 N   0  0  0  0  0  0  0  0  0  0  0  0
    8.8194  -16.7466   23.5962 C   0  0  1  0  0  0  0  0  0  0  0  0
    9.2735  -18.1962   23.5183 C   0  0  0  0  0  0  0  0  0  0  0  0
   11.0131  -18.3449   23.1280 S   0  0  0  0  0  0  0  0  0  0  0  0
    9.4125  -16.0541   24.7567 C   0  0  0  0  0  0  0  0  0  0  0  0
   10.5010  -15.4309   24.5535 O   0  0  0  0  0  0  0  0  0  0  0  0
    8.8946  -16.0191   26.0535 N   0  0  0  0  0  0  0  0  0  0  0  0
    9.5791  -15.4231   27.1856 C   0  0  1  0  0  0  0  0  0  0  0  0
    8.6430  -14.6662   28.0836 C   0  0  0  0  0  0  0  0  0  0  0  0
    7.9063  -13.6695   27.2809 C   0  0  0  0  0  0  0  0  0  0  0  0
    6.6544  -13.8634   26.7374 C   0  0  0  0  0  0  0  0  0  0  0  0
    5.9996  -12.9237   25.9973 C   0  0  0  0  0  0  0  0  0  0  0  0
    6.5753  -11.7119   25.7555 C   0  0  0  0  0  0  0  0  0  0  0  0
    7.8339  -11.4709   26.2815 C   0  0  0  0  0  0  0  0  0  0  0  0
    8.4757  -12.4345   27.0264 C   0  0  0  0  0  0  0  0  0  0  0  0
   10.3843  -16.4532   27.8344 C   0  0  0  0  0  0  0  0  0  0  0  0
   11.1433  -16.1264   28.8158 O   0  0  0  0  0  0  0  0  0  0  0  0
   10.4340  -17.7974   27.5126 O   0  0  0  0  0  0  0  0  0  0  0  0
  2  3  2  0
  2  1  1  0
  4  2  1  0
  5  4  1  0
  5  6  1  6
  7  5  1  0
  8  7  2  0
  9  7  1  0
 10  9  1  0
 10 11  1  6
 11 12  1  0
 13 15  1  0
 13 10  1  0
 14 13  2  0
 16 24  1  0
 16 15  1  0
 16 17  1  1
 17 18  1  0
 18 19  2  0
 18 23  1  0
 19 20  1  0
 20 21  2  0
 22 21  1  0
 23 22  2  0
 24 26  1  0
 25 24  2  0
M  END
$$$$
