NCF.pdb
     RDKit          3D

 26 26  0  0  1  0  0  0  0  0999 V2000
    7.5556  -13.0933   16.7727 N   0  0  0  0  0  0  0  0  0  0  0  0
    8.1592  -13.9660   17.7160 C   0  0  0  0  0  0  0  0  0  0  0  0
    9.1472  -14.6510   17.4078 O   0  0  0  0  0  0  0  0  0  0  0  0
    7.6131  -14.0804   19.0909 C   0  0  0  0  0  0  0  0  0  0  0  0
    8.2092  -15.3615   19.7017 C   0  0  2  0  0  0  0  0  0  0  0  0
    7.6952  -16.4453   18.8398 N   0  0  0  0  0  0  0  0  0  0  0  0
    7.6404  -15.5517   21.0565 C   0  0  0  0  0  0  0  0  0  0  0  0
    7.6572  -14.5899   21.8911 O   0  0  0  0  0  0  0  0  0  0  0  0
    7.0519  -16.7476   21.5402 N   0  0  0  0  0  0  0  0  0  0  0  0
    6.7303  -16.9455   22.9376 C   0  0  1  0  0  0  0  0  0  0  0  0
    6.0326  -18.2918   23.0566 C   0  0  0  0  0  0  0  0  0  0  0  0
    5.9030  -18.8442   24.7533 S   0  0  0  0  0  0  0  0  0  0  0  0
    7.9123  -16.8674   23.8179 C   0  0  0  0  0  0  0  0  0  0  0  0
    8.9921  -17.3635   23.3677 O   0  0  0  0  0  0  0  0  0  0  0  0
    7.9579  -16.3036   25.0950 N   0  0  0  0  0  0  0  0  0  0  0  0
    9.1809  -16.0938   25.8470 C   0  0  1  0  0  0  0  0  0  0  0  0
    9.5890  -14.6488   25.8799 C   0  0  0  0  0  0  0  0  0  0  0  0
    8.4735  -13.8456   26.4194 C   0  0  0  0  0  0  0  0  0  0  0  0
    7.3415  -13.4942   25.7156 C   0  0  0  0  0  0  0  0  0  0  0  0
    6.3280  -12.7482   26.2408 C   0  0  0  0  0  0  0  0  0  0  0  0
    6.3942  -12.3032   27.5277 C   0  0  0  0  0  0  0  0  0  0  0  0
    7.5136  -12.6314   28.2747 C   0  0  0  0  0  0  0  0  0  0  0  0
    8.5243  -13.3864   27.7235 C   0  0  0  0  0  0  0  0  0  0  0  0
    9.0418  -16.7421   27.1473 C   0  0  0  0  0  0  0  0  0  0  0  0
    7.9202  -17.2812   27.4594 O   0  0  0  0  0  0  0  0  0  0  0  0
   10.0092  -16.8558   28.1292 O   0  0  0  0  0  0  0  0  0  0  0  0
  2  3  2  0
  2  1  1  0
  4  2  1  0
  5  4  1  0
  5  6  1  6
  7  5  1  0
  8  7  2  0
  9  7  1  0
 10  9  1  0
 10 11  1  6
 11 12  1  0
 13 15  1  0
 13 10  1  0
 14 13  2  0
 16 24  1  0
 16 15  1  0
 16 17  1  1
 17 18  1  0
 18 19  2  0
 18 23  1  0
 19 20  1  0
 20 21  2  0
 22 21  1  0
 23 22  2  0
 24 26  1  0
 25 24  2  0
M  END
$$$$
