NCF.pdb
     RDKit          3D

 26 26  0  0  1  0  0  0  0  0999 V2000
   13.5145  -19.3651   19.7127 N   0  0  0  0  0  0  0  0  0  0  0  0
   12.3218  -18.9929   19.0385 C   0  0  0  0  0  0  0  0  0  0  0  0
   11.8663  -19.6912   18.1190 O   0  0  0  0  0  0  0  0  0  0  0  0
   11.5991  -17.7538   19.4179 C   0  0  0  0  0  0  0  0  0  0  0  0
   10.9328  -18.0259   20.7786 C   0  0  2  0  0  0  0  0  0  0  0  0
    9.7140  -18.7875   20.4380 N   0  0  0  0  0  0  0  0  0  0  0  0
   10.5099  -16.7339   21.3679 C   0  0  0  0  0  0  0  0  0  0  0  0
   11.3836  -15.8536   21.6571 O   0  0  0  0  0  0  0  0  0  0  0  0
    9.1725  -16.3599   21.6544 N   0  0  0  0  0  0  0  0  0  0  0  0
    8.8366  -15.1071   22.2970 C   0  0  1  0  0  0  0  0  0  0  0  0
    7.3897  -14.7923   21.9493 C   0  0  0  0  0  0  0  0  0  0  0  0
    6.7325  -13.4444   22.9251 S   0  0  0  0  0  0  0  0  0  0  0  0
    9.0504  -15.1326   23.7571 C   0  0  0  0  0  0  0  0  0  0  0  0
    8.8058  -14.0570   24.3879 O   0  0  0  0  0  0  0  0  0  0  0  0
    9.4959  -16.2216   24.5099 N   0  0  0  0  0  0  0  0  0  0  0  0
    9.7312  -16.1778   25.9409 C   0  0  1  0  0  0  0  0  0  0  0  0
    8.4611  -15.9983   26.7221 C   0  0  0  0  0  0  0  0  0  0  0  0
    8.1381  -14.5591   26.7919 C   0  0  0  0  0  0  0  0  0  0  0  0
    8.8892  -13.6131   27.4563 C   0  0  0  0  0  0  0  0  0  0  0  0
    8.5635  -12.2899   27.5053 C   0  0  0  0  0  0  0  0  0  0  0  0
    7.4431  -11.8314   26.8783 C   0  0  0  0  0  0  0  0  0  0  0  0
    6.6562  -12.7457   26.1974 C   0  0  0  0  0  0  0  0  0  0  0  0
    7.0053  -14.0770   26.1609 C   0  0  0  0  0  0  0  0  0  0  0  0
   10.5448  -17.3315   26.3118 C   0  0  0  0  0  0  0  0  0  0  0  0
   10.8880  -17.4850   27.5384 O   0  0  0  0  0  0  0  0  0  0  0  0
   11.0123  -18.3258   25.4717 O   0  0  0  0  0  0  0  0  0  0  0  0
  2  3  2  0
  2  1  1  0
  4  2  1  0
  5  4  1  0
  5  6  1  6
  7  5  1  0
  8  7  2  0
  9  7  1  0
 10  9  1  0
 10 11  1  1
 11 12  1  0
 13 15  1  0
 13 10  1  0
 14 13  2  0
 16 24  1  0
 16 15  1  0
 16 17  1  1
 17 18  1  0
 18 19  2  0
 18 23  1  0
 19 20  1  0
 20 21  2  0
 22 21  1  0
 23 22  2  0
 24 26  1  0
 25 24  2  0
M  END
$$$$
