NCF.pdb
     RDKit          3D

 26 26  0  0  1  0  0  0  0  0999 V2000
   11.1665  -15.5948   16.7775 N   0  0  0  0  0  0  0  0  0  0  0  0
   10.4424  -16.6687   17.3590 C   0  0  0  0  0  0  0  0  0  0  0  0
   10.5927  -17.8316   16.9521 O   0  0  0  0  0  0  0  0  0  0  0  0
    9.4840  -16.4181   18.4636 C   0  0  0  0  0  0  0  0  0  0  0  0
   10.1833  -16.8477   19.7660 C   0  0  2  0  0  0  0  0  0  0  0  0
   10.1849  -18.3234   19.7050 N   0  0  0  0  0  0  0  0  0  0  0  0
    9.3398  -16.4425   20.9147 C   0  0  0  0  0  0  0  0  0  0  0  0
    9.0735  -15.2112   21.1017 O   0  0  0  0  0  0  0  0  0  0  0  0
    8.7722  -17.3244   21.8689 N   0  0  0  0  0  0  0  0  0  0  0  0
    8.0662  -16.8515   23.0408 C   0  0  1  0  0  0  0  0  0  0  0  0
    6.8314  -17.7236   23.2094 C   0  0  0  0  0  0  0  0  0  0  0  0
    6.1189  -17.5865   24.8447 S   0  0  0  0  0  0  0  0  0  0  0  0
    8.9018  -16.8535   24.2572 C   0  0  0  0  0  0  0  0  0  0  0  0
    9.1941  -17.9893   24.7462 O   0  0  0  0  0  0  0  0  0  0  0  0
    9.3998  -15.7303   24.9216 N   0  0  0  0  0  0  0  0  0  0  0  0
    9.5419  -15.6355   26.3625 C   0  0  1  0  0  0  0  0  0  0  0  0
    8.2220  -15.4499   27.0545 C   0  0  0  0  0  0  0  0  0  0  0  0
    7.6441  -14.1529   26.6493 C   0  0  0  0  0  0  0  0  0  0  0  0
    8.3360  -12.9616   26.6000 C   0  0  0  0  0  0  0  0  0  0  0  0
    7.7736  -11.7777   26.2238 C   0  0  0  0  0  0  0  0  0  0  0  0
    6.4586  -11.7206   25.8687 C   0  0  0  0  0  0  0  0  0  0  0  0
    5.7221  -12.8932   25.9029 C   0  0  0  0  0  0  0  0  0  0  0  0
    6.3114  -14.0772   26.2855 C   0  0  0  0  0  0  0  0  0  0  0  0
   10.3453  -16.7636   26.8235 C   0  0  0  0  0  0  0  0  0  0  0  0
   11.6240  -16.6911   26.7493 O   0  0  0  0  0  0  0  0  0  0  0  0
    9.8826  -17.9534   27.3558 O   0  0  0  0  0  0  0  0  0  0  0  0
  2  3  2  0
  2  1  1  0
  4  2  1  0
  5  4  1  0
  5  6  1  6
  7  5  1  0
  8  7  2  0
  9  7  1  0
 10  9  1  0
 10 11  1  1
 11 12  1  0
 13 15  1  0
 13 10  1  0
 14 13  2  0
 16 24  1  0
 16 15  1  0
 16 17  1  1
 17 18  1  0
 18 19  2  0
 18 23  1  0
 19 20  1  0
 20 21  2  0
 22 21  1  0
 23 22  2  0
 24 26  1  0
 25 24  2  0
M  END
$$$$
