NCF.pdb
     RDKit          3D

 26 26  0  0  1  0  0  0  0  0999 V2000
    7.7638  -12.3709   17.5524 N   0  0  0  0  0  0  0  0  0  0  0  0
    8.4605  -13.2179   18.4540 C   0  0  0  0  0  0  0  0  0  0  0  0
    9.6207  -13.5870   18.2126 O   0  0  0  0  0  0  0  0  0  0  0  0
    7.8090  -13.6847   19.7027 C   0  0  0  0  0  0  0  0  0  0  0  0
    8.1668  -15.1733   19.8621 C   0  0  2  0  0  0  0  0  0  0  0  0
    7.2825  -15.8622   18.9004 N   0  0  0  0  0  0  0  0  0  0  0  0
    7.7832  -15.6114   21.2245 C   0  0  0  0  0  0  0  0  0  0  0  0
    6.6677  -15.2442   21.7172 O   0  0  0  0  0  0  0  0  0  0  0  0
    8.5649  -16.4354   22.0734 N   0  0  0  0  0  0  0  0  0  0  0  0
    8.0964  -16.8841   23.3674 C   0  0  1  0  0  0  0  0  0  0  0  0
    8.2214  -18.3997   23.3948 C   0  0  0  0  0  0  0  0  0  0  0  0
    9.9230  -18.9408   23.5067 S   0  0  0  0  0  0  0  0  0  0  0  0
    8.8211  -16.2596   24.4912 C   0  0  0  0  0  0  0  0  0  0  0  0
   10.0109  -15.8779   24.2604 O   0  0  0  0  0  0  0  0  0  0  0  0
    8.3270  -16.0498   25.7807 N   0  0  0  0  0  0  0  0  0  0  0  0
    9.1254  -15.5525   26.8855 C   0  0  1  0  0  0  0  0  0  0  0  0
    8.3199  -14.7201   27.8414 C   0  0  0  0  0  0  0  0  0  0  0  0
    7.6060  -13.6726   27.0842 C   0  0  0  0  0  0  0  0  0  0  0  0
    6.2625  -13.6985   26.7762 C   0  0  0  0  0  0  0  0  0  0  0  0
    5.6310  -12.7162   26.0721 C   0  0  0  0  0  0  0  0  0  0  0  0
    6.3256  -11.6304   25.6280 C   0  0  0  0  0  0  0  0  0  0  0  0
    7.6792  -11.5603   25.9134 C   0  0  0  0  0  0  0  0  0  0  0  0
    8.2954  -12.5639   26.6266 C   0  0  0  0  0  0  0  0  0  0  0  0
    9.8477  -16.6747   27.4766 C   0  0  0  0  0  0  0  0  0  0  0  0
   10.7060  -16.4466   28.4025 O   0  0  0  0  0  0  0  0  0  0  0  0
    9.7173  -18.0129   27.1524 O   0  0  0  0  0  0  0  0  0  0  0  0
  2  3  2  0
  2  1  1  0
  4  2  1  0
  5  4  1  0
  5  6  1  6
  7  5  1  0
  8  7  2  0
  9  7  1  0
 10  9  1  0
 10 11  1  6
 11 12  1  0
 13 15  1  0
 13 10  1  0
 14 13  2  0
 16 24  1  0
 16 15  1  0
 16 17  1  1
 17 18  1  0
 18 19  2  0
 18 23  1  0
 19 20  1  0
 20 21  2  0
 22 21  1  0
 23 22  2  0
 24 26  1  0
 25 24  2  0
M  END
$$$$
