NCF.pdb
     RDKit          3D

 26 26  0  0  1  0  0  0  0  0999 V2000
    4.4372  -20.2982   19.0346 N   0  0  0  0  0  0  0  0  0  0  0  0
    5.8448  -20.1687   19.1680 C   0  0  0  0  0  0  0  0  0  0  0  0
    6.5671  -21.1705   19.2910 O   0  0  0  0  0  0  0  0  0  0  0  0
    6.4794  -18.8275   19.1697 C   0  0  0  0  0  0  0  0  0  0  0  0
    7.1980  -18.6765   20.5226 C   0  0  2  0  0  0  0  0  0  0  0  0
    6.1035  -18.6728   21.5144 N   0  0  0  0  0  0  0  0  0  0  0  0
    7.8543  -17.3489   20.5670 C   0  0  0  0  0  0  0  0  0  0  0  0
    8.8740  -17.1218   19.8386 O   0  0  0  0  0  0  0  0  0  0  0  0
    7.4444  -16.2561   21.3723 N   0  0  0  0  0  0  0  0  0  0  0  0
    8.1933  -15.0194   21.4437 C   0  0  1  0  0  0  0  0  0  0  0  0
    7.2679  -13.9015   20.9884 C   0  0  0  0  0  0  0  0  0  0  0  0
    8.1052  -12.3238   20.8851 S   0  0  0  0  0  0  0  0  0  0  0  0
    8.7430  -14.7551   22.7875 C   0  0  0  0  0  0  0  0  0  0  0  0
    9.5029  -13.7433   22.9037 O   0  0  0  0  0  0  0  0  0  0  0  0
    8.5102  -15.5087   23.9403 N   0  0  0  0  0  0  0  0  0  0  0  0
    9.3319  -15.4414   25.1343 C   0  0  1  0  0  0  0  0  0  0  0  0
    8.5150  -15.2354   26.3775 C   0  0  0  0  0  0  0  0  0  0  0  0
    7.7319  -13.9912   26.2385 C   0  0  0  0  0  0  0  0  0  0  0  0
    6.4039  -13.9312   25.8736 C   0  0  0  0  0  0  0  0  0  0  0  0
    5.7074  -12.7653   25.7508 C   0  0  0  0  0  0  0  0  0  0  0  0
    6.3160  -11.5695   25.9917 C   0  0  0  0  0  0  0  0  0  0  0  0
    7.6509  -11.5795   26.3614 C   0  0  0  0  0  0  0  0  0  0  0  0
    8.3338  -12.7691   26.4797 C   0  0  0  0  0  0  0  0  0  0  0  0
   10.2246  -16.5961   25.1476 C   0  0  0  0  0  0  0  0  0  0  0  0
   11.0470  -16.7383   26.1220 O   0  0  0  0  0  0  0  0  0  0  0  0
   10.2988  -17.6026   24.2019 O   0  0  0  0  0  0  0  0  0  0  0  0
  2  3  2  0
  2  1  1  0
  4  2  1  0
  5  4  1  0
  5  6  1  1
  7  5  1  0
  8  7  2  0
  9  7  1  0
 10  9  1  0
 10 11  1  1
 11 12  1  0
 13 15  1  0
 13 10  1  0
 14 13  2  0
 16 24  1  0
 16 15  1  0
 16 17  1  1
 17 18  1  0
 18 19  2  0
 18 23  1  0
 19 20  1  0
 20 21  2  0
 22 21  1  0
 23 22  2  0
 24 26  1  0
 25 24  2  0
M  END
$$$$
