NCF.pdb
     RDKit          3D

 26 26  0  0  1  0  0  0  0  0999 V2000
    8.2117  -13.2381   16.0506 N   0  0  0  0  0  0  0  0  0  0  0  0
    8.0749  -14.6328   16.2781 C   0  0  0  0  0  0  0  0  0  0  0  0
    8.3898  -15.4541   15.4024 O   0  0  0  0  0  0  0  0  0  0  0  0
    7.5447  -15.1354   17.5695 C   0  0  0  0  0  0  0  0  0  0  0  0
    8.5970  -14.8030   18.6426 C   0  0  2  0  0  0  0  0  0  0  0  0
    9.6154  -15.8618   18.4899 N   0  0  0  0  0  0  0  0  0  0  0  0
    7.9783  -14.9588   19.9798 C   0  0  0  0  0  0  0  0  0  0  0  0
    6.7101  -14.9455   20.0963 O   0  0  0  0  0  0  0  0  0  0  0  0
    8.6847  -15.1302   21.1972 N   0  0  0  0  0  0  0  0  0  0  0  0
    8.0420  -15.5878   22.4109 C   0  0  1  0  0  0  0  0  0  0  0  0
    7.3264  -16.8892   22.0826 C   0  0  0  0  0  0  0  0  0  0  0  0
    6.4997  -17.5897   23.5062 S   0  0  0  0  0  0  0  0  0  0  0  0
    8.9843  -15.7554   23.5343 C   0  0  0  0  0  0  0  0  0  0  0  0
    9.7936  -16.7322   23.4587 O   0  0  0  0  0  0  0  0  0  0  0  0
    9.0710  -14.9469   24.6700 N   0  0  0  0  0  0  0  0  0  0  0  0
    9.3623  -15.4450   26.0013 C   0  0  1  0  0  0  0  0  0  0  0  0
    8.1899  -15.3090   26.9299 C   0  0  0  0  0  0  0  0  0  0  0  0
    7.6573  -13.9350   26.8350 C   0  0  0  0  0  0  0  0  0  0  0  0
    8.4267  -12.7957   26.7326 C   0  0  0  0  0  0  0  0  0  0  0  0
    7.9053  -11.5385   26.6491 C   0  0  0  0  0  0  0  0  0  0  0  0
    6.5553  -11.3490   26.6643 C   0  0  0  0  0  0  0  0  0  0  0  0
    5.7410  -12.4649   26.7662 C   0  0  0  0  0  0  0  0  0  0  0  0
    6.2899  -13.7248   26.8485 C   0  0  0  0  0  0  0  0  0  0  0  0
    9.9222  -16.7875   25.8810 C   0  0  0  0  0  0  0  0  0  0  0  0
    9.5837  -17.5180   24.8821 O   0  0  0  0  0  0  0  0  0  0  0  0
   10.8126  -17.3992   26.7447 O   0  0  0  0  0  0  0  0  0  0  0  0
  2  3  2  0
  2  1  1  0
  4  2  1  0
  5  4  1  0
  5  6  1  1
  7  5  1  0
  8  7  2  0
  9  7  1  0
 10  9  1  0
 10 11  1  6
 11 12  1  0
 13 15  1  0
 13 10  1  0
 14 13  2  0
 16 24  1  0
 16 15  1  0
 16 17  1  1
 17 18  1  0
 18 19  2  0
 18 23  1  0
 19 20  1  0
 20 21  2  0
 22 21  1  0
 23 22  2  0
 24 26  1  0
 25 24  2  0
M  END
$$$$
