NCF.pdb
     RDKit          3D

 26 26  0  0  1  0  0  0  0  0999 V2000
    2.5522  -19.9989   22.0096 N   0  0  0  0  0  0  0  0  0  0  0  0
    3.5114  -20.0341   20.9634 C   0  0  0  0  0  0  0  0  0  0  0  0
    3.1904  -20.3867   19.8175 O   0  0  0  0  0  0  0  0  0  0  0  0
    4.9220  -19.6548   21.2239 C   0  0  0  0  0  0  0  0  0  0  0  0
    4.9172  -18.1678   21.6216 C   0  0  2  0  0  0  0  0  0  0  0  0
    4.4386  -17.4716   20.4101 N   0  0  0  0  0  0  0  0  0  0  0  0
    6.3129  -17.7373   21.8700 C   0  0  0  0  0  0  0  0  0  0  0  0
    7.1131  -18.5100   22.4902 O   0  0  0  0  0  0  0  0  0  0  0  0
    6.8746  -16.4986   21.4690 N   0  0  0  0  0  0  0  0  0  0  0  0
    8.2235  -16.1073   21.8193 C   0  0  1  0  0  0  0  0  0  0  0  0
    8.6711  -15.0646   20.8064 C   0  0  0  0  0  0  0  0  0  0  0  0
    7.3883  -13.8707   20.4459 S   0  0  0  0  0  0  0  0  0  0  0  0
    8.3371  -15.6042   23.2020 C   0  0  0  0  0  0  0  0  0  0  0  0
    7.6614  -14.5669   23.4885 O   0  0  0  0  0  0  0  0  0  0  0  0
    9.1148  -16.1559   24.2227 N   0  0  0  0  0  0  0  0  0  0  0  0
    8.9941  -15.7930   25.6223 C   0  0  1  0  0  0  0  0  0  0  0  0
    7.5625  -15.7141   26.0693 C   0  0  0  0  0  0  0  0  0  0  0  0
    7.2242  -14.3054   26.3550 C   0  0  0  0  0  0  0  0  0  0  0  0
    6.0042  -13.7185   26.0950 C   0  0  0  0  0  0  0  0  0  0  0  0
    5.7221  -12.4126   26.3680 C   0  0  0  0  0  0  0  0  0  0  0  0
    6.6669  -11.6052   26.9282 C   0  0  0  0  0  0  0  0  0  0  0  0
    7.9090  -12.1509   27.2075 C   0  0  0  0  0  0  0  0  0  0  0  0
    8.1710  -13.4723   26.9239 C   0  0  0  0  0  0  0  0  0  0  0  0
    9.8540  -16.6751   26.4051 C   0  0  0  0  0  0  0  0  0  0  0  0
   10.2476  -17.7821   25.8896 O   0  0  0  0  0  0  0  0  0  0  0  0
   10.3210  -16.4590   27.6890 O   0  0  0  0  0  0  0  0  0  0  0  0
  2  3  2  0
  2  1  1  0
  4  2  1  0
  5  4  1  0
  5  6  1  6
  7  5  1  0
  8  7  2  0
  9  7  1  0
 10  9  1  0
 10 11  1  6
 11 12  1  0
 13 15  1  0
 13 10  1  0
 14 13  2  0
 16 24  1  0
 16 15  1  0
 16 17  1  1
 17 18  1  0
 18 19  2  0
 18 23  1  0
 19 20  1  0
 20 21  2  0
 22 21  1  0
 23 22  2  0
 24 26  1  0
 25 24  2  0
M  END
$$$$
