NCF.pdb
     RDKit          3D

 26 26  0  0  1  0  0  0  0  0999 V2000
    9.1370  -12.7850   17.8924 N   0  0  0  0  0  0  0  0  0  0  0  0
    7.8923  -13.4654   17.8347 C   0  0  0  0  0  0  0  0  0  0  0  0
    7.2135  -13.4631   16.7956 O   0  0  0  0  0  0  0  0  0  0  0  0
    7.3752  -14.1887   19.0225 C   0  0  0  0  0  0  0  0  0  0  0  0
    8.3421  -13.8890   20.1822 C   0  0  2  0  0  0  0  0  0  0  0  0
    9.6660  -14.2833   19.6595 N   0  0  0  0  0  0  0  0  0  0  0  0
    8.0172  -14.7856   21.3161 C   0  0  0  0  0  0  0  0  0  0  0  0
    6.8750  -14.7118   21.8748 O   0  0  0  0  0  0  0  0  0  0  0  0
    8.8856  -15.7618   21.8668 N   0  0  0  0  0  0  0  0  0  0  0  0
    8.5057  -16.5971   22.9864 C   0  0  1  0  0  0  0  0  0  0  0  0
    9.0172  -18.0005   22.6998 C   0  0  0  0  0  0  0  0  0  0  0  0
   10.6561  -17.9947   21.9821 S   0  0  0  0  0  0  0  0  0  0  0  0
    9.0059  -16.0909   24.2792 C   0  0  0  0  0  0  0  0  0  0  0  0
   10.0690  -15.3954   24.2463 O   0  0  0  0  0  0  0  0  0  0  0  0
    8.4260  -16.3032   25.5321 N   0  0  0  0  0  0  0  0  0  0  0  0
    8.9534  -15.7667   26.7727 C   0  0  1  0  0  0  0  0  0  0  0  0
    7.9039  -15.0559   27.5781 C   0  0  0  0  0  0  0  0  0  0  0  0
    7.4909  -13.8338   26.8594 C   0  0  0  0  0  0  0  0  0  0  0  0
    8.2536  -12.6914   26.7424 C   0  0  0  0  0  0  0  0  0  0  0  0
    7.8435  -11.5760   26.0737 C   0  0  0  0  0  0  0  0  0  0  0  0
    6.6204  -11.5427   25.4725 C   0  0  0  0  0  0  0  0  0  0  0  0
    5.8180  -12.6681   25.5633 C   0  0  0  0  0  0  0  0  0  0  0  0
    6.2533  -13.7832   26.2433 C   0  0  0  0  0  0  0  0  0  0  0  0
    9.6729  -16.8294   27.4678 C   0  0  0  0  0  0  0  0  0  0  0  0
   10.4122  -16.5293   28.4725 O   0  0  0  0  0  0  0  0  0  0  0  0
    9.6570  -18.1798   27.1690 O   0  0  0  0  0  0  0  0  0  0  0  0
  2  3  2  0
  2  1  1  0
  4  2  1  0
  5  4  1  0
  5  6  1  6
  7  5  1  0
  8  7  2  0
  9  7  1  0
 10  9  1  0
 10 11  1  6
 11 12  1  0
 13 15  1  0
 13 10  1  0
 14 13  2  0
 16 24  1  0
 16 15  1  0
 16 17  1  1
 17 18  1  0
 18 19  2  0
 18 23  1  0
 19 20  1  0
 20 21  2  0
 22 21  1  0
 23 22  2  0
 24 26  1  0
 25 24  2  0
M  END
$$$$
