QTR.pdb
     RDKit          3D

 28 27  0  0  1  0  0  0  0  0999 V2000
   32.3115  -24.8971  -18.6296 N   0  0  0  0  0  0  0  0  0  0  0  0
   31.8496  -25.3454  -17.3320 C   0  0  0  0  0  0  0  0  0  0  0  0
   32.4594  -26.3627  -16.9118 O   0  0  0  0  0  0  0  0  0  0  0  0
   30.7724  -24.6359  -16.6272 C   0  0  0  0  0  0  0  0  0  0  0  0
   29.3867  -24.9458  -17.0348 C   0  0  0  0  0  0  0  0  0  0  0  0
   28.5065  -23.8099  -17.4108 C   0  0  2  0  0  0  0  0  0  0  0  0
   28.4354  -22.7495  -16.4416 N   0  0  0  0  0  0  0  0  0  0  0  0
   27.1109  -24.2438  -17.7162 C   0  0  0  0  0  0  0  0  0  0  0  0
   26.8994  -25.1803  -18.5313 O   0  0  0  0  0  0  0  0  0  0  0  0
   23.1383  -26.0048  -16.5658 C   0  0  0  0  0  0  0  0  0  0  0  0
   24.5397  -25.5068  -16.7367 C   0  0  1  0  0  0  0  0  0  0  0  0
   25.2302  -26.4610  -17.4949 O   0  0  0  0  0  0  0  0  0  0  0  0
   24.6148  -24.1303  -17.3661 C   0  0  2  0  0  0  0  0  0  0  0  0
   25.9638  -23.6550  -17.1324 N   0  0  0  0  0  0  0  0  0  0  0  0
   23.5935  -23.2116  -16.8346 C   0  0  0  0  0  0  0  0  0  0  0  0
   23.8192  -22.4466  -15.8538 O   0  0  0  0  0  0  0  0  0  0  0  0
   20.7949  -20.2009  -10.4838 N   0  0  0  0  0  0  0  0  0  0  0  0
   19.5900  -20.1082  -11.2202 C   0  0  0  0  0  0  0  0  0  0  0  0
   18.5392  -19.6423  -10.6515 N   0  0  0  0  0  0  0  0  0  0  0  0
   19.4657  -20.5037  -12.5776 N   0  0  0  0  0  0  0  0  0  0  0  0
   20.5670  -21.1092  -13.2403 C   0  0  0  0  0  0  0  0  0  0  0  0
   20.3669  -21.2805  -14.7357 C   0  0  0  0  0  0  0  0  0  0  0  0
   21.4422  -22.0832  -15.3681 C   0  0  0  0  0  0  0  0  0  0  0  0
   21.2612  -22.2134  -16.8589 C   0  0  2  0  0  0  0  0  0  0  0  0
   22.2927  -23.1301  -17.3925 N   0  0  0  0  0  0  0  0  0  0  0  0
   21.4992  -20.9063  -17.4949 C   0  0  0  0  0  0  0  0  0  0  0  0
   20.7369  -19.7732  -17.3061 O   0  0  0  0  0  0  0  0  0  0  0  0
   22.4740  -20.7823  -18.2858 O   0  0  0  0  0  0  0  0  0  0  0  0
  2  3  2  0
  2  1  1  0
  4  2  1  0
  5  4  1  0
  6  5  1  0
  6  7  1  1
  8 14  1  0
  8  6  1  0
  9  8  2  0
 11 10  1  6
 12 11  1  0
 13 11  1  0
 13 14  1  1
 15 13  1  0
 16 15  2  0
 18 17  1  0
 18 19  2  0
 20 18  1  0
 21 20  1  0
 22 21  1  0
 23 22  1  0
 24 23  1  1
 24 25  1  0
 25 15  1  0
 26 24  1  0
 26 27  1  0
 28 26  2  0
M  END
$$$$
