QTR.pdb
     RDKit          3D

 28 27  0  0  1  0  0  0  0  0999 V2000
   29.1307  -19.4224  -12.8494 N   0  0  0  0  0  0  0  0  0  0  0  0
   29.4686  -20.5896  -12.0611 C   0  0  0  0  0  0  0  0  0  0  0  0
   30.7007  -20.8449  -12.0545 O   0  0  0  0  0  0  0  0  0  0  0  0
   28.4277  -21.3551  -11.3604 C   0  0  0  0  0  0  0  0  0  0  0  0
   27.0403  -20.8608  -11.4750 C   0  0  0  0  0  0  0  0  0  0  0  0
   26.2674  -21.2451  -12.6838 C   0  0  2  0  0  0  0  0  0  0  0  0
   26.8449  -20.8267  -13.9329 N   0  0  0  0  0  0  0  0  0  0  0  0
   24.8589  -20.7513  -12.6437 C   0  0  0  0  0  0  0  0  0  0  0  0
   24.6179  -19.5153  -12.6285 O   0  0  0  0  0  0  0  0  0  0  0  0
   23.1984  -19.1755  -14.0744 C   0  0  0  0  0  0  0  0  0  0  0  0
   22.2887  -20.3637  -14.0312 C   0  0  1  0  0  0  0  0  0  0  0  0
   22.6100  -21.1732  -15.1282 O   0  0  0  0  0  0  0  0  0  0  0  0
   22.3660  -21.1314  -12.7269 C   0  0  2  0  0  0  0  0  0  0  0  0
   23.7311  -21.6062  -12.6207 N   0  0  0  0  0  0  0  0  0  0  0  0
   21.3818  -22.2252  -12.6582 C   0  0  0  0  0  0  0  0  0  0  0  0
   21.5600  -23.3308  -13.2445 O   0  0  0  0  0  0  0  0  0  0  0  0
   16.2104  -24.3796   -6.1212 N   0  0  0  0  0  0  0  0  0  0  0  0
   17.5152  -24.6887   -6.5739 C   0  0  0  0  0  0  0  0  0  0  0  0
   18.4331  -24.9498   -5.7172 N   0  0  0  0  0  0  0  0  0  0  0  0
   17.8823  -24.7318   -7.9442 N   0  0  0  0  0  0  0  0  0  0  0  0
   16.9502  -24.3291   -8.9380 C   0  0  0  0  0  0  0  0  0  0  0  0
   17.5320  -24.2690  -10.3392 C   0  0  0  0  0  0  0  0  0  0  0  0
   18.6315  -23.2805  -10.4598 C   0  0  0  0  0  0  0  0  0  0  0  0
   19.1769  -23.1956  -11.8625 C   0  0  2  0  0  0  0  0  0  0  0  0
   20.1724  -22.1031  -11.9284 N   0  0  0  0  0  0  0  0  0  0  0  0
   18.0913  -22.8234  -12.7859 C   0  0  0  0  0  0  0  0  0  0  0  0
   17.2322  -23.7040  -13.4082 O   0  0  0  0  0  0  0  0  0  0  0  0
   17.9086  -21.6039  -13.0511 O   0  0  0  0  0  0  0  0  0  0  0  0
  2  3  2  0
  2  1  1  0
  4  2  1  0
  5  4  1  0
  6  5  1  0
  6  7  1  6
  8 14  1  0
  8  6  1  0
  9  8  2  0
 11 10  1  1
 12 11  1  0
 13 11  1  0
 13 14  1  6
 15 13  1  0
 16 15  2  0
 18 17  1  0
 18 19  2  0
 20 18  1  0
 21 20  1  0
 22 21  1  0
 23 22  1  0
 24 23  1  1
 24 25  1  0
 25 15  1  0
 26 24  1  0
 26 27  1  0
 28 26  2  0
M  END
$$$$
