QTR.pdb
     RDKit          3D

 28 27  0  0  1  0  0  0  0  0999 V2000
   20.1958  -28.7209   -2.5636 N   0  0  0  0  0  0  0  0  0  0  0  0
   19.0517  -29.6044   -2.6562 C   0  0  0  0  0  0  0  0  0  0  0  0
   19.3632  -30.8235   -2.6447 O   0  0  0  0  0  0  0  0  0  0  0  0
   17.6872  -29.0660   -2.7491 C   0  0  0  0  0  0  0  0  0  0  0  0
   17.5508  -27.5984   -2.8486 C   0  0  0  0  0  0  0  0  0  0  0  0
   17.3954  -27.0090   -4.2031 C   0  0  2  0  0  0  0  0  0  0  0  0
   18.5728  -27.0618   -5.0276 N   0  0  0  0  0  0  0  0  0  0  0  0
   16.9311  -25.5906   -4.1603 C   0  0  0  0  0  0  0  0  0  0  0  0
   17.4005  -24.7425   -4.9644 O   0  0  0  0  0  0  0  0  0  0  0  0
   15.6390  -23.8692   -5.7979 C   0  0  0  0  0  0  0  0  0  0  0  0
   14.7196  -23.6523   -4.6365 C   0  0  1  0  0  0  0  0  0  0  0  0
   13.6681  -24.5692   -4.7621 O   0  0  0  0  0  0  0  0  0  0  0  0
   15.4107  -23.7732   -3.2933 C   0  0  2  0  0  0  0  0  0  0  0  0
   15.9632  -25.1121   -3.2450 N   0  0  0  0  0  0  0  0  0  0  0  0
   14.5034  -23.4969   -2.1663 C   0  0  0  0  0  0  0  0  0  0  0  0
   13.9527  -24.4204   -1.5016 O   0  0  0  0  0  0  0  0  0  0  0  0
   14.8635  -16.8185    3.6403 N   0  0  0  0  0  0  0  0  0  0  0  0
   13.8332  -17.6797    4.0870 C   0  0  0  0  0  0  0  0  0  0  0  0
   13.2846  -17.4665    5.2263 N   0  0  0  0  0  0  0  0  0  0  0  0
   13.3550  -18.7873    3.3393 N   0  0  0  0  0  0  0  0  0  0  0  0
   13.9245  -19.0822    2.0715 C   0  0  0  0  0  0  0  0  0  0  0  0
   13.3338  -20.3105    1.4022 C   0  0  0  0  0  0  0  0  0  0  0  0
   14.0151  -20.6515    0.1295 C   0  0  0  0  0  0  0  0  0  0  0  0
   13.4437  -21.8884   -0.5151 C   0  0  2  0  0  0  0  0  0  0  0  0
   14.1924  -22.1751   -1.7586 N   0  0  0  0  0  0  0  0  0  0  0  0
   12.0515  -21.6283   -0.9201 C   0  0  0  0  0  0  0  0  0  0  0  0
   10.9342  -21.8775   -0.1519 O   0  0  0  0  0  0  0  0  0  0  0  0
   11.8306  -21.1384   -2.0612 O   0  0  0  0  0  0  0  0  0  0  0  0
  2  3  2  0
  2  1  1  0
  4  2  1  0
  5  4  1  0
  6  5  1  0
  6  7  1  1
  8 14  1  0
  8  6  1  0
  9  8  2  0
 11 10  1  6
 12 11  1  0
 13 11  1  0
 13 14  1  1
 15 13  1  0
 16 15  2  0
 18 17  1  0
 18 19  2  0
 20 18  1  0
 21 20  1  0
 22 21  1  0
 23 22  1  0
 24 23  1  6
 24 25  1  0
 25 15  1  0
 26 24  1  0
 26 27  1  0
 28 26  2  0
M  END
$$$$
