QTR.pdb
     RDKit          3D

 28 27  0  0  1  0  0  0  0  0999 V2000
   29.2347  -22.1518  -15.9593 N   0  0  0  0  0  0  0  0  0  0  0  0
   28.6659  -21.4258  -17.0763 C   0  0  0  0  0  0  0  0  0  0  0  0
   29.3998  -21.4321  -18.0984 O   0  0  0  0  0  0  0  0  0  0  0  0
   27.3551  -20.7707  -16.9625 C   0  0  0  0  0  0  0  0  0  0  0  0
   26.5860  -21.0200  -15.7261 C   0  0  0  0  0  0  0  0  0  0  0  0
   25.2734  -21.7034  -15.8547 C   0  0  2  0  0  0  0  0  0  0  0  0
   24.5740  -21.4493  -17.0856 N   0  0  0  0  0  0  0  0  0  0  0  0
   24.3476  -21.3813  -14.7285 C   0  0  0  0  0  0  0  0  0  0  0  0
   24.7621  -21.3965  -13.5394 O   0  0  0  0  0  0  0  0  0  0  0  0
   22.2512  -18.2915  -14.3542 C   0  0  0  0  0  0  0  0  0  0  0  0
   21.3507  -19.4787  -14.2112 C   0  0  1  0  0  0  0  0  0  0  0  0
   20.6716  -19.6340  -15.4265 O   0  0  0  0  0  0  0  0  0  0  0  0
   22.0841  -20.7439  -13.8139 C   0  0  2  0  0  0  0  0  0  0  0  0
   22.9841  -21.0470  -14.9086 N   0  0  0  0  0  0  0  0  0  0  0  0
   21.1664  -21.8563  -13.5142 C   0  0  0  0  0  0  0  0  0  0  0  0
   20.9255  -22.7754  -14.3479 O   0  0  0  0  0  0  0  0  0  0  0  0
   17.9294  -25.1618   -5.8325 N   0  0  0  0  0  0  0  0  0  0  0  0
   17.2172  -25.7973   -6.8773 C   0  0  0  0  0  0  0  0  0  0  0  0
   16.3525  -26.7001   -6.5912 N   0  0  0  0  0  0  0  0  0  0  0  0
   17.3995  -25.4930   -8.2515 N   0  0  0  0  0  0  0  0  0  0  0  0
   18.2802  -24.4449   -8.6319 C   0  0  0  0  0  0  0  0  0  0  0  0
   18.4294  -24.2811  -10.1341 C   0  0  0  0  0  0  0  0  0  0  0  0
   19.4194  -23.2388  -10.5000 C   0  0  0  0  0  0  0  0  0  0  0  0
   19.5158  -23.0354  -11.9904 C   0  0  2  0  0  0  0  0  0  0  0  0
   20.4963  -21.9631  -12.2693 N   0  0  0  0  0  0  0  0  0  0  0  0
   18.2203  -22.5557  -12.5016 C   0  0  0  0  0  0  0  0  0  0  0  0
   17.2517  -23.3402  -13.0909 O   0  0  0  0  0  0  0  0  0  0  0  0
   17.9457  -21.3281  -12.4087 O   0  0  0  0  0  0  0  0  0  0  0  0
  2  3  2  0
  2  1  1  0
  4  2  1  0
  5  4  1  0
  6  5  1  0
  6  7  1  6
  8 14  1  0
  8  6  1  0
  9  8  2  0
 11 10  1  6
 12 11  1  0
 13 11  1  0
 13 14  1  6
 15 13  1  0
 16 15  2  0
 18 17  1  0
 18 19  2  0
 20 18  1  0
 21 20  1  0
 22 21  1  0
 23 22  1  0
 24 23  1  1
 24 25  1  0
 25 15  1  0
 26 24  1  0
 26 27  1  0
 28 26  2  0
M  END
$$$$
