QTR.pdb
     RDKit          3D

 28 27  0  0  1  0  0  0  0  0999 V2000
   28.9545  -22.2101  -10.4141 N   0  0  0  0  0  0  0  0  0  0  0  0
   30.0101  -21.4507  -11.0522 C   0  0  0  0  0  0  0  0  0  0  0  0
   31.1376  -22.0037  -10.9730 O   0  0  0  0  0  0  0  0  0  0  0  0
   29.7253  -20.1685  -11.7120 C   0  0  0  0  0  0  0  0  0  0  0  0
   28.3057  -19.7794  -11.8367 C   0  0  0  0  0  0  0  0  0  0  0  0
   27.5034  -20.4256  -12.9068 C   0  0  2  0  0  0  0  0  0  0  0  0
   28.0618  -20.3268  -14.2286 N   0  0  0  0  0  0  0  0  0  0  0  0
   26.1032  -19.9102  -12.9628 C   0  0  0  0  0  0  0  0  0  0  0  0
   25.8698  -18.6828  -12.8049 O   0  0  0  0  0  0  0  0  0  0  0  0
   24.7543  -18.3576  -14.6559 C   0  0  0  0  0  0  0  0  0  0  0  0
   23.6810  -19.4013  -14.6597 C   0  0  1  0  0  0  0  0  0  0  0  0
   23.8902  -20.2083  -15.7854 O   0  0  0  0  0  0  0  0  0  0  0  0
   23.6349  -20.2193  -13.3849 C   0  0  2  0  0  0  0  0  0  0  0  0
   24.9752  -20.7347  -13.1898 N   0  0  0  0  0  0  0  0  0  0  0  0
   22.6223  -21.2877  -13.4377 C   0  0  0  0  0  0  0  0  0  0  0  0
   22.9073  -22.4708  -13.7797 O   0  0  0  0  0  0  0  0  0  0  0  0
   18.3292  -24.4176   -6.9154 N   0  0  0  0  0  0  0  0  0  0  0  0
   17.7521  -25.0906   -8.0184 C   0  0  0  0  0  0  0  0  0  0  0  0
   16.8971  -26.0232   -7.8094 N   0  0  0  0  0  0  0  0  0  0  0  0
   18.0626  -24.7932   -9.3710 N   0  0  0  0  0  0  0  0  0  0  0  0
   19.0054  -23.7736   -9.6713 C   0  0  0  0  0  0  0  0  0  0  0  0
   19.1541  -23.4907  -11.1558 C   0  0  0  0  0  0  0  0  0  0  0  0
   20.1345  -22.4138  -11.4372 C   0  0  0  0  0  0  0  0  0  0  0  0
   20.2966  -22.1551  -12.9133 C   0  0  2  0  0  0  0  0  0  0  0  0
   21.2638  -21.0525  -13.1073 N   0  0  0  0  0  0  0  0  0  0  0  0
   19.0158  -21.6857  -13.4694 C   0  0  0  0  0  0  0  0  0  0  0  0
   18.0462  -22.4869  -14.0339 O   0  0  0  0  0  0  0  0  0  0  0  0
   18.7564  -20.4516  -13.4433 O   0  0  0  0  0  0  0  0  0  0  0  0
  2  3  2  0
  2  1  1  0
  4  2  1  0
  5  4  1  0
  6  5  1  0
  6  7  1  6
  8 14  1  0
  8  6  1  0
  9  8  2  0
 11 10  1  1
 12 11  1  0
 13 11  1  0
 13 14  1  6
 15 13  1  0
 16 15  2  0
 18 17  1  0
 18 19  2  0
 20 18  1  0
 21 20  1  0
 22 21  1  0
 23 22  1  0
 24 23  1  1
 24 25  1  0
 25 15  1  0
 26 24  1  0
 26 27  1  0
 28 26  2  0
M  END
$$$$
