QTR.pdb
     RDKit          3D

 28 27  0  0  1  0  0  0  0  0999 V2000
   28.7772  -26.8470  -15.7894 N   0  0  0  0  0  0  0  0  0  0  0  0
   28.0286  -27.0461  -17.0134 C   0  0  0  0  0  0  0  0  0  0  0  0
   28.3607  -28.0885  -17.6350 O   0  0  0  0  0  0  0  0  0  0  0  0
   26.9943  -26.0886  -17.4304 C   0  0  0  0  0  0  0  0  0  0  0  0
   26.6713  -24.9978  -16.4880 C   0  0  0  0  0  0  0  0  0  0  0  0
   25.5399  -24.0992  -16.8324 C   0  0  2  0  0  0  0  0  0  0  0  0
   25.8513  -23.0680  -17.7856 N   0  0  0  0  0  0  0  0  0  0  0  0
   24.9422  -23.4449  -15.6308 C   0  0  0  0  0  0  0  0  0  0  0  0
   25.6437  -22.7003  -14.8963 O   0  0  0  0  0  0  0  0  0  0  0  0
   22.2756  -20.4519  -13.7839 C   0  0  0  0  0  0  0  0  0  0  0  0
   23.1601  -21.3821  -14.5543 C   0  0  1  0  0  0  0  0  0  0  0  0
   24.4817  -20.9682  -14.3441 O   0  0  0  0  0  0  0  0  0  0  0  0
   22.9643  -22.8390  -14.1863 C   0  0  2  0  0  0  0  0  0  0  0  0
   23.5907  -23.6078  -15.2429 N   0  0  0  0  0  0  0  0  0  0  0  0
   21.5451  -23.1872  -14.0012 C   0  0  0  0  0  0  0  0  0  0  0  0
   20.7649  -23.3796  -14.9771 O   0  0  0  0  0  0  0  0  0  0  0  0
   17.9250  -25.2670   -6.4024 N   0  0  0  0  0  0  0  0  0  0  0  0
   18.5059  -26.0380   -7.4371 C   0  0  0  0  0  0  0  0  0  0  0  0
   18.9288  -27.2208   -7.1790 N   0  0  0  0  0  0  0  0  0  0  0  0
   18.6527  -25.5789   -8.7721 N   0  0  0  0  0  0  0  0  0  0  0  0
   17.6576  -24.7415   -9.3442 C   0  0  0  0  0  0  0  0  0  0  0  0
   17.9019  -24.4049  -10.8046 C   0  0  0  0  0  0  0  0  0  0  0  0
   19.3064  -24.0103  -11.0731 C   0  0  0  0  0  0  0  0  0  0  0  0
   19.5406  -23.6692  -12.5226 C   0  0  2  0  0  0  0  0  0  0  0  0
   20.9674  -23.3277  -12.7141 N   0  0  0  0  0  0  0  0  0  0  0  0
   18.7748  -22.4594  -12.8686 C   0  0  0  0  0  0  0  0  0  0  0  0
   17.6263  -22.4294  -13.6307 O   0  0  0  0  0  0  0  0  0  0  0  0
   19.1801  -21.3412  -12.4488 O   0  0  0  0  0  0  0  0  0  0  0  0
  2  3  2  0
  2  1  1  0
  4  2  1  0
  5  4  1  0
  6  5  1  0
  6  7  1  6
  8 14  1  0
  8  6  1  0
  9  8  2  0
 11 10  1  1
 12 11  1  0
 13 11  1  0
 13 14  1  6
 15 13  1  0
 16 15  2  0
 18 17  1  0
 18 19  2  0
 20 18  1  0
 21 20  1  0
 22 21  1  0
 23 22  1  0
 24 23  1  1
 24 25  1  0
 25 15  1  0
 26 24  1  0
 26 27  1  0
 28 26  2  0
M  END
$$$$
