QTR.pdb
     RDKit          3D

 28 27  0  0  1  0  0  0  0  0999 V2000
   28.3706  -15.8488  -22.7792 N   0  0  0  0  0  0  0  0  0  0  0  0
   27.0772  -15.9796  -22.1401 C   0  0  0  0  0  0  0  0  0  0  0  0
   26.3989  -16.9419  -22.5840 O   0  0  0  0  0  0  0  0  0  0  0  0
   26.6599  -15.0486  -21.0820 C   0  0  0  0  0  0  0  0  0  0  0  0
   27.5758  -13.9318  -20.7721 C   0  0  0  0  0  0  0  0  0  0  0  0
   27.8596  -13.6473  -19.3421 C   0  0  2  0  0  0  0  0  0  0  0  0
   27.2485  -14.5553  -18.4089 N   0  0  0  0  0  0  0  0  0  0  0  0
   27.4753  -12.2596  -18.9473 C   0  0  0  0  0  0  0  0  0  0  0  0
   26.4063  -12.0505  -18.3152 O   0  0  0  0  0  0  0  0  0  0  0  0
   29.9510   -9.7654  -17.3656 C   0  0  0  0  0  0  0  0  0  0  0  0
   29.2050   -9.0878  -18.4725 C   0  0  1  0  0  0  0  0  0  0  0  0
   30.0688   -9.0162  -19.5729 O   0  0  0  0  0  0  0  0  0  0  0  0
   27.9021   -9.7757  -18.8272 C   0  0  2  0  0  0  0  0  0  0  0  0
   28.2570  -11.1175  -19.2441 N   0  0  0  0  0  0  0  0  0  0  0  0
   27.1432   -9.0473  -19.8582 C   0  0  0  0  0  0  0  0  0  0  0  0
   27.2124   -9.3467  -21.0844 O   0  0  0  0  0  0  0  0  0  0  0  0
   20.6560   -3.3576  -19.8042 N   0  0  0  0  0  0  0  0  0  0  0  0
   20.5206   -3.9494  -21.0826 C   0  0  0  0  0  0  0  0  0  0  0  0
   19.8424   -3.3446  -21.9873 N   0  0  0  0  0  0  0  0  0  0  0  0
   21.1008   -5.1951  -21.4377 N   0  0  0  0  0  0  0  0  0  0  0  0
   21.9248   -5.8816  -20.5058 C   0  0  0  0  0  0  0  0  0  0  0  0
   23.3401   -6.1257  -20.9988 C   0  0  0  0  0  0  0  0  0  0  0  0
   24.1560   -6.9015  -20.0331 C   0  0  0  0  0  0  0  0  0  0  0  0
   25.5275   -7.2248  -20.5685 C   0  0  2  0  0  0  0  0  0  0  0  0
   26.2874   -7.9638  -19.5363 N   0  0  0  0  0  0  0  0  0  0  0  0
   26.2647   -5.9723  -20.8087 C   0  0  0  0  0  0  0  0  0  0  0  0
   27.2336   -5.4425  -19.9832 O   0  0  0  0  0  0  0  0  0  0  0  0
   26.0088   -5.3045  -21.8477 O   0  0  0  0  0  0  0  0  0  0  0  0
  2  3  2  0
  2  1  1  0
  4  2  1  0
  5  4  1  0
  6  5  1  0
  6  7  1  1
  8 14  1  0
  8  6  1  0
  9  8  2  0
 11 10  1  1
 12 11  1  0
 13 11  1  0
 13 14  1  6
 15 13  1  0
 16 15  2  0
 18 17  1  0
 18 19  2  0
 20 18  1  0
 21 20  1  0
 22 21  1  0
 23 22  1  0
 24 23  1  1
 24 25  1  0
 25 15  1  0
 26 24  1  0
 26 27  1  0
 28 26  2  0
M  END
$$$$
