QTR.pdb
     RDKit          3D

 28 27  0  0  1  0  0  0  0  0999 V2000
   14.1146  -13.5409  -11.8470 N   0  0  0  0  0  0  0  0  0  0  0  0
   13.1922  -13.6950  -10.7408 C   0  0  0  0  0  0  0  0  0  0  0  0
   12.7725  -14.8734  -10.6043 O   0  0  0  0  0  0  0  0  0  0  0  0
   12.8257  -12.5482   -9.8975 C   0  0  0  0  0  0  0  0  0  0  0  0
   13.4980  -11.2642  -10.1830 C   0  0  0  0  0  0  0  0  0  0  0  0
   13.1338  -10.0924   -9.3460 C   0  0  2  0  0  0  0  0  0  0  0  0
   11.7386   -9.7431   -9.3638 N   0  0  0  0  0  0  0  0  0  0  0  0
   13.9150   -8.8705   -9.7009 C   0  0  0  0  0  0  0  0  0  0  0  0
   13.3613   -7.7394   -9.7037 O   0  0  0  0  0  0  0  0  0  0  0  0
   17.1565   -5.8252   -9.0703 C   0  0  0  0  0  0  0  0  0  0  0  0
   16.1483   -6.9313   -9.0363 C   0  0  1  0  0  0  0  0  0  0  0  0
   14.9178   -6.3614   -8.6853 O   0  0  0  0  0  0  0  0  0  0  0  0
   16.0578   -7.7009  -10.3386 C   0  0  2  0  0  0  0  0  0  0  0  0
   15.2871   -8.8932  -10.0477 N   0  0  0  0  0  0  0  0  0  0  0  0
   17.3826   -8.0100  -10.9034 C   0  0  0  0  0  0  0  0  0  0  0  0
   18.3187   -8.4913  -10.2033 O   0  0  0  0  0  0  0  0  0  0  0  0
   19.8139   -9.4169  -19.4002 N   0  0  0  0  0  0  0  0  0  0  0  0
   20.9706   -9.6169  -18.6097 C   0  0  0  0  0  0  0  0  0  0  0  0
   22.0240  -10.1102  -19.1495 N   0  0  0  0  0  0  0  0  0  0  0  0
   21.0437   -9.2984  -17.2286 N   0  0  0  0  0  0  0  0  0  0  0  0
   19.8977   -8.7912  -16.5592 C   0  0  0  0  0  0  0  0  0  0  0  0
   20.0694   -8.6630  -15.0560 C   0  0  0  0  0  0  0  0  0  0  0  0
   18.8254   -8.2310  -14.3732 C   0  0  0  0  0  0  0  0  0  0  0  0
   18.9687   -8.2159  -12.8728 C   0  0  2  0  0  0  0  0  0  0  0  0
   17.6882   -7.7853  -12.2695 N   0  0  0  0  0  0  0  0  0  0  0  0
   19.9686   -7.2046  -12.4888 C   0  0  0  0  0  0  0  0  0  0  0  0
   21.2873   -7.4601  -12.1780 O   0  0  0  0  0  0  0  0  0  0  0  0
   19.6186   -5.9944  -12.4282 O   0  0  0  0  0  0  0  0  0  0  0  0
  2  3  2  0
  2  1  1  0
  4  2  1  0
  5  4  1  0
  6  5  1  0
  6  7  1  6
  8 14  1  0
  8  6  1  0
  9  8  2  0
 11 10  1  6
 12 11  1  0
 13 11  1  0
 13 14  1  1
 15 13  1  0
 16 15  2  0
 18 17  1  0
 18 19  2  0
 20 18  1  0
 21 20  1  0
 22 21  1  0
 23 22  1  0
 24 23  1  6
 24 25  1  0
 25 15  1  0
 26 24  1  0
 26 27  1  0
 28 26  2  0
M  END
$$$$
