QTR.pdb
     RDKit          3D

 28 27  0  0  1  0  0  0  0  0999 V2000
   20.6646  -22.4706  -11.5267 N   0  0  0  0  0  0  0  0  0  0  0  0
   20.7434  -21.3039  -10.6719 C   0  0  0  0  0  0  0  0  0  0  0  0
   19.6238  -20.9324  -10.2339 O   0  0  0  0  0  0  0  0  0  0  0  0
   22.0354  -20.6656  -10.3823 C   0  0  0  0  0  0  0  0  0  0  0  0
   23.2358  -21.2759  -10.9896 C   0  0  0  0  0  0  0  0  0  0  0  0
   24.4993  -21.2398  -10.2095 C   0  0  2  0  0  0  0  0  0  0  0  0
   24.3625  -20.7844   -8.8520 N   0  0  0  0  0  0  0  0  0  0  0  0
   25.5535  -20.4106  -10.8654 C   0  0  0  0  0  0  0  0  0  0  0  0
   26.0733  -19.4406  -10.2529 O   0  0  0  0  0  0  0  0  0  0  0  0
   28.9541  -20.9796  -11.9195 C   0  0  0  0  0  0  0  0  0  0  0  0
   28.1894  -20.6032  -13.1502 C   0  0  1  0  0  0  0  0  0  0  0  0
   27.8632  -21.7914  -13.8165 O   0  0  0  0  0  0  0  0  0  0  0  0
   26.9587  -19.7679  -12.8600 C   0  0  2  0  0  0  0  0  0  0  0  0
   26.0293  -20.6457  -12.1776 N   0  0  0  0  0  0  0  0  0  0  0  0
   26.3817  -19.1731  -14.0778 C   0  0  0  0  0  0  0  0  0  0  0  0
   25.5791  -19.8053  -14.8221 O   0  0  0  0  0  0  0  0  0  0  0  0
   23.5225  -11.2068  -15.9519 N   0  0  0  0  0  0  0  0  0  0  0  0
   23.5091  -11.9015  -17.1848 C   0  0  0  0  0  0  0  0  0  0  0  0
   22.8231  -11.4349  -18.1626 N   0  0  0  0  0  0  0  0  0  0  0  0
   24.2225  -13.1066  -17.4159 N   0  0  0  0  0  0  0  0  0  0  0  0
   24.8557  -13.7714  -16.3316 C   0  0  0  0  0  0  0  0  0  0  0  0
   25.6098  -15.0261  -16.7349 C   0  0  0  0  0  0  0  0  0  0  0  0
   26.2097  -15.7301  -15.5753 C   0  0  0  0  0  0  0  0  0  0  0  0
   26.0670  -17.2274  -15.6751 C   0  0  2  0  0  0  0  0  0  0  0  0
   26.6930  -17.8526  -14.4893 N   0  0  0  0  0  0  0  0  0  0  0  0
   26.8198  -17.7118  -16.8450 C   0  0  0  0  0  0  0  0  0  0  0  0
   26.2882  -17.9604  -18.0925 O   0  0  0  0  0  0  0  0  0  0  0  0
   28.0566  -17.9289  -16.7261 O   0  0  0  0  0  0  0  0  0  0  0  0
  2  3  2  0
  2  1  1  0
  4  2  1  0
  5  4  1  0
  6  5  1  0
  6  7  1  1
  8 14  1  0
  8  6  1  0
  9  8  2  0
 11 10  1  1
 12 11  1  0
 13 11  1  0
 13 14  1  6
 15 13  1  0
 16 15  2  0
 18 17  1  0
 18 19  2  0
 20 18  1  0
 21 20  1  0
 22 21  1  0
 23 22  1  0
 24 23  1  1
 24 25  1  0
 25 15  1  0
 26 24  1  0
 26 27  1  0
 28 26  2  0
M  END
$$$$
