QTR.pdb
     RDKit          3D

 28 27  0  0  1  0  0  0  0  0999 V2000
   26.9397  -23.8551  -16.6053 N   0  0  0  0  0  0  0  0  0  0  0  0
   28.3756  -23.7536  -16.4434 C   0  0  0  0  0  0  0  0  0  0  0  0
   28.9789  -24.8339  -16.6720 O   0  0  0  0  0  0  0  0  0  0  0  0
   29.0036  -22.4838  -16.0514 C   0  0  0  0  0  0  0  0  0  0  0  0
   28.1019  -21.3457  -15.7792 C   0  0  0  0  0  0  0  0  0  0  0  0
   27.9106  -20.3423  -16.8576 C   0  0  2  0  0  0  0  0  0  0  0  0
   29.1062  -19.6560  -17.2680 N   0  0  0  0  0  0  0  0  0  0  0  0
   26.8901  -19.3110  -16.5054 C   0  0  0  0  0  0  0  0  0  0  0  0
   27.2063  -18.3178  -15.7986 O   0  0  0  0  0  0  0  0  0  0  0  0
   24.0885  -15.9709  -17.4260 C   0  0  0  0  0  0  0  0  0  0  0  0
   25.0628  -17.1075  -17.4339 C   0  0  1  0  0  0  0  0  0  0  0  0
   26.2715  -16.6224  -16.9183 O   0  0  0  0  0  0  0  0  0  0  0  0
   24.5749  -18.3215  -16.6693 C   0  0  2  0  0  0  0  0  0  0  0  0
   25.5398  -19.3720  -16.9255 N   0  0  0  0  0  0  0  0  0  0  0  0
   23.2049  -18.7106  -17.0452 C   0  0  0  0  0  0  0  0  0  0  0  0
   22.8890  -19.0037  -18.2336 O   0  0  0  0  0  0  0  0  0  0  0  0
   15.9331  -20.3791  -11.9730 N   0  0  0  0  0  0  0  0  0  0  0  0
   15.6520  -20.8173  -13.2889 C   0  0  0  0  0  0  0  0  0  0  0  0
   14.5787  -21.4816  -13.5151 N   0  0  0  0  0  0  0  0  0  0  0  0
   16.4976  -20.5625  -14.4000 N   0  0  0  0  0  0  0  0  0  0  0  0
   17.7717  -19.9677  -14.1959 C   0  0  0  0  0  0  0  0  0  0  0  0
   18.5854  -19.8043  -15.4674 C   0  0  0  0  0  0  0  0  0  0  0  0
   19.9365  -19.2470  -15.2139 C   0  0  0  0  0  0  0  0  0  0  0  0
   20.7920  -19.2263  -16.4548 C   0  0  2  0  0  0  0  0  0  0  0  0
   22.1556  -18.7798  -16.0942 N   0  0  0  0  0  0  0  0  0  0  0  0
   20.2626  -18.2237  -17.3952 C   0  0  0  0  0  0  0  0  0  0  0  0
   20.5805  -16.8821  -17.3982 O   0  0  0  0  0  0  0  0  0  0  0  0
   19.4459  -18.5926  -18.2828 O   0  0  0  0  0  0  0  0  0  0  0  0
  2  3  2  0
  2  1  1  0
  4  2  1  0
  5  4  1  0
  6  5  1  0
  6  7  1  1
  8 14  1  0
  8  6  1  0
  9  8  2  0
 11 10  1  1
 12 11  1  0
 13 11  1  0
 13 14  1  6
 15 13  1  0
 16 15  2  0
 18 17  1  0
 18 19  2  0
 20 18  1  0
 21 20  1  0
 22 21  1  0
 23 22  1  0
 24 23  1  1
 24 25  1  0
 25 15  1  0
 26 24  1  0
 26 27  1  0
 28 26  2  0
M  END
$$$$
