QTR.pdb
     RDKit          3D

 28 27  0  0  1  0  0  0  0  0999 V2000
   25.4007  -23.2370  -12.8496 N   0  0  0  0  0  0  0  0  0  0  0  0
   26.3213  -22.2081  -12.4115 C   0  0  0  0  0  0  0  0  0  0  0  0
   26.4679  -22.1717  -11.1623 O   0  0  0  0  0  0  0  0  0  0  0  0
   26.9878  -21.3279  -13.3818 C   0  0  0  0  0  0  0  0  0  0  0  0
   26.6020  -21.4793  -14.7998 C   0  0  0  0  0  0  0  0  0  0  0  0
   26.1267  -20.2701  -15.5196 C   0  0  2  0  0  0  0  0  0  0  0  0
   27.1029  -19.2231  -15.6592 N   0  0  0  0  0  0  0  0  0  0  0  0
   24.9060  -19.6765  -14.8977 C   0  0  0  0  0  0  0  0  0  0  0  0
   25.0111  -18.7932  -14.0062 O   0  0  0  0  0  0  0  0  0  0  0  0
   22.7225  -17.3996  -16.0181 C   0  0  0  0  0  0  0  0  0  0  0  0
   21.8131  -18.5354  -15.6660 C   0  0  1  0  0  0  0  0  0  0  0  0
   21.4952  -19.1983  -16.8583 O   0  0  0  0  0  0  0  0  0  0  0  0
   22.4037  -19.4811  -14.6397 C   0  0  2  0  0  0  0  0  0  0  0  0
   23.5875  -20.0500  -15.2522 N   0  0  0  0  0  0  0  0  0  0  0  0
   21.4442  -20.5104  -14.2045 C   0  0  0  0  0  0  0  0  0  0  0  0
   21.7762  -21.7206  -14.0520 O   0  0  0  0  0  0  0  0  0  0  0  0
   19.1648  -24.4544   -7.7642 N   0  0  0  0  0  0  0  0  0  0  0  0
   18.1726  -24.7790   -8.7196 C   0  0  0  0  0  0  0  0  0  0  0  0
   17.5912  -25.9204   -8.6601 N   0  0  0  0  0  0  0  0  0  0  0  0
   17.7682  -23.9040   -9.7613 N   0  0  0  0  0  0  0  0  0  0  0  0
   18.6788  -22.9361  -10.2640 C   0  0  0  0  0  0  0  0  0  0  0  0
   18.0765  -22.0044  -11.3007 C   0  0  0  0  0  0  0  0  0  0  0  0
   19.0801  -21.0919  -11.9011 C   0  0  0  0  0  0  0  0  0  0  0  0
   19.1424  -21.2136  -13.4023 C   0  0  2  0  0  0  0  0  0  0  0  0
   20.0872  -20.2049  -13.9300 N   0  0  0  0  0  0  0  0  0  0  0  0
   17.8246  -20.8857  -13.9730 C   0  0  0  0  0  0  0  0  0  0  0  0
   16.7902  -21.7771  -14.1635 O   0  0  0  0  0  0  0  0  0  0  0  0
   17.5935  -19.6980  -14.3289 O   0  0  0  0  0  0  0  0  0  0  0  0
  2  3  2  0
  2  1  1  0
  4  2  1  0
  5  4  1  0
  6  5  1  0
  6  7  1  1
  8 14  1  0
  8  6  1  0
  9  8  2  0
 11 10  1  6
 12 11  1  0
 13 11  1  0
 13 14  1  6
 15 13  1  0
 16 15  2  0
 18 17  1  0
 18 19  2  0
 20 18  1  0
 21 20  1  0
 22 21  1  0
 23 22  1  0
 24 23  1  1
 24 25  1  0
 25 15  1  0
 26 24  1  0
 26 27  1  0
 28 26  2  0
M  END
$$$$
