QTR.pdb
     RDKit          3D

 28 27  0  0  1  0  0  0  0  0999 V2000
   25.9122  -15.8085  -19.3851 N   0  0  0  0  0  0  0  0  0  0  0  0
   25.9197  -15.5672  -20.8134 C   0  0  0  0  0  0  0  0  0  0  0  0
   25.8999  -16.6241  -21.4959 O   0  0  0  0  0  0  0  0  0  0  0  0
   25.9456  -14.1983  -21.3480 C   0  0  0  0  0  0  0  0  0  0  0  0
   25.9605  -13.0950  -20.3657 C   0  0  0  0  0  0  0  0  0  0  0  0
   24.7090  -12.3164  -20.1818 C   0  0  2  0  0  0  0  0  0  0  0  0
   24.1854  -11.7159  -21.3793 N   0  0  0  0  0  0  0  0  0  0  0  0
   24.8494  -11.2412  -19.1555 C   0  0  0  0  0  0  0  0  0  0  0  0
   25.8845  -11.1739  -18.4413 O   0  0  0  0  0  0  0  0  0  0  0  0
   25.4710   -7.1165  -17.6883 C   0  0  0  0  0  0  0  0  0  0  0  0
   25.2315   -8.3718  -18.4682 C   0  0  1  0  0  0  0  0  0  0  0  0
   26.4096   -9.1274  -18.4115 O   0  0  0  0  0  0  0  0  0  0  0  0
   24.0349   -9.1628  -17.9795 C   0  0  2  0  0  0  0  0  0  0  0  0
   23.8637  -10.2533  -18.9184 N   0  0  0  0  0  0  0  0  0  0  0  0
   22.8247   -8.3327  -17.8530 C   0  0  0  0  0  0  0  0  0  0  0  0
   22.3564   -7.6706  -18.8228 O   0  0  0  0  0  0  0  0  0  0  0  0
   14.6876   -9.6954  -15.6623 N   0  0  0  0  0  0  0  0  0  0  0  0
   14.7762   -8.2896  -15.7988 C   0  0  0  0  0  0  0  0  0  0  0  0
   13.7165   -7.5776  -15.6780 N   0  0  0  0  0  0  0  0  0  0  0  0
   15.9881   -7.6003  -16.0645 N   0  0  0  0  0  0  0  0  0  0  0  0
   17.2009   -8.3288  -16.1948 C   0  0  0  0  0  0  0  0  0  0  0  0
   18.4379   -7.4532  -16.2882 C   0  0  0  0  0  0  0  0  0  0  0  0
   19.6856   -8.2407  -16.4410 C   0  0  0  0  0  0  0  0  0  0  0  0
   20.9137   -7.3681  -16.4913 C   0  0  2  0  0  0  0  0  0  0  0  0
   22.1106   -8.2261  -16.6328 N   0  0  0  0  0  0  0  0  0  0  0  0
   21.0610   -6.6594  -15.2084 C   0  0  0  0  0  0  0  0  0  0  0  0
   21.9957   -6.9480  -14.2369 O   0  0  0  0  0  0  0  0  0  0  0  0
   20.2793   -5.7047  -14.9467 O   0  0  0  0  0  0  0  0  0  0  0  0
  2  3  2  0
  2  1  1  0
  4  2  1  0
  5  4  1  0
  6  5  1  0
  6  7  1  6
  8 14  1  0
  8  6  1  0
  9  8  2  0
 11 10  1  1
 12 11  1  0
 13 11  1  0
 13 14  1  6
 15 13  1  0
 16 15  2  0
 18 17  1  0
 18 19  2  0
 20 18  1  0
 21 20  1  0
 22 21  1  0
 23 22  1  0
 24 23  1  1
 24 25  1  0
 25 15  1  0
 26 24  1  0
 26 27  1  0
 28 26  2  0
M  END
$$$$
