YAR.pdb
     RDKit          3D

 29 29  0  0  1  0  0  0  0  0999 V2000
   11.2100  -15.0484   30.4835 O   0  0  0  0  0  0  0  0  0  0  0  0
   10.3044  -15.0435   29.4273 C   0  0  0  0  0  0  0  0  0  0  0  0
   10.1375  -13.9417   28.6177 C   0  0  0  0  0  0  0  0  0  0  0  0
    9.2317  -13.9289   27.5568 C   0  0  0  0  0  0  0  0  0  0  0  0
    8.4676  -15.0430   27.2900 C   0  0  0  0  0  0  0  0  0  0  0  0
    7.4947  -15.0369   26.1452 C   0  0  0  0  0  0  0  0  0  0  0  0
    7.9066  -16.1523   25.2171 C   0  0  2  0  0  0  0  0  0  0  0  0
    7.7273  -17.4369   25.8175 N   0  0  0  0  0  0  0  0  0  0  0  0
    9.2653  -15.9671   24.6472 C   0  0  0  0  0  0  0  0  0  0  0  0
    9.5587  -14.9174   24.0177 O   0  0  0  0  0  0  0  0  0  0  0  0
    8.6295  -16.1480   28.0956 C   0  0  0  0  0  0  0  0  0  0  0  0
    9.5387  -16.1563   29.1582 C   0  0  0  0  0  0  0  0  0  0  0  0
   12.5731  -17.5914   24.9681 C   0  0  0  0  0  0  0  0  0  0  0  0
   11.6023  -16.7460   24.1717 C   0  0  2  0  0  0  0  0  0  0  0  0
   10.2956  -16.9370   24.7732 N   0  0  0  0  0  0  0  0  0  0  0  0
   11.5870  -17.1249   22.7382 C   0  0  0  0  0  0  0  0  0  0  0  0
   10.9353  -18.1426   22.3854 O   0  0  0  0  0  0  0  0  0  0  0  0
    8.8764  -13.4259   17.3321 N   0  0  0  0  0  0  0  0  0  0  0  0
    8.3590  -13.0059   18.5826 C   0  0  0  0  0  0  0  0  0  0  0  0
    8.1571  -11.7411   18.8118 N   0  0  0  0  0  0  0  0  0  0  0  0
    8.0648  -13.9674   19.5915 N   0  0  0  0  0  0  0  0  0  0  0  0
    8.6839  -15.2564   19.5774 C   0  0  0  0  0  0  0  0  0  0  0  0
   10.1334  -15.3047   19.9381 C   0  0  0  0  0  0  0  0  0  0  0  0
   10.6695  -16.6971   19.9573 C   0  0  0  0  0  0  0  0  0  0  0  0
   12.1379  -16.7248   20.3315 C   0  0  2  0  0  0  0  0  0  0  0  0
   12.2805  -16.3812   21.7574 N   0  0  0  0  0  0  0  0  0  0  0  0
   12.9960  -15.8499   19.5208 C   0  0  0  0  0  0  0  0  0  0  0  0
   13.0049  -15.9898   18.1116 O   0  0  0  0  0  0  0  0  0  0  0  0
   13.7238  -14.9800   20.0412 O   0  0  0  0  0  0  0  0  0  0  0  0
  2  3  2  0
  2  1  1  0
  4  3  1  0
  5  4  2  0
  6  5  1  0
  7  6  1  0
  7  8  1  1
  9 10  2  0
  9  7  1  0
 11  5  1  0
 11 12  2  0
 12  2  1  0
 14 13  1  1
 14 15  1  0
 15  9  1  0
 16 17  2  0
 16 14  1  0
 18 19  1  0
 19 20  2  0
 21 22  1  0
 21 19  1  0
 23 22  1  0
 25 24  1  6
 24 23  1  0
 25 26  1  0
 26 16  1  0
 27 25  1  0
 28 27  1  0
 29 27  2  0
M  END
$$$$
