YAR.pdb
     RDKit          3D

 29 29  0  0  1  0  0  0  0  0999 V2000
    5.3322  -10.7342   27.6729 O   0  0  0  0  0  0  0  0  0  0  0  0
    5.9593  -11.7350   26.9376 C   0  0  0  0  0  0  0  0  0  0  0  0
    6.8622  -12.6021   27.5121 C   0  0  0  0  0  0  0  0  0  0  0  0
    7.4951  -13.6082   26.7817 C   0  0  0  0  0  0  0  0  0  0  0  0
    7.2243  -13.7597   25.4400 C   0  0  0  0  0  0  0  0  0  0  0  0
    7.8986  -14.8450   24.6498 C   0  0  0  0  0  0  0  0  0  0  0  0
    6.8168  -15.7992   24.2088 C   0  0  2  0  0  0  0  0  0  0  0  0
    6.2622  -16.5203   25.3112 N   0  0  0  0  0  0  0  0  0  0  0  0
    7.2376  -16.6852   23.0937 C   0  0  0  0  0  0  0  0  0  0  0  0
    7.5417  -17.8872   23.3100 O   0  0  0  0  0  0  0  0  0  0  0  0
    6.3225  -12.8960   24.8594 C   0  0  0  0  0  0  0  0  0  0  0  0
    5.6905  -11.8887   25.5955 C   0  0  0  0  0  0  0  0  0  0  0  0
    7.8396  -16.2717   19.4253 C   0  0  0  0  0  0  0  0  0  0  0  0
    7.8624  -17.0909   20.6981 C   0  0  2  0  0  0  0  0  0  0  0  0
    7.3211  -16.2451   21.7456 N   0  0  0  0  0  0  0  0  0  0  0  0
    9.2323  -17.5453   21.0380 C   0  0  0  0  0  0  0  0  0  0  0  0
    9.7830  -18.4128   20.3105 O   0  0  0  0  0  0  0  0  0  0  0  0
   13.9768  -16.9149   28.2688 N   0  0  0  0  0  0  0  0  0  0  0  0
   12.8112  -16.4444   27.6147 C   0  0  0  0  0  0  0  0  0  0  0  0
   11.9555  -15.7067   28.2600 N   0  0  0  0  0  0  0  0  0  0  0  0
   12.5727  -16.7834   26.2519 N   0  0  0  0  0  0  0  0  0  0  0  0
   13.6507  -16.8512   25.3147 C   0  0  0  0  0  0  0  0  0  0  0  0
   13.2819  -17.1195   23.8915 C   0  0  0  0  0  0  0  0  0  0  0  0
   11.8849  -16.7001   23.5764 C   0  0  0  0  0  0  0  0  0  0  0  0
   11.2900  -17.5347   22.4598 C   0  0  2  0  0  0  0  0  0  0  0  0
    9.9376  -17.0369   22.1515 N   0  0  0  0  0  0  0  0  0  0  0  0
   11.2390  -18.9780   22.7306 C   0  0  0  0  0  0  0  0  0  0  0  0
   12.1107  -19.5398   23.6949 O   0  0  0  0  0  0  0  0  0  0  0  0
   10.4441  -19.7301   22.1309 O   0  0  0  0  0  0  0  0  0  0  0  0
  2  3  2  0
  2  1  1  0
  4  3  1  0
  5  4  2  0
  6  5  1  0
  7  6  1  0
  7  8  1  1
  9 10  2  0
  9  7  1  0
 11  5  1  0
 11 12  2  0
 12  2  1  0
 14 13  1  6
 14 15  1  0
 15  9  1  0
 16 17  2  0
 16 14  1  0
 18 19  1  0
 19 20  2  0
 21 22  1  0
 21 19  1  0
 23 22  1  0
 25 24  1  1
 24 23  1  0
 25 26  1  0
 26 16  1  0
 27 25  1  0
 28 27  1  0
 29 27  2  0
M  END
$$$$
