YAR.pdb
     RDKit          3D

 29 29  0  0  1  0  0  0  0  0999 V2000
    5.7575  -10.9807   28.3025 O   0  0  0  0  0  0  0  0  0  0  0  0
    6.3420  -11.9517   27.4956 C   0  0  0  0  0  0  0  0  0  0  0  0
    5.5892  -12.8957   26.8327 C   0  0  0  0  0  0  0  0  0  0  0  0
    6.1677  -13.8725   26.0218 C   0  0  0  0  0  0  0  0  0  0  0  0
    7.5349  -13.9146   25.8628 C   0  0  0  0  0  0  0  0  0  0  0  0
    8.1629  -14.9607   24.9861 C   0  0  0  0  0  0  0  0  0  0  0  0
    7.5880  -16.2886   25.4119 C   0  0  2  0  0  0  0  0  0  0  0  0
    7.9082  -16.5953   26.7707 N   0  0  0  0  0  0  0  0  0  0  0  0
    7.9181  -17.3951   24.4781 C   0  0  0  0  0  0  0  0  0  0  0  0
    8.8311  -18.2162   24.7546 O   0  0  0  0  0  0  0  0  0  0  0  0
    8.2934  -12.9737   26.5228 C   0  0  0  0  0  0  0  0  0  0  0  0
    7.7091  -11.9964   27.3349 C   0  0  0  0  0  0  0  0  0  0  0  0
    6.6637  -18.6167   21.1777 C   0  0  0  0  0  0  0  0  0  0  0  0
    7.7318  -18.5261   22.2465 C   0  0  2  0  0  0  0  0  0  0  0  0
    7.2418  -17.5939   23.2448 N   0  0  0  0  0  0  0  0  0  0  0  0
    9.0311  -18.0755   21.6922 C   0  0  0  0  0  0  0  0  0  0  0  0
    9.5947  -18.7802   20.8144 O   0  0  0  0  0  0  0  0  0  0  0  0
    8.6585  -13.1925   16.7787 N   0  0  0  0  0  0  0  0  0  0  0  0
    8.2264  -13.0283   18.1182 C   0  0  0  0  0  0  0  0  0  0  0  0
    6.9888  -12.7147   18.3691 N   0  0  0  0  0  0  0  0  0  0  0  0
    9.1478  -13.2007   19.1906 N   0  0  0  0  0  0  0  0  0  0  0  0
   10.4117  -13.8342   18.9754 C   0  0  0  0  0  0  0  0  0  0  0  0
   10.5847  -15.1963   19.5657 C   0  0  0  0  0  0  0  0  0  0  0  0
   10.9592  -15.1480   21.0093 C   0  0  0  0  0  0  0  0  0  0  0  0
   10.9992  -16.5336   21.6222 C   0  0  2  0  0  0  0  0  0  0  0  0
    9.6561  -16.8822   22.1183 N   0  0  0  0  0  0  0  0  0  0  0  0
   11.9860  -16.7023   22.6978 C   0  0  0  0  0  0  0  0  0  0  0  0
   13.3629  -16.7848   22.3771 O   0  0  0  0  0  0  0  0  0  0  0  0
   11.6443  -16.7761   23.8957 O   0  0  0  0  0  0  0  0  0  0  0  0
  2  3  2  0
  2  1  1  0
  4  3  1  0
  5  4  2  0
  6  5  1  0
  7  6  1  0
  7  8  1  1
  9 10  2  0
  9  7  1  0
 11  5  1  0
 11 12  2  0
 12  2  1  0
 14 13  1  6
 14 15  1  0
 15  9  1  0
 16 17  2  0
 16 14  1  0
 18 19  1  0
 19 20  2  0
 21 22  1  0
 21 19  1  0
 23 22  1  0
 25 24  1  1
 24 23  1  0
 25 26  1  0
 26 16  1  0
 27 25  1  0
 28 27  1  0
 29 27  2  0
M  END
$$$$
