YAR.pdb
     RDKit          3D

 29 29  0  0  1  0  0  0  0  0999 V2000
    5.2432  -10.0324   27.1367 O   0  0  0  0  0  0  0  0  0  0  0  0
    5.8854  -11.2058   26.7540 C   0  0  0  0  0  0  0  0  0  0  0  0
    5.6626  -12.4010   27.4014 C   0  0  0  0  0  0  0  0  0  0  0  0
    6.3025  -13.5818   27.0237 C   0  0  0  0  0  0  0  0  0  0  0  0
    7.1909  -13.5776   25.9715 C   0  0  0  0  0  0  0  0  0  0  0  0
    7.8785  -14.8473   25.5568 C   0  0  0  0  0  0  0  0  0  0  0  0
    6.9130  -15.5975   24.6736 C   0  0  2  0  0  0  0  0  0  0  0  0
    6.2721  -16.6660   25.3739 N   0  0  0  0  0  0  0  0  0  0  0  0
    7.5134  -16.0305   23.3862 C   0  0  0  0  0  0  0  0  0  0  0  0
    7.9892  -17.1887   23.2584 O   0  0  0  0  0  0  0  0  0  0  0  0
    7.4183  -12.3859   25.3200 C   0  0  0  0  0  0  0  0  0  0  0  0
    6.7745  -11.2045   25.7022 C   0  0  0  0  0  0  0  0  0  0  0  0
    8.0764  -14.4834   20.0274 C   0  0  0  0  0  0  0  0  0  0  0  0
    8.2215  -15.6220   21.0144 C   0  0  2  0  0  0  0  0  0  0  0  0
    7.5871  -15.1877   22.2450 N   0  0  0  0  0  0  0  0  0  0  0  0
    9.6430  -15.9744   21.2459 C   0  0  0  0  0  0  0  0  0  0  0  0
   10.3763  -15.1638   21.8705 O   0  0  0  0  0  0  0  0  0  0  0  0
   10.6181  -20.0949   26.2650 N   0  0  0  0  0  0  0  0  0  0  0  0
    9.6722  -20.7392   25.4296 C   0  0  0  0  0  0  0  0  0  0  0  0
    8.5466  -21.1624   25.9264 N   0  0  0  0  0  0  0  0  0  0  0  0
    9.9552  -20.9289   24.0466 N   0  0  0  0  0  0  0  0  0  0  0  0
   11.1775  -20.4527   23.4772 C   0  0  0  0  0  0  0  0  0  0  0  0
   11.1778  -19.0432   22.9803 C   0  0  0  0  0  0  0  0  0  0  0  0
   11.7045  -18.9299   21.5888 C   0  0  0  0  0  0  0  0  0  0  0  0
   11.6104  -17.5089   21.0703 C   0  0  2  0  0  0  0  0  0  0  0  0
   10.1999  -17.1893   20.7876 N   0  0  0  0  0  0  0  0  0  0  0  0
   12.4308  -17.2315   19.8832 C   0  0  0  0  0  0  0  0  0  0  0  0
   13.8081  -16.9404   20.0374 O   0  0  0  0  0  0  0  0  0  0  0  0
   11.9462  -17.2443   18.7334 O   0  0  0  0  0  0  0  0  0  0  0  0
  2  3  2  0
  2  1  1  0
  4  3  1  0
  5  4  2  0
  6  5  1  0
  7  6  1  0
  7  8  1  1
  9 10  2  0
  9  7  1  0
 11  5  1  0
 11 12  2  0
 12  2  1  0
 14 13  1  6
 14 15  1  0
 15  9  1  0
 16 17  2  0
 16 14  1  0
 18 19  1  0
 19 20  2  0
 21 22  1  0
 21 19  1  0
 23 22  1  0
 25 24  1  6
 24 23  1  0
 25 26  1  0
 26 16  1  0
 27 25  1  0
 28 27  1  0
 29 27  2  0
M  END
$$$$
