YAR.pdb
     RDKit          3D

 29 29  0  0  1  0  0  0  0  0999 V2000
    7.4071  -13.1525   15.0102 O   0  0  0  0  0  0  0  0  0  0  0  0
    7.7541  -13.5817   16.2873 C   0  0  0  0  0  0  0  0  0  0  0  0
    8.2535  -14.8443   16.5193 C   0  0  0  0  0  0  0  0  0  0  0  0
    8.6038  -15.2822   17.7968 C   0  0  0  0  0  0  0  0  0  0  0  0
    8.4546  -14.4423   18.8779 C   0  0  0  0  0  0  0  0  0  0  0  0
    8.8357  -14.9065   20.2549 C   0  0  0  0  0  0  0  0  0  0  0  0
    7.8249  -15.9510   20.6581 C   0  0  2  0  0  0  0  0  0  0  0  0
    6.5261  -15.3868   20.8523 N   0  0  0  0  0  0  0  0  0  0  0  0
    8.2694  -16.7828   21.8052 C   0  0  0  0  0  0  0  0  0  0  0  0
    8.2087  -16.3379   22.9810 O   0  0  0  0  0  0  0  0  0  0  0  0
    7.9558  -13.1786   18.6528 C   0  0  0  0  0  0  0  0  0  0  0  0
    7.6058  -12.7439   17.3704 C   0  0  0  0  0  0  0  0  0  0  0  0
    8.9509  -20.2452   22.6658 C   0  0  0  0  0  0  0  0  0  0  0  0
    9.4116  -18.8058   22.7521 C   0  0  2  0  0  0  0  0  0  0  0  0
    8.7777  -18.1006   21.6537 N   0  0  0  0  0  0  0  0  0  0  0  0
   10.8880  -18.6928   22.6736 C   0  0  0  0  0  0  0  0  0  0  0  0
   11.4750  -19.1046   21.6388 O   0  0  0  0  0  0  0  0  0  0  0  0
   11.5141  -15.6959   20.0205 N   0  0  0  0  0  0  0  0  0  0  0  0
   12.4823  -14.6846   19.8024 C   0  0  0  0  0  0  0  0  0  0  0  0
   12.6981  -14.2386   18.5993 N   0  0  0  0  0  0  0  0  0  0  0  0
   13.2240  -14.1595   20.8992 N   0  0  0  0  0  0  0  0  0  0  0  0
   13.8094  -15.0300   21.8711 C   0  0  0  0  0  0  0  0  0  0  0  0
   12.8647  -15.7402   22.7859 C   0  0  0  0  0  0  0  0  0  0  0  0
   13.5700  -16.6325   23.7520 C   0  0  0  0  0  0  0  0  0  0  0  0
   13.1235  -18.0737   23.6091 C   0  0  2  0  0  0  0  0  0  0  0  0
   11.6557  -18.1390   23.7224 N   0  0  0  0  0  0  0  0  0  0  0  0
   13.7380  -19.0058   24.5644 C   0  0  0  0  0  0  0  0  0  0  0  0
   12.9755  -19.4956   25.6527 O   0  0  0  0  0  0  0  0  0  0  0  0
   14.9219  -19.3817   24.4449 O   0  0  0  0  0  0  0  0  0  0  0  0
  2  3  2  0
  2  1  1  0
  4  3  1  0
  5  4  2  0
  6  5  1  0
  7  6  1  0
  7  8  1  1
  9 10  2  0
  9  7  1  0
 11  5  1  0
 11 12  2  0
 12  2  1  0
 14 13  1  6
 14 15  1  0
 15  9  1  0
 16 17  2  0
 16 14  1  0
 18 19  1  0
 19 20  2  0
 21 22  1  0
 21 19  1  0
 23 22  1  0
 25 24  1  1
 24 23  1  0
 25 26  1  0
 26 16  1  0
 27 25  1  0
 28 27  1  0
 29 27  2  0
M  END
$$$$
