YAR.pdb
     RDKit          3D

 29 29  0  0  1  0  0  0  0  0999 V2000
    7.1295  -12.2462   15.8886 O   0  0  0  0  0  0  0  0  0  0  0  0
    7.3134  -12.8940   17.1061 C   0  0  0  0  0  0  0  0  0  0  0  0
    6.3045  -12.9887   18.0390 C   0  0  0  0  0  0  0  0  0  0  0  0
    6.4809  -13.6366   19.2619 C   0  0  0  0  0  0  0  0  0  0  0  0
    7.6953  -14.2085   19.5695 C   0  0  0  0  0  0  0  0  0  0  0  0
    7.8892  -14.9125   20.8825 C   0  0  0  0  0  0  0  0  0  0  0  0
    7.6488  -16.3800   20.6299 C   0  0  2  0  0  0  0  0  0  0  0  0
    6.2591  -16.7088   20.6883 N   0  0  0  0  0  0  0  0  0  0  0  0
    8.4865  -17.2644   21.4793 C   0  0  0  0  0  0  0  0  0  0  0  0
    8.0959  -17.6106   22.6245 O   0  0  0  0  0  0  0  0  0  0  0  0
    8.7083  -14.1174   18.6411 C   0  0  0  0  0  0  0  0  0  0  0  0
    8.5269  -13.4668   17.4165 C   0  0  0  0  0  0  0  0  0  0  0  0
   11.8520  -18.8696   21.1792 C   0  0  0  0  0  0  0  0  0  0  0  0
   10.6053  -18.5178   21.9626 C   0  0  2  0  0  0  0  0  0  0  0  0
    9.7498  -17.7647   21.0646 N   0  0  0  0  0  0  0  0  0  0  0  0
   10.9211  -17.7308   23.1790 C   0  0  0  0  0  0  0  0  0  0  0  0
   10.5346  -16.5346   23.2464 O   0  0  0  0  0  0  0  0  0  0  0  0
   10.7365  -16.1191   30.6809 N   0  0  0  0  0  0  0  0  0  0  0  0
   10.6775  -14.9190   29.9298 C   0  0  0  0  0  0  0  0  0  0  0  0
   10.1784  -13.8418   30.4623 N   0  0  0  0  0  0  0  0  0  0  0  0
   11.1592  -14.8925   28.5896 N   0  0  0  0  0  0  0  0  0  0  0  0
   10.3540  -15.3783   27.5123 C   0  0  0  0  0  0  0  0  0  0  0  0
   10.1767  -16.8598   27.4269 C   0  0  0  0  0  0  0  0  0  0  0  0
   10.2299  -17.3597   26.0219 C   0  0  0  0  0  0  0  0  0  0  0  0
   11.6564  -17.5916   25.5656 C   0  0  2  0  0  0  0  0  0  0  0  0
   11.6418  -18.2802   24.2629 N   0  0  0  0  0  0  0  0  0  0  0  0
   12.4920  -18.3401   26.5145 C   0  0  0  0  0  0  0  0  0  0  0  0
   12.5024  -19.7556   26.4717 O   0  0  0  0  0  0  0  0  0  0  0  0
   13.1985  -17.7612   27.3647 O   0  0  0  0  0  0  0  0  0  0  0  0
  2  3  2  0
  2  1  1  0
  4  3  1  0
  5  4  2  0
  6  5  1  0
  7  6  1  0
  7  8  1  1
  9 10  2  0
  9  7  1  0
 11  5  1  0
 11 12  2  0
 12  2  1  0
 14 13  1  6
 14 15  1  0
 15  9  1  0
 16 17  2  0
 16 14  1  0
 18 19  1  0
 19 20  2  0
 21 22  1  0
 21 19  1  0
 23 22  1  0
 25 24  1  1
 24 23  1  0
 25 26  1  0
 26 16  1  0
 27 25  1  0
 28 27  1  0
 29 27  2  0
M  END
$$$$
