YAR.pdb
     RDKit          3D

 29 29  0  0  1  0  0  0  0  0999 V2000
    6.9232  -13.4078   15.7074 O   0  0  0  0  0  0  0  0  0  0  0  0
    7.1067  -13.8459   17.0151 C   0  0  0  0  0  0  0  0  0  0  0  0
    7.2515  -12.9646   18.0636 C   0  0  0  0  0  0  0  0  0  0  0  0
    7.4358  -13.3960   19.3775 C   0  0  0  0  0  0  0  0  0  0  0  0
    7.4777  -14.7430   19.6608 C   0  0  0  0  0  0  0  0  0  0  0  0
    7.6701  -15.2132   21.0746 C   0  0  0  0  0  0  0  0  0  0  0  0
    8.9539  -14.5945   21.5688 C   0  0  2  0  0  0  0  0  0  0  0  0
   10.0599  -14.9179   20.7231 N   0  0  0  0  0  0  0  0  0  0  0  0
    9.2236  -14.8736   23.0023 C   0  0  0  0  0  0  0  0  0  0  0  0
   10.1297  -15.6797   23.3389 O   0  0  0  0  0  0  0  0  0  0  0  0
    7.3337  -15.6295   18.6170 C   0  0  0  0  0  0  0  0  0  0  0  0
    7.1493  -15.1925   17.3013 C   0  0  0  0  0  0  0  0  0  0  0  0
    7.7106  -13.8602   26.2667 C   0  0  0  0  0  0  0  0  0  0  0  0
    8.7723  -14.5667   25.4509 C   0  0  2  0  0  0  0  0  0  0  0  0
    8.4959  -14.2639   24.0590 N   0  0  0  0  0  0  0  0  0  0  0  0
    8.7668  -16.0306   25.6867 C   0  0  0  0  0  0  0  0  0  0  0  0
    7.7406  -16.6919   25.3796 O   0  0  0  0  0  0  0  0  0  0  0  0
   12.9791  -22.1018   23.0661 N   0  0  0  0  0  0  0  0  0  0  0  0
   13.3112  -20.7243   23.0694 C   0  0  0  0  0  0  0  0  0  0  0  0
   14.5365  -20.3507   23.2975 N   0  0  0  0  0  0  0  0  0  0  0  0
   12.3030  -19.7474   22.8286 N   0  0  0  0  0  0  0  0  0  0  0  0
   12.0888  -18.6740   23.7489 C   0  0  0  0  0  0  0  0  0  0  0  0
   10.7391  -18.6008   24.3865 C   0  0  0  0  0  0  0  0  0  0  0  0
   10.7777  -18.9321   25.8410 C   0  0  0  0  0  0  0  0  0  0  0  0
    9.7619  -18.1249   26.6244 C   0  0  2  0  0  0  0  0  0  0  0  0
    9.8753  -16.7055   26.2452 N   0  0  0  0  0  0  0  0  0  0  0  0
    9.8629  -18.2593   28.0842 C   0  0  0  0  0  0  0  0  0  0  0  0
    9.6407  -19.5211   28.6874 O   0  0  0  0  0  0  0  0  0  0  0  0
   10.1406  -17.2865   28.8147 O   0  0  0  0  0  0  0  0  0  0  0  0
  2  3  2  0
  2  1  1  0
  4  3  1  0
  5  4  2  0
  6  5  1  0
  7  6  1  0
  7  8  1  6
  9 10  2  0
  9  7  1  0
 11  5  1  0
 11 12  2  0
 12  2  1  0
 14 13  1  1
 14 15  1  0
 15  9  1  0
 16 17  2  0
 16 14  1  0
 18 19  1  0
 19 20  2  0
 21 22  1  0
 21 19  1  0
 23 22  1  0
 25 24  1  6
 24 23  1  0
 25 26  1  0
 26 16  1  0
 27 25  1  0
 28 27  1  0
 29 27  2  0
M  END
$$$$
