YAR.pdb
     RDKit          3D

 29 29  0  0  1  0  0  0  0  0999 V2000
    7.9174  -13.8289   15.9999 O   0  0  0  0  0  0  0  0  0  0  0  0
    8.0239  -13.8269   17.3871 C   0  0  0  0  0  0  0  0  0  0  0  0
    7.4124  -12.8661   18.1619 C   0  0  0  0  0  0  0  0  0  0  0  0
    7.5143  -12.8572   19.5532 C   0  0  0  0  0  0  0  0  0  0  0  0
    8.2449  -13.8312   20.1966 C   0  0  0  0  0  0  0  0  0  0  0  0
    8.3533  -13.8299   21.6951 C   0  0  0  0  0  0  0  0  0  0  0  0
    7.9318  -15.2002   22.1637 C   0  0  2  0  0  0  0  0  0  0  0  0
    6.5462  -15.4451   21.9127 N   0  0  0  0  0  0  0  0  0  0  0  0
    8.3219  -15.4833   23.5684 C   0  0  0  0  0  0  0  0  0  0  0  0
    7.6766  -14.9827   24.5261 O   0  0  0  0  0  0  0  0  0  0  0  0
    8.8589  -14.7947   19.4279 C   0  0  0  0  0  0  0  0  0  0  0  0
    8.7541  -14.7996   18.0333 C   0  0  0  0  0  0  0  0  0  0  0  0
    8.6889  -17.3139   25.9443 C   0  0  0  0  0  0  0  0  0  0  0  0
    9.8105  -16.5325   25.2939 C   0  0  2  0  0  0  0  0  0  0  0  0
    9.4195  -16.3166   23.9133 N   0  0  0  0  0  0  0  0  0  0  0  0
   11.1038  -17.2533   25.3725 C   0  0  0  0  0  0  0  0  0  0  0  0
   11.0967  -18.4919   25.5981 O   0  0  0  0  0  0  0  0  0  0  0  0
   16.5861  -13.4446   20.5417 N   0  0  0  0  0  0  0  0  0  0  0  0
   15.9794  -14.2103   19.5154 C   0  0  0  0  0  0  0  0  0  0  0  0
   16.5575  -14.3172   18.3547 N   0  0  0  0  0  0  0  0  0  0  0  0
   14.7335  -14.8589   19.7518 N   0  0  0  0  0  0  0  0  0  0  0  0
   14.0501  -14.7001   20.9979 C   0  0  0  0  0  0  0  0  0  0  0  0
   14.0125  -15.8945   21.8955 C   0  0  0  0  0  0  0  0  0  0  0  0
   13.1714  -15.6699   23.1075 C   0  0  0  0  0  0  0  0  0  0  0  0
   13.1751  -16.8790   24.0213 C   0  0  2  0  0  0  0  0  0  0  0  0
   12.3422  -16.5947   25.2033 N   0  0  0  0  0  0  0  0  0  0  0  0
   14.5090  -17.3236   24.4481 C   0  0  0  0  0  0  0  0  0  0  0  0
   14.9000  -17.1642   25.7998 O   0  0  0  0  0  0  0  0  0  0  0  0
   15.3147  -17.8416   23.6483 O   0  0  0  0  0  0  0  0  0  0  0  0
  2  3  2  0
  2  1  1  0
  4  3  1  0
  5  4  2  0
  6  5  1  0
  7  6  1  0
  7  8  1  1
  9 10  2  0
  9  7  1  0
 11  5  1  0
 11 12  2  0
 12  2  1  0
 14 13  1  1
 14 15  1  0
 15  9  1  0
 16 17  2  0
 16 14  1  0
 18 19  1  0
 19 20  2  0
 21 22  1  0
 21 19  1  0
 23 22  1  0
 25 24  1  6
 24 23  1  0
 25 26  1  0
 26 16  1  0
 27 25  1  0
 28 27  1  0
 29 27  2  0
M  END
$$$$
