YAR.pdb
     RDKit          3D

 29 29  0  0  1  0  0  0  0  0999 V2000
    7.6986  -13.1064   16.4074 O   0  0  0  0  0  0  0  0  0  0  0  0
    7.5740  -13.3042   17.7789 C   0  0  0  0  0  0  0  0  0  0  0  0
    6.7640  -14.2884   18.3010 C   0  0  0  0  0  0  0  0  0  0  0  0
    6.6338  -14.4932   19.6748 C   0  0  0  0  0  0  0  0  0  0  0  0
    7.3283  -13.6976   20.5587 C   0  0  0  0  0  0  0  0  0  0  0  0
    7.1963  -13.9174   22.0390 C   0  0  0  0  0  0  0  0  0  0  0  0
    8.1614  -15.0175   22.4041 C   0  0  2  0  0  0  0  0  0  0  0  0
    7.9856  -16.1734   21.5819 N   0  0  0  0  0  0  0  0  0  0  0  0
    8.1629  -15.3367   23.8544 C   0  0  0  0  0  0  0  0  0  0  0  0
    8.4613  -14.4572   24.7039 O   0  0  0  0  0  0  0  0  0  0  0  0
    8.1399  -12.7117   20.0433 C   0  0  0  0  0  0  0  0  0  0  0  0
    8.2672  -12.5100   18.6652 C   0  0  0  0  0  0  0  0  0  0  0  0
    6.6067  -17.6049   26.1463 C   0  0  0  0  0  0  0  0  0  0  0  0
    7.9079  -16.9226   25.7815 C   0  0  2  0  0  0  0  0  0  0  0  0
    7.8353  -16.6216   24.3639 N   0  0  0  0  0  0  0  0  0  0  0  0
    9.0824  -17.7758   26.0833 C   0  0  0  0  0  0  0  0  0  0  0  0
    9.2356  -18.2063   27.2564 O   0  0  0  0  0  0  0  0  0  0  0  0
   11.2458  -18.6226   19.0386 N   0  0  0  0  0  0  0  0  0  0  0  0
   10.0332  -19.1980   19.4928 C   0  0  0  0  0  0  0  0  0  0  0  0
    8.9914  -19.2204   18.7135 N   0  0  0  0  0  0  0  0  0  0  0  0
    9.9521  -19.7469   20.8046 N   0  0  0  0  0  0  0  0  0  0  0  0
   10.7988  -19.2676   21.8526 C   0  0  0  0  0  0  0  0  0  0  0  0
   10.7579  -20.0225   23.1418 C   0  0  0  0  0  0  0  0  0  0  0  0
   11.7670  -19.5282   24.1236 C   0  0  0  0  0  0  0  0  0  0  0  0
   11.1142  -19.0713   25.4128 C   0  0  2  0  0  0  0  0  0  0  0  0
   10.0343  -18.1194   25.0975 N   0  0  0  0  0  0  0  0  0  0  0  0
   12.0342  -18.4735   26.3902 C   0  0  0  0  0  0  0  0  0  0  0  0
   12.5263  -19.2607   27.4597 O   0  0  0  0  0  0  0  0  0  0  0  0
   12.3979  -17.2828   26.3058 O   0  0  0  0  0  0  0  0  0  0  0  0
  2  3  2  0
  2  1  1  0
  4  3  1  0
  5  4  2  0
  6  5  1  0
  7  6  1  0
  7  8  1  6
  9 10  2  0
  9  7  1  0
 11  5  1  0
 11 12  2  0
 12  2  1  0
 14 13  1  6
 14 15  1  0
 15  9  1  0
 16 17  2  0
 16 14  1  0
 18 19  1  0
 19 20  2  0
 21 22  1  0
 21 19  1  0
 23 22  1  0
 25 24  1  6
 24 23  1  0
 25 26  1  0
 26 16  1  0
 27 25  1  0
 28 27  1  0
 29 27  2  0
M  END
$$$$
