YAR.pdb
     RDKit          3D

 29 29  0  0  1  0  0  0  0  0999 V2000
    5.3965  -11.2081   27.6643 O   0  0  0  0  0  0  0  0  0  0  0  0
    6.0709  -12.0714   26.8068 C   0  0  0  0  0  0  0  0  0  0  0  0
    5.6554  -13.3694   26.6070 C   0  0  0  0  0  0  0  0  0  0  0  0
    6.3262  -14.2411   25.7488 C   0  0  0  0  0  0  0  0  0  0  0  0
    7.4435  -13.8128   25.0673 C   0  0  0  0  0  0  0  0  0  0  0  0
    8.1664  -14.7455   24.1374 C   0  0  0  0  0  0  0  0  0  0  0  0
    8.9632  -15.6911   25.0011 C   0  0  2  0  0  0  0  0  0  0  0  0
    9.5740  -15.0173   26.1038 N   0  0  0  0  0  0  0  0  0  0  0  0
    9.9232  -16.5202   24.2289 C   0  0  0  0  0  0  0  0  0  0  0  0
   11.0555  -16.0673   23.9178 O   0  0  0  0  0  0  0  0  0  0  0  0
    7.8643  -12.5162   25.2625 C   0  0  0  0  0  0  0  0  0  0  0  0
    7.1888  -11.6458   26.1240 C   0  0  0  0  0  0  0  0  0  0  0  0
   10.6738  -19.9617   23.5076 C   0  0  0  0  0  0  0  0  0  0  0  0
   10.5237  -18.5746   22.9202 C   0  0  2  0  0  0  0  0  0  0  0  0
    9.6335  -17.8442   23.8032 N   0  0  0  0  0  0  0  0  0  0  0  0
    9.9855  -18.6150   21.5391 C   0  0  0  0  0  0  0  0  0  0  0  0
    8.7737  -18.9101   21.3673 O   0  0  0  0  0  0  0  0  0  0  0  0
   10.2189  -12.8510   19.5838 N   0  0  0  0  0  0  0  0  0  0  0  0
    8.8600  -13.2509   19.6200 C   0  0  0  0  0  0  0  0  0  0  0  0
    7.9210  -12.3907   19.3532 N   0  0  0  0  0  0  0  0  0  0  0  0
    8.5208  -14.5934   19.9541 N   0  0  0  0  0  0  0  0  0  0  0  0
    9.4608  -15.6546   19.7666 C   0  0  0  0  0  0  0  0  0  0  0  0
    9.7739  -16.0271   18.3535 C   0  0  0  0  0  0  0  0  0  0  0  0
   10.7092  -17.1863   18.2639 C   0  0  0  0  0  0  0  0  0  0  0  0
   10.2045  -18.3736   19.0592 C   0  0  2  0  0  0  0  0  0  0  0  0
   10.7889  -18.3339   20.4115 N   0  0  0  0  0  0  0  0  0  0  0  0
   10.4645  -19.6821   18.4433 C   0  0  0  0  0  0  0  0  0  0  0  0
    9.6542  -20.1225   17.3686 O   0  0  0  0  0  0  0  0  0  0  0  0
   11.3854  -20.4235   18.8424 O   0  0  0  0  0  0  0  0  0  0  0  0
  2  3  2  0
  2  1  1  0
  4  3  1  0
  5  4  2  0
  6  5  1  0
  7  6  1  0
  7  8  1  1
  9 10  2  0
  9  7  1  0
 11  5  1  0
 11 12  2  0
 12  2  1  0
 14 13  1  1
 14 15  1  0
 15  9  1  0
 16 17  2  0
 16 14  1  0
 18 19  1  0
 19 20  2  0
 21 22  1  0
 21 19  1  0
 23 22  1  0
 25 24  1  6
 24 23  1  0
 25 26  1  0
 26 16  1  0
 27 25  1  0
 28 27  1  0
 29 27  2  0
M  END
$$$$
