YAR.pdb
     RDKit          3D

 29 29  0  0  1  0  0  0  0  0999 V2000
    3.4050  -25.4217   25.2098 O   0  0  0  0  0  0  0  0  0  0  0  0
    4.2774  -24.3675   24.9585 C   0  0  0  0  0  0  0  0  0  0  0  0
    4.3596  -23.2764   25.7952 C   0  0  0  0  0  0  0  0  0  0  0  0
    5.2318  -22.2155   25.5501 C   0  0  0  0  0  0  0  0  0  0  0  0
    6.0481  -22.2369   24.4413 C   0  0  0  0  0  0  0  0  0  0  0  0
    6.9935  -21.0999   24.1755 C   0  0  0  0  0  0  0  0  0  0  0  0
    6.2000  -20.0296   23.4684 C   0  0  2  0  0  0  0  0  0  0  0  0
    5.8232  -20.4312   22.1494 N   0  0  0  0  0  0  0  0  0  0  0  0
    6.8566  -18.6980   23.5000 C   0  0  0  0  0  0  0  0  0  0  0  0
    7.5506  -18.3024   22.5274 O   0  0  0  0  0  0  0  0  0  0  0  0
    5.9709  -23.3249   23.6006 C   0  0  0  0  0  0  0  0  0  0  0  0
    5.0949  -24.3862   23.8501 C   0  0  0  0  0  0  0  0  0  0  0  0
    6.8060  -15.6867   25.6749 C   0  0  0  0  0  0  0  0  0  0  0  0
    7.5020  -16.5700   24.6616 C   0  0  2  0  0  0  0  0  0  0  0  0
    6.7461  -17.8071   24.6010 N   0  0  0  0  0  0  0  0  0  0  0  0
    8.9142  -16.8287   25.0320 C   0  0  0  0  0  0  0  0  0  0  0  0
    9.7028  -15.8533   25.1402 O   0  0  0  0  0  0  0  0  0  0  0  0
   11.2558  -17.0743   19.0575 N   0  0  0  0  0  0  0  0  0  0  0  0
   11.3657  -18.4713   19.2673 C   0  0  0  0  0  0  0  0  0  0  0  0
   11.3065  -19.2880   18.2561 N   0  0  0  0  0  0  0  0  0  0  0  0
   11.5353  -18.9829   20.5857 N   0  0  0  0  0  0  0  0  0  0  0  0
   11.5622  -18.1048   21.7141 C   0  0  0  0  0  0  0  0  0  0  0  0
   11.6765  -18.7484   23.0581 C   0  0  0  0  0  0  0  0  0  0  0  0
   11.5483  -17.7651   24.1732 C   0  0  0  0  0  0  0  0  0  0  0  0
   10.8525  -18.3719   25.3752 C   0  0  2  0  0  0  0  0  0  0  0  0
    9.4023  -18.1338   25.2661 N   0  0  0  0  0  0  0  0  0  0  0  0
   11.3390  -17.8908   26.6755 C   0  0  0  0  0  0  0  0  0  0  0  0
   12.6515  -18.2174   27.0955 O   0  0  0  0  0  0  0  0  0  0  0  0
   10.6243  -17.1976   27.4277 O   0  0  0  0  0  0  0  0  0  0  0  0
  2  3  2  0
  2  1  1  0
  4  3  1  0
  5  4  2  0
  6  5  1  0
  7  6  1  0
  7  8  1  6
  9 10  2  0
  9  7  1  0
 11  5  1  0
 11 12  2  0
 12  2  1  0
 14 13  1  1
 14 15  1  0
 15  9  1  0
 16 17  2  0
 16 14  1  0
 18 19  1  0
 19 20  2  0
 21 22  1  0
 21 19  1  0
 23 22  1  0
 25 24  1  6
 24 23  1  0
 25 26  1  0
 26 16  1  0
 27 25  1  0
 28 27  1  0
 29 27  2  0
M  END
$$$$
