YAR.pdb
     RDKit          3D

 29 29  0  0  1  0  0  0  0  0999 V2000
    5.8138  -11.2539   27.7727 O   0  0  0  0  0  0  0  0  0  0  0  0
    6.6531  -12.2623   27.3098 C   0  0  0  0  0  0  0  0  0  0  0  0
    8.0231  -12.1781   27.4254 C   0  0  0  0  0  0  0  0  0  0  0  0
    8.8715  -13.1849   26.9639 C   0  0  0  0  0  0  0  0  0  0  0  0
    8.3454  -14.3102   26.3695 C   0  0  0  0  0  0  0  0  0  0  0  0
    9.2539  -15.4002   25.8759 C   0  0  0  0  0  0  0  0  0  0  0  0
    8.4020  -16.6330   25.7035 C   0  0  2  0  0  0  0  0  0  0  0  0
    7.6483  -16.9273   26.8817 N   0  0  0  0  0  0  0  0  0  0  0  0
    9.1633  -17.8039   25.1989 C   0  0  0  0  0  0  0  0  0  0  0  0
   10.1249  -18.2762   25.8594 O   0  0  0  0  0  0  0  0  0  0  0  0
    6.9764  -14.4006   26.2508 C   0  0  0  0  0  0  0  0  0  0  0  0
    6.1298  -13.3887   26.7148 C   0  0  0  0  0  0  0  0  0  0  0  0
    8.8396  -20.5209   22.8012 C   0  0  0  0  0  0  0  0  0  0  0  0
    9.7368  -19.4619   23.4055 C   0  0  2  0  0  0  0  0  0  0  0  0
    8.8628  -18.4506   23.9702 N   0  0  0  0  0  0  0  0  0  0  0  0
   10.6502  -18.8712   22.3979 C   0  0  0  0  0  0  0  0  0  0  0  0
   10.6301  -19.3202   21.2219 O   0  0  0  0  0  0  0  0  0  0  0  0
    8.0776  -14.9318   17.5131 N   0  0  0  0  0  0  0  0  0  0  0  0
    8.5131  -13.6547   17.9458 C   0  0  0  0  0  0  0  0  0  0  0  0
    8.6690  -12.6933   17.0830 N   0  0  0  0  0  0  0  0  0  0  0  0
    8.7860  -13.4241   19.3246 N   0  0  0  0  0  0  0  0  0  0  0  0
    8.8708  -14.5140   20.2465 C   0  0  0  0  0  0  0  0  0  0  0  0
   10.2449  -14.9827   20.6013 C   0  0  0  0  0  0  0  0  0  0  0  0
   10.2264  -16.1392   21.5442 C   0  0  0  0  0  0  0  0  0  0  0  0
   11.6262  -16.6353   21.8466 C   0  0  2  0  0  0  0  0  0  0  0  0
   11.5417  -17.8223   22.7157 N   0  0  0  0  0  0  0  0  0  0  0  0
   12.5152  -15.6358   22.4548 C   0  0  0  0  0  0  0  0  0  0  0  0
   13.4841  -14.9826   21.6547 O   0  0  0  0  0  0  0  0  0  0  0  0
   12.4417  -15.3430   23.6656 O   0  0  0  0  0  0  0  0  0  0  0  0
  2  3  2  0
  2  1  1  0
  4  3  1  0
  5  4  2  0
  6  5  1  0
  7  6  1  0
  7  8  1  1
  9 10  2  0
  9  7  1  0
 11  5  1  0
 11 12  2  0
 12  2  1  0
 14 13  1  6
 14 15  1  0
 15  9  1  0
 16 17  2  0
 16 14  1  0
 18 19  1  0
 19 20  2  0
 21 22  1  0
 21 19  1  0
 23 22  1  0
 25 24  1  1
 24 23  1  0
 25 26  1  0
 26 16  1  0
 27 25  1  0
 28 27  1  0
 29 27  2  0
M  END
$$$$
