GIN.pdb
     RDKit          3D

 21 20  0  0  1  0  0  0  0  0999 V2000
    8.7083  -18.8440   16.7728 N   0  0  0  0  0  0  0  0  0  0  0  0
    7.9066  -18.0726   17.7055 C   0  0  0  0  0  0  0  0  0  0  0  0
    8.7155  -16.9654   18.2793 C   0  0  0  0  0  0  0  0  0  0  0  0
    9.6534  -16.4779   17.5983 O   0  0  0  0  0  0  0  0  0  0  0  0
    6.4882  -12.4741   20.4923 C   0  0  0  0  0  0  0  0  0  0  0  0
    7.5274  -13.3202   19.8403 C   0  0  0  0  0  0  0  0  0  0  0  0
    8.1301  -14.3418   20.7796 C   0  0  2  0  0  0  0  0  0  0  0  0
    8.8470  -13.6151   21.8969 C   0  0  0  0  0  0  0  0  0  0  0  0
    9.0848  -15.2690   20.1020 C   0  0  2  0  0  0  0  0  0  0  0  0
    8.4501  -16.4500   19.5770 N   0  0  0  0  0  0  0  0  0  0  0  0
   10.1401  -15.6429   21.1074 C   0  0  0  0  0  0  0  0  0  0  0  0
   10.9655  -14.8074   21.4990 O   0  0  0  0  0  0  0  0  0  0  0  0
   14.0688  -17.8467   21.5121 N   0  0  0  0  0  0  0  0  0  0  0  0
   13.6053  -17.0242   22.5752 C   0  0  0  0  0  0  0  0  0  0  0  0
   14.3650  -16.8329   23.5464 O   0  0  0  0  0  0  0  0  0  0  0  0
   12.2803  -16.4166   22.5401 C   0  0  0  0  0  0  0  0  0  0  0  0
   11.1281  -17.3914   22.6243 C   0  0  2  0  0  0  0  0  0  0  0  0
   10.1619  -16.9790   21.5927 N   0  0  0  0  0  0  0  0  0  0  0  0
   10.4784  -17.2203   23.9454 C   0  0  0  0  0  0  0  0  0  0  0  0
   10.8041  -18.0135   25.0336 O   0  0  0  0  0  0  0  0  0  0  0  0
    9.6081  -16.3494   24.1239 O   0  0  0  0  0  0  0  0  0  0  0  0
  1  2  1  0
  2  3  1  0
  3 10  1  0
  3  4  2  0
  6  7  1  0
  6  5  1  0
  7  8  1  1
  9 11  1  0
  9  7  1  0
  9 10  1  1
 11 12  2  0
 13 14  1  0
 14 15  2  0
 17 16  1  1
 16 14  1  0
 18 17  1  0
 18 11  1  0
 19 20  1  0
 19 17  1  0
 21 19  2  0
M  END
$$$$
