GIN.pdb
     RDKit          3D

 21 20  0  0  1  0  0  0  0  0999 V2000
    7.8595  -19.4540   18.3167 N   0  0  0  0  0  0  0  0  0  0  0  0
    7.7157  -18.0930   17.8322 C   0  0  0  0  0  0  0  0  0  0  0  0
    8.4996  -17.1621   18.6857 C   0  0  0  0  0  0  0  0  0  0  0  0
    9.7333  -17.0357   18.4782 O   0  0  0  0  0  0  0  0  0  0  0  0
    6.7659  -12.2156   20.0493 C   0  0  0  0  0  0  0  0  0  0  0  0
    7.5657  -13.4298   19.7219 C   0  0  0  0  0  0  0  0  0  0  0  0
    7.8599  -14.2862   20.9340 C   0  0  2  0  0  0  0  0  0  0  0  0
    8.6597  -13.4702   21.9264 C   0  0  0  0  0  0  0  0  0  0  0  0
    8.6112  -15.5333   20.6016 C   0  0  2  0  0  0  0  0  0  0  0  0
    7.8838  -16.4158   19.7268 N   0  0  0  0  0  0  0  0  0  0  0  0
    8.9308  -16.2260   21.8987 C   0  0  0  0  0  0  0  0  0  0  0  0
    8.0409  -16.4615   22.7265 O   0  0  0  0  0  0  0  0  0  0  0  0
   10.9337  -19.7621   20.8105 N   0  0  0  0  0  0  0  0  0  0  0  0
   10.6154  -19.4933   22.1699 C   0  0  0  0  0  0  0  0  0  0  0  0
    9.6439  -20.0903   22.6767 O   0  0  0  0  0  0  0  0  0  0  0  0
   11.3972  -18.5480   22.9580 C   0  0  0  0  0  0  0  0  0  0  0  0
   10.6536  -17.3030   23.3842 C   0  0  2  0  0  0  0  0  0  0  0  0
   10.2799  -16.6006   22.1453 N   0  0  0  0  0  0  0  0  0  0  0  0
   11.5988  -16.4360   24.1269 C   0  0  0  0  0  0  0  0  0  0  0  0
   12.1112  -15.2700   23.5817 O   0  0  0  0  0  0  0  0  0  0  0  0
   11.9690  -16.7295   25.2779 O   0  0  0  0  0  0  0  0  0  0  0  0
  1  2  1  0
  2  3  1  0
  3 10  1  0
  3  4  2  0
  6  7  1  0
  6  5  1  0
  7  8  1  1
  9 11  1  0
  9  7  1  0
  9 10  1  6
 11 12  2  0
 13 14  1  0
 14 15  2  0
 17 16  1  6
 16 14  1  0
 18 17  1  0
 18 11  1  0
 19 20  1  0
 19 17  1  0
 21 19  2  0
M  END
$$$$
