GIN.pdb
     RDKit          3D

 21 20  0  0  1  0  0  0  0  0999 V2000
    5.4675  -18.4098   22.8265 N   0  0  0  0  0  0  0  0  0  0  0  0
    5.5242  -17.7910   24.1385 C   0  0  0  0  0  0  0  0  0  0  0  0
    6.5505  -16.7159   24.1517 C   0  0  0  0  0  0  0  0  0  0  0  0
    7.3171  -16.5913   23.1628 O   0  0  0  0  0  0  0  0  0  0  0  0
    5.4828  -12.0678   27.1140 C   0  0  0  0  0  0  0  0  0  0  0  0
    5.9340  -12.9331   25.9876 C   0  0  0  0  0  0  0  0  0  0  0  0
    7.2148  -13.6782   26.2934 C   0  0  2  0  0  0  0  0  0  0  0  0
    8.3445  -12.6785   26.4153 C   0  0  0  0  0  0  0  0  0  0  0  0
    7.5642  -14.6931   25.2550 C   0  0  2  0  0  0  0  0  0  0  0  0
    6.6810  -15.8303   25.2558 N   0  0  0  0  0  0  0  0  0  0  0  0
    8.9817  -15.1290   25.5099 C   0  0  0  0  0  0  0  0  0  0  0  0
    9.8456  -14.3081   25.8452 O   0  0  0  0  0  0  0  0  0  0  0  0
    9.5712  -19.2317   29.1445 N   0  0  0  0  0  0  0  0  0  0  0  0
    9.9940  -17.9388   28.7309 C   0  0  0  0  0  0  0  0  0  0  0  0
   10.9425  -17.4056   29.3417 O   0  0  0  0  0  0  0  0  0  0  0  0
    9.3434  -17.2474   27.6242 C   0  0  0  0  0  0  0  0  0  0  0  0
   10.1418  -17.2019   26.3415 C   0  0  2  0  0  0  0  0  0  0  0  0
    9.2990  -16.5061   25.3549 N   0  0  0  0  0  0  0  0  0  0  0  0
   10.3323  -18.5942   25.8704 C   0  0  0  0  0  0  0  0  0  0  0  0
    9.5860  -19.1281   24.8324 O   0  0  0  0  0  0  0  0  0  0  0  0
   11.1777  -19.3395   26.3974 O   0  0  0  0  0  0  0  0  0  0  0  0
  1  2  1  0
  2  3  1  0
  3 10  1  0
  3  4  2  0
  6  7  1  0
  6  5  1  0
  7  8  1  6
  9 11  1  0
  9  7  1  0
  9 10  1  1
 11 12  2  0
 13 14  1  0
 14 15  2  0
 17 16  1  1
 16 14  1  0
 18 17  1  0
 18 11  1  0
 19 20  1  0
 19 17  1  0
 21 19  2  0
M  END
$$$$
