GIN.pdb
     RDKit          3D

 21 20  0  0  1  0  0  0  0  0999 V2000
    8.0135  -18.5513   18.3226 N   0  0  0  0  0  0  0  0  0  0  0  0
    7.6002  -18.5982   19.7135 C   0  0  0  0  0  0  0  0  0  0  0  0
    8.2399  -17.4924   20.4734 C   0  0  0  0  0  0  0  0  0  0  0  0
    9.4486  -17.5977   20.8037 O   0  0  0  0  0  0  0  0  0  0  0  0
    6.9894  -12.1927   19.7391 C   0  0  0  0  0  0  0  0  0  0  0  0
    7.7162  -13.4565   20.0483 C   0  0  0  0  0  0  0  0  0  0  0  0
    7.4577  -13.9565   21.4528 C   0  0  2  0  0  0  0  0  0  0  0  0
    8.0410  -12.9674   22.4386 C   0  0  0  0  0  0  0  0  0  0  0  0
    8.0373  -15.3087   21.7091 C   0  0  2  0  0  0  0  0  0  0  0  0
    7.5145  -16.3239   20.8320 N   0  0  0  0  0  0  0  0  0  0  0  0
    7.7509  -15.6570   23.1447 C   0  0  0  0  0  0  0  0  0  0  0  0
    6.6164  -15.5087   23.6177 O   0  0  0  0  0  0  0  0  0  0  0  0
    6.4445  -19.6611   26.1614 N   0  0  0  0  0  0  0  0  0  0  0  0
    6.5872  -18.5148   25.3324 C   0  0  0  0  0  0  0  0  0  0  0  0
    5.6016  -17.7626   25.1923 O   0  0  0  0  0  0  0  0  0  0  0  0
    7.8469  -18.2183   24.6608 C   0  0  0  0  0  0  0  0  0  0  0  0
    8.5475  -16.9676   25.1402 C   0  0  2  0  0  0  0  0  0  0  0  0
    8.8172  -16.1593   23.9395 N   0  0  0  0  0  0  0  0  0  0  0  0
    9.8527  -17.3662   25.7185 C   0  0  0  0  0  0  0  0  0  0  0  0
   10.9914  -17.5008   24.9410 O   0  0  0  0  0  0  0  0  0  0  0  0
    9.9713  -17.5968   26.9353 O   0  0  0  0  0  0  0  0  0  0  0  0
  1  2  1  0
  2  3  1  0
  3 10  1  0
  3  4  2  0
  6  7  1  0
  6  5  1  0
  7  8  1  1
  9 11  1  0
  9  7  1  0
  9 10  1  6
 11 12  2  0
 13 14  1  0
 14 15  2  0
 17 16  1  6
 16 14  1  0
 18 17  1  0
 18 11  1  0
 19 20  1  0
 19 17  1  0
 21 19  2  0
M  END
$$$$
