GIN.pdb
     RDKit          3D

 21 20  0  0  1  0  0  0  0  0999 V2000
    6.8747  -18.9466   17.5000 N   0  0  0  0  0  0  0  0  0  0  0  0
    6.5291  -18.4121   18.8048 C   0  0  0  0  0  0  0  0  0  0  0  0
    7.6065  -17.5091   19.2879 C   0  0  0  0  0  0  0  0  0  0  0  0
    8.8064  -17.8375   19.1048 O   0  0  0  0  0  0  0  0  0  0  0  0
    6.6704  -12.0534   20.0529 C   0  0  0  0  0  0  0  0  0  0  0  0
    7.3542  -13.3310   19.7047 C   0  0  0  0  0  0  0  0  0  0  0  0
    7.8215  -14.0998   20.9211 C   0  0  2  0  0  0  0  0  0  0  0  0
    8.9345  -13.3240   21.5916 C   0  0  0  0  0  0  0  0  0  0  0  0
    8.3055  -15.4745   20.5948 C   0  0  2  0  0  0  0  0  0  0  0  0
    7.3073  -16.2875   19.9499 N   0  0  0  0  0  0  0  0  0  0  0  0
    8.7507  -16.1129   21.8826 C   0  0  0  0  0  0  0  0  0  0  0  0
    7.9380  -16.6899   22.6170 O   0  0  0  0  0  0  0  0  0  0  0  0
   11.7048  -20.6058   22.7360 N   0  0  0  0  0  0  0  0  0  0  0  0
   10.9061  -19.5342   23.2209 C   0  0  0  0  0  0  0  0  0  0  0  0
   10.4423  -19.6208   24.3761 O   0  0  0  0  0  0  0  0  0  0  0  0
   10.6315  -18.3621   22.3982 C   0  0  0  0  0  0  0  0  0  0  0  0
   10.7394  -17.0372   23.1177 C   0  0  2  0  0  0  0  0  0  0  0  0
   10.1268  -16.0343   22.2306 N   0  0  0  0  0  0  0  0  0  0  0  0
   12.1773  -16.7035   23.2511 C   0  0  0  0  0  0  0  0  0  0  0  0
   12.9153  -16.1943   22.1950 O   0  0  0  0  0  0  0  0  0  0  0  0
   12.7774  -16.8720   24.3279 O   0  0  0  0  0  0  0  0  0  0  0  0
  1  2  1  0
  2  3  1  0
  3 10  1  0
  3  4  2  0
  6  7  1  0
  6  5  1  0
  7  8  1  6
  9 11  1  0
  9  7  1  0
  9 10  1  1
 11 12  2  0
 13 14  1  0
 14 15  2  0
 17 16  1  6
 16 14  1  0
 18 17  1  0
 18 11  1  0
 19 20  1  0
 19 17  1  0
 21 19  2  0
M  END
$$$$
