GIN.pdb
     RDKit          3D

 21 20  0  0  1  0  0  0  0  0999 V2000
    5.0449  -18.5557   23.1078 N   0  0  0  0  0  0  0  0  0  0  0  0
    5.3676  -17.9180   24.3715 C   0  0  0  0  0  0  0  0  0  0  0  0
    6.2178  -16.7215   24.1369 C   0  0  0  0  0  0  0  0  0  0  0  0
    6.6175  -16.4756   22.9703 O   0  0  0  0  0  0  0  0  0  0  0  0
    5.7571  -12.1569   27.3538 C   0  0  0  0  0  0  0  0  0  0  0  0
    5.9543  -13.0078   26.1462 C   0  0  0  0  0  0  0  0  0  0  0  0
    7.2977  -13.7035   26.1284 C   0  0  2  0  0  0  0  0  0  0  0  0
    8.3861  -12.6609   25.9917 C   0  0  0  0  0  0  0  0  0  0  0  0
    7.4270  -14.6995   25.0232 C   0  0  2  0  0  0  0  0  0  0  0  0
    6.5858  -15.8545   25.2013 N   0  0  0  0  0  0  0  0  0  0  0  0
    8.8732  -15.1091   24.9526 C   0  0  0  0  0  0  0  0  0  0  0  0
    9.7610  -14.2669   24.7644 O   0  0  0  0  0  0  0  0  0  0  0  0
   10.2713  -15.9706   21.5417 N   0  0  0  0  0  0  0  0  0  0  0  0
   10.8521  -16.7881   22.5496 C   0  0  0  0  0  0  0  0  0  0  0  0
   11.0524  -17.9918   22.2889 O   0  0  0  0  0  0  0  0  0  0  0  0
   11.2075  -16.2434   23.8545 C   0  0  0  0  0  0  0  0  0  0  0  0
   10.5839  -16.9533   25.0344 C   0  0  2  0  0  0  0  0  0  0  0  0
    9.1895  -16.4864   25.1075 N   0  0  0  0  0  0  0  0  0  0  0  0
   11.2774  -16.4977   26.2624 C   0  0  0  0  0  0  0  0  0  0  0  0
   12.6021  -16.8121   26.5188 O   0  0  0  0  0  0  0  0  0  0  0  0
   10.6867  -15.8104   27.1149 O   0  0  0  0  0  0  0  0  0  0  0  0
  1  2  1  0
  2  3  1  0
  3 10  1  0
  3  4  2  0
  6  7  1  0
  6  5  1  0
  7  8  1  6
  9 11  1  0
  9  7  1  0
  9 10  1  1
 11 12  2  0
 13 14  1  0
 14 15  2  0
 17 16  1  6
 16 14  1  0
 18 17  1  0
 18 11  1  0
 19 20  1  0
 19 17  1  0
 21 19  2  0
M  END
$$$$
