GIN.pdb
     RDKit          3D

 21 20  0  0  1  0  0  0  0  0999 V2000
    4.9436  -18.9196   23.5098 N   0  0  0  0  0  0  0  0  0  0  0  0
    4.9933  -17.8589   24.4998 C   0  0  0  0  0  0  0  0  0  0  0  0
    6.1624  -16.9771   24.2446 C   0  0  0  0  0  0  0  0  0  0  0  0
    6.9930  -17.3052   23.3594 O   0  0  0  0  0  0  0  0  0  0  0  0
    6.4674  -12.1177   27.1932 C   0  0  0  0  0  0  0  0  0  0  0  0
    6.4942  -13.4814   26.5926 C   0  0  0  0  0  0  0  0  0  0  0  0
    7.3195  -13.5515   25.3265 C   0  0  2  0  0  0  0  0  0  0  0  0
    6.6299  -12.7441   24.2483 C   0  0  0  0  0  0  0  0  0  0  0  0
    7.5279  -14.9480   24.8399 C   0  0  2  0  0  0  0  0  0  0  0  0
    6.3582  -15.7760   24.9789 N   0  0  0  0  0  0  0  0  0  0  0  0
    8.6779  -15.5291   25.6171 C   0  0  0  0  0  0  0  0  0  0  0  0
    8.6199  -15.6347   26.8493 O   0  0  0  0  0  0  0  0  0  0  0  0
    8.6628  -19.4395   26.1460 N   0  0  0  0  0  0  0  0  0  0  0  0
    9.7824  -18.6383   26.5011 C   0  0  0  0  0  0  0  0  0  0  0  0
    9.9783  -18.4026   27.7107 O   0  0  0  0  0  0  0  0  0  0  0  0
   10.6824  -18.1028   25.4867 C   0  0  0  0  0  0  0  0  0  0  0  0
   10.9468  -16.6179   25.5870 C   0  0  2  0  0  0  0  0  0  0  0  0
    9.8291  -15.9518   24.8980 N   0  0  0  0  0  0  0  0  0  0  0  0
   12.1855  -16.3206   24.8295 C   0  0  0  0  0  0  0  0  0  0  0  0
   12.1656  -15.6293   23.6290 O   0  0  0  0  0  0  0  0  0  0  0  0
   13.2978  -16.6864   25.2501 O   0  0  0  0  0  0  0  0  0  0  0  0
  1  2  1  0
  2  3  1  0
  3 10  1  0
  3  4  2  0
  6  7  1  0
  6  5  1  0
  7  8  1  6
  9 11  1  0
  9  7  1  0
  9 10  1  1
 11 12  2  0
 13 14  1  0
 14 15  2  0
 17 16  1  6
 16 14  1  0
 18 17  1  0
 18 11  1  0
 19 20  1  0
 19 17  1  0
 21 19  2  0
M  END
$$$$
