GIN.pdb
     RDKit          3D

 21 20  0  0  1  0  0  0  0  0999 V2000
    4.9787  -18.9533   23.6193 N   0  0  0  0  0  0  0  0  0  0  0  0
    5.1923  -18.0801   24.7593 C   0  0  0  0  0  0  0  0  0  0  0  0
    6.1410  -16.9939   24.3993 C   0  0  0  0  0  0  0  0  0  0  0  0
    6.7947  -17.0839   23.3289 O   0  0  0  0  0  0  0  0  0  0  0  0
    5.6122  -11.9424   26.5999 C   0  0  0  0  0  0  0  0  0  0  0  0
    5.9386  -13.0027   25.6047 C   0  0  0  0  0  0  0  0  0  0  0  0
    7.2545  -13.6930   25.8892 C   0  0  2  0  0  0  0  0  0  0  0  0
    8.3856  -12.7410   25.5657 C   0  0  0  0  0  0  0  0  0  0  0  0
    7.4342  -14.9550   25.1112 C   0  0  2  0  0  0  0  0  0  0  0  0
    6.3224  -15.8610   25.2382 N   0  0  0  0  0  0  0  0  0  0  0  0
    8.7007  -15.6069   25.5962 C   0  0  0  0  0  0  0  0  0  0  0  0
    8.9742  -15.6385   26.8032 O   0  0  0  0  0  0  0  0  0  0  0  0
    8.9040  -19.7154   23.9562 N   0  0  0  0  0  0  0  0  0  0  0  0
    9.7721  -19.0719   24.8802 C   0  0  0  0  0  0  0  0  0  0  0  0
    9.5941  -19.2784   26.0978 O   0  0  0  0  0  0  0  0  0  0  0  0
   10.8437  -18.1934   24.4265 C   0  0  0  0  0  0  0  0  0  0  0  0
   10.8392  -16.8114   25.0388 C   0  0  2  0  0  0  0  0  0  0  0  0
    9.5714  -16.1833   24.6314 N   0  0  0  0  0  0  0  0  0  0  0  0
   11.9442  -16.0355   24.4277 C   0  0  0  0  0  0  0  0  0  0  0  0
   11.7118  -15.0089   23.5269 O   0  0  0  0  0  0  0  0  0  0  0  0
   13.1315  -16.2829   24.7052 O   0  0  0  0  0  0  0  0  0  0  0  0
  1  2  1  0
  2  3  1  0
  3 10  1  0
  3  4  2  0
  6  7  1  0
  6  5  1  0
  7  8  1  6
  9 11  1  0
  9  7  1  0
  9 10  1  1
 11 12  2  0
 13 14  1  0
 14 15  2  0
 17 16  1  6
 16 14  1  0
 18 17  1  0
 18 11  1  0
 19 20  1  0
 19 17  1  0
 21 19  2  0
M  END
$$$$
