GIN.pdb
     RDKit          3D

 21 20  0  0  1  0  0  0  0  0999 V2000
    3.6820  -18.6395   20.5500 N   0  0  0  0  0  0  0  0  0  0  0  0
    3.9942  -17.5407   21.4462 C   0  0  0  0  0  0  0  0  0  0  0  0
    5.4357  -17.1928   21.3440 C   0  0  0  0  0  0  0  0  0  0  0  0
    6.2553  -18.0813   20.9976 O   0  0  0  0  0  0  0  0  0  0  0  0
    7.2239  -12.0845   20.1024 C   0  0  0  0  0  0  0  0  0  0  0  0
    7.1586  -13.5701   20.2010 C   0  0  0  0  0  0  0  0  0  0  0  0
    7.5694  -14.0890   21.5615 C   0  0  2  0  0  0  0  0  0  0  0  0
    9.0467  -13.8268   21.7589 C   0  0  0  0  0  0  0  0  0  0  0  0
    7.2992  -15.5471   21.7383 C   0  0  2  0  0  0  0  0  0  0  0  0
    5.9029  -15.8811   21.6290 N   0  0  0  0  0  0  0  0  0  0  0  0
    7.8295  -15.9431   23.0897 C   0  0  0  0  0  0  0  0  0  0  0  0
    7.3908  -15.4166   24.1208 O   0  0  0  0  0  0  0  0  0  0  0  0
    7.0973  -20.3321   24.1361 N   0  0  0  0  0  0  0  0  0  0  0  0
    7.7388  -19.2558   24.8082 C   0  0  0  0  0  0  0  0  0  0  0  0
    7.0915  -18.6321   25.6736 O   0  0  0  0  0  0  0  0  0  0  0  0
    9.1149  -18.8842   24.5014 C   0  0  0  0  0  0  0  0  0  0  0  0
    9.3768  -17.3967   24.4415 C   0  0  2  0  0  0  0  0  0  0  0  0
    8.8457  -16.9356   23.1480 N   0  0  0  0  0  0  0  0  0  0  0  0
   10.8443  -17.1898   24.4264 C   0  0  0  0  0  0  0  0  0  0  0  0
   11.5076  -16.7063   23.3103 O   0  0  0  0  0  0  0  0  0  0  0  0
   11.5384  -17.4467   25.4265 O   0  0  0  0  0  0  0  0  0  0  0  0
  1  2  1  0
  2  3  1  0
  3 10  1  0
  3  4  2  0
  6  7  1  0
  6  5  1  0
  7  8  1  6
  9 11  1  0
  9  7  1  0
  9 10  1  1
 11 12  2  0
 13 14  1  0
 14 15  2  0
 17 16  1  6
 16 14  1  0
 18 17  1  0
 18 11  1  0
 19 20  1  0
 19 17  1  0
 21 19  2  0
M  END
$$$$
