GIN.pdb
     RDKit          3D

 21 20  0  0  1  0  0  0  0  0999 V2000
    6.7716  -14.9155   20.0192 N   0  0  0  0  0  0  0  0  0  0  0  0
    6.2417  -15.1520   21.3500 C   0  0  0  0  0  0  0  0  0  0  0  0
    7.2342  -14.7366   22.3756 C   0  0  0  0  0  0  0  0  0  0  0  0
    8.4562  -14.7396   22.0794 O   0  0  0  0  0  0  0  0  0  0  0  0
    5.8598  -11.4394   26.6817 C   0  0  0  0  0  0  0  0  0  0  0  0
    6.5630  -12.1084   25.5508 C   0  0  0  0  0  0  0  0  0  0  0  0
    7.1570  -13.4460   25.9348 C   0  0  2  0  0  0  0  0  0  0  0  0
    8.2252  -13.2233   26.9834 C   0  0  0  0  0  0  0  0  0  0  0  0
    7.7486  -14.1786   24.7757 C   0  0  2  0  0  0  0  0  0  0  0  0
    6.8298  -14.3380   23.6786 N   0  0  0  0  0  0  0  0  0  0  0  0
    8.2055  -15.5217   25.2773 C   0  0  0  0  0  0  0  0  0  0  0  0
    7.3977  -16.3238   25.7638 O   0  0  0  0  0  0  0  0  0  0  0  0
   11.8142  -16.6898   22.3180 N   0  0  0  0  0  0  0  0  0  0  0  0
   11.0247  -17.4507   23.2232 C   0  0  0  0  0  0  0  0  0  0  0  0
   10.0936  -18.1388   22.7581 O   0  0  0  0  0  0  0  0  0  0  0  0
   11.2889  -17.4337   24.6570 C   0  0  0  0  0  0  0  0  0  0  0  0
   10.0779  -17.1849   25.5268 C   0  0  2  0  0  0  0  0  0  0  0  0
    9.5870  -15.8416   25.1769 N   0  0  0  0  0  0  0  0  0  0  0  0
   10.5272  -17.1477   26.9386 C   0  0  0  0  0  0  0  0  0  0  0  0
   10.6823  -15.9572   27.6301 O   0  0  0  0  0  0  0  0  0  0  0  0
   10.7841  -18.1959   27.5577 O   0  0  0  0  0  0  0  0  0  0  0  0
  1  2  1  0
  2  3  1  0
  3 10  1  0
  3  4  2  0
  6  7  1  0
  6  5  1  0
  7  8  1  1
  9 11  1  0
  9  7  1  0
  9 10  1  6
 11 12  2  0
 13 14  1  0
 14 15  2  0
 17 16  1  6
 16 14  1  0
 18 17  1  0
 18 11  1  0
 19 20  1  0
 19 17  1  0
 21 19  2  0
M  END
$$$$
