GIN.pdb
     RDKit          3D

 21 20  0  0  1  0  0  0  0  0999 V2000
    6.1902  -17.7358   20.8924 N   0  0  0  0  0  0  0  0  0  0  0  0
    6.0379  -17.4936   22.3157 C   0  0  0  0  0  0  0  0  0  0  0  0
    6.8506  -16.3176   22.7230 C   0  0  0  0  0  0  0  0  0  0  0  0
    7.7212  -15.8733   21.9319 O   0  0  0  0  0  0  0  0  0  0  0  0
    7.0262  -11.7913   27.0155 C   0  0  0  0  0  0  0  0  0  0  0  0
    7.6371  -12.5596   25.8941 C   0  0  0  0  0  0  0  0  0  0  0  0
    6.8267  -13.7757   25.5026 C   0  0  2  0  0  0  0  0  0  0  0  0
    6.5808  -14.6169   26.7364 C   0  0  0  0  0  0  0  0  0  0  0  0
    7.4924  -14.6123   24.4598 C   0  0  2  0  0  0  0  0  0  0  0  0
    6.6630  -15.6888   23.9838 N   0  0  0  0  0  0  0  0  0  0  0  0
    8.7622  -15.1533   25.0591 C   0  0  0  0  0  0  0  0  0  0  0  0
    9.6096  -14.3904   25.5413 O   0  0  0  0  0  0  0  0  0  0  0  0
   12.5005  -15.5120   23.1504 N   0  0  0  0  0  0  0  0  0  0  0  0
   11.8657  -16.5335   23.9087 C   0  0  0  0  0  0  0  0  0  0  0  0
   11.7840  -17.6738   23.4088 O   0  0  0  0  0  0  0  0  0  0  0  0
   11.3225  -16.2652   25.2349 C   0  0  0  0  0  0  0  0  0  0  0  0
   10.1713  -17.1546   25.6456 C   0  0  2  0  0  0  0  0  0  0  0  0
    8.9600  -16.5611   25.0554 N   0  0  0  0  0  0  0  0  0  0  0  0
   10.0379  -17.0804   27.1199 C   0  0  0  0  0  0  0  0  0  0  0  0
   10.1343  -15.8817   27.8078 O   0  0  0  0  0  0  0  0  0  0  0  0
    9.8333  -18.1036   27.7975 O   0  0  0  0  0  0  0  0  0  0  0  0
  1  2  1  0
  2  3  1  0
  3 10  1  0
  3  4  2  0
  6  7  1  0
  6  5  1  0
  7  8  1  1
  9 11  1  0
  9  7  1  0
  9 10  1  1
 11 12  2  0
 13 14  1  0
 14 15  2  0
 17 16  1  6
 16 14  1  0
 18 17  1  0
 18 11  1  0
 19 20  1  0
 19 17  1  0
 21 19  2  0
M  END
$$$$
