GIN.pdb
     RDKit          3D

 21 20  0  0  1  0  0  0  0  0999 V2000
    5.2298  -19.1640   22.9242 N   0  0  0  0  0  0  0  0  0  0  0  0
    5.4045  -18.4592   24.1814 C   0  0  0  0  0  0  0  0  0  0  0  0
    6.2533  -17.2560   23.9782 C   0  0  0  0  0  0  0  0  0  0  0  0
    6.9764  -17.1850   22.9519 O   0  0  0  0  0  0  0  0  0  0  0  0
    7.1584  -11.5145   26.2807 C   0  0  0  0  0  0  0  0  0  0  0  0
    7.5825  -12.6688   25.4388 C   0  0  0  0  0  0  0  0  0  0  0  0
    6.6798  -13.8733   25.5921 C   0  0  2  0  0  0  0  0  0  0  0  0
    6.5886  -14.2319   27.0596 C   0  0  0  0  0  0  0  0  0  0  0  0
    7.1536  -15.0621   24.8223 C   0  0  2  0  0  0  0  0  0  0  0  0
    6.2629  -16.1894   24.9175 N   0  0  0  0  0  0  0  0  0  0  0  0
    8.5168  -15.4243   25.3466 C   0  0  0  0  0  0  0  0  0  0  0  0
    8.7889  -15.2918   26.5470 O   0  0  0  0  0  0  0  0  0  0  0  0
    9.3863  -19.5058   25.3812 N   0  0  0  0  0  0  0  0  0  0  0  0
   10.2799  -18.4687   25.7653 C   0  0  0  0  0  0  0  0  0  0  0  0
   10.4108  -18.2244   26.9819 O   0  0  0  0  0  0  0  0  0  0  0  0
   11.0271  -17.7067   24.7719 C   0  0  0  0  0  0  0  0  0  0  0  0
   10.8583  -16.2070   24.8578 C   0  0  2  0  0  0  0  0  0  0  0  0
    9.4799  -15.9212   24.4265 N   0  0  0  0  0  0  0  0  0  0  0  0
   11.7769  -15.5852   23.8748 C   0  0  0  0  0  0  0  0  0  0  0  0
   11.3259  -15.0679   22.6713 O   0  0  0  0  0  0  0  0  0  0  0  0
   12.9982  -15.5064   24.0991 O   0  0  0  0  0  0  0  0  0  0  0  0
  1  2  1  0
  2  3  1  0
  3 10  1  0
  3  4  2  0
  6  7  1  0
  6  5  1  0
  7  8  1  1
  9 11  1  0
  9  7  1  0
  9 10  1  1
 11 12  2  0
 13 14  1  0
 14 15  2  0
 17 16  1  6
 16 14  1  0
 18 17  1  0
 18 11  1  0
 19 20  1  0
 19 17  1  0
 21 19  2  0
M  END
$$$$
