GIN.pdb
     RDKit          3D

 21 20  0  0  1  0  0  0  0  0999 V2000
    7.0950  -14.5130   19.8651 N   0  0  0  0  0  0  0  0  0  0  0  0
    6.3972  -14.5600   21.1374 C   0  0  0  0  0  0  0  0  0  0  0  0
    7.3633  -14.3985   22.2554 C   0  0  0  0  0  0  0  0  0  0  0  0
    8.5871  -14.5875   22.0371 O   0  0  0  0  0  0  0  0  0  0  0  0
    5.9988  -11.1970   26.6191 C   0  0  0  0  0  0  0  0  0  0  0  0
    6.7722  -11.8393   25.5189 C   0  0  0  0  0  0  0  0  0  0  0  0
    7.2242  -13.2429   25.8577 C   0  0  2  0  0  0  0  0  0  0  0  0
    8.2433  -13.1719   26.9743 C   0  0  0  0  0  0  0  0  0  0  0  0
    7.8182  -13.9641   24.6928 C   0  0  2  0  0  0  0  0  0  0  0  0
    6.9319  -14.0364   23.5604 N   0  0  0  0  0  0  0  0  0  0  0  0
    8.1878  -15.3462   25.1593 C   0  0  0  0  0  0  0  0  0  0  0  0
    7.3119  -16.1691   25.4565 O   0  0  0  0  0  0  0  0  0  0  0  0
   11.5513  -19.6614   24.0581 N   0  0  0  0  0  0  0  0  0  0  0  0
   11.9462  -18.5155   24.8013 C   0  0  0  0  0  0  0  0  0  0  0  0
   12.8922  -18.6327   25.6065 O   0  0  0  0  0  0  0  0  0  0  0  0
   11.2705  -17.2345   24.6335 C   0  0  0  0  0  0  0  0  0  0  0  0
    9.9968  -17.0747   25.4317 C   0  0  2  0  0  0  0  0  0  0  0  0
    9.5672  -15.6783   25.2488 N   0  0  0  0  0  0  0  0  0  0  0  0
   10.3271  -17.2614   26.8644 C   0  0  0  0  0  0  0  0  0  0  0  0
   10.2731  -18.5033   27.4761 O   0  0  0  0  0  0  0  0  0  0  0  0
   10.6672  -16.2982   27.5748 O   0  0  0  0  0  0  0  0  0  0  0  0
  1  2  1  0
  2  3  1  0
  3 10  1  0
  3  4  2  0
  6  7  1  0
  6  5  1  0
  7  8  1  1
  9 11  1  0
  9  7  1  0
  9 10  1  6
 11 12  2  0
 13 14  1  0
 14 15  2  0
 17 16  1  6
 16 14  1  0
 18 17  1  0
 18 11  1  0
 19 20  1  0
 19 17  1  0
 21 19  2  0
M  END
$$$$
