NYN.pdb
     RDKit          3D

 29 29  0  0  1  0  0  0  0  0999 V2000
   12.0945  -18.4678   16.1725 N   0  0  0  0  0  0  0  0  0  0  0  0
   12.0380  -17.0635   16.2012 C   0  0  0  0  0  0  0  0  0  0  0  0
   12.1721  -16.4683   15.0857 O   0  0  0  0  0  0  0  0  0  0  0  0
   11.8408  -16.2218   17.3818 C   0  0  0  0  0  0  0  0  0  0  0  0
   11.7334  -16.9832   18.6674 C   0  0  2  0  0  0  0  0  0  0  0  0
   10.6353  -17.9034   18.6421 N   0  0  0  0  0  0  0  0  0  0  0  0
   11.6856  -16.1411   19.8733 C   0  0  0  0  0  0  0  0  0  0  0  0
   12.5853  -15.3194   20.1722 O   0  0  0  0  0  0  0  0  0  0  0  0
    6.9572  -12.4267   17.3222 O   0  0  0  0  0  0  0  0  0  0  0  0
    7.4961  -12.9936   18.4952 C   0  0  0  0  0  0  0  0  0  0  0  0
    6.9898  -14.1614   19.0171 C   0  0  0  0  0  0  0  0  0  0  0  0
    7.5264  -14.7172   20.1771 C   0  0  0  0  0  0  0  0  0  0  0  0
    8.5769  -14.1279   20.8457 C   0  0  0  0  0  0  0  0  0  0  0  0
    9.1066  -14.7430   22.0525 C   0  0  0  0  0  0  0  0  0  0  0  0
   10.4451  -15.3822   21.9368 C   0  0  2  0  0  0  0  0  0  0  0  0
   10.5793  -16.2348   20.7720 N   0  0  0  0  0  0  0  0  0  0  0  0
   10.9307  -16.0523   23.1709 C   0  0  0  0  0  0  0  0  0  0  0  0
   10.6646  -15.6132   24.3276 O   0  0  0  0  0  0  0  0  0  0  0  0
    9.0722  -12.9584   20.3092 C   0  0  0  0  0  0  0  0  0  0  0  0
    8.5457  -12.3983   19.1570 C   0  0  0  0  0  0  0  0  0  0  0  0
   10.4456  -20.2687   22.2223 N   0  0  0  0  0  0  0  0  0  0  0  0
   11.3392  -20.1924   23.3183 C   0  0  0  0  0  0  0  0  0  0  0  0
   12.3422  -20.9327   23.3356 O   0  0  0  0  0  0  0  0  0  0  0  0
   11.0688  -19.2483   24.4072 C   0  0  0  0  0  0  0  0  0  0  0  0
   11.9637  -18.0034   24.3616 C   0  0  2  0  0  0  0  0  0  0  0  0
   11.7256  -17.2332   23.1569 N   0  0  0  0  0  0  0  0  0  0  0  0
   13.3437  -18.5005   24.3045 C   0  0  0  0  0  0  0  0  0  0  0  0
   13.9499  -19.0072   25.4343 O   0  0  0  0  0  0  0  0  0  0  0  0
   13.9812  -18.4716   23.2421 O   0  0  0  0  0  0  0  0  0  0  0  0
  2  1  1  0
  3  2  2  0
  4  5  1  0
  4  2  1  0
  5  6  1  6
  7  5  1  0
  7  8  2  0
  9 10  1  0
 10 11  2  0
 11 12  1  0
 13 12  2  0
 13 14  1  0
 15 14  1  1
 15 16  1  0
 16  7  1  0
 17 18  2  0
 17 15  1  0
 19 13  1  0
 20 10  1  0
 20 19  2  0
 22 23  2  0
 22 21  1  0
 24 22  1  0
 25 26  1  0
 25 24  1  6
 26 17  1  0
 27 25  1  0
 28 27  1  0
 29 27  2  0
M  END
$$$$
