NYN.pdb
     RDKit          3D

 29 29  0  0  1  0  0  0  0  0999 V2000
    9.7845  -18.1296   16.2971 N   0  0  0  0  0  0  0  0  0  0  0  0
   10.7698  -17.7340   17.2186 C   0  0  0  0  0  0  0  0  0  0  0  0
   11.9407  -18.1911   17.0270 O   0  0  0  0  0  0  0  0  0  0  0  0
   10.5832  -16.8522   18.3713 C   0  0  0  0  0  0  0  0  0  0  0  0
   11.2015  -17.3589   19.6381 C   0  0  2  0  0  0  0  0  0  0  0  0
   10.6864  -18.6476   19.9946 N   0  0  0  0  0  0  0  0  0  0  0  0
   11.1172  -16.4268   20.7737 C   0  0  0  0  0  0  0  0  0  0  0  0
   12.0000  -15.5719   21.0265 O   0  0  0  0  0  0  0  0  0  0  0  0
    6.6616  -12.7932   17.8756 O   0  0  0  0  0  0  0  0  0  0  0  0
    7.1234  -13.3133   19.1020 C   0  0  0  0  0  0  0  0  0  0  0  0
    8.1180  -12.6815   19.8120 C   0  0  0  0  0  0  0  0  0  0  0  0
    8.5705  -13.2003   21.0238 C   0  0  0  0  0  0  0  0  0  0  0  0
    8.0474  -14.3569   21.5590 C   0  0  0  0  0  0  0  0  0  0  0  0
    8.5490  -14.8622   22.8272 C   0  0  0  0  0  0  0  0  0  0  0  0
    9.8562  -15.5715   22.7865 C   0  0  2  0  0  0  0  0  0  0  0  0
    9.9929  -16.4661   21.6539 N   0  0  0  0  0  0  0  0  0  0  0  0
   10.2563  -16.2260   24.0590 C   0  0  0  0  0  0  0  0  0  0  0  0
   10.1851  -15.6336   25.1751 O   0  0  0  0  0  0  0  0  0  0  0  0
    7.0516  -14.9771   20.8348 C   0  0  0  0  0  0  0  0  0  0  0  0
    6.5951  -14.4694   19.6296 C   0  0  0  0  0  0  0  0  0  0  0  0
   10.2607  -20.8796   27.3566 N   0  0  0  0  0  0  0  0  0  0  0  0
   11.3025  -20.4346   26.5067 C   0  0  0  0  0  0  0  0  0  0  0  0
   12.4861  -20.6477   26.8353 O   0  0  0  0  0  0  0  0  0  0  0  0
   10.9705  -19.7344   25.2618 C   0  0  0  0  0  0  0  0  0  0  0  0
   11.0085  -18.2073   25.4007 C   0  0  2  0  0  0  0  0  0  0  0  0
   10.7460  -17.5608   24.1301 N   0  0  0  0  0  0  0  0  0  0  0  0
   12.3829  -17.8721   25.7930 C   0  0  0  0  0  0  0  0  0  0  0  0
   12.7268  -17.7871   27.1254 O   0  0  0  0  0  0  0  0  0  0  0  0
   13.2506  -17.6614   24.9337 O   0  0  0  0  0  0  0  0  0  0  0  0
  2  1  1  0
  3  2  2  0
  4  5  1  0
  4  2  1  0
  5  6  1  1
  7  5  1  0
  7  8  2  0
  9 10  1  0
 10 11  2  0
 11 12  1  0
 13 12  2  0
 13 14  1  0
 15 14  1  1
 15 16  1  0
 16  7  1  0
 17 18  2  0
 17 15  1  0
 19 13  1  0
 20 10  1  0
 20 19  2  0
 22 23  2  0
 22 21  1  0
 24 22  1  0
 25 26  1  0
 25 24  1  6
 26 17  1  0
 27 25  1  0
 28 27  1  0
 29 27  2  0
M  END
$$$$
