NYN.pdb
     RDKit          3D

 29 29  0  0  1  0  0  0  0  0999 V2000
   13.6580  -16.7920   15.8427 N   0  0  0  0  0  0  0  0  0  0  0  0
   12.8742  -15.6256   15.8810 C   0  0  0  0  0  0  0  0  0  0  0  0
   12.6696  -15.0438   14.7692 O   0  0  0  0  0  0  0  0  0  0  0  0
   12.2724  -15.0170   17.0679 C   0  0  0  0  0  0  0  0  0  0  0  0
   12.6340  -15.6932   18.3547 C   0  0  2  0  0  0  0  0  0  0  0  0
   12.2521  -17.0742   18.3472 N   0  0  0  0  0  0  0  0  0  0  0  0
   12.1335  -15.0162   19.5616 C   0  0  0  0  0  0  0  0  0  0  0  0
   12.6090  -13.9371   19.9899 O   0  0  0  0  0  0  0  0  0  0  0  0
    7.0400  -12.4745   16.7748 O   0  0  0  0  0  0  0  0  0  0  0  0
    7.5596  -13.0328   17.9605 C   0  0  0  0  0  0  0  0  0  0  0  0
    8.1490  -12.2417   18.9193 C   0  0  0  0  0  0  0  0  0  0  0  0
    8.6610  -12.7993   20.0895 C   0  0  0  0  0  0  0  0  0  0  0  0
    8.6003  -14.1534   20.3356 C   0  0  0  0  0  0  0  0  0  0  0  0
    9.1464  -14.6924   21.5710 C   0  0  0  0  0  0  0  0  0  0  0  0
   10.5973  -15.0222   21.5648 C   0  0  2  0  0  0  0  0  0  0  0  0
   11.0566  -15.5832   20.3094 N   0  0  0  0  0  0  0  0  0  0  0  0
   11.0666  -15.8164   22.7296 C   0  0  0  0  0  0  0  0  0  0  0  0
   10.6789  -15.5778   23.9104 O   0  0  0  0  0  0  0  0  0  0  0  0
    8.0064  -14.9314   19.3646 C   0  0  0  0  0  0  0  0  0  0  0  0
    7.4947  -14.3868   18.1984 C   0  0  0  0  0  0  0  0  0  0  0  0
   11.1745  -20.2863   21.6029 N   0  0  0  0  0  0  0  0  0  0  0  0
   11.1867  -19.6978   22.8911 C   0  0  0  0  0  0  0  0  0  0  0  0
   10.1236  -19.6348   23.5392 O   0  0  0  0  0  0  0  0  0  0  0  0
   12.4444  -19.1762   23.4356 C   0  0  0  0  0  0  0  0  0  0  0  0
   12.3812  -17.6810   23.7719 C   0  0  2  0  0  0  0  0  0  0  0  0
   11.9799  -16.9026   22.6169 N   0  0  0  0  0  0  0  0  0  0  0  0
   13.7525  -17.2870   24.1173 C   0  0  0  0  0  0  0  0  0  0  0  0
   14.3666  -17.8070   25.2368 O   0  0  0  0  0  0  0  0  0  0  0  0
   14.3754  -16.4834   23.4088 O   0  0  0  0  0  0  0  0  0  0  0  0
  2  1  1  0
  3  2  2  0
  4  5  1  0
  4  2  1  0
  5  6  1  6
  7  5  1  0
  7  8  2  0
  9 10  1  0
 10 11  2  0
 11 12  1  0
 13 12  2  0
 13 14  1  0
 15 14  1  6
 15 16  1  0
 16  7  1  0
 17 18  2  0
 17 15  1  0
 19 13  1  0
 20 10  1  0
 20 19  2  0
 22 23  2  0
 22 21  1  0
 24 22  1  0
 25 26  1  0
 25 24  1  6
 26 17  1  0
 27 25  1  0
 28 27  1  0
 29 27  2  0
M  END
$$$$
