NYN.pdb
     RDKit          3D

 29 29  0  0  1  0  0  0  0  0999 V2000
   11.7667  -17.8478   17.4238 N   0  0  0  0  0  0  0  0  0  0  0  0
   10.5581  -17.3269   17.9180 C   0  0  0  0  0  0  0  0  0  0  0  0
    9.4955  -17.7099   17.3343 O   0  0  0  0  0  0  0  0  0  0  0  0
   10.4015  -16.3921   19.0328 C   0  0  0  0  0  0  0  0  0  0  0  0
   10.1254  -17.0491   20.3505 C   0  0  2  0  0  0  0  0  0  0  0  0
    8.9671  -17.8900   20.2851 N   0  0  0  0  0  0  0  0  0  0  0  0
   10.0371  -16.1206   21.4887 C   0  0  0  0  0  0  0  0  0  0  0  0
   11.0083  -15.4371   21.8934 O   0  0  0  0  0  0  0  0  0  0  0  0
    6.3924  -10.9756   27.8272 O   0  0  0  0  0  0  0  0  0  0  0  0
    6.6396  -11.8010   26.7113 C   0  0  0  0  0  0  0  0  0  0  0  0
    6.1008  -13.0641   26.6287 C   0  0  0  0  0  0  0  0  0  0  0  0
    6.3486  -13.8756   25.5231 C   0  0  0  0  0  0  0  0  0  0  0  0
    7.1360  -13.4534   24.4745 C   0  0  0  0  0  0  0  0  0  0  0  0
    7.3675  -14.3331   23.3397 C   0  0  0  0  0  0  0  0  0  0  0  0
    8.6614  -15.0675   23.3248 C   0  0  2  0  0  0  0  0  0  0  0  0
    8.8046  -15.9621   22.1931 N   0  0  0  0  0  0  0  0  0  0  0  0
    9.0219  -15.7322   24.6038 C   0  0  0  0  0  0  0  0  0  0  0  0
    8.8485  -15.1754   25.7271 O   0  0  0  0  0  0  0  0  0  0  0  0
    7.6679  -12.1853   24.5733 C   0  0  0  0  0  0  0  0  0  0  0  0
    7.4275  -11.3713   25.6679 C   0  0  0  0  0  0  0  0  0  0  0  0
    7.7789  -19.8003   28.3375 N   0  0  0  0  0  0  0  0  0  0  0  0
    8.7470  -18.9146   27.8045 C   0  0  0  0  0  0  0  0  0  0  0  0
    9.6015  -18.4205   28.5661 O   0  0  0  0  0  0  0  0  0  0  0  0
    8.7257  -18.5968   26.3731 C   0  0  0  0  0  0  0  0  0  0  0  0
    9.8734  -17.6743   25.9436 C   0  0  2  0  0  0  0  0  0  0  0  0
    9.5844  -17.0381   24.6735 N   0  0  0  0  0  0  0  0  0  0  0  0
   11.0391  -18.5448   25.7481 C   0  0  0  0  0  0  0  0  0  0  0  0
   11.6818  -19.1037   26.8323 O   0  0  0  0  0  0  0  0  0  0  0  0
   11.4603  -18.7887   24.6085 O   0  0  0  0  0  0  0  0  0  0  0  0
  2  1  1  0
  3  2  2  0
  4  5  1  0
  4  2  1  0
  5  6  1  6
  7  5  1  0
  7  8  2  0
  9 10  1  0
 10 11  2  0
 11 12  1  0
 13 12  2  0
 13 14  1  0
 15 14  1  1
 15 16  1  0
 16  7  1  0
 17 18  2  0
 17 15  1  0
 19 13  1  0
 20 10  1  0
 20 19  2  0
 22 23  2  0
 22 21  1  0
 24 22  1  0
 25 26  1  0
 25 24  1  6
 26 17  1  0
 27 25  1  0
 28 27  1  0
 29 27  2  0
M  END
$$$$
