NYN.pdb
     RDKit          3D

 29 29  0  0  1  0  0  0  0  0999 V2000
   12.5587  -18.4059   17.2823 N   0  0  0  0  0  0  0  0  0  0  0  0
   11.5844  -17.4341   17.5700 C   0  0  0  0  0  0  0  0  0  0  0  0
   10.7213  -17.2117   16.6633 O   0  0  0  0  0  0  0  0  0  0  0  0
   11.4648  -16.6565   18.8038 C   0  0  0  0  0  0  0  0  0  0  0  0
   10.3771  -17.1246   19.7212 C   0  0  2  0  0  0  0  0  0  0  0  0
    9.1196  -17.2164   19.0404 N   0  0  0  0  0  0  0  0  0  0  0  0
   10.2471  -16.3440   20.9618 C   0  0  0  0  0  0  0  0  0  0  0  0
   11.2205  -16.0681   21.7038 O   0  0  0  0  0  0  0  0  0  0  0  0
    6.2671  -12.0774   27.7607 O   0  0  0  0  0  0  0  0  0  0  0  0
    6.5763  -12.6561   26.5128 C   0  0  0  0  0  0  0  0  0  0  0  0
    7.3821  -12.0047   25.6079 C   0  0  0  0  0  0  0  0  0  0  0  0
    7.6844  -12.5816   24.3758 C   0  0  0  0  0  0  0  0  0  0  0  0
    7.1947  -13.8171   24.0129 C   0  0  0  0  0  0  0  0  0  0  0  0
    7.5365  -14.3820   22.7171 C   0  0  0  0  0  0  0  0  0  0  0  0
    8.7484  -15.2438   22.6696 C   0  0  2  0  0  0  0  0  0  0  0  0
    8.9686  -15.8600   21.3759 N   0  0  0  0  0  0  0  0  0  0  0  0
    8.8642  -16.2275   23.7771 C   0  0  0  0  0  0  0  0  0  0  0  0
    8.1350  -17.2598   23.8431 O   0  0  0  0  0  0  0  0  0  0  0  0
    6.3890  -14.4560   24.9313 C   0  0  0  0  0  0  0  0  0  0  0  0
    6.0829  -13.8910   26.1583 C   0  0  0  0  0  0  0  0  0  0  0  0
   12.9043  -18.5954   27.3846 N   0  0  0  0  0  0  0  0  0  0  0  0
   11.8247  -18.8113   26.4938 C   0  0  0  0  0  0  0  0  0  0  0  0
   11.1979  -19.8875   26.5501 O   0  0  0  0  0  0  0  0  0  0  0  0
   11.4662  -17.7692   25.5265 C   0  0  0  0  0  0  0  0  0  0  0  0
   10.0660  -17.1875   25.7584 C   0  0  2  0  0  0  0  0  0  0  0  0
    9.7966  -16.0949   24.8447 N   0  0  0  0  0  0  0  0  0  0  0  0
   10.0790  -16.6350   27.1184 C   0  0  0  0  0  0  0  0  0  0  0  0
   10.3483  -15.2988   27.3259 O   0  0  0  0  0  0  0  0  0  0  0  0
    9.8486  -17.3605   28.0963 O   0  0  0  0  0  0  0  0  0  0  0  0
  2  1  1  0
  3  2  2  0
  4  5  1  0
  4  2  1  0
  5  6  1  6
  7  5  1  0
  7  8  2  0
  9 10  1  0
 10 11  2  0
 11 12  1  0
 13 12  2  0
 13 14  1  0
 15 14  1  6
 15 16  1  0
 16  7  1  0
 17 18  2  0
 17 15  1  0
 19 13  1  0
 20 10  1  0
 20 19  2  0
 22 23  2  0
 22 21  1  0
 24 22  1  0
 25 26  1  0
 25 24  1  6
 26 17  1  0
 27 25  1  0
 28 27  1  0
 29 27  2  0
M  END
$$$$
