NYN.pdb
     RDKit          3D

 29 29  0  0  1  0  0  0  0  0999 V2000
   10.0776  -20.0496   16.4514 N   0  0  0  0  0  0  0  0  0  0  0  0
   10.1900  -18.6601   16.2699 C   0  0  0  0  0  0  0  0  0  0  0  0
   10.2041  -18.2451   15.0682 O   0  0  0  0  0  0  0  0  0  0  0  0
   10.2918  -17.6479   17.3217 C   0  0  0  0  0  0  0  0  0  0  0  0
   10.3507  -18.2086   18.7095 C   0  0  2  0  0  0  0  0  0  0  0  0
    9.1282  -18.8682   19.0613 N   0  0  0  0  0  0  0  0  0  0  0  0
   10.7402  -17.2374   19.7442 C   0  0  0  0  0  0  0  0  0  0  0  0
   11.7537  -16.5039   19.6497 O   0  0  0  0  0  0  0  0  0  0  0  0
    5.8496  -12.4701   19.0522 O   0  0  0  0  0  0  0  0  0  0  0  0
    6.6528  -13.2266   19.9297 C   0  0  0  0  0  0  0  0  0  0  0  0
    7.8622  -12.7473   20.3771 C   0  0  0  0  0  0  0  0  0  0  0  0
    8.6521  -13.4997   21.2446 C   0  0  0  0  0  0  0  0  0  0  0  0
    8.2610  -14.7440   21.6880 C   0  0  0  0  0  0  0  0  0  0  0  0
    9.1163  -15.4944   22.5938 C   0  0  0  0  0  0  0  0  0  0  0  0
   10.2975  -16.1643   21.9859 C   0  0  2  0  0  0  0  0  0  0  0  0
    9.9535  -17.0935   20.9276 N   0  0  0  0  0  0  0  0  0  0  0  0
   11.2507  -16.7612   22.9570 C   0  0  0  0  0  0  0  0  0  0  0  0
   11.0055  -17.8425   23.5671 O   0  0  0  0  0  0  0  0  0  0  0  0
    7.0465  -15.2091   21.2300 C   0  0  0  0  0  0  0  0  0  0  0  0
    6.2544  -14.4690   20.3679 C   0  0  0  0  0  0  0  0  0  0  0  0
   15.6995  -18.2326   25.1468 N   0  0  0  0  0  0  0  0  0  0  0  0
   15.8821  -16.8690   24.8106 C   0  0  0  0  0  0  0  0  0  0  0  0
   16.9248  -16.2894   25.1727 O   0  0  0  0  0  0  0  0  0  0  0  0
   14.8454  -16.1678   24.0464 C   0  0  0  0  0  0  0  0  0  0  0  0
   13.4810  -16.8665   24.1000 C   0  0  2  0  0  0  0  0  0  0  0  0
   12.5077  -16.1750   23.2780 N   0  0  0  0  0  0  0  0  0  0  0  0
   13.0325  -16.7693   25.4944 C   0  0  0  0  0  0  0  0  0  0  0  0
   13.5000  -17.6562   26.4408 O   0  0  0  0  0  0  0  0  0  0  0  0
   12.2295  -15.8906   25.8390 O   0  0  0  0  0  0  0  0  0  0  0  0
  2  1  1  0
  3  2  2  0
  4  5  1  0
  4  2  1  0
  5  6  1  1
  7  5  1  0
  7  8  2  0
  9 10  1  0
 10 11  2  0
 11 12  1  0
 13 12  2  0
 13 14  1  0
 15 14  1  1
 15 16  1  0
 16  7  1  0
 17 18  2  0
 17 15  1  0
 19 13  1  0
 20 10  1  0
 20 19  2  0
 22 23  2  0
 22 21  1  0
 24 22  1  0
 25 26  1  0
 25 24  1  1
 26 17  1  0
 27 25  1  0
 28 27  1  0
 29 27  2  0
M  END
$$$$
