NYN.pdb
     RDKit          3D

 29 29  0  0  1  0  0  0  0  0999 V2000
   10.1566  -17.7387   16.8551 N   0  0  0  0  0  0  0  0  0  0  0  0
   11.0681  -17.6075   17.9173 C   0  0  0  0  0  0  0  0  0  0  0  0
   12.0596  -18.4033   17.9144 O   0  0  0  0  0  0  0  0  0  0  0  0
   10.9901  -16.6502   19.0212 C   0  0  0  0  0  0  0  0  0  0  0  0
   10.5652  -17.2511   20.3259 C   0  0  2  0  0  0  0  0  0  0  0  0
    9.3865  -18.0520   20.1757 N   0  0  0  0  0  0  0  0  0  0  0  0
   10.4055  -16.2815   21.4212 C   0  0  0  0  0  0  0  0  0  0  0  0
   11.3612  -15.6255   21.9013 O   0  0  0  0  0  0  0  0  0  0  0  0
    6.3788  -11.1445   27.5534 O   0  0  0  0  0  0  0  0  0  0  0  0
    6.6724  -11.9870   26.4618 C   0  0  0  0  0  0  0  0  0  0  0  0
    6.1999  -13.2781   26.4138 C   0  0  0  0  0  0  0  0  0  0  0  0
    6.4934  -14.1065   25.3321 C   0  0  0  0  0  0  0  0  0  0  0  0
    7.2618  -13.6737   24.2737 C   0  0  0  0  0  0  0  0  0  0  0  0
    7.5426  -14.5717   23.1647 C   0  0  0  0  0  0  0  0  0  0  0  0
    8.9111  -15.1534   23.1144 C   0  0  2  0  0  0  0  0  0  0  0  0
    9.1174  -16.0483   21.9927 N   0  0  0  0  0  0  0  0  0  0  0  0
    9.3895  -15.7467   24.3899 C   0  0  0  0  0  0  0  0  0  0  0  0
    9.4597  -15.0777   25.4619 O   0  0  0  0  0  0  0  0  0  0  0  0
    7.7271  -12.3774   24.3378 C   0  0  0  0  0  0  0  0  0  0  0  0
    7.4409  -11.5465   25.4084 C   0  0  0  0  0  0  0  0  0  0  0  0
   11.0748  -19.0493   28.0268 N   0  0  0  0  0  0  0  0  0  0  0  0
   10.2393  -19.7707   27.1394 C   0  0  0  0  0  0  0  0  0  0  0  0
    9.9455  -20.9521   27.4085 O   0  0  0  0  0  0  0  0  0  0  0  0
    9.7381  -19.1171   25.9262 C   0  0  0  0  0  0  0  0  0  0  0  0
   10.2045  -17.6624   25.7889 C   0  0  2  0  0  0  0  0  0  0  0  0
    9.8025  -17.1034   24.5133 N   0  0  0  0  0  0  0  0  0  0  0  0
   11.6717  -17.7053   25.8114 C   0  0  0  0  0  0  0  0  0  0  0  0
   12.3943  -17.4617   24.6628 O   0  0  0  0  0  0  0  0  0  0  0  0
   12.2793  -17.9605   26.8609 O   0  0  0  0  0  0  0  0  0  0  0  0
  2  1  1  0
  3  2  2  0
  4  5  1  0
  4  2  1  0
  5  6  1  6
  7  5  1  0
  7  8  2  0
  9 10  1  0
 10 11  2  0
 11 12  1  0
 13 12  2  0
 13 14  1  0
 15 14  1  1
 15 16  1  0
 16  7  1  0
 17 18  2  0
 17 15  1  0
 19 13  1  0
 20 10  1  0
 20 19  2  0
 22 23  2  0
 22 21  1  0
 24 22  1  0
 25 26  1  0
 25 24  1  6
 26 17  1  0
 27 25  1  0
 28 27  1  0
 29 27  2  0
M  END
$$$$
