NYN.pdb
     RDKit          3D

 29 29  0  0  1  0  0  0  0  0999 V2000
    7.2756  -12.4630   17.7508 N   0  0  0  0  0  0  0  0  0  0  0  0
    8.0741  -13.5034   18.2568 C   0  0  0  0  0  0  0  0  0  0  0  0
    8.3262  -14.4623   17.4609 O   0  0  0  0  0  0  0  0  0  0  0  0
    8.6419  -13.5926   19.6025 C   0  0  0  0  0  0  0  0  0  0  0  0
    8.5798  -14.9625   20.2053 C   0  0  2  0  0  0  0  0  0  0  0  0
    7.2741  -15.5369   20.0693 N   0  0  0  0  0  0  0  0  0  0  0  0
    9.0441  -15.0373   21.5997 C   0  0  0  0  0  0  0  0  0  0  0  0
   10.1688  -14.6237   21.9713 O   0  0  0  0  0  0  0  0  0  0  0  0
    6.3694  -10.3707   26.7788 O   0  0  0  0  0  0  0  0  0  0  0  0
    6.6645  -11.6768   26.3375 C   0  0  0  0  0  0  0  0  0  0  0  0
    5.9870  -12.2396   25.2808 C   0  0  0  0  0  0  0  0  0  0  0  0
    6.2831  -13.5312   24.8489 C   0  0  0  0  0  0  0  0  0  0  0  0
    7.2573  -14.2939   25.4548 C   0  0  0  0  0  0  0  0  0  0  0  0
    7.5341  -15.6371   24.9708 C   0  0  0  0  0  0  0  0  0  0  0  0
    8.6370  -15.7698   23.9810 C   0  0  2  0  0  0  0  0  0  0  0  0
    8.2040  -15.6014   22.6077 N   0  0  0  0  0  0  0  0  0  0  0  0
    9.4899  -16.9749   24.1477 C   0  0  0  0  0  0  0  0  0  0  0  0
    9.1234  -18.1215   23.7569 O   0  0  0  0  0  0  0  0  0  0  0  0
    7.9265  -13.7147   26.5120 C   0  0  0  0  0  0  0  0  0  0  0  0
    7.6395  -12.4319   26.9485 C   0  0  0  0  0  0  0  0  0  0  0  0
   14.4781  -19.1110   26.4984 N   0  0  0  0  0  0  0  0  0  0  0  0
   13.8608  -19.0584   25.2248 C   0  0  0  0  0  0  0  0  0  0  0  0
   14.0244  -20.0065   24.4319 O   0  0  0  0  0  0  0  0  0  0  0  0
   13.0445  -17.8947   24.8647 C   0  0  0  0  0  0  0  0  0  0  0  0
   11.5378  -18.1537   24.9892 C   0  0  2  0  0  0  0  0  0  0  0  0
   10.7784  -16.9420   24.7521 N   0  0  0  0  0  0  0  0  0  0  0  0
   11.3111  -18.5532   26.3835 C   0  0  0  0  0  0  0  0  0  0  0  0
   11.4977  -19.8625   26.7731 O   0  0  0  0  0  0  0  0  0  0  0  0
   10.9497  -17.7208   27.2275 O   0  0  0  0  0  0  0  0  0  0  0  0
  2  1  1  0
  3  2  2  0
  4  5  1  0
  4  2  1  0
  5  6  1  1
  7  5  1  0
  7  8  2  0
  9 10  1  0
 10 11  2  0
 11 12  1  0
 13 12  2  0
 13 14  1  0
 15 14  1  1
 15 16  1  0
 16  7  1  0
 17 18  2  0
 17 15  1  0
 19 13  1  0
 20 10  1  0
 20 19  2  0
 22 23  2  0
 22 21  1  0
 24 22  1  0
 25 26  1  0
 25 24  1  1
 26 17  1  0
 27 25  1  0
 28 27  1  0
 29 27  2  0
M  END
$$$$
