NYN.pdb
     RDKit          3D

 29 29  0  0  1  0  0  0  0  0999 V2000
    8.7100  -16.1180   16.3902 N   0  0  0  0  0  0  0  0  0  0  0  0
    8.3002  -14.8332   16.7871 C   0  0  0  0  0  0  0  0  0  0  0  0
    7.8761  -14.0645   15.8674 O   0  0  0  0  0  0  0  0  0  0  0  0
    8.3128  -14.2943   18.1475 C   0  0  0  0  0  0  0  0  0  0  0  0
    8.7710  -15.2684   19.1892 C   0  0  2  0  0  0  0  0  0  0  0  0
    7.9454  -16.4393   19.2121 N   0  0  0  0  0  0  0  0  0  0  0  0
    8.9114  -14.6980   20.5385 C   0  0  0  0  0  0  0  0  0  0  0  0
    9.7932  -13.8580   20.8397 O   0  0  0  0  0  0  0  0  0  0  0  0
    6.7030  -11.1821   28.2857 O   0  0  0  0  0  0  0  0  0  0  0  0
    6.7451  -11.9922   27.1326 C   0  0  0  0  0  0  0  0  0  0  0  0
    5.9041  -13.0717   26.9918 C   0  0  0  0  0  0  0  0  0  0  0  0
    5.9502  -13.8691   25.8496 C   0  0  0  0  0  0  0  0  0  0  0  0
    6.8310  -13.6144   24.8215 C   0  0  0  0  0  0  0  0  0  0  0  0
    6.8445  -14.4721   23.6471 C   0  0  0  0  0  0  0  0  0  0  0  0
    8.1480  -14.6100   22.9431 C   0  0  2  0  0  0  0  0  0  0  0  0
    8.0212  -15.0947   21.5827 N   0  0  0  0  0  0  0  0  0  0  0  0
    9.1949  -15.3471   23.6970 C   0  0  0  0  0  0  0  0  0  0  0  0
    9.4050  -15.1502   24.9294 O   0  0  0  0  0  0  0  0  0  0  0  0
    7.6666  -12.5290   24.9788 C   0  0  0  0  0  0  0  0  0  0  0  0
    7.6283  -11.7306   26.1100 C   0  0  0  0  0  0  0  0  0  0  0  0
   12.6252  -18.8500   25.2815 N   0  0  0  0  0  0  0  0  0  0  0  0
   11.5983  -19.4571   24.5182 C   0  0  0  0  0  0  0  0  0  0  0  0
   11.4964  -20.6996   24.5183 O   0  0  0  0  0  0  0  0  0  0  0  0
   10.6784  -18.6161   23.7457 C   0  0  0  0  0  0  0  0  0  0  0  0
   10.9616  -17.1163   23.8973 C   0  0  2  0  0  0  0  0  0  0  0  0
   10.0393  -16.3280   23.1042 N   0  0  0  0  0  0  0  0  0  0  0  0
   12.3083  -16.9031   23.3532 C   0  0  0  0  0  0  0  0  0  0  0  0
   12.4852  -16.1811   22.1921 O   0  0  0  0  0  0  0  0  0  0  0  0
   13.3022  -17.3681   23.9291 O   0  0  0  0  0  0  0  0  0  0  0  0
  2  1  1  0
  3  2  2  0
  4  5  1  0
  4  2  1  0
  5  6  1  1
  7  5  1  0
  7  8  2  0
  9 10  1  0
 10 11  2  0
 11 12  1  0
 13 12  2  0
 13 14  1  0
 15 14  1  1
 15 16  1  0
 16  7  1  0
 17 18  2  0
 17 15  1  0
 19 13  1  0
 20 10  1  0
 20 19  2  0
 22 23  2  0
 22 21  1  0
 24 22  1  0
 25 26  1  0
 25 24  1  6
 26 17  1  0
 27 25  1  0
 28 27  1  0
 29 27  2  0
M  END
$$$$
