NYN.pdb
     RDKit          3D

 29 29  0  0  1  0  0  0  0  0999 V2000
    7.3799  -12.6327   18.4999 N   0  0  0  0  0  0  0  0  0  0  0  0
    8.1639  -13.6138   19.1316 C   0  0  0  0  0  0  0  0  0  0  0  0
    8.4534  -14.6401   18.4390 O   0  0  0  0  0  0  0  0  0  0  0  0
    8.6783  -13.5719   20.5008 C   0  0  0  0  0  0  0  0  0  0  0  0
    8.5573  -14.8681   21.2419 C   0  0  2  0  0  0  0  0  0  0  0  0
    7.2111  -15.3588   21.2244 N   0  0  0  0  0  0  0  0  0  0  0  0
    9.0880  -14.8385   22.6141 C   0  0  0  0  0  0  0  0  0  0  0  0
   10.2213  -14.3833   22.9015 O   0  0  0  0  0  0  0  0  0  0  0  0
    5.7999   -9.8866   26.5330 O   0  0  0  0  0  0  0  0  0  0  0  0
    6.2819  -11.2066   26.4191 C   0  0  0  0  0  0  0  0  0  0  0  0
    7.5149  -11.5580   26.9177 C   0  0  0  0  0  0  0  0  0  0  0  0
    7.9862  -12.8645   26.8022 C   0  0  0  0  0  0  0  0  0  0  0  0
    7.2459  -13.8519   26.1900 C   0  0  0  0  0  0  0  0  0  0  0  0
    7.7763  -15.2026   26.0923 C   0  0  0  0  0  0  0  0  0  0  0  0
    8.8155  -15.4320   25.0526 C   0  0  2  0  0  0  0  0  0  0  0  0
    8.3066  -15.3433   23.6980 N   0  0  0  0  0  0  0  0  0  0  0  0
    9.6471  -16.6470   25.2520 C   0  0  0  0  0  0  0  0  0  0  0  0
   10.2068  -16.9089   26.3565 O   0  0  0  0  0  0  0  0  0  0  0  0
    6.0128  -13.4827   25.6961 C   0  0  0  0  0  0  0  0  0  0  0  0
    5.5357  -12.1870   25.8060 C   0  0  0  0  0  0  0  0  0  0  0  0
   12.1402  -21.5459   22.4116 N   0  0  0  0  0  0  0  0  0  0  0  0
   11.4281  -20.9670   23.4902 C   0  0  0  0  0  0  0  0  0  0  0  0
   11.4712  -21.5150   24.6092 O   0  0  0  0  0  0  0  0  0  0  0  0
   10.6567  -19.7392   23.2712 C   0  0  0  0  0  0  0  0  0  0  0  0
   10.7328  -18.7613   24.4504 C   0  0  2  0  0  0  0  0  0  0  0  0
    9.8801  -17.6101   24.2298 N   0  0  0  0  0  0  0  0  0  0  0  0
   12.1205  -18.2841   24.4897 C   0  0  0  0  0  0  0  0  0  0  0  0
   12.9589  -18.6611   25.5172 O   0  0  0  0  0  0  0  0  0  0  0  0
   12.5562  -17.5374   23.6018 O   0  0  0  0  0  0  0  0  0  0  0  0
  2  1  1  0
  3  2  2  0
  4  5  1  0
  4  2  1  0
  5  6  1  1
  7  5  1  0
  7  8  2  0
  9 10  1  0
 10 11  2  0
 11 12  1  0
 13 12  2  0
 13 14  1  0
 15 14  1  1
 15 16  1  0
 16  7  1  0
 17 18  2  0
 17 15  1  0
 19 13  1  0
 20 10  1  0
 20 19  2  0
 22 23  2  0
 22 21  1  0
 24 22  1  0
 25 26  1  0
 25 24  1  6
 26 17  1  0
 27 25  1  0
 28 27  1  0
 29 27  2  0
M  END
$$$$
