NYN.pdb
     RDKit          3D

 29 29  0  0  1  0  0  0  0  0999 V2000
   11.3809  -17.5442   16.4858 N   0  0  0  0  0  0  0  0  0  0  0  0
   10.2959  -17.0459   17.2280 C   0  0  0  0  0  0  0  0  0  0  0  0
    9.1359  -17.2830   16.7644 O   0  0  0  0  0  0  0  0  0  0  0  0
   10.3679  -16.2849   18.4757 C   0  0  0  0  0  0  0  0  0  0  0  0
    9.8166  -17.0062   19.6672 C   0  0  2  0  0  0  0  0  0  0  0  0
    8.5102  -17.5327   19.4038 N   0  0  0  0  0  0  0  0  0  0  0  0
    9.8260  -16.2230   20.9130 C   0  0  0  0  0  0  0  0  0  0  0  0
   10.8755  -15.7713   21.4314 O   0  0  0  0  0  0  0  0  0  0  0  0
    6.7903  -11.7331   28.0316 O   0  0  0  0  0  0  0  0  0  0  0  0
    6.9174  -12.4136   26.8034 C   0  0  0  0  0  0  0  0  0  0  0  0
    6.4016  -13.6778   26.6351 C   0  0  0  0  0  0  0  0  0  0  0  0
    6.5303  -14.3457   25.4187 C   0  0  0  0  0  0  0  0  0  0  0  0
    7.1731  -13.7756   24.3418 C   0  0  0  0  0  0  0  0  0  0  0  0
    7.2836  -14.5084   23.0905 C   0  0  0  0  0  0  0  0  0  0  0  0
    8.5586  -15.2406   22.8627 C   0  0  2  0  0  0  0  0  0  0  0  0
    8.6028  -15.9430   21.5953 N   0  0  0  0  0  0  0  0  0  0  0  0
    8.9973  -16.1048   23.9890 C   0  0  0  0  0  0  0  0  0  0  0  0
    8.4012  -17.1806   24.2871 O   0  0  0  0  0  0  0  0  0  0  0  0
    7.6839  -12.5085   24.5276 C   0  0  0  0  0  0  0  0  0  0  0  0
    7.5611  -11.8366   25.7326 C   0  0  0  0  0  0  0  0  0  0  0  0
   13.7493  -16.4104   23.9225 N   0  0  0  0  0  0  0  0  0  0  0  0
   12.7585  -17.2022   24.5526 C   0  0  0  0  0  0  0  0  0  0  0  0
   12.4144  -18.2773   24.0236 O   0  0  0  0  0  0  0  0  0  0  0  0
   12.1588  -16.7441   25.8099 C   0  0  0  0  0  0  0  0  0  0  0  0
   10.6251  -16.7520   25.7841 C   0  0  2  0  0  0  0  0  0  0  0  0
   10.1143  -15.8004   24.8174 N   0  0  0  0  0  0  0  0  0  0  0  0
   10.1971  -16.3049   27.1152 C   0  0  0  0  0  0  0  0  0  0  0  0
   10.4563  -17.0774   28.2273 O   0  0  0  0  0  0  0  0  0  0  0  0
    9.5983  -15.2292   27.2570 O   0  0  0  0  0  0  0  0  0  0  0  0
  2  1  1  0
  3  2  2  0
  4  5  1  0
  4  2  1  0
  5  6  1  6
  7  5  1  0
  7  8  2  0
  9 10  1  0
 10 11  2  0
 11 12  1  0
 13 12  2  0
 13 14  1  0
 15 14  1  1
 15 16  1  0
 16  7  1  0
 17 18  2  0
 17 15  1  0
 19 13  1  0
 20 10  1  0
 20 19  2  0
 22 23  2  0
 22 21  1  0
 24 22  1  0
 25 26  1  0
 25 24  1  1
 26 17  1  0
 27 25  1  0
 28 27  1  0
 29 27  2  0
M  END
$$$$
