NYN.pdb
     RDKit          3D

 29 29  0  0  1  0  0  0  0  0999 V2000
    8.4440  -20.3931   17.8271 N   0  0  0  0  0  0  0  0  0  0  0  0
    7.9498  -19.1688   18.3100 C   0  0  0  0  0  0  0  0  0  0  0  0
    7.0234  -18.6243   17.6304 O   0  0  0  0  0  0  0  0  0  0  0  0
    8.3930  -18.4617   19.5120 C   0  0  0  0  0  0  0  0  0  0  0  0
    8.6973  -17.0113   19.2936 C   0  0  2  0  0  0  0  0  0  0  0  0
    9.7357  -16.8333   18.3224 N   0  0  0  0  0  0  0  0  0  0  0  0
    8.9927  -16.2579   20.5226 C   0  0  0  0  0  0  0  0  0  0  0  0
   10.1372  -16.2001   21.0334 O   0  0  0  0  0  0  0  0  0  0  0  0
    7.1083  -12.1025   28.2480 O   0  0  0  0  0  0  0  0  0  0  0  0
    7.0949  -12.5748   26.9197 C   0  0  0  0  0  0  0  0  0  0  0  0
    6.3250  -13.6560   26.5580 C   0  0  0  0  0  0  0  0  0  0  0  0
    6.3157  -14.1185   25.2433 C   0  0  0  0  0  0  0  0  0  0  0  0
    7.0694  -13.5199   24.2577 C   0  0  0  0  0  0  0  0  0  0  0  0
    7.0289  -14.0352   22.8983 C   0  0  0  0  0  0  0  0  0  0  0  0
    8.1411  -14.9397   22.5000 C   0  0  2  0  0  0  0  0  0  0  0  0
    7.9538  -15.5459   21.1965 N   0  0  0  0  0  0  0  0  0  0  0  0
    8.5341  -15.9418   23.5242 C   0  0  0  0  0  0  0  0  0  0  0  0
    7.8424  -16.9754   23.7585 O   0  0  0  0  0  0  0  0  0  0  0  0
    7.8350  -12.4379   24.6372 C   0  0  0  0  0  0  0  0  0  0  0  0
    7.8509  -11.9708   25.9411 C   0  0  0  0  0  0  0  0  0  0  0  0
   12.4229  -19.3340   25.4915 N   0  0  0  0  0  0  0  0  0  0  0  0
   12.3088  -18.0040   25.9647 C   0  0  0  0  0  0  0  0  0  0  0  0
   12.6888  -17.7372   27.1217 O   0  0  0  0  0  0  0  0  0  0  0  0
   11.7483  -16.9705   25.0883 C   0  0  0  0  0  0  0  0  0  0  0  0
   10.2147  -16.9418   25.0948 C   0  0  2  0  0  0  0  0  0  0  0  0
    9.7101  -15.8268   24.3180 N   0  0  0  0  0  0  0  0  0  0  0  0
    9.8213  -16.7226   26.4920 C   0  0  0  0  0  0  0  0  0  0  0  0
    9.7497  -15.4446   27.0042 O   0  0  0  0  0  0  0  0  0  0  0  0
    9.5488  -17.6813   27.2285 O   0  0  0  0  0  0  0  0  0  0  0  0
  2  1  1  0
  3  2  2  0
  4  5  1  0
  4  2  1  0
  5  6  1  6
  7  5  1  0
  7  8  2  0
  9 10  1  0
 10 11  2  0
 11 12  1  0
 13 12  2  0
 13 14  1  0
 15 14  1  1
 15 16  1  0
 16  7  1  0
 17 18  2  0
 17 15  1  0
 19 13  1  0
 20 10  1  0
 20 19  2  0
 22 23  2  0
 22 21  1  0
 24 22  1  0
 25 26  1  0
 25 24  1  1
 26 17  1  0
 27 25  1  0
 28 27  1  0
 29 27  2  0
M  END
$$$$
