NYN.pdb
     RDKit          3D

 29 29  0  0  1  0  0  0  0  0999 V2000
    7.3827  -12.4583   17.9289 N   0  0  0  0  0  0  0  0  0  0  0  0
    7.9825  -13.5805   18.5264 C   0  0  0  0  0  0  0  0  0  0  0  0
    8.0446  -14.6343   17.8176 O   0  0  0  0  0  0  0  0  0  0  0  0
    8.5406  -13.6566   19.8769 C   0  0  0  0  0  0  0  0  0  0  0  0
    8.3832  -14.9947   20.5315 C   0  0  2  0  0  0  0  0  0  0  0  0
    7.0218  -15.4402   20.4945 N   0  0  0  0  0  0  0  0  0  0  0  0
    8.9248  -15.0734   21.8975 C   0  0  0  0  0  0  0  0  0  0  0  0
   10.0585  -14.6374   22.2121 O   0  0  0  0  0  0  0  0  0  0  0  0
    6.0834  -10.3173   26.6006 O   0  0  0  0  0  0  0  0  0  0  0  0
    6.4488  -11.6414   26.2832 C   0  0  0  0  0  0  0  0  0  0  0  0
    7.7132  -12.1129   26.5504 C   0  0  0  0  0  0  0  0  0  0  0  0
    8.0688  -13.4229   26.2344 C   0  0  0  0  0  0  0  0  0  0  0  0
    7.1791  -14.2949   25.6463 C   0  0  0  0  0  0  0  0  0  0  0  0
    7.5925  -15.6539   25.3343 C   0  0  0  0  0  0  0  0  0  0  0  0
    8.6503  -15.8027   24.2987 C   0  0  2  0  0  0  0  0  0  0  0  0
    8.1544  -15.6679   22.9431 N   0  0  0  0  0  0  0  0  0  0  0  0
    9.5179  -16.9990   24.4533 C   0  0  0  0  0  0  0  0  0  0  0  0
    9.0836  -18.1753   24.2822 O   0  0  0  0  0  0  0  0  0  0  0  0
    5.9166  -13.8063   25.3854 C   0  0  0  0  0  0  0  0  0  0  0  0
    5.5536  -12.5061   25.6958 C   0  0  0  0  0  0  0  0  0  0  0  0
   14.6939  -19.6442   24.1663 N   0  0  0  0  0  0  0  0  0  0  0  0
   14.0578  -18.9322   25.2124 C   0  0  0  0  0  0  0  0  0  0  0  0
   14.2418  -19.2935   26.3913 O   0  0  0  0  0  0  0  0  0  0  0  0
   13.1986  -17.7884   24.8901 C   0  0  0  0  0  0  0  0  0  0  0  0
   11.7025  -18.1163   24.9734 C   0  0  2  0  0  0  0  0  0  0  0  0
   10.8964  -16.9240   24.8007 N   0  0  0  0  0  0  0  0  0  0  0  0
   11.4736  -18.6127   26.3358 C   0  0  0  0  0  0  0  0  0  0  0  0
   11.4534  -19.9676   26.5902 O   0  0  0  0  0  0  0  0  0  0  0  0
   11.2959  -17.8224   27.2736 O   0  0  0  0  0  0  0  0  0  0  0  0
  2  1  1  0
  3  2  2  0
  4  5  1  0
  4  2  1  0
  5  6  1  1
  7  5  1  0
  7  8  2  0
  9 10  1  0
 10 11  2  0
 11 12  1  0
 13 12  2  0
 13 14  1  0
 15 14  1  1
 15 16  1  0
 16  7  1  0
 17 18  2  0
 17 15  1  0
 19 13  1  0
 20 10  1  0
 20 19  2  0
 22 23  2  0
 22 21  1  0
 24 22  1  0
 25 26  1  0
 25 24  1  1
 26 17  1  0
 27 25  1  0
 28 27  1  0
 29 27  2  0
M  END
$$$$
