CIE.pdb
     RDKit          3D

 24 23  0  0  1  0  0  0  0  0999 V2000
    4.7128  -19.6659   23.7715 N   0  0  0  0  0  0  0  0  0  0  0  0
    5.5453  -19.1242   24.8550 C   0  0  1  0  0  0  0  0  0  0  0  0
    6.4978  -20.2373   25.2411 C   0  0  0  0  0  0  0  0  0  0  0  0
    7.3560  -19.6884   26.7589 S   0  0  0  0  0  0  0  0  0  0  0  0
    6.2540  -17.9230   24.3793 C   0  0  0  0  0  0  0  0  0  0  0  0
    6.6860  -17.8870   23.2096 O   0  0  0  0  0  0  0  0  0  0  0  0
    6.8817  -12.1284   26.2339 C   0  0  0  0  0  0  0  0  0  0  0  0
    7.4124  -13.1790   25.2247 C   0  0  0  0  0  0  0  0  0  0  0  0
    6.8459  -14.4786   25.6738 C   0  0  2  0  0  0  0  0  0  0  0  0
    7.1294  -14.7556   27.1354 C   0  0  0  0  0  0  0  0  0  0  0  0
    7.2496  -15.6379   24.7992 C   0  0  2  0  0  0  0  0  0  0  0  0
    6.4483  -16.8154   25.2324 N   0  0  0  0  0  0  0  0  0  0  0  0
    8.6625  -16.0210   24.9426 C   0  0  0  0  0  0  0  0  0  0  0  0
    9.0778  -16.4170   26.0856 O   0  0  0  0  0  0  0  0  0  0  0  0
    9.6555  -16.0103   23.9388 N   0  0  0  0  0  0  0  0  0  0  0  0
   11.0336  -16.3475   24.1509 C   0  0  1  0  0  0  0  0  0  0  0  0
   11.9871  -15.5406   23.3232 C   0  0  0  0  0  0  0  0  0  0  0  0
   13.4242  -15.8315   23.5846 C   0  0  0  0  0  0  0  0  0  0  0  0
   14.1616  -15.7329   22.3155 C   0  0  0  0  0  0  0  0  0  0  0  0
   13.5654  -15.4125   21.2728 O   0  0  0  0  0  0  0  0  0  0  0  0
   11.4363  -16.1961   25.5795 C   0  0  0  0  0  0  0  0  0  0  0  0
   10.9730  -15.1102   26.3080 O   0  0  0  0  0  0  0  0  0  0  0  0
   15.5140  -15.9925   22.2652 O   0  0  0  0  0  0  0  0  0  0  0  0
   12.1950  -17.0325   26.1595 O   0  0  0  0  0  0  0  0  0  0  0  0
  2  1  1  6
  3  4  1  0
  3  2  1  0
  5  6  2  0
  5  2  1  0
  7  8  1  0
  8  9  1  0
  9 11  1  0
  9 10  1  1
 11 12  1  1
 11 13  1  0
 12  5  1  0
 13 15  1  0
 14 13  2  0
 15 16  1  0
 16 21  1  0
 16 17  1  6
 17 18  1  0
 19 18  1  0
 19 23  1  0
 20 19  2  0
 21 24  2  0
 21 22  1  0
M  END
$$$$
