CIE.pdb
     RDKit          3D

 24 23  0  0  1  0  0  0  0  0999 V2000
    5.3983  -13.3687   26.8878 N   0  0  0  0  0  0  0  0  0  0  0  0
    6.7169  -13.2229   26.2550 C   0  0  1  0  0  0  0  0  0  0  0  0
    7.7308  -13.5668   27.3270 C   0  0  0  0  0  0  0  0  0  0  0  0
    8.9842  -12.2363   27.3075 S   0  0  0  0  0  0  0  0  0  0  0  0
    6.8080  -14.1224   25.0914 C   0  0  0  0  0  0  0  0  0  0  0  0
    6.2697  -15.2467   25.1400 O   0  0  0  0  0  0  0  0  0  0  0  0
    7.5865  -13.4906   19.1166 C   0  0  0  0  0  0  0  0  0  0  0  0
    7.6496  -14.5451   20.2514 C   0  0  0  0  0  0  0  0  0  0  0  0
    7.6086  -13.7654   21.5171 C   0  0  2  0  0  0  0  0  0  0  0  0
    8.6879  -12.7046   21.5748 C   0  0  0  0  0  0  0  0  0  0  0  0
    7.6136  -14.6320   22.7503 C   0  0  2  0  0  0  0  0  0  0  0  0
    7.4969  -13.7252   23.9253 N   0  0  0  0  0  0  0  0  0  0  0  0
    8.8603  -15.3908   22.9330 C   0  0  0  0  0  0  0  0  0  0  0  0
    9.8741  -14.7938   23.4343 O   0  0  0  0  0  0  0  0  0  0  0  0
    9.0870  -16.7482   22.6167 N   0  0  0  0  0  0  0  0  0  0  0  0
   10.3190  -17.4453   22.8494 C   0  0  1  0  0  0  0  0  0  0  0  0
   11.4532  -16.9693   21.9935 C   0  0  0  0  0  0  0  0  0  0  0  0
   11.2988  -17.2761   20.5444 C   0  0  0  0  0  0  0  0  0  0  0  0
   12.6326  -17.5069   19.9685 C   0  0  0  0  0  0  0  0  0  0  0  0
   13.3761  -18.3786   20.4509 O   0  0  0  0  0  0  0  0  0  0  0  0
   10.7577  -17.3526   24.2724 C   0  0  0  0  0  0  0  0  0  0  0  0
   11.9599  -17.9294   24.6551 O   0  0  0  0  0  0  0  0  0  0  0  0
   13.0733  -16.7654   18.8939 O   0  0  0  0  0  0  0  0  0  0  0  0
   10.0647  -16.7594   25.1553 O   0  0  0  0  0  0  0  0  0  0  0  0
  2  1  1  1
  3  4  1  0
  3  2  1  0
  5  6  2  0
  5  2  1  0
  7  8  1  0
  8  9  1  0
  9 11  1  0
  9 10  1  1
 11 12  1  1
 11 13  1  0
 12  5  1  0
 13 15  1  0
 14 13  2  0
 15 16  1  0
 16 21  1  0
 16 17  1  6
 17 18  1  0
 19 18  1  0
 19 23  1  0
 20 19  2  0
 21 24  2  0
 21 22  1  0
M  END
$$$$
