CIE.pdb
     RDKit          3D

 24 23  0  0  1  0  0  0  0  0999 V2000
    7.8242  -13.7211   19.9273 N   0  0  0  0  0  0  0  0  0  0  0  0
    7.0775  -14.3745   21.0117 C   0  0  1  0  0  0  0  0  0  0  0  0
    6.7801  -15.7773   20.5228 C   0  0  0  0  0  0  0  0  0  0  0  0
    5.7571  -16.5743   21.8111 S   0  0  0  0  0  0  0  0  0  0  0  0
    7.8899  -14.3724   22.2412 C   0  0  0  0  0  0  0  0  0  0  0  0
    9.1271  -14.5099   22.1606 O   0  0  0  0  0  0  0  0  0  0  0  0
    5.9114  -11.5440   26.4077 C   0  0  0  0  0  0  0  0  0  0  0  0
    6.9347  -12.0467   25.3570 C   0  0  0  0  0  0  0  0  0  0  0  0
    7.2929  -13.4255   25.7836 C   0  0  2  0  0  0  0  0  0  0  0  0
    7.9622  -13.4521   27.1418 C   0  0  0  0  0  0  0  0  0  0  0  0
    8.0953  -14.1778   24.7529 C   0  0  2  0  0  0  0  0  0  0  0  0
    7.2830  -14.2166   23.5059 N   0  0  0  0  0  0  0  0  0  0  0  0
    8.3620  -15.5771   25.1192 C   0  0  0  0  0  0  0  0  0  0  0  0
    7.6815  -16.4999   24.5527 O   0  0  0  0  0  0  0  0  0  0  0  0
    9.3134  -16.0490   26.0498 N   0  0  0  0  0  0  0  0  0  0  0  0
   10.0690  -17.2593   25.9013 C   0  0  1  0  0  0  0  0  0  0  0  0
   11.0083  -17.2454   24.7338 C   0  0  0  0  0  0  0  0  0  0  0  0
   11.8502  -18.4676   24.6092 C   0  0  0  0  0  0  0  0  0  0  0  0
   12.7228  -18.3190   23.4343 C   0  0  0  0  0  0  0  0  0  0  0  0
   12.4453  -18.9072   22.3749 O   0  0  0  0  0  0  0  0  0  0  0  0
   10.8687  -17.5764   27.1202 C   0  0  0  0  0  0  0  0  0  0  0  0
   10.9211  -16.6596   28.1600 O   0  0  0  0  0  0  0  0  0  0  0  0
   13.8520  -17.5313   23.4912 O   0  0  0  0  0  0  0  0  0  0  0  0
   11.5098  -18.6652   27.2428 O   0  0  0  0  0  0  0  0  0  0  0  0
  2  1  1  6
  3  4  1  0
  3  2  1  0
  5  6  2  0
  5  2  1  0
  7  8  1  0
  8  9  1  0
  9 11  1  0
  9 10  1  1
 11 12  1  6
 11 13  1  0
 12  5  1  0
 13 15  1  0
 14 13  2  0
 15 16  1  0
 16 21  1  0
 16 17  1  6
 17 18  1  0
 19 18  1  0
 19 23  1  0
 20 19  2  0
 21 24  2  0
 21 22  1  0
M  END
$$$$
