CIE.pdb
     RDKit          3D

 24 23  0  0  1  0  0  0  0  0999 V2000
    5.1275  -19.0538   22.8167 N   0  0  0  0  0  0  0  0  0  0  0  0
    5.7266  -18.6887   24.1084 C   0  0  1  0  0  0  0  0  0  0  0  0
    6.5061  -19.9060   24.5620 C   0  0  0  0  0  0  0  0  0  0  0  0
    5.4052  -20.8460   25.6781 S   0  0  0  0  0  0  0  0  0  0  0  0
    6.5888  -17.5062   23.9357 C   0  0  0  0  0  0  0  0  0  0  0  0
    7.2086  -17.3486   22.8646 O   0  0  0  0  0  0  0  0  0  0  0  0
    6.8752  -11.9246   26.2918 C   0  0  0  0  0  0  0  0  0  0  0  0
    7.6902  -12.9451   25.4563 C   0  0  0  0  0  0  0  0  0  0  0  0
    6.9534  -14.2314   25.5768 C   0  0  2  0  0  0  0  0  0  0  0  0
    6.6929  -14.6124   27.0191 C   0  0  0  0  0  0  0  0  0  0  0  0
    7.5958  -15.3592   24.8105 C   0  0  2  0  0  0  0  0  0  0  0  0
    6.7198  -16.5526   24.9679 N   0  0  0  0  0  0  0  0  0  0  0  0
    8.9189  -15.7437   25.3254 C   0  0  0  0  0  0  0  0  0  0  0  0
    8.9806  -16.5320   26.3307 O   0  0  0  0  0  0  0  0  0  0  0  0
   10.1778  -15.3407   24.8288 N   0  0  0  0  0  0  0  0  0  0  0  0
   11.3924  -16.0886   24.9813 C   0  0  1  0  0  0  0  0  0  0  0  0
   12.5150  -15.6000   24.1173 C   0  0  0  0  0  0  0  0  0  0  0  0
   13.8207  -16.2698   24.3712 C   0  0  0  0  0  0  0  0  0  0  0  0
   14.8193  -15.7195   23.4417 C   0  0  0  0  0  0  0  0  0  0  0  0
   14.5417  -15.5872   22.2372 O   0  0  0  0  0  0  0  0  0  0  0  0
   11.8774  -16.0923   26.3922 C   0  0  0  0  0  0  0  0  0  0  0  0
   11.3709  -15.1646   27.2907 O   0  0  0  0  0  0  0  0  0  0  0  0
   16.0676  -15.3457   23.8899 O   0  0  0  0  0  0  0  0  0  0  0  0
   12.7454  -16.9213   26.8056 O   0  0  0  0  0  0  0  0  0  0  0  0
  2  1  1  6
  3  4  1  0
  3  2  1  0
  5  6  2  0
  5  2  1  0
  7  8  1  0
  8  9  1  0
  9 11  1  0
  9 10  1  1
 11 12  1  1
 11 13  1  0
 12  5  1  0
 13 15  1  0
 14 13  2  0
 15 16  1  0
 16 21  1  0
 16 17  1  6
 17 18  1  0
 19 18  1  0
 19 23  1  0
 20 19  2  0
 21 24  2  0
 21 22  1  0
M  END
$$$$
