CIE.pdb
     RDKit          3D

 24 23  0  0  1  0  0  0  0  0999 V2000
    8.2194  -14.9016   20.2324 N   0  0  0  0  0  0  0  0  0  0  0  0
    7.3933  -15.3057   21.3790 C   0  0  1  0  0  0  0  0  0  0  0  0
    7.1484  -16.7912   21.2096 C   0  0  0  0  0  0  0  0  0  0  0  0
    5.9053  -16.9681   19.8811 S   0  0  0  0  0  0  0  0  0  0  0  0
    8.1039  -14.9966   22.6324 C   0  0  0  0  0  0  0  0  0  0  0  0
    9.3485  -15.0716   22.6679 O   0  0  0  0  0  0  0  0  0  0  0  0
    5.8657  -11.4646   26.1154 C   0  0  0  0  0  0  0  0  0  0  0  0
    6.9009  -12.1780   25.2081 C   0  0  0  0  0  0  0  0  0  0  0  0
    7.2132  -13.4584   25.8971 C   0  0  2  0  0  0  0  0  0  0  0  0
    7.7708  -13.2421   27.2884 C   0  0  0  0  0  0  0  0  0  0  0  0
    8.0901  -14.3743   25.0822 C   0  0  2  0  0  0  0  0  0  0  0  0
    7.3914  -14.6173   23.7903 N   0  0  0  0  0  0  0  0  0  0  0  0
    8.2973  -15.6941   25.6975 C   0  0  0  0  0  0  0  0  0  0  0  0
    7.2779  -16.4326   25.9233 O   0  0  0  0  0  0  0  0  0  0  0  0
    9.5268  -16.2729   26.0814 N   0  0  0  0  0  0  0  0  0  0  0  0
    9.6712  -17.5876   26.6369 C   0  0  1  0  0  0  0  0  0  0  0  0
   10.4733  -18.5201   25.7809 C   0  0  0  0  0  0  0  0  0  0  0  0
   11.8641  -18.0612   25.5105 C   0  0  0  0  0  0  0  0  0  0  0  0
   12.5224  -19.0463   24.6385 C   0  0  0  0  0  0  0  0  0  0  0  0
   13.6243  -19.5235   24.9600 O   0  0  0  0  0  0  0  0  0  0  0  0
   10.3017  -17.5610   27.9888 C   0  0  0  0  0  0  0  0  0  0  0  0
   10.7458  -16.3551   28.5113 O   0  0  0  0  0  0  0  0  0  0  0  0
   11.9310  -19.4509   23.4615 O   0  0  0  0  0  0  0  0  0  0  0  0
   10.4486  -18.6116   28.6861 O   0  0  0  0  0  0  0  0  0  0  0  0
  2  1  1  6
  3  4  1  0
  3  2  1  0
  5  6  2  0
  5  2  1  0
  7  8  1  0
  8  9  1  0
  9 11  1  0
  9 10  1  1
 11 12  1  6
 11 13  1  0
 12  5  1  0
 13 15  1  0
 14 13  2  0
 15 16  1  0
 16 21  1  0
 16 17  1  6
 17 18  1  0
 19 18  1  0
 19 23  1  0
 20 19  2  0
 21 24  2  0
 21 22  1  0
M  END
$$$$
