CIE.pdb
     RDKit          3D

 24 23  0  0  1  0  0  0  0  0999 V2000
    5.3668  -12.6417   26.4760 N   0  0  0  0  0  0  0  0  0  0  0  0
    6.7930  -12.6572   26.1205 C   0  0  1  0  0  0  0  0  0  0  0  0
    7.5443  -12.7921   27.4292 C   0  0  0  0  0  0  0  0  0  0  0  0
    9.3090  -13.0002   27.0002 S   0  0  0  0  0  0  0  0  0  0  0  0
    7.0611  -13.7801   25.2047 C   0  0  0  0  0  0  0  0  0  0  0  0
    6.4214  -14.8434   25.3322 O   0  0  0  0  0  0  0  0  0  0  0  0
    7.6902  -12.3845   20.3269 C   0  0  0  0  0  0  0  0  0  0  0  0
    7.2122  -13.2664   21.5091 C   0  0  0  0  0  0  0  0  0  0  0  0
    8.3709  -14.1353   21.8469 C   0  0  2  0  0  0  0  0  0  0  0  0
    8.6475  -15.1682   20.7745 C   0  0  0  0  0  0  0  0  0  0  0  0
    8.2645  -14.7651   23.2121 C   0  0  2  0  0  0  0  0  0  0  0  0
    8.0324  -13.6644   24.1872 N   0  0  0  0  0  0  0  0  0  0  0  0
    9.4927  -15.4501   23.6430 C   0  0  0  0  0  0  0  0  0  0  0  0
   10.5528  -14.7565   23.8185 O   0  0  0  0  0  0  0  0  0  0  0  0
    9.6549  -16.8289   23.9014 N   0  0  0  0  0  0  0  0  0  0  0  0
   10.8991  -17.4530   24.2480 C   0  0  1  0  0  0  0  0  0  0  0  0
   10.7516  -18.6182   25.1787 C   0  0  0  0  0  0  0  0  0  0  0  0
   10.0175  -18.3090   26.4370 C   0  0  0  0  0  0  0  0  0  0  0  0
   10.4009  -19.2953   27.4589 C   0  0  0  0  0  0  0  0  0  0  0  0
   11.5899  -19.6384   27.5771 O   0  0  0  0  0  0  0  0  0  0  0  0
   11.6447  -17.9272   23.0458 C   0  0  0  0  0  0  0  0  0  0  0  0
   12.9650  -18.3322   23.1772 O   0  0  0  0  0  0  0  0  0  0  0  0
    9.4542  -19.8488   28.2933 O   0  0  0  0  0  0  0  0  0  0  0  0
   11.1106  -17.9745   21.8952 O   0  0  0  0  0  0  0  0  0  0  0  0
  2  1  1  1
  3  4  1  0
  3  2  1  0
  5  6  2  0
  5  2  1  0
  7  8  1  0
  8  9  1  0
  9 11  1  0
  9 10  1  6
 11 12  1  1
 11 13  1  0
 12  5  1  0
 13 15  1  0
 14 13  2  0
 15 16  1  0
 16 21  1  0
 16 17  1  1
 17 18  1  0
 19 18  1  0
 19 23  1  0
 20 19  2  0
 21 24  2  0
 21 22  1  0
M  END
$$$$
