CIE.pdb
     RDKit          3D

 24 23  0  0  1  0  0  0  0  0999 V2000
    7.4489  -14.2818   20.0552 N   0  0  0  0  0  0  0  0  0  0  0  0
    6.9564  -14.9491   21.2688 C   0  0  1  0  0  0  0  0  0  0  0  0
    7.1033  -16.4351   21.0126 C   0  0  0  0  0  0  0  0  0  0  0  0
    5.6740  -16.9330   19.9876 S   0  0  0  0  0  0  0  0  0  0  0  0
    7.7438  -14.5026   22.4315 C   0  0  0  0  0  0  0  0  0  0  0  0
    8.9477  -14.2115   22.2834 O   0  0  0  0  0  0  0  0  0  0  0  0
    5.4274  -11.7143   26.4850 C   0  0  0  0  0  0  0  0  0  0  0  0
    6.4445  -12.1524   25.3999 C   0  0  0  0  0  0  0  0  0  0  0  0
    7.0414  -13.4169   25.9064 C   0  0  2  0  0  0  0  0  0  0  0  0
    7.7075  -13.2391   27.2548 C   0  0  0  0  0  0  0  0  0  0  0  0
    7.9621  -14.0797   24.9140 C   0  0  2  0  0  0  0  0  0  0  0  0
    7.1504  -14.4014   23.7081 N   0  0  0  0  0  0  0  0  0  0  0  0
    8.5232  -15.3535   25.3894 C   0  0  0  0  0  0  0  0  0  0  0  0
    7.7200  -16.2860   25.7371 O   0  0  0  0  0  0  0  0  0  0  0  0
    9.8888  -15.6916   25.5114 N   0  0  0  0  0  0  0  0  0  0  0  0
   10.3785  -16.9918   25.8686 C   0  0  1  0  0  0  0  0  0  0  0  0
   11.6492  -17.3712   25.1709 C   0  0  0  0  0  0  0  0  0  0  0  0
   12.7792  -16.4283   25.3989 C   0  0  0  0  0  0  0  0  0  0  0  0
   13.8202  -16.6909   24.3932 C   0  0  0  0  0  0  0  0  0  0  0  0
   14.8440  -15.9867   24.3591 O   0  0  0  0  0  0  0  0  0  0  0  0
   10.6136  -17.1207   27.3363 C   0  0  0  0  0  0  0  0  0  0  0  0
   10.9481  -18.3575   27.8681 O   0  0  0  0  0  0  0  0  0  0  0  0
   13.6760  -17.7140   23.4814 O   0  0  0  0  0  0  0  0  0  0  0  0
   10.5180  -16.1305   28.1249 O   0  0  0  0  0  0  0  0  0  0  0  0
  2  1  1  6
  3  4  1  0
  3  2  1  0
  5  6  2  0
  5  2  1  0
  7  8  1  0
  8  9  1  0
  9 11  1  0
  9 10  1  1
 11 12  1  6
 11 13  1  0
 12  5  1  0
 13 15  1  0
 14 13  2  0
 15 16  1  0
 16 21  1  0
 16 17  1  6
 17 18  1  0
 19 18  1  0
 19 23  1  0
 20 19  2  0
 21 24  2  0
 21 22  1  0
M  END
$$$$
