CIE.pdb
     RDKit          3D

 24 23  0  0  1  0  0  0  0  0999 V2000
    7.5967  -13.3188   19.6009 N   0  0  0  0  0  0  0  0  0  0  0  0
    6.8128  -13.7519   20.7664 C   0  0  1  0  0  0  0  0  0  0  0  0
    6.2283  -15.0993   20.3946 C   0  0  0  0  0  0  0  0  0  0  0  0
    7.6373  -16.1762   19.9511 S   0  0  0  0  0  0  0  0  0  0  0  0
    7.6887  -13.8305   21.9487 C   0  0  0  0  0  0  0  0  0  0  0  0
    8.9270  -13.8159   21.7983 O   0  0  0  0  0  0  0  0  0  0  0  0
    5.5711  -11.7470   26.5213 C   0  0  0  0  0  0  0  0  0  0  0  0
    6.5501  -11.9911   25.3441 C   0  0  0  0  0  0  0  0  0  0  0  0
    7.1297  -13.3390   25.5861 C   0  0  2  0  0  0  0  0  0  0  0  0
    7.8405  -13.4287   26.9203 C   0  0  0  0  0  0  0  0  0  0  0  0
    8.0029  -13.8229   24.4568 C   0  0  2  0  0  0  0  0  0  0  0  0
    7.1416  -13.9220   23.2465 N   0  0  0  0  0  0  0  0  0  0  0  0
    8.5645  -15.1641   24.6784 C   0  0  0  0  0  0  0  0  0  0  0  0
    7.7683  -16.1644   24.7140 O   0  0  0  0  0  0  0  0  0  0  0  0
    9.9238  -15.5006   24.8596 N   0  0  0  0  0  0  0  0  0  0  0  0
   10.4191  -16.8376   25.0182 C   0  0  1  0  0  0  0  0  0  0  0  0
   11.7896  -17.0455   24.4488 C   0  0  0  0  0  0  0  0  0  0  0  0
   12.3569  -18.4003   24.6945 C   0  0  0  0  0  0  0  0  0  0  0  0
   13.6911  -18.4695   24.0788 C   0  0  0  0  0  0  0  0  0  0  0  0
   14.0111  -17.6563   23.1947 O   0  0  0  0  0  0  0  0  0  0  0  0
   10.4565  -17.2575   26.4494 C   0  0  0  0  0  0  0  0  0  0  0  0
   10.6148  -18.5995   26.7631 O   0  0  0  0  0  0  0  0  0  0  0  0
   14.5983  -19.4298   24.4708 O   0  0  0  0  0  0  0  0  0  0  0  0
   10.3478  -16.4241   27.4007 O   0  0  0  0  0  0  0  0  0  0  0  0
  2  1  1  6
  3  4  1  0
  3  2  1  0
  5  6  2  0
  5  2  1  0
  7  8  1  0
  8  9  1  0
  9 11  1  0
  9 10  1  1
 11 12  1  6
 11 13  1  0
 12  5  1  0
 13 15  1  0
 14 13  2  0
 15 16  1  0
 16 21  1  0
 16 17  1  1
 17 18  1  0
 19 18  1  0
 19 23  1  0
 20 19  2  0
 21 24  2  0
 21 22  1  0
M  END
$$$$
