CIE.pdb
     RDKit          3D

 24 23  0  0  1  0  0  0  0  0999 V2000
    7.1590  -14.4504   20.2113 N   0  0  0  0  0  0  0  0  0  0  0  0
    6.9344  -15.2045   21.4528 C   0  0  1  0  0  0  0  0  0  0  0  0
    7.2250  -16.6527   21.1159 C   0  0  0  0  0  0  0  0  0  0  0  0
    5.6067  -17.4719   20.8895 S   0  0  0  0  0  0  0  0  0  0  0  0
    7.8212  -14.6887   22.5107 C   0  0  0  0  0  0  0  0  0  0  0  0
    8.9692  -14.3005   22.2152 O   0  0  0  0  0  0  0  0  0  0  0  0
    5.6406  -12.1047   26.7568 C   0  0  0  0  0  0  0  0  0  0  0  0
    6.6318  -12.3879   25.5988 C   0  0  0  0  0  0  0  0  0  0  0  0
    7.4045  -13.5850   26.0247 C   0  0  2  0  0  0  0  0  0  0  0  0
    8.1819  -13.3438   27.3017 C   0  0  0  0  0  0  0  0  0  0  0  0
    8.2832  -14.1447   24.9355 C   0  0  2  0  0  0  0  0  0  0  0  0
    7.3851  -14.6297   23.8517 N   0  0  0  0  0  0  0  0  0  0  0  0
    9.0847  -15.3024   25.3606 C   0  0  0  0  0  0  0  0  0  0  0  0
    8.4856  -16.4037   25.6134 O   0  0  0  0  0  0  0  0  0  0  0  0
   10.4858  -15.3551   25.5275 N   0  0  0  0  0  0  0  0  0  0  0  0
   11.2555  -16.5643   25.5855 C   0  0  1  0  0  0  0  0  0  0  0  0
   12.6080  -16.4504   24.9504 C   0  0  0  0  0  0  0  0  0  0  0  0
   13.4115  -17.7037   24.9892 C   0  0  0  0  0  0  0  0  0  0  0  0
   14.7180  -17.4434   24.3654 C   0  0  0  0  0  0  0  0  0  0  0  0
   15.2509  -16.3262   24.4805 O   0  0  0  0  0  0  0  0  0  0  0  0
   11.4532  -17.0387   26.9862 C   0  0  0  0  0  0  0  0  0  0  0  0
   11.0585  -16.2309   28.0426 O   0  0  0  0  0  0  0  0  0  0  0  0
   15.3650  -18.4275   23.6498 O   0  0  0  0  0  0  0  0  0  0  0  0
   11.9745  -18.1657   27.2501 O   0  0  0  0  0  0  0  0  0  0  0  0
  2  1  1  6
  3  4  1  0
  3  2  1  0
  5  6  2  0
  5  2  1  0
  7  8  1  0
  8  9  1  0
  9 11  1  0
  9 10  1  1
 11 12  1  6
 11 13  1  0
 12  5  1  0
 13 15  1  0
 14 13  2  0
 15 16  1  0
 16 21  1  0
 16 17  1  1
 17 18  1  0
 19 18  1  0
 19 23  1  0
 20 19  2  0
 21 24  2  0
 21 22  1  0
M  END
$$$$
