CIE.pdb
     RDKit          3D

 24 23  0  0  1  0  0  0  0  0999 V2000
    7.9286  -14.6220   20.0729 N   0  0  0  0  0  0  0  0  0  0  0  0
    7.1738  -15.0815   21.2474 C   0  0  1  0  0  0  0  0  0  0  0  0
    6.9280  -16.5604   21.0288 C   0  0  0  0  0  0  0  0  0  0  0  0
    5.7611  -16.6952   19.6283 S   0  0  0  0  0  0  0  0  0  0  0  0
    7.9551  -14.8201   22.4692 C   0  0  0  0  0  0  0  0  0  0  0  0
    9.1978  -14.9231   22.4379 O   0  0  0  0  0  0  0  0  0  0  0  0
    5.8258  -11.4334   26.1684 C   0  0  0  0  0  0  0  0  0  0  0  0
    6.8423  -12.0752   25.1893 C   0  0  0  0  0  0  0  0  0  0  0  0
    7.2383  -13.3626   25.8197 C   0  0  2  0  0  0  0  0  0  0  0  0
    7.8811  -13.1651   27.1767 C   0  0  0  0  0  0  0  0  0  0  0  0
    8.0859  -14.2284   24.9232 C   0  0  2  0  0  0  0  0  0  0  0  0
    7.3123  -14.4551   23.6716 N   0  0  0  0  0  0  0  0  0  0  0  0
    8.3691  -15.5585   25.4837 C   0  0  0  0  0  0  0  0  0  0  0  0
    7.4026  -16.3847   25.6213 O   0  0  0  0  0  0  0  0  0  0  0  0
    9.6215  -16.0594   25.9012 N   0  0  0  0  0  0  0  0  0  0  0  0
    9.8660  -17.4157   26.2995 C   0  0  1  0  0  0  0  0  0  0  0  0
   10.7607  -18.1685   25.3622 C   0  0  0  0  0  0  0  0  0  0  0  0
   12.1262  -17.5910   25.2212 C   0  0  0  0  0  0  0  0  0  0  0  0
   12.6837  -18.0142   23.9273 C   0  0  0  0  0  0  0  0  0  0  0  0
   12.6152  -19.2059   23.5803 O   0  0  0  0  0  0  0  0  0  0  0  0
   10.4656  -17.5023   27.6629 C   0  0  0  0  0  0  0  0  0  0  0  0
   10.6709  -18.7467   28.2407 O   0  0  0  0  0  0  0  0  0  0  0  0
   13.2854  -17.1020   23.0878 O   0  0  0  0  0  0  0  0  0  0  0  0
   10.7985  -16.4690   28.3210 O   0  0  0  0  0  0  0  0  0  0  0  0
  2  1  1  6
  3  4  1  0
  3  2  1  0
  5  6  2  0
  5  2  1  0
  7  8  1  0
  8  9  1  0
  9 11  1  0
  9 10  1  1
 11 12  1  6
 11 13  1  0
 12  5  1  0
 13 15  1  0
 14 13  2  0
 15 16  1  0
 16 21  1  0
 16 17  1  6
 17 18  1  0
 19 18  1  0
 19 23  1  0
 20 19  2  0
 21 24  2  0
 21 22  1  0
M  END
$$$$
