CIE.pdb
     RDKit          3D

 24 23  0  0  1  0  0  0  0  0999 V2000
    7.3737  -14.0272   19.9550 N   0  0  0  0  0  0  0  0  0  0  0  0
    6.9332  -14.8119   21.1173 C   0  0  1  0  0  0  0  0  0  0  0  0
    6.9765  -16.2613   20.6786 C   0  0  0  0  0  0  0  0  0  0  0  0
    5.2407  -16.8034   20.4923 S   0  0  0  0  0  0  0  0  0  0  0  0
    7.8269  -14.5473   22.2587 C   0  0  0  0  0  0  0  0  0  0  0  0
    9.0535  -14.4294   22.0645 O   0  0  0  0  0  0  0  0  0  0  0  0
    5.8608  -11.6786   26.4392 C   0  0  0  0  0  0  0  0  0  0  0  0
    6.8260  -12.1385   25.3163 C   0  0  0  0  0  0  0  0  0  0  0  0
    7.3628  -13.4491   25.7699 C   0  0  2  0  0  0  0  0  0  0  0  0
    8.0925  -13.3453   27.0929 C   0  0  0  0  0  0  0  0  0  0  0  0
    8.1995  -14.1431   24.7258 C   0  0  2  0  0  0  0  0  0  0  0  0
    7.3097  -14.4262   23.5663 N   0  0  0  0  0  0  0  0  0  0  0  0
    8.7348  -15.4406   25.1657 C   0  0  0  0  0  0  0  0  0  0  0  0
    7.9131  -16.3615   25.5008 O   0  0  0  0  0  0  0  0  0  0  0  0
   10.0930  -15.8139   25.2646 N   0  0  0  0  0  0  0  0  0  0  0  0
   10.5553  -17.1393   25.5604 C   0  0  1  0  0  0  0  0  0  0  0  0
   11.8976  -17.4556   24.9742 C   0  0  0  0  0  0  0  0  0  0  0  0
   12.3903  -18.8284   25.2751 C   0  0  0  0  0  0  0  0  0  0  0  0
   13.7128  -18.9994   24.6540 C   0  0  0  0  0  0  0  0  0  0  0  0
   14.6732  -18.3084   25.0355 O   0  0  0  0  0  0  0  0  0  0  0  0
   10.6327  -17.3935   27.0285 C   0  0  0  0  0  0  0  0  0  0  0  0
   10.4922  -16.3342   27.9132 O   0  0  0  0  0  0  0  0  0  0  0  0
   13.9041  -19.9212   23.6478 O   0  0  0  0  0  0  0  0  0  0  0  0
   10.8243  -18.5551   27.5035 O   0  0  0  0  0  0  0  0  0  0  0  0
  2  1  1  6
  3  4  1  0
  3  2  1  0
  5  6  2  0
  5  2  1  0
  7  8  1  0
  8  9  1  0
  9 11  1  0
  9 10  1  1
 11 12  1  6
 11 13  1  0
 12  5  1  0
 13 15  1  0
 14 13  2  0
 15 16  1  0
 16 21  1  0
 16 17  1  1
 17 18  1  0
 19 18  1  0
 19 23  1  0
 20 19  2  0
 21 24  2  0
 21 22  1  0
M  END
$$$$
