TMV.pdb
     RDKit          3D

 23 22  0  0  1  0  0  0  0  0999 V2000
    6.5989  -14.6293   18.6815 C   0  0  0  0  0  0  0  0  0  0  0  0
    7.2063  -14.8242   20.0475 C   0  0  1  0  0  0  0  0  0  0  0  0
    8.3821  -15.5774   19.9350 O   0  0  0  0  0  0  0  0  0  0  0  0
    7.4183  -13.5476   20.7860 C   0  0  2  0  0  0  0  0  0  0  0  0
    8.1716  -12.6345   19.9853 N   0  0  0  0  0  0  0  0  0  0  0  0
    8.0836  -13.7972   22.1192 C   0  0  0  0  0  0  0  0  0  0  0  0
    9.3241  -13.7895   22.2251 O   0  0  0  0  0  0  0  0  0  0  0  0
    6.7903  -10.2390   27.1849 C   0  0  0  0  0  0  0  0  0  0  0  0
    7.2443  -12.0072   27.1582 S   0  0  0  0  0  0  0  0  0  0  0  0
    6.2924  -12.7774   25.8200 C   0  0  0  0  0  0  0  0  0  0  0  0
    6.6502  -14.2313   25.6555 C   0  0  0  0  0  0  0  0  0  0  0  0
    7.6774  -14.4719   24.5508 C   0  0  2  0  0  0  0  0  0  0  0  0
    7.2913  -14.0423   23.2581 N   0  0  0  0  0  0  0  0  0  0  0  0
    8.2533  -15.7860   24.7064 C   0  0  0  0  0  0  0  0  0  0  0  0
    7.4835  -16.7771   24.4526 O   0  0  0  0  0  0  0  0  0  0  0  0
   12.3557  -16.8902   24.8307 C   0  0  0  0  0  0  0  0  0  0  0  0
   11.2140  -17.7898   24.4842 C   0  0  2  0  0  0  0  0  0  0  0  0
   10.8837  -17.5957   23.0180 C   0  0  0  0  0  0  0  0  0  0  0  0
    9.9812  -17.4330   25.2852 C   0  0  2  0  0  0  0  0  0  0  0  0
    9.5908  -16.0584   25.1143 N   0  0  0  0  0  0  0  0  0  0  0  0
   10.3360  -17.6199   26.7359 C   0  0  0  0  0  0  0  0  0  0  0  0
   10.3389  -16.5422   27.6265 O   0  0  0  0  0  0  0  0  0  0  0  0
   10.6404  -18.7422   27.1985 O   0  0  0  0  0  0  0  0  0  0  0  0
  2  1  1  6
  2  4  1  0
  3  2  1  0
  4  6  1  0
  4  5  1  6
  6  7  2  0
  9 10  1  0
  9  8  1  0
 12 11  1  1
 11 10  1  0
 13 12  1  0
 13  6  1  0
 14 20  1  0
 14 12  1  0
 15 14  2  0
 17 16  1  1
 17 18  1  0
 19 20  1  1
 19 17  1  0
 21 19  1  0
 22 21  1  0
 23 21  2  0
M  END
$$$$
