TMV.pdb
     RDKit          3D

 23 22  0  0  1  0  0  0  0  0999 V2000
    6.3611  -16.8286   18.7700 C   0  0  0  0  0  0  0  0  0  0  0  0
    7.0614  -16.5953   20.0846 C   0  0  1  0  0  0  0  0  0  0  0  0
    7.9296  -17.6624   20.3495 O   0  0  0  0  0  0  0  0  0  0  0  0
    7.7458  -15.2740   20.1616 C   0  0  2  0  0  0  0  0  0  0  0  0
    8.6675  -15.1328   19.0786 N   0  0  0  0  0  0  0  0  0  0  0  0
    8.4267  -15.0939   21.4980 C   0  0  0  0  0  0  0  0  0  0  0  0
    9.6414  -15.3315   21.6329 O   0  0  0  0  0  0  0  0  0  0  0  0
    6.5886  -10.8250   26.3561 C   0  0  0  0  0  0  0  0  0  0  0  0
    6.5616  -12.4354   27.2160 S   0  0  0  0  0  0  0  0  0  0  0  0
    7.6107  -13.5636   26.2586 C   0  0  0  0  0  0  0  0  0  0  0  0
    7.1361  -13.6816   24.8339 C   0  0  0  0  0  0  0  0  0  0  0  0
    8.0636  -14.5281   23.9640 C   0  0  2  0  0  0  0  0  0  0  0  0
    7.6787  -14.6517   22.6071 N   0  0  0  0  0  0  0  0  0  0  0  0
    8.4557  -15.7127   24.6889 C   0  0  0  0  0  0  0  0  0  0  0  0
    7.5307  -16.5658   24.9257 O   0  0  0  0  0  0  0  0  0  0  0  0
   12.4777  -16.9587   25.3747 C   0  0  0  0  0  0  0  0  0  0  0  0
   11.3380  -17.8899   25.1163 C   0  0  2  0  0  0  0  0  0  0  0  0
   11.1863  -18.0513   23.6173 C   0  0  0  0  0  0  0  0  0  0  0  0
   10.0424  -17.3215   25.6520 C   0  0  2  0  0  0  0  0  0  0  0  0
    9.7718  -15.9991   25.1529 N   0  0  0  0  0  0  0  0  0  0  0  0
   10.1996  -17.2124   27.1449 C   0  0  0  0  0  0  0  0  0  0  0  0
   10.1196  -15.9768   27.7942 O   0  0  0  0  0  0  0  0  0  0  0  0
   10.4067  -18.2191   27.8590 O   0  0  0  0  0  0  0  0  0  0  0  0
  2  1  1  6
  2  4  1  0
  3  2  1  0
  4  6  1  0
  4  5  1  6
  6  7  2  0
  9 10  1  0
  9  8  1  0
 12 11  1  1
 11 10  1  0
 13 12  1  0
 13  6  1  0
 14 20  1  0
 14 12  1  0
 15 14  2  0
 17 16  1  6
 17 18  1  0
 19 20  1  6
 19 17  1  0
 21 19  1  0
 22 21  1  0
 23 21  2  0
M  END
$$$$
