TMV.pdb
     RDKit          3D

 23 22  0  0  1  0  0  0  0  0999 V2000
    9.8850  -16.8719   18.4954 C   0  0  0  0  0  0  0  0  0  0  0  0
    9.7316  -16.0782   19.7679 C   0  0  1  0  0  0  0  0  0  0  0  0
    8.4461  -15.5240   19.8230 O   0  0  0  0  0  0  0  0  0  0  0  0
   10.0668  -16.8574   20.9928 C   0  0  2  0  0  0  0  0  0  0  0  0
    9.1948  -17.9830   21.1147 N   0  0  0  0  0  0  0  0  0  0  0  0
   10.0183  -15.9810   22.2224 C   0  0  0  0  0  0  0  0  0  0  0  0
   10.7804  -15.0035   22.3401 O   0  0  0  0  0  0  0  0  0  0  0  0
    6.7742  -11.7691   26.0749 C   0  0  0  0  0  0  0  0  0  0  0  0
    5.9592  -13.3915   25.8824 S   0  0  0  0  0  0  0  0  0  0  0  0
    6.7704  -14.2291   24.4930 C   0  0  0  0  0  0  0  0  0  0  0  0
    7.4307  -15.5101   24.9316 C   0  0  0  0  0  0  0  0  0  0  0  0
    8.8879  -15.6137   24.4852 C   0  0  2  0  0  0  0  0  0  0  0  0
    9.0995  -16.2725   23.2499 N   0  0  0  0  0  0  0  0  0  0  0  0
    9.7138  -15.9665   25.6148 C   0  0  0  0  0  0  0  0  0  0  0  0
   10.3799  -17.0552   25.5133 O   0  0  0  0  0  0  0  0  0  0  0  0
    9.5588  -14.6277   29.7430 C   0  0  0  0  0  0  0  0  0  0  0  0
   10.8517  -14.7436   29.0029 C   0  0  2  0  0  0  0  0  0  0  0  0
   11.2037  -13.3795   28.4444 C   0  0  0  0  0  0  0  0  0  0  0  0
   10.7246  -15.6997   27.8375 C   0  0  2  0  0  0  0  0  0  0  0  0
    9.8412  -15.2075   26.8136 N   0  0  0  0  0  0  0  0  0  0  0  0
   10.1194  -16.9671   28.3787 C   0  0  0  0  0  0  0  0  0  0  0  0
    8.8133  -17.3441   28.0522 O   0  0  0  0  0  0  0  0  0  0  0  0
   10.7593  -17.7287   29.1381 O   0  0  0  0  0  0  0  0  0  0  0  0
  2  1  1  6
  2  4  1  0
  3  2  1  0
  4  6  1  0
  4  5  1  1
  6  7  2  0
  9 10  1  0
  9  8  1  0
 12 11  1  1
 11 10  1  0
 13 12  1  0
 13  6  1  0
 14 20  1  0
 14 12  1  0
 15 14  2  0
 17 16  1  6
 17 18  1  0
 19 20  1  6
 19 17  1  0
 21 19  1  0
 22 21  1  0
 23 21  2  0
M  END
$$$$
