TMV.pdb
     RDKit          3D

 23 22  0  0  1  0  0  0  0  0999 V2000
    5.9878  -16.0872   19.4013 C   0  0  0  0  0  0  0  0  0  0  0  0
    6.8457  -16.0167   20.6389 C   0  0  1  0  0  0  0  0  0  0  0  0
    7.6248  -17.1770   20.7364 O   0  0  0  0  0  0  0  0  0  0  0  0
    7.6648  -14.7746   20.7185 C   0  0  2  0  0  0  0  0  0  0  0  0
    8.4261  -14.6089   19.5205 N   0  0  0  0  0  0  0  0  0  0  0  0
    8.5502  -14.7872   21.9425 C   0  0  0  0  0  0  0  0  0  0  0  0
    9.7238  -15.1977   21.8773 O   0  0  0  0  0  0  0  0  0  0  0  0
    6.8379  -11.0956   27.0485 C   0  0  0  0  0  0  0  0  0  0  0  0
    5.8877  -12.6545   27.0625 S   0  0  0  0  0  0  0  0  0  0  0  0
    6.5320  -13.6785   25.7110 C   0  0  0  0  0  0  0  0  0  0  0  0
    8.0067  -13.4524   25.5033 C   0  0  0  0  0  0  0  0  0  0  0  0
    8.6152  -14.3960   24.4675 C   0  0  2  0  0  0  0  0  0  0  0  0
    8.0426  -14.3291   23.1743 N   0  0  0  0  0  0  0  0  0  0  0  0
    8.8372  -15.6901   25.0664 C   0  0  0  0  0  0  0  0  0  0  0  0
    7.8442  -16.4984   25.0564 O   0  0  0  0  0  0  0  0  0  0  0  0
   12.6013  -17.4526   25.8732 C   0  0  0  0  0  0  0  0  0  0  0  0
   11.3492  -18.2147   25.5830 C   0  0  2  0  0  0  0  0  0  0  0  0
   11.1944  -18.3201   24.0793 C   0  0  0  0  0  0  0  0  0  0  0  0
   10.1363  -17.4881   26.1212 C   0  0  2  0  0  0  0  0  0  0  0  0
   10.0570  -16.1280   25.6576 N   0  0  0  0  0  0  0  0  0  0  0  0
   10.2854  -17.4423   27.6182 C   0  0  0  0  0  0  0  0  0  0  0  0
   10.4382  -18.6124   28.3679 O   0  0  0  0  0  0  0  0  0  0  0  0
   10.2786  -16.3599   28.2464 O   0  0  0  0  0  0  0  0  0  0  0  0
  2  1  1  6
  2  4  1  0
  3  2  1  0
  4  6  1  0
  4  5  1  6
  6  7  2  0
  9 10  1  0
  9  8  1  0
 12 11  1  1
 11 10  1  0
 13 12  1  0
 13  6  1  0
 14 20  1  0
 14 12  1  0
 15 14  2  0
 17 16  1  6
 17 18  1  0
 19 20  1  6
 19 17  1  0
 21 19  1  0
 22 21  1  0
 23 21  2  0
M  END
$$$$
