TMV.pdb
     RDKit          3D

 23 22  0  0  1  0  0  0  0  0999 V2000
    6.3096  -17.2049   18.8113 C   0  0  0  0  0  0  0  0  0  0  0  0
    7.0366  -16.9089   20.0985 C   0  0  1  0  0  0  0  0  0  0  0  0
    7.6575  -18.0748   20.5653 O   0  0  0  0  0  0  0  0  0  0  0  0
    7.9851  -15.7649   19.9903 C   0  0  2  0  0  0  0  0  0  0  0  0
    8.9167  -15.9959   18.9315 N   0  0  0  0  0  0  0  0  0  0  0  0
    8.6875  -15.5176   21.3047 C   0  0  0  0  0  0  0  0  0  0  0  0
    9.8377  -15.9497   21.5051 O   0  0  0  0  0  0  0  0  0  0  0  0
    5.6875  -12.4541   27.1437 C   0  0  0  0  0  0  0  0  0  0  0  0
    7.2523  -11.7553   26.5142 S   0  0  0  0  0  0  0  0  0  0  0  0
    8.1661  -13.1176   25.7401 C   0  0  0  0  0  0  0  0  0  0  0  0
    7.6681  -13.3926   24.3453 C   0  0  0  0  0  0  0  0  0  0  0  0
    8.4646  -14.4831   23.6313 C   0  0  2  0  0  0  0  0  0  0  0  0
    8.0335  -14.7890   22.3178 N   0  0  0  0  0  0  0  0  0  0  0  0
    8.7292  -15.5652   24.5488 C   0  0  0  0  0  0  0  0  0  0  0  0
    7.7313  -16.3064   24.8557 O   0  0  0  0  0  0  0  0  0  0  0  0
   11.4580  -18.1481   23.8804 C   0  0  0  0  0  0  0  0  0  0  0  0
   11.4629  -17.8226   25.3388 C   0  0  2  0  0  0  0  0  0  0  0  0
   11.5764  -19.1191   26.1150 C   0  0  0  0  0  0  0  0  0  0  0  0
   10.1700  -17.1523   25.7481 C   0  0  2  0  0  0  0  0  0  0  0  0
    9.9954  -15.8651   25.1286 N   0  0  0  0  0  0  0  0  0  0  0  0
   10.2486  -16.9263   27.2341 C   0  0  0  0  0  0  0  0  0  0  0  0
   10.2012  -17.9954   28.1338 O   0  0  0  0  0  0  0  0  0  0  0  0
   10.3593  -15.7780   27.7191 O   0  0  0  0  0  0  0  0  0  0  0  0
  2  1  1  6
  2  4  1  0
  3  2  1  0
  4  6  1  0
  4  5  1  6
  6  7  2  0
  9 10  1  0
  9  8  1  0
 12 11  1  1
 11 10  1  0
 13 12  1  0
 13  6  1  0
 14 20  1  0
 14 12  1  0
 15 14  2  0
 17 16  1  6
 17 18  1  0
 19 20  1  6
 19 17  1  0
 21 19  1  0
 22 21  1  0
 23 21  2  0
M  END
$$$$
