TMV.pdb
     RDKit          3D

 23 22  0  0  1  0  0  0  0  0999 V2000
   10.1417  -19.0711   20.0568 C   0  0  0  0  0  0  0  0  0  0  0  0
   10.2076  -18.2166   21.2970 C   0  0  1  0  0  0  0  0  0  0  0  0
   11.3924  -18.4903   21.9928 O   0  0  0  0  0  0  0  0  0  0  0  0
   10.0342  -16.7626   21.0212 C   0  0  2  0  0  0  0  0  0  0  0  0
   11.0187  -16.3178   20.0858 N   0  0  0  0  0  0  0  0  0  0  0  0
   10.0796  -15.9597   22.3001 C   0  0  0  0  0  0  0  0  0  0  0  0
   11.1491  -15.4718   22.7099 O   0  0  0  0  0  0  0  0  0  0  0  0
    6.4862  -11.4023   27.0259 C   0  0  0  0  0  0  0  0  0  0  0  0
    5.9770  -12.6689   25.8136 S   0  0  0  0  0  0  0  0  0  0  0  0
    7.1534  -14.0420   25.9578 C   0  0  0  0  0  0  0  0  0  0  0  0
    7.2715  -14.8045   24.6640 C   0  0  0  0  0  0  0  0  0  0  0  0
    8.7156  -15.1483   24.3036 C   0  0  2  0  0  0  0  0  0  0  0  0
    8.8971  -15.7598   23.0395 N   0  0  0  0  0  0  0  0  0  0  0  0
    9.3775  -15.7144   25.4543 C   0  0  0  0  0  0  0  0  0  0  0  0
    9.5327  -16.9854   25.4520 O   0  0  0  0  0  0  0  0  0  0  0  0
    9.8069  -14.8651   29.6757 C   0  0  0  0  0  0  0  0  0  0  0  0
   10.9823  -14.8330   28.7536 C   0  0  2  0  0  0  0  0  0  0  0  0
   11.2066  -13.3988   28.3188 C   0  0  0  0  0  0  0  0  0  0  0  0
   10.7183  -15.6551   27.5114 C   0  0  2  0  0  0  0  0  0  0  0  0
    9.8627  -14.9780   26.5730 N   0  0  0  0  0  0  0  0  0  0  0  0
    9.9970  -16.8984   27.9577 C   0  0  0  0  0  0  0  0  0  0  0  0
   10.6593  -17.9072   28.6638 O   0  0  0  0  0  0  0  0  0  0  0  0
    8.7821  -17.0760   27.7153 O   0  0  0  0  0  0  0  0  0  0  0  0
  2  1  1  6
  2  4  1  0
  3  2  1  0
  4  6  1  0
  4  5  1  6
  6  7  2  0
  9 10  1  0
  9  8  1  0
 12 11  1  1
 11 10  1  0
 13 12  1  0
 13  6  1  0
 14 20  1  0
 14 12  1  0
 15 14  2  0
 17 16  1  1
 17 18  1  0
 19 20  1  6
 19 17  1  0
 21 19  1  0
 22 21  1  0
 23 21  2  0
M  END
$$$$
