TMV.pdb
     RDKit          3D

 23 22  0  0  1  0  0  0  0  0999 V2000
    6.6287  -14.4386   17.9365 C   0  0  0  0  0  0  0  0  0  0  0  0
    7.2112  -14.6149   19.3158 C   0  0  1  0  0  0  0  0  0  0  0  0
    8.2313  -15.5743   19.2750 O   0  0  0  0  0  0  0  0  0  0  0  0
    7.6593  -13.3357   19.9346 C   0  0  2  0  0  0  0  0  0  0  0  0
    8.5475  -12.6464   19.0525 N   0  0  0  0  0  0  0  0  0  0  0  0
    8.2940  -13.5798   21.2836 C   0  0  0  0  0  0  0  0  0  0  0  0
    9.5166  -13.7915   21.3850 O   0  0  0  0  0  0  0  0  0  0  0  0
    6.6056  -10.8911   27.3423 C   0  0  0  0  0  0  0  0  0  0  0  0
    6.2850  -12.6845   27.4614 S   0  0  0  0  0  0  0  0  0  0  0  0
    7.3647  -13.4962   26.2508 C   0  0  0  0  0  0  0  0  0  0  0  0
    6.9403  -13.1862   24.8391 C   0  0  0  0  0  0  0  0  0  0  0  0
    7.8505  -13.8209   23.7892 C   0  0  2  0  0  0  0  0  0  0  0  0
    7.4931  -13.5682   22.4427 N   0  0  0  0  0  0  0  0  0  0  0  0
    8.1729  -15.1709   24.1841 C   0  0  0  0  0  0  0  0  0  0  0  0
    7.2217  -16.0253   24.1154 O   0  0  0  0  0  0  0  0  0  0  0  0
   12.0321  -16.8805   24.4821 C   0  0  0  0  0  0  0  0  0  0  0  0
   10.7721  -17.6455   24.2374 C   0  0  2  0  0  0  0  0  0  0  0  0
   10.4730  -17.6066   22.7523 C   0  0  0  0  0  0  0  0  0  0  0  0
    9.6043  -17.0104   24.9593 C   0  0  2  0  0  0  0  0  0  0  0  0
    9.4480  -15.6166   24.6368 N   0  0  0  0  0  0  0  0  0  0  0  0
    9.9036  -17.0977   26.4318 C   0  0  0  0  0  0  0  0  0  0  0  0
    9.9604  -18.3308   27.0884 O   0  0  0  0  0  0  0  0  0  0  0  0
   10.1124  -16.0747   27.1217 O   0  0  0  0  0  0  0  0  0  0  0  0
  2  1  1  6
  2  4  1  0
  3  2  1  0
  4  6  1  0
  4  5  1  6
  6  7  2  0
  9 10  1  0
  9  8  1  0
 12 11  1  1
 11 10  1  0
 13 12  1  0
 13  6  1  0
 14 20  1  0
 14 12  1  0
 15 14  2  0
 17 16  1  6
 17 18  1  0
 19 20  1  6
 19 17  1  0
 21 19  1  0
 22 21  1  0
 23 21  2  0
M  END
$$$$
