TMV.pdb
     RDKit          3D

 23 22  0  0  1  0  0  0  0  0999 V2000
    6.7473  -14.5568   17.8786 C   0  0  0  0  0  0  0  0  0  0  0  0
    7.3551  -14.6849   19.2523 C   0  0  1  0  0  0  0  0  0  0  0  0
    8.5373  -15.4326   19.1744 O   0  0  0  0  0  0  0  0  0  0  0  0
    7.5561  -13.3745   19.9326 C   0  0  2  0  0  0  0  0  0  0  0  0
    8.2985  -12.4907   19.0899 N   0  0  0  0  0  0  0  0  0  0  0  0
    8.2266  -13.5579   21.2738 C   0  0  0  0  0  0  0  0  0  0  0  0
    9.4598  -13.7085   21.3558 O   0  0  0  0  0  0  0  0  0  0  0  0
    7.2452  -11.0380   27.6738 C   0  0  0  0  0  0  0  0  0  0  0  0
    6.4320  -12.6632   27.4978 S   0  0  0  0  0  0  0  0  0  0  0  0
    7.3734  -13.5939   26.2578 C   0  0  0  0  0  0  0  0  0  0  0  0
    6.9061  -13.2790   24.8608 C   0  0  0  0  0  0  0  0  0  0  0  0
    7.8256  -13.8473   23.7815 C   0  0  2  0  0  0  0  0  0  0  0  0
    7.4477  -13.5590   22.4478 N   0  0  0  0  0  0  0  0  0  0  0  0
    8.1939  -15.1996   24.1256 C   0  0  0  0  0  0  0  0  0  0  0  0
    7.2635  -16.0765   24.0570 O   0  0  0  0  0  0  0  0  0  0  0  0
   12.0990  -16.7817   24.2909 C   0  0  0  0  0  0  0  0  0  0  0  0
   10.8709  -17.6055   24.0764 C   0  0  2  0  0  0  0  0  0  0  0  0
   10.5401  -17.5898   22.5977 C   0  0  0  0  0  0  0  0  0  0  0  0
    9.6899  -17.0202   24.8189 C   0  0  2  0  0  0  0  0  0  0  0  0
    9.4924  -15.6244   24.5290 N   0  0  0  0  0  0  0  0  0  0  0  0
   10.0004  -17.1322   26.2874 C   0  0  0  0  0  0  0  0  0  0  0  0
   10.1646  -18.3778   26.9009 O   0  0  0  0  0  0  0  0  0  0  0  0
   10.1233  -16.1194   27.0121 O   0  0  0  0  0  0  0  0  0  0  0  0
  2  1  1  6
  2  4  1  0
  3  2  1  0
  4  6  1  0
  4  5  1  6
  6  7  2  0
  9 10  1  0
  9  8  1  0
 12 11  1  1
 11 10  1  0
 13 12  1  0
 13  6  1  0
 14 20  1  0
 14 12  1  0
 15 14  2  0
 17 16  1  6
 17 18  1  0
 19 20  1  6
 19 17  1  0
 21 19  1  0
 22 21  1  0
 23 21  2  0
M  END
$$$$
