TMV.pdb
     RDKit          3D

 23 22  0  0  1  0  0  0  0  0999 V2000
    6.6372  -17.7852   18.6627 C   0  0  0  0  0  0  0  0  0  0  0  0
    7.3067  -17.3598   19.9447 C   0  0  1  0  0  0  0  0  0  0  0  0
    8.1904  -18.3614   20.3673 O   0  0  0  0  0  0  0  0  0  0  0  0
    7.9633  -16.0255   19.8525 C   0  0  2  0  0  0  0  0  0  0  0  0
    8.9225  -16.0207   18.7932 N   0  0  0  0  0  0  0  0  0  0  0  0
    8.5896  -15.6377   21.1714 C   0  0  0  0  0  0  0  0  0  0  0  0
    9.7977  -15.8445   21.3898 O   0  0  0  0  0  0  0  0  0  0  0  0
    7.2711  -11.5455   27.8490 C   0  0  0  0  0  0  0  0  0  0  0  0
    6.4572  -12.1751   26.3408 S   0  0  0  0  0  0  0  0  0  0  0  0
    7.5873  -13.3819   25.5948 C   0  0  0  0  0  0  0  0  0  0  0  0
    7.1405  -13.7723   24.2102 C   0  0  0  0  0  0  0  0  0  0  0  0
    8.1276  -14.6996   23.5037 C   0  0  2  0  0  0  0  0  0  0  0  0
    7.7974  -15.0345   22.1682 N   0  0  0  0  0  0  0  0  0  0  0  0
    8.5328  -15.7498   24.4068 C   0  0  0  0  0  0  0  0  0  0  0  0
    7.6301  -16.5966   24.7345 O   0  0  0  0  0  0  0  0  0  0  0  0
   12.5897  -16.7403   25.3699 C   0  0  0  0  0  0  0  0  0  0  0  0
   11.4883  -17.7220   25.1339 C   0  0  2  0  0  0  0  0  0  0  0  0
   11.3948  -17.9828   23.6441 C   0  0  0  0  0  0  0  0  0  0  0  0
   10.1581  -17.1627   25.5880 C   0  0  2  0  0  0  0  0  0  0  0  0
    9.8390  -15.9120   24.9516 N   0  0  0  0  0  0  0  0  0  0  0  0
   10.2799  -16.8950   27.0641 C   0  0  0  0  0  0  0  0  0  0  0  0
   10.1326  -15.6045   27.5817 O   0  0  0  0  0  0  0  0  0  0  0  0
   10.5163  -17.8130   27.8811 O   0  0  0  0  0  0  0  0  0  0  0  0
  2  1  1  6
  2  4  1  0
  3  2  1  0
  4  6  1  0
  4  5  1  6
  6  7  2  0
  9 10  1  0
  9  8  1  0
 12 11  1  1
 11 10  1  0
 13 12  1  0
 13  6  1  0
 14 20  1  0
 14 12  1  0
 15 14  2  0
 17 16  1  6
 17 18  1  0
 19 20  1  6
 19 17  1  0
 21 19  1  0
 22 21  1  0
 23 21  2  0
M  END
$$$$
