TMV.pdb
     RDKit          3D

 23 22  0  0  1  0  0  0  0  0999 V2000
    7.3311  -18.1133   21.1860 C   0  0  0  0  0  0  0  0  0  0  0  0
    8.3542  -17.5523   20.2314 C   0  0  1  0  0  0  0  0  0  0  0  0
    8.0903  -18.0150   18.9357 O   0  0  0  0  0  0  0  0  0  0  0  0
    8.4656  -16.0676   20.2923 C   0  0  2  0  0  0  0  0  0  0  0  0
    9.3184  -15.5944   19.2478 N   0  0  0  0  0  0  0  0  0  0  0  0
    8.9474  -15.6159   21.6510 C   0  0  0  0  0  0  0  0  0  0  0  0
   10.1421  -15.7404   21.9785 O   0  0  0  0  0  0  0  0  0  0  0  0
    6.8469  -11.2819   27.9110 C   0  0  0  0  0  0  0  0  0  0  0  0
    6.1158  -12.2400   26.5395 S   0  0  0  0  0  0  0  0  0  0  0  0
    7.4163  -13.3351   25.9073 C   0  0  0  0  0  0  0  0  0  0  0  0
    7.1120  -13.8008   24.5075 C   0  0  0  0  0  0  0  0  0  0  0  0
    8.2266  -14.6558   23.9074 C   0  0  2  0  0  0  0  0  0  0  0  0
    8.0342  -15.0465   22.5602 N   0  0  0  0  0  0  0  0  0  0  0  0
    8.6435  -15.6478   24.8690 C   0  0  0  0  0  0  0  0  0  0  0  0
    7.8018  -16.5773   25.1273 O   0  0  0  0  0  0  0  0  0  0  0  0
   12.6308  -16.1630   26.3504 C   0  0  0  0  0  0  0  0  0  0  0  0
   11.6843  -17.2787   26.0468 C   0  0  2  0  0  0  0  0  0  0  0  0
   11.8251  -17.6360   24.5809 C   0  0  0  0  0  0  0  0  0  0  0  0
   10.2519  -16.8524   26.2815 C   0  0  2  0  0  0  0  0  0  0  0  0
    9.8996  -15.6699   25.5407 N   0  0  0  0  0  0  0  0  0  0  0  0
   10.1322  -16.5161   27.7437 C   0  0  0  0  0  0  0  0  0  0  0  0
    9.7452  -15.2405   28.1652 O   0  0  0  0  0  0  0  0  0  0  0  0
   10.3732  -17.3618   28.6342 O   0  0  0  0  0  0  0  0  0  0  0  0
  2  1  1  1
  2  4  1  0
  3  2  1  0
  4  6  1  0
  4  5  1  6
  6  7  2  0
  9 10  1  0
  9  8  1  0
 12 11  1  1
 11 10  1  0
 13 12  1  0
 13  6  1  0
 14 20  1  0
 14 12  1  0
 15 14  2  0
 17 16  1  6
 17 18  1  0
 19 20  1  6
 19 17  1  0
 21 19  1  0
 22 21  1  0
 23 21  2  0
M  END
$$$$
