TMV.pdb
     RDKit          3D

 23 22  0  0  1  0  0  0  0  0999 V2000
    7.3160  -18.0379   22.1228 C   0  0  0  0  0  0  0  0  0  0  0  0
    8.2193  -17.5112   21.0368 C   0  0  1  0  0  0  0  0  0  0  0  0
    7.8050  -18.0146   19.7968 O   0  0  0  0  0  0  0  0  0  0  0  0
    8.3363  -16.0258   21.0361 C   0  0  2  0  0  0  0  0  0  0  0  0
    9.0664  -15.5897   19.8876 N   0  0  0  0  0  0  0  0  0  0  0  0
    8.9675  -15.5317   22.3166 C   0  0  0  0  0  0  0  0  0  0  0  0
   10.1890  -15.6632   22.5185 O   0  0  0  0  0  0  0  0  0  0  0  0
    5.4774  -11.6382   26.1266 C   0  0  0  0  0  0  0  0  0  0  0  0
    6.7374  -11.9904   27.4001 S   0  0  0  0  0  0  0  0  0  0  0  0
    7.8805  -13.2071   26.6907 C   0  0  0  0  0  0  0  0  0  0  0  0
    7.5113  -13.5470   25.2704 C   0  0  0  0  0  0  0  0  0  0  0  0
    8.4961  -14.5117   24.6123 C   0  0  2  0  0  0  0  0  0  0  0  0
    8.1647  -14.9141   23.2959 N   0  0  0  0  0  0  0  0  0  0  0  0
    8.8992  -15.5150   25.5682 C   0  0  0  0  0  0  0  0  0  0  0  0
    8.0195  -16.3935   25.8743 O   0  0  0  0  0  0  0  0  0  0  0  0
   12.8878  -16.4467   26.6622 C   0  0  0  0  0  0  0  0  0  0  0  0
   11.7546  -17.4207   26.6697 C   0  0  2  0  0  0  0  0  0  0  0  0
   11.6080  -17.9904   25.2732 C   0  0  0  0  0  0  0  0  0  0  0  0
   10.4541  -16.7351   27.0265 C   0  0  2  0  0  0  0  0  0  0  0  0
   10.1800  -15.5996   26.1859 N   0  0  0  0  0  0  0  0  0  0  0  0
   10.6039  -16.2236   28.4341 C   0  0  0  0  0  0  0  0  0  0  0  0
   10.8045  -17.0985   29.5061 O   0  0  0  0  0  0  0  0  0  0  0  0
   10.5550  -15.0012   28.6977 O   0  0  0  0  0  0  0  0  0  0  0  0
  2  1  1  1
  2  4  1  0
  3  2  1  0
  4  6  1  0
  4  5  1  6
  6  7  2  0
  9 10  1  0
  9  8  1  0
 12 11  1  1
 11 10  1  0
 13 12  1  0
 13  6  1  0
 14 20  1  0
 14 12  1  0
 15 14  2  0
 17 16  1  6
 17 18  1  0
 19 20  1  6
 19 17  1  0
 21 19  1  0
 22 21  1  0
 23 21  2  0
M  END
$$$$
