TMV.pdb
     RDKit          3D

 23 22  0  0  1  0  0  0  0  0999 V2000
    6.2321  -16.4951   18.9687 C   0  0  0  0  0  0  0  0  0  0  0  0
    7.0112  -16.3325   20.2491 C   0  0  1  0  0  0  0  0  0  0  0  0
    8.1033  -17.2100   20.2484 O   0  0  0  0  0  0  0  0  0  0  0  0
    7.4149  -14.9238   20.5188 C   0  0  2  0  0  0  0  0  0  0  0  0
    8.1300  -14.3937   19.4008 N   0  0  0  0  0  0  0  0  0  0  0  0
    8.2222  -14.8261   21.7920 C   0  0  0  0  0  0  0  0  0  0  0  0
    9.4666  -14.8452   21.7620 O   0  0  0  0  0  0  0  0  0  0  0  0
    6.3566  -10.2147   26.7267 C   0  0  0  0  0  0  0  0  0  0  0  0
    6.1683  -12.0303   26.7661 S   0  0  0  0  0  0  0  0  0  0  0  0
    7.2177  -12.6994   25.4465 C   0  0  0  0  0  0  0  0  0  0  0  0
    7.2017  -14.2057   25.4404 C   0  0  0  0  0  0  0  0  0  0  0  0
    8.0786  -14.8074   24.3439 C   0  0  2  0  0  0  0  0  0  0  0  0
    7.5595  -14.7121   23.0301 N   0  0  0  0  0  0  0  0  0  0  0  0
    8.6129  -16.0704   24.7933 C   0  0  0  0  0  0  0  0  0  0  0  0
    7.8238  -17.0765   24.7275 O   0  0  0  0  0  0  0  0  0  0  0  0
   12.7249  -16.9613   25.4980 C   0  0  0  0  0  0  0  0  0  0  0  0
   11.7078  -17.9501   25.0285 C   0  0  2  0  0  0  0  0  0  0  0  0
   11.6218  -17.8630   23.5181 C   0  0  0  0  0  0  0  0  0  0  0  0
   10.3397  -17.6263   25.5872 C   0  0  2  0  0  0  0  0  0  0  0  0
    9.9296  -16.2780   25.2959 N   0  0  0  0  0  0  0  0  0  0  0  0
   10.4409  -17.7494   27.0839 C   0  0  0  0  0  0  0  0  0  0  0  0
   10.8196  -18.9517   27.6887 O   0  0  0  0  0  0  0  0  0  0  0  0
   10.1914  -16.7846   27.8409 O   0  0  0  0  0  0  0  0  0  0  0  0
  2  1  1  6
  2  4  1  0
  3  2  1  0
  4  6  1  0
  4  5  1  6
  6  7  2  0
  9 10  1  0
  9  8  1  0
 12 11  1  1
 11 10  1  0
 13 12  1  0
 13  6  1  0
 14 20  1  0
 14 12  1  0
 15 14  2  0
 17 16  1  1
 17 18  1  0
 19 20  1  1
 19 17  1  0
 21 19  1  0
 22 21  1  0
 23 21  2  0
M  END
$$$$
