HWC.pdb
     RDKit          3D

 31 33  0  0  1  0  0  0  0  0999 V2000
   10.8189  -16.5739   18.2147 N   0  0  0  0  0  0  0  0  0  0  0  0
    9.5968  -16.8446   18.9034 C   0  0  1  0  0  0  0  0  0  0  0  0
    9.2684  -18.3073   18.9472 C   0  0  0  0  0  0  0  0  0  0  0  0
    8.7746  -18.7498   17.6348 C   0  0  0  0  0  0  0  0  0  0  0  0
    8.6372  -17.9579   16.5020 C   0  0  0  0  0  0  0  0  0  0  0  0
    8.1515  -18.7181   15.4846 N   0  0  0  0  0  0  0  0  0  0  0  0
    7.9948  -19.9538   15.9871 C   0  0  0  0  0  0  0  0  0  0  0  0
    8.3651  -19.9885   17.2781 N   0  0  0  0  0  0  0  0  0  0  0  0
    9.6393  -16.3464   20.3274 C   0  0  0  0  0  0  0  0  0  0  0  0
   10.7297  -16.3126   20.9300 O   0  0  0  0  0  0  0  0  0  0  0  0
    8.4476  -15.9233   20.9654 N   0  0  0  0  0  0  0  0  0  0  0  0
    8.2774  -15.6273   22.3478 C   0  0  1  0  0  0  0  0  0  0  0  0
    6.9112  -15.0821   22.7352 C   0  0  0  0  0  0  0  0  0  0  0  0
    6.8438  -14.9185   24.2048 C   0  0  0  0  0  0  0  0  0  0  0  0
    6.4961  -15.7689   25.2200 C   0  0  0  0  0  0  0  0  0  0  0  0
    6.5918  -15.1512   26.4102 N   0  0  0  0  0  0  0  0  0  0  0  0
    6.9991  -13.8952   26.2275 C   0  0  0  0  0  0  0  0  0  0  0  0
    7.2475  -12.8742   27.1513 C   0  0  0  0  0  0  0  0  0  0  0  0
    7.6709  -11.6718   26.6357 C   0  0  0  0  0  0  0  0  0  0  0  0
    7.8457  -11.4691   25.2843 C   0  0  0  0  0  0  0  0  0  0  0  0
    7.5934  -12.4939   24.3935 C   0  0  0  0  0  0  0  0  0  0  0  0
    7.1680  -13.7127   24.8596 C   0  0  0  0  0  0  0  0  0  0  0  0
    8.8202  -16.6105   23.2784 C   0  0  0  0  0  0  0  0  0  0  0  0
    8.5149  -17.8244   23.1711 O   0  0  0  0  0  0  0  0  0  0  0  0
    9.7067  -16.1429   24.3106 N   0  0  0  0  0  0  0  0  0  0  0  0
   10.4705  -17.0794   25.1094 C   0  0  1  0  0  0  0  0  0  0  0  0
   11.9470  -16.9326   24.8332 C   0  0  0  0  0  0  0  0  0  0  0  0
   12.8313  -18.0884   25.9340 S   0  0  0  0  0  0  0  0  0  0  0  0
   10.2319  -16.8262   26.5459 C   0  0  0  0  0  0  0  0  0  0  0  0
    9.9347  -15.6659   26.9294 O   0  0  0  0  0  0  0  0  0  0  0  0
   10.3190  -17.8156   27.5097 O   0  0  0  0  0  0  0  0  0  0  0  0
  2  1  1  1
  2  3  1  0
  3  4  1  0
  4  8  1  0
  4  5  2  0
  5  6  1  0
  7  6  1  0
  8  7  2  0
  9  2  1  0
  9 10  2  0
 11  9  1  0
 12 11  1  0
 12 13  1  6
 13 14  1  0
 14 15  2  0
 14 22  1  0
 15 16  1  0
 16 17  1  0
 17 18  2  0
 18 19  1  0
 20 19  2  0
 21 20  1  0
 22 21  2  0
 22 17  1  0
 23 12  1  0
 24 23  2  0
 25 23  1  0
 26 29  1  0
 26 25  1  0
 27 28  1  0
 26 27  1  1
 29 31  1  0
 30 29  2  0
M  END
$$$$
