HWC.pdb
     RDKit          3D

 31 33  0  0  1  0  0  0  0  0999 V2000
    8.5788  -16.1368   19.2522 N   0  0  0  0  0  0  0  0  0  0  0  0
    9.6579  -15.3396   19.7433 C   0  0  1  0  0  0  0  0  0  0  0  0
    9.8871  -14.1058   18.9221 C   0  0  0  0  0  0  0  0  0  0  0  0
    9.5630  -14.3740   17.5132 C   0  0  0  0  0  0  0  0  0  0  0  0
    8.4332  -13.9349   16.8348 C   0  0  0  0  0  0  0  0  0  0  0  0
    8.4840  -14.3813   15.5515 N   0  0  0  0  0  0  0  0  0  0  0  0
    9.6254  -15.0814   15.4472 C   0  0  0  0  0  0  0  0  0  0  0  0
   10.2847  -15.0858   16.6177 N   0  0  0  0  0  0  0  0  0  0  0  0
    9.4201  -14.8991   21.1672 C   0  0  0  0  0  0  0  0  0  0  0  0
    9.5327  -13.6930   21.4599 O   0  0  0  0  0  0  0  0  0  0  0  0
    9.0730  -15.8532   22.1549 N   0  0  0  0  0  0  0  0  0  0  0  0
    8.6782  -15.5883   23.4971 C   0  0  1  0  0  0  0  0  0  0  0  0
    7.1892  -15.7213   23.7779 C   0  0  0  0  0  0  0  0  0  0  0  0
    6.9070  -15.2827   25.1632 C   0  0  0  0  0  0  0  0  0  0  0  0
    6.6583  -15.9672   26.3226 C   0  0  0  0  0  0  0  0  0  0  0  0
    6.4556  -15.1150   27.3424 N   0  0  0  0  0  0  0  0  0  0  0  0
    6.5621  -13.8615   26.9020 C   0  0  0  0  0  0  0  0  0  0  0  0
    6.4397  -12.6437   27.5800 C   0  0  0  0  0  0  0  0  0  0  0  0
    6.6149  -11.5049   26.8296 C   0  0  0  0  0  0  0  0  0  0  0  0
    6.8965  -11.5456   25.4816 C   0  0  0  0  0  0  0  0  0  0  0  0
    7.0120  -12.7611   24.8363 C   0  0  0  0  0  0  0  0  0  0  0  0
    6.8448  -13.9262   25.5423 C   0  0  0  0  0  0  0  0  0  0  0  0
    9.5393  -16.1468   24.5334 C   0  0  0  0  0  0  0  0  0  0  0  0
   10.1127  -17.2506   24.3575 O   0  0  0  0  0  0  0  0  0  0  0  0
    9.7044  -15.3950   25.7490 N   0  0  0  0  0  0  0  0  0  0  0  0
   10.6239  -15.8417   26.7754 C   0  0  1  0  0  0  0  0  0  0  0  0
   10.5007  -14.9820   28.0097 C   0  0  0  0  0  0  0  0  0  0  0  0
   11.7419  -15.5651   29.2137 S   0  0  0  0  0  0  0  0  0  0  0  0
   10.3245  -17.2415   27.1437 C   0  0  0  0  0  0  0  0  0  0  0  0
   11.2683  -18.0229   27.4270 O   0  0  0  0  0  0  0  0  0  0  0  0
    9.0376  -17.7480   27.1948 O   0  0  0  0  0  0  0  0  0  0  0  0
  2  1  1  6
  2  3  1  0
  3  4  1  0
  4  8  1  0
  4  5  2  0
  5  6  1  0
  7  6  1  0
  8  7  2  0
  9  2  1  0
  9 10  2  0
 11  9  1  0
 12 11  1  0
 12 13  1  1
 13 14  1  0
 14 15  2  0
 14 22  1  0
 15 16  1  0
 16 17  1  0
 17 18  2  0
 18 19  1  0
 20 19  2  0
 21 20  1  0
 22 21  2  0
 22 17  1  0
 23 12  1  0
 24 23  2  0
 25 23  1  0
 26 29  1  0
 26 25  1  0
 27 28  1  0
 26 27  1  1
 29 31  1  0
 30 29  2  0
M  END
$$$$
