HWC.pdb
     RDKit          3D

 31 33  0  0  1  0  0  0  0  0999 V2000
    8.6573  -14.7411   20.3050 N   0  0  0  0  0  0  0  0  0  0  0  0
    8.4878  -16.0099   20.9396 C   0  0  1  0  0  0  0  0  0  0  0  0
    9.0531  -17.1410   20.1333 C   0  0  0  0  0  0  0  0  0  0  0  0
    8.4523  -17.1494   18.7913 C   0  0  0  0  0  0  0  0  0  0  0  0
    7.7055  -16.1260   18.2219 C   0  0  0  0  0  0  0  0  0  0  0  0
    7.3207  -16.4989   16.9722 N   0  0  0  0  0  0  0  0  0  0  0  0
    7.8237  -17.7295   16.7811 C   0  0  0  0  0  0  0  0  0  0  0  0
    8.5063  -18.1338   17.8653 N   0  0  0  0  0  0  0  0  0  0  0  0
    9.1483  -16.0453   22.2962 C   0  0  0  0  0  0  0  0  0  0  0  0
   10.3173  -15.6307   22.4169 O   0  0  0  0  0  0  0  0  0  0  0  0
    8.4398  -16.5462   23.4158 N   0  0  0  0  0  0  0  0  0  0  0  0
    8.9270  -16.6741   24.7476 C   0  0  1  0  0  0  0  0  0  0  0  0
    7.8675  -16.6252   25.8379 C   0  0  0  0  0  0  0  0  0  0  0  0
    7.0152  -15.4304   25.6445 C   0  0  0  0  0  0  0  0  0  0  0  0
    5.7401  -15.2643   25.1743 C   0  0  0  0  0  0  0  0  0  0  0  0
    5.3958  -13.9648   25.1858 N   0  0  0  0  0  0  0  0  0  0  0  0
    6.4110  -13.2402   25.6556 C   0  0  0  0  0  0  0  0  0  0  0  0
    6.5292  -11.8609   25.8584 C   0  0  0  0  0  0  0  0  0  0  0  0
    7.7253  -11.4179   26.3722 C   0  0  0  0  0  0  0  0  0  0  0  0
    8.7604  -12.2749   26.6759 C   0  0  0  0  0  0  0  0  0  0  0  0
    8.6178  -13.6324   26.4660 C   0  0  0  0  0  0  0  0  0  0  0  0
    7.4427  -14.1231   25.9540 C   0  0  0  0  0  0  0  0  0  0  0  0
    9.9558  -17.6877   24.9519 C   0  0  0  0  0  0  0  0  0  0  0  0
    9.9411  -18.7525   24.2854 O   0  0  0  0  0  0  0  0  0  0  0  0
   10.9744  -17.4250   25.9334 N   0  0  0  0  0  0  0  0  0  0  0  0
   11.9326  -18.4488   26.2970 C   0  0  1  0  0  0  0  0  0  0  0  0
   13.3434  -17.9424   26.1218 C   0  0  0  0  0  0  0  0  0  0  0  0
   14.4738  -19.2356   26.7379 S   0  0  0  0  0  0  0  0  0  0  0  0
   11.7424  -18.8358   27.7108 C   0  0  0  0  0  0  0  0  0  0  0  0
   10.9489  -18.1783   28.4317 O   0  0  0  0  0  0  0  0  0  0  0  0
   12.4025  -19.9028   28.2948 O   0  0  0  0  0  0  0  0  0  0  0  0
  2  1  1  6
  2  3  1  0
  3  4  1  0
  4  8  1  0
  4  5  2  0
  5  6  1  0
  7  6  1  0
  8  7  2  0
  9  2  1  0
  9 10  2  0
 11  9  1  0
 12 11  1  0
 12 13  1  1
 13 14  1  0
 14 15  2  0
 14 22  1  0
 15 16  1  0
 16 17  1  0
 17 18  2  0
 18 19  1  0
 20 19  2  0
 21 20  1  0
 22 21  2  0
 22 17  1  0
 23 12  1  0
 24 23  2  0
 25 23  1  0
 26 29  1  0
 26 25  1  0
 27 28  1  0
 26 27  1  1
 29 31  1  0
 30 29  2  0
M  END
$$$$
