HWC.pdb
     RDKit          3D

 31 33  0  0  1  0  0  0  0  0999 V2000
    8.8878  -17.1364   20.7854 N   0  0  0  0  0  0  0  0  0  0  0  0
    9.5715  -15.8880   20.9087 C   0  0  1  0  0  0  0  0  0  0  0  0
    8.8610  -14.7670   20.2103 C   0  0  0  0  0  0  0  0  0  0  0  0
    8.7974  -15.0361   18.7662 C   0  0  0  0  0  0  0  0  0  0  0  0
    9.3815  -16.1100   18.1068 C   0  0  0  0  0  0  0  0  0  0  0  0
    9.1053  -16.0194   16.7785 N   0  0  0  0  0  0  0  0  0  0  0  0
    8.3649  -14.9089   16.6286 C   0  0  0  0  0  0  0  0  0  0  0  0
    8.1714  -14.3073   17.8142 N   0  0  0  0  0  0  0  0  0  0  0  0
    9.7407  -15.4874   22.3539 C   0  0  0  0  0  0  0  0  0  0  0  0
   10.3295  -14.4237   22.6276 O   0  0  0  0  0  0  0  0  0  0  0  0
    9.2326  -16.3176   23.3829 N   0  0  0  0  0  0  0  0  0  0  0  0
    9.3739  -16.1223   24.7862 C   0  0  1  0  0  0  0  0  0  0  0  0
    8.2043  -16.6007   25.6330 C   0  0  0  0  0  0  0  0  0  0  0  0
    7.0872  -15.6359   25.5216 C   0  0  0  0  0  0  0  0  0  0  0  0
    5.7614  -15.7805   25.2118 C   0  0  0  0  0  0  0  0  0  0  0  0
    5.1358  -14.5909   25.2374 N   0  0  0  0  0  0  0  0  0  0  0  0
    6.0087  -13.6365   25.5596 C   0  0  0  0  0  0  0  0  0  0  0  0
    5.8347  -12.2570   25.7151 C   0  0  0  0  0  0  0  0  0  0  0  0
    6.9513  -11.5346   26.0646 C   0  0  0  0  0  0  0  0  0  0  0  0
    8.1818  -12.1243   26.2548 C   0  0  0  0  0  0  0  0  0  0  0  0
    8.3264  -13.4884   26.0949 C   0  0  0  0  0  0  0  0  0  0  0  0
    7.2411  -14.2525   25.7457 C   0  0  0  0  0  0  0  0  0  0  0  0
   10.6866  -16.4334   25.3408 C   0  0  0  0  0  0  0  0  0  0  0  0
   11.4645  -17.2125   24.7358 O   0  0  0  0  0  0  0  0  0  0  0  0
   11.0515  -15.8219   26.5910 N   0  0  0  0  0  0  0  0  0  0  0  0
   12.2006  -16.2928   27.3368 C   0  0  1  0  0  0  0  0  0  0  0  0
   12.4108  -15.4547   28.5742 C   0  0  0  0  0  0  0  0  0  0  0  0
   10.7998  -15.3032   29.4176 S   0  0  0  0  0  0  0  0  0  0  0  0
   11.9917  -17.6971   27.7481 C   0  0  0  0  0  0  0  0  0  0  0  0
   10.8492  -18.2112   27.6385 O   0  0  0  0  0  0  0  0  0  0  0  0
   13.0044  -18.4916   28.2565 O   0  0  0  0  0  0  0  0  0  0  0  0
  2  1  1  1
  2  3  1  0
  3  4  1  0
  4  8  1  0
  4  5  2  0
  5  6  1  0
  7  6  1  0
  8  7  2  0
  9  2  1  0
  9 10  2  0
 11  9  1  0
 12 11  1  0
 12 13  1  1
 13 14  1  0
 14 15  2  0
 14 22  1  0
 15 16  1  0
 16 17  1  0
 17 18  2  0
 18 19  1  0
 20 19  2  0
 21 20  1  0
 22 21  2  0
 22 17  1  0
 23 12  1  0
 24 23  2  0
 25 23  1  0
 26 29  1  0
 26 25  1  0
 27 28  1  0
 26 27  1  1
 29 31  1  0
 30 29  2  0
M  END
$$$$
