HWC.pdb
     RDKit          3D

 31 33  0  0  1  0  0  0  0  0999 V2000
    8.5369  -17.5026   20.9059 N   0  0  0  0  0  0  0  0  0  0  0  0
    9.4678  -16.4705   21.2367 C   0  0  1  0  0  0  0  0  0  0  0  0
    9.1414  -15.1632   20.5783 C   0  0  0  0  0  0  0  0  0  0  0  0
    9.0522  -15.3438   19.1218 C   0  0  0  0  0  0  0  0  0  0  0  0
   10.0958  -15.6936   18.2745 C   0  0  0  0  0  0  0  0  0  0  0  0
    9.6285  -15.7645   16.9996 N   0  0  0  0  0  0  0  0  0  0  0  0
    8.3213  -15.4631   17.0665 C   0  0  0  0  0  0  0  0  0  0  0  0
    7.9603  -15.2081   18.3352 N   0  0  0  0  0  0  0  0  0  0  0  0
    9.5223  -16.2276   22.7253 C   0  0  0  0  0  0  0  0  0  0  0  0
   10.0180  -15.1672   23.1530 O   0  0  0  0  0  0  0  0  0  0  0  0
    9.0132  -17.2001   23.6205 N   0  0  0  0  0  0  0  0  0  0  0  0
    9.0808  -17.1707   25.0425 C   0  0  1  0  0  0  0  0  0  0  0  0
    7.7523  -16.9687   25.7552 C   0  0  0  0  0  0  0  0  0  0  0  0
    7.0984  -15.7437   25.2425 C   0  0  0  0  0  0  0  0  0  0  0  0
    6.2030  -15.5217   24.2308 C   0  0  0  0  0  0  0  0  0  0  0  0
    5.8978  -14.2152   24.1456 N   0  0  0  0  0  0  0  0  0  0  0  0
    6.5669  -13.5406   25.0803 C   0  0  0  0  0  0  0  0  0  0  0  0
    6.5768  -12.1757   25.3877 C   0  0  0  0  0  0  0  0  0  0  0  0
    7.3832  -11.7893   26.4324 C   0  0  0  0  0  0  0  0  0  0  0  0
    8.1457  -12.6870   27.1470 C   0  0  0  0  0  0  0  0  0  0  0  0
    8.1178  -14.0292   26.8228 C   0  0  0  0  0  0  0  0  0  0  0  0
    7.3289  -14.4639   25.7873 C   0  0  0  0  0  0  0  0  0  0  0  0
    9.9487  -18.1691   25.6568 C   0  0  0  0  0  0  0  0  0  0  0  0
    9.5294  -19.3348   25.8653 O   0  0  0  0  0  0  0  0  0  0  0  0
   11.2858  -17.7728   26.0105 N   0  0  0  0  0  0  0  0  0  0  0  0
   12.1961  -18.7135   26.6309 C   0  0  1  0  0  0  0  0  0  0  0  0
   13.6205  -18.2274   26.5187 C   0  0  0  0  0  0  0  0  0  0  0  0
   13.9446  -17.8721   24.7584 S   0  0  0  0  0  0  0  0  0  0  0  0
   11.8615  -18.8670   28.0625 C   0  0  0  0  0  0  0  0  0  0  0  0
   12.5443  -19.6434   28.7785 O   0  0  0  0  0  0  0  0  0  0  0  0
   10.8181  -18.1894   28.6688 O   0  0  0  0  0  0  0  0  0  0  0  0
  2  1  1  1
  2  3  1  0
  3  4  1  0
  4  8  1  0
  4  5  2  0
  5  6  1  0
  7  6  1  0
  8  7  2  0
  9  2  1  0
  9 10  2  0
 11  9  1  0
 12 11  1  0
 12 13  1  1
 13 14  1  0
 14 15  2  0
 14 22  1  0
 15 16  1  0
 16 17  1  0
 17 18  2  0
 18 19  1  0
 20 19  2  0
 21 20  1  0
 22 21  2  0
 22 17  1  0
 23 12  1  0
 24 23  2  0
 25 23  1  0
 26 29  1  0
 26 25  1  0
 27 28  1  0
 26 27  1  1
 29 31  1  0
 30 29  2  0
M  END
$$$$
