HWC.pdb
     RDKit          3D

 31 33  0  0  1  0  0  0  0  0999 V2000
    8.9836  -17.3313   20.8430 N   0  0  0  0  0  0  0  0  0  0  0  0
    9.5109  -16.0047   20.9018 C   0  0  1  0  0  0  0  0  0  0  0  0
    8.6799  -15.0167   20.1387 C   0  0  0  0  0  0  0  0  0  0  0  0
    8.6084  -15.4088   18.7234 C   0  0  0  0  0  0  0  0  0  0  0  0
    9.5845  -15.1843   17.7611 C   0  0  0  0  0  0  0  0  0  0  0  0
    9.1601  -15.6882   16.5716 N   0  0  0  0  0  0  0  0  0  0  0  0
    7.9451  -16.2118   16.8030 C   0  0  0  0  0  0  0  0  0  0  0  0
    7.6000  -16.0517   18.0915 N   0  0  0  0  0  0  0  0  0  0  0  0
    9.6124  -15.5096   22.3239 C   0  0  0  0  0  0  0  0  0  0  0  0
   10.1135  -14.3904   22.5464 O   0  0  0  0  0  0  0  0  0  0  0  0
    9.1408  -16.3149   23.3894 N   0  0  0  0  0  0  0  0  0  0  0  0
    9.2833  -16.0577   24.7826 C   0  0  1  0  0  0  0  0  0  0  0  0
    8.1001  -16.4670   25.6464 C   0  0  0  0  0  0  0  0  0  0  0  0
    6.9947  -15.5004   25.4594 C   0  0  0  0  0  0  0  0  0  0  0  0
    5.6874  -15.6453   25.0794 C   0  0  0  0  0  0  0  0  0  0  0  0
    5.0662  -14.4533   25.0529 N   0  0  0  0  0  0  0  0  0  0  0  0
    5.9240  -13.4971   25.4084 C   0  0  0  0  0  0  0  0  0  0  0  0
    5.7474  -12.1148   25.5336 C   0  0  0  0  0  0  0  0  0  0  0  0
    6.8461  -11.3910   25.9331 C   0  0  0  0  0  0  0  0  0  0  0  0
    8.0619  -11.9818   26.1994 C   0  0  0  0  0  0  0  0  0  0  0  0
    8.2094  -13.3486   26.0680 C   0  0  0  0  0  0  0  0  0  0  0  0
    7.1418  -14.1143   25.6711 C   0  0  0  0  0  0  0  0  0  0  0  0
   10.5865  -16.3747   25.3560 C   0  0  0  0  0  0  0  0  0  0  0  0
   11.4503  -16.9819   24.6753 O   0  0  0  0  0  0  0  0  0  0  0  0
   10.8411  -15.9710   26.7132 N   0  0  0  0  0  0  0  0  0  0  0  0
   12.0968  -16.2964   27.3581 C   0  0  1  0  0  0  0  0  0  0  0  0
   12.3641  -15.3542   28.5064 C   0  0  0  0  0  0  0  0  0  0  0  0
   10.8642  -15.3112   29.5449 S   0  0  0  0  0  0  0  0  0  0  0  0
   12.0492  -17.6776   27.8825 C   0  0  0  0  0  0  0  0  0  0  0  0
   10.9506  -18.2885   27.9200 O   0  0  0  0  0  0  0  0  0  0  0  0
   13.1695  -18.3474   28.3427 O   0  0  0  0  0  0  0  0  0  0  0  0
  2  1  1  1
  2  3  1  0
  3  4  1  0
  4  8  1  0
  4  5  2  0
  5  6  1  0
  7  6  1  0
  8  7  2  0
  9  2  1  0
  9 10  2  0
 11  9  1  0
 12 11  1  0
 12 13  1  1
 13 14  1  0
 14 15  2  0
 14 22  1  0
 15 16  1  0
 16 17  1  0
 17 18  2  0
 18 19  1  0
 20 19  2  0
 21 20  1  0
 22 21  2  0
 22 17  1  0
 23 12  1  0
 24 23  2  0
 25 23  1  0
 26 29  1  0
 26 25  1  0
 27 28  1  0
 26 27  1  1
 29 31  1  0
 30 29  2  0
M  END
$$$$
