HWC.pdb
     RDKit          3D

 31 33  0  0  1  0  0  0  0  0999 V2000
   10.2558  -18.7935   20.5411 N   0  0  0  0  0  0  0  0  0  0  0  0
   10.7123  -17.4619   20.2969 C   0  0  1  0  0  0  0  0  0  0  0  0
   10.1610  -16.8842   19.0275 C   0  0  0  0  0  0  0  0  0  0  0  0
   10.7637  -17.5569   17.8672 C   0  0  0  0  0  0  0  0  0  0  0  0
   12.0824  -17.4405   17.4469 C   0  0  0  0  0  0  0  0  0  0  0  0
   12.2658  -18.2096   16.3407 N   0  0  0  0  0  0  0  0  0  0  0  0
   11.0792  -18.7863   16.0891 C   0  0  0  0  0  0  0  0  0  0  0  0
   10.1667  -18.4038   16.9979 N   0  0  0  0  0  0  0  0  0  0  0  0
   10.3335  -16.5296   21.4217 C   0  0  0  0  0  0  0  0  0  0  0  0
   10.6568  -15.3280   21.3536 O   0  0  0  0  0  0  0  0  0  0  0  0
    9.6179  -17.0233   22.5399 N   0  0  0  0  0  0  0  0  0  0  0  0
    9.1934  -16.2806   23.6782 C   0  0  1  0  0  0  0  0  0  0  0  0
    7.7010  -15.9958   23.7523 C   0  0  0  0  0  0  0  0  0  0  0  0
    7.4798  -14.5332   23.8073 C   0  0  0  0  0  0  0  0  0  0  0  0
    7.4925  -13.5545   22.8499 C   0  0  0  0  0  0  0  0  0  0  0  0
    7.2313  -12.3539   23.3954 N   0  0  0  0  0  0  0  0  0  0  0  0
    7.0396  -12.4938   24.7070 C   0  0  0  0  0  0  0  0  0  0  0  0
    6.7393  -11.5452   25.6906 C   0  0  0  0  0  0  0  0  0  0  0  0
    6.5947  -12.0183   26.9736 C   0  0  0  0  0  0  0  0  0  0  0  0
    6.7351  -13.3522   27.2883 C   0  0  0  0  0  0  0  0  0  0  0  0
    7.0319  -14.2681   26.2983 C   0  0  0  0  0  0  0  0  0  0  0  0
    7.1866  -13.8445   25.0020 C   0  0  0  0  0  0  0  0  0  0  0  0
    9.7973  -16.6664   24.9486 C   0  0  0  0  0  0  0  0  0  0  0  0
    9.3816  -17.6760   25.5699 O   0  0  0  0  0  0  0  0  0  0  0  0
   10.8729  -15.8569   25.4562 N   0  0  0  0  0  0  0  0  0  0  0  0
   11.0687  -15.6976   26.8826 C   0  0  1  0  0  0  0  0  0  0  0  0
   10.0724  -14.7158   27.4494 C   0  0  0  0  0  0  0  0  0  0  0  0
   10.3990  -14.5699   29.2387 S   0  0  0  0  0  0  0  0  0  0  0  0
   10.8891  -16.9975   27.5628 C   0  0  0  0  0  0  0  0  0  0  0  0
   11.3963  -17.1772   28.6996 O   0  0  0  0  0  0  0  0  0  0  0  0
   10.1794  -18.0471   27.0060 O   0  0  0  0  0  0  0  0  0  0  0  0
  2  1  1  1
  2  3  1  0
  3  4  1  0
  4  8  1  0
  4  5  2  0
  5  6  1  0
  7  6  1  0
  8  7  2  0
  9  2  1  0
  9 10  2  0
 11  9  1  0
 12 11  1  0
 12 13  1  1
 13 14  1  0
 14 15  2  0
 14 22  1  0
 15 16  1  0
 16 17  1  0
 17 18  2  0
 18 19  1  0
 20 19  2  0
 21 20  1  0
 22 21  2  0
 22 17  1  0
 23 12  1  0
 24 23  2  0
 25 23  1  0
 26 29  1  0
 26 25  1  0
 27 28  1  0
 26 27  1  1
 29 31  1  0
 30 29  2  0
M  END
$$$$
