HWC.pdb
     RDKit          3D

 31 33  0  0  1  0  0  0  0  0999 V2000
    8.7948  -16.7041   20.9155 N   0  0  0  0  0  0  0  0  0  0  0  0
    9.4944  -15.4751   21.1192 C   0  0  1  0  0  0  0  0  0  0  0  0
    8.7860  -14.2986   20.5166 C   0  0  0  0  0  0  0  0  0  0  0  0
    8.7218  -14.4466   19.0551 C   0  0  0  0  0  0  0  0  0  0  0  0
    9.3209  -15.4517   18.3066 C   0  0  0  0  0  0  0  0  0  0  0  0
    9.0388  -15.2545   16.9912 N   0  0  0  0  0  0  0  0  0  0  0  0
    8.2800  -14.1476   16.9366 C   0  0  0  0  0  0  0  0  0  0  0  0
    8.0809  -13.6509   18.1689 N   0  0  0  0  0  0  0  0  0  0  0  0
    9.6900  -15.1838   22.5871 C   0  0  0  0  0  0  0  0  0  0  0  0
   10.3426  -14.1784   22.9282 O   0  0  0  0  0  0  0  0  0  0  0  0
    9.1343  -16.0493   23.5609 N   0  0  0  0  0  0  0  0  0  0  0  0
    9.3414  -15.9963   24.9687 C   0  0  1  0  0  0  0  0  0  0  0  0
    8.1521  -16.4149   25.8196 C   0  0  0  0  0  0  0  0  0  0  0  0
    7.0616  -15.4260   25.6641 C   0  0  0  0  0  0  0  0  0  0  0  0
    5.7692  -15.5287   25.2242 C   0  0  0  0  0  0  0  0  0  0  0  0
    5.1578  -14.3321   25.2644 N   0  0  0  0  0  0  0  0  0  0  0  0
    6.0076  -13.4140   25.7242 C   0  0  0  0  0  0  0  0  0  0  0  0
    5.8359  -12.0435   25.9471 C   0  0  0  0  0  0  0  0  0  0  0  0
    6.9232  -11.3628   26.4424 C   0  0  0  0  0  0  0  0  0  0  0  0
    8.1234  -11.9841   26.7098 C   0  0  0  0  0  0  0  0  0  0  0  0
    8.2665  -13.3385   26.4807 C   0  0  0  0  0  0  0  0  0  0  0  0
    7.2099  -14.0614   25.9859 C   0  0  0  0  0  0  0  0  0  0  0  0
   10.6267  -16.4996   25.4400 C   0  0  0  0  0  0  0  0  0  0  0  0
   11.3012  -17.2861   24.7297 O   0  0  0  0  0  0  0  0  0  0  0  0
   11.0862  -16.0666   26.7329 N   0  0  0  0  0  0  0  0  0  0  0  0
   12.2252  -16.7017   27.3635 C   0  0  1  0  0  0  0  0  0  0  0  0
   12.5735  -16.0051   28.6563 C   0  0  0  0  0  0  0  0  0  0  0  0
   11.0319  -15.8183   29.6146 S   0  0  0  0  0  0  0  0  0  0  0  0
   11.9123  -18.1157   27.6591 C   0  0  0  0  0  0  0  0  0  0  0  0
   10.7251  -18.5201   27.5654 O   0  0  0  0  0  0  0  0  0  0  0  0
   12.8732  -19.0359   28.0401 O   0  0  0  0  0  0  0  0  0  0  0  0
  2  1  1  1
  2  3  1  0
  3  4  1  0
  4  8  1  0
  4  5  2  0
  5  6  1  0
  7  6  1  0
  8  7  2  0
  9  2  1  0
  9 10  2  0
 11  9  1  0
 12 11  1  0
 12 13  1  1
 13 14  1  0
 14 15  2  0
 14 22  1  0
 15 16  1  0
 16 17  1  0
 17 18  2  0
 18 19  1  0
 20 19  2  0
 21 20  1  0
 22 21  2  0
 22 17  1  0
 23 12  1  0
 24 23  2  0
 25 23  1  0
 26 29  1  0
 26 25  1  0
 27 28  1  0
 26 27  1  1
 29 31  1  0
 30 29  2  0
M  END
$$$$
