HWC.pdb
     RDKit          3D

 31 33  0  0  1  0  0  0  0  0999 V2000
   11.4784  -16.1582   20.3764 N   0  0  0  0  0  0  0  0  0  0  0  0
   11.3022  -17.1296   21.4091 C   0  0  1  0  0  0  0  0  0  0  0  0
   12.5024  -18.0113   21.5860 C   0  0  0  0  0  0  0  0  0  0  0  0
   12.6724  -18.8698   20.4046 C   0  0  0  0  0  0  0  0  0  0  0  0
   11.7917  -19.8537   19.9735 C   0  0  0  0  0  0  0  0  0  0  0  0
   12.2888  -20.4332   18.8485 N   0  0  0  0  0  0  0  0  0  0  0  0
   13.4538  -19.8141   18.5961 C   0  0  0  0  0  0  0  0  0  0  0  0
   13.6977  -18.8721   19.5224 N   0  0  0  0  0  0  0  0  0  0  0  0
   11.0166  -16.4793   22.7408 C   0  0  0  0  0  0  0  0  0  0  0  0
   11.7480  -15.5509   23.1360 O   0  0  0  0  0  0  0  0  0  0  0  0
    9.9266  -16.9256   23.5275 N   0  0  0  0  0  0  0  0  0  0  0  0
    9.5318  -16.4268   24.8014 C   0  0  1  0  0  0  0  0  0  0  0  0
    8.0307  -16.3425   25.0328 C   0  0  0  0  0  0  0  0  0  0  0  0
    7.5052  -15.1038   24.4159 C   0  0  0  0  0  0  0  0  0  0  0  0
    7.1287  -14.7892   23.1377 C   0  0  0  0  0  0  0  0  0  0  0  0
    6.7110  -13.5133   23.0666 N   0  0  0  0  0  0  0  0  0  0  0  0
    6.7941  -12.9506   24.2720 C   0  0  0  0  0  0  0  0  0  0  0  0
    6.4735  -11.6571   24.6981 C   0  0  0  0  0  0  0  0  0  0  0  0
    6.6703  -11.3854   26.0316 C   0  0  0  0  0  0  0  0  0  0  0  0
    7.1565  -12.3266   26.9125 C   0  0  0  0  0  0  0  0  0  0  0  0
    7.4654  -13.5964   26.4659 C   0  0  0  0  0  0  0  0  0  0  0  0
    7.2868  -13.9158   25.1431 C   0  0  0  0  0  0  0  0  0  0  0  0
   10.2902  -16.9286   25.9418 C   0  0  0  0  0  0  0  0  0  0  0  0
   10.7900  -18.0809   25.9161 O   0  0  0  0  0  0  0  0  0  0  0  0
   10.4418  -16.0647   27.0823 N   0  0  0  0  0  0  0  0  0  0  0  0
   11.2512  -16.4690   28.2136 C   0  0  1  0  0  0  0  0  0  0  0  0
   11.2476  -15.3997   29.2787 C   0  0  0  0  0  0  0  0  0  0  0  0
   11.0558  -13.7893   28.4422 S   0  0  0  0  0  0  0  0  0  0  0  0
   10.7134  -17.7166   28.7960 C   0  0  0  0  0  0  0  0  0  0  0  0
    9.6670  -18.2233   28.3165 O   0  0  0  0  0  0  0  0  0  0  0  0
   11.3107  -18.3696   29.8600 O   0  0  0  0  0  0  0  0  0  0  0  0
  2  1  1  6
  2  3  1  0
  3  4  1  0
  4  8  1  0
  4  5  2  0
  5  6  1  0
  7  6  1  0
  8  7  2  0
  9  2  1  0
  9 10  2  0
 11  9  1  0
 12 11  1  0
 12 13  1  1
 13 14  1  0
 14 15  2  0
 14 22  1  0
 15 16  1  0
 16 17  1  0
 17 18  2  0
 18 19  1  0
 20 19  2  0
 21 20  1  0
 22 21  2  0
 22 17  1  0
 23 12  1  0
 24 23  2  0
 25 23  1  0
 26 29  1  0
 26 25  1  0
 27 28  1  0
 26 27  1  1
 29 31  1  0
 30 29  2  0
M  END
$$$$
