HWC.pdb
     RDKit          3D

 31 33  0  0  1  0  0  0  0  0999 V2000
    8.4581  -16.4534   21.1251 N   0  0  0  0  0  0  0  0  0  0  0  0
    9.1996  -15.2410   21.2712 C   0  0  1  0  0  0  0  0  0  0  0  0
    8.5249  -14.0679   20.6248 C   0  0  0  0  0  0  0  0  0  0  0  0
    8.5113  -14.2394   19.1646 C   0  0  0  0  0  0  0  0  0  0  0  0
    9.0283  -15.3204   18.4620 C   0  0  0  0  0  0  0  0  0  0  0  0
    8.8300  -15.1216   17.1316 N   0  0  0  0  0  0  0  0  0  0  0  0
    8.2025  -13.9390   17.0228 C   0  0  0  0  0  0  0  0  0  0  0  0
    8.0040  -13.3970   18.2359 N   0  0  0  0  0  0  0  0  0  0  0  0
    9.4180  -14.8949   22.7240 C   0  0  0  0  0  0  0  0  0  0  0  0
    9.9001  -13.7848   23.0212 O   0  0  0  0  0  0  0  0  0  0  0  0
    9.0759  -15.8279   23.7333 N   0  0  0  0  0  0  0  0  0  0  0  0
    9.5995  -15.8857   25.0561 C   0  0  1  0  0  0  0  0  0  0  0  0
    8.5694  -16.0825   26.1579 C   0  0  0  0  0  0  0  0  0  0  0  0
    7.3680  -15.2702   25.8612 C   0  0  0  0  0  0  0  0  0  0  0  0
    6.1051  -15.5961   25.4448 C   0  0  0  0  0  0  0  0  0  0  0  0
    5.3504  -14.4917   25.3096 N   0  0  0  0  0  0  0  0  0  0  0  0
    6.0735  -13.4178   25.6265 C   0  0  0  0  0  0  0  0  0  0  0  0
    5.7308  -12.0614   25.6451 C   0  0  0  0  0  0  0  0  0  0  0  0
    6.7182  -11.1858   26.0315 C   0  0  0  0  0  0  0  0  0  0  0  0
    7.9815  -11.6073   26.3843 C   0  0  0  0  0  0  0  0  0  0  0  0
    8.2938  -12.9522   26.3573 C   0  0  0  0  0  0  0  0  0  0  0  0
    7.3421  -13.8654   25.9776 C   0  0  0  0  0  0  0  0  0  0  0  0
   10.8174  -16.6709   25.2224 C   0  0  0  0  0  0  0  0  0  0  0  0
   10.9304  -17.7942   24.6714 O   0  0  0  0  0  0  0  0  0  0  0  0
   11.8705  -16.1169   26.0312 N   0  0  0  0  0  0  0  0  0  0  0  0
   12.2043  -16.7032   27.3132 C   0  0  1  0  0  0  0  0  0  0  0  0
   11.0350  -16.6059   28.2625 C   0  0  0  0  0  0  0  0  0  0  0  0
   11.0667  -14.9403   29.0073 S   0  0  0  0  0  0  0  0  0  0  0  0
   12.5526  -18.1289   27.1384 C   0  0  0  0  0  0  0  0  0  0  0  0
   12.3915  -18.6729   26.0159 O   0  0  0  0  0  0  0  0  0  0  0  0
   13.0564  -18.9122   28.1622 O   0  0  0  0  0  0  0  0  0  0  0  0
  2  1  1  1
  2  3  1  0
  3  4  1  0
  4  8  1  0
  4  5  2  0
  5  6  1  0
  7  6  1  0
  8  7  2  0
  9  2  1  0
  9 10  2  0
 11  9  1  0
 12 11  1  0
 12 13  1  1
 13 14  1  0
 14 15  2  0
 14 22  1  0
 15 16  1  0
 16 17  1  0
 17 18  2  0
 18 19  1  0
 20 19  2  0
 21 20  1  0
 22 21  2  0
 22 17  1  0
 23 12  1  0
 24 23  2  0
 25 23  1  0
 26 29  1  0
 26 25  1  0
 27 28  1  0
 26 27  1  1
 29 31  1  0
 30 29  2  0
M  END
$$$$
