HWC.pdb
     RDKit          3D

 31 33  0  0  1  0  0  0  0  0999 V2000
    8.4078  -16.1520   21.0117 N   0  0  0  0  0  0  0  0  0  0  0  0
    9.5543  -15.3389   21.2677 C   0  0  1  0  0  0  0  0  0  0  0  0
    9.4094  -13.9469   20.7287 C   0  0  0  0  0  0  0  0  0  0  0  0
    9.1566  -13.9936   19.2810 C   0  0  0  0  0  0  0  0  0  0  0  0
    7.9371  -13.7697   18.6549 C   0  0  0  0  0  0  0  0  0  0  0  0
    8.0969  -13.9001   17.3109 N   0  0  0  0  0  0  0  0  0  0  0  0
    9.3923  -14.1987   17.1188 C   0  0  0  0  0  0  0  0  0  0  0  0
   10.0419  -14.2582   18.2932 N   0  0  0  0  0  0  0  0  0  0  0  0
    9.8365  -15.2258   22.7460 C   0  0  0  0  0  0  0  0  0  0  0  0
   10.7655  -14.4923   23.1358 O   0  0  0  0  0  0  0  0  0  0  0  0
    9.0488  -15.9494   23.6745 N   0  0  0  0  0  0  0  0  0  0  0  0
    9.1808  -15.9461   25.0923 C   0  0  1  0  0  0  0  0  0  0  0  0
    7.9463  -16.3870   25.8639 C   0  0  0  0  0  0  0  0  0  0  0  0
    6.8894  -15.3589   25.7335 C   0  0  0  0  0  0  0  0  0  0  0  0
    5.5509  -15.4318   25.4546 C   0  0  0  0  0  0  0  0  0  0  0  0
    5.0014  -14.2049   25.4426 N   0  0  0  0  0  0  0  0  0  0  0  0
    5.9387  -13.2954   25.7089 C   0  0  0  0  0  0  0  0  0  0  0  0
    5.8544  -11.9025   25.8104 C   0  0  0  0  0  0  0  0  0  0  0  0
    7.0210  -11.2388   26.1089 C   0  0  0  0  0  0  0  0  0  0  0  0
    8.2161  -11.8969   26.3005 C   0  0  0  0  0  0  0  0  0  0  0  0
    8.2720  -13.2727   26.1944 C   0  0  0  0  0  0  0  0  0  0  0  0
    7.1339  -13.9801   25.8973 C   0  0  0  0  0  0  0  0  0  0  0  0
   10.4373  -16.4724   25.6135 C   0  0  0  0  0  0  0  0  0  0  0  0
   11.1583  -17.2171   24.9037 O   0  0  0  0  0  0  0  0  0  0  0  0
   10.8142  -16.1108   26.9541 N   0  0  0  0  0  0  0  0  0  0  0  0
   11.8946  -16.8000   27.6297 C   0  0  1  0  0  0  0  0  0  0  0  0
   12.0999  -16.2372   29.0149 C   0  0  0  0  0  0  0  0  0  0  0  0
   11.0646  -14.7416   29.1612 S   0  0  0  0  0  0  0  0  0  0  0  0
   11.5770  -18.2388   27.7474 C   0  0  0  0  0  0  0  0  0  0  0  0
   10.4327  -18.6490   27.4248 O   0  0  0  0  0  0  0  0  0  0  0  0
   12.4880  -19.1764   28.2016 O   0  0  0  0  0  0  0  0  0  0  0  0
  2  1  1  1
  2  3  1  0
  3  4  1  0
  4  8  1  0
  4  5  2  0
  5  6  1  0
  7  6  1  0
  8  7  2  0
  9  2  1  0
  9 10  2  0
 11  9  1  0
 12 11  1  0
 12 13  1  1
 13 14  1  0
 14 15  2  0
 14 22  1  0
 15 16  1  0
 16 17  1  0
 17 18  2  0
 18 19  1  0
 20 19  2  0
 21 20  1  0
 22 21  2  0
 22 17  1  0
 23 12  1  0
 24 23  2  0
 25 23  1  0
 26 29  1  0
 26 25  1  0
 27 28  1  0
 26 27  1  1
 29 31  1  0
 30 29  2  0
M  END
$$$$
