GWP.pdb
     RDKit          3D

 26 28  0  0  1  0  0  0  0  0999 V2000
   29.1911  -21.4800  -15.0904 N   0  0  0  0  0  0  0  0  0  0  0  0
   28.6927  -20.3739  -14.2849 C   0  0  0  0  0  0  0  0  0  0  0  0
   27.9696  -20.8771  -13.1119 C   0  0  0  0  0  0  0  0  0  0  0  0
   27.4172  -21.9980  -13.1815 O   0  0  0  0  0  0  0  0  0  0  0  0
   27.9050  -20.0847  -11.9086 N   0  0  0  0  0  0  0  0  0  0  0  0
   26.8311  -20.1943  -11.0128 C   0  0  1  0  0  0  0  0  0  0  0  0
   26.8870  -19.1887   -9.8536 C   0  0  0  0  0  0  0  0  0  0  0  0
   26.6194  -19.9470   -8.6102 C   0  0  0  0  0  0  0  0  0  0  0  0
   25.6294  -20.9041   -8.4563 C   0  0  0  0  0  0  0  0  0  0  0  0
   25.7059  -21.4096   -7.2177 N   0  0  0  0  0  0  0  0  0  0  0  0
   26.7186  -20.8171   -6.5387 C   0  0  0  0  0  0  0  0  0  0  0  0
   27.2034  -20.9651   -5.2564 C   0  0  0  0  0  0  0  0  0  0  0  0
   28.2644  -20.1925   -4.8411 C   0  0  0  0  0  0  0  0  0  0  0  0
   28.8591  -19.2712   -5.6723 C   0  0  0  0  0  0  0  0  0  0  0  0
   28.3581  -19.1370   -6.9579 C   0  0  0  0  0  0  0  0  0  0  0  0
   27.2917  -19.8938   -7.4222 C   0  0  0  0  0  0  0  0  0  0  0  0
   25.5091  -20.0457  -11.6131 C   0  0  0  0  0  0  0  0  0  0  0  0
   25.2080  -18.8344  -12.0417 O   0  0  0  0  0  0  0  0  0  0  0  0
   24.5175  -21.0085  -11.7972 N   0  0  0  0  0  0  0  0  0  0  0  0
   24.6476  -22.3946  -11.3082 C   0  0  0  0  0  0  0  0  0  0  0  0
   23.7230  -23.2208  -12.1445 C   0  0  0  0  0  0  0  0  0  0  0  0
   23.1668  -22.2739  -13.1813 C   0  0  0  0  0  0  0  0  0  0  0  0
   23.2627  -20.9310  -12.4531 C   0  0  1  0  0  0  0  0  0  0  0  0
   22.1145  -20.7740  -11.5211 C   0  0  0  0  0  0  0  0  0  0  0  0
   22.3545  -20.9535  -10.2994 O   0  0  0  0  0  0  0  0  0  0  0  0
   20.8322  -20.4535  -11.8832 O   0  0  0  0  0  0  0  0  0  0  0  0
  2  1  1  0
  3  2  1  0
  4  3  2  0
  5  3  1  0
  6  5  1  0
  7  8  1  0
  6  7  1  1
  8  9  2  0
 10  9  1  0
 11 10  1  0
 12 11  2  0
 13 12  1  0
 14 15  1  0
 14 13  2  0
 15 16  2  0
 16 11  1  0
 16  8  1  0
 17 19  1  0
 17  6  1  0
 18 17  2  0
 19 20  1  0
 21 20  1  0
 22 21  1  0
 23 19  1  0
 23 22  1  0
 24 26  1  0
 23 24  1  1
 25 24  2  0
M  END
$$$$
