GWP.pdb
     RDKit          3D

 26 28  0  0  1  0  0  0  0  0999 V2000
   26.6805  -17.1817  -19.8216 N   0  0  0  0  0  0  0  0  0  0  0  0
   25.7723  -17.1120  -18.6853 C   0  0  0  0  0  0  0  0  0  0  0  0
   26.1195  -18.1288  -17.6865 C   0  0  0  0  0  0  0  0  0  0  0  0
   26.3671  -19.2926  -18.0745 O   0  0  0  0  0  0  0  0  0  0  0  0
   26.1706  -17.7797  -16.2881 N   0  0  0  0  0  0  0  0  0  0  0  0
   26.2795  -18.7585  -15.2893 C   0  0  1  0  0  0  0  0  0  0  0  0
   26.7961  -18.2191  -13.9476 C   0  0  0  0  0  0  0  0  0  0  0  0
   27.1292  -19.3931  -13.1090 C   0  0  0  0  0  0  0  0  0  0  0  0
   28.2184  -20.2277  -13.3006 C   0  0  0  0  0  0  0  0  0  0  0  0
   28.2279  -21.1547  -12.3330 N   0  0  0  0  0  0  0  0  0  0  0  0
   27.1754  -20.9641  -11.5003 C   0  0  0  0  0  0  0  0  0  0  0  0
   26.7325  -21.6309  -10.3776 C   0  0  0  0  0  0  0  0  0  0  0  0
   25.5945  -21.1951   -9.7371 C   0  0  0  0  0  0  0  0  0  0  0  0
   24.8812  -20.1077  -10.1866 C   0  0  0  0  0  0  0  0  0  0  0  0
   25.3422  -19.4501  -11.3166 C   0  0  0  0  0  0  0  0  0  0  0  0
   26.4843  -19.8509  -11.9951 C   0  0  0  0  0  0  0  0  0  0  0  0
   25.0432  -19.4734  -14.9884 C   0  0  0  0  0  0  0  0  0  0  0  0
   23.9438  -18.7433  -14.9957 O   0  0  0  0  0  0  0  0  0  0  0  0
   24.8618  -20.8240  -14.6936 N   0  0  0  0  0  0  0  0  0  0  0  0
   25.9789  -21.7251  -14.3509 C   0  0  0  0  0  0  0  0  0  0  0  0
   25.5072  -23.1106  -14.6584 C   0  0  0  0  0  0  0  0  0  0  0  0
   24.1444  -22.9394  -15.2867 C   0  0  0  0  0  0  0  0  0  0  0  0
   23.6860  -21.6161  -14.6689 C   0  0  1  0  0  0  0  0  0  0  0  0
   23.1565  -21.8501  -13.2990 C   0  0  0  0  0  0  0  0  0  0  0  0
   23.9213  -21.5575  -12.3440 O   0  0  0  0  0  0  0  0  0  0  0  0
   21.9175  -22.3527  -12.9985 O   0  0  0  0  0  0  0  0  0  0  0  0
  2  1  1  0
  3  2  1  0
  4  3  2  0
  5  3  1  0
  6  5  1  0
  7  8  1  0
  6  7  1  1
  8  9  2  0
 10  9  1  0
 11 10  1  0
 12 11  2  0
 13 12  1  0
 14 15  1  0
 14 13  2  0
 15 16  2  0
 16 11  1  0
 16  8  1  0
 17 19  1  0
 17  6  1  0
 18 17  2  0
 19 20  1  0
 21 20  1  0
 22 21  1  0
 23 19  1  0
 23 22  1  0
 24 26  1  0
 23 24  1  1
 25 24  2  0
M  END
$$$$
