GWP.pdb
     RDKit          3D

 26 28  0  0  1  0  0  0  0  0999 V2000
   21.1983  -21.1273  -13.7242 N   0  0  0  0  0  0  0  0  0  0  0  0
   21.8558  -21.1551  -12.4251 C   0  0  0  0  0  0  0  0  0  0  0  0
   23.2011  -20.5774  -12.5173 C   0  0  0  0  0  0  0  0  0  0  0  0
   23.3287  -19.4222  -12.9815 O   0  0  0  0  0  0  0  0  0  0  0  0
   24.3452  -21.3375  -12.0778 N   0  0  0  0  0  0  0  0  0  0  0  0
   25.6556  -20.9179  -12.3504 C   0  0  1  0  0  0  0  0  0  0  0  0
   26.7110  -21.5451  -11.4279 C   0  0  0  0  0  0  0  0  0  0  0  0
   26.5537  -20.9126  -10.0983 C   0  0  0  0  0  0  0  0  0  0  0  0
   25.3684  -20.4052   -9.5908 C   0  0  0  0  0  0  0  0  0  0  0  0
   25.5896  -19.9496   -8.3502 N   0  0  0  0  0  0  0  0  0  0  0  0
   26.8894  -20.1371   -8.0140 C   0  0  0  0  0  0  0  0  0  0  0  0
   27.6188  -19.8439   -6.8813 C   0  0  0  0  0  0  0  0  0  0  0  0
   28.9598  -20.1526   -6.8417 C   0  0  0  0  0  0  0  0  0  0  0  0
   29.5980  -20.7483   -7.9052 C   0  0  0  0  0  0  0  0  0  0  0  0
   28.8480  -21.0358   -9.0351 C   0  0  0  0  0  0  0  0  0  0  0  0
   27.4940  -20.7448   -9.1216 C   0  0  0  0  0  0  0  0  0  0  0  0
   26.1121  -21.1666  -13.7142 C   0  0  0  0  0  0  0  0  0  0  0  0
   25.5512  -22.1918  -14.3274 O   0  0  0  0  0  0  0  0  0  0  0  0
   27.0609  -20.4696  -14.4612 N   0  0  0  0  0  0  0  0  0  0  0  0
   28.0575  -19.5699  -13.8491 C   0  0  0  0  0  0  0  0  0  0  0  0
   28.4803  -18.6213  -14.9252 C   0  0  0  0  0  0  0  0  0  0  0  0
   27.6069  -18.9484  -16.1132 C   0  0  0  0  0  0  0  0  0  0  0  0
   27.2853  -20.4234  -15.8605 C   0  0  1  0  0  0  0  0  0  0  0  0
   28.4188  -21.2756  -16.3083 C   0  0  0  0  0  0  0  0  0  0  0  0
   28.6428  -21.3072  -17.5458 O   0  0  0  0  0  0  0  0  0  0  0  0
   29.2282  -22.0197  -15.4902 O   0  0  0  0  0  0  0  0  0  0  0  0
  2  1  1  0
  3  2  1  0
  4  3  2  0
  5  3  1  0
  6  5  1  0
  7  8  1  0
  6  7  1  1
  8  9  2  0
 10  9  1  0
 11 10  1  0
 12 11  2  0
 13 12  1  0
 14 15  1  0
 14 13  2  0
 15 16  2  0
 16 11  1  0
 16  8  1  0
 17 19  1  0
 17  6  1  0
 18 17  2  0
 19 20  1  0
 21 20  1  0
 22 21  1  0
 23 19  1  0
 23 22  1  0
 24 26  1  0
 23 24  1  1
 25 24  2  0
M  END
$$$$
