GWP.pdb
     RDKit          3D

 26 28  0  0  1  0  0  0  0  0999 V2000
   29.6388  -18.2387  -14.5372 N   0  0  0  0  0  0  0  0  0  0  0  0
   28.1881  -18.2847  -14.4182 C   0  0  0  0  0  0  0  0  0  0  0  0
   27.7909  -19.1574  -13.3079 C   0  0  0  0  0  0  0  0  0  0  0  0
   27.6419  -20.3803  -13.5282 O   0  0  0  0  0  0  0  0  0  0  0  0
   27.5796  -18.6030  -11.9934 N   0  0  0  0  0  0  0  0  0  0  0  0
   26.8602  -19.2972  -11.0095 C   0  0  1  0  0  0  0  0  0  0  0  0
   26.7305  -18.5338   -9.6834 C   0  0  0  0  0  0  0  0  0  0  0  0
   26.4548  -19.5387   -8.6312 C   0  0  0  0  0  0  0  0  0  0  0  0
   25.4338  -20.4746   -8.6691 C   0  0  0  0  0  0  0  0  0  0  0  0
   25.5110  -21.2427   -7.5739 N   0  0  0  0  0  0  0  0  0  0  0  0
   26.5542  -20.8465   -6.8043 C   0  0  0  0  0  0  0  0  0  0  0  0
   27.0527  -21.2885   -5.5971 C   0  0  0  0  0  0  0  0  0  0  0  0
   28.1466  -20.6600   -5.0462 C   0  0  0  0  0  0  0  0  0  0  0  0
   28.7611  -19.5974   -5.6678 C   0  0  0  0  0  0  0  0  0  0  0  0
   28.2458  -19.1675   -6.8809 C   0  0  0  0  0  0  0  0  0  0  0  0
   27.1464  -19.7696   -7.4760 C   0  0  0  0  0  0  0  0  0  0  0  0
   25.5040  -19.6786  -11.3905 C   0  0  0  0  0  0  0  0  0  0  0  0
   24.6718  -18.6804  -11.6198 O   0  0  0  0  0  0  0  0  0  0  0  0
   24.9640  -20.9547  -11.5463 N   0  0  0  0  0  0  0  0  0  0  0  0
   25.6286  -22.1717  -11.0418 C   0  0  0  0  0  0  0  0  0  0  0  0
   25.0908  -23.3077  -11.8524 C   0  0  0  0  0  0  0  0  0  0  0  0
   24.1994  -22.6709  -12.8922 C   0  0  0  0  0  0  0  0  0  0  0  0
   23.7718  -21.3837  -12.1828 C   0  0  1  0  0  0  0  0  0  0  0  0
   22.6624  -21.6695  -11.2346 C   0  0  0  0  0  0  0  0  0  0  0  0
   22.9653  -21.7194  -10.0147 O   0  0  0  0  0  0  0  0  0  0  0  0
   21.3531  -21.8800  -11.5800 O   0  0  0  0  0  0  0  0  0  0  0  0
  2  1  1  0
  3  2  1  0
  4  3  2  0
  5  3  1  0
  6  5  1  0
  7  8  1  0
  6  7  1  1
  8  9  2  0
 10  9  1  0
 11 10  1  0
 12 11  2  0
 13 12  1  0
 14 15  1  0
 14 13  2  0
 15 16  2  0
 16 11  1  0
 16  8  1  0
 17 19  1  0
 17  6  1  0
 18 17  2  0
 19 20  1  0
 21 20  1  0
 22 21  1  0
 23 19  1  0
 23 22  1  0
 24 26  1  0
 23 24  1  1
 25 24  2  0
M  END
$$$$
