GWP.pdb
     RDKit          3D

 26 28  0  0  1  0  0  0  0  0999 V2000
   29.8877  -22.8894  -18.1546 N   0  0  0  0  0  0  0  0  0  0  0  0
   29.0827  -21.6966  -17.9309 C   0  0  0  0  0  0  0  0  0  0  0  0
   28.3811  -21.7835  -16.6454 C   0  0  0  0  0  0  0  0  0  0  0  0
   28.1891  -22.9125  -16.1406 O   0  0  0  0  0  0  0  0  0  0  0  0
   27.9273  -20.5830  -15.9877 N   0  0  0  0  0  0  0  0  0  0  0  0
   27.2058  -20.6309  -14.7857 C   0  0  1  0  0  0  0  0  0  0  0  0
   27.5244  -19.4752  -13.8260 C   0  0  0  0  0  0  0  0  0  0  0  0
   27.1717  -19.9350  -12.4634 C   0  0  0  0  0  0  0  0  0  0  0  0
   25.9098  -19.8578  -11.8965 C   0  0  0  0  0  0  0  0  0  0  0  0
   25.9515  -20.4036  -10.6734 N   0  0  0  0  0  0  0  0  0  0  0  0
   27.2057  -20.8429  -10.4060 C   0  0  0  0  0  0  0  0  0  0  0  0
   27.7722  -21.4585   -9.3100 C   0  0  0  0  0  0  0  0  0  0  0  0
   29.1103  -21.7813   -9.3320 C   0  0  0  0  0  0  0  0  0  0  0  0
   29.9042  -21.5061  -10.4215 C   0  0  0  0  0  0  0  0  0  0  0  0
   29.3168  -20.8873  -11.5141 C   0  0  0  0  0  0  0  0  0  0  0  0
   27.9726  -20.5440  -11.5392 C   0  0  0  0  0  0  0  0  0  0  0  0
   25.7543  -20.6418  -14.9373 C   0  0  0  0  0  0  0  0  0  0  0  0
   25.2542  -19.7092  -15.7260 O   0  0  0  0  0  0  0  0  0  0  0  0
   24.8200  -21.5029  -14.3632 N   0  0  0  0  0  0  0  0  0  0  0  0
   25.1778  -22.5046  -13.3404 C   0  0  0  0  0  0  0  0  0  0  0  0
   24.1151  -23.5555  -13.3955 C   0  0  0  0  0  0  0  0  0  0  0  0
   23.2260  -23.1657  -14.5525 C   0  0  0  0  0  0  0  0  0  0  0  0
   23.4293  -21.6493  -14.5982 C   0  0  1  0  0  0  0  0  0  0  0  0
   22.5809  -20.9907  -13.5696 C   0  0  0  0  0  0  0  0  0  0  0  0
   21.3586  -20.8720  -13.8420 O   0  0  0  0  0  0  0  0  0  0  0  0
   23.0197  -20.5090  -12.3640 O   0  0  0  0  0  0  0  0  0  0  0  0
  2  1  1  0
  3  2  1  0
  4  3  2  0
  5  3  1  0
  6  5  1  0
  7  8  1  0
  6  7  1  1
  8  9  2  0
 10  9  1  0
 11 10  1  0
 12 11  2  0
 13 12  1  0
 14 15  1  0
 14 13  2  0
 15 16  2  0
 16 11  1  0
 16  8  1  0
 17 19  1  0
 17  6  1  0
 18 17  2  0
 19 20  1  0
 21 20  1  0
 22 21  1  0
 23 19  1  0
 23 22  1  0
 24 26  1  0
 23 24  1  1
 25 24  2  0
M  END
$$$$
