GWP.pdb
     RDKit          3D

 26 28  0  0  1  0  0  0  0  0999 V2000
   28.6192  -17.3883  -15.2867 N   0  0  0  0  0  0  0  0  0  0  0  0
   27.6730  -17.5919  -14.1986 C   0  0  0  0  0  0  0  0  0  0  0  0
   27.1595  -18.9661  -14.2142 C   0  0  0  0  0  0  0  0  0  0  0  0
   26.9013  -19.4988  -15.3169 O   0  0  0  0  0  0  0  0  0  0  0  0
   26.9612  -19.6771  -12.9753 N   0  0  0  0  0  0  0  0  0  0  0  0
   26.4384  -20.9784  -12.9498 C   0  0  1  0  0  0  0  0  0  0  0  0
   26.8518  -21.7875  -11.7118 C   0  0  0  0  0  0  0  0  0  0  0  0
   26.5321  -20.9587  -10.5271 C   0  0  0  0  0  0  0  0  0  0  0  0
   25.2983  -20.3865  -10.2625 C   0  0  0  0  0  0  0  0  0  0  0  0
   25.3629  -19.7439   -9.0885 N   0  0  0  0  0  0  0  0  0  0  0  0
   26.6053  -19.8694   -8.5609 C   0  0  0  0  0  0  0  0  0  0  0  0
   27.1855  -19.4007   -7.4012 C   0  0  0  0  0  0  0  0  0  0  0  0
   28.5056  -19.6914   -7.1401 C   0  0  0  0  0  0  0  0  0  0  0  0
   29.2679  -20.4399   -8.0071 C   0  0  0  0  0  0  0  0  0  0  0  0
   28.6670  -20.9026   -9.1675 C   0  0  0  0  0  0  0  0  0  0  0  0
   27.3400  -20.6367   -9.4735 C   0  0  0  0  0  0  0  0  0  0  0  0
   24.9828  -21.0602  -13.0183 C   0  0  0  0  0  0  0  0  0  0  0  0
   24.3272  -20.0392  -12.4993 O   0  0  0  0  0  0  0  0  0  0  0  0
   24.1866  -22.0698  -13.5576 N   0  0  0  0  0  0  0  0  0  0  0  0
   24.6598  -23.4571  -13.7275 C   0  0  0  0  0  0  0  0  0  0  0  0
   23.8063  -24.0614  -14.7967 C   0  0  0  0  0  0  0  0  0  0  0  0
   22.9276  -22.9368  -15.2910 C   0  0  0  0  0  0  0  0  0  0  0  0
   22.8595  -22.0352  -14.0559 C   0  0  1  0  0  0  0  0  0  0  0  0
   21.8515  -22.5606  -13.0970 C   0  0  0  0  0  0  0  0  0  0  0  0
   22.2937  -23.2312  -12.1289 O   0  0  0  0  0  0  0  0  0  0  0  0
   20.4966  -22.3744  -13.1834 O   0  0  0  0  0  0  0  0  0  0  0  0
  2  1  1  0
  3  2  1  0
  4  3  2  0
  5  3  1  0
  6  5  1  0
  7  8  1  0
  6  7  1  1
  8  9  2  0
 10  9  1  0
 11 10  1  0
 12 11  2  0
 13 12  1  0
 14 15  1  0
 14 13  2  0
 15 16  2  0
 16 11  1  0
 16  8  1  0
 17 19  1  0
 17  6  1  0
 18 17  2  0
 19 20  1  0
 21 20  1  0
 22 21  1  0
 23 19  1  0
 23 22  1  0
 24 26  1  0
 23 24  1  1
 25 24  2  0
M  END
$$$$
