GWP.pdb
     RDKit          3D

 26 28  0  0  1  0  0  0  0  0999 V2000
   24.4398  -11.2217  -20.3124 N   0  0  0  0  0  0  0  0  0  0  0  0
   24.6697  -10.7080  -18.9692 C   0  0  0  0  0  0  0  0  0  0  0  0
   23.4989   -9.9606  -18.4973 C   0  0  0  0  0  0  0  0  0  0  0  0
   22.7451   -9.4279  -19.3425 O   0  0  0  0  0  0  0  0  0  0  0  0
   23.2340   -9.8502  -17.0840 N   0  0  0  0  0  0  0  0  0  0  0  0
   22.1937   -9.0487  -16.5911 C   0  0  1  0  0  0  0  0  0  0  0  0
   21.2855   -9.7652  -15.5812 C   0  0  0  0  0  0  0  0  0  0  0  0
   20.6446  -10.8909  -16.2987 C   0  0  0  0  0  0  0  0  0  0  0  0
   21.2047  -12.1453  -16.4785 C   0  0  0  0  0  0  0  0  0  0  0  0
   20.3291  -12.9195  -17.1338 N   0  0  0  0  0  0  0  0  0  0  0  0
   19.1997  -12.2181  -17.3981 C   0  0  0  0  0  0  0  0  0  0  0  0
   18.0235  -12.5386  -18.0423 C   0  0  0  0  0  0  0  0  0  0  0  0
   17.0390  -11.5844  -18.1672 C   0  0  0  0  0  0  0  0  0  0  0  0
   17.1947  -10.3127  -17.6657 C   0  0  0  0  0  0  0  0  0  0  0  0
   18.3839  -10.0093  -17.0210 C   0  0  0  0  0  0  0  0  0  0  0  0
   19.4042  -10.9374  -16.8694 C   0  0  0  0  0  0  0  0  0  0  0  0
   22.6208   -7.8122  -15.9441 C   0  0  0  0  0  0  0  0  0  0  0  0
   23.7904   -7.8597  -15.3346 O   0  0  0  0  0  0  0  0  0  0  0  0
   21.9631   -6.5844  -15.8805 N   0  0  0  0  0  0  0  0  0  0  0  0
   20.6297   -6.3596  -16.4711 C   0  0  0  0  0  0  0  0  0  0  0  0
   20.5195   -4.8865  -16.7048 C   0  0  0  0  0  0  0  0  0  0  0  0
   21.8698   -4.3202  -16.3344 C   0  0  0  0  0  0  0  0  0  0  0  0
   22.3639   -5.3480  -15.3135 C   0  0  1  0  0  0  0  0  0  0  0  0
   21.7538   -5.0792  -13.9842 C   0  0  0  0  0  0  0  0  0  0  0  0
   20.7933   -5.8184  -13.6474 O   0  0  0  0  0  0  0  0  0  0  0  0
   22.1500   -4.1025  -13.1084 O   0  0  0  0  0  0  0  0  0  0  0  0
  2  1  1  0
  3  2  1  0
  4  3  2  0
  5  3  1  0
  6  5  1  0
  7  8  1  0
  6  7  1  1
  8  9  2  0
 10  9  1  0
 11 10  1  0
 12 11  2  0
 13 12  1  0
 14 15  1  0
 14 13  2  0
 15 16  2  0
 16 11  1  0
 16  8  1  0
 17 19  1  0
 17  6  1  0
 18 17  2  0
 19 20  1  0
 21 20  1  0
 22 21  1  0
 23 19  1  0
 23 22  1  0
 24 26  1  0
 23 24  1  1
 25 24  2  0
M  END
$$$$
