GWP.pdb
     RDKit          3D

 26 28  0  0  1  0  0  0  0  0999 V2000
   28.9959  -23.1742  -17.7259 N   0  0  0  0  0  0  0  0  0  0  0  0
   28.4873  -21.8728  -17.3156 C   0  0  0  0  0  0  0  0  0  0  0  0
   27.7913  -21.9753  -16.0283 C   0  0  0  0  0  0  0  0  0  0  0  0
   27.0326  -22.9510  -15.8313 O   0  0  0  0  0  0  0  0  0  0  0  0
   27.9872  -20.9643  -15.0188 N   0  0  0  0  0  0  0  0  0  0  0  0
   27.0946  -20.8122  -13.9474 C   0  0  1  0  0  0  0  0  0  0  0  0
   27.5516  -19.7842  -12.9022 C   0  0  0  0  0  0  0  0  0  0  0  0
   26.8178  -20.0839  -11.6514 C   0  0  0  0  0  0  0  0  0  0  0  0
   25.4386  -20.1069  -11.5210 C   0  0  0  0  0  0  0  0  0  0  0  0
   25.1292  -20.4543  -10.2644 N   0  0  0  0  0  0  0  0  0  0  0  0
   26.2624  -20.6635   -9.5505 C   0  0  0  0  0  0  0  0  0  0  0  0
   26.4946  -21.0221   -8.2396 C   0  0  0  0  0  0  0  0  0  0  0  0
   27.7904  -21.1479   -7.7921 C   0  0  0  0  0  0  0  0  0  0  0  0
   28.8674  -20.9248   -8.6189 C   0  0  0  0  0  0  0  0  0  0  0  0
   28.6140  -20.5655   -9.9336 C   0  0  0  0  0  0  0  0  0  0  0  0
   27.3260  -20.4275  -10.4308 C   0  0  0  0  0  0  0  0  0  0  0  0
   25.7376  -20.4294  -14.3242 C   0  0  0  0  0  0  0  0  0  0  0  0
   25.6281  -19.3011  -14.9999 O   0  0  0  0  0  0  0  0  0  0  0  0
   24.5377  -21.0921  -14.0690 N   0  0  0  0  0  0  0  0  0  0  0  0
   24.4446  -22.2625  -13.1752 C   0  0  0  0  0  0  0  0  0  0  0  0
   23.2112  -23.0030  -13.5841 C   0  0  0  0  0  0  0  0  0  0  0  0
   22.6908  -22.2736  -14.7999 C   0  0  0  0  0  0  0  0  0  0  0  0
   23.2291  -20.8604  -14.5635 C   0  0  1  0  0  0  0  0  0  0  0  0
   22.3524  -20.1352  -13.6058 C   0  0  0  0  0  0  0  0  0  0  0  0
   22.7700  -20.0411  -12.4229 O   0  0  0  0  0  0  0  0  0  0  0  0
   21.1412  -19.5686  -13.9060 O   0  0  0  0  0  0  0  0  0  0  0  0
  2  1  1  0
  3  2  1  0
  4  3  2  0
  5  3  1  0
  6  5  1  0
  7  8  1  0
  6  7  1  1
  8  9  2  0
 10  9  1  0
 11 10  1  0
 12 11  2  0
 13 12  1  0
 14 15  1  0
 14 13  2  0
 15 16  2  0
 16 11  1  0
 16  8  1  0
 17 19  1  0
 17  6  1  0
 18 17  2  0
 19 20  1  0
 21 20  1  0
 22 21  1  0
 23 19  1  0
 23 22  1  0
 24 26  1  0
 23 24  1  1
 25 24  2  0
M  END
$$$$
