DMT.pdb
     RDKit          3D

 24 23  0  0  1  0  0  0  0  0999 V2000
   18.8062  -11.4453  -17.6247 N   0  0  0  0  0  0  0  0  0  0  0  0
   18.3977  -11.1554  -16.2864 C   0  0  1  0  0  0  0  0  0  0  0  0
   17.8831  -12.3848  -15.5890 C   0  0  0  0  0  0  0  0  0  0  0  0
   16.8610  -13.0095  -16.4686 C   0  0  0  0  0  0  0  0  0  0  0  0
   17.0253  -14.1509  -16.9897 O   0  0  0  0  0  0  0  0  0  0  0  0
   19.5369  -10.5508  -15.5228 C   0  0  0  0  0  0  0  0  0  0  0  0
   19.3947  -10.2886  -14.3051 O   0  0  0  0  0  0  0  0  0  0  0  0
   15.6729  -12.3518  -16.7528 O   0  0  0  0  0  0  0  0  0  0  0  0
   27.3128  -10.0836  -15.1486 C   0  0  0  0  0  0  0  0  0  0  0  0
   25.8226  -10.7289  -15.9948 S   0  0  0  0  0  0  0  0  0  0  0  0
   24.4044   -9.8198  -15.3642 C   0  0  0  0  0  0  0  0  0  0  0  0
   23.1020  -10.3333  -15.8531 C   0  0  0  0  0  0  0  0  0  0  0  0
   21.8710   -9.6589  -15.3464 C   0  0  2  0  0  0  0  0  0  0  0  0
   20.7654  -10.2672  -16.1321 N   0  0  0  0  0  0  0  0  0  0  0  0
   21.8783   -8.2090  -15.6253 C   0  0  0  0  0  0  0  0  0  0  0  0
   22.1814   -7.8277  -16.8008 O   0  0  0  0  0  0  0  0  0  0  0  0
   19.4530   -5.9392  -16.3597 C   0  0  0  0  0  0  0  0  0  0  0  0
   20.1915   -5.2470  -15.2383 C   0  0  1  0  0  0  0  0  0  0  0  0
   19.5424   -5.5032  -14.0184 O   0  0  0  0  0  0  0  0  0  0  0  0
   21.6036   -5.7647  -15.0842 C   0  0  2  0  0  0  0  0  0  0  0  0
   21.5777   -7.1880  -14.7130 N   0  0  0  0  0  0  0  0  0  0  0  0
   22.3918   -4.9791  -14.1276 C   0  0  0  0  0  0  0  0  0  0  0  0
   22.7890   -5.4231  -13.0229 O   0  0  0  0  0  0  0  0  0  0  0  0
   22.7243   -3.6730  -14.4464 O   0  0  0  0  0  0  0  0  0  0  0  0
  2  1  1  6
  2  3  1  0
  3  4  1  0
  4  8  1  0
  5  4  2  0
  6  7  2  0
  6  2  1  0
  9 10  1  0
 10 11  1  0
 11 12  1  0
 13 12  1  6
 13 14  1  0
 14  6  1  0
 15 13  1  0
 15 21  1  0
 16 15  2  0
 18 17  1  6
 18 20  1  0
 19 18  1  0
 20 21  1  1
 20 22  1  0
 22 23  2  0
 22 24  1  0
M  END
$$$$
