DMT.pdb
     RDKit          3D

 24 23  0  0  1  0  0  0  0  0999 V2000
   24.2738  -14.8628  -19.2181 N   0  0  0  0  0  0  0  0  0  0  0  0
   23.6857  -13.5747  -19.4100 C   0  0  1  0  0  0  0  0  0  0  0  0
   22.3107  -13.6808  -20.0107 C   0  0  0  0  0  0  0  0  0  0  0  0
   22.4613  -14.1909  -21.3984 C   0  0  0  0  0  0  0  0  0  0  0  0
   23.5638  -14.1465  -22.0181 O   0  0  0  0  0  0  0  0  0  0  0  0
   23.6394  -12.8337  -18.1080 C   0  0  0  0  0  0  0  0  0  0  0  0
   23.0641  -13.3519  -17.1220 O   0  0  0  0  0  0  0  0  0  0  0  0
   21.3810  -14.7419  -22.0723 O   0  0  0  0  0  0  0  0  0  0  0  0
   29.1377  -12.8498  -15.2900 C   0  0  0  0  0  0  0  0  0  0  0  0
   28.2128  -11.3043  -15.6208 S   0  0  0  0  0  0  0  0  0  0  0  0
   26.5102  -11.7579  -15.9823 C   0  0  0  0  0  0  0  0  0  0  0  0
   25.6527  -10.6066  -16.3537 C   0  0  0  0  0  0  0  0  0  0  0  0
   24.2150  -10.8914  -16.6347 C   0  0  2  0  0  0  0  0  0  0  0  0
   24.2235  -11.5700  -17.9572 N   0  0  0  0  0  0  0  0  0  0  0  0
   23.4203   -9.6541  -16.7674 C   0  0  0  0  0  0  0  0  0  0  0  0
   23.6019   -8.9347  -17.8011 O   0  0  0  0  0  0  0  0  0  0  0  0
   19.5582   -9.3203  -15.7379 C   0  0  0  0  0  0  0  0  0  0  0  0
   20.3017   -8.3992  -16.6763 C   0  0  1  0  0  0  0  0  0  0  0  0
   19.5679   -7.2136  -16.8519 O   0  0  0  0  0  0  0  0  0  0  0  0
   21.6462   -7.9876  -16.1207 C   0  0  2  0  0  0  0  0  0  0  0  0
   22.4654   -9.1807  -15.8567 N   0  0  0  0  0  0  0  0  0  0  0  0
   21.5290   -7.1466  -14.9239 C   0  0  0  0  0  0  0  0  0  0  0  0
   21.9169   -7.5007  -13.7839 O   0  0  0  0  0  0  0  0  0  0  0  0
   20.9609   -5.8890  -15.0418 O   0  0  0  0  0  0  0  0  0  0  0  0
  2  1  1  1
  2  3  1  0
  3  4  1  0
  4  8  1  0
  5  4  2  0
  6  7  2  0
  6  2  1  0
  9 10  1  0
 10 11  1  0
 11 12  1  0
 13 12  1  6
 13 14  1  0
 14  6  1  0
 15 13  1  0
 15 21  1  0
 16 15  2  0
 18 17  1  1
 18 20  1  0
 19 18  1  0
 20 21  1  1
 20 22  1  0
 22 23  2  0
 22 24  1  0
M  END
$$$$
