DMT.pdb
     RDKit          3D

 24 23  0  0  1  0  0  0  0  0999 V2000
   19.3094  -11.8236  -17.7679 N   0  0  0  0  0  0  0  0  0  0  0  0
   18.9466  -11.6507  -16.3966 C   0  0  1  0  0  0  0  0  0  0  0  0
   18.5289  -12.9525  -15.7690 C   0  0  0  0  0  0  0  0  0  0  0  0
   17.2240  -13.3431  -16.3634 C   0  0  0  0  0  0  0  0  0  0  0  0
   17.1280  -13.8036  -17.5382 O   0  0  0  0  0  0  0  0  0  0  0  0
   20.0855  -11.0386  -15.6387 C   0  0  0  0  0  0  0  0  0  0  0  0
   19.9548  -10.7963  -14.4156 O   0  0  0  0  0  0  0  0  0  0  0  0
   16.0479  -13.2139  -15.6389 O   0  0  0  0  0  0  0  0  0  0  0  0
   27.8611  -10.4446  -15.3659 C   0  0  0  0  0  0  0  0  0  0  0  0
   26.3639  -11.1419  -16.1568 S   0  0  0  0  0  0  0  0  0  0  0  0
   24.9400  -10.2748  -15.4814 C   0  0  0  0  0  0  0  0  0  0  0  0
   23.6413  -10.7637  -16.0043 C   0  0  0  0  0  0  0  0  0  0  0  0
   22.4067  -10.1105  -15.4789 C   0  0  2  0  0  0  0  0  0  0  0  0
   21.3014  -10.7261  -16.2592 N   0  0  0  0  0  0  0  0  0  0  0  0
   22.3921   -8.6581  -15.7442 C   0  0  0  0  0  0  0  0  0  0  0  0
   22.8402   -8.2500  -16.8629 O   0  0  0  0  0  0  0  0  0  0  0  0
   20.1395   -6.4328  -16.8941 C   0  0  0  0  0  0  0  0  0  0  0  0
   20.6200   -5.7430  -15.6391 C   0  0  1  0  0  0  0  0  0  0  0  0
   19.7464   -6.0346  -14.5776 O   0  0  0  0  0  0  0  0  0  0  0  0
   21.9856   -6.2305  -15.2108 C   0  0  2  0  0  0  0  0  0  0  0  0
   21.9241   -7.6617  -14.8761 N   0  0  0  0  0  0  0  0  0  0  0  0
   22.5423   -5.4476  -14.1016 C   0  0  0  0  0  0  0  0  0  0  0  0
   22.8028   -5.9290  -12.9720 O   0  0  0  0  0  0  0  0  0  0  0  0
   22.8007   -4.1008  -14.2955 O   0  0  0  0  0  0  0  0  0  0  0  0
  2  1  1  6
  2  3  1  0
  3  4  1  0
  4  8  1  0
  5  4  2  0
  6  7  2  0
  6  2  1  0
  9 10  1  0
 10 11  1  0
 11 12  1  0
 13 12  1  6
 13 14  1  0
 14  6  1  0
 15 13  1  0
 15 21  1  0
 16 15  2  0
 18 17  1  6
 18 20  1  0
 19 18  1  0
 20 21  1  1
 20 22  1  0
 22 23  2  0
 22 24  1  0
M  END
$$$$
