DMT.pdb
     RDKit          3D

 24 23  0  0  1  0  0  0  0  0999 V2000
   20.5953  -13.0492  -16.4470 N   0  0  0  0  0  0  0  0  0  0  0  0
   20.0301  -11.7372  -16.4807 C   0  0  1  0  0  0  0  0  0  0  0  0
   18.7678  -11.6601  -15.6662 C   0  0  0  0  0  0  0  0  0  0  0  0
   17.7544  -12.5293  -16.3189 C   0  0  0  0  0  0  0  0  0  0  0  0
   16.8640  -13.1408  -15.6594 O   0  0  0  0  0  0  0  0  0  0  0  0
   21.0341  -10.7344  -15.9983 C   0  0  0  0  0  0  0  0  0  0  0  0
   21.4254  -10.7750  -14.8080 O   0  0  0  0  0  0  0  0  0  0  0  0
   17.7499  -12.7025  -17.6954 O   0  0  0  0  0  0  0  0  0  0  0  0
   27.6089   -7.2689  -17.8496 C   0  0  0  0  0  0  0  0  0  0  0  0
   26.3497   -8.5827  -18.0533 S   0  0  0  0  0  0  0  0  0  0  0  0
   24.9290   -8.1331  -17.0457 C   0  0  0  0  0  0  0  0  0  0  0  0
   23.7693   -9.0421  -17.2113 C   0  0  0  0  0  0  0  0  0  0  0  0
   22.5810   -8.7946  -16.3433 C   0  0  2  0  0  0  0  0  0  0  0  0
   21.5530   -9.7451  -16.8427 N   0  0  0  0  0  0  0  0  0  0  0  0
   22.0492   -7.4270  -16.5081 C   0  0  0  0  0  0  0  0  0  0  0  0
   22.1311   -6.8881  -17.6578 O   0  0  0  0  0  0  0  0  0  0  0  0
   19.0952   -3.6713  -15.5623 C   0  0  0  0  0  0  0  0  0  0  0  0
   19.6192   -5.0509  -15.2394 C   0  0  1  0  0  0  0  0  0  0  0  0
   18.8271   -6.0177  -15.8820 O   0  0  0  0  0  0  0  0  0  0  0  0
   21.0298   -5.2546  -15.7438 C   0  0  2  0  0  0  0  0  0  0  0  0
   21.4489   -6.6454  -15.5111 N   0  0  0  0  0  0  0  0  0  0  0  0
   21.9823   -4.3059  -15.1555 C   0  0  0  0  0  0  0  0  0  0  0  0
   22.5464   -4.4824  -14.0483 O   0  0  0  0  0  0  0  0  0  0  0  0
   22.2867   -3.1457  -15.8481 O   0  0  0  0  0  0  0  0  0  0  0  0
  2  1  1  1
  2  3  1  0
  3  4  1  0
  4  8  1  0
  5  4  2  0
  6  7  2  0
  6  2  1  0
  9 10  1  0
 10 11  1  0
 11 12  1  0
 13 12  1  6
 13 14  1  0
 14  6  1  0
 15 13  1  0
 15 21  1  0
 16 15  2  0
 18 17  1  6
 18 20  1  0
 19 18  1  0
 20 21  1  1
 20 22  1  0
 22 23  2  0
 22 24  1  0
M  END
$$$$
