DMT.pdb
     RDKit          3D

 24 23  0  0  1  0  0  0  0  0999 V2000
   28.7459  -21.7344  -15.8921 N   0  0  0  0  0  0  0  0  0  0  0  0
   27.9473  -20.6977  -15.3182 C   0  0  1  0  0  0  0  0  0  0  0  0
   27.1863  -19.9412  -16.3724 C   0  0  0  0  0  0  0  0  0  0  0  0
   28.1707  -19.1697  -17.1750 C   0  0  0  0  0  0  0  0  0  0  0  0
   28.6346  -18.0579  -16.7875 O   0  0  0  0  0  0  0  0  0  0  0  0
   27.0107  -21.2762  -14.3012 C   0  0  0  0  0  0  0  0  0  0  0  0
   26.4418  -22.3685  -14.5355 O   0  0  0  0  0  0  0  0  0  0  0  0
   28.6218  -19.6499  -18.3960 O   0  0  0  0  0  0  0  0  0  0  0  0
   27.2440  -20.9781   -7.6076 C   0  0  0  0  0  0  0  0  0  0  0  0
   25.7203  -20.1118   -8.1378 S   0  0  0  0  0  0  0  0  0  0  0  0
   25.1861  -20.8534   -9.6870 C   0  0  0  0  0  0  0  0  0  0  0  0
   26.0772  -20.5482  -10.8323 C   0  0  0  0  0  0  0  0  0  0  0  0
   25.7460  -21.1846  -12.1408 C   0  0  2  0  0  0  0  0  0  0  0  0
   26.7489  -20.6293  -13.0871 N   0  0  0  0  0  0  0  0  0  0  0  0
   24.4060  -20.7952  -12.6235 C   0  0  0  0  0  0  0  0  0  0  0  0
   24.1842  -19.5614  -12.8416 O   0  0  0  0  0  0  0  0  0  0  0  0
   22.5344  -21.7374  -15.7194 C   0  0  0  0  0  0  0  0  0  0  0  0
   21.5881  -21.9449  -14.5603 C   0  0  1  0  0  0  0  0  0  0  0  0
   21.5809  -23.3020  -14.1954 O   0  0  0  0  0  0  0  0  0  0  0  0
   22.0194  -21.1774  -13.3312 C   0  0  2  0  0  0  0  0  0  0  0  0
   23.3317  -21.6603  -12.8742 N   0  0  0  0  0  0  0  0  0  0  0  0
   21.0260  -21.2340  -12.2527 C   0  0  0  0  0  0  0  0  0  0  0  0
   21.2501  -21.7398  -11.1261 O   0  0  0  0  0  0  0  0  0  0  0  0
   19.7657  -20.7040  -12.4742 O   0  0  0  0  0  0  0  0  0  0  0  0
  2  1  1  6
  2  3  1  0
  3  4  1  0
  4  8  1  0
  5  4  2  0
  6  7  2  0
  6  2  1  0
  9 10  1  0
 10 11  1  0
 11 12  1  0
 13 12  1  1
 13 14  1  0
 14  6  1  0
 15 13  1  0
 15 21  1  0
 16 15  2  0
 18 17  1  6
 18 20  1  0
 19 18  1  0
 20 21  1  1
 20 22  1  0
 22 23  2  0
 22 24  1  0
M  END
$$$$
