DMT.pdb
     RDKit          3D

 24 23  0  0  1  0  0  0  0  0999 V2000
   17.8837  -10.7122  -16.3818 N   0  0  0  0  0  0  0  0  0  0  0  0
   17.5396   -9.3764  -16.0089 C   0  0  1  0  0  0  0  0  0  0  0  0
   16.0488   -9.1763  -15.9910 C   0  0  0  0  0  0  0  0  0  0  0  0
   15.5800   -9.1419  -17.4008 C   0  0  0  0  0  0  0  0  0  0  0  0
   14.3889   -9.4227  -17.7233 O   0  0  0  0  0  0  0  0  0  0  0  0
   18.1343   -9.0482  -14.6729 C   0  0  0  0  0  0  0  0  0  0  0  0
   18.1069   -9.9040  -13.7571 O   0  0  0  0  0  0  0  0  0  0  0  0
   16.4461   -8.7952  -18.4276 O   0  0  0  0  0  0  0  0  0  0  0  0
   23.5005  -10.4066  -13.6336 C   0  0  0  0  0  0  0  0  0  0  0  0
   22.4926   -9.1470  -12.7670 S   0  0  0  0  0  0  0  0  0  0  0  0
   21.6688   -8.1551  -14.0211 C   0  0  0  0  0  0  0  0  0  0  0  0
   20.7663   -7.1189  -13.4635 C   0  0  0  0  0  0  0  0  0  0  0  0
   19.3813   -7.5437  -13.1057 C   0  0  2  0  0  0  0  0  0  0  0  0
   18.7246   -7.8052  -14.4133 N   0  0  0  0  0  0  0  0  0  0  0  0
   18.6287   -6.4681  -12.4298 C   0  0  0  0  0  0  0  0  0  0  0  0
   18.8047   -5.2729  -12.8294 O   0  0  0  0  0  0  0  0  0  0  0  0
   15.4111   -5.1315  -12.4817 C   0  0  0  0  0  0  0  0  0  0  0  0
   15.6406   -5.4005  -11.0130 C   0  0  1  0  0  0  0  0  0  0  0  0
   15.0835   -6.6441  -10.6695 O   0  0  0  0  0  0  0  0  0  0  0  0
   17.1117   -5.4869  -10.6751 C   0  0  2  0  0  0  0  0  0  0  0  0
   17.7201   -6.6292  -11.3745 N   0  0  0  0  0  0  0  0  0  0  0  0
   17.3559   -5.5559   -9.2298 C   0  0  0  0  0  0  0  0  0  0  0  0
   17.0405   -4.6445   -8.4265 O   0  0  0  0  0  0  0  0  0  0  0  0
   17.9678   -6.6829   -8.7067 O   0  0  0  0  0  0  0  0  0  0  0  0
  2  1  1  1
  2  3  1  0
  3  4  1  0
  4  8  1  0
  5  4  2  0
  6  7  2  0
  6  2  1  0
  9 10  1  0
 10 11  1  0
 11 12  1  0
 13 12  1  6
 13 14  1  0
 14  6  1  0
 15 13  1  0
 15 21  1  0
 16 15  2  0
 18 17  1  6
 18 20  1  0
 19 18  1  0
 20 21  1  6
 20 22  1  0
 22 23  2  0
 22 24  1  0
M  END
$$$$
