DMT.pdb
     RDKit          3D

 24 23  0  0  1  0  0  0  0  0999 V2000
   18.6925  -11.4729  -18.8625 N   0  0  0  0  0  0  0  0  0  0  0  0
   19.2273  -10.1495  -18.9294 C   0  0  1  0  0  0  0  0  0  0  0  0
   18.1465   -9.1298  -19.1639 C   0  0  0  0  0  0  0  0  0  0  0  0
   18.0411   -8.9114  -20.6301 C   0  0  0  0  0  0  0  0  0  0  0  0
   17.7389   -9.8430  -21.4316 O   0  0  0  0  0  0  0  0  0  0  0  0
   19.9850   -9.8392  -17.6741 C   0  0  0  0  0  0  0  0  0  0  0  0
   19.4732  -10.1060  -16.5612 O   0  0  0  0  0  0  0  0  0  0  0  0
   18.2743   -7.6586  -21.1788 O   0  0  0  0  0  0  0  0  0  0  0  0
   26.9738  -10.4403  -14.5702 C   0  0  0  0  0  0  0  0  0  0  0  0
   25.8518  -10.6059  -16.0079 S   0  0  0  0  0  0  0  0  0  0  0  0
   24.3475   -9.6952  -15.6296 C   0  0  0  0  0  0  0  0  0  0  0  0
   23.3152   -9.7825  -16.6906 C   0  0  0  0  0  0  0  0  0  0  0  0
   22.0287   -9.0660  -16.4490 C   0  0  2  0  0  0  0  0  0  0  0  0
   21.2576   -9.2556  -17.7057 N   0  0  0  0  0  0  0  0  0  0  0  0
   22.2291   -7.6158  -16.2570 C   0  0  0  0  0  0  0  0  0  0  0  0
   22.9997   -7.0064  -17.0656 O   0  0  0  0  0  0  0  0  0  0  0  0
   20.1161   -4.7717  -16.7973 C   0  0  0  0  0  0  0  0  0  0  0  0
   20.6218   -4.6098  -15.3831 C   0  0  1  0  0  0  0  0  0  0  0  0
   19.6767   -5.1302  -14.4826 O   0  0  0  0  0  0  0  0  0  0  0  0
   21.9016   -5.3792  -15.1465 C   0  0  2  0  0  0  0  0  0  0  0  0
   21.6456   -6.8236  -15.2584 N   0  0  0  0  0  0  0  0  0  0  0  0
   22.5306   -5.0478  -13.8628 C   0  0  0  0  0  0  0  0  0  0  0  0
   22.6615   -5.8662  -12.9202 O   0  0  0  0  0  0  0  0  0  0  0  0
   23.0119   -3.7644  -13.6641 O   0  0  0  0  0  0  0  0  0  0  0  0
  2  1  1  1
  2  3  1  0
  3  4  1  0
  4  8  1  0
  5  4  2  0
  6  7  2  0
  6  2  1  0
  9 10  1  0
 10 11  1  0
 11 12  1  0
 13 12  1  6
 13 14  1  0
 14  6  1  0
 15 13  1  0
 15 21  1  0
 16 15  2  0
 18 17  1  6
 18 20  1  0
 19 18  1  0
 20 21  1  1
 20 22  1  0
 22 23  2  0
 22 24  1  0
M  END
$$$$
