DMT.pdb
     RDKit          3D

 24 23  0  0  1  0  0  0  0  0999 V2000
   18.7195  -11.7394  -17.4252 N   0  0  0  0  0  0  0  0  0  0  0  0
   18.2478  -11.2909  -16.1531 C   0  0  1  0  0  0  0  0  0  0  0  0
   17.6334  -12.4158  -15.3656 C   0  0  0  0  0  0  0  0  0  0  0  0
   16.3720  -12.8083  -16.0462 C   0  0  0  0  0  0  0  0  0  0  0  0
   16.1557  -12.5534  -17.2668 O   0  0  0  0  0  0  0  0  0  0  0  0
   19.3683  -10.6571  -15.3856 C   0  0  0  0  0  0  0  0  0  0  0  0
   19.2093  -10.3831  -14.1726 O   0  0  0  0  0  0  0  0  0  0  0  0
   15.3726  -13.4783  -15.3554 O   0  0  0  0  0  0  0  0  0  0  0  0
   27.1563  -10.0632  -15.0895 C   0  0  0  0  0  0  0  0  0  0  0  0
   25.6628  -10.7441  -15.9013 S   0  0  0  0  0  0  0  0  0  0  0  0
   24.2334   -9.9168  -15.1886 C   0  0  0  0  0  0  0  0  0  0  0  0
   22.9379  -10.3902  -15.7332 C   0  0  0  0  0  0  0  0  0  0  0  0
   21.6995   -9.7624  -15.1863 C   0  0  2  0  0  0  0  0  0  0  0  0
   20.5976  -10.3587  -15.9862 N   0  0  0  0  0  0  0  0  0  0  0  0
   21.6757   -8.3021  -15.4035 C   0  0  0  0  0  0  0  0  0  0  0  0
   21.9401   -7.8665  -16.5694 O   0  0  0  0  0  0  0  0  0  0  0  0
   19.2440   -5.9710  -15.9431 C   0  0  0  0  0  0  0  0  0  0  0  0
   20.0374   -5.3259  -14.8312 C   0  0  1  0  0  0  0  0  0  0  0  0
   19.4210   -5.5929  -13.5968 O   0  0  0  0  0  0  0  0  0  0  0  0
   21.4387   -5.8854  -14.7355 C   0  0  2  0  0  0  0  0  0  0  0  0
   21.3839   -7.3257  -14.4408 N   0  0  0  0  0  0  0  0  0  0  0  0
   22.2656   -5.1724  -13.7551 C   0  0  0  0  0  0  0  0  0  0  0  0
   22.7619   -5.7147  -12.7378 O   0  0  0  0  0  0  0  0  0  0  0  0
   22.5223   -3.8252  -13.9486 O   0  0  0  0  0  0  0  0  0  0  0  0
  2  1  1  6
  2  3  1  0
  3  4  1  0
  4  8  1  0
  5  4  2  0
  6  7  2  0
  6  2  1  0
  9 10  1  0
 10 11  1  0
 11 12  1  0
 13 12  1  6
 13 14  1  0
 14  6  1  0
 15 13  1  0
 15 21  1  0
 16 15  2  0
 18 17  1  6
 18 20  1  0
 19 18  1  0
 20 21  1  1
 20 22  1  0
 22 23  2  0
 22 24  1  0
M  END
$$$$
