DMT.pdb
     RDKit          3D

 24 23  0  0  1  0  0  0  0  0999 V2000
   22.3401  -12.7751  -18.9522 N   0  0  0  0  0  0  0  0  0  0  0  0
   23.1330  -11.7554  -18.3412 C   0  0  1  0  0  0  0  0  0  0  0  0
   24.2044  -11.2584  -19.2728 C   0  0  0  0  0  0  0  0  0  0  0  0
   25.2776  -12.2854  -19.3170 C   0  0  0  0  0  0  0  0  0  0  0  0
   25.2252  -13.3468  -18.6297 O   0  0  0  0  0  0  0  0  0  0  0  0
   22.2567  -10.6259  -17.8909 C   0  0  0  0  0  0  0  0  0  0  0  0
   21.8331   -9.7989  -18.7325 O   0  0  0  0  0  0  0  0  0  0  0  0
   26.3913  -12.1126  -20.1261 O   0  0  0  0  0  0  0  0  0  0  0  0
   17.3776  -11.6929  -14.5191 C   0  0  0  0  0  0  0  0  0  0  0  0
   17.7763  -10.1704  -13.5830 S   0  0  0  0  0  0  0  0  0  0  0  0
   18.9725   -9.2372  -14.5493 C   0  0  0  0  0  0  0  0  0  0  0  0
   19.9725  -10.0861  -15.2407 C   0  0  0  0  0  0  0  0  0  0  0  0
   20.9339   -9.3999  -16.1526 C   0  0  2  0  0  0  0  0  0  0  0  0
   21.8932  -10.4642  -16.5483 N   0  0  0  0  0  0  0  0  0  0  0  0
   21.6951   -8.3408  -15.4604 C   0  0  0  0  0  0  0  0  0  0  0  0
   22.5971   -8.6945  -14.6355 O   0  0  0  0  0  0  0  0  0  0  0  0
   21.5361   -4.1615  -16.4485 C   0  0  0  0  0  0  0  0  0  0  0  0
   22.7515   -4.8626  -15.8888 C   0  0  1  0  0  0  0  0  0  0  0  0
   23.5218   -3.9501  -15.1479 O   0  0  0  0  0  0  0  0  0  0  0  0
   22.3765   -5.9739  -14.9348 C   0  0  2  0  0  0  0  0  0  0  0  0
   21.5266   -6.9585  -15.6221 N   0  0  0  0  0  0  0  0  0  0  0  0
   21.7338   -5.4763  -13.7130 C   0  0  0  0  0  0  0  0  0  0  0  0
   20.5441   -5.7267  -13.4011 O   0  0  0  0  0  0  0  0  0  0  0  0
   22.4672   -4.6847  -12.8448 O   0  0  0  0  0  0  0  0  0  0  0  0
  2  1  1  6
  2  3  1  0
  3  4  1  0
  4  8  1  0
  5  4  2  0
  6  7  2  0
  6  2  1  0
  9 10  1  0
 10 11  1  0
 11 12  1  0
 13 12  1  1
 13 14  1  0
 14  6  1  0
 15 13  1  0
 15 21  1  0
 16 15  2  0
 18 17  1  1
 18 20  1  0
 19 18  1  0
 20 21  1  6
 20 22  1  0
 22 23  2  0
 22 24  1  0
M  END
$$$$
