DMT.pdb
     RDKit          3D

 24 23  0  0  1  0  0  0  0  0999 V2000
   16.9812  -11.5281  -15.6566 N   0  0  0  0  0  0  0  0  0  0  0  0
   17.6437  -10.7622  -14.6484 C   0  0  1  0  0  0  0  0  0  0  0  0
   18.7702   -9.9494  -15.2254 C   0  0  0  0  0  0  0  0  0  0  0  0
   19.7904  -10.8960  -15.7466 C   0  0  0  0  0  0  0  0  0  0  0  0
   20.3051  -10.7687  -16.8957 O   0  0  0  0  0  0  0  0  0  0  0  0
   16.6579   -9.8781  -13.9463 C   0  0  0  0  0  0  0  0  0  0  0  0
   15.7844   -9.2747  -14.6131 O   0  0  0  0  0  0  0  0  0  0  0  0
   20.2201  -11.9686  -14.9787 O   0  0  0  0  0  0  0  0  0  0  0  0
   11.9468   -9.5998   -7.9265 C   0  0  0  0  0  0  0  0  0  0  0  0
   13.1164  -10.4854   -9.0224 S   0  0  0  0  0  0  0  0  0  0  0  0
   13.9131   -9.2587  -10.0694 C   0  0  0  0  0  0  0  0  0  0  0  0
   14.9689   -9.8194  -10.9468 C   0  0  0  0  0  0  0  0  0  0  0  0
   15.6452   -8.8769  -11.8855 C   0  0  2  0  0  0  0  0  0  0  0  0
   16.6822   -9.7036  -12.5571 N   0  0  0  0  0  0  0  0  0  0  0  0
   16.3330   -7.7822  -11.1722 C   0  0  0  0  0  0  0  0  0  0  0  0
   17.4322   -8.0466  -10.5883 O   0  0  0  0  0  0  0  0  0  0  0  0
   16.8438   -2.9854   -9.8607 C   0  0  0  0  0  0  0  0  0  0  0  0
   16.1488   -4.0602  -10.6630 C   0  0  1  0  0  0  0  0  0  0  0  0
   16.4659   -3.9111  -12.0240 O   0  0  0  0  0  0  0  0  0  0  0  0
   16.6062   -5.4467  -10.2703 C   0  0  2  0  0  0  0  0  0  0  0  0
   15.8942   -6.4546  -11.0712 N   0  0  0  0  0  0  0  0  0  0  0  0
   16.4559   -5.7049   -8.8336 C   0  0  0  0  0  0  0  0  0  0  0  0
   15.3747   -6.0505   -8.2980 O   0  0  0  0  0  0  0  0  0  0  0  0
   17.5594   -5.5639   -8.0085 O   0  0  0  0  0  0  0  0  0  0  0  0
  2  1  1  6
  2  3  1  0
  3  4  1  0
  4  8  1  0
  5  4  2  0
  6  7  2  0
  6  2  1  0
  9 10  1  0
 10 11  1  0
 11 12  1  0
 13 12  1  1
 13 14  1  0
 14  6  1  0
 15 13  1  0
 15 21  1  0
 16 15  2  0
 18 17  1  1
 18 20  1  0
 19 18  1  0
 20 21  1  6
 20 22  1  0
 22 23  2  0
 22 24  1  0
M  END
$$$$
