DMT.pdb
     RDKit          3D

 24 23  0  0  1  0  0  0  0  0999 V2000
   21.2250  -13.6999  -17.2973 N   0  0  0  0  0  0  0  0  0  0  0  0
   20.8194  -12.3299  -17.3209 C   0  0  1  0  0  0  0  0  0  0  0  0
   19.3609  -12.1814  -16.9838 C   0  0  0  0  0  0  0  0  0  0  0  0
   18.5854  -12.9803  -17.9680 C   0  0  0  0  0  0  0  0  0  0  0  0
   18.8816  -13.0084  -19.1981 O   0  0  0  0  0  0  0  0  0  0  0  0
   21.6654  -11.5290  -16.3781 C   0  0  0  0  0  0  0  0  0  0  0  0
   22.2908  -12.1121  -15.4612 O   0  0  0  0  0  0  0  0  0  0  0  0
   17.4928  -13.7345  -17.5653 O   0  0  0  0  0  0  0  0  0  0  0  0
   26.7984  -11.6065  -15.2206 C   0  0  0  0  0  0  0  0  0  0  0  0
   26.8005   -9.8600  -15.7711 S   0  0  0  0  0  0  0  0  0  0  0  0
   25.2069   -9.1509  -15.3315 C   0  0  0  0  0  0  0  0  0  0  0  0
   24.0616   -9.7764  -16.0356 C   0  0  0  0  0  0  0  0  0  0  0  0
   22.6924   -9.3843  -15.5903 C   0  0  2  0  0  0  0  0  0  0  0  0
   21.7802  -10.1378  -16.4902 N   0  0  0  0  0  0  0  0  0  0  0  0
   22.4355   -7.9441  -15.7904 C   0  0  0  0  0  0  0  0  0  0  0  0
   22.7075   -7.4404  -16.9268 O   0  0  0  0  0  0  0  0  0  0  0  0
   19.4488   -6.1061  -16.1912 C   0  0  0  0  0  0  0  0  0  0  0  0
   20.1892   -5.3455  -15.1164 C   0  0  1  0  0  0  0  0  0  0  0  0
   19.7261   -5.7468  -13.8517 O   0  0  0  0  0  0  0  0  0  0  0  0
   21.6730   -5.6346  -15.1363 C   0  0  2  0  0  0  0  0  0  0  0  0
   21.9103   -7.0562  -14.8412 N   0  0  0  0  0  0  0  0  0  0  0  0
   22.4294   -4.7681  -14.2251 C   0  0  0  0  0  0  0  0  0  0  0  0
   23.0146   -5.1835  -13.1953 O   0  0  0  0  0  0  0  0  0  0  0  0
   22.5118   -3.4137  -14.5025 O   0  0  0  0  0  0  0  0  0  0  0  0
  2  1  1  1
  2  3  1  0
  3  4  1  0
  4  8  1  0
  5  4  2  0
  6  7  2  0
  6  2  1  0
  9 10  1  0
 10 11  1  0
 11 12  1  0
 13 12  1  6
 13 14  1  0
 14  6  1  0
 15 13  1  0
 15 21  1  0
 16 15  2  0
 18 17  1  6
 18 20  1  0
 19 18  1  0
 20 21  1  1
 20 22  1  0
 22 23  2  0
 22 24  1  0
M  END
$$$$
