EFW.pdb
     RDKit          3D

 35 37  0  0  1  0  0  0  0  0999 V2000
   26.2193  -22.4701  -17.4013 N   0  0  0  0  0  0  0  0  0  0  0  0
   25.7738  -21.4597  -16.4248 C   0  0  1  0  0  0  0  0  0  0  0  0
   24.2950  -21.5875  -16.3265 C   0  0  0  0  0  0  0  0  0  0  0  0
   23.4974  -20.8670  -17.3524 C   0  0  0  0  0  0  0  0  0  0  0  0
   23.8350  -19.4031  -17.2199 C   0  0  0  0  0  0  0  0  0  0  0  0
   24.5046  -18.7920  -18.0802 O   0  0  0  0  0  0  0  0  0  0  0  0
   26.4093  -21.7032  -15.1101 C   0  0  0  0  0  0  0  0  0  0  0  0
   26.5178  -22.8653  -14.6460 O   0  0  0  0  0  0  0  0  0  0  0  0
   23.3964  -18.6949  -16.1142 O   0  0  0  0  0  0  0  0  0  0  0  0
   26.9306  -20.6633  -14.2927 N   0  0  0  0  0  0  0  0  0  0  0  0
   27.5689  -20.9466  -13.0378 C   0  0  1  0  0  0  0  0  0  0  0  0
   28.7888  -20.1318  -12.8396 C   0  0  0  0  0  0  0  0  0  0  0  0
   29.6026  -20.4317  -11.6697 C   0  0  0  0  0  0  0  0  0  0  0  0
   30.3817  -21.5493  -11.6125 C   0  0  0  0  0  0  0  0  0  0  0  0
   31.1775  -21.8693  -10.5135 C   0  0  0  0  0  0  0  0  0  0  0  0
   31.1800  -21.0085   -9.4192 C   0  0  0  0  0  0  0  0  0  0  0  0
   30.3944  -19.8730   -9.4653 C   0  0  0  0  0  0  0  0  0  0  0  0
   29.6082  -19.5726  -10.5710 C   0  0  0  0  0  0  0  0  0  0  0  0
   26.6352  -20.8398  -11.8842 C   0  0  0  0  0  0  0  0  0  0  0  0
   25.6802  -20.0216  -12.0163 O   0  0  0  0  0  0  0  0  0  0  0  0
   26.7552  -21.5697  -10.7011 N   0  0  0  0  0  0  0  0  0  0  0  0
   25.7344  -21.4499   -9.6554 C   0  0  1  0  0  0  0  0  0  0  0  0
   26.3013  -21.7382   -8.3183 C   0  0  0  0  0  0  0  0  0  0  0  0
   26.9312  -20.5954   -7.6465 C   0  0  0  0  0  0  0  0  0  0  0  0
   26.8759  -19.2679   -8.0875 C   0  0  0  0  0  0  0  0  0  0  0  0
   27.6000  -18.5198   -7.2416 N   0  0  0  0  0  0  0  0  0  0  0  0
   28.1257  -19.2817   -6.2708 C   0  0  0  0  0  0  0  0  0  0  0  0
   28.9130  -18.9943   -5.1785 C   0  0  0  0  0  0  0  0  0  0  0  0
   29.3019  -19.9831   -4.3126 C   0  0  0  0  0  0  0  0  0  0  0  0
   28.8945  -21.2746   -4.5477 C   0  0  0  0  0  0  0  0  0  0  0  0
   28.1142  -21.5748   -5.6272 C   0  0  0  0  0  0  0  0  0  0  0  0
   27.7238  -20.5646   -6.5037 C   0  0  0  0  0  0  0  0  0  0  0  0
   25.0907  -20.1430   -9.7636 C   0  0  0  0  0  0  0  0  0  0  0  0
   23.7947  -19.8423   -9.3740 O   0  0  0  0  0  0  0  0  0  0  0  0
   25.7453  -19.1704  -10.2609 O   0  0  0  0  0  0  0  0  0  0  0  0
  2  1  1  6
  2  3  1  0
  3  4  1  0
  4  5  1  0
  5  6  2  0
  5  9  1  0
  7  8  2  0
  7  2  1  0
 10  7  1  0
 11 10  1  0
 11 12  1  1
 13 18  1  0
 13 12  1  0
 14 13  2  0
 15 16  2  0
 15 14  1  0
 16 17  1  0
 17 18  2  0
 19 21  1  0
 19 11  1  0
 20 19  2  0
 22 33  1  0
 22 21  1  0
 22 23  1  1
 24 32  1  0
 24 23  1  0
 25 24  2  0
 26 25  1  0
 26 27  1  0
 27 28  1  0
 27 32  2  0
 28 29  2  0
 29 30  1  0
 31 30  2  0
 32 31  1  0
 33 34  1  0
 35 33  2  0
M  END
$$$$
