EFW.pdb
     RDKit          3D

 35 37  0  0  1  0  0  0  0  0999 V2000
   28.0412  -22.3757  -13.8513 N   0  0  0  0  0  0  0  0  0  0  0  0
   28.2257  -21.0999  -13.1363 C   0  0  1  0  0  0  0  0  0  0  0  0
   27.3099  -20.1180  -13.7768 C   0  0  0  0  0  0  0  0  0  0  0  0
   27.6059  -19.7574  -15.1875 C   0  0  0  0  0  0  0  0  0  0  0  0
   26.5640  -18.7518  -15.6093 C   0  0  0  0  0  0  0  0  0  0  0  0
   26.5694  -17.5721  -15.1968 O   0  0  0  0  0  0  0  0  0  0  0  0
   27.8971  -21.2646  -11.7022 C   0  0  0  0  0  0  0  0  0  0  0  0
   26.9989  -22.0589  -11.3283 O   0  0  0  0  0  0  0  0  0  0  0  0
   25.5595  -19.1300  -16.4836 O   0  0  0  0  0  0  0  0  0  0  0  0
   28.5577  -20.5507  -10.6652 N   0  0  0  0  0  0  0  0  0  0  0  0
   28.1645  -20.6926   -9.2912 C   0  0  1  0  0  0  0  0  0  0  0  0
   29.2260  -20.2451   -8.3615 C   0  0  0  0  0  0  0  0  0  0  0  0
   28.8527  -20.0714   -6.9646 C   0  0  0  0  0  0  0  0  0  0  0  0
   29.0497  -21.0608   -6.0472 C   0  0  0  0  0  0  0  0  0  0  0  0
   28.7103  -20.9321   -4.7012 C   0  0  0  0  0  0  0  0  0  0  0  0
   28.1427  -19.7368   -4.2684 C   0  0  0  0  0  0  0  0  0  0  0  0
   27.9379  -18.7270   -5.1886 C   0  0  0  0  0  0  0  0  0  0  0  0
   28.2835  -18.8760   -6.5263 C   0  0  0  0  0  0  0  0  0  0  0  0
   26.8589  -20.0412   -8.9998 C   0  0  0  0  0  0  0  0  0  0  0  0
   26.7728  -18.8138   -9.2917 O   0  0  0  0  0  0  0  0  0  0  0  0
   25.7602  -20.6917   -8.4371 N   0  0  0  0  0  0  0  0  0  0  0  0
   24.4218  -20.5020   -9.0053 C   0  0  1  0  0  0  0  0  0  0  0  0
   24.4621  -20.5125  -10.4853 C   0  0  0  0  0  0  0  0  0  0  0  0
   23.1681  -20.3103  -11.1475 C   0  0  0  0  0  0  0  0  0  0  0  0
   22.0646  -19.6591  -10.5834 C   0  0  0  0  0  0  0  0  0  0  0  0
   21.0582  -19.7067  -11.4690 N   0  0  0  0  0  0  0  0  0  0  0  0
   21.4398  -20.3513  -12.5817 C   0  0  0  0  0  0  0  0  0  0  0  0
   20.7943  -20.6432  -13.7622 C   0  0  0  0  0  0  0  0  0  0  0  0
   21.4394  -21.3126  -14.7694 C   0  0  0  0  0  0  0  0  0  0  0  0
   22.7478  -21.6921  -14.5874 C   0  0  0  0  0  0  0  0  0  0  0  0
   23.4009  -21.4101  -13.4219 C   0  0  0  0  0  0  0  0  0  0  0  0
   22.7381  -20.7304  -12.4020 C   0  0  0  0  0  0  0  0  0  0  0  0
   23.5122  -21.4863   -8.4241 C   0  0  0  0  0  0  0  0  0  0  0  0
   23.8850  -22.6009   -7.6889 O   0  0  0  0  0  0  0  0  0  0  0  0
   22.2578  -21.3442   -8.5922 O   0  0  0  0  0  0  0  0  0  0  0  0
  2  1  1  6
  2  3  1  0
  3  4  1  0
  4  5  1  0
  5  6  2  0
  5  9  1  0
  7  8  2  0
  7  2  1  0
 10  7  1  0
 11 10  1  0
 11 12  1  1
 13 18  1  0
 13 12  1  0
 14 13  2  0
 15 16  2  0
 15 14  1  0
 16 17  1  0
 17 18  2  0
 19 21  1  0
 19 11  1  0
 20 19  2  0
 22 33  1  0
 22 21  1  0
 22 23  1  6
 24 32  1  0
 24 23  1  0
 25 24  2  0
 26 25  1  0
 26 27  1  0
 27 28  1  0
 27 32  2  0
 28 29  2  0
 29 30  1  0
 31 30  2  0
 32 31  1  0
 33 34  1  0
 35 33  2  0
M  END
$$$$
