EFW.pdb
     RDKit          3D

 35 37  0  0  1  0  0  0  0  0999 V2000
   22.5806  -15.7884  -18.4063 N   0  0  0  0  0  0  0  0  0  0  0  0
   22.8699  -15.8088  -16.9610 C   0  0  1  0  0  0  0  0  0  0  0  0
   21.6788  -16.4044  -16.2981 C   0  0  0  0  0  0  0  0  0  0  0  0
   20.4046  -15.6499  -16.4215 C   0  0  0  0  0  0  0  0  0  0  0  0
   19.3571  -16.6333  -16.8799 C   0  0  0  0  0  0  0  0  0  0  0  0
   18.4637  -16.3242  -17.6974 O   0  0  0  0  0  0  0  0  0  0  0  0
   24.0791  -16.6196  -16.6923 C   0  0  0  0  0  0  0  0  0  0  0  0
   24.2715  -17.7135  -17.2787 O   0  0  0  0  0  0  0  0  0  0  0  0
   19.3698  -17.9279  -16.3897 O   0  0  0  0  0  0  0  0  0  0  0  0
   25.0887  -16.2300  -15.7702 N   0  0  0  0  0  0  0  0  0  0  0  0
   26.3246  -16.9537  -15.6639 C   0  0  1  0  0  0  0  0  0  0  0  0
   27.5006  -16.0595  -15.7570 C   0  0  0  0  0  0  0  0  0  0  0  0
   27.7709  -15.4538  -17.0536 C   0  0  0  0  0  0  0  0  0  0  0  0
   28.3710  -16.1568  -18.0560 C   0  0  0  0  0  0  0  0  0  0  0  0
   28.6427  -15.6149  -19.3114 C   0  0  0  0  0  0  0  0  0  0  0  0
   28.2852  -14.2921  -19.5578 C   0  0  0  0  0  0  0  0  0  0  0  0
   27.6768  -13.5694  -18.5498 C   0  0  0  0  0  0  0  0  0  0  0  0
   27.4149  -14.1290  -17.3051 C   0  0  0  0  0  0  0  0  0  0  0  0
   26.3783  -17.8194  -14.4550 C   0  0  0  0  0  0  0  0  0  0  0  0
   26.1875  -17.2397  -13.3475 O   0  0  0  0  0  0  0  0  0  0  0  0
   26.6227  -19.1930  -14.4777 N   0  0  0  0  0  0  0  0  0  0  0  0
   26.3373  -20.0112  -13.2949 C   0  0  1  0  0  0  0  0  0  0  0  0
   25.4520  -19.2945  -12.3491 C   0  0  0  0  0  0  0  0  0  0  0  0
   25.1074  -20.0365  -11.1305 C   0  0  0  0  0  0  0  0  0  0  0  0
   25.9863  -20.3113  -10.0760 C   0  0  0  0  0  0  0  0  0  0  0  0
   25.3250  -21.0408   -9.1649 N   0  0  0  0  0  0  0  0  0  0  0  0
   24.0624  -21.2587   -9.5621 C   0  0  0  0  0  0  0  0  0  0  0  0
   23.0017  -21.9219   -8.9873 C   0  0  0  0  0  0  0  0  0  0  0  0
   21.7840  -21.9770   -9.6140 C   0  0  0  0  0  0  0  0  0  0  0  0
   21.6315  -21.3582  -10.8318 C   0  0  0  0  0  0  0  0  0  0  0  0
   22.6745  -20.6972  -11.4145 C   0  0  0  0  0  0  0  0  0  0  0  0
   23.9097  -20.6465  -10.7719 C   0  0  0  0  0  0  0  0  0  0  0  0
   25.8271  -21.3108  -13.7249 C   0  0  0  0  0  0  0  0  0  0  0  0
   24.8026  -21.5194  -14.6352 O   0  0  0  0  0  0  0  0  0  0  0  0
   26.3406  -22.3691  -13.2369 O   0  0  0  0  0  0  0  0  0  0  0  0
  2  1  1  6
  2  3  1  0
  3  4  1  0
  4  5  1  0
  5  6  2  0
  5  9  1  0
  7  8  2  0
  7  2  1  0
 10  7  1  0
 11 10  1  0
 11 12  1  1
 13 18  1  0
 13 12  1  0
 14 13  2  0
 15 16  2  0
 15 14  1  0
 16 17  1  0
 17 18  2  0
 19 21  1  0
 19 11  1  0
 20 19  2  0
 22 33  1  0
 22 21  1  0
 22 23  1  1
 24 32  1  0
 24 23  1  0
 25 24  2  0
 26 25  1  0
 26 27  1  0
 27 28  1  0
 27 32  2  0
 28 29  2  0
 29 30  1  0
 31 30  2  0
 32 31  1  0
 33 34  1  0
 35 33  2  0
M  END
$$$$
