EFW.pdb
     RDKit          3D

 35 37  0  0  1  0  0  0  0  0999 V2000
   28.2810  -23.0550  -17.6173 N   0  0  0  0  0  0  0  0  0  0  0  0
   27.8979  -21.7265  -17.1061 C   0  0  1  0  0  0  0  0  0  0  0  0
   27.0289  -21.1073  -18.1426 C   0  0  0  0  0  0  0  0  0  0  0  0
   27.6959  -20.6849  -19.4014 C   0  0  0  0  0  0  0  0  0  0  0  0
   28.6995  -19.6225  -19.0290 C   0  0  0  0  0  0  0  0  0  0  0  0
   29.9307  -19.8369  -19.0323 O   0  0  0  0  0  0  0  0  0  0  0  0
   27.1695  -21.8618  -15.8244 C   0  0  0  0  0  0  0  0  0  0  0  0
   26.3439  -22.7903  -15.6409 O   0  0  0  0  0  0  0  0  0  0  0  0
   28.2606  -18.3599  -18.6688 O   0  0  0  0  0  0  0  0  0  0  0  0
   27.3451  -20.9698  -14.7312 N   0  0  0  0  0  0  0  0  0  0  0  0
   26.6296  -21.1467  -13.4987 C   0  0  1  0  0  0  0  0  0  0  0  0
   27.3492  -20.5528  -12.3495 C   0  0  0  0  0  0  0  0  0  0  0  0
   26.6668  -20.5651  -11.0629 C   0  0  0  0  0  0  0  0  0  0  0  0
   26.6985  -21.6603  -10.2513 C   0  0  0  0  0  0  0  0  0  0  0  0
   26.0625  -21.7102   -9.0117 C   0  0  0  0  0  0  0  0  0  0  0  0
   25.3601  -20.5892   -8.5775 C   0  0  0  0  0  0  0  0  0  0  0  0
   25.3206  -19.4735   -9.3912 C   0  0  0  0  0  0  0  0  0  0  0  0
   25.9618  -19.4448  -10.6238 C   0  0  0  0  0  0  0  0  0  0  0  0
   25.2226  -20.6698  -13.5806 C   0  0  0  0  0  0  0  0  0  0  0  0
   25.0635  -19.4661  -13.9338 O   0  0  0  0  0  0  0  0  0  0  0  0
   24.1049  -21.4549  -13.2952 N   0  0  0  0  0  0  0  0  0  0  0  0
   22.7567  -20.8976  -13.4424 C   0  0  1  0  0  0  0  0  0  0  0  0
   22.0644  -21.4740  -14.6174 C   0  0  0  0  0  0  0  0  0  0  0  0
   20.6948  -20.9932  -14.8343 C   0  0  0  0  0  0  0  0  0  0  0  0
   20.3456  -19.6899  -15.2078 C   0  0  0  0  0  0  0  0  0  0  0  0
   19.0073  -19.6209  -15.2686 N   0  0  0  0  0  0  0  0  0  0  0  0
   18.4598  -20.8052  -14.9571 C   0  0  0  0  0  0  0  0  0  0  0  0
   17.1572  -21.2460  -14.8921 C   0  0  0  0  0  0  0  0  0  0  0  0
   16.8700  -22.5443  -14.5593 C   0  0  0  0  0  0  0  0  0  0  0  0
   17.9042  -23.4084  -14.2891 C   0  0  0  0  0  0  0  0  0  0  0  0
   19.2010  -22.9855  -14.3489 C   0  0  0  0  0  0  0  0  0  0  0  0
   19.4851  -21.6639  -14.6868 C   0  0  0  0  0  0  0  0  0  0  0  0
   22.0334  -21.0578  -12.1833 C   0  0  0  0  0  0  0  0  0  0  0  0
   21.0466  -20.2119  -11.7012 O   0  0  0  0  0  0  0  0  0  0  0  0
   22.3115  -22.0478  -11.4320 O   0  0  0  0  0  0  0  0  0  0  0  0
  2  1  1  6
  2  3  1  0
  3  4  1  0
  4  5  1  0
  5  6  2  0
  5  9  1  0
  7  8  2  0
  7  2  1  0
 10  7  1  0
 11 10  1  0
 11 12  1  1
 13 18  1  0
 13 12  1  0
 14 13  2  0
 15 16  2  0
 15 14  1  0
 16 17  1  0
 17 18  2  0
 19 21  1  0
 19 11  1  0
 20 19  2  0
 22 33  1  0
 22 21  1  0
 22 23  1  6
 24 32  1  0
 24 23  1  0
 25 24  2  0
 26 25  1  0
 26 27  1  0
 27 28  1  0
 27 32  2  0
 28 29  2  0
 29 30  1  0
 31 30  2  0
 32 31  1  0
 33 34  1  0
 35 33  2  0
M  END
$$$$
