EFW.pdb
     RDKit          3D

 35 37  0  0  1  0  0  0  0  0999 V2000
   27.9707  -22.9891  -17.5775 N   0  0  0  0  0  0  0  0  0  0  0  0
   27.5617  -21.6620  -17.0832 C   0  0  1  0  0  0  0  0  0  0  0  0
   26.5102  -21.1684  -18.0124 C   0  0  0  0  0  0  0  0  0  0  0  0
   26.9605  -20.7670  -19.3704 C   0  0  0  0  0  0  0  0  0  0  0  0
   27.7273  -19.4778  -19.2134 C   0  0  0  0  0  0  0  0  0  0  0  0
   27.1629  -18.3924  -18.9582 O   0  0  0  0  0  0  0  0  0  0  0  0
   27.0336  -21.7697  -15.7043 C   0  0  0  0  0  0  0  0  0  0  0  0
   26.2283  -22.6795  -15.3860 O   0  0  0  0  0  0  0  0  0  0  0  0
   29.1046  -19.4772  -19.3526 O   0  0  0  0  0  0  0  0  0  0  0  0
   27.3894  -20.8707  -14.6619 N   0  0  0  0  0  0  0  0  0  0  0  0
   26.7911  -20.9608  -13.3594 C   0  0  1  0  0  0  0  0  0  0  0  0
   27.7009  -20.4772  -12.2966 C   0  0  0  0  0  0  0  0  0  0  0  0
   27.2119  -20.5419  -10.9263 C   0  0  0  0  0  0  0  0  0  0  0  0
   27.3640  -21.6655  -10.1689 C   0  0  0  0  0  0  0  0  0  0  0  0
   26.9142  -21.7657   -8.8532 C   0  0  0  0  0  0  0  0  0  0  0  0
   26.2785  -20.6672   -8.2808 C   0  0  0  0  0  0  0  0  0  0  0  0
   26.1183  -19.5231   -9.0383 C   0  0  0  0  0  0  0  0  0  0  0  0
   26.5743  -19.4442  -10.3486 C   0  0  0  0  0  0  0  0  0  0  0  0
   25.4594  -20.3003  -13.2948 C   0  0  0  0  0  0  0  0  0  0  0  0
   25.4258  -19.0830  -13.6353 O   0  0  0  0  0  0  0  0  0  0  0  0
   24.2835  -20.9323  -12.8890 N   0  0  0  0  0  0  0  0  0  0  0  0
   23.0592  -20.1509  -12.6880 C   0  0  1  0  0  0  0  0  0  0  0  0
   22.3269  -19.9660  -13.9615 C   0  0  0  0  0  0  0  0  0  0  0  0
   21.7443  -21.1869  -14.5307 C   0  0  0  0  0  0  0  0  0  0  0  0
   21.0113  -22.1418  -13.8159 C   0  0  0  0  0  0  0  0  0  0  0  0
   20.6815  -23.1292  -14.6618 N   0  0  0  0  0  0  0  0  0  0  0  0
   21.1558  -22.8751  -15.8906 C   0  0  0  0  0  0  0  0  0  0  0  0
   21.0739  -23.5555  -17.0846 C   0  0  0  0  0  0  0  0  0  0  0  0
   21.6453  -23.0492  -18.2229 C   0  0  0  0  0  0  0  0  0  0  0  0
   22.3060  -21.8456  -18.1596 C   0  0  0  0  0  0  0  0  0  0  0  0
   22.3959  -21.1597  -16.9824 C   0  0  0  0  0  0  0  0  0  0  0  0
   21.8136  -21.6813  -15.8291 C   0  0  0  0  0  0  0  0  0  0  0  0
   22.2676  -20.7676  -11.6263 C   0  0  0  0  0  0  0  0  0  0  0  0
   21.1443  -20.2179  -11.0283 O   0  0  0  0  0  0  0  0  0  0  0  0
   22.6136  -21.9094  -11.1807 O   0  0  0  0  0  0  0  0  0  0  0  0
  2  1  1  6
  2  3  1  0
  3  4  1  0
  4  5  1  0
  5  6  2  0
  5  9  1  0
  7  8  2  0
  7  2  1  0
 10  7  1  0
 11 10  1  0
 11 12  1  1
 13 18  1  0
 13 12  1  0
 14 13  2  0
 15 16  2  0
 15 14  1  0
 16 17  1  0
 17 18  2  0
 19 21  1  0
 19 11  1  0
 20 19  2  0
 22 33  1  0
 22 21  1  0
 22 23  1  6
 24 32  1  0
 24 23  1  0
 25 24  2  0
 26 25  1  0
 26 27  1  0
 27 28  1  0
 27 32  2  0
 28 29  2  0
 29 30  1  0
 31 30  2  0
 32 31  1  0
 33 34  1  0
 35 33  2  0
M  END
$$$$
