EFW.pdb
     RDKit          3D

 35 37  0  0  1  0  0  0  0  0999 V2000
  -22.1946  -54.9994   -8.5595 N   0  0  0  0  0  0  0  0  0  0  0  0
  -20.7800  -54.9342   -8.1500 C   0  0  1  0  0  0  0  0  0  0  0  0
  -20.6833  -53.8588   -7.1268 C   0  0  0  0  0  0  0  0  0  0  0  0
  -21.5700  -52.6816   -7.3161 C   0  0  0  0  0  0  0  0  0  0  0  0
  -22.9512  -53.0999   -6.8781 C   0  0  0  0  0  0  0  0  0  0  0  0
  -23.2771  -53.1691   -5.6736 O   0  0  0  0  0  0  0  0  0  0  0  0
  -20.3498  -56.2338   -7.5864 C   0  0  0  0  0  0  0  0  0  0  0  0
  -20.7528  -57.3190   -8.0738 O   0  0  0  0  0  0  0  0  0  0  0  0
  -23.9046  -53.4215   -7.8289 O   0  0  0  0  0  0  0  0  0  0  0  0
  -19.4699  -56.3477   -6.4754 N   0  0  0  0  0  0  0  0  0  0  0  0
  -18.8940  -57.6095   -6.1032 C   0  0  1  0  0  0  0  0  0  0  0  0
  -19.7730  -58.7465   -6.4579 C   0  0  0  0  0  0  0  0  0  0  0  0
  -20.3479  -59.5075   -5.3573 C   0  0  0  0  0  0  0  0  0  0  0  0
  -21.6717  -59.4154   -5.0437 C   0  0  0  0  0  0  0  0  0  0  0  0
  -22.2606  -60.1299   -4.0015 C   0  0  0  0  0  0  0  0  0  0  0  0
  -21.4618  -60.9802   -3.2417 C   0  0  0  0  0  0  0  0  0  0  0  0
  -20.1189  -61.0818   -3.5497 C   0  0  0  0  0  0  0  0  0  0  0  0
  -19.5517  -60.3603   -4.5932 C   0  0  0  0  0  0  0  0  0  0  0  0
  -17.5145  -57.7868   -6.6319 C   0  0  0  0  0  0  0  0  0  0  0  0
  -17.2099  -58.9546   -7.0093 O   0  0  0  0  0  0  0  0  0  0  0  0
  -16.5686  -56.7655   -6.7281 N   0  0  0  0  0  0  0  0  0  0  0  0
  -15.5573  -56.5975   -5.6797 C   0  0  1  0  0  0  0  0  0  0  0  0
  -15.2651  -55.1656   -5.4422 C   0  0  0  0  0  0  0  0  0  0  0  0
  -16.3952  -54.3705   -4.9473 C   0  0  0  0  0  0  0  0  0  0  0  0
  -16.7268  -54.1893   -3.5993 C   0  0  0  0  0  0  0  0  0  0  0  0
  -17.8381  -53.4401   -3.5432 N   0  0  0  0  0  0  0  0  0  0  0  0
  -18.2529  -53.1192   -4.7779 C   0  0  0  0  0  0  0  0  0  0  0  0
  -19.3094  -52.3703   -5.2451 C   0  0  0  0  0  0  0  0  0  0  0  0
  -19.4954  -52.1791   -6.5896 C   0  0  0  0  0  0  0  0  0  0  0  0
  -18.6091  -52.7471   -7.4735 C   0  0  0  0  0  0  0  0  0  0  0  0
  -17.5570  -53.4929   -7.0248 C   0  0  0  0  0  0  0  0  0  0  0  0
  -17.3751  -53.6838   -5.6567 C   0  0  0  0  0  0  0  0  0  0  0  0
  -15.9796  -57.3281   -4.4872 C   0  0  0  0  0  0  0  0  0  0  0  0
  -16.8419  -56.8564   -3.5096 O   0  0  0  0  0  0  0  0  0  0  0  0
  -15.5314  -58.5040   -4.2913 O   0  0  0  0  0  0  0  0  0  0  0  0
  2  1  1  1
  2  3  1  0
  3  4  1  0
  4  5  1  0
  5  6  2  0
  5  9  1  0
  7  8  2  0
  7  2  1  0
 10  7  1  0
 11 10  1  0
 11 12  1  6
 13 18  1  0
 13 12  1  0
 14 13  2  0
 15 16  2  0
 15 14  1  0
 16 17  1  0
 17 18  2  0
 19 21  1  0
 19 11  1  0
 20 19  2  0
 22 33  1  0
 22 21  1  0
 22 23  1  1
 24 32  1  0
 24 23  1  0
 25 24  2  0
 26 25  1  0
 26 27  1  0
 27 28  1  0
 27 32  2  0
 28 29  2  0
 29 30  1  0
 31 30  2  0
 32 31  1  0
 33 34  1  0
 35 33  2  0
M  END
$$$$
