EFW.pdb
     RDKit          3D

 35 37  0  0  1  0  0  0  0  0999 V2000
   18.8970  -13.4019  -17.9740 N   0  0  0  0  0  0  0  0  0  0  0  0
   20.0872  -12.6730  -17.4996 C   0  0  1  0  0  0  0  0  0  0  0  0
   21.1405  -12.8619  -18.5329 C   0  0  0  0  0  0  0  0  0  0  0  0
   21.7096  -14.2288  -18.6577 C   0  0  0  0  0  0  0  0  0  0  0  0
   22.5413  -14.4704  -17.4230 C   0  0  0  0  0  0  0  0  0  0  0  0
   23.5454  -13.7787  -17.1488 O   0  0  0  0  0  0  0  0  0  0  0  0
   19.7732  -11.2364  -17.3283 C   0  0  0  0  0  0  0  0  0  0  0  0
   19.3838  -10.5364  -18.2957 O   0  0  0  0  0  0  0  0  0  0  0  0
   22.1956  -15.4886  -16.5510 O   0  0  0  0  0  0  0  0  0  0  0  0
   19.8880  -10.5573  -16.0845 N   0  0  0  0  0  0  0  0  0  0  0  0
   19.4316   -9.2050  -15.9253 C   0  0  1  0  0  0  0  0  0  0  0  0
   18.3593   -9.0973  -14.9105 C   0  0  0  0  0  0  0  0  0  0  0  0
   17.0487   -9.6177  -15.2743 C   0  0  0  0  0  0  0  0  0  0  0  0
   16.1955   -8.9069  -16.0655 C   0  0  0  0  0  0  0  0  0  0  0  0
   14.9354   -9.3716  -16.4395 C   0  0  0  0  0  0  0  0  0  0  0  0
   14.5245  -10.6220  -15.9854 C   0  0  0  0  0  0  0  0  0  0  0  0
   15.3802  -11.3516  -15.1829 C   0  0  0  0  0  0  0  0  0  0  0  0
   16.6325  -10.8696  -14.8218 C   0  0  0  0  0  0  0  0  0  0  0  0
   20.5444   -8.2531  -15.6620 C   0  0  0  0  0  0  0  0  0  0  0  0
   21.3799   -8.6052  -14.7806 O   0  0  0  0  0  0  0  0  0  0  0  0
   20.7082   -7.0302  -16.3137 N   0  0  0  0  0  0  0  0  0  0  0  0
   21.8261   -6.1505  -15.9582 C   0  0  1  0  0  0  0  0  0  0  0  0
   22.2225   -5.2992  -17.1030 C   0  0  0  0  0  0  0  0  0  0  0  0
   23.2519   -4.2954  -16.8088 C   0  0  0  0  0  0  0  0  0  0  0  0
   24.6233   -4.4513  -17.0436 C   0  0  0  0  0  0  0  0  0  0  0  0
   25.2461   -3.3449  -16.6108 N   0  0  0  0  0  0  0  0  0  0  0  0
   24.3608   -2.4724  -16.1067 C   0  0  0  0  0  0  0  0  0  0  0  0
   24.4920   -1.2140  -15.5641 C   0  0  0  0  0  0  0  0  0  0  0  0
   23.3937   -0.5157  -15.1342 C   0  0  0  0  0  0  0  0  0  0  0  0
   22.1501   -1.0893  -15.2515 C   0  0  0  0  0  0  0  0  0  0  0  0
   22.0045   -2.3368  -15.7870 C   0  0  0  0  0  0  0  0  0  0  0  0
   23.1257   -3.0410  -16.2207 C   0  0  0  0  0  0  0  0  0  0  0  0
   21.4824   -5.4059  -14.7492 C   0  0  0  0  0  0  0  0  0  0  0  0
   20.2377   -4.8736  -14.4507 O   0  0  0  0  0  0  0  0  0  0  0  0
   22.3822   -5.2026  -13.8713 O   0  0  0  0  0  0  0  0  0  0  0  0
  2  1  1  6
  2  3  1  0
  3  4  1  0
  4  5  1  0
  5  6  2  0
  5  9  1  0
  7  8  2  0
  7  2  1  0
 10  7  1  0
 11 10  1  0
 11 12  1  1
 13 18  1  0
 13 12  1  0
 14 13  2  0
 15 16  2  0
 15 14  1  0
 16 17  1  0
 17 18  2  0
 19 21  1  0
 19 11  1  0
 20 19  2  0
 22 33  1  0
 22 21  1  0
 22 23  1  6
 24 32  1  0
 24 23  1  0
 25 24  2  0
 26 25  1  0
 26 27  1  0
 27 28  1  0
 27 32  2  0
 28 29  2  0
 29 30  1  0
 31 30  2  0
 32 31  1  0
 33 34  1  0
 35 33  2  0
M  END
$$$$
