EFW.pdb
     RDKit          3D

 35 37  0  0  1  0  0  0  0  0999 V2000
   28.4154  -18.9873  -14.0943 N   0  0  0  0  0  0  0  0  0  0  0  0
   27.6344  -20.0577  -14.7404 C   0  0  1  0  0  0  0  0  0  0  0  0
   28.6181  -20.9895  -15.3543 C   0  0  0  0  0  0  0  0  0  0  0  0
   29.0165  -20.7036  -16.7570 C   0  0  0  0  0  0  0  0  0  0  0  0
   29.6015  -19.3136  -16.7706 C   0  0  0  0  0  0  0  0  0  0  0  0
   28.8868  -18.2889  -16.8024 O   0  0  0  0  0  0  0  0  0  0  0  0
   26.8021  -20.7605  -13.7379 C   0  0  0  0  0  0  0  0  0  0  0  0
   26.3427  -21.9074  -13.9637 O   0  0  0  0  0  0  0  0  0  0  0  0
   30.9756  -19.1472  -16.7468 O   0  0  0  0  0  0  0  0  0  0  0  0
   26.4671  -20.2015  -12.4743 N   0  0  0  0  0  0  0  0  0  0  0  0
   25.4895  -20.8154  -11.6200 C   0  0  1  0  0  0  0  0  0  0  0  0
   25.6153  -20.3605  -10.2169 C   0  0  0  0  0  0  0  0  0  0  0  0
   26.8930  -20.5926   -9.5576 C   0  0  0  0  0  0  0  0  0  0  0  0
   27.8898  -21.2966  -10.1657 C   0  0  0  0  0  0  0  0  0  0  0  0
   29.1274  -21.5365   -9.5705 C   0  0  0  0  0  0  0  0  0  0  0  0
   29.3610  -21.0343   -8.2931 C   0  0  0  0  0  0  0  0  0  0  0  0
   28.3585  -20.3196   -7.6666 C   0  0  0  0  0  0  0  0  0  0  0  0
   27.1316  -20.0918   -8.2780 C   0  0  0  0  0  0  0  0  0  0  0  0
   24.1019  -20.6583  -12.1334 C   0  0  0  0  0  0  0  0  0  0  0  0
   23.6792  -19.4711  -12.2380 O   0  0  0  0  0  0  0  0  0  0  0  0
   23.2680  -21.7180  -12.4919 N   0  0  0  0  0  0  0  0  0  0  0  0
   21.9801  -21.4543  -13.1413 C   0  0  1  0  0  0  0  0  0  0  0  0
   21.6888  -22.4652  -14.1832 C   0  0  0  0  0  0  0  0  0  0  0  0
   20.4129  -22.2885  -14.8865 C   0  0  0  0  0  0  0  0  0  0  0  0
   20.1262  -21.2627  -15.7951 C   0  0  0  0  0  0  0  0  0  0  0  0
   18.8544  -21.4080  -16.1962 N   0  0  0  0  0  0  0  0  0  0  0  0
   18.2917  -22.4713  -15.6028 C   0  0  0  0  0  0  0  0  0  0  0  0
   17.0406  -23.0390  -15.6909 C   0  0  0  0  0  0  0  0  0  0  0  0
   16.7269  -24.1638  -14.9731 C   0  0  0  0  0  0  0  0  0  0  0  0
   17.6818  -24.7235  -14.1582 C   0  0  0  0  0  0  0  0  0  0  0  0
   18.9267  -24.1712  -14.0601 C   0  0  0  0  0  0  0  0  0  0  0  0
   19.2379  -23.0271  -14.7919 C   0  0  0  0  0  0  0  0  0  0  0  0
   20.9447  -21.3341  -12.1177 C   0  0  0  0  0  0  0  0  0  0  0  0
   19.7681  -20.6105  -12.2350 O   0  0  0  0  0  0  0  0  0  0  0  0
   21.1053  -21.9282  -11.0028 O   0  0  0  0  0  0  0  0  0  0  0  0
  2  1  1  1
  2  3  1  0
  3  4  1  0
  4  5  1  0
  5  6  2  0
  5  9  1  0
  7  8  2  0
  7  2  1  0
 10  7  1  0
 11 10  1  0
 11 12  1  1
 13 18  1  0
 13 12  1  0
 14 13  2  0
 15 16  2  0
 15 14  1  0
 16 17  1  0
 17 18  2  0
 19 21  1  0
 19 11  1  0
 20 19  2  0
 22 33  1  0
 22 21  1  0
 22 23  1  6
 24 32  1  0
 24 23  1  0
 25 24  2  0
 26 25  1  0
 26 27  1  0
 27 28  1  0
 27 32  2  0
 28 29  2  0
 29 30  1  0
 31 30  2  0
 32 31  1  0
 33 34  1  0
 35 33  2  0
M  END
$$$$
