EFW.pdb
     RDKit          3D

 35 37  0  0  1  0  0  0  0  0999 V2000
   29.2102  -21.3687  -14.4752 N   0  0  0  0  0  0  0  0  0  0  0  0
   28.1874  -20.3707  -14.1136 C   0  0  1  0  0  0  0  0  0  0  0  0
   27.5404  -19.9465  -15.3842 C   0  0  0  0  0  0  0  0  0  0  0  0
   28.3833  -19.1715  -16.3312 C   0  0  0  0  0  0  0  0  0  0  0  0
   28.2181  -17.7159  -15.9728 C   0  0  0  0  0  0  0  0  0  0  0  0
   27.0948  -17.1838  -15.8428 O   0  0  0  0  0  0  0  0  0  0  0  0
   27.1931  -20.9671  -13.1931 C   0  0  0  0  0  0  0  0  0  0  0  0
   26.8170  -22.1581  -13.3257 O   0  0  0  0  0  0  0  0  0  0  0  0
   29.3380  -16.9260  -15.7766 O   0  0  0  0  0  0  0  0  0  0  0  0
   26.6020  -20.2517  -12.1159 N   0  0  0  0  0  0  0  0  0  0  0  0
   25.4865  -20.7855  -11.3858 C   0  0  1  0  0  0  0  0  0  0  0  0
   25.4586  -20.3048   -9.9860 C   0  0  0  0  0  0  0  0  0  0  0  0
   26.6887  -20.4338   -9.2170 C   0  0  0  0  0  0  0  0  0  0  0  0
   27.5161  -21.5062   -9.3730 C   0  0  0  0  0  0  0  0  0  0  0  0
   28.7035  -21.6642   -8.6597 C   0  0  0  0  0  0  0  0  0  0  0  0
   29.0658  -20.6812   -7.7427 C   0  0  0  0  0  0  0  0  0  0  0  0
   28.2354  -19.5898   -7.5757 C   0  0  0  0  0  0  0  0  0  0  0  0
   27.0557  -19.4518   -8.2971 C   0  0  0  0  0  0  0  0  0  0  0  0
   24.1889  -20.5590  -12.0777 C   0  0  0  0  0  0  0  0  0  0  0  0
   24.1611  -19.6061  -12.9085 O   0  0  0  0  0  0  0  0  0  0  0  0
   23.0370  -21.3168  -11.8634 N   0  0  0  0  0  0  0  0  0  0  0  0
   21.9037  -21.2111  -12.7877 C   0  0  1  0  0  0  0  0  0  0  0  0
   22.3055  -21.5594  -14.1695 C   0  0  0  0  0  0  0  0  0  0  0  0
   22.7947  -22.9311  -14.3515 C   0  0  0  0  0  0  0  0  0  0  0  0
   22.1398  -24.0876  -13.9116 C   0  0  0  0  0  0  0  0  0  0  0  0
   22.9084  -25.1423  -14.2220 N   0  0  0  0  0  0  0  0  0  0  0  0
   24.0292  -24.7427  -14.8412 C   0  0  0  0  0  0  0  0  0  0  0  0
   25.1051  -25.4257  -15.3621 C   0  0  0  0  0  0  0  0  0  0  0  0
   26.1323  -24.7569  -15.9756 C   0  0  0  0  0  0  0  0  0  0  0  0
   26.0766  -23.3865  -16.0662 C   0  0  0  0  0  0  0  0  0  0  0  0
   25.0163  -22.6955  -15.5537 C   0  0  0  0  0  0  0  0  0  0  0  0
   23.9765  -23.3822  -14.9304 C   0  0  0  0  0  0  0  0  0  0  0  0
   20.7900  -22.0025  -12.2706 C   0  0  0  0  0  0  0  0  0  0  0  0
   20.8976  -23.1197  -11.4569 O   0  0  0  0  0  0  0  0  0  0  0  0
   19.5997  -21.6704  -12.5784 O   0  0  0  0  0  0  0  0  0  0  0  0
  2  1  1  6
  2  3  1  0
  3  4  1  0
  4  5  1  0
  5  6  2  0
  5  9  1  0
  7  8  2  0
  7  2  1  0
 10  7  1  0
 11 10  1  0
 11 12  1  1
 13 18  1  0
 13 12  1  0
 14 13  2  0
 15 16  2  0
 15 14  1  0
 16 17  1  0
 17 18  2  0
 19 21  1  0
 19 11  1  0
 20 19  2  0
 22 33  1  0
 22 21  1  0
 22 23  1  6
 24 32  1  0
 24 23  1  0
 25 24  2  0
 26 25  1  0
 26 27  1  0
 27 28  1  0
 27 32  2  0
 28 29  2  0
 29 30  1  0
 31 30  2  0
 32 31  1  0
 33 34  1  0
 35 33  2  0
M  END
$$$$
