EFW.pdb
     RDKit          3D

 35 37  0  0  1  0  0  0  0  0999 V2000
   28.5196  -22.6298  -16.4265 N   0  0  0  0  0  0  0  0  0  0  0  0
   28.0354  -21.3494  -15.8798 C   0  0  1  0  0  0  0  0  0  0  0  0
   27.0871  -20.7918  -16.8812 C   0  0  0  0  0  0  0  0  0  0  0  0
   27.6851  -20.2296  -18.1198 C   0  0  0  0  0  0  0  0  0  0  0  0
   27.2985  -18.7726  -18.1695 C   0  0  0  0  0  0  0  0  0  0  0  0
   28.1084  -17.8578  -17.9067 O   0  0  0  0  0  0  0  0  0  0  0  0
   27.3574  -21.5702  -14.5825 C   0  0  0  0  0  0  0  0  0  0  0  0
   26.6760  -22.6043  -14.3731 O   0  0  0  0  0  0  0  0  0  0  0  0
   26.0065  -18.4169  -18.5166 O   0  0  0  0  0  0  0  0  0  0  0  0
   27.4243  -20.6484  -13.5022 N   0  0  0  0  0  0  0  0  0  0  0  0
   26.6557  -20.8420  -12.3045 C   0  0  1  0  0  0  0  0  0  0  0  0
   27.4035  -20.4346  -11.0937 C   0  0  0  0  0  0  0  0  0  0  0  0
   28.6939  -21.0704  -10.8672 C   0  0  0  0  0  0  0  0  0  0  0  0
   28.8299  -22.1160  -10.0026 C   0  0  0  0  0  0  0  0  0  0  0  0
   30.0458  -22.7539   -9.7617 C   0  0  0  0  0  0  0  0  0  0  0  0
   31.1788  -22.3049  -10.4349 C   0  0  0  0  0  0  0  0  0  0  0  0
   31.0537  -21.2461  -11.3134 C   0  0  0  0  0  0  0  0  0  0  0  0
   29.8317  -20.6240  -11.5390 C   0  0  0  0  0  0  0  0  0  0  0  0
   25.3162  -20.1980  -12.3741 C   0  0  0  0  0  0  0  0  0  0  0  0
   25.3057  -18.9676  -12.6658 O   0  0  0  0  0  0  0  0  0  0  0  0
   24.1095  -20.8582  -12.1397 N   0  0  0  0  0  0  0  0  0  0  0  0
   22.8797  -20.3981  -12.7921 C   0  0  1  0  0  0  0  0  0  0  0  0
   22.9906  -20.4854  -14.2660 C   0  0  0  0  0  0  0  0  0  0  0  0
   21.7978  -20.0620  -15.0090 C   0  0  0  0  0  0  0  0  0  0  0  0
   21.3434  -18.7428  -15.1241 C   0  0  0  0  0  0  0  0  0  0  0  0
   20.2092  -18.7563  -15.8404 N   0  0  0  0  0  0  0  0  0  0  0  0
   19.8952  -20.0093  -16.2020 C   0  0  0  0  0  0  0  0  0  0  0  0
   18.8617  -20.5388  -16.9415 C   0  0  0  0  0  0  0  0  0  0  0  0
   18.7891  -21.8858  -17.1844 C   0  0  0  0  0  0  0  0  0  0  0  0
   19.7666  -22.7090  -16.6782 C   0  0  0  0  0  0  0  0  0  0  0  0
   20.7972  -22.1983  -15.9424 C   0  0  0  0  0  0  0  0  0  0  0  0
   20.8637  -20.8282  -15.6987 C   0  0  0  0  0  0  0  0  0  0  0  0
   21.7419  -21.1243  -12.2333 C   0  0  0  0  0  0  0  0  0  0  0  0
   20.4602  -20.6223  -12.0697 O   0  0  0  0  0  0  0  0  0  0  0  0
   21.9056  -22.3262  -11.8453 O   0  0  0  0  0  0  0  0  0  0  0  0
  2  1  1  6
  2  3  1  0
  3  4  1  0
  4  5  1  0
  5  6  2  0
  5  9  1  0
  7  8  2  0
  7  2  1  0
 10  7  1  0
 11 10  1  0
 11 12  1  1
 13 18  1  0
 13 12  1  0
 14 13  2  0
 15 16  2  0
 15 14  1  0
 16 17  1  0
 17 18  2  0
 19 21  1  0
 19 11  1  0
 20 19  2  0
 22 33  1  0
 22 21  1  0
 22 23  1  6
 24 32  1  0
 24 23  1  0
 25 24  2  0
 26 25  1  0
 26 27  1  0
 27 28  1  0
 27 32  2  0
 28 29  2  0
 29 30  1  0
 31 30  2  0
 32 31  1  0
 33 34  1  0
 35 33  2  0
M  END
$$$$
