EFW.pdb
     RDKit          3D

 35 37  0  0  1  0  0  0  0  0999 V2000
   28.3323  -20.5040  -19.3104 N   0  0  0  0  0  0  0  0  0  0  0  0
   29.0312  -20.7979  -18.0462 C   0  0  1  0  0  0  0  0  0  0  0  0
   30.3686  -20.1535  -18.1408 C   0  0  0  0  0  0  0  0  0  0  0  0
   31.1210  -20.3692  -19.4038 C   0  0  0  0  0  0  0  0  0  0  0  0
   31.0511  -21.8448  -19.7076 C   0  0  0  0  0  0  0  0  0  0  0  0
   31.3302  -22.7156  -18.8556 O   0  0  0  0  0  0  0  0  0  0  0  0
   28.2674  -20.2539  -16.9006 C   0  0  0  0  0  0  0  0  0  0  0  0
   28.8159  -19.5147  -16.0461 O   0  0  0  0  0  0  0  0  0  0  0  0
   30.6659  -22.2686  -20.9680 O   0  0  0  0  0  0  0  0  0  0  0  0
   26.8879  -20.5232  -16.6863 N   0  0  0  0  0  0  0  0  0  0  0  0
   26.1562  -19.8839  -15.6287 C   0  0  1  0  0  0  0  0  0  0  0  0
   25.3469  -18.7472  -16.1227 C   0  0  0  0  0  0  0  0  0  0  0  0
   26.0619  -17.5271  -16.4709 C   0  0  0  0  0  0  0  0  0  0  0  0
   26.4818  -16.6510  -15.5142 C   0  0  0  0  0  0  0  0  0  0  0  0
   27.1723  -15.4756  -15.8060 C   0  0  0  0  0  0  0  0  0  0  0  0
   27.4490  -15.1784  -17.1377 C   0  0  0  0  0  0  0  0  0  0  0  0
   27.0285  -16.0584  -18.1161 C   0  0  0  0  0  0  0  0  0  0  0  0
   26.3412  -17.2250  -17.8035 C   0  0  0  0  0  0  0  0  0  0  0  0
   25.3416  -20.8437  -14.8356 C   0  0  0  0  0  0  0  0  0  0  0  0
   24.9233  -21.8629  -15.4561 O   0  0  0  0  0  0  0  0  0  0  0  0
   25.0228  -20.6824  -13.4867 N   0  0  0  0  0  0  0  0  0  0  0  0
   24.2426  -21.7078  -12.7869 C   0  0  1  0  0  0  0  0  0  0  0  0
   24.0328  -21.3447  -11.3669 C   0  0  0  0  0  0  0  0  0  0  0  0
   22.7230  -20.7589  -11.0582 C   0  0  0  0  0  0  0  0  0  0  0  0
   21.9231  -21.1009   -9.9613 C   0  0  0  0  0  0  0  0  0  0  0  0
   20.7892  -20.3881  -10.0372 N   0  0  0  0  0  0  0  0  0  0  0  0
   20.8012  -19.5977  -11.1209 C   0  0  0  0  0  0  0  0  0  0  0  0
   19.9017  -18.6846  -11.6233 C   0  0  0  0  0  0  0  0  0  0  0  0
   20.1789  -17.9802  -12.7660 C   0  0  0  0  0  0  0  0  0  0  0  0
   21.3738  -18.1964  -13.4101 C   0  0  0  0  0  0  0  0  0  0  0  0
   22.2754  -19.0991  -12.9240 C   0  0  0  0  0  0  0  0  0  0  0  0
   21.9861  -19.8124  -11.7626 C   0  0  0  0  0  0  0  0  0  0  0  0
   23.0096  -21.9591  -13.5290 C   0  0  0  0  0  0  0  0  0  0  0  0
   22.4922  -21.1604  -14.5369 O   0  0  0  0  0  0  0  0  0  0  0  0
   22.3184  -22.9913  -13.2484 O   0  0  0  0  0  0  0  0  0  0  0  0
  2  1  1  6
  2  3  1  0
  3  4  1  0
  4  5  1  0
  5  6  2  0
  5  9  1  0
  7  8  2  0
  7  2  1  0
 10  7  1  0
 11 10  1  0
 11 12  1  6
 13 18  1  0
 13 12  1  0
 14 13  2  0
 15 16  2  0
 15 14  1  0
 16 17  1  0
 17 18  2  0
 19 21  1  0
 19 11  1  0
 20 19  2  0
 22 33  1  0
 22 21  1  0
 22 23  1  1
 24 32  1  0
 24 23  1  0
 25 24  2  0
 26 25  1  0
 26 27  1  0
 27 28  1  0
 27 32  2  0
 28 29  2  0
 29 30  1  0
 31 30  2  0
 32 31  1  0
 33 34  1  0
 35 33  2  0
M  END
$$$$
