EFW.pdb
     RDKit          3D

 35 37  0  0  1  0  0  0  0  0999 V2000
   27.1563  -18.8041  -15.6711 N   0  0  0  0  0  0  0  0  0  0  0  0
   27.2491  -19.8766  -14.6640 C   0  0  1  0  0  0  0  0  0  0  0  0
   28.6518  -19.8734  -14.1686 C   0  0  0  0  0  0  0  0  0  0  0  0
   29.7009  -20.2656  -15.1450 C   0  0  0  0  0  0  0  0  0  0  0  0
   29.2640  -21.5744  -15.7539 C   0  0  0  0  0  0  0  0  0  0  0  0
   28.7547  -22.4903  -15.0730 O   0  0  0  0  0  0  0  0  0  0  0  0
   26.3015  -19.6214  -13.5556 C   0  0  0  0  0  0  0  0  0  0  0  0
   26.1798  -18.4758  -13.0554 O   0  0  0  0  0  0  0  0  0  0  0  0
   29.4240  -21.7866  -17.1125 O   0  0  0  0  0  0  0  0  0  0  0  0
   25.4786  -20.6317  -12.9867 N   0  0  0  0  0  0  0  0  0  0  0  0
   24.4370  -20.3099  -12.0519 C   0  0  1  0  0  0  0  0  0  0  0  0
   23.0928  -20.6107  -12.5941 C   0  0  0  0  0  0  0  0  0  0  0  0
   22.6332  -19.7992  -13.7127 C   0  0  0  0  0  0  0  0  0  0  0  0
   21.9878  -18.6146  -13.5144 C   0  0  0  0  0  0  0  0  0  0  0  0
   21.5366  -17.8073  -14.5575 C   0  0  0  0  0  0  0  0  0  0  0  0
   21.7538  -18.2273  -15.8671 C   0  0  0  0  0  0  0  0  0  0  0  0
   22.4065  -19.4260  -16.0807 C   0  0  0  0  0  0  0  0  0  0  0  0
   22.8483  -20.2158  -15.0262 C   0  0  0  0  0  0  0  0  0  0  0  0
   24.6517  -20.9349  -10.7188 C   0  0  0  0  0  0  0  0  0  0  0  0
   24.8508  -22.1836  -10.7161 O   0  0  0  0  0  0  0  0  0  0  0  0
   24.6429  -20.2385   -9.5097 N   0  0  0  0  0  0  0  0  0  0  0  0
   24.7710  -20.9634   -8.2416 C   0  0  1  0  0  0  0  0  0  0  0  0
   25.4346  -20.1301   -7.2132 C   0  0  0  0  0  0  0  0  0  0  0  0
   26.9017  -20.1685   -7.2285 C   0  0  0  0  0  0  0  0  0  0  0  0
   27.6845  -20.7462   -8.2352 C   0  0  0  0  0  0  0  0  0  0  0  0
   28.9724  -20.6223   -7.8809 N   0  0  0  0  0  0  0  0  0  0  0  0
   29.0779  -19.9953   -6.6998 C   0  0  0  0  0  0  0  0  0  0  0  0
   30.1577  -19.6209   -5.9321 C   0  0  0  0  0  0  0  0  0  0  0  0
   29.9807  -18.9568   -4.7462 C   0  0  0  0  0  0  0  0  0  0  0  0
   28.7041  -18.6659   -4.3282 C   0  0  0  0  0  0  0  0  0  0  0  0
   27.6235  -19.0313   -5.0786 C   0  0  0  0  0  0  0  0  0  0  0  0
   27.8112  -19.7073   -6.2824 C   0  0  0  0  0  0  0  0  0  0  0  0
   23.4592  -21.4703   -7.8464 C   0  0  0  0  0  0  0  0  0  0  0  0
   23.2220  -22.4631   -6.9084 O   0  0  0  0  0  0  0  0  0  0  0  0
   22.4176  -20.9851   -8.3955 O   0  0  0  0  0  0  0  0  0  0  0  0
  2  1  1  6
  2  3  1  0
  3  4  1  0
  4  5  1  0
  5  6  2  0
  5  9  1  0
  7  8  2  0
  7  2  1  0
 10  7  1  0
 11 10  1  0
 11 12  1  6
 13 18  1  0
 13 12  1  0
 14 13  2  0
 15 16  2  0
 15 14  1  0
 16 17  1  0
 17 18  2  0
 19 21  1  0
 19 11  1  0
 20 19  2  0
 22 33  1  0
 22 21  1  0
 22 23  1  1
 24 32  1  0
 24 23  1  0
 25 24  2  0
 26 25  1  0
 26 27  1  0
 27 28  1  0
 27 32  2  0
 28 29  2  0
 29 30  1  0
 31 30  2  0
 32 31  1  0
 33 34  1  0
 35 33  2  0
M  END
$$$$
