EFW.pdb
     RDKit          3D

 35 37  0  0  1  0  0  0  0  0999 V2000
   21.4413  -23.1510  -16.5326 N   0  0  0  0  0  0  0  0  0  0  0  0
   21.5445  -22.1654  -15.4413 C   0  0  1  0  0  0  0  0  0  0  0  0
   20.5046  -22.5287  -14.4415 C   0  0  0  0  0  0  0  0  0  0  0  0
   19.1023  -22.1780  -14.7857 C   0  0  0  0  0  0  0  0  0  0  0  0
   19.0931  -20.7125  -15.1417 C   0  0  0  0  0  0  0  0  0  0  0  0
   19.9789  -19.9242  -14.7470 O   0  0  0  0  0  0  0  0  0  0  0  0
   22.8940  -22.2130  -14.8344 C   0  0  0  0  0  0  0  0  0  0  0  0
   23.2885  -23.2262  -14.2057 O   0  0  0  0  0  0  0  0  0  0  0  0
   18.0766  -20.2047  -15.9324 O   0  0  0  0  0  0  0  0  0  0  0  0
   23.8221  -21.1390  -14.9148 N   0  0  0  0  0  0  0  0  0  0  0  0
   25.0545  -21.1582  -14.1777 C   0  0  1  0  0  0  0  0  0  0  0  0
   26.0585  -20.2341  -14.7517 C   0  0  0  0  0  0  0  0  0  0  0  0
   27.3356  -20.1309  -14.0593 C   0  0  0  0  0  0  0  0  0  0  0  0
   28.2010  -21.1830  -14.0023 C   0  0  0  0  0  0  0  0  0  0  0  0
   29.4336  -21.1229  -13.3537 C   0  0  0  0  0  0  0  0  0  0  0  0
   29.8028  -19.9326  -12.7331 C   0  0  0  0  0  0  0  0  0  0  0  0
   28.9341  -18.8596  -12.7838 C   0  0  0  0  0  0  0  0  0  0  0  0
   27.7097  -18.9407  -13.4359 C   0  0  0  0  0  0  0  0  0  0  0  0
   24.8537  -20.9268  -12.7217 C   0  0  0  0  0  0  0  0  0  0  0  0
   24.0366  -20.0130  -12.4118 O   0  0  0  0  0  0  0  0  0  0  0  0
   25.5007  -21.6406  -11.7123 N   0  0  0  0  0  0  0  0  0  0  0  0
   25.3586  -21.2287  -10.3122 C   0  0  1  0  0  0  0  0  0  0  0  0
   26.4067  -21.8416   -9.4648 C   0  0  0  0  0  0  0  0  0  0  0  0
   26.6140  -21.1972   -8.1626 C   0  0  0  0  0  0  0  0  0  0  0  0
   25.5981  -20.7150   -7.3287 C   0  0  0  0  0  0  0  0  0  0  0  0
   26.1745  -20.1601   -6.2520 N   0  0  0  0  0  0  0  0  0  0  0  0
   27.5103  -20.2522   -6.3325 C   0  0  0  0  0  0  0  0  0  0  0  0
   28.5278  -19.8586   -5.4928 C   0  0  0  0  0  0  0  0  0  0  0  0
   29.8381  -20.0993   -5.8152 C   0  0  0  0  0  0  0  0  0  0  0  0
   30.1280  -20.7429   -6.9946 C   0  0  0  0  0  0  0  0  0  0  0  0
   29.1294  -21.1385   -7.8377 C   0  0  0  0  0  0  0  0  0  0  0  0
   27.7999  -20.8893   -7.5038 C   0  0  0  0  0  0  0  0  0  0  0  0
   25.3121  -19.7701  -10.2458 C   0  0  0  0  0  0  0  0  0  0  0  0
   24.4290  -19.0205   -9.4843 O   0  0  0  0  0  0  0  0  0  0  0  0
   26.1371  -19.0928  -10.9404 O   0  0  0  0  0  0  0  0  0  0  0  0
  2  1  1  6
  2  3  1  0
  3  4  1  0
  4  5  1  0
  5  6  2  0
  5  9  1  0
  7  8  2  0
  7  2  1  0
 10  7  1  0
 11 10  1  0
 11 12  1  6
 13 18  1  0
 13 12  1  0
 14 13  2  0
 15 16  2  0
 15 14  1  0
 16 17  1  0
 17 18  2  0
 19 21  1  0
 19 11  1  0
 20 19  2  0
 22 33  1  0
 22 21  1  0
 22 23  1  1
 24 32  1  0
 24 23  1  0
 25 24  2  0
 26 25  1  0
 26 27  1  0
 27 28  1  0
 27 32  2  0
 28 29  2  0
 29 30  1  0
 31 30  2  0
 32 31  1  0
 33 34  1  0
 35 33  2  0
M  END
$$$$
