EFW.pdb
     RDKit          3D

 35 37  0  0  1  0  0  0  0  0999 V2000
   27.5603  -21.8552  -13.9071 N   0  0  0  0  0  0  0  0  0  0  0  0
   27.6499  -20.6382  -13.0802 C   0  0  1  0  0  0  0  0  0  0  0  0
   26.6737  -19.6683  -13.6452 C   0  0  0  0  0  0  0  0  0  0  0  0
   27.1966  -18.7144  -14.6573 C   0  0  0  0  0  0  0  0  0  0  0  0
   27.5741  -19.5274  -15.8702 C   0  0  0  0  0  0  0  0  0  0  0  0
   28.7631  -19.7802  -16.1606 O   0  0  0  0  0  0  0  0  0  0  0  0
   27.3214  -20.9514  -11.6711 C   0  0  0  0  0  0  0  0  0  0  0  0
   26.4133  -21.7694  -11.3818 O   0  0  0  0  0  0  0  0  0  0  0  0
   26.5831  -20.0196  -16.7021 O   0  0  0  0  0  0  0  0  0  0  0  0
   27.9931  -20.3617  -10.5654 N   0  0  0  0  0  0  0  0  0  0  0  0
   27.6296  -20.6794   -9.2129 C   0  0  1  0  0  0  0  0  0  0  0  0
   28.6371  -20.1993   -8.2404 C   0  0  0  0  0  0  0  0  0  0  0  0
   28.2700  -20.2405   -6.8317 C   0  0  0  0  0  0  0  0  0  0  0  0
   27.6466  -19.1889   -6.2278 C   0  0  0  0  0  0  0  0  0  0  0  0
   27.2753  -19.1911   -4.8841 C   0  0  0  0  0  0  0  0  0  0  0  0
   27.5523  -20.3202   -4.1180 C   0  0  0  0  0  0  0  0  0  0  0  0
   28.1839  -21.3920   -4.7186 C   0  0  0  0  0  0  0  0  0  0  0  0
   28.5457  -21.3692   -6.0602 C   0  0  0  0  0  0  0  0  0  0  0  0
   26.2580  -20.2186   -8.8660 C   0  0  0  0  0  0  0  0  0  0  0  0
   25.9988  -19.0067   -9.1172 O   0  0  0  0  0  0  0  0  0  0  0  0
   25.2746  -21.0268   -8.2943 N   0  0  0  0  0  0  0  0  0  0  0  0
   23.8585  -20.6726   -8.4325 C   0  0  1  0  0  0  0  0  0  0  0  0
   23.3651  -20.9619   -9.7981 C   0  0  0  0  0  0  0  0  0  0  0  0
   21.9588  -20.6191  -10.0405 C   0  0  0  0  0  0  0  0  0  0  0  0
   21.4770  -19.3354  -10.3233 C   0  0  0  0  0  0  0  0  0  0  0  0
   20.1429  -19.4104  -10.4421 N   0  0  0  0  0  0  0  0  0  0  0  0
   19.7233  -20.6705  -10.2544 C   0  0  0  0  0  0  0  0  0  0  0  0
   18.4782  -21.2571  -10.2878 C   0  0  0  0  0  0  0  0  0  0  0  0
   18.3293  -22.6031  -10.0756 C   0  0  0  0  0  0  0  0  0  0  0  0
   19.4445  -23.3671   -9.8273 C   0  0  0  0  0  0  0  0  0  0  0  0
   20.6857  -22.7993   -9.7905 C   0  0  0  0  0  0  0  0  0  0  0  0
   20.8291  -21.4302  -10.0060 C   0  0  0  0  0  0  0  0  0  0  0  0
   23.0970  -21.3249   -7.3700 C   0  0  0  0  0  0  0  0  0  0  0  0
   23.4667  -22.4801   -6.6989 O   0  0  0  0  0  0  0  0  0  0  0  0
   21.9865  -20.8194   -7.0053 O   0  0  0  0  0  0  0  0  0  0  0  0
  2  1  1  6
  2  3  1  0
  3  4  1  0
  4  5  1  0
  5  6  2  0
  5  9  1  0
  7  8  2  0
  7  2  1  0
 10  7  1  0
 11 10  1  0
 11 12  1  1
 13 18  1  0
 13 12  1  0
 14 13  2  0
 15 16  2  0
 15 14  1  0
 16 17  1  0
 17 18  2  0
 19 21  1  0
 19 11  1  0
 20 19  2  0
 22 33  1  0
 22 21  1  0
 22 23  1  6
 24 32  1  0
 24 23  1  0
 25 24  2  0
 26 25  1  0
 26 27  1  0
 27 28  1  0
 27 32  2  0
 28 29  2  0
 29 30  1  0
 31 30  2  0
 32 31  1  0
 33 34  1  0
 35 33  2  0
M  END
$$$$
