EFW.pdb
     RDKit          3D

 35 37  0  0  1  0  0  0  0  0999 V2000
   21.8929  -10.5029  -19.2519 N   0  0  0  0  0  0  0  0  0  0  0  0
   20.6385  -10.0985  -18.5916 C   0  0  1  0  0  0  0  0  0  0  0  0
   20.1959  -11.2596  -17.7738 C   0  0  0  0  0  0  0  0  0  0  0  0
   20.9891  -12.5085  -17.9113 C   0  0  0  0  0  0  0  0  0  0  0  0
   20.3313  -13.5429  -17.0326 C   0  0  0  0  0  0  0  0  0  0  0  0
   19.3569  -13.2727  -16.2983 O   0  0  0  0  0  0  0  0  0  0  0  0
   20.8696   -8.9127  -17.7359 C   0  0  0  0  0  0  0  0  0  0  0  0
   21.2727   -9.0338  -16.5526 O   0  0  0  0  0  0  0  0  0  0  0  0
   20.8093  -14.8421  -17.0263 O   0  0  0  0  0  0  0  0  0  0  0  0
   20.6556   -7.5790  -18.1795 N   0  0  0  0  0  0  0  0  0  0  0  0
   20.9379   -6.4542  -17.3322 C   0  0  1  0  0  0  0  0  0  0  0  0
   20.9836   -5.1849  -18.0924 C   0  0  0  0  0  0  0  0  0  0  0  0
   21.2048   -3.9640  -17.3299 C   0  0  0  0  0  0  0  0  0  0  0  0
   22.4288   -3.6611  -16.8111 C   0  0  0  0  0  0  0  0  0  0  0  0
   22.6821   -2.5015  -16.0799 C   0  0  0  0  0  0  0  0  0  0  0  0
   21.6372   -1.6064  -15.8670 C   0  0  0  0  0  0  0  0  0  0  0  0
   20.3923   -1.9024  -16.3876 C   0  0  0  0  0  0  0  0  0  0  0  0
   20.1612   -3.0644  -17.1139 C   0  0  0  0  0  0  0  0  0  0  0  0
   20.0177   -6.3714  -16.1660 C   0  0  0  0  0  0  0  0  0  0  0  0
   18.8242   -6.7344  -16.3731 O   0  0  0  0  0  0  0  0  0  0  0  0
   20.3895   -5.9264  -14.8969 N   0  0  0  0  0  0  0  0  0  0  0  0
   19.4036   -5.8874  -13.8123 C   0  0  1  0  0  0  0  0  0  0  0  0
   19.7869   -6.7954  -12.7074 C   0  0  0  0  0  0  0  0  0  0  0  0
   18.8352   -6.8596  -11.5920 C   0  0  0  0  0  0  0  0  0  0  0  0
   18.8445   -6.0193  -10.4723 C   0  0  0  0  0  0  0  0  0  0  0  0
   17.8536   -6.4067   -9.6554 N   0  0  0  0  0  0  0  0  0  0  0  0
   17.1948   -7.4525  -10.1766 C   0  0  0  0  0  0  0  0  0  0  0  0
   16.1145   -8.1881   -9.7439 C   0  0  0  0  0  0  0  0  0  0  0  0
   15.6170   -9.2178  -10.4996 C   0  0  0  0  0  0  0  0  0  0  0  0
   16.2123   -9.5105  -11.7034 C   0  0  0  0  0  0  0  0  0  0  0  0
   17.2848   -8.7901  -12.1453 C   0  0  0  0  0  0  0  0  0  0  0  0
   17.7857   -7.7456  -11.3710 C   0  0  0  0  0  0  0  0  0  0  0  0
   19.1981   -4.5001  -13.4031 C   0  0  0  0  0  0  0  0  0  0  0  0
   20.1960   -3.5908  -13.0883 O   0  0  0  0  0  0  0  0  0  0  0  0
   18.0095   -4.0523  -13.3102 O   0  0  0  0  0  0  0  0  0  0  0  0
  2  1  1  1
  2  3  1  0
  3  4  1  0
  4  5  1  0
  5  6  2  0
  5  9  1  0
  7  8  2  0
  7  2  1  0
 10  7  1  0
 11 10  1  0
 11 12  1  6
 13 18  1  0
 13 12  1  0
 14 13  2  0
 15 16  2  0
 15 14  1  0
 16 17  1  0
 17 18  2  0
 19 21  1  0
 19 11  1  0
 20 19  2  0
 22 33  1  0
 22 21  1  0
 22 23  1  1
 24 32  1  0
 24 23  1  0
 25 24  2  0
 26 25  1  0
 26 27  1  0
 27 28  1  0
 27 32  2  0
 28 29  2  0
 29 30  1  0
 31 30  2  0
 32 31  1  0
 33 34  1  0
 35 33  2  0
M  END
$$$$
