FFD.pdb
     RDKit          3D

 31 32  0  0  1  0  0  0  0  0999 V2000
   24.1572   -8.7700  -20.3040 N   0  0  0  0  0  0  0  0  0  0  0  0
   23.4186   -7.7736  -19.5877 C   0  0  1  0  0  0  0  0  0  0  0  0
   22.2314   -7.2563  -20.3710 C   0  0  0  0  0  0  0  0  0  0  0  0
   22.6711   -6.5382  -21.6029 C   0  0  0  0  0  0  0  0  0  0  0  0
   22.9126   -7.2146  -22.7737 C   0  0  0  0  0  0  0  0  0  0  0  0
   23.3150   -6.5995  -23.9203 C   0  0  0  0  0  0  0  0  0  0  0  0
   23.4815   -5.2149  -23.8737 C   0  0  0  0  0  0  0  0  0  0  0  0
   23.2425   -4.5230  -22.7047 C   0  0  0  0  0  0  0  0  0  0  0  0
   22.8341   -5.1727  -21.5522 C   0  0  0  0  0  0  0  0  0  0  0  0
   22.9109   -8.3047  -18.3003 C   0  0  0  0  0  0  0  0  0  0  0  0
   22.5922   -9.5161  -18.1839 O   0  0  0  0  0  0  0  0  0  0  0  0
   22.8009   -7.3966  -17.2151 N   0  0  0  0  0  0  0  0  0  0  0  0
   22.4057   -7.8781  -15.9047 C   0  0  1  0  0  0  0  0  0  0  0  0
   23.4884   -7.7583  -14.8975 C   0  0  0  0  0  0  0  0  0  0  0  0
   24.5366   -8.7933  -15.0326 C   0  0  0  0  0  0  0  0  0  0  0  0
   25.6428   -8.4835  -15.8330 C   0  0  0  0  0  0  0  0  0  0  0  0
   26.6356   -9.4161  -15.9631 C   0  0  0  0  0  0  0  0  0  0  0  0
   26.5618  -10.6369  -15.3265 C   0  0  0  0  0  0  0  0  0  0  0  0
   25.4716  -10.9531  -14.5323 C   0  0  0  0  0  0  0  0  0  0  0  0
   24.4894  -10.0202  -14.4084 C   0  0  0  0  0  0  0  0  0  0  0  0
   21.1859   -7.1272  -15.5302 C   0  0  0  0  0  0  0  0  0  0  0  0
   21.0795   -5.9312  -15.9424 O   0  0  0  0  0  0  0  0  0  0  0  0
   20.1486   -7.6826  -14.7418 N   0  0  0  0  0  0  0  0  0  0  0  0
   18.9047   -6.9628  -14.5704 C   0  0  1  0  0  0  0  0  0  0  0  0
   18.3740   -6.6647  -15.9462 C   0  0  0  0  0  0  0  0  0  0  0  0
   17.0831   -5.9900  -15.8508 C   0  0  0  0  0  0  0  0  0  0  0  0
   16.8921   -4.8881  -15.2645 O   0  0  0  0  0  0  0  0  0  0  0  0
   17.9439   -7.7483  -13.7554 C   0  0  0  0  0  0  0  0  0  0  0  0
   17.0586   -7.1190  -12.9194 O   0  0  0  0  0  0  0  0  0  0  0  0
   15.9863   -6.6224  -16.4581 O   0  0  0  0  0  0  0  0  0  0  0  0
   17.9241   -9.0029  -13.8152 O   0  0  0  0  0  0  0  0  0  0  0  0
  2  1  1  6
  2  3  1  0
  3  4  1  0
  4  5  2  0
  5  6  1  0
  7  6  2  0
  8  7  1  0
  9  4  1  0
  9  8  2  0
 10  2  1  0
 11 10  2  0
 12 10  1  0
 13 21  1  0
 13 12  1  0
 13 14  1  1
 15 14  1  0
 16 15  2  0
 17 16  1  0
 18 19  1  0
 18 17  2  0
 19 20  2  0
 20 15  1  0
 21 23  1  0
 22 21  2  0
 23 24  1  0
 24 28  1  0
 25 26  1  0
 24 25  1  6
 26 27  2  0
 28 31  2  0
 28 29  1  0
 30 26  1  0
M  END
$$$$
