FFD.pdb
     RDKit          3D

 31 32  0  0  1  0  0  0  0  0999 V2000
   28.7566  -21.3206   -8.4361 N   0  0  0  0  0  0  0  0  0  0  0  0
   27.4120  -20.8286   -8.4760 C   0  0  1  0  0  0  0  0  0  0  0  0
   27.2414  -19.5423   -7.6970 C   0  0  0  0  0  0  0  0  0  0  0  0
   27.7505  -19.6866   -6.3018 C   0  0  0  0  0  0  0  0  0  0  0  0
   27.1337  -20.5203   -5.4011 C   0  0  0  0  0  0  0  0  0  0  0  0
   27.5644  -20.6819   -4.1192 C   0  0  0  0  0  0  0  0  0  0  0  0
   28.6887  -19.9527   -3.7301 C   0  0  0  0  0  0  0  0  0  0  0  0
   29.3180  -19.1119   -4.6242 C   0  0  0  0  0  0  0  0  0  0  0  0
   28.8596  -18.9655   -5.9225 C   0  0  0  0  0  0  0  0  0  0  0  0
   26.9762  -20.5715   -9.8693 C   0  0  0  0  0  0  0  0  0  0  0  0
   27.6985  -19.9097  -10.6586 O   0  0  0  0  0  0  0  0  0  0  0  0
   25.7213  -21.0991  -10.2707 N   0  0  0  0  0  0  0  0  0  0  0  0
   25.4170  -21.2511  -11.6812 C   0  0  1  0  0  0  0  0  0  0  0  0
   25.5771  -22.6472  -12.1568 C   0  0  0  0  0  0  0  0  0  0  0  0
   25.2896  -22.8159  -13.5980 C   0  0  0  0  0  0  0  0  0  0  0  0
   24.1581  -23.5656  -13.9416 C   0  0  0  0  0  0  0  0  0  0  0  0
   23.8588  -23.7246  -15.2673 C   0  0  0  0  0  0  0  0  0  0  0  0
   24.6441  -23.1652  -16.2529 C   0  0  0  0  0  0  0  0  0  0  0  0
   25.7656  -22.4216  -15.9233 C   0  0  0  0  0  0  0  0  0  0  0  0
   26.0557  -22.2685  -14.6032 C   0  0  0  0  0  0  0  0  0  0  0  0
   24.0442  -20.7314  -11.8745 C   0  0  0  0  0  0  0  0  0  0  0  0
   23.1847  -20.9870  -10.9758 O   0  0  0  0  0  0  0  0  0  0  0  0
   23.6581  -19.9717  -13.0056 N   0  0  0  0  0  0  0  0  0  0  0  0
   22.2744  -19.5847  -13.1802 C   0  0  1  0  0  0  0  0  0  0  0  0
   22.2612  -18.3973  -14.1038 C   0  0  0  0  0  0  0  0  0  0  0  0
   20.9104  -17.8529  -14.2021 C   0  0  0  0  0  0  0  0  0  0  0  0
   19.9148  -18.2858  -13.5573 O   0  0  0  0  0  0  0  0  0  0  0  0
   21.4686  -20.7152  -13.7067 C   0  0  0  0  0  0  0  0  0  0  0  0
   21.5392  -21.0674  -15.0294 O   0  0  0  0  0  0  0  0  0  0  0  0
   20.7201  -16.7728  -15.0788 O   0  0  0  0  0  0  0  0  0  0  0  0
   20.7068  -21.3692  -12.9517 O   0  0  0  0  0  0  0  0  0  0  0  0
  2  1  1  6
  2  3  1  0
  3  4  1  0
  4  5  2  0
  5  6  1  0
  7  6  2  0
  8  7  1  0
  9  4  1  0
  9  8  2  0
 10  2  1  0
 11 10  2  0
 12 10  1  0
 13 21  1  0
 13 12  1  0
 13 14  1  1
 15 14  1  0
 16 15  2  0
 17 16  1  0
 18 19  1  0
 18 17  2  0
 19 20  2  0
 20 15  1  0
 21 23  1  0
 22 21  2  0
 23 24  1  0
 24 28  1  0
 25 26  1  0
 24 25  1  6
 26 27  2  0
 28 31  2  0
 28 29  1  0
 30 26  1  0
M  END
$$$$
