FFD.pdb
     RDKit          3D

 31 32  0  0  1  0  0  0  0  0999 V2000
   18.3822  -11.9797  -19.6130 N   0  0  0  0  0  0  0  0  0  0  0  0
   18.9044  -10.6474  -19.6747 C   0  0  1  0  0  0  0  0  0  0  0  0
   18.0477   -9.7267  -20.5166 C   0  0  0  0  0  0  0  0  0  0  0  0
   18.0308  -10.1628  -21.9435 C   0  0  0  0  0  0  0  0  0  0  0  0
   19.1140   -9.9591  -22.7634 C   0  0  0  0  0  0  0  0  0  0  0  0
   19.1414  -10.3407  -24.0705 C   0  0  0  0  0  0  0  0  0  0  0  0
   18.0002  -10.9664  -24.5737 C   0  0  0  0  0  0  0  0  0  0  0  0
   16.9054  -11.1773  -23.7617 C   0  0  0  0  0  0  0  0  0  0  0  0
   16.9032  -10.7794  -22.4355 C   0  0  0  0  0  0  0  0  0  0  0  0
   19.0112  -10.0502  -18.3221 C   0  0  0  0  0  0  0  0  0  0  0  0
   18.1975  -10.3611  -17.4144 O   0  0  0  0  0  0  0  0  0  0  0  0
   20.0607   -9.1215  -18.0974 N   0  0  0  0  0  0  0  0  0  0  0  0
   20.2111   -8.4994  -16.7953 C   0  0  1  0  0  0  0  0  0  0  0  0
   21.6245   -8.4337  -16.3492 C   0  0  0  0  0  0  0  0  0  0  0  0
   21.8006   -7.7570  -15.0456 C   0  0  0  0  0  0  0  0  0  0  0  0
   22.2143   -6.4196  -15.0692 C   0  0  0  0  0  0  0  0  0  0  0  0
   22.3699   -5.7639  -13.8784 C   0  0  0  0  0  0  0  0  0  0  0  0
   22.1285   -6.3927  -12.6754 C   0  0  0  0  0  0  0  0  0  0  0  0
   21.7186   -7.7157  -12.6413 C   0  0  0  0  0  0  0  0  0  0  0  0
   21.5664   -8.3599  -13.8296 C   0  0  0  0  0  0  0  0  0  0  0  0
   19.5750   -7.1658  -16.8895 C   0  0  0  0  0  0  0  0  0  0  0  0
   19.9088   -6.4202  -17.8614 O   0  0  0  0  0  0  0  0  0  0  0  0
   18.6228   -6.6962  -15.9521 N   0  0  0  0  0  0  0  0  0  0  0  0
   18.0354   -5.3832  -16.1123 C   0  0  1  0  0  0  0  0  0  0  0  0
   16.8032   -5.3427  -15.2501 C   0  0  0  0  0  0  0  0  0  0  0  0
   16.1320   -4.0545  -15.3943 C   0  0  0  0  0  0  0  0  0  0  0  0
   16.5317   -3.1179  -16.1409 O   0  0  0  0  0  0  0  0  0  0  0  0
   19.0069   -4.3189  -15.7546 C   0  0  0  0  0  0  0  0  0  0  0  0
   19.6227   -4.3176  -14.5301 O   0  0  0  0  0  0  0  0  0  0  0  0
   14.9615   -3.8575  -14.6441 O   0  0  0  0  0  0  0  0  0  0  0  0
   19.2822   -3.3997  -16.5653 O   0  0  0  0  0  0  0  0  0  0  0  0
  2  1  1  1
  2  3  1  0
  3  4  1  0
  4  5  2  0
  5  6  1  0
  7  6  2  0
  8  7  1  0
  9  4  1  0
  9  8  2  0
 10  2  1  0
 11 10  2  0
 12 10  1  0
 13 21  1  0
 13 12  1  0
 13 14  1  6
 15 14  1  0
 16 15  2  0
 17 16  1  0
 18 19  1  0
 18 17  2  0
 19 20  2  0
 20 15  1  0
 21 23  1  0
 22 21  2  0
 23 24  1  0
 24 28  1  0
 25 26  1  0
 24 25  1  1
 26 27  2  0
 28 31  2  0
 28 29  1  0
 30 26  1  0
M  END
$$$$
