FFD.pdb
     RDKit          3D

 31 32  0  0  1  0  0  0  0  0999 V2000
   29.9256  -35.9262   -2.0240 N   0  0  0  0  0  0  0  0  0  0  0  0
   28.8104  -35.0274   -2.0214 C   0  0  1  0  0  0  0  0  0  0  0  0
   27.6126  -35.5867   -2.7582 C   0  0  0  0  0  0  0  0  0  0  0  0
   26.4960  -34.5978   -2.7988 C   0  0  0  0  0  0  0  0  0  0  0  0
   26.5333  -33.5157   -3.6441 C   0  0  0  0  0  0  0  0  0  0  0  0
   25.5370  -32.5896   -3.7136 C   0  0  0  0  0  0  0  0  0  0  0  0
   24.4379  -32.7748   -2.8740 C   0  0  0  0  0  0  0  0  0  0  0  0
   24.3873  -33.8569   -2.0203 C   0  0  0  0  0  0  0  0  0  0  0  0
   25.4141  -34.7844   -1.9691 C   0  0  0  0  0  0  0  0  0  0  0  0
   28.3800  -34.7109   -0.6386 C   0  0  0  0  0  0  0  0  0  0  0  0
   28.2259  -35.6239    0.2131 O   0  0  0  0  0  0  0  0  0  0  0  0
   28.1516  -33.3469   -0.3200 N   0  0  0  0  0  0  0  0  0  0  0  0
   27.7298  -32.9762    1.0179 C   0  0  1  0  0  0  0  0  0  0  0  0
   27.9609  -31.5416    1.3169 C   0  0  0  0  0  0  0  0  0  0  0  0
   27.4732  -31.1314    2.6519 C   0  0  0  0  0  0  0  0  0  0  0  0
   26.2027  -30.5466    2.7175 C   0  0  0  0  0  0  0  0  0  0  0  0
   25.7194  -30.1721    3.9415 C   0  0  0  0  0  0  0  0  0  0  0  0
   26.4552  -30.3600    5.0923 C   0  0  0  0  0  0  0  0  0  0  0  0
   27.7132  -30.9379    5.0381 C   0  0  0  0  0  0  0  0  0  0  0  0
   28.1859  -31.3073    3.8173 C   0  0  0  0  0  0  0  0  0  0  0  0
   26.3063  -33.3660    1.1340 C   0  0  0  0  0  0  0  0  0  0  0  0
   25.5991  -33.3382    0.0800 O   0  0  0  0  0  0  0  0  0  0  0  0
   25.7113  -33.7627    2.3565 N   0  0  0  0  0  0  0  0  0  0  0  0
   24.3257  -34.1799    2.3858 C   0  0  1  0  0  0  0  0  0  0  0  0
   24.2396  -35.4786    1.6313 C   0  0  0  0  0  0  0  0  0  0  0  0
   22.8958  -36.0370    1.7450 C   0  0  0  0  0  0  0  0  0  0  0  0
   21.8402  -35.4420    1.3897 O   0  0  0  0  0  0  0  0  0  0  0  0
   23.8385  -34.3080    3.7824 C   0  0  0  0  0  0  0  0  0  0  0  0
   24.6238  -34.8845    4.7465 O   0  0  0  0  0  0  0  0  0  0  0  0
   22.7847  -37.3265    2.2895 O   0  0  0  0  0  0  0  0  0  0  0  0
   22.6984  -33.8922    4.1072 O   0  0  0  0  0  0  0  0  0  0  0  0
  2  1  1  1
  2  3  1  0
  3  4  1  0
  4  5  2  0
  5  6  1  0
  7  6  2  0
  8  7  1  0
  9  4  1  0
  9  8  2  0
 10  2  1  0
 11 10  2  0
 12 10  1  0
 13 21  1  0
 13 12  1  0
 13 14  1  6
 15 14  1  0
 16 15  2  0
 17 16  1  0
 18 19  1  0
 18 17  2  0
 19 20  2  0
 20 15  1  0
 21 23  1  0
 22 21  2  0
 23 24  1  0
 24 28  1  0
 25 26  1  0
 24 25  1  1
 26 27  2  0
 28 31  2  0
 28 29  1  0
 30 26  1  0
M  END
$$$$
