FFD.pdb
     RDKit          3D

 31 32  0  0  1  0  0  0  0  0999 V2000
   28.9205  -23.0429  -16.2871 N   0  0  0  0  0  0  0  0  0  0  0  0
   27.6179  -22.4885  -16.5048 C   0  0  1  0  0  0  0  0  0  0  0  0
   26.8054  -23.2890  -17.4995 C   0  0  0  0  0  0  0  0  0  0  0  0
   27.3757  -23.1775  -18.8738 C   0  0  0  0  0  0  0  0  0  0  0  0
   27.3299  -21.9943  -19.5701 C   0  0  0  0  0  0  0  0  0  0  0  0
   27.8376  -21.8483  -20.8254 C   0  0  0  0  0  0  0  0  0  0  0  0
   28.4268  -22.9715  -21.4071 C   0  0  0  0  0  0  0  0  0  0  0  0
   28.4797  -24.1659  -20.7193 C   0  0  0  0  0  0  0  0  0  0  0  0
   27.9557  -24.2878  -19.4435 C   0  0  0  0  0  0  0  0  0  0  0  0
   26.8448  -22.4234  -15.2416 C   0  0  0  0  0  0  0  0  0  0  0  0
   26.2868  -23.4494  -14.7742 O   0  0  0  0  0  0  0  0  0  0  0  0
   26.7622  -21.1660  -14.5886 N   0  0  0  0  0  0  0  0  0  0  0  0
   26.0174  -21.0407  -13.3497 C   0  0  1  0  0  0  0  0  0  0  0  0
   26.5320  -19.9573  -12.4765 C   0  0  0  0  0  0  0  0  0  0  0  0
   27.2472  -20.4536  -11.2804 C   0  0  0  0  0  0  0  0  0  0  0  0
   28.5874  -20.8246  -11.4439 C   0  0  0  0  0  0  0  0  0  0  0  0
   29.2782  -21.2721  -10.3509 C   0  0  0  0  0  0  0  0  0  0  0  0
   28.6815  -21.3610   -9.1111 C   0  0  0  0  0  0  0  0  0  0  0  0
   27.3561  -20.9962   -8.9389 C   0  0  0  0  0  0  0  0  0  0  0  0
   26.6769  -20.5523  -10.0307 C   0  0  0  0  0  0  0  0  0  0  0  0
   24.5990  -20.8494  -13.7284 C   0  0  0  0  0  0  0  0  0  0  0  0
   24.3428  -20.0251  -14.6594 O   0  0  0  0  0  0  0  0  0  0  0  0
   23.5325  -21.5398  -13.1023 N   0  0  0  0  0  0  0  0  0  0  0  0
   22.1627  -21.2060  -13.4292 C   0  0  1  0  0  0  0  0  0  0  0  0
   21.3234  -22.4090  -13.0950 C   0  0  0  0  0  0  0  0  0  0  0  0
   19.9211  -22.1432  -13.4008 C   0  0  0  0  0  0  0  0  0  0  0  0
   18.9446  -22.6209  -12.7584 O   0  0  0  0  0  0  0  0  0  0  0  0
   21.7219  -19.9921  -12.6968 C   0  0  0  0  0  0  0  0  0  0  0  0
   22.0255  -19.8274  -11.3703 O   0  0  0  0  0  0  0  0  0  0  0  0
   19.6548  -21.2954  -14.4880 O   0  0  0  0  0  0  0  0  0  0  0  0
   21.0622  -19.0942  -13.2770 O   0  0  0  0  0  0  0  0  0  0  0  0
  2  1  1  1
  2  3  1  0
  3  4  1  0
  4  5  2  0
  5  6  1  0
  7  6  2  0
  8  7  1  0
  9  4  1  0
  9  8  2  0
 10  2  1  0
 11 10  2  0
 12 10  1  0
 13 21  1  0
 13 12  1  0
 13 14  1  6
 15 14  1  0
 16 15  2  0
 17 16  1  0
 18 19  1  0
 18 17  2  0
 19 20  2  0
 20 15  1  0
 21 23  1  0
 22 21  2  0
 23 24  1  0
 24 28  1  0
 25 26  1  0
 24 25  1  1
 26 27  2  0
 28 31  2  0
 28 29  1  0
 30 26  1  0
M  END
$$$$
