FFD.pdb
     RDKit          3D

 31 32  0  0  1  0  0  0  0  0999 V2000
   30.1250    6.9362    1.2156 N   0  0  0  0  0  0  0  0  0  0  0  0
   29.3663    5.9679    0.4819 C   0  0  1  0  0  0  0  0  0  0  0  0
   28.4836    6.6000   -0.5725 C   0  0  0  0  0  0  0  0  0  0  0  0
   27.4513    7.4811    0.0476 C   0  0  0  0  0  0  0  0  0  0  0  0
   27.5934    8.8473    0.0567 C   0  0  0  0  0  0  0  0  0  0  0  0
   26.6767    9.6882    0.6111 C   0  0  0  0  0  0  0  0  0  0  0  0
   25.5488    9.1056    1.1904 C   0  0  0  0  0  0  0  0  0  0  0  0
   25.3932    7.7351    1.1884 C   0  0  0  0  0  0  0  0  0  0  0  0
   26.3407    6.9021    0.6177 C   0  0  0  0  0  0  0  0  0  0  0  0
   30.2539    4.9952   -0.1990 C   0  0  0  0  0  0  0  0  0  0  0  0
   31.3585    5.3577   -0.6797 O   0  0  0  0  0  0  0  0  0  0  0  0
   29.8082    3.6504   -0.2843 N   0  0  0  0  0  0  0  0  0  0  0  0
   30.7028    2.6208   -0.7791 C   0  0  1  0  0  0  0  0  0  0  0  0
   30.6942    1.3989    0.0623 C   0  0  0  0  0  0  0  0  0  0  0  0
   31.5720    0.3240   -0.4501 C   0  0  0  0  0  0  0  0  0  0  0  0
   32.9143    0.3497   -0.0529 C   0  0  0  0  0  0  0  0  0  0  0  0
   33.7456   -0.6414   -0.4988 C   0  0  0  0  0  0  0  0  0  0  0  0
   33.2860   -1.6486   -1.3207 C   0  0  0  0  0  0  0  0  0  0  0  0
   31.9596   -1.6831   -1.7192 C   0  0  0  0  0  0  0  0  0  0  0  0
   31.1402   -0.6940   -1.2712 C   0  0  0  0  0  0  0  0  0  0  0  0
   30.3068    2.3567   -2.1810 C   0  0  0  0  0  0  0  0  0  0  0  0
   29.0776    2.1446   -2.4169 O   0  0  0  0  0  0  0  0  0  0  0  0
   31.2318    2.3319   -3.2532 N   0  0  0  0  0  0  0  0  0  0  0  0
   30.7688    2.0950   -4.6038 C   0  0  1  0  0  0  0  0  0  0  0  0
   29.7607    3.1663   -4.9191 C   0  0  0  0  0  0  0  0  0  0  0  0
   29.3586    3.0805   -6.3197 C   0  0  0  0  0  0  0  0  0  0  0  0
   29.4679    2.0453   -7.0345 O   0  0  0  0  0  0  0  0  0  0  0  0
   31.9030    2.0913   -5.5618 C   0  0  0  0  0  0  0  0  0  0  0  0
   33.1953    2.1876   -5.1152 O   0  0  0  0  0  0  0  0  0  0  0  0
   28.8141    4.2378   -6.8991 O   0  0  0  0  0  0  0  0  0  0  0  0
   31.7010    2.0010   -6.7984 O   0  0  0  0  0  0  0  0  0  0  0  0
  2  1  1  6
  2  3  1  0
  3  4  1  0
  4  5  2  0
  5  6  1  0
  7  6  2  0
  8  7  1  0
  9  4  1  0
  9  8  2  0
 10  2  1  0
 11 10  2  0
 12 10  1  0
 13 21  1  0
 13 12  1  0
 13 14  1  1
 15 14  1  0
 16 15  2  0
 17 16  1  0
 18 19  1  0
 18 17  2  0
 19 20  2  0
 20 15  1  0
 21 23  1  0
 22 21  2  0
 23 24  1  0
 24 28  1  0
 25 26  1  0
 24 25  1  6
 26 27  2  0
 28 31  2  0
 28 29  1  0
 30 26  1  0
M  END
$$$$
