FFD.pdb
     RDKit          3D

 31 32  0  0  1  0  0  0  0  0999 V2000
   15.6671  -20.2205    1.2514 N   0  0  0  0  0  0  0  0  0  0  0  0
   15.5736  -19.2558    2.3060 C   0  0  1  0  0  0  0  0  0  0  0  0
   14.3675  -19.4799    3.1922 C   0  0  0  0  0  0  0  0  0  0  0  0
   13.1050  -19.1158    2.4850 C   0  0  0  0  0  0  0  0  0  0  0  0
   12.7557  -17.8030    2.2818 C   0  0  0  0  0  0  0  0  0  0  0  0
   11.6140  -17.4262    1.6419 C   0  0  0  0  0  0  0  0  0  0  0  0
   10.7781  -18.4443    1.1816 C   0  0  0  0  0  0  0  0  0  0  0  0
   11.1165  -19.7668    1.3788 C   0  0  0  0  0  0  0  0  0  0  0  0
   12.2838  -20.1232    2.0328 C   0  0  0  0  0  0  0  0  0  0  0  0
   16.7781  -19.2871    3.1695 C   0  0  0  0  0  0  0  0  0  0  0  0
   17.4234  -20.3540    3.3369 O   0  0  0  0  0  0  0  0  0  0  0  0
   17.1681  -18.0734    3.7934 N   0  0  0  0  0  0  0  0  0  0  0  0
   18.2780  -18.0632    4.7279 C   0  0  1  0  0  0  0  0  0  0  0  0
   19.0377  -16.7891    4.7046 C   0  0  0  0  0  0  0  0  0  0  0  0
   20.1088  -16.7225    5.7227 C   0  0  0  0  0  0  0  0  0  0  0  0
   21.1124  -17.6969    5.6608 C   0  0  0  0  0  0  0  0  0  0  0  0
   22.1246  -17.6501    6.5803 C   0  0  0  0  0  0  0  0  0  0  0  0
   22.1684  -16.6718    7.5510 C   0  0  0  0  0  0  0  0  0  0  0  0
   21.1804  -15.7031    7.6205 C   0  0  0  0  0  0  0  0  0  0  0  0
   20.1780  -15.7571    6.7026 C   0  0  0  0  0  0  0  0  0  0  0  0
   17.7098  -18.3699    6.0602 C   0  0  0  0  0  0  0  0  0  0  0  0
   16.5309  -17.9676    6.3056 O   0  0  0  0  0  0  0  0  0  0  0  0
   18.4191  -19.0839    7.0567 N   0  0  0  0  0  0  0  0  0  0  0  0
   17.8083  -19.3279    8.3459 C   0  0  1  0  0  0  0  0  0  0  0  0
   16.5830  -20.1662    8.1023 C   0  0  0  0  0  0  0  0  0  0  0  0
   15.9410  -20.4970    9.3708 C   0  0  0  0  0  0  0  0  0  0  0  0
   15.6663  -21.6695    9.7505 O   0  0  0  0  0  0  0  0  0  0  0  0
   18.7647  -19.9862    9.2713 C   0  0  0  0  0  0  0  0  0  0  0  0
   18.5091  -20.0424   10.6167 O   0  0  0  0  0  0  0  0  0  0  0  0
   15.6117  -19.4264   10.2175 O   0  0  0  0  0  0  0  0  0  0  0  0
   19.8256  -20.5026    8.8403 O   0  0  0  0  0  0  0  0  0  0  0  0
  2  1  1  6
  2  3  1  0
  3  4  1  0
  4  5  2  0
  5  6  1  0
  7  6  2  0
  8  7  1  0
  9  4  1  0
  9  8  2  0
 10  2  1  0
 11 10  2  0
 12 10  1  0
 13 21  1  0
 13 12  1  0
 13 14  1  1
 15 14  1  0
 16 15  2  0
 17 16  1  0
 18 19  1  0
 18 17  2  0
 19 20  2  0
 20 15  1  0
 21 23  1  0
 22 21  2  0
 23 24  1  0
 24 28  1  0
 25 26  1  0
 24 25  1  6
 26 27  2  0
 28 31  2  0
 28 29  1  0
 30 26  1  0
M  END
$$$$
