FFD.pdb
     RDKit          3D

 31 32  0  0  1  0  0  0  0  0999 V2000
   27.8282  -21.1443  -13.8398 N   0  0  0  0  0  0  0  0  0  0  0  0
   27.3696  -20.0982  -12.9756 C   0  0  1  0  0  0  0  0  0  0  0  0
   26.1249  -19.4158  -13.5006 C   0  0  0  0  0  0  0  0  0  0  0  0
   26.4528  -18.4861  -14.6207 C   0  0  0  0  0  0  0  0  0  0  0  0
   26.3970  -18.9000  -15.9293 C   0  0  0  0  0  0  0  0  0  0  0  0
   26.6878  -18.0856  -16.9816 C   0  0  0  0  0  0  0  0  0  0  0  0
   27.0569  -16.7729  -16.6858 C   0  0  0  0  0  0  0  0  0  0  0  0
   27.1170  -16.3438  -15.3763 C   0  0  0  0  0  0  0  0  0  0  0  0
   26.8163  -17.1923  -14.3243 C   0  0  0  0  0  0  0  0  0  0  0  0
   27.0606  -20.6176  -11.6221 C   0  0  0  0  0  0  0  0  0  0  0  0
   26.6257  -21.7876  -11.4647 O   0  0  0  0  0  0  0  0  0  0  0  0
   27.2743  -19.7467  -10.5220 N   0  0  0  0  0  0  0  0  0  0  0  0
   27.0368  -20.2159   -9.1697 C   0  0  1  0  0  0  0  0  0  0  0  0
   27.7707  -19.4267   -8.1501 C   0  0  0  0  0  0  0  0  0  0  0  0
   27.5313  -19.8859   -6.7644 C   0  0  0  0  0  0  0  0  0  0  0  0
   28.2718  -20.9871   -6.3179 C   0  0  0  0  0  0  0  0  0  0  0  0
   28.0825  -21.4237   -5.0350 C   0  0  0  0  0  0  0  0  0  0  0  0
   27.1866  -20.8033   -4.1902 C   0  0  0  0  0  0  0  0  0  0  0  0
   26.4492  -19.7130   -4.6223 C   0  0  0  0  0  0  0  0  0  0  0  0
   26.6438  -19.2856   -5.8990 C   0  0  0  0  0  0  0  0  0  0  0  0
   25.5703  -20.1946   -8.9678 C   0  0  0  0  0  0  0  0  0  0  0  0
   24.9252  -19.2046   -9.4322 O   0  0  0  0  0  0  0  0  0  0  0  0
   24.8693  -21.2199   -8.2872 N   0  0  0  0  0  0  0  0  0  0  0  0
   23.4325  -21.1365   -8.1342 C   0  0  1  0  0  0  0  0  0  0  0  0
   22.8244  -21.5410   -9.4494 C   0  0  0  0  0  0  0  0  0  0  0  0
   21.3678  -21.5036   -9.3614 C   0  0  0  0  0  0  0  0  0  0  0  0
   20.7209  -21.1149   -8.3490 O   0  0  0  0  0  0  0  0  0  0  0  0
   22.9667  -21.9910   -7.0130 C   0  0  0  0  0  0  0  0  0  0  0  0
   21.7041  -21.8442   -6.5003 O   0  0  0  0  0  0  0  0  0  0  0  0
   20.6493  -21.9327  -10.4889 O   0  0  0  0  0  0  0  0  0  0  0  0
   23.7196  -22.8631   -6.5124 O   0  0  0  0  0  0  0  0  0  0  0  0
  2  1  1  6
  2  3  1  0
  3  4  1  0
  4  5  2  0
  5  6  1  0
  7  6  2  0
  8  7  1  0
  9  4  1  0
  9  8  2  0
 10  2  1  0
 11 10  2  0
 12 10  1  0
 13 21  1  0
 13 12  1  0
 13 14  1  1
 15 14  1  0
 16 15  2  0
 17 16  1  0
 18 19  1  0
 18 17  2  0
 19 20  2  0
 20 15  1  0
 21 23  1  0
 22 21  2  0
 23 24  1  0
 24 28  1  0
 25 26  1  0
 24 25  1  6
 26 27  2  0
 28 31  2  0
 28 29  1  0
 30 26  1  0
M  END
$$$$
