FFD.pdb
     RDKit          3D

 31 32  0  0  1  0  0  0  0  0999 V2000
   28.3291  -20.8474   -8.6373 N   0  0  0  0  0  0  0  0  0  0  0  0
   26.9434  -20.5023   -8.5268 C   0  0  1  0  0  0  0  0  0  0  0  0
   26.7150  -19.2934   -7.6454 C   0  0  0  0  0  0  0  0  0  0  0  0
   27.3759  -19.4624   -6.3183 C   0  0  0  0  0  0  0  0  0  0  0  0
   28.4587  -18.6972   -5.9594 C   0  0  0  0  0  0  0  0  0  0  0  0
   29.0917  -18.8181   -4.7596 C   0  0  0  0  0  0  0  0  0  0  0  0
   28.5945  -19.7735   -3.8724 C   0  0  0  0  0  0  0  0  0  0  0  0
   27.5079  -20.5487   -4.2198 C   0  0  0  0  0  0  0  0  0  0  0  0
   26.8821  -20.4058   -5.4466 C   0  0  0  0  0  0  0  0  0  0  0  0
   26.3567  -20.2071   -9.8557 C   0  0  0  0  0  0  0  0  0  0  0  0
   26.6040  -19.1222  -10.4426 O   0  0  0  0  0  0  0  0  0  0  0  0
   25.5121  -21.1915  -10.4318 N   0  0  0  0  0  0  0  0  0  0  0  0
   25.3099  -21.2219  -11.8683 C   0  0  1  0  0  0  0  0  0  0  0  0
   25.9963  -22.3634  -12.5216 C   0  0  0  0  0  0  0  0  0  0  0  0
   25.7480  -22.4458  -13.9776 C   0  0  0  0  0  0  0  0  0  0  0  0
   24.9953  -23.5329  -14.4382 C   0  0  0  0  0  0  0  0  0  0  0  0
   24.7366  -23.6259  -15.7786 C   0  0  0  0  0  0  0  0  0  0  0  0
   25.1999  -22.6786  -16.6669 C   0  0  0  0  0  0  0  0  0  0  0  0
   25.9454  -21.5993  -16.2211 C   0  0  0  0  0  0  0  0  0  0  0  0
   26.1978  -21.5145  -14.8872 C   0  0  0  0  0  0  0  0  0  0  0  0
   23.8457  -21.2291  -12.0876 C   0  0  0  0  0  0  0  0  0  0  0  0
   23.1511  -22.0447  -11.4065 O   0  0  0  0  0  0  0  0  0  0  0  0
   23.1992  -20.3744  -13.0136 N   0  0  0  0  0  0  0  0  0  0  0  0
   21.8226  -20.6200  -13.3868 C   0  0  1  0  0  0  0  0  0  0  0  0
   21.0943  -19.3083  -13.2757 C   0  0  0  0  0  0  0  0  0  0  0  0
   20.1545  -19.3490  -12.1596 C   0  0  0  0  0  0  0  0  0  0  0  0
   19.9454  -20.3622  -11.4356 O   0  0  0  0  0  0  0  0  0  0  0  0
   21.7366  -21.1966  -14.7523 C   0  0  0  0  0  0  0  0  0  0  0  0
   20.7274  -22.0631  -15.0827 O   0  0  0  0  0  0  0  0  0  0  0  0
   19.4404  -18.1719  -11.8837 O   0  0  0  0  0  0  0  0  0  0  0  0
   22.5863  -20.9030  -15.6297 O   0  0  0  0  0  0  0  0  0  0  0  0
  2  1  1  6
  2  3  1  0
  3  4  1  0
  4  5  2  0
  5  6  1  0
  7  6  2  0
  8  7  1  0
  9  4  1  0
  9  8  2  0
 10  2  1  0
 11 10  2  0
 12 10  1  0
 13 21  1  0
 13 12  1  0
 13 14  1  1
 15 14  1  0
 16 15  2  0
 17 16  1  0
 18 19  1  0
 18 17  2  0
 19 20  2  0
 20 15  1  0
 21 23  1  0
 22 21  2  0
 23 24  1  0
 24 28  1  0
 25 26  1  0
 24 25  1  6
 26 27  2  0
 28 31  2  0
 28 29  1  0
 30 26  1  0
M  END
$$$$
