FFD.pdb
     RDKit          3D

 31 32  0  0  1  0  0  0  0  0999 V2000
   24.1505  -19.0647  -18.3227 N   0  0  0  0  0  0  0  0  0  0  0  0
   24.8119  -19.4816  -17.1227 C   0  0  1  0  0  0  0  0  0  0  0  0
   23.8546  -19.6591  -15.9641 C   0  0  0  0  0  0  0  0  0  0  0  0
   23.1662  -18.3772  -15.6335 C   0  0  0  0  0  0  0  0  0  0  0  0
   21.8501  -18.1688  -15.9671 C   0  0  0  0  0  0  0  0  0  0  0  0
   21.1834  -17.0153  -15.6849 C   0  0  0  0  0  0  0  0  0  0  0  0
   21.8970  -16.0144  -15.0245 C   0  0  0  0  0  0  0  0  0  0  0  0
   23.2191  -16.2101  -14.6836 C   0  0  0  0  0  0  0  0  0  0  0  0
   23.8739  -17.3929  -14.9822 C   0  0  0  0  0  0  0  0  0  0  0  0
   25.5215  -20.7680  -17.3207 C   0  0  0  0  0  0  0  0  0  0  0  0
   24.9609  -21.7293  -17.9075 O   0  0  0  0  0  0  0  0  0  0  0  0
   26.8475  -20.8675  -16.8247 N   0  0  0  0  0  0  0  0  0  0  0  0
   27.6022  -22.0920  -17.0150 C   0  0  1  0  0  0  0  0  0  0  0  0
   29.0606  -21.9053  -16.8165 C   0  0  0  0  0  0  0  0  0  0  0  0
   29.8402  -23.1540  -16.9624 C   0  0  0  0  0  0  0  0  0  0  0  0
   30.2787  -23.7761  -15.7872 C   0  0  0  0  0  0  0  0  0  0  0  0
   30.9883  -24.9412  -15.8916 C   0  0  0  0  0  0  0  0  0  0  0  0
   31.2725  -25.5015  -17.1190 C   0  0  0  0  0  0  0  0  0  0  0  0
   30.8430  -24.8939  -18.2876 C   0  0  0  0  0  0  0  0  0  0  0  0
   30.1381  -23.7360  -18.1746 C   0  0  0  0  0  0  0  0  0  0  0  0
   27.0197  -23.0934  -16.0933 C   0  0  0  0  0  0  0  0  0  0  0  0
   27.0811  -22.8550  -14.8478 O   0  0  0  0  0  0  0  0  0  0  0  0
   26.4058  -24.2891  -16.5397 N   0  0  0  0  0  0  0  0  0  0  0  0
   25.9884  -25.2904  -15.5817 C   0  0  1  0  0  0  0  0  0  0  0  0
   24.8471  -24.7025  -14.7975 C   0  0  0  0  0  0  0  0  0  0  0  0
   23.6260  -24.7223  -15.5972 C   0  0  0  0  0  0  0  0  0  0  0  0
   23.5090  -25.3034  -16.7121 O   0  0  0  0  0  0  0  0  0  0  0  0
   25.6099  -26.5537  -16.2637 C   0  0  0  0  0  0  0  0  0  0  0  0
   25.6523  -27.7491  -15.5944 O   0  0  0  0  0  0  0  0  0  0  0  0
   22.5121  -24.0434  -15.0776 O   0  0  0  0  0  0  0  0  0  0  0  0
   25.2450  -26.5521  -17.4657 O   0  0  0  0  0  0  0  0  0  0  0  0
  2  1  1  6
  2  3  1  0
  3  4  1  0
  4  5  2  0
  5  6  1  0
  7  6  2  0
  8  7  1  0
  9  4  1  0
  9  8  2  0
 10  2  1  0
 11 10  2  0
 12 10  1  0
 13 21  1  0
 13 12  1  0
 13 14  1  1
 15 14  1  0
 16 15  2  0
 17 16  1  0
 18 19  1  0
 18 17  2  0
 19 20  2  0
 20 15  1  0
 21 23  1  0
 22 21  2  0
 23 24  1  0
 24 28  1  0
 25 26  1  0
 24 25  1  6
 26 27  2  0
 28 31  2  0
 28 29  1  0
 30 26  1  0
M  END
$$$$
