FFD.pdb
     RDKit          3D

 31 32  0  0  1  0  0  0  0  0999 V2000
   25.9467  -21.5302  -19.2437 N   0  0  0  0  0  0  0  0  0  0  0  0
   25.1568  -20.5973  -18.4971 C   0  0  1  0  0  0  0  0  0  0  0  0
   23.9004  -20.1823  -19.2315 C   0  0  0  0  0  0  0  0  0  0  0  0
   24.2253  -19.3448  -20.4229 C   0  0  0  0  0  0  0  0  0  0  0  0
   24.2003  -19.8708  -21.6916 C   0  0  0  0  0  0  0  0  0  0  0  0
   24.4896  -19.1431  -22.8059 C   0  0  0  0  0  0  0  0  0  0  0  0
   24.8241  -17.8013  -22.6192 C   0  0  0  0  0  0  0  0  0  0  0  0
   24.8531  -17.2600  -21.3509 C   0  0  0  0  0  0  0  0  0  0  0  0
   24.5546  -18.0220  -20.2341 C   0  0  0  0  0  0  0  0  0  0  0  0
   24.7470  -21.1664  -17.1911 C   0  0  0  0  0  0  0  0  0  0  0  0
   24.5510  -22.4021  -17.0597 O   0  0  0  0  0  0  0  0  0  0  0  0
   24.5867  -20.2659  -16.1058 N   0  0  0  0  0  0  0  0  0  0  0  0
   24.3046  -20.7757  -14.7770 C   0  0  1  0  0  0  0  0  0  0  0  0
   24.7864  -19.8749  -13.7012 C   0  0  0  0  0  0  0  0  0  0  0  0
   24.5679  -20.4120  -12.3403 C   0  0  0  0  0  0  0  0  0  0  0  0
   25.5895  -21.1952  -11.7895 C   0  0  0  0  0  0  0  0  0  0  0  0
   25.4213  -21.6920  -10.5258 C   0  0  0  0  0  0  0  0  0  0  0  0
   24.2776  -21.4355   -9.7996 C   0  0  0  0  0  0  0  0  0  0  0  0
   23.2610  -20.6616  -10.3356 C   0  0  0  0  0  0  0  0  0  0  0  0
   23.4366  -20.1717  -11.5924 C   0  0  0  0  0  0  0  0  0  0  0  0
   22.8443  -21.0126  -14.7179 C   0  0  0  0  0  0  0  0  0  0  0  0
   22.0786  -20.0764  -15.1040 O   0  0  0  0  0  0  0  0  0  0  0  0
   22.2766  -22.2246  -14.2546 N   0  0  0  0  0  0  0  0  0  0  0  0
   20.8417  -22.3424  -14.1070 C   0  0  1  0  0  0  0  0  0  0  0  0
   20.5274  -23.8100  -14.0044 C   0  0  0  0  0  0  0  0  0  0  0  0
   19.0826  -24.0113  -13.9509 C   0  0  0  0  0  0  0  0  0  0  0  0
   18.2291  -23.0807  -13.9484 O   0  0  0  0  0  0  0  0  0  0  0  0
   20.3646  -21.5815  -12.9247 C   0  0  0  0  0  0  0  0  0  0  0  0
   19.2411  -20.8003  -13.0031 O   0  0  0  0  0  0  0  0  0  0  0  0
   18.6248  -25.3376  -13.8987 O   0  0  0  0  0  0  0  0  0  0  0  0
   20.9808  -21.6377  -11.8315 O   0  0  0  0  0  0  0  0  0  0  0  0
  2  1  1  6
  2  3  1  0
  3  4  1  0
  4  5  2  0
  5  6  1  0
  7  6  2  0
  8  7  1  0
  9  4  1  0
  9  8  2  0
 10  2  1  0
 11 10  2  0
 12 10  1  0
 13 21  1  0
 13 12  1  0
 13 14  1  1
 15 14  1  0
 16 15  2  0
 17 16  1  0
 18 19  1  0
 18 17  2  0
 19 20  2  0
 20 15  1  0
 21 23  1  0
 22 21  2  0
 23 24  1  0
 24 28  1  0
 25 26  1  0
 24 25  1  1
 26 27  2  0
 28 31  2  0
 28 29  1  0
 30 26  1  0
M  END
$$$$
