WTS.pdb
     RDKit          3D

 28 29  0  0  1  0  0  0  0  0999 V2000
   17.1592  -12.8694  -16.4336 N   0  0  0  0  0  0  0  0  0  0  0  0
   17.6420  -12.0375  -15.3470 C   0  0  1  0  0  0  0  0  0  0  0  0
   18.5457  -12.8761  -14.4708 C   0  0  0  0  0  0  0  0  0  0  0  0
   17.8279  -14.0852  -13.9785 C   0  0  0  0  0  0  0  0  0  0  0  0
   16.4758  -14.3027  -13.9425 C   0  0  0  0  0  0  0  0  0  0  0  0
   16.2790  -15.5200  -13.4257 N   0  0  0  0  0  0  0  0  0  0  0  0
   17.4585  -16.0882  -13.1301 C   0  0  0  0  0  0  0  0  0  0  0  0
   17.8263  -17.3192  -12.5834 C   0  0  0  0  0  0  0  0  0  0  0  0
   19.1497  -17.6470  -12.3859 C   0  0  0  0  0  0  0  0  0  0  0  0
   20.1578  -16.7671  -12.7226 C   0  0  0  0  0  0  0  0  0  0  0  0
   19.7725  -15.5579  -13.2604 C   0  0  0  0  0  0  0  0  0  0  0  0
   18.4357  -15.2108  -13.4670 C   0  0  0  0  0  0  0  0  0  0  0  0
   18.3581  -10.8911  -15.9501 C   0  0  0  0  0  0  0  0  0  0  0  0
   18.7095  -10.9888  -17.1538 O   0  0  0  0  0  0  0  0  0  0  0  0
   18.1457   -9.0488  -18.1007 C   0  0  0  0  0  0  0  0  0  0  0  0
   18.4065   -8.0638  -17.0236 C   0  0  1  0  0  0  0  0  0  0  0  0
   17.1272   -7.6912  -16.5264 O   0  0  0  0  0  0  0  0  0  0  0  0
   19.2783   -8.5250  -15.8911 C   0  0  2  0  0  0  0  0  0  0  0  0
   18.6644   -9.6994  -15.2434 N   0  0  0  0  0  0  0  0  0  0  0  0
   19.5641   -7.4941  -14.8714 C   0  0  0  0  0  0  0  0  0  0  0  0
   18.8106   -7.3562  -13.8468 O   0  0  0  0  0  0  0  0  0  0  0  0
   22.7713   -4.5426  -12.8735 O   0  0  0  0  0  0  0  0  0  0  0  0
   22.4716   -5.4352  -13.9105 C   0  0  0  0  0  0  0  0  0  0  0  0
   20.9594   -5.6891  -13.8236 C   0  0  2  0  0  0  0  0  0  0  0  0
   20.6539   -6.5936  -14.9170 N   0  0  0  0  0  0  0  0  0  0  0  0
   20.2238   -4.4333  -14.0373 C   0  0  0  0  0  0  0  0  0  0  0  0
   19.7014   -3.7486  -12.9595 O   0  0  0  0  0  0  0  0  0  0  0  0
   20.0690   -3.9828  -15.1862 O   0  0  0  0  0  0  0  0  0  0  0  0
  2  1  1  6
  2  3  1  0
  2 13  1  0
  4 12  1  0
  4  3  1  0
  5  4  2  0
  6  5  1  0
  6  7  1  0
  7  8  1  0
  7 12  2  0
  8  9  2  0
  9 10  1  0
 11 10  2  0
 12 11  1  0
 13 14  2  0
 16 18  1  0
 16 15  1  6
 17 16  1  0
 19 13  1  0
 18 19  1  1
 20 25  1  0
 20 18  1  0
 21 20  2  0
 23 22  1  0
 24 25  1  0
 24 23  1  6
 26 27  1  0
 26 24  1  0
 28 26  2  0
M  END
$$$$
