WTS.pdb
     RDKit          3D

 28 29  0  0  1  0  0  0  0  0999 V2000
  -27.7748  -52.8118   -2.6165 N   0  0  0  0  0  0  0  0  0  0  0  0
  -28.2086  -54.1911   -2.4938 C   0  0  1  0  0  0  0  0  0  0  0  0
  -27.0104  -55.0882   -2.7108 C   0  0  0  0  0  0  0  0  0  0  0  0
  -27.2685  -56.0535   -3.8159 C   0  0  0  0  0  0  0  0  0  0  0  0
  -26.4936  -56.2931   -4.9198 C   0  0  0  0  0  0  0  0  0  0  0  0
  -27.1056  -57.2371   -5.6423 N   0  0  0  0  0  0  0  0  0  0  0  0
  -28.2450  -57.6091   -5.0383 C   0  0  0  0  0  0  0  0  0  0  0  0
  -29.2444  -58.5332   -5.3492 C   0  0  0  0  0  0  0  0  0  0  0  0
  -30.3332  -58.7133   -4.5245 C   0  0  0  0  0  0  0  0  0  0  0  0
  -30.4721  -57.9844   -3.3613 C   0  0  0  0  0  0  0  0  0  0  0  0
  -29.4743  -57.0779   -3.0738 C   0  0  0  0  0  0  0  0  0  0  0  0
  -28.3648  -56.8837   -3.8991 C   0  0  0  0  0  0  0  0  0  0  0  0
  -28.7898  -54.3549   -1.1425 C   0  0  0  0  0  0  0  0  0  0  0  0
  -28.6696  -55.4766   -0.5862 O   0  0  0  0  0  0  0  0  0  0  0  0
  -31.4239  -54.1443   -2.1398 C   0  0  0  0  0  0  0  0  0  0  0  0
  -31.3763  -52.6964   -1.8245 C   0  0  1  0  0  0  0  0  0  0  0  0
  -32.5079  -52.4458   -1.0002 O   0  0  0  0  0  0  0  0  0  0  0  0
  -30.1322  -52.1992   -1.1461 C   0  0  2  0  0  0  0  0  0  0  0  0
  -29.4691  -53.3186   -0.4511 N   0  0  0  0  0  0  0  0  0  0  0  0
  -30.3481  -51.0885   -0.1954 C   0  0  0  0  0  0  0  0  0  0  0  0
  -30.4529  -51.3090    1.0604 O   0  0  0  0  0  0  0  0  0  0  0  0
  -30.2826  -50.3831    2.0003 O   0  0  0  0  0  0  0  0  0  0  0  0
  -31.1680  -49.3460    1.6802 C   0  0  0  0  0  0  0  0  0  0  0  0
  -30.5884  -48.6688    0.4294 C   0  0  2  0  0  0  0  0  0  0  0  0
  -30.4537  -49.7252   -0.5571 N   0  0  0  0  0  0  0  0  0  0  0  0
  -29.2514  -48.1295    0.7212 C   0  0  0  0  0  0  0  0  0  0  0  0
  -28.8485  -47.9565    2.0294 O   0  0  0  0  0  0  0  0  0  0  0  0
  -28.4791  -47.8275   -0.2056 O   0  0  0  0  0  0  0  0  0  0  0  0
  2  1  1  1
  2  3  1  0
  2 13  1  0
  4 12  1  0
  4  3  1  0
  5  4  2  0
  6  5  1  0
  6  7  1  0
  7  8  1  0
  7 12  2  0
  8  9  2  0
  9 10  1  0
 11 10  2  0
 12 11  1  0
 13 14  2  0
 16 18  1  0
 16 15  1  1
 17 16  1  0
 19 13  1  0
 18 19  1  1
 20 25  1  0
 20 18  1  0
 21 20  2  0
 23 22  1  0
 24 25  1  0
 24 23  1  1
 26 27  1  0
 26 24  1  0
 28 26  2  0
M  END
$$$$
