WTS.pdb
     RDKit          3D

 28 29  0  0  1  0  0  0  0  0999 V2000
   22.9010  -20.5845  -15.8782 N   0  0  0  0  0  0  0  0  0  0  0  0
   22.8586  -20.9201  -14.4671 C   0  0  1  0  0  0  0  0  0  0  0  0
   21.8907  -22.0671  -14.2793 C   0  0  0  0  0  0  0  0  0  0  0  0
   20.5669  -21.5680  -13.8126 C   0  0  0  0  0  0  0  0  0  0  0  0
   19.3789  -21.5743  -14.4947 C   0  0  0  0  0  0  0  0  0  0  0  0
   18.4545  -21.0319  -13.6953 N   0  0  0  0  0  0  0  0  0  0  0  0
   19.0106  -20.6791  -12.5258 C   0  0  0  0  0  0  0  0  0  0  0  0
   18.5160  -20.0865  -11.3623 C   0  0  0  0  0  0  0  0  0  0  0  0
   19.3363  -19.8330  -10.2848 C   0  0  0  0  0  0  0  0  0  0  0  0
   20.6769  -20.1574  -10.3203 C   0  0  0  0  0  0  0  0  0  0  0  0
   21.1440  -20.7412  -11.4782 C   0  0  0  0  0  0  0  0  0  0  0  0
   20.3257  -21.0047  -12.5787 C   0  0  0  0  0  0  0  0  0  0  0  0
   24.2342  -21.2786  -14.0546 C   0  0  0  0  0  0  0  0  0  0  0  0
   25.0409  -21.6311  -14.9529 O   0  0  0  0  0  0  0  0  0  0  0  0
   28.1475  -19.6943  -12.6436 C   0  0  0  0  0  0  0  0  0  0  0  0
   26.7438  -19.9927  -13.0163 C   0  0  1  0  0  0  0  0  0  0  0  0
   26.7531  -20.1830  -14.4257 O   0  0  0  0  0  0  0  0  0  0  0  0
   26.1107  -21.1784  -12.3466 C   0  0  2  0  0  0  0  0  0  0  0  0
   24.6824  -21.2443  -12.7088 N   0  0  0  0  0  0  0  0  0  0  0  0
   26.2468  -21.2031  -10.8752 C   0  0  0  0  0  0  0  0  0  0  0  0
   25.2579  -20.9101  -10.1184 O   0  0  0  0  0  0  0  0  0  0  0  0
   29.3095  -20.9237   -7.1876 O   0  0  0  0  0  0  0  0  0  0  0  0
   29.1265  -21.2635   -8.5341 C   0  0  0  0  0  0  0  0  0  0  0  0
   27.6083  -21.2595   -8.7666 C   0  0  2  0  0  0  0  0  0  0  0  0
   27.4310  -21.5413  -10.1795 N   0  0  0  0  0  0  0  0  0  0  0  0
   27.0581  -19.9249   -8.4842 C   0  0  0  0  0  0  0  0  0  0  0  0
   27.2037  -18.9099   -9.4073 O   0  0  0  0  0  0  0  0  0  0  0  0
   26.4605  -19.7042   -7.4161 O   0  0  0  0  0  0  0  0  0  0  0  0
  2  1  1  6
  2  3  1  0
  2 13  1  0
  4 12  1  0
  4  3  1  0
  5  4  2  0
  6  5  1  0
  6  7  1  0
  7  8  1  0
  7 12  2  0
  8  9  2  0
  9 10  1  0
 11 10  2  0
 12 11  1  0
 13 14  2  0
 16 18  1  0
 16 15  1  1
 17 16  1  0
 19 13  1  0
 18 19  1  1
 20 25  1  0
 20 18  1  0
 21 20  2  0
 23 22  1  0
 24 25  1  0
 24 23  1  6
 26 27  1  0
 26 24  1  0
 28 26  2  0
M  END
$$$$
