WTS.pdb
     RDKit          3D

 28 29  0  0  1  0  0  0  0  0999 V2000
   22.0634  -20.9392  -12.9642 N   0  0  0  0  0  0  0  0  0  0  0  0
   21.0686  -21.5565  -13.8215 C   0  0  1  0  0  0  0  0  0  0  0  0
   21.7080  -21.8453  -15.1614 C   0  0  0  0  0  0  0  0  0  0  0  0
   22.0016  -20.5787  -15.8888 C   0  0  0  0  0  0  0  0  0  0  0  0
   22.4177  -19.3846  -15.3619 C   0  0  0  0  0  0  0  0  0  0  0  0
   22.5583  -18.5256  -16.3767 N   0  0  0  0  0  0  0  0  0  0  0  0
   22.2462  -19.1292  -17.5342 C   0  0  0  0  0  0  0  0  0  0  0  0
   22.2202  -18.7084  -18.8652 C   0  0  0  0  0  0  0  0  0  0  0  0
   21.8496  -19.5649  -19.8787 C   0  0  0  0  0  0  0  0  0  0  0  0
   21.4910  -20.8701  -19.6108 C   0  0  0  0  0  0  0  0  0  0  0  0
   21.5236  -21.2643  -18.2903 C   0  0  0  0  0  0  0  0  0  0  0  0
   21.8970  -20.4085  -17.2520 C   0  0  0  0  0  0  0  0  0  0  0  0
   20.6058  -22.7903  -13.1475 C   0  0  0  0  0  0  0  0  0  0  0  0
   21.4164  -23.3813  -12.3888 O   0  0  0  0  0  0  0  0  0  0  0  0
   20.1399  -23.7220  -10.4943 C   0  0  0  0  0  0  0  0  0  0  0  0
   18.8290  -24.1179  -11.0627 C   0  0  1  0  0  0  0  0  0  0  0  0
   17.9598  -23.0176  -10.8254 O   0  0  0  0  0  0  0  0  0  0  0  0
   18.8118  -24.4750  -12.5213 C   0  0  2  0  0  0  0  0  0  0  0  0
   19.3055  -23.3331  -13.3139 N   0  0  0  0  0  0  0  0  0  0  0  0
   17.4941  -24.8997  -13.0384 C   0  0  0  0  0  0  0  0  0  0  0  0
   16.8446  -24.1685  -13.8631 O   0  0  0  0  0  0  0  0  0  0  0  0
   15.9323  -27.9569  -11.4681 O   0  0  0  0  0  0  0  0  0  0  0  0
   15.2554  -27.8790  -12.6919 C   0  0  0  0  0  0  0  0  0  0  0  0
   15.5547  -26.4798  -13.2501 C   0  0  2  0  0  0  0  0  0  0  0  0
   16.8426  -26.1070  -12.6940 N   0  0  0  0  0  0  0  0  0  0  0  0
   14.5458  -25.5206  -12.7751 C   0  0  0  0  0  0  0  0  0  0  0  0
   13.3387  -25.4073  -13.4335 O   0  0  0  0  0  0  0  0  0  0  0  0
   14.7737  -24.8087  -11.7812 O   0  0  0  0  0  0  0  0  0  0  0  0
  2  1  1  1
  2  3  1  0
  2 13  1  0
  4 12  1  0
  4  3  1  0
  5  4  2  0
  6  5  1  0
  6  7  1  0
  7  8  1  0
  7 12  2  0
  8  9  2  0
  9 10  1  0
 11 10  2  0
 12 11  1  0
 13 14  2  0
 16 18  1  0
 16 15  1  6
 17 16  1  0
 19 13  1  0
 18 19  1  6
 20 25  1  0
 20 18  1  0
 21 20  2  0
 23 22  1  0
 24 25  1  0
 24 23  1  1
 26 27  1  0
 26 24  1  0
 28 26  2  0
M  END
$$$$
