WTS.pdb
     RDKit          3D

 28 29  0  0  1  0  0  0  0  0999 V2000
   27.0989  -21.5546  -12.6292 N   0  0  0  0  0  0  0  0  0  0  0  0
   26.0434  -21.3152  -11.6626 C   0  0  1  0  0  0  0  0  0  0  0  0
   26.5058  -20.2346  -10.7107 C   0  0  0  0  0  0  0  0  0  0  0  0
   27.6980  -20.6865   -9.9400 C   0  0  0  0  0  0  0  0  0  0  0  0
   28.7446  -21.4510  -10.3837 C   0  0  0  0  0  0  0  0  0  0  0  0
   29.5874  -21.6111   -9.3582 N   0  0  0  0  0  0  0  0  0  0  0  0
   29.1157  -20.9754   -8.2743 C   0  0  0  0  0  0  0  0  0  0  0  0
   29.5824  -20.8204   -6.9675 C   0  0  0  0  0  0  0  0  0  0  0  0
   28.8730  -20.0940   -6.0364 C   0  0  0  0  0  0  0  0  0  0  0  0
   27.6747  -19.4944   -6.3656 C   0  0  0  0  0  0  0  0  0  0  0  0
   27.2326  -19.6602   -7.6606 C   0  0  0  0  0  0  0  0  0  0  0  0
   27.9399  -20.3931   -8.6158 C   0  0  0  0  0  0  0  0  0  0  0  0
   24.8343  -20.9139  -12.4161 C   0  0  0  0  0  0  0  0  0  0  0  0
   24.9083  -19.8849  -13.1355 O   0  0  0  0  0  0  0  0  0  0  0  0
   23.8538  -21.4083  -15.3780 C   0  0  0  0  0  0  0  0  0  0  0  0
   22.7034  -21.9313  -14.6025 C   0  0  1  0  0  0  0  0  0  0  0  0
   22.9380  -23.3270  -14.4622 O   0  0  0  0  0  0  0  0  0  0  0  0
   22.4705  -21.3159  -13.2526 C   0  0  2  0  0  0  0  0  0  0  0  0
   23.6082  -21.6264  -12.3667 N   0  0  0  0  0  0  0  0  0  0  0  0
   21.2105  -21.7234  -12.5964 C   0  0  0  0  0  0  0  0  0  0  0  0
   21.2111  -22.5803  -11.6466 O   0  0  0  0  0  0  0  0  0  0  0  0
   16.4746  -21.0764  -11.9768 O   0  0  0  0  0  0  0  0  0  0  0  0
   17.6445  -20.6448  -12.6148 C   0  0  0  0  0  0  0  0  0  0  0  0
   18.7226  -21.6803  -12.2625 C   0  0  2  0  0  0  0  0  0  0  0  0
   19.9287  -21.2286  -12.9321 N   0  0  0  0  0  0  0  0  0  0  0  0
   18.3535  -22.9972  -12.8040 C   0  0  0  0  0  0  0  0  0  0  0  0
   17.6975  -23.9115  -12.0057 O   0  0  0  0  0  0  0  0  0  0  0  0
   18.6291  -23.2934  -13.9800 O   0  0  0  0  0  0  0  0  0  0  0  0
  2  1  1  6
  2  3  1  0
  2 13  1  0
  4 12  1  0
  4  3  1  0
  5  4  2  0
  6  5  1  0
  6  7  1  0
  7  8  1  0
  7 12  2  0
  8  9  2  0
  9 10  1  0
 11 10  2  0
 12 11  1  0
 13 14  2  0
 16 18  1  0
 16 15  1  1
 17 16  1  0
 19 13  1  0
 18 19  1  1
 20 25  1  0
 20 18  1  0
 21 20  2  0
 23 22  1  0
 24 25  1  0
 24 23  1  6
 26 27  1  0
 26 24  1  0
 28 26  2  0
M  END
$$$$
