WTS.pdb
     RDKit          3D

 28 29  0  0  1  0  0  0  0  0999 V2000
   23.4411  -19.0079  -16.6455 N   0  0  0  0  0  0  0  0  0  0  0  0
   22.1902  -18.2748  -16.5848 C   0  0  1  0  0  0  0  0  0  0  0  0
   21.6595  -18.1214  -17.9928 C   0  0  0  0  0  0  0  0  0  0  0  0
   22.1726  -16.8690  -18.6155 C   0  0  0  0  0  0  0  0  0  0  0  0
   23.4579  -16.3952  -18.6131 C   0  0  0  0  0  0  0  0  0  0  0  0
   23.4618  -15.2422  -19.2899 N   0  0  0  0  0  0  0  0  0  0  0  0
   22.2232  -14.9625  -19.7249 C   0  0  0  0  0  0  0  0  0  0  0  0
   21.6742  -13.9119  -20.4626 C   0  0  0  0  0  0  0  0  0  0  0  0
   20.3325  -13.8816  -20.7740 C   0  0  0  0  0  0  0  0  0  0  0  0
   19.4851  -14.8911  -20.3659 C   0  0  0  0  0  0  0  0  0  0  0  0
   20.0479  -15.9181  -19.6389 C   0  0  0  0  0  0  0  0  0  0  0  0
   21.4055  -15.9634  -19.3153 C   0  0  0  0  0  0  0  0  0  0  0  0
   21.2663  -19.0444  -15.7219 C   0  0  0  0  0  0  0  0  0  0  0  0
   21.3847  -20.2965  -15.7087 O   0  0  0  0  0  0  0  0  0  0  0  0
   21.1700  -19.3620  -12.2168 C   0  0  0  0  0  0  0  0  0  0  0  0
   19.7882  -18.9783  -12.5932 C   0  0  1  0  0  0  0  0  0  0  0  0
   19.6801  -17.5920  -12.2946 O   0  0  0  0  0  0  0  0  0  0  0  0
   19.3900  -19.2243  -14.0201 C   0  0  2  0  0  0  0  0  0  0  0  0
   20.2636  -18.4444  -14.9169 N   0  0  0  0  0  0  0  0  0  0  0  0
   17.9759  -18.9246  -14.3279 C   0  0  0  0  0  0  0  0  0  0  0  0
   17.6392  -17.8056  -14.8485 O   0  0  0  0  0  0  0  0  0  0  0  0
   13.4419  -20.5238  -14.7464 O   0  0  0  0  0  0  0  0  0  0  0  0
   14.7359  -20.7878  -14.2795 C   0  0  0  0  0  0  0  0  0  0  0  0
   15.5394  -19.5004  -14.5155 C   0  0  2  0  0  0  0  0  0  0  0  0
   16.8942  -19.8051  -14.0927 N   0  0  0  0  0  0  0  0  0  0  0  0
   15.0182  -18.4177  -13.6672 C   0  0  0  0  0  0  0  0  0  0  0  0
   14.0748  -17.5438  -14.1672 O   0  0  0  0  0  0  0  0  0  0  0  0
   15.4228  -18.2838  -12.4989 O   0  0  0  0  0  0  0  0  0  0  0  0
  2  1  1  6
  2  3  1  0
  2 13  1  0
  4 12  1  0
  4  3  1  0
  5  4  2  0
  6  5  1  0
  6  7  1  0
  7  8  1  0
  7 12  2  0
  8  9  2  0
  9 10  1  0
 11 10  2  0
 12 11  1  0
 13 14  2  0
 16 18  1  0
 16 15  1  6
 17 16  1  0
 19 13  1  0
 18 19  1  6
 20 25  1  0
 20 18  1  0
 21 20  2  0
 23 22  1  0
 24 25  1  0
 24 23  1  1
 26 27  1  0
 26 24  1  0
 28 26  2  0
M  END
$$$$
