WTS.pdb
     RDKit          3D

 28 29  0  0  1  0  0  0  0  0999 V2000
   22.8798  -21.5244   -5.2705 N   0  0  0  0  0  0  0  0  0  0  0  0
   23.7080  -20.6112   -4.5051 C   0  0  1  0  0  0  0  0  0  0  0  0
   24.1472  -19.4879   -5.4178 C   0  0  0  0  0  0  0  0  0  0  0  0
   25.2619  -19.9321   -6.3008 C   0  0  0  0  0  0  0  0  0  0  0  0
   25.1751  -20.4603   -7.5617 C   0  0  0  0  0  0  0  0  0  0  0  0
   26.4204  -20.7135   -7.9772 N   0  0  0  0  0  0  0  0  0  0  0  0
   27.3004  -20.3654   -7.0253 C   0  0  0  0  0  0  0  0  0  0  0  0
   28.6928  -20.4133   -6.9348 C   0  0  0  0  0  0  0  0  0  0  0  0
   29.3513  -19.9763   -5.8064 C   0  0  0  0  0  0  0  0  0  0  0  0
   28.6545  -19.4756   -4.7258 C   0  0  0  0  0  0  0  0  0  0  0  0
   27.2810  -19.4375   -4.8365 C   0  0  0  0  0  0  0  0  0  0  0  0
   26.5989  -19.8764   -5.9731 C   0  0  0  0  0  0  0  0  0  0  0  0
   22.8953  -20.1209   -3.3694 C   0  0  0  0  0  0  0  0  0  0  0  0
   22.8967  -18.8842   -3.1401 O   0  0  0  0  0  0  0  0  0  0  0  0
   20.8749  -18.3051   -2.7102 C   0  0  0  0  0  0  0  0  0  0  0  0
   20.3072  -19.4555   -1.9669 C   0  0  1  0  0  0  0  0  0  0  0  0
   19.4131  -20.0930   -2.8708 O   0  0  0  0  0  0  0  0  0  0  0  0
   21.2895  -20.4571   -1.4310 C   0  0  2  0  0  0  0  0  0  0  0  0
   22.1225  -20.9696   -2.5352 N   0  0  0  0  0  0  0  0  0  0  0  0
   20.6816  -21.5922   -0.7056 C   0  0  0  0  0  0  0  0  0  0  0  0
   20.6079  -22.7514   -1.2417 O   0  0  0  0  0  0  0  0  0  0  0  0
   18.3348  -23.2033    3.2004 O   0  0  0  0  0  0  0  0  0  0  0  0
   18.9889  -22.1253    2.5905 C   0  0  0  0  0  0  0  0  0  0  0  0
   19.4134  -22.6222    1.2006 C   0  0  2  0  0  0  0  0  0  0  0  0
   20.1442  -21.5207    0.6008 N   0  0  0  0  0  0  0  0  0  0  0  0
   18.2251  -22.8967    0.3783 C   0  0  0  0  0  0  0  0  0  0  0  0
   17.8928  -24.1974    0.0599 O   0  0  0  0  0  0  0  0  0  0  0  0
   17.5154  -21.9620   -0.0333 O   0  0  0  0  0  0  0  0  0  0  0  0
  2  1  1  6
  2  3  1  0
  2 13  1  0
  4 12  1  0
  4  3  1  0
  5  4  2  0
  6  5  1  0
  6  7  1  0
  7  8  1  0
  7 12  2  0
  8  9  2  0
  9 10  1  0
 11 10  2  0
 12 11  1  0
 13 14  2  0
 16 18  1  0
 16 15  1  6
 17 16  1  0
 19 13  1  0
 18 19  1  6
 20 25  1  0
 20 18  1  0
 21 20  2  0
 23 22  1  0
 24 25  1  0
 24 23  1  1
 26 27  1  0
 26 24  1  0
 28 26  2  0
M  END
$$$$
