WTS.pdb
     RDKit          3D

 28 29  0  0  1  0  0  0  0  0999 V2000
   28.3767  -20.6319   -9.9080 N   0  0  0  0  0  0  0  0  0  0  0  0
   26.9678  -20.9452   -9.7574 C   0  0  1  0  0  0  0  0  0  0  0  0
   26.3157  -19.8361   -8.9623 C   0  0  0  0  0  0  0  0  0  0  0  0
   27.1630  -19.4546   -7.7978 C   0  0  0  0  0  0  0  0  0  0  0  0
   27.9317  -18.3303   -7.6509 C   0  0  0  0  0  0  0  0  0  0  0  0
   28.5186  -18.3995   -6.4515 N   0  0  0  0  0  0  0  0  0  0  0  0
   28.1516  -19.5292   -5.8267 C   0  0  0  0  0  0  0  0  0  0  0  0
   28.4592  -20.0883   -4.5848 C   0  0  0  0  0  0  0  0  0  0  0  0
   27.9230  -21.2949   -4.1914 C   0  0  0  0  0  0  0  0  0  0  0  0
   27.0622  -21.9922   -5.0141 C   0  0  0  0  0  0  0  0  0  0  0  0
   26.7724  -21.4222   -6.2352 C   0  0  0  0  0  0  0  0  0  0  0  0
   27.3074  -20.2004   -6.6484 C   0  0  0  0  0  0  0  0  0  0  0  0
   26.3931  -21.0692  -11.1157 C   0  0  0  0  0  0  0  0  0  0  0  0
   27.0685  -21.6805  -11.9829 O   0  0  0  0  0  0  0  0  0  0  0  0
   25.5987  -23.0847  -12.7167 C   0  0  0  0  0  0  0  0  0  0  0  0
   24.3928  -22.2754  -13.0151 C   0  0  1  0  0  0  0  0  0  0  0  0
   23.3617  -22.8046  -12.1908 O   0  0  0  0  0  0  0  0  0  0  0  0
   24.5095  -20.7942  -12.7965 C   0  0  2  0  0  0  0  0  0  0  0  0
   25.1300  -20.5373  -11.4833 N   0  0  0  0  0  0  0  0  0  0  0  0
   23.2345  -20.0529  -12.8917 C   0  0  0  0  0  0  0  0  0  0  0  0
   22.4659  -19.9336  -11.8759 O   0  0  0  0  0  0  0  0  0  0  0  0
   22.2873  -18.7946  -16.2880 O   0  0  0  0  0  0  0  0  0  0  0  0
   21.4653  -18.0048  -15.4741 C   0  0  0  0  0  0  0  0  0  0  0  0
   21.5380  -18.6275  -14.0720 C   0  0  2  0  0  0  0  0  0  0  0  0
   22.7524  -19.4225  -14.0625 N   0  0  0  0  0  0  0  0  0  0  0  0
   20.3916  -19.5239  -13.8579 C   0  0  0  0  0  0  0  0  0  0  0  0
   19.1793  -19.0070  -13.4496 O   0  0  0  0  0  0  0  0  0  0  0  0
   20.5075  -20.7482  -14.0431 O   0  0  0  0  0  0  0  0  0  0  0  0
  2  1  1  6
  2  3  1  0
  2 13  1  0
  4 12  1  0
  4  3  1  0
  5  4  2  0
  6  5  1  0
  6  7  1  0
  7  8  1  0
  7 12  2  0
  8  9  2  0
  9 10  1  0
 11 10  2  0
 12 11  1  0
 13 14  2  0
 16 18  1  0
 16 15  1  1
 17 16  1  0
 19 13  1  0
 18 19  1  1
 20 25  1  0
 20 18  1  0
 21 20  2  0
 23 22  1  0
 24 25  1  0
 24 23  1  6
 26 27  1  0
 26 24  1  0
 28 26  2  0
M  END
$$$$
