WTS.pdb
     RDKit          3D

 28 29  0  0  1  0  0  0  0  0999 V2000
   28.3134  -21.4461  -10.6804 N   0  0  0  0  0  0  0  0  0  0  0  0
   26.9908  -21.1553  -10.1590 C   0  0  1  0  0  0  0  0  0  0  0  0
   27.1237  -20.0967   -9.0870 C   0  0  0  0  0  0  0  0  0  0  0  0
   28.1892  -20.4645   -8.1129 C   0  0  0  0  0  0  0  0  0  0  0  0
   29.3203  -21.2020   -8.3440 C   0  0  0  0  0  0  0  0  0  0  0  0
   29.9896  -21.2826   -7.1894 N   0  0  0  0  0  0  0  0  0  0  0  0
   29.3253  -20.6221   -6.2281 C   0  0  0  0  0  0  0  0  0  0  0  0
   29.5668  -20.3923   -4.8722 C   0  0  0  0  0  0  0  0  0  0  0  0
   28.6899  -19.6579   -4.1043 C   0  0  0  0  0  0  0  0  0  0  0  0
   27.5411  -19.1241   -4.6514 C   0  0  0  0  0  0  0  0  0  0  0  0
   27.3224  -19.3633   -5.9912 C   0  0  0  0  0  0  0  0  0  0  0  0
   28.2013  -20.1053   -6.7829 C   0  0  0  0  0  0  0  0  0  0  0  0
   26.1573  -20.6980  -11.2934 C   0  0  0  0  0  0  0  0  0  0  0  0
   26.7474  -20.3245  -12.3394 O   0  0  0  0  0  0  0  0  0  0  0  0
   25.6423  -21.4511  -13.9426 C   0  0  0  0  0  0  0  0  0  0  0  0
   24.2212  -21.3229  -13.5397 C   0  0  1  0  0  0  0  0  0  0  0  0
   23.8157  -22.6270  -13.1427 O   0  0  0  0  0  0  0  0  0  0  0  0
   23.9217  -20.3408  -12.4437 C   0  0  2  0  0  0  0  0  0  0  0  0
   24.7393  -20.6609  -11.2585 N   0  0  0  0  0  0  0  0  0  0  0  0
   22.4982  -20.2649  -12.0536 C   0  0  0  0  0  0  0  0  0  0  0  0
   22.0698  -20.8666  -11.0091 O   0  0  0  0  0  0  0  0  0  0  0  0
   20.0100  -17.3388  -13.2595 O   0  0  0  0  0  0  0  0  0  0  0  0
   19.4004  -18.5978  -13.3334 C   0  0  0  0  0  0  0  0  0  0  0  0
   20.1275  -19.4785  -12.3065 C   0  0  2  0  0  0  0  0  0  0  0  0
   21.5045  -19.5483  -12.7604 N   0  0  0  0  0  0  0  0  0  0  0  0
   19.5631  -20.8367  -12.3171 C   0  0  0  0  0  0  0  0  0  0  0  0
   20.0483  -21.7778  -13.2017 O   0  0  0  0  0  0  0  0  0  0  0  0
   18.6489  -21.1441  -11.5319 O   0  0  0  0  0  0  0  0  0  0  0  0
  2  1  1  6
  2  3  1  0
  2 13  1  0
  4 12  1  0
  4  3  1  0
  5  4  2  0
  6  5  1  0
  6  7  1  0
  7  8  1  0
  7 12  2  0
  8  9  2  0
  9 10  1  0
 11 10  2  0
 12 11  1  0
 13 14  2  0
 16 18  1  0
 16 15  1  1
 17 16  1  0
 19 13  1  0
 18 19  1  1
 20 25  1  0
 20 18  1  0
 21 20  2  0
 23 22  1  0
 24 25  1  0
 24 23  1  6
 26 27  1  0
 26 24  1  0
 28 26  2  0
M  END
$$$$
