WTS.pdb
     RDKit          3D

 28 29  0  0  1  0  0  0  0  0999 V2000
   25.7085  -22.2255   -9.6432 N   0  0  0  0  0  0  0  0  0  0  0  0
   25.6569  -20.7833   -9.7948 C   0  0  1  0  0  0  0  0  0  0  0  0
   26.8277  -20.1839   -9.0481 C   0  0  0  0  0  0  0  0  0  0  0  0
   26.6175  -20.2782   -7.5762 C   0  0  0  0  0  0  0  0  0  0  0  0
   25.4845  -20.6694   -6.9129 C   0  0  0  0  0  0  0  0  0  0  0  0
   25.7440  -20.6047   -5.6029 N   0  0  0  0  0  0  0  0  0  0  0  0
   27.0037  -20.1856   -5.4059 C   0  0  0  0  0  0  0  0  0  0  0  0
   27.7738  -19.9470   -4.2659 C   0  0  0  0  0  0  0  0  0  0  0  0
   29.0765  -19.5090   -4.3619 C   0  0  0  0  0  0  0  0  0  0  0  0
   29.6643  -19.2911   -5.5911 C   0  0  0  0  0  0  0  0  0  0  0  0
   28.8863  -19.5327   -6.7029 C   0  0  0  0  0  0  0  0  0  0  0  0
   27.5648  -19.9768   -6.6223 C   0  0  0  0  0  0  0  0  0  0  0  0
   25.7099  -20.4872  -11.2441 C   0  0  0  0  0  0  0  0  0  0  0  0
   26.7668  -20.7763  -11.8617 O   0  0  0  0  0  0  0  0  0  0  0  0
   26.1130  -21.8683  -13.6560 C   0  0  0  0  0  0  0  0  0  0  0  0
   24.8274  -21.2142  -13.9991 C   0  0  1  0  0  0  0  0  0  0  0  0
   23.8124  -22.0957  -13.5351 O   0  0  0  0  0  0  0  0  0  0  0  0
   24.6043  -19.8397  -13.4366 C   0  0  2  0  0  0  0  0  0  0  0  0
   24.6374  -19.8991  -11.9631 N   0  0  0  0  0  0  0  0  0  0  0  0
   23.3523  -19.1881  -13.8747 C   0  0  0  0  0  0  0  0  0  0  0  0
   22.3106  -19.1990  -13.1321 O   0  0  0  0  0  0  0  0  0  0  0  0
   20.9743  -16.6178  -17.2037 O   0  0  0  0  0  0  0  0  0  0  0  0
   22.1837  -17.2218  -16.8370 C   0  0  0  0  0  0  0  0  0  0  0  0
   21.9113  -17.9338  -15.5037 C   0  0  2  0  0  0  0  0  0  0  0  0
   23.1821  -18.5111  -15.1049 N   0  0  0  0  0  0  0  0  0  0  0  0
   20.9449  -19.0247  -15.7023 C   0  0  0  0  0  0  0  0  0  0  0  0
   19.6259  -18.8522  -15.3363 O   0  0  0  0  0  0  0  0  0  0  0  0
   21.3092  -20.1048  -16.1996 O   0  0  0  0  0  0  0  0  0  0  0  0
  2  1  1  6
  2  3  1  0
  2 13  1  0
  4 12  1  0
  4  3  1  0
  5  4  2  0
  6  5  1  0
  6  7  1  0
  7  8  1  0
  7 12  2  0
  8  9  2  0
  9 10  1  0
 11 10  2  0
 12 11  1  0
 13 14  2  0
 16 18  1  0
 16 15  1  1
 17 16  1  0
 19 13  1  0
 18 19  1  1
 20 25  1  0
 20 18  1  0
 21 20  2  0
 23 22  1  0
 24 25  1  0
 24 23  1  6
 26 27  1  0
 26 24  1  0
 28 26  2  0
M  END
$$$$
