MFR.pdb
     RDKit          3D

 31 31  0  0  1  0  0  0  0  0999 V2000
   24.2576  -19.5953  -19.8279 C   0  0  0  0  0  0  0  0  0  0  0  0
   25.5272  -20.8124  -20.1554 S   0  0  0  0  0  0  0  0  0  0  0  0
   25.0959  -22.4480  -19.5883 C   0  0  0  0  0  0  0  0  0  0  0  0
   24.5862  -22.5509  -18.1946 C   0  0  0  0  0  0  0  0  0  0  0  0
   25.6189  -22.3570  -17.1417 C   0  0  2  0  0  0  0  0  0  0  0  0
   26.6209  -23.4013  -17.1539 N   0  0  0  0  0  0  0  0  0  0  0  0
   24.9511  -22.3641  -15.8059 C   0  0  0  0  0  0  0  0  0  0  0  0
   24.9194  -23.4519  -15.1782 O   0  0  0  0  0  0  0  0  0  0  0  0
   24.3693  -21.1881  -15.2557 N   0  0  0  0  0  0  0  0  0  0  0  0
   23.7291  -21.2435  -13.9889 C   0  0  1  0  0  0  0  0  0  0  0  0
   24.1512  -20.1267  -13.0611 C   0  0  0  0  0  0  0  0  0  0  0  0
   23.5424  -20.2008  -11.7280 C   0  0  0  0  0  0  0  0  0  0  0  0
   24.0829  -20.9107  -10.6846 C   0  0  0  0  0  0  0  0  0  0  0  0
   23.4952  -20.9681   -9.4361 C   0  0  0  0  0  0  0  0  0  0  0  0
   22.3360  -20.3037   -9.2079 C   0  0  0  0  0  0  0  0  0  0  0  0
   21.7555  -19.5796  -10.2185 C   0  0  0  0  0  0  0  0  0  0  0  0
   22.3593  -19.5329  -11.4665 C   0  0  0  0  0  0  0  0  0  0  0  0
   22.2537  -21.3992  -14.0536 C   0  0  0  0  0  0  0  0  0  0  0  0
   21.5294  -20.7180  -14.8303 O   0  0  0  0  0  0  0  0  0  0  0  0
   17.6867  -25.8114   -8.4632 N   0  0  0  0  0  0  0  0  0  0  0  0
   18.2201  -26.2484   -9.7046 C   0  0  0  0  0  0  0  0  0  0  0  0
   18.4392  -27.5142   -9.8653 N   0  0  0  0  0  0  0  0  0  0  0  0
   18.4980  -25.3109  -10.7284 N   0  0  0  0  0  0  0  0  0  0  0  0
   17.6819  -24.1472  -10.8774 C   0  0  0  0  0  0  0  0  0  0  0  0
   18.0915  -23.3460  -12.1033 C   0  0  0  0  0  0  0  0  0  0  0  0
   19.5915  -23.1801  -12.0545 C   0  0  0  0  0  0  0  0  0  0  0  0
   20.0972  -22.4245  -13.2814 C   0  0  2  0  0  0  0  0  0  0  0  0
   21.5439  -22.3342  -13.2438 N   0  0  0  0  0  0  0  0  0  0  0  0
   19.5476  -21.0533  -13.3226 C   0  0  0  0  0  0  0  0  0  0  0  0
   18.4402  -20.6542  -14.0511 O   0  0  0  0  0  0  0  0  0  0  0  0
   20.1083  -20.1223  -12.6457 O   0  0  0  0  0  0  0  0  0  0  0  0
  1  2  1  0
  3  2  1  0
  4  3  1  0
  5  4  1  0
  5  6  1  1
  7  5  1  0
  7  8  2  0
  9  7  1  0
 10 11  1  6
 10  9  1  0
 12 11  1  0
 12 17  2  0
 13 12  1  0
 14 13  2  0
 14 15  1  0
 15 16  2  0
 16 17  1  0
 18 10  1  0
 19 18  2  0
 20 21  1  0
 21 22  2  0
 23 21  1  0
 24 23  1  0
 24 25  1  0
 25 26  1  0
 27 26  1  1
 27 28  1  0
 28 18  1  0
 29 30  1  0
 29 27  1  0
 31 29  2  0
M  END
$$$$
