MFR.pdb
     RDKit          3D

 31 31  0  0  1  0  0  0  0  0999 V2000
   19.6261  -14.4867  -21.9794 C   0  0  0  0  0  0  0  0  0  0  0  0
   20.1432  -13.0826  -20.9988 S   0  0  0  0  0  0  0  0  0  0  0  0
   21.7435  -13.3046  -20.2422 C   0  0  0  0  0  0  0  0  0  0  0  0
   22.1599  -12.2669  -19.2611 C   0  0  0  0  0  0  0  0  0  0  0  0
   23.5363  -12.4394  -18.7240 C   0  0  2  0  0  0  0  0  0  0  0  0
   23.7727  -13.7809  -18.2350 N   0  0  0  0  0  0  0  0  0  0  0  0
   23.7335  -11.4863  -17.5913 C   0  0  0  0  0  0  0  0  0  0  0  0
   23.4228  -11.8806  -16.4397 O   0  0  0  0  0  0  0  0  0  0  0  0
   24.2531  -10.1781  -17.7981 N   0  0  0  0  0  0  0  0  0  0  0  0
   24.3980   -9.2937  -16.6960 C   0  0  1  0  0  0  0  0  0  0  0  0
   25.8364   -8.9146  -16.4241 C   0  0  0  0  0  0  0  0  0  0  0  0
   26.7243  -10.0646  -16.2186 C   0  0  0  0  0  0  0  0  0  0  0  0
   26.8768  -10.7003  -15.0114 C   0  0  0  0  0  0  0  0  0  0  0  0
   27.7174  -11.7822  -14.8376 C   0  0  0  0  0  0  0  0  0  0  0  0
   28.4317  -12.2539  -15.8886 C   0  0  0  0  0  0  0  0  0  0  0  0
   28.3145  -11.6530  -17.1165 C   0  0  0  0  0  0  0  0  0  0  0  0
   27.4656  -10.5671  -17.2733 C   0  0  0  0  0  0  0  0  0  0  0  0
   23.4985   -8.1128  -16.7349 C   0  0  0  0  0  0  0  0  0  0  0  0
   23.2628   -7.4695  -17.7943 O   0  0  0  0  0  0  0  0  0  0  0  0
   16.9388   -9.7086  -18.8123 N   0  0  0  0  0  0  0  0  0  0  0  0
   17.3061  -10.3731  -17.6122 C   0  0  0  0  0  0  0  0  0  0  0  0
   16.6878  -11.4681  -17.3046 N   0  0  0  0  0  0  0  0  0  0  0  0
   18.3242   -9.8383  -16.7866 N   0  0  0  0  0  0  0  0  0  0  0  0
   18.9614   -8.6082  -17.1376 C   0  0  0  0  0  0  0  0  0  0  0  0
   20.0044   -8.2182  -16.1019 C   0  0  0  0  0  0  0  0  0  0  0  0
   20.7170   -6.9910  -16.6177 C   0  0  0  0  0  0  0  0  0  0  0  0
   21.8340   -6.5682  -15.6663 C   0  0  2  0  0  0  0  0  0  0  0  0
   22.8298   -7.6184  -15.5763 N   0  0  0  0  0  0  0  0  0  0  0  0
   21.3058   -6.3121  -14.3100 C   0  0  0  0  0  0  0  0  0  0  0  0
   20.3581   -5.3567  -13.9851 O   0  0  0  0  0  0  0  0  0  0  0  0
   21.7300   -7.0051  -13.3205 O   0  0  0  0  0  0  0  0  0  0  0  0
  1  2  1  0
  3  2  1  0
  4  3  1  0
  5  4  1  0
  5  6  1  1
  7  5  1  0
  7  8  2  0
  9  7  1  0
 10 11  1  6
 10  9  1  0
 12 11  1  0
 12 17  2  0
 13 12  1  0
 14 13  2  0
 14 15  1  0
 15 16  2  0
 16 17  1  0
 18 10  1  0
 19 18  2  0
 20 21  1  0
 21 22  2  0
 23 21  1  0
 24 23  1  0
 24 25  1  0
 25 26  1  0
 27 26  1  6
 27 28  1  0
 28 18  1  0
 29 30  1  0
 29 27  1  0
 31 29  2  0
M  END
$$$$
