MFR.pdb
     RDKit          3D

 31 31  0  0  1  0  0  0  0  0999 V2000
   37.4467  -31.1492  -19.7420 C   0  0  0  0  0  0  0  0  0  0  0  0
   37.9536  -29.7128  -20.6804 S   0  0  0  0  0  0  0  0  0  0  0  0
   38.5234  -28.3686  -19.6552 C   0  0  0  0  0  0  0  0  0  0  0  0
   37.6494  -27.9940  -18.5112 C   0  0  0  0  0  0  0  0  0  0  0  0
   36.3675  -27.3459  -18.8976 C   0  0  2  0  0  0  0  0  0  0  0  0
   36.5712  -26.1379  -19.6682 N   0  0  0  0  0  0  0  0  0  0  0  0
   35.6160  -26.9891  -17.6573 C   0  0  0  0  0  0  0  0  0  0  0  0
   35.4845  -27.8799  -16.7813 O   0  0  0  0  0  0  0  0  0  0  0  0
   35.0653  -25.6914  -17.4652 N   0  0  0  0  0  0  0  0  0  0  0  0
   34.2997  -25.4147  -16.3011 C   0  0  1  0  0  0  0  0  0  0  0  0
   34.6124  -24.0667  -15.6915 C   0  0  0  0  0  0  0  0  0  0  0  0
   33.8409  -23.7706  -14.4790 C   0  0  0  0  0  0  0  0  0  0  0  0
   32.5989  -23.1856  -14.4929 C   0  0  0  0  0  0  0  0  0  0  0  0
   31.8874  -22.9152  -13.3405 C   0  0  0  0  0  0  0  0  0  0  0  0
   32.4173  -23.2318  -12.1337 C   0  0  0  0  0  0  0  0  0  0  0  0
   33.6559  -23.8181  -12.0662 C   0  0  0  0  0  0  0  0  0  0  0  0
   34.3569  -24.0826  -13.2337 C   0  0  0  0  0  0  0  0  0  0  0  0
   32.8405  -25.6404  -16.4588 C   0  0  0  0  0  0  0  0  0  0  0  0
   32.1619  -25.1011  -17.3756 O   0  0  0  0  0  0  0  0  0  0  0  0
   25.3230  -28.4503  -13.9375 N   0  0  0  0  0  0  0  0  0  0  0  0
   26.0843  -29.5497  -14.4154 C   0  0  0  0  0  0  0  0  0  0  0  0
   25.4691  -30.4824  -15.0694 N   0  0  0  0  0  0  0  0  0  0  0  0
   27.4782  -29.6075  -14.1744 N   0  0  0  0  0  0  0  0  0  0  0  0
   28.1458  -28.5071  -13.5533 C   0  0  0  0  0  0  0  0  0  0  0  0
   28.6013  -27.4899  -14.5880 C   0  0  0  0  0  0  0  0  0  0  0  0
   30.1107  -27.4610  -14.5596 C   0  0  0  0  0  0  0  0  0  0  0  0
   30.6634  -26.6572  -15.7344 C   0  0  2  0  0  0  0  0  0  0  0  0
   32.0958  -26.4878  -15.5862 N   0  0  0  0  0  0  0  0  0  0  0  0
   30.0420  -25.3178  -15.7987 C   0  0  0  0  0  0  0  0  0  0  0  0
   30.0955  -24.3596  -14.8010 O   0  0  0  0  0  0  0  0  0  0  0  0
   29.3885  -24.9690  -16.8430 O   0  0  0  0  0  0  0  0  0  0  0  0
  1  2  1  0
  3  2  1  0
  4  3  1  0
  5  4  1  0
  5  6  1  1
  7  5  1  0
  7  8  2  0
  9  7  1  0
 10 11  1  6
 10  9  1  0
 12 11  1  0
 12 17  2  0
 13 12  1  0
 14 13  2  0
 14 15  1  0
 15 16  2  0
 16 17  1  0
 18 10  1  0
 19 18  2  0
 20 21  1  0
 21 22  2  0
 23 21  1  0
 24 23  1  0
 24 25  1  0
 25 26  1  0
 27 26  1  1
 27 28  1  0
 28 18  1  0
 29 30  1  0
 29 27  1  0
 31 29  2  0
M  END
$$$$
