MFR.pdb
     RDKit          3D

 31 31  0  0  1  0  0  0  0  0999 V2000
   24.1353  -19.7946   -2.3486 C   0  0  0  0  0  0  0  0  0  0  0  0
   22.6531  -20.7465   -2.6607 S   0  0  0  0  0  0  0  0  0  0  0  0
   22.6322  -21.5058   -4.2750 C   0  0  0  0  0  0  0  0  0  0  0  0
   23.2481  -20.7240   -5.3806 C   0  0  0  0  0  0  0  0  0  0  0  0
   23.2761  -21.4238   -6.6929 C   0  0  2  0  0  0  0  0  0  0  0  0
   23.7506  -22.7864   -6.5806 N   0  0  0  0  0  0  0  0  0  0  0  0
   24.1904  -20.6837   -7.6132 C   0  0  0  0  0  0  0  0  0  0  0  0
   23.8208  -19.5515   -8.0125 O   0  0  0  0  0  0  0  0  0  0  0  0
   25.4359  -21.2319   -8.0282 N   0  0  0  0  0  0  0  0  0  0  0  0
   26.2444  -20.5238   -8.9571 C   0  0  1  0  0  0  0  0  0  0  0  0
   27.7162  -20.5610   -8.6123 C   0  0  0  0  0  0  0  0  0  0  0  0
   28.0284  -20.0200   -7.2844 C   0  0  0  0  0  0  0  0  0  0  0  0
   27.7792  -18.7214   -6.9156 C   0  0  0  0  0  0  0  0  0  0  0  0
   28.0796  -18.2304   -5.6601 C   0  0  0  0  0  0  0  0  0  0  0  0
   28.6444  -19.0465   -4.7369 C   0  0  0  0  0  0  0  0  0  0  0  0
   28.9134  -20.3534   -5.0566 C   0  0  0  0  0  0  0  0  0  0  0  0
   28.6053  -20.8299   -6.3224 C   0  0  0  0  0  0  0  0  0  0  0  0
   25.9869  -20.8649  -10.3792 C   0  0  0  0  0  0  0  0  0  0  0  0
   26.0445  -22.0462  -10.8186 O   0  0  0  0  0  0  0  0  0  0  0  0
   29.6346  -23.1806  -16.6956 N   0  0  0  0  0  0  0  0  0  0  0  0
   28.4974  -22.6534  -17.3629 C   0  0  0  0  0  0  0  0  0  0  0  0
   28.5463  -22.5284  -18.6506 N   0  0  0  0  0  0  0  0  0  0  0  0
   27.3489  -22.2804  -16.6239 N   0  0  0  0  0  0  0  0  0  0  0  0
   27.3991  -22.2279  -15.1967 C   0  0  0  0  0  0  0  0  0  0  0  0
   26.0844  -21.7239  -14.6220 C   0  0  0  0  0  0  0  0  0  0  0  0
   26.3366  -21.3428  -13.1829 C   0  0  0  0  0  0  0  0  0  0  0  0
   25.3763  -20.2440  -12.7329 C   0  0  2  0  0  0  0  0  0  0  0  0
   25.6512  -19.8816  -11.3561 N   0  0  0  0  0  0  0  0  0  0  0  0
   23.9728  -20.6982  -12.8218 C   0  0  0  0  0  0  0  0  0  0  0  0
   23.4441  -21.8023  -12.1753 O   0  0  0  0  0  0  0  0  0  0  0  0
   23.1387  -20.0499  -13.5452 O   0  0  0  0  0  0  0  0  0  0  0  0
  1  2  1  0
  3  2  1  0
  4  3  1  0
  5  4  1  0
  5  6  1  1
  7  5  1  0
  7  8  2  0
  9  7  1  0
 10 11  1  1
 10  9  1  0
 12 11  1  0
 12 17  2  0
 13 12  1  0
 14 13  2  0
 14 15  1  0
 15 16  2  0
 16 17  1  0
 18 10  1  0
 19 18  2  0
 20 21  1  0
 21 22  2  0
 23 21  1  0
 24 23  1  0
 24 25  1  0
 25 26  1  0
 27 26  1  1
 27 28  1  0
 28 18  1  0
 29 30  1  0
 29 27  1  0
 31 29  2  0
M  END
$$$$
