MFR.pdb
     RDKit          3D

 31 31  0  0  1  0  0  0  0  0999 V2000
   26.8769  -20.2639   -4.4118 C   0  0  0  0  0  0  0  0  0  0  0  0
   28.2262  -20.8268   -5.4428 S   0  0  0  0  0  0  0  0  0  0  0  0
   28.3903  -19.8959   -6.9559 C   0  0  0  0  0  0  0  0  0  0  0  0
   27.3782  -20.1677   -8.0117 C   0  0  0  0  0  0  0  0  0  0  0  0
   27.5836  -19.4112   -9.2759 C   0  0  2  0  0  0  0  0  0  0  0  0
   27.4332  -17.9833   -9.0941 N   0  0  0  0  0  0  0  0  0  0  0  0
   26.5731  -19.8650  -10.2775 C   0  0  0  0  0  0  0  0  0  0  0  0
   25.3767  -19.5323  -10.0872 O   0  0  0  0  0  0  0  0  0  0  0  0
   26.9413  -20.6455  -11.4086 N   0  0  0  0  0  0  0  0  0  0  0  0
   26.0686  -20.7237  -12.5267 C   0  0  1  0  0  0  0  0  0  0  0  0
   26.8009  -20.8431  -13.8442 C   0  0  0  0  0  0  0  0  0  0  0  0
   27.3025  -19.5651  -14.3621 C   0  0  0  0  0  0  0  0  0  0  0  0
   28.5393  -19.4118  -14.9381 C   0  0  0  0  0  0  0  0  0  0  0  0
   28.9938  -18.2002  -15.4207 C   0  0  0  0  0  0  0  0  0  0  0  0
   28.2032  -17.1026  -15.3329 C   0  0  0  0  0  0  0  0  0  0  0  0
   26.9581  -17.2036  -14.7654 C   0  0  0  0  0  0  0  0  0  0  0  0
   26.5174  -18.4283  -14.2857 C   0  0  0  0  0  0  0  0  0  0  0  0
   24.9834  -21.7279  -12.3886 C   0  0  0  0  0  0  0  0  0  0  0  0
   25.1157  -22.7871  -11.7160 O   0  0  0  0  0  0  0  0  0  0  0  0
   16.9720  -22.9844  -12.0530 N   0  0  0  0  0  0  0  0  0  0  0  0
   17.8193  -23.1465  -10.9250 C   0  0  0  0  0  0  0  0  0  0  0  0
   17.4848  -24.0179  -10.0280 N   0  0  0  0  0  0  0  0  0  0  0  0
   18.9952  -22.3677  -10.8014 N   0  0  0  0  0  0  0  0  0  0  0  0
   19.2754  -21.3350  -11.7487 C   0  0  0  0  0  0  0  0  0  0  0  0
   20.3259  -21.7844  -12.7522 C   0  0  0  0  0  0  0  0  0  0  0  0
   21.5716  -22.1374  -11.9753 C   0  0  0  0  0  0  0  0  0  0  0  0
   22.6874  -22.5955  -12.9118 C   0  0  2  0  0  0  0  0  0  0  0  0
   23.7069  -21.5686  -13.0043 N   0  0  0  0  0  0  0  0  0  0  0  0
   22.1657  -22.8552  -14.2699 C   0  0  0  0  0  0  0  0  0  0  0  0
   21.4260  -23.9628  -14.6472 O   0  0  0  0  0  0  0  0  0  0  0  0
   22.3915  -22.0155  -15.2097 O   0  0  0  0  0  0  0  0  0  0  0  0
  1  2  1  0
  3  2  1  0
  4  3  1  0
  5  4  1  0
  5  6  1  1
  7  5  1  0
  7  8  2  0
  9  7  1  0
 10 11  1  6
 10  9  1  0
 12 11  1  0
 12 17  2  0
 13 12  1  0
 14 13  2  0
 14 15  1  0
 15 16  2  0
 16 17  1  0
 18 10  1  0
 19 18  2  0
 20 21  1  0
 21 22  2  0
 23 21  1  0
 24 23  1  0
 24 25  1  0
 25 26  1  0
 27 26  1  1
 27 28  1  0
 28 18  1  0
 29 30  1  0
 29 27  1  0
 31 29  2  0
M  END
$$$$
