MFR.pdb
     RDKit          3D

 31 31  0  0  1  0  0  0  0  0999 V2000
   19.6063  -26.8106  -10.9682 C   0  0  0  0  0  0  0  0  0  0  0  0
   18.7583  -25.4202  -10.2278 S   0  0  0  0  0  0  0  0  0  0  0  0
   17.3604  -25.9003   -9.2288 C   0  0  0  0  0  0  0  0  0  0  0  0
   17.6546  -26.2835   -7.8218 C   0  0  0  0  0  0  0  0  0  0  0  0
   17.9133  -25.1378   -6.9091 C   0  0  2  0  0  0  0  0  0  0  0  0
   19.1047  -24.4013   -7.2736 N   0  0  0  0  0  0  0  0  0  0  0  0
   18.0913  -25.6594   -5.5211 C   0  0  0  0  0  0  0  0  0  0  0  0
   19.2646  -25.8772   -5.1284 O   0  0  0  0  0  0  0  0  0  0  0  0
   16.9800  -25.9040   -4.6671 N   0  0  0  0  0  0  0  0  0  0  0  0
   17.1957  -26.3858   -3.3484 C   0  0  1  0  0  0  0  0  0  0  0  0
   16.2264  -25.8107   -2.3402 C   0  0  0  0  0  0  0  0  0  0  0  0
   16.4024  -26.3362   -0.9815 C   0  0  0  0  0  0  0  0  0  0  0  0
   17.3690  -25.8909   -0.1142 C   0  0  0  0  0  0  0  0  0  0  0  0
   17.5187  -26.3976    1.1618 C   0  0  0  0  0  0  0  0  0  0  0  0
   16.6880  -27.3759    1.5981 C   0  0  0  0  0  0  0  0  0  0  0  0
   15.7053  -27.8551    0.7691 C   0  0  0  0  0  0  0  0  0  0  0  0
   15.5692  -27.3349   -0.5096 C   0  0  0  0  0  0  0  0  0  0  0  0
   17.3095  -27.8629   -3.2461 C   0  0  0  0  0  0  0  0  0  0  0  0
   16.8072  -28.6464   -4.0979 O   0  0  0  0  0  0  0  0  0  0  0  0
   21.9835  -33.5576   -1.6633 N   0  0  0  0  0  0  0  0  0  0  0  0
   21.5462  -34.2462   -2.8257 C   0  0  0  0  0  0  0  0  0  0  0  0
   21.7650  -35.5199   -2.9015 N   0  0  0  0  0  0  0  0  0  0  0  0
   20.8891  -33.5427   -3.8638 N   0  0  0  0  0  0  0  0  0  0  0  0
   20.6408  -32.1411   -3.7361 C   0  0  0  0  0  0  0  0  0  0  0  0
   19.1785  -31.8723   -3.4164 C   0  0  0  0  0  0  0  0  0  0  0  0
   18.9889  -30.3745   -3.3927 C   0  0  0  0  0  0  0  0  0  0  0  0
   18.1969  -29.9441   -2.1601 C   0  0  2  0  0  0  0  0  0  0  0  0
   17.9991  -28.5078   -2.1771 N   0  0  0  0  0  0  0  0  0  0  0  0
   18.9156  -30.2988   -0.9184 C   0  0  0  0  0  0  0  0  0  0  0  0
   18.7471  -31.4704   -0.2004 O   0  0  0  0  0  0  0  0  0  0  0  0
   19.7745  -29.4870   -0.4262 O   0  0  0  0  0  0  0  0  0  0  0  0
  1  2  1  0
  3  2  1  0
  4  3  1  0
  5  4  1  0
  5  6  1  6
  7  5  1  0
  7  8  2  0
  9  7  1  0
 10 11  1  1
 10  9  1  0
 12 11  1  0
 12 17  2  0
 13 12  1  0
 14 13  2  0
 14 15  1  0
 15 16  2  0
 16 17  1  0
 18 10  1  0
 19 18  2  0
 20 21  1  0
 21 22  2  0
 23 21  1  0
 24 23  1  0
 24 25  1  0
 25 26  1  0
 27 26  1  6
 27 28  1  0
 28 18  1  0
 29 30  1  0
 29 27  1  0
 31 29  2  0
M  END
$$$$
