MFR.pdb
     RDKit          3D

 31 31  0  0  1  0  0  0  0  0999 V2000
   19.6120  -28.2878    1.6545 C   0  0  0  0  0  0  0  0  0  0  0  0
   18.1736  -27.2479    1.4306 S   0  0  0  0  0  0  0  0  0  0  0  0
   17.2965  -27.5786   -0.0873 C   0  0  0  0  0  0  0  0  0  0  0  0
   17.8655  -26.9775   -1.3233 C   0  0  0  0  0  0  0  0  0  0  0  0
   17.3465  -27.5590   -2.5903 C   0  0  2  0  0  0  0  0  0  0  0  0
   18.1079  -28.7125   -3.0196 N   0  0  0  0  0  0  0  0  0  0  0  0
   17.4228  -26.5219   -3.6622 C   0  0  0  0  0  0  0  0  0  0  0  0
   17.1219  -25.3424   -3.3516 O   0  0  0  0  0  0  0  0  0  0  0  0
   17.8203  -26.8472   -4.9889 N   0  0  0  0  0  0  0  0  0  0  0  0
   17.8379  -25.8378   -5.9881 C   0  0  1  0  0  0  0  0  0  0  0  0
   18.8528  -26.0991   -7.0782 C   0  0  0  0  0  0  0  0  0  0  0  0
   18.8845  -25.0656   -8.1194 C   0  0  0  0  0  0  0  0  0  0  0  0
   19.4889  -23.8435   -7.9583 C   0  0  0  0  0  0  0  0  0  0  0  0
   19.5089  -22.8833   -8.9508 C   0  0  0  0  0  0  0  0  0  0  0  0
   18.9136  -23.1356  -10.1421 C   0  0  0  0  0  0  0  0  0  0  0  0
   18.2958  -24.3425  -10.3528 C   0  0  0  0  0  0  0  0  0  0  0  0
   18.2850  -25.2956   -9.3450 C   0  0  0  0  0  0  0  0  0  0  0  0
   16.5005  -25.4888   -6.5311 C   0  0  0  0  0  0  0  0  0  0  0  0
   15.6313  -26.3583   -6.8146 O   0  0  0  0  0  0  0  0  0  0  0  0
   11.5573  -19.2755   -4.1994 N   0  0  0  0  0  0  0  0  0  0  0  0
   11.9472  -20.5877   -3.8219 C   0  0  0  0  0  0  0  0  0  0  0  0
   11.8717  -20.9130   -2.5711 N   0  0  0  0  0  0  0  0  0  0  0  0
   12.4032  -21.5031   -4.8009 N   0  0  0  0  0  0  0  0  0  0  0  0
   12.2390  -21.2100   -6.1900 C   0  0  0  0  0  0  0  0  0  0  0  0
   12.7975  -22.3297   -7.0543 C   0  0  0  0  0  0  0  0  0  0  0  0
   14.1677  -22.6724   -6.5205 C   0  0  0  0  0  0  0  0  0  0  0  0
   14.7856  -23.8278   -7.3047 C   0  0  2  0  0  0  0  0  0  0  0  0
   16.0963  -24.1421   -6.7700 N   0  0  0  0  0  0  0  0  0  0  0  0
   14.9387  -23.4770   -8.7322 C   0  0  0  0  0  0  0  0  0  0  0  0
   14.1450  -23.9482   -9.7639 O   0  0  0  0  0  0  0  0  0  0  0  0
   15.8688  -22.6752   -9.0943 O   0  0  0  0  0  0  0  0  0  0  0  0
  1  2  1  0
  3  2  1  0
  4  3  1  0
  5  4  1  0
  5  6  1  6
  7  5  1  0
  7  8  2  0
  9  7  1  0
 10 11  1  6
 10  9  1  0
 12 11  1  0
 12 17  2  0
 13 12  1  0
 14 13  2  0
 14 15  1  0
 15 16  2  0
 16 17  1  0
 18 10  1  0
 19 18  2  0
 20 21  1  0
 21 22  2  0
 23 21  1  0
 24 23  1  0
 24 25  1  0
 25 26  1  0
 27 26  1  1
 27 28  1  0
 28 18  1  0
 29 30  1  0
 29 27  1  0
 31 29  2  0
M  END
$$$$
