MFR.pdb
     RDKit          3D

 31 31  0  0  1  0  0  0  0  0999 V2000
   23.8060  -18.8192  -20.0344 C   0  0  0  0  0  0  0  0  0  0  0  0
   25.4217  -18.7512  -20.7997 S   0  0  0  0  0  0  0  0  0  0  0  0
   26.6678  -19.6489  -19.8919 C   0  0  0  0  0  0  0  0  0  0  0  0
   26.3097  -20.0587  -18.5075 C   0  0  0  0  0  0  0  0  0  0  0  0
   27.4244  -20.6691  -17.7344 C   0  0  2  0  0  0  0  0  0  0  0  0
   27.9603  -21.8489  -18.3789 N   0  0  0  0  0  0  0  0  0  0  0  0
   26.9162  -21.0617  -16.3861 C   0  0  0  0  0  0  0  0  0  0  0  0
   26.3149  -22.1604  -16.2894 O   0  0  0  0  0  0  0  0  0  0  0  0
   27.1008  -20.2293  -15.2472 N   0  0  0  0  0  0  0  0  0  0  0  0
   26.4629  -20.5585  -14.0214 C   0  0  1  0  0  0  0  0  0  0  0  0
   27.2228  -20.0730  -12.8076 C   0  0  0  0  0  0  0  0  0  0  0  0
   26.5216  -20.3003  -11.5387 C   0  0  0  0  0  0  0  0  0  0  0  0
   25.6748  -19.3850  -10.9644 C   0  0  0  0  0  0  0  0  0  0  0  0
   25.0230  -19.6173   -9.7691 C   0  0  0  0  0  0  0  0  0  0  0  0
   25.2118  -20.7910   -9.1179 C   0  0  0  0  0  0  0  0  0  0  0  0
   26.0486  -21.7388   -9.6507 C   0  0  0  0  0  0  0  0  0  0  0  0
   26.6954  -21.4888  -10.8521 C   0  0  0  0  0  0  0  0  0  0  0  0
   25.0215  -20.2055  -13.9660 C   0  0  0  0  0  0  0  0  0  0  0  0
   24.5875  -19.0605  -14.2700 O   0  0  0  0  0  0  0  0  0  0  0  0
   19.1444  -20.3460  -17.4269 N   0  0  0  0  0  0  0  0  0  0  0  0
   18.0864  -20.7887  -16.5896 C   0  0  0  0  0  0  0  0  0  0  0  0
   16.9274  -20.2265  -16.7183 N   0  0  0  0  0  0  0  0  0  0  0  0
   18.3109  -21.8193  -15.6452 N   0  0  0  0  0  0  0  0  0  0  0  0
   19.6384  -22.2835  -15.3908 C   0  0  0  0  0  0  0  0  0  0  0  0
   20.3402  -21.3998  -14.3713 C   0  0  0  0  0  0  0  0  0  0  0  0
   21.8185  -21.6945  -14.4592 C   0  0  0  0  0  0  0  0  0  0  0  0
   22.6145  -20.7724  -13.5383 C   0  0  2  0  0  0  0  0  0  0  0  0
   24.0176  -21.1369  -13.5676 N   0  0  0  0  0  0  0  0  0  0  0  0
   22.1371  -20.8762  -12.1435 C   0  0  0  0  0  0  0  0  0  0  0  0
   21.1609  -20.0809  -11.5681 O   0  0  0  0  0  0  0  0  0  0  0  0
   22.6383  -21.7589  -11.3633 O   0  0  0  0  0  0  0  0  0  0  0  0
  1  2  1  0
  3  2  1  0
  4  3  1  0
  5  4  1  0
  5  6  1  6
  7  5  1  0
  7  8  2  0
  9  7  1  0
 10 11  1  1
 10  9  1  0
 12 11  1  0
 12 17  2  0
 13 12  1  0
 14 13  2  0
 14 15  1  0
 15 16  2  0
 16 17  1  0
 18 10  1  0
 19 18  2  0
 20 21  1  0
 21 22  2  0
 23 21  1  0
 24 23  1  0
 24 25  1  0
 25 26  1  0
 27 26  1  6
 27 28  1  0
 28 18  1  0
 29 30  1  0
 29 27  1  0
 31 29  2  0
M  END
$$$$
