MFR.pdb
     RDKit          3D

 31 31  0  0  1  0  0  0  0  0999 V2000
   26.1884  -19.2374  -19.5523 C   0  0  0  0  0  0  0  0  0  0  0  0
   27.7774  -20.0156  -19.8172 S   0  0  0  0  0  0  0  0  0  0  0  0
   27.7000  -21.7978  -19.7941 C   0  0  0  0  0  0  0  0  0  0  0  0
   27.1252  -22.4181  -18.5703 C   0  0  0  0  0  0  0  0  0  0  0  0
   28.0886  -22.5839  -17.4492 C   0  0  2  0  0  0  0  0  0  0  0  0
   28.8310  -23.8230  -17.5396 N   0  0  0  0  0  0  0  0  0  0  0  0
   27.3325  -22.5838  -16.1613 C   0  0  0  0  0  0  0  0  0  0  0  0
   26.8510  -23.6763  -15.7703 O   0  0  0  0  0  0  0  0  0  0  0  0
   27.1582  -21.3959  -15.3980 N   0  0  0  0  0  0  0  0  0  0  0  0
   26.4496  -21.4449  -14.1678 C   0  0  1  0  0  0  0  0  0  0  0  0
   27.0222  -20.5221  -13.1157 C   0  0  0  0  0  0  0  0  0  0  0  0
   26.2882  -20.5430  -11.8452 C   0  0  0  0  0  0  0  0  0  0  0  0
   26.6456  -21.3241  -10.7743 C   0  0  0  0  0  0  0  0  0  0  0  0
   25.9422  -21.3297   -9.5858 C   0  0  0  0  0  0  0  0  0  0  0  0
   24.8499  -20.5389   -9.4476 C   0  0  0  0  0  0  0  0  0  0  0  0
   24.4516  -19.7395  -10.4892 C   0  0  0  0  0  0  0  0  0  0  0  0
   25.1697  -19.7465  -11.6760 C   0  0  0  0  0  0  0  0  0  0  0  0
   24.9772  -21.3064  -14.3022 C   0  0  0  0  0  0  0  0  0  0  0  0
   24.4342  -20.3229  -14.8764 O   0  0  0  0  0  0  0  0  0  0  0  0
   17.5036  -26.0328  -14.6930 N   0  0  0  0  0  0  0  0  0  0  0  0
   18.6961  -26.0317  -15.4641 C   0  0  0  0  0  0  0  0  0  0  0  0
   18.7076  -26.6966  -16.5748 N   0  0  0  0  0  0  0  0  0  0  0  0
   19.8323  -25.3163  -15.0152 N   0  0  0  0  0  0  0  0  0  0  0  0
   19.8318  -24.7050  -13.7235 C   0  0  0  0  0  0  0  0  0  0  0  0
   20.4360  -23.3105  -13.7788 C   0  0  0  0  0  0  0  0  0  0  0  0
   21.9374  -23.4665  -13.7422 C   0  0  0  0  0  0  0  0  0  0  0  0
   22.6310  -22.1207  -13.9410 C   0  0  2  0  0  0  0  0  0  0  0  0
   24.0650  -22.2779  -13.7943 N   0  0  0  0  0  0  0  0  0  0  0  0
   22.1679  -21.1337  -12.9433 C   0  0  0  0  0  0  0  0  0  0  0  0
   21.2228  -20.1476  -13.1688 O   0  0  0  0  0  0  0  0  0  0  0  0
   22.6523  -21.1514  -11.7583 O   0  0  0  0  0  0  0  0  0  0  0  0
  1  2  1  0
  3  2  1  0
  4  3  1  0
  5  4  1  0
  5  6  1  6
  7  5  1  0
  7  8  2  0
  9  7  1  0
 10 11  1  1
 10  9  1  0
 12 11  1  0
 12 17  2  0
 13 12  1  0
 14 13  2  0
 14 15  1  0
 15 16  2  0
 16 17  1  0
 18 10  1  0
 19 18  2  0
 20 21  1  0
 21 22  2  0
 23 21  1  0
 24 23  1  0
 24 25  1  0
 25 26  1  0
 27 26  1  1
 27 28  1  0
 28 18  1  0
 29 30  1  0
 29 27  1  0
 31 29  2  0
M  END
$$$$
