MFR.pdb
     RDKit          3D

 31 31  0  0  1  0  0  0  0  0999 V2000
   29.2222  -17.6741  -15.7206 C   0  0  0  0  0  0  0  0  0  0  0  0
   28.5576  -18.0463  -17.3393 S   0  0  0  0  0  0  0  0  0  0  0  0
   28.1095  -19.7617  -17.5378 C   0  0  0  0  0  0  0  0  0  0  0  0
   27.2203  -20.3372  -16.4933 C   0  0  0  0  0  0  0  0  0  0  0  0
   27.9292  -21.0807  -15.4175 C   0  0  2  0  0  0  0  0  0  0  0  0
   28.5104  -22.3177  -15.8938 N   0  0  0  0  0  0  0  0  0  0  0  0
   26.9533  -21.4077  -14.3354 C   0  0  0  0  0  0  0  0  0  0  0  0
   26.3682  -22.5176  -14.3969 O   0  0  0  0  0  0  0  0  0  0  0  0
   26.6890  -20.5027  -13.2699 N   0  0  0  0  0  0  0  0  0  0  0  0
   25.7108  -20.8288  -12.2929 C   0  0  1  0  0  0  0  0  0  0  0  0
   26.0029  -20.2277  -10.9366 C   0  0  0  0  0  0  0  0  0  0  0  0
   27.2953  -20.6345  -10.3732 C   0  0  0  0  0  0  0  0  0  0  0  0
   27.4515  -21.1050   -9.0930 C   0  0  0  0  0  0  0  0  0  0  0  0
   28.6767  -21.4839   -8.5805 C   0  0  0  0  0  0  0  0  0  0  0  0
   29.7854  -21.3964   -9.3555 C   0  0  0  0  0  0  0  0  0  0  0  0
   29.6820  -20.9322  -10.6425 C   0  0  0  0  0  0  0  0  0  0  0  0
   28.4435  -20.5558  -11.1411 C   0  0  0  0  0  0  0  0  0  0  0  0
   24.3097  -20.5955  -12.7262 C   0  0  0  0  0  0  0  0  0  0  0  0
   23.9256  -19.5073  -13.2363 O   0  0  0  0  0  0  0  0  0  0  0  0
   22.7696  -27.1681  -15.4416 N   0  0  0  0  0  0  0  0  0  0  0  0
   21.5307  -26.5231  -15.1855 C   0  0  0  0  0  0  0  0  0  0  0  0
   20.4700  -27.2568  -15.0728 N   0  0  0  0  0  0  0  0  0  0  0  0
   21.4756  -25.1141  -15.0591 N   0  0  0  0  0  0  0  0  0  0  0  0
   22.6782  -24.3426  -15.0912 C   0  0  0  0  0  0  0  0  0  0  0  0
   22.3723  -22.8530  -15.0721 C   0  0  0  0  0  0  0  0  0  0  0  0
   21.4783  -22.5902  -13.8840 C   0  0  0  0  0  0  0  0  0  0  0  0
   21.9511  -21.3643  -13.1059 C   0  0  2  0  0  0  0  0  0  0  0  0
   23.2920  -21.5869  -12.6012 N   0  0  0  0  0  0  0  0  0  0  0  0
   21.0623  -21.0910  -11.9572 C   0  0  0  0  0  0  0  0  0  0  0  0
   19.7651  -20.6150  -12.0417 O   0  0  0  0  0  0  0  0  0  0  0  0
   21.4822  -21.2950  -10.7650 O   0  0  0  0  0  0  0  0  0  0  0  0
  1  2  1  0
  3  2  1  0
  4  3  1  0
  5  4  1  0
  5  6  1  6
  7  5  1  0
  7  8  2  0
  9  7  1  0
 10 11  1  1
 10  9  1  0
 12 11  1  0
 12 17  2  0
 13 12  1  0
 14 13  2  0
 14 15  1  0
 15 16  2  0
 16 17  1  0
 18 10  1  0
 19 18  2  0
 20 21  1  0
 21 22  2  0
 23 21  1  0
 24 23  1  0
 24 25  1  0
 25 26  1  0
 27 26  1  1
 27 28  1  0
 28 18  1  0
 29 30  1  0
 29 27  1  0
 31 29  2  0
M  END
$$$$
