MFR.pdb
     RDKit          3D

 31 31  0  0  1  0  0  0  0  0999 V2000
   26.2811  -15.9354  -15.4941 C   0  0  0  0  0  0  0  0  0  0  0  0
   28.0002  -16.2952  -15.8348 S   0  0  0  0  0  0  0  0  0  0  0  0
   28.6341  -17.6638  -14.8821 C   0  0  0  0  0  0  0  0  0  0  0  0
   27.6424  -18.4191  -14.0703 C   0  0  0  0  0  0  0  0  0  0  0  0
   28.2306  -19.4601  -13.1854 C   0  0  2  0  0  0  0  0  0  0  0  0
   29.0450  -20.4078  -13.9157 N   0  0  0  0  0  0  0  0  0  0  0  0
   27.1224  -20.2089  -12.5212 C   0  0  0  0  0  0  0  0  0  0  0  0
   26.9818  -21.4217  -12.8171 O   0  0  0  0  0  0  0  0  0  0  0  0
   26.2525  -19.5813  -11.5865 N   0  0  0  0  0  0  0  0  0  0  0  0
   25.2138  -20.3324  -10.9744 C   0  0  1  0  0  0  0  0  0  0  0  0
   24.8713  -19.8481   -9.5834 C   0  0  0  0  0  0  0  0  0  0  0  0
   25.9945  -19.9081   -8.6411 C   0  0  0  0  0  0  0  0  0  0  0  0
   26.8329  -18.8503   -8.3903 C   0  0  0  0  0  0  0  0  0  0  0  0
   27.8850  -18.9258   -7.4988 C   0  0  0  0  0  0  0  0  0  0  0  0
   28.1189  -20.0824   -6.8317 C   0  0  0  0  0  0  0  0  0  0  0  0
   27.3091  -21.1689   -7.0473 C   0  0  0  0  0  0  0  0  0  0  0  0
   26.2569  -21.0755   -7.9464 C   0  0  0  0  0  0  0  0  0  0  0  0
   24.0089  -20.5173  -11.8225 C   0  0  0  0  0  0  0  0  0  0  0  0
   23.5821  -19.6245  -12.6052 O   0  0  0  0  0  0  0  0  0  0  0  0
   22.0820  -28.0580  -15.6988 N   0  0  0  0  0  0  0  0  0  0  0  0
   21.0596  -27.2026  -16.1883 C   0  0  0  0  0  0  0  0  0  0  0  0
   20.2369  -27.6739  -17.0698 N   0  0  0  0  0  0  0  0  0  0  0  0
   20.9573  -25.8729  -15.7133 N   0  0  0  0  0  0  0  0  0  0  0  0
   21.8601  -25.3960  -14.7134 C   0  0  0  0  0  0  0  0  0  0  0  0
   21.6132  -23.9263  -14.4106 C   0  0  0  0  0  0  0  0  0  0  0  0
   22.5755  -23.5215  -13.3197 C   0  0  0  0  0  0  0  0  0  0  0  0
   22.3638  -22.0635  -12.9185 C   0  0  2  0  0  0  0  0  0  0  0  0
   23.2444  -21.7213  -11.8186 N   0  0  0  0  0  0  0  0  0  0  0  0
   20.9698  -21.8300  -12.4868 C   0  0  0  0  0  0  0  0  0  0  0  0
   19.9219  -21.4714  -13.3173 O   0  0  0  0  0  0  0  0  0  0  0  0
   20.6563  -21.9569  -11.2520 O   0  0  0  0  0  0  0  0  0  0  0  0
  1  2  1  0
  3  2  1  0
  4  3  1  0
  5  4  1  0
  5  6  1  6
  7  5  1  0
  7  8  2  0
  9  7  1  0
 10 11  1  1
 10  9  1  0
 12 11  1  0
 12 17  2  0
 13 12  1  0
 14 13  2  0
 14 15  1  0
 15 16  2  0
 16 17  1  0
 18 10  1  0
 19 18  2  0
 20 21  1  0
 21 22  2  0
 23 21  1  0
 24 23  1  0
 24 25  1  0
 25 26  1  0
 27 26  1  1
 27 28  1  0
 28 18  1  0
 29 30  1  0
 29 27  1  0
 31 29  2  0
M  END
$$$$
