MFR.pdb
     RDKit          3D

 31 31  0  0  1  0  0  0  0  0999 V2000
   27.2305  -18.3505  -16.0384 C   0  0  0  0  0  0  0  0  0  0  0  0
   29.0040  -18.2631  -15.8204 S   0  0  0  0  0  0  0  0  0  0  0  0
   29.5753  -19.1118  -14.3589 C   0  0  0  0  0  0  0  0  0  0  0  0
   28.5242  -19.6597  -13.4599 C   0  0  0  0  0  0  0  0  0  0  0  0
   29.0394  -20.2722  -12.2061 C   0  0  2  0  0  0  0  0  0  0  0  0
   29.8355  -21.4545  -12.4573 N   0  0  0  0  0  0  0  0  0  0  0  0
   27.8799  -20.6616  -11.3493 C   0  0  0  0  0  0  0  0  0  0  0  0
   27.5826  -21.8808  -11.2933 O   0  0  0  0  0  0  0  0  0  0  0  0
   27.1330  -19.6952  -10.6195 N   0  0  0  0  0  0  0  0  0  0  0  0
   25.9527  -20.0866   -9.9329 C   0  0  1  0  0  0  0  0  0  0  0  0
   25.6822  -19.2580   -8.6974 C   0  0  0  0  0  0  0  0  0  0  0  0
   26.5779  -19.5575   -7.5743 C   0  0  0  0  0  0  0  0  0  0  0  0
   27.5551  -18.7004   -7.1326 C   0  0  0  0  0  0  0  0  0  0  0  0
   28.3885  -18.9999   -6.0729 C   0  0  0  0  0  0  0  0  0  0  0  0
   28.2546  -20.1838   -5.4264 C   0  0  0  0  0  0  0  0  0  0  0  0
   27.2927  -21.0752   -5.8297 C   0  0  0  0  0  0  0  0  0  0  0  0
   26.4642  -20.7581   -6.8962 C   0  0  0  0  0  0  0  0  0  0  0  0
   24.7543  -20.2191  -10.7998 C   0  0  0  0  0  0  0  0  0  0  0  0
   24.3414  -19.2847  -11.5403 O   0  0  0  0  0  0  0  0  0  0  0  0
   20.6236  -27.3878  -13.2195 N   0  0  0  0  0  0  0  0  0  0  0  0
   21.6284  -26.6118  -13.8558 C   0  0  0  0  0  0  0  0  0  0  0  0
   22.4072  -27.1982  -14.7076 N   0  0  0  0  0  0  0  0  0  0  0  0
   21.7600  -25.2346  -13.5551 N   0  0  0  0  0  0  0  0  0  0  0  0
   20.7792  -24.5788  -12.7487 C   0  0  0  0  0  0  0  0  0  0  0  0
   21.0897  -23.0967  -12.6084 C   0  0  0  0  0  0  0  0  0  0  0  0
   22.3874  -22.9768  -11.8456 C   0  0  0  0  0  0  0  0  0  0  0  0
   22.8059  -21.5148  -11.7071 C   0  0  2  0  0  0  0  0  0  0  0  0
   23.9807  -21.4156  -10.8630 N   0  0  0  0  0  0  0  0  0  0  0  0
   21.7267  -20.7105  -11.0968 C   0  0  0  0  0  0  0  0  0  0  0  0
   20.7862  -19.9702  -11.7924 O   0  0  0  0  0  0  0  0  0  0  0  0
   21.6118  -20.6623   -9.8226 O   0  0  0  0  0  0  0  0  0  0  0  0
  1  2  1  0
  3  2  1  0
  4  3  1  0
  5  4  1  0
  5  6  1  6
  7  5  1  0
  7  8  2  0
  9  7  1  0
 10 11  1  1
 10  9  1  0
 12 11  1  0
 12 17  2  0
 13 12  1  0
 14 13  2  0
 14 15  1  0
 15 16  2  0
 16 17  1  0
 18 10  1  0
 19 18  2  0
 20 21  1  0
 21 22  2  0
 23 21  1  0
 24 23  1  0
 24 25  1  0
 25 26  1  0
 27 26  1  1
 27 28  1  0
 28 18  1  0
 29 30  1  0
 29 27  1  0
 31 29  2  0
M  END
$$$$
