MFR.pdb
     RDKit          3D

 31 31  0  0  1  0  0  0  0  0999 V2000
   26.6624  -17.4755  -15.1548 C   0  0  0  0  0  0  0  0  0  0  0  0
   28.1315  -18.1331  -15.9357 S   0  0  0  0  0  0  0  0  0  0  0  0
   28.7437  -19.6125  -15.1488 C   0  0  0  0  0  0  0  0  0  0  0  0
   28.2725  -19.8655  -13.7606 C   0  0  0  0  0  0  0  0  0  0  0  0
   28.7993  -21.1132  -13.1456 C   0  0  2  0  0  0  0  0  0  0  0  0
   28.3780  -22.2997  -13.8595 N   0  0  0  0  0  0  0  0  0  0  0  0
   28.2965  -21.2074  -11.7426 C   0  0  0  0  0  0  0  0  0  0  0  0
   27.1960  -21.7844  -11.5575 O   0  0  0  0  0  0  0  0  0  0  0  0
   29.0288  -20.6669  -10.6491 N   0  0  0  0  0  0  0  0  0  0  0  0
   28.4514  -20.6517   -9.3514 C   0  0  1  0  0  0  0  0  0  0  0  0
   29.4199  -20.2141   -8.2757 C   0  0  0  0  0  0  0  0  0  0  0  0
   28.8070  -20.0645   -6.9508 C   0  0  0  0  0  0  0  0  0  0  0  0
   27.9930  -19.0147   -6.6047 C   0  0  0  0  0  0  0  0  0  0  0  0
   27.4246  -18.8914   -5.3520 C   0  0  0  0  0  0  0  0  0  0  0  0
   27.6661  -19.8344   -4.4087 C   0  0  0  0  0  0  0  0  0  0  0  0
   28.4733  -20.9035   -4.7053 C   0  0  0  0  0  0  0  0  0  0  0  0
   29.0362  -21.0115   -5.9685 C   0  0  0  0  0  0  0  0  0  0  0  0
   27.1512  -19.9394   -9.2669 C   0  0  0  0  0  0  0  0  0  0  0  0
   26.9517  -18.8172   -9.8082 O   0  0  0  0  0  0  0  0  0  0  0  0
   21.5691  -21.1822  -13.6086 N   0  0  0  0  0  0  0  0  0  0  0  0
   20.7816  -20.3046  -12.8171 C   0  0  0  0  0  0  0  0  0  0  0  0
   19.4945  -20.3502  -12.9484 N   0  0  0  0  0  0  0  0  0  0  0  0
   21.4045  -19.4107  -11.9131 N   0  0  0  0  0  0  0  0  0  0  0  0
   22.7823  -19.5779  -11.5725 C   0  0  0  0  0  0  0  0  0  0  0  0
   22.9973  -20.8562  -10.7772 C   0  0  0  0  0  0  0  0  0  0  0  0
   24.4535  -20.9024  -10.3804 C   0  0  0  0  0  0  0  0  0  0  0  0
   24.6710  -20.2357   -9.0240 C   0  0  2  0  0  0  0  0  0  0  0  0
   26.0273  -20.4726   -8.5694 N   0  0  0  0  0  0  0  0  0  0  0  0
   23.7409  -20.7784   -8.0119 C   0  0  0  0  0  0  0  0  0  0  0  0
   22.4939  -20.2596   -7.7078 O   0  0  0  0  0  0  0  0  0  0  0  0
   24.0713  -21.8128   -7.3336 O   0  0  0  0  0  0  0  0  0  0  0  0
  1  2  1  0
  3  2  1  0
  4  3  1  0
  5  4  1  0
  5  6  1  6
  7  5  1  0
  7  8  2  0
  9  7  1  0
 10 11  1  1
 10  9  1  0
 12 11  1  0
 12 17  2  0
 13 12  1  0
 14 13  2  0
 14 15  1  0
 15 16  2  0
 16 17  1  0
 18 10  1  0
 19 18  2  0
 20 21  1  0
 21 22  2  0
 23 21  1  0
 24 23  1  0
 24 25  1  0
 25 26  1  0
 27 26  1  6
 27 28  1  0
 28 18  1  0
 29 30  1  0
 29 27  1  0
 31 29  2  0
M  END
$$$$
