KFW.pdb
     RDKit          3D

 35 37  0  0  1  0  0  0  0  0999 V2000
   10.3795  -17.3167   17.7756 N   0  0  0  0  0  0  0  0  0  0  0  0
    9.4822  -17.7561   18.8051 C   0  0  1  0  0  0  0  0  0  0  0  0
    9.6757  -19.1891   19.2133 C   0  0  0  0  0  0  0  0  0  0  0  0
   11.1051  -19.6407   18.9041 C   0  0  0  0  0  0  0  0  0  0  0  0
   11.8653  -19.6649   20.2120 C   0  0  0  0  0  0  0  0  0  0  0  0
   13.2661  -20.2061   20.0357 C   0  0  0  0  0  0  0  0  0  0  0  0
   14.0700  -20.1060   21.2177 N   0  0  0  0  0  0  0  0  0  0  0  0
    9.4626  -16.8877   19.9922 C   0  0  0  0  0  0  0  0  0  0  0  0
   10.5738  -16.4656   20.4137 O   0  0  0  0  0  0  0  0  0  0  0  0
    8.3082  -16.4951   20.6881 N   0  0  0  0  0  0  0  0  0  0  0  0
    8.3031  -15.5619   21.7924 C   0  0  1  0  0  0  0  0  0  0  0  0
    6.9812  -15.5194   22.5151 C   0  0  0  0  0  0  0  0  0  0  0  0
    6.9174  -14.4179   23.5035 C   0  0  0  0  0  0  0  0  0  0  0  0
    7.2619  -13.1282   23.1627 C   0  0  0  0  0  0  0  0  0  0  0  0
    7.2059  -12.0865   24.0828 C   0  0  0  0  0  0  0  0  0  0  0  0
    6.7987  -12.3112   25.3836 C   0  0  0  0  0  0  0  0  0  0  0  0
    6.4554  -13.5915   25.7267 C   0  0  0  0  0  0  0  0  0  0  0  0
    6.5126  -14.6159   24.8143 C   0  0  0  0  0  0  0  0  0  0  0  0
    9.4388  -15.8488   22.6665 C   0  0  0  0  0  0  0  0  0  0  0  0
   10.3531  -14.9978   22.7814 O   0  0  0  0  0  0  0  0  0  0  0  0
    9.5940  -17.0488   23.4173 N   0  0  0  0  0  0  0  0  0  0  0  0
   10.2767  -17.1093   24.6975 C   0  0  1  0  0  0  0  0  0  0  0  0
    9.4258  -16.3074   25.6682 C   0  0  0  0  0  0  0  0  0  0  0  0
    9.8792  -16.4157   27.0594 C   0  0  0  0  0  0  0  0  0  0  0  0
   10.3786  -17.4973   27.7558 C   0  0  0  0  0  0  0  0  0  0  0  0
   10.6565  -17.1000   29.0096 N   0  0  0  0  0  0  0  0  0  0  0  0
   10.3581  -15.7923   29.1672 C   0  0  0  0  0  0  0  0  0  0  0  0
   10.4586  -14.9216   30.2518 C   0  0  0  0  0  0  0  0  0  0  0  0
   10.0651  -13.5961   30.1140 C   0  0  0  0  0  0  0  0  0  0  0  0
    9.5742  -13.1370   28.9057 C   0  0  0  0  0  0  0  0  0  0  0  0
    9.4896  -14.0264   27.8570 C   0  0  0  0  0  0  0  0  0  0  0  0
    9.8715  -15.3544   27.9544 C   0  0  0  0  0  0  0  0  0  0  0  0
   10.3969  -18.5226   25.1263 C   0  0  0  0  0  0  0  0  0  0  0  0
    9.4182  -19.3037   25.0093 O   0  0  0  0  0  0  0  0  0  0  0  0
   11.5607  -19.0326   25.6608 O   0  0  0  0  0  0  0  0  0  0  0  0
  2  1  1  6
  2  3  1  0
  4  3  1  0
  5  4  1  0
  6  5  1  0
  7  6  1  0
  8  2  1  0
  9  8  2  0
 10  8  1  0
 11 10  1  0
 12 13  1  0
 11 12  1  1
 13 18  2  0
 14 15  2  0
 14 13  1  0
 15 16  1  0
 16 17  2  0
 18 17  1  0
 19 11  1  0
 19 21  1  0
 20 19  2  0
 22 21  1  0
 22 33  1  0
 22 23  1  1
 24 32  1  0
 24 23  1  0
 25 24  2  0
 26 25  1  0
 26 27  1  0
 27 32  2  0
 28 27  1  0
 28 29  2  0
 29 30  1  0
 30 31  2  0
 32 31  1  0
 33 35  1  0
 34 33  2  0
M  END
$$$$
