KFW.pdb
     RDKit          3D

 35 37  0  0  1  0  0  0  0  0999 V2000
    8.1954  -18.8490   20.1516 N   0  0  0  0  0  0  0  0  0  0  0  0
    9.0056  -17.7067   19.8403 C   0  0  1  0  0  0  0  0  0  0  0  0
    8.8136  -17.1838   18.4448 C   0  0  0  0  0  0  0  0  0  0  0  0
    8.2608  -18.2849   17.5367 C   0  0  0  0  0  0  0  0  0  0  0  0
    8.7340  -17.9915   16.1299 C   0  0  0  0  0  0  0  0  0  0  0  0
    8.2496  -19.0337   15.1473 C   0  0  0  0  0  0  0  0  0  0  0  0
    8.5588  -18.7204   13.7836 N   0  0  0  0  0  0  0  0  0  0  0  0
    8.8926  -16.6100   20.8141 C   0  0  0  0  0  0  0  0  0  0  0  0
    9.6237  -15.5992   20.6284 O   0  0  0  0  0  0  0  0  0  0  0  0
    8.0382  -16.6024   21.9281 N   0  0  0  0  0  0  0  0  0  0  0  0
    7.9240  -15.5004   22.8569 C   0  0  1  0  0  0  0  0  0  0  0  0
    6.6085  -15.4904   23.5923 C   0  0  0  0  0  0  0  0  0  0  0  0
    6.5144  -14.3713   24.5583 C   0  0  0  0  0  0  0  0  0  0  0  0
    6.1486  -14.5847   25.8692 C   0  0  0  0  0  0  0  0  0  0  0  0
    6.0567  -13.5413   26.7845 C   0  0  0  0  0  0  0  0  0  0  0  0
    6.3320  -12.2413   26.4069 C   0  0  0  0  0  0  0  0  0  0  0  0
    6.6960  -12.0244   25.1048 C   0  0  0  0  0  0  0  0  0  0  0  0
    6.7850  -13.0583   24.2057 C   0  0  0  0  0  0  0  0  0  0  0  0
    9.0883  -15.4967   23.7404 C   0  0  0  0  0  0  0  0  0  0  0  0
    9.5702  -14.4004   24.1134 O   0  0  0  0  0  0  0  0  0  0  0  0
    9.7359  -16.6692   24.2238 N   0  0  0  0  0  0  0  0  0  0  0  0
   11.0443  -16.6590   24.8535 C   0  0  1  0  0  0  0  0  0  0  0  0
   10.8967  -17.4433   26.1467 C   0  0  0  0  0  0  0  0  0  0  0  0
   10.1700  -16.7084   27.1882 C   0  0  0  0  0  0  0  0  0  0  0  0
    8.9148  -16.9193   27.7213 C   0  0  0  0  0  0  0  0  0  0  0  0
    8.6893  -15.9784   28.6546 N   0  0  0  0  0  0  0  0  0  0  0  0
    9.7522  -15.1516   28.7576 C   0  0  0  0  0  0  0  0  0  0  0  0
   10.0144  -14.0408   29.5586 C   0  0  0  0  0  0  0  0  0  0  0  0
   11.2271  -13.3729   29.4404 C   0  0  0  0  0  0  0  0  0  0  0  0
   12.1749  -13.8054   28.5314 C   0  0  0  0  0  0  0  0  0  0  0  0
   11.8803  -14.9062   27.7574 C   0  0  0  0  0  0  0  0  0  0  0  0
   10.6838  -15.5987   27.8455 C   0  0  0  0  0  0  0  0  0  0  0  0
   12.0324  -17.2921   23.9487 C   0  0  0  0  0  0  0  0  0  0  0  0
   11.6599  -17.7894   22.8552 O   0  0  0  0  0  0  0  0  0  0  0  0
   13.3737  -17.3629   24.2584 O   0  0  0  0  0  0  0  0  0  0  0  0
  2  1  1  1
  2  3  1  0
  4  3  1  0
  5  4  1  0
  6  5  1  0
  7  6  1  0
  8  2  1  0
  9  8  2  0
 10  8  1  0
 11 10  1  0
 12 13  1  0
 11 12  1  1
 13 18  2  0
 14 15  2  0
 14 13  1  0
 15 16  1  0
 16 17  2  0
 18 17  1  0
 19 11  1  0
 19 21  1  0
 20 19  2  0
 22 21  1  0
 22 33  1  0
 22 23  1  1
 24 32  1  0
 24 23  1  0
 25 24  2  0
 26 25  1  0
 26 27  1  0
 27 32  2  0
 28 27  1  0
 28 29  2  0
 29 30  1  0
 30 31  2  0
 32 31  1  0
 33 35  1  0
 34 33  2  0
M  END
$$$$
