KFW.pdb
     RDKit          3D

 35 37  0  0  1  0  0  0  0  0999 V2000
    8.5142  -20.9160   19.2991 N   0  0  0  0  0  0  0  0  0  0  0  0
    8.2255  -20.2991   20.5617 C   0  0  1  0  0  0  0  0  0  0  0  0
    8.9063  -20.9526   21.7308 C   0  0  0  0  0  0  0  0  0  0  0  0
    8.8354  -22.4762   21.6026 C   0  0  0  0  0  0  0  0  0  0  0  0
    8.5545  -23.0340   22.9807 C   0  0  0  0  0  0  0  0  0  0  0  0
    8.5364  -24.5459   22.9799 C   0  0  0  0  0  0  0  0  0  0  0  0
    8.3637  -25.1157   24.2834 N   0  0  0  0  0  0  0  0  0  0  0  0
    8.4581  -18.8468   20.5849 C   0  0  0  0  0  0  0  0  0  0  0  0
    9.6139  -18.4451   20.2787 O   0  0  0  0  0  0  0  0  0  0  0  0
    7.4978  -17.8791   20.9200 N   0  0  0  0  0  0  0  0  0  0  0  0
    7.7890  -16.4749   21.1035 C   0  0  1  0  0  0  0  0  0  0  0  0
    6.7139  -15.5778   20.5460 C   0  0  0  0  0  0  0  0  0  0  0  0
    7.0755  -14.1442   20.6392 C   0  0  0  0  0  0  0  0  0  0  0  0
    6.6900  -13.3763   21.7160 C   0  0  0  0  0  0  0  0  0  0  0  0
    7.0237  -12.0294   21.8135 C   0  0  0  0  0  0  0  0  0  0  0  0
    7.7609  -11.4087   20.8237 C   0  0  0  0  0  0  0  0  0  0  0  0
    8.1461  -12.1682   19.7515 C   0  0  0  0  0  0  0  0  0  0  0  0
    7.8138  -13.4972   19.6605 C   0  0  0  0  0  0  0  0  0  0  0  0
    8.0842  -16.2279   22.5135 C   0  0  0  0  0  0  0  0  0  0  0  0
    7.2358  -15.6345   23.2217 O   0  0  0  0  0  0  0  0  0  0  0  0
    9.2896  -16.6172   23.1640 N   0  0  0  0  0  0  0  0  0  0  0  0
   10.0346  -15.7470   24.0563 C   0  0  1  0  0  0  0  0  0  0  0  0
    9.4899  -16.0062   25.4512 C   0  0  0  0  0  0  0  0  0  0  0  0
    8.0924  -15.5894   25.6121 C   0  0  0  0  0  0  0  0  0  0  0  0
    6.9247  -16.3184   25.5160 C   0  0  0  0  0  0  0  0  0  0  0  0
    5.8905  -15.4910   25.7465 N   0  0  0  0  0  0  0  0  0  0  0  0
    6.3336  -14.2390   25.9920 C   0  0  0  0  0  0  0  0  0  0  0  0
    5.6792  -13.0423   26.2819 C   0  0  0  0  0  0  0  0  0  0  0  0
    6.4166  -11.8835   26.4920 C   0  0  0  0  0  0  0  0  0  0  0  0
    7.7968  -11.9124   26.4148 C   0  0  0  0  0  0  0  0  0  0  0  0
    8.4079  -13.1129   26.1263 C   0  0  0  0  0  0  0  0  0  0  0  0
    7.7085  -14.2889   25.9105 C   0  0  0  0  0  0  0  0  0  0  0  0
   11.4778  -16.0727   23.9720 C   0  0  0  0  0  0  0  0  0  0  0  0
   12.3188  -15.3847   24.6053 O   0  0  0  0  0  0  0  0  0  0  0  0
   11.9520  -17.1208   23.2126 O   0  0  0  0  0  0  0  0  0  0  0  0
  2  1  1  6
  2  3  1  0
  4  3  1  0
  5  4  1  0
  6  5  1  0
  7  6  1  0
  8  2  1  0
  9  8  2  0
 10  8  1  0
 11 10  1  0
 12 13  1  0
 11 12  1  1
 13 18  2  0
 14 15  2  0
 14 13  1  0
 15 16  1  0
 16 17  2  0
 18 17  1  0
 19 11  1  0
 19 21  1  0
 20 19  2  0
 22 21  1  0
 22 33  1  0
 22 23  1  1
 24 32  1  0
 24 23  1  0
 25 24  2  0
 26 25  1  0
 26 27  1  0
 27 32  2  0
 28 27  1  0
 28 29  2  0
 29 30  1  0
 30 31  2  0
 32 31  1  0
 33 35  1  0
 34 33  2  0
M  END
$$$$
