KFW.pdb
     RDKit          3D

 35 37  0  0  1  0  0  0  0  0999 V2000
    8.8041  -19.0275   19.9748 N   0  0  0  0  0  0  0  0  0  0  0  0
    9.7584  -17.9933   19.6957 C   0  0  1  0  0  0  0  0  0  0  0  0
    9.7709  -17.5446   18.2618 C   0  0  0  0  0  0  0  0  0  0  0  0
    9.9356  -18.7480   17.3304 C   0  0  0  0  0  0  0  0  0  0  0  0
    9.9598  -18.2226   15.9118 C   0  0  0  0  0  0  0  0  0  0  0  0
    9.9573  -19.3450   14.8987 C   0  0  0  0  0  0  0  0  0  0  0  0
    9.9676  -18.8886   13.5405 N   0  0  0  0  0  0  0  0  0  0  0  0
    9.6594  -16.8306   20.5913 C   0  0  0  0  0  0  0  0  0  0  0  0
   10.4989  -15.9042   20.4249 O   0  0  0  0  0  0  0  0  0  0  0  0
    8.7076  -16.6742   21.6114 N   0  0  0  0  0  0  0  0  0  0  0  0
    8.6185  -15.5132   22.4683 C   0  0  1  0  0  0  0  0  0  0  0  0
    7.2415  -15.3210   23.0500 C   0  0  0  0  0  0  0  0  0  0  0  0
    7.1875  -14.1864   24.0008 C   0  0  0  0  0  0  0  0  0  0  0  0
    6.6803  -14.3403   25.2725 C   0  0  0  0  0  0  0  0  0  0  0  0
    6.6246  -13.2817   26.1732 C   0  0  0  0  0  0  0  0  0  0  0  0
    7.0806  -12.0264   25.8202 C   0  0  0  0  0  0  0  0  0  0  0  0
    7.5855  -11.8688   24.5572 C   0  0  0  0  0  0  0  0  0  0  0  0
    7.6380  -12.9173   23.6723 C   0  0  0  0  0  0  0  0  0  0  0  0
    9.6752  -15.5799   23.4759 C   0  0  0  0  0  0  0  0  0  0  0  0
   10.1191  -14.5153   23.9687 O   0  0  0  0  0  0  0  0  0  0  0  0
   10.2558  -16.7887   23.9549 N   0  0  0  0  0  0  0  0  0  0  0  0
   11.3615  -16.8277   24.8954 C   0  0  1  0  0  0  0  0  0  0  0  0
   10.9253  -17.7496   26.0221 C   0  0  0  0  0  0  0  0  0  0  0  0
    9.7823  -17.2315   26.7824 C   0  0  0  0  0  0  0  0  0  0  0  0
    8.4716  -17.6603   26.8303 C   0  0  0  0  0  0  0  0  0  0  0  0
    7.7972  -16.8622   27.6762 N   0  0  0  0  0  0  0  0  0  0  0  0
    8.6167  -15.9195   28.1899 C   0  0  0  0  0  0  0  0  0  0  0  0
    8.4124  -14.8761   29.0921 C   0  0  0  0  0  0  0  0  0  0  0  0
    9.4707  -14.0468   29.4424 C   0  0  0  0  0  0  0  0  0  0  0  0
   10.7259  -14.2521   28.9000 C   0  0  0  0  0  0  0  0  0  0  0  0
   10.8893  -15.2928   28.0123 C   0  0  0  0  0  0  0  0  0  0  0  0
    9.8601  -16.1410   27.6380 C   0  0  0  0  0  0  0  0  0  0  0  0
   12.5712  -17.3449   24.2135 C   0  0  0  0  0  0  0  0  0  0  0  0
   12.5058  -17.7331   23.0190 O   0  0  0  0  0  0  0  0  0  0  0  0
   13.7946  -17.4218   24.8440 O   0  0  0  0  0  0  0  0  0  0  0  0
  2  1  1  6
  2  3  1  0
  4  3  1  0
  5  4  1  0
  6  5  1  0
  7  6  1  0
  8  2  1  0
  9  8  2  0
 10  8  1  0
 11 10  1  0
 12 13  1  0
 11 12  1  1
 13 18  2  0
 14 15  2  0
 14 13  1  0
 15 16  1  0
 16 17  2  0
 18 17  1  0
 19 11  1  0
 19 21  1  0
 20 19  2  0
 22 21  1  0
 22 33  1  0
 22 23  1  1
 24 32  1  0
 24 23  1  0
 25 24  2  0
 26 25  1  0
 26 27  1  0
 27 32  2  0
 28 27  1  0
 28 29  2  0
 29 30  1  0
 30 31  2  0
 32 31  1  0
 33 35  1  0
 34 33  2  0
M  END
$$$$
