KFW.pdb
     RDKit          3D

 35 37  0  0  1  0  0  0  0  0999 V2000
    8.6260  -19.1670   19.8876 N   0  0  0  0  0  0  0  0  0  0  0  0
    9.3777  -18.0048   19.5104 C   0  0  1  0  0  0  0  0  0  0  0  0
    9.1457  -17.5606   18.0939 C   0  0  0  0  0  0  0  0  0  0  0  0
    9.3877  -18.7222   17.1269 C   0  0  0  0  0  0  0  0  0  0  0  0
   10.2662  -18.2050   16.0089 C   0  0  0  0  0  0  0  0  0  0  0  0
   10.4762  -19.2474   14.9338 C   0  0  0  0  0  0  0  0  0  0  0  0
   11.3074  -18.7976   13.8568 N   0  0  0  0  0  0  0  0  0  0  0  0
    9.2239  -16.8681   20.4311 C   0  0  0  0  0  0  0  0  0  0  0  0
    9.9138  -15.8392   20.1940 O   0  0  0  0  0  0  0  0  0  0  0  0
    8.3730  -16.8409   21.5475 N   0  0  0  0  0  0  0  0  0  0  0  0
    8.2610  -15.7225   22.4567 C   0  0  1  0  0  0  0  0  0  0  0  0
    6.8776  -15.5777   23.0370 C   0  0  0  0  0  0  0  0  0  0  0  0
    6.7952  -14.4745   24.0222 C   0  0  0  0  0  0  0  0  0  0  0  0
    7.0668  -13.1721   23.6644 C   0  0  0  0  0  0  0  0  0  0  0  0
    6.9927  -12.1287   24.5813 C   0  0  0  0  0  0  0  0  0  0  0  0
    6.6405  -12.3646   25.8960 C   0  0  0  0  0  0  0  0  0  0  0  0
    6.3696  -13.6576   26.2562 C   0  0  0  0  0  0  0  0  0  0  0  0
    6.4444  -14.6836   25.3468 C   0  0  0  0  0  0  0  0  0  0  0  0
    9.3122  -15.8206   23.4675 C   0  0  0  0  0  0  0  0  0  0  0  0
    9.2384  -15.1096   24.4983 O   0  0  0  0  0  0  0  0  0  0  0  0
   10.4426  -16.6813   23.3727 N   0  0  0  0  0  0  0  0  0  0  0  0
   11.6080  -16.5695   24.2317 C   0  0  1  0  0  0  0  0  0  0  0  0
   11.2474  -15.5533   25.3026 C   0  0  0  0  0  0  0  0  0  0  0  0
   10.7253  -16.1671   26.5288 C   0  0  0  0  0  0  0  0  0  0  0  0
   10.4629  -17.4889   26.8258 C   0  0  0  0  0  0  0  0  0  0  0  0
    9.9932  -17.5534   28.0837 N   0  0  0  0  0  0  0  0  0  0  0  0
    9.9356  -16.3195   28.6298 C   0  0  0  0  0  0  0  0  0  0  0  0
    9.5298  -15.8548   29.8803 C   0  0  0  0  0  0  0  0  0  0  0  0
    9.5828  -14.4956   30.1642 C   0  0  0  0  0  0  0  0  0  0  0  0
   10.0364  -13.6020   29.2116 C   0  0  0  0  0  0  0  0  0  0  0  0
   10.4288  -14.0982   27.9878 C   0  0  0  0  0  0  0  0  0  0  0  0
   10.3909  -15.4451   27.6666 C   0  0  0  0  0  0  0  0  0  0  0  0
   11.9126  -17.8928   24.8249 C   0  0  0  0  0  0  0  0  0  0  0  0
   12.9545  -18.0530   25.5108 O   0  0  0  0  0  0  0  0  0  0  0  0
   11.0860  -18.9828   24.6550 O   0  0  0  0  0  0  0  0  0  0  0  0
  2  1  1  1
  2  3  1  0
  4  3  1  0
  5  4  1  0
  6  5  1  0
  7  6  1  0
  8  2  1  0
  9  8  2  0
 10  8  1  0
 11 10  1  0
 12 13  1  0
 11 12  1  1
 13 18  2  0
 14 15  2  0
 14 13  1  0
 15 16  1  0
 16 17  2  0
 18 17  1  0
 19 11  1  0
 19 21  1  0
 20 19  2  0
 22 21  1  0
 22 33  1  0
 22 23  1  1
 24 32  1  0
 24 23  1  0
 25 24  2  0
 26 25  1  0
 26 27  1  0
 27 32  2  0
 28 27  1  0
 28 29  2  0
 29 30  1  0
 30 31  2  0
 32 31  1  0
 33 35  1  0
 34 33  2  0
M  END
$$$$
