KFW.pdb
     RDKit          3D

 35 37  0  0  1  0  0  0  0  0999 V2000
    7.7541  -17.9823   18.6374 N   0  0  0  0  0  0  0  0  0  0  0  0
    8.3939  -18.1567   19.9096 C   0  0  1  0  0  0  0  0  0  0  0  0
    9.7501  -18.7983   19.8282 C   0  0  0  0  0  0  0  0  0  0  0  0
   10.1639  -18.9816   18.3660 C   0  0  0  0  0  0  0  0  0  0  0  0
   11.5213  -19.6498   18.3599 C   0  0  0  0  0  0  0  0  0  0  0  0
   12.1024  -19.7247   16.9660 C   0  0  0  0  0  0  0  0  0  0  0  0
   13.3963  -20.3386   16.9189 N   0  0  0  0  0  0  0  0  0  0  0  0
    8.4595  -16.9305   20.7193 C   0  0  0  0  0  0  0  0  0  0  0  0
    9.0214  -15.9281   20.1995 O   0  0  0  0  0  0  0  0  0  0  0  0
    7.9477  -16.7913   22.0192 N   0  0  0  0  0  0  0  0  0  0  0  0
    7.9982  -15.5663   22.7854 C   0  0  1  0  0  0  0  0  0  0  0  0
    6.8182  -15.4061   23.7091 C   0  0  0  0  0  0  0  0  0  0  0  0
    6.9384  -14.2066   24.5700 C   0  0  0  0  0  0  0  0  0  0  0  0
    7.0395  -12.9435   24.0295 C   0  0  0  0  0  0  0  0  0  0  0  0
    7.1531  -11.8105   24.8285 C   0  0  0  0  0  0  0  0  0  0  0  0
    7.1687  -11.9137   26.2059 C   0  0  0  0  0  0  0  0  0  0  0  0
    7.0685  -13.1672   26.7476 C   0  0  0  0  0  0  0  0  0  0  0  0
    6.9566  -14.2820   25.9541 C   0  0  0  0  0  0  0  0  0  0  0  0
    9.2892  -15.4801   23.4652 C   0  0  0  0  0  0  0  0  0  0  0  0
    9.8294  -14.3578   23.6130 O   0  0  0  0  0  0  0  0  0  0  0  0
   10.0010  -16.5979   23.9864 N   0  0  0  0  0  0  0  0  0  0  0  0
   11.3397  -16.5063   24.5414 C   0  0  1  0  0  0  0  0  0  0  0  0
   11.3526  -17.4087   25.7641 C   0  0  0  0  0  0  0  0  0  0  0  0
   10.3272  -17.0565   26.7526 C   0  0  0  0  0  0  0  0  0  0  0  0
    9.1433  -17.6870   27.0769 C   0  0  0  0  0  0  0  0  0  0  0  0
    8.5422  -16.9811   28.0504 N   0  0  0  0  0  0  0  0  0  0  0  0
    9.2877  -15.9048   28.3818 C   0  0  0  0  0  0  0  0  0  0  0  0
    9.1118  -14.8804   29.3113 C   0  0  0  0  0  0  0  0  0  0  0  0
   10.0715  -13.8828   29.4318 C   0  0  0  0  0  0  0  0  0  0  0  0
   11.2003  -13.9019   28.6335 C   0  0  0  0  0  0  0  0  0  0  0  0
   11.3394  -14.9298   27.7269 C   0  0  0  0  0  0  0  0  0  0  0  0
   10.4058  -15.9420   27.5768 C   0  0  0  0  0  0  0  0  0  0  0  0
   12.3251  -16.9551   23.5297 C   0  0  0  0  0  0  0  0  0  0  0  0
   13.5568  -16.8912   23.7757 O   0  0  0  0  0  0  0  0  0  0  0  0
   11.9440  -17.4514   22.3014 O   0  0  0  0  0  0  0  0  0  0  0  0
  2  1  1  6
  2  3  1  0
  4  3  1  0
  5  4  1  0
  6  5  1  0
  7  6  1  0
  8  2  1  0
  9  8  2  0
 10  8  1  0
 11 10  1  0
 12 13  1  0
 11 12  1  1
 13 18  2  0
 14 15  2  0
 14 13  1  0
 15 16  1  0
 16 17  2  0
 18 17  1  0
 19 11  1  0
 19 21  1  0
 20 19  2  0
 22 21  1  0
 22 33  1  0
 22 23  1  1
 24 32  1  0
 24 23  1  0
 25 24  2  0
 26 25  1  0
 26 27  1  0
 27 32  2  0
 28 27  1  0
 28 29  2  0
 29 30  1  0
 30 31  2  0
 32 31  1  0
 33 35  1  0
 34 33  2  0
M  END
$$$$
