KFW.pdb
     RDKit          3D

 35 37  0  0  1  0  0  0  0  0999 V2000
    7.7868  -18.6843   18.7742 N   0  0  0  0  0  0  0  0  0  0  0  0
    8.7788  -17.6587   18.6254 C   0  0  1  0  0  0  0  0  0  0  0  0
    8.6565  -16.8708   17.3518 C   0  0  0  0  0  0  0  0  0  0  0  0
    8.3984  -17.8088   16.1701 C   0  0  0  0  0  0  0  0  0  0  0  0
    8.5416  -16.9923   14.9044 C   0  0  0  0  0  0  0  0  0  0  0  0
    8.4243  -17.8528   13.6666 C   0  0  0  0  0  0  0  0  0  0  0  0
    8.6989  -17.1453   12.4511 N   0  0  0  0  0  0  0  0  0  0  0  0
    8.8772  -16.7499   19.7778 C   0  0  0  0  0  0  0  0  0  0  0  0
    9.7836  -15.8735   19.7427 O   0  0  0  0  0  0  0  0  0  0  0  0
    8.0442  -16.7831   20.9074 N   0  0  0  0  0  0  0  0  0  0  0  0
    8.1639  -15.8825   22.0320 C   0  0  1  0  0  0  0  0  0  0  0  0
    6.9435  -15.8868   22.9162 C   0  0  0  0  0  0  0  0  0  0  0  0
    7.0715  -14.9464   24.0536 C   0  0  0  0  0  0  0  0  0  0  0  0
    6.6706  -15.2987   25.3237 C   0  0  0  0  0  0  0  0  0  0  0  0
    6.7859  -14.4235   26.3987 C   0  0  0  0  0  0  0  0  0  0  0  0
    7.3119  -13.1576   26.2283 C   0  0  0  0  0  0  0  0  0  0  0  0
    7.7116  -12.8030   24.9676 C   0  0  0  0  0  0  0  0  0  0  0  0
    7.5954  -13.6710   23.9102 C   0  0  0  0  0  0  0  0  0  0  0  0
    9.4054  -16.1723   22.7469 C   0  0  0  0  0  0  0  0  0  0  0  0
   10.4361  -15.5104   22.4767 O   0  0  0  0  0  0  0  0  0  0  0  0
    9.5414  -17.1721   23.7516 N   0  0  0  0  0  0  0  0  0  0  0  0
   10.7903  -17.4535   24.4369 C   0  0  1  0  0  0  0  0  0  0  0  0
   11.1569  -16.1827   25.1854 C   0  0  0  0  0  0  0  0  0  0  0  0
   10.7784  -16.2175   26.6026 C   0  0  0  0  0  0  0  0  0  0  0  0
   10.5737  -17.2890   27.4477 C   0  0  0  0  0  0  0  0  0  0  0  0
   10.2403  -16.8127   28.6598 N   0  0  0  0  0  0  0  0  0  0  0  0
   10.2172  -15.4624   28.6461 C   0  0  0  0  0  0  0  0  0  0  0  0
    9.9365  -14.5096   29.6248 C   0  0  0  0  0  0  0  0  0  0  0  0
    9.9934  -13.1573   29.3108 C   0  0  0  0  0  0  0  0  0  0  0  0
   10.3273  -12.7525   28.0315 C   0  0  0  0  0  0  0  0  0  0  0  0
   10.5981  -13.7225   27.0915 C   0  0  0  0  0  0  0  0  0  0  0  0
   10.5520  -15.0796   27.3651 C   0  0  0  0  0  0  0  0  0  0  0  0
   10.5973  -18.5906   25.3673 C   0  0  0  0  0  0  0  0  0  0  0  0
    9.4373  -18.9842   25.6519 O   0  0  0  0  0  0  0  0  0  0  0  0
   11.6571  -19.2526   25.9494 O   0  0  0  0  0  0  0  0  0  0  0  0
  2  1  1  1
  2  3  1  0
  4  3  1  0
  5  4  1  0
  6  5  1  0
  7  6  1  0
  8  2  1  0
  9  8  2  0
 10  8  1  0
 11 10  1  0
 12 13  1  0
 11 12  1  1
 13 18  2  0
 14 15  2  0
 14 13  1  0
 15 16  1  0
 16 17  2  0
 18 17  1  0
 19 11  1  0
 19 21  1  0
 20 19  2  0
 22 21  1  0
 22 33  1  0
 22 23  1  1
 24 32  1  0
 24 23  1  0
 25 24  2  0
 26 25  1  0
 26 27  1  0
 27 32  2  0
 28 27  1  0
 28 29  2  0
 29 30  1  0
 30 31  2  0
 32 31  1  0
 33 35  1  0
 34 33  2  0
M  END
$$$$
