KFW.pdb
     RDKit          3D

 35 37  0  0  1  0  0  0  0  0999 V2000
    8.7533  -18.6996   20.2598 N   0  0  0  0  0  0  0  0  0  0  0  0
    9.5028  -17.5438   19.8593 C   0  0  1  0  0  0  0  0  0  0  0  0
    9.2636  -17.1235   18.4367 C   0  0  0  0  0  0  0  0  0  0  0  0
    7.8855  -17.5968   17.9679 C   0  0  0  0  0  0  0  0  0  0  0  0
    8.0856  -18.3724   16.6844 C   0  0  0  0  0  0  0  0  0  0  0  0
    6.7675  -18.7649   16.0560 C   0  0  0  0  0  0  0  0  0  0  0  0
    6.9108  -19.4129   14.7859 N   0  0  0  0  0  0  0  0  0  0  0  0
    9.3533  -16.3917   20.7616 C   0  0  0  0  0  0  0  0  0  0  0  0
   10.0842  -15.3884   20.5382 O   0  0  0  0  0  0  0  0  0  0  0  0
    8.4647  -16.3240   21.8463 N   0  0  0  0  0  0  0  0  0  0  0  0
    8.4355  -15.2435   22.8065 C   0  0  1  0  0  0  0  0  0  0  0  0
    7.0363  -14.8727   23.2261 C   0  0  0  0  0  0  0  0  0  0  0  0
    7.0215  -13.7801   24.2264 C   0  0  0  0  0  0  0  0  0  0  0  0
    6.6137  -14.0014   25.5236 C   0  0  0  0  0  0  0  0  0  0  0  0
    6.5957  -12.9829   26.4708 C   0  0  0  0  0  0  0  0  0  0  0  0
    6.9902  -11.7009   26.1402 C   0  0  0  0  0  0  0  0  0  0  0  0
    7.3963  -11.4764   24.8520 C   0  0  0  0  0  0  0  0  0  0  0  0
    7.4120  -12.4856   23.9212 C   0  0  0  0  0  0  0  0  0  0  0  0
    9.3137  -15.5752   23.9268 C   0  0  0  0  0  0  0  0  0  0  0  0
    8.8540  -15.5490   25.0935 O   0  0  0  0  0  0  0  0  0  0  0  0
   10.6853  -15.9349   23.7955 N   0  0  0  0  0  0  0  0  0  0  0  0
   11.5354  -16.2730   24.9231 C   0  0  1  0  0  0  0  0  0  0  0  0
   10.9988  -17.5814   25.4793 C   0  0  0  0  0  0  0  0  0  0  0  0
   10.6453  -17.5028   26.9012 C   0  0  0  0  0  0  0  0  0  0  0  0
   10.6610  -18.4735   27.8818 C   0  0  0  0  0  0  0  0  0  0  0  0
   10.2499  -17.9160   29.0340 N   0  0  0  0  0  0  0  0  0  0  0  0
    9.9625  -16.6093   28.8496 C   0  0  0  0  0  0  0  0  0  0  0  0
    9.5080  -15.6090   29.7082 C   0  0  0  0  0  0  0  0  0  0  0  0
    9.2963  -14.3242   29.2233 C   0  0  0  0  0  0  0  0  0  0  0  0
    9.5347  -14.0336   27.8926 C   0  0  0  0  0  0  0  0  0  0  0  0
    9.9831  -15.0476   27.0749 C   0  0  0  0  0  0  0  0  0  0  0  0
   10.2061  -16.3402   27.5201 C   0  0  0  0  0  0  0  0  0  0  0  0
   12.9354  -16.4181   24.4595 C   0  0  0  0  0  0  0  0  0  0  0  0
   13.8715  -16.5071   25.2948 O   0  0  0  0  0  0  0  0  0  0  0  0
   13.2666  -16.4608   23.1221 O   0  0  0  0  0  0  0  0  0  0  0  0
  2  1  1  1
  2  3  1  0
  4  3  1  0
  5  4  1  0
  6  5  1  0
  7  6  1  0
  8  2  1  0
  9  8  2  0
 10  8  1  0
 11 10  1  0
 12 13  1  0
 11 12  1  1
 13 18  2  0
 14 15  2  0
 14 13  1  0
 15 16  1  0
 16 17  2  0
 18 17  1  0
 19 11  1  0
 19 21  1  0
 20 19  2  0
 22 21  1  0
 22 33  1  0
 22 23  1  6
 24 32  1  0
 24 23  1  0
 25 24  2  0
 26 25  1  0
 26 27  1  0
 27 32  2  0
 28 27  1  0
 28 29  2  0
 29 30  1  0
 30 31  2  0
 32 31  1  0
 33 35  1  0
 34 33  2  0
M  END
$$$$
