KFW.pdb
     RDKit          3D

 35 37  0  0  1  0  0  0  0  0999 V2000
   10.6492  -19.7629   19.0051 N   0  0  0  0  0  0  0  0  0  0  0  0
   11.6886  -18.7996   19.2280 C   0  0  1  0  0  0  0  0  0  0  0  0
   12.2552  -18.2096   17.9676 C   0  0  0  0  0  0  0  0  0  0  0  0
   12.9534  -19.2928   17.1417 C   0  0  0  0  0  0  0  0  0  0  0  0
   11.9107  -19.9178   16.2410 C   0  0  0  0  0  0  0  0  0  0  0  0
   12.5072  -20.9830   15.3489 C   0  0  0  0  0  0  0  0  0  0  0  0
   11.5396  -21.6465   14.5261 N   0  0  0  0  0  0  0  0  0  0  0  0
   11.3215  -17.7305   20.1693 C   0  0  0  0  0  0  0  0  0  0  0  0
   12.1817  -16.8332   20.3836 O   0  0  0  0  0  0  0  0  0  0  0  0
   10.0941  -17.6330   20.8438 N   0  0  0  0  0  0  0  0  0  0  0  0
    9.7511  -16.5656   21.7566 C   0  0  1  0  0  0  0  0  0  0  0  0
    8.2642  -16.3450   21.8650 C   0  0  0  0  0  0  0  0  0  0  0  0
    7.8622  -14.9954   21.4051 C   0  0  0  0  0  0  0  0  0  0  0  0
    6.6413  -14.4560   21.7464 C   0  0  0  0  0  0  0  0  0  0  0  0
    6.2537  -13.1900   21.3199 C   0  0  0  0  0  0  0  0  0  0  0  0
    7.0880  -12.4217   20.5313 C   0  0  0  0  0  0  0  0  0  0  0  0
    8.3025  -12.9539   20.1897 C   0  0  0  0  0  0  0  0  0  0  0  0
    8.6799  -14.2041   20.6135 C   0  0  0  0  0  0  0  0  0  0  0  0
   10.4019  -16.8081   23.0426 C   0  0  0  0  0  0  0  0  0  0  0  0
   11.6284  -16.5735   23.1618 O   0  0  0  0  0  0  0  0  0  0  0  0
    9.7372  -17.3024   24.2008 N   0  0  0  0  0  0  0  0  0  0  0  0
   10.1017  -16.9253   25.5549 C   0  0  1  0  0  0  0  0  0  0  0  0
    9.8796  -15.4249   25.6497 C   0  0  0  0  0  0  0  0  0  0  0  0
    8.4619  -15.0479   25.6203 C   0  0  0  0  0  0  0  0  0  0  0  0
    7.3360  -15.8170   25.4085 C   0  0  0  0  0  0  0  0  0  0  0  0
    6.2587  -15.0158   25.4772 N   0  0  0  0  0  0  0  0  0  0  0  0
    6.6329  -13.7424   25.7272 C   0  0  0  0  0  0  0  0  0  0  0  0
    5.9147  -12.5580   25.8875 C   0  0  0  0  0  0  0  0  0  0  0  0
    6.5878  -11.3695   26.1424 C   0  0  0  0  0  0  0  0  0  0  0  0
    7.9671  -11.3566   26.2377 C   0  0  0  0  0  0  0  0  0  0  0  0
    8.6423  -12.5461   26.0736 C   0  0  0  0  0  0  0  0  0  0  0  0
    8.0080  -13.7508   25.8185 C   0  0  0  0  0  0  0  0  0  0  0  0
    9.2473  -17.6587   26.5183 C   0  0  0  0  0  0  0  0  0  0  0  0
    9.4911  -17.6004   27.7507 O   0  0  0  0  0  0  0  0  0  0  0  0
    8.1714  -18.4205   26.1155 O   0  0  0  0  0  0  0  0  0  0  0  0
  2  1  1  6
  2  3  1  0
  4  3  1  0
  5  4  1  0
  6  5  1  0
  7  6  1  0
  8  2  1  0
  9  8  2  0
 10  8  1  0
 11 10  1  0
 12 13  1  0
 11 12  1  1
 13 18  2  0
 14 15  2  0
 14 13  1  0
 15 16  1  0
 16 17  2  0
 18 17  1  0
 19 11  1  0
 19 21  1  0
 20 19  2  0
 22 21  1  0
 22 33  1  0
 22 23  1  6
 24 32  1  0
 24 23  1  0
 25 24  2  0
 26 25  1  0
 26 27  1  0
 27 32  2  0
 28 27  1  0
 28 29  2  0
 29 30  1  0
 30 31  2  0
 32 31  1  0
 33 35  1  0
 34 33  2  0
M  END
$$$$
