KFW.pdb
     RDKit          3D

 35 37  0  0  1  0  0  0  0  0999 V2000
    8.7294  -18.9604   20.3420 N   0  0  0  0  0  0  0  0  0  0  0  0
    9.9366  -18.2261   20.0943 C   0  0  1  0  0  0  0  0  0  0  0  0
   10.1347  -17.8441   18.6547 C   0  0  0  0  0  0  0  0  0  0  0  0
    9.4819  -18.8798   17.7360 C   0  0  0  0  0  0  0  0  0  0  0  0
    9.5424  -18.3359   16.3255 C   0  0  0  0  0  0  0  0  0  0  0  0
    8.8893  -19.2734   15.3352 C   0  0  0  0  0  0  0  0  0  0  0  0
    7.4582  -19.2003   15.3377 N   0  0  0  0  0  0  0  0  0  0  0  0
   10.1098  -17.0500   20.9606 C   0  0  0  0  0  0  0  0  0  0  0  0
   11.1611  -16.3710   20.8042 O   0  0  0  0  0  0  0  0  0  0  0  0
    9.1998  -16.6280   21.9428 N   0  0  0  0  0  0  0  0  0  0  0  0
    9.2953  -15.3724   22.6532 C   0  0  1  0  0  0  0  0  0  0  0  0
    7.9947  -14.6113   22.6715 C   0  0  0  0  0  0  0  0  0  0  0  0
    7.5599  -14.2108   21.3132 C   0  0  0  0  0  0  0  0  0  0  0  0
    8.0031  -13.0418   20.7343 C   0  0  0  0  0  0  0  0  0  0  0  0
    7.6010  -12.6560   19.4598 C   0  0  0  0  0  0  0  0  0  0  0  0
    6.7345  -13.4397   18.7227 C   0  0  0  0  0  0  0  0  0  0  0  0
    6.2914  -14.6024   19.2942 C   0  0  0  0  0  0  0  0  0  0  0  0
    6.6916  -14.9782   20.5526 C   0  0  0  0  0  0  0  0  0  0  0  0
    9.8492  -15.6164   23.9836 C   0  0  0  0  0  0  0  0  0  0  0  0
   10.7485  -14.8590   24.4206 O   0  0  0  0  0  0  0  0  0  0  0  0
    9.4386  -16.6730   24.8454 N   0  0  0  0  0  0  0  0  0  0  0  0
    9.9574  -16.8575   26.1890 C   0  0  1  0  0  0  0  0  0  0  0  0
    8.7489  -16.8690   27.1104 C   0  0  0  0  0  0  0  0  0  0  0  0
    7.7347  -15.8735   26.7454 C   0  0  0  0  0  0  0  0  0  0  0  0
    6.5101  -16.0289   26.1287 C   0  0  0  0  0  0  0  0  0  0  0  0
    5.9412  -14.8168   26.0090 N   0  0  0  0  0  0  0  0  0  0  0  0
    6.7473  -13.8641   26.5253 C   0  0  0  0  0  0  0  0  0  0  0  0
    6.6232  -12.4803   26.6443 C   0  0  0  0  0  0  0  0  0  0  0  0
    7.6412  -11.7424   27.2357 C   0  0  0  0  0  0  0  0  0  0  0  0
    8.7769  -12.3747   27.7067 C   0  0  0  0  0  0  0  0  0  0  0  0
    8.8639  -13.7430   27.5716 C   0  0  0  0  0  0  0  0  0  0  0  0
    7.8713  -14.5134   26.9885 C   0  0  0  0  0  0  0  0  0  0  0  0
   10.7013  -18.1371   26.2595 C   0  0  0  0  0  0  0  0  0  0  0  0
   10.7269  -18.9084   25.2664 O   0  0  0  0  0  0  0  0  0  0  0  0
   11.3829  -18.5302   27.3912 O   0  0  0  0  0  0  0  0  0  0  0  0
  2  1  1  6
  2  3  1  0
  4  3  1  0
  5  4  1  0
  6  5  1  0
  7  6  1  0
  8  2  1  0
  9  8  2  0
 10  8  1  0
 11 10  1  0
 12 13  1  0
 11 12  1  1
 13 18  2  0
 14 15  2  0
 14 13  1  0
 15 16  1  0
 16 17  2  0
 18 17  1  0
 19 11  1  0
 19 21  1  0
 20 19  2  0
 22 21  1  0
 22 33  1  0
 22 23  1  1
 24 32  1  0
 24 23  1  0
 25 24  2  0
 26 25  1  0
 26 27  1  0
 27 32  2  0
 28 27  1  0
 28 29  2  0
 29 30  1  0
 30 31  2  0
 32 31  1  0
 33 35  1  0
 34 33  2  0
M  END
$$$$
