KFW.pdb
     RDKit          3D

 35 37  0  0  1  0  0  0  0  0999 V2000
    7.9716  -18.7731   19.0958 N   0  0  0  0  0  0  0  0  0  0  0  0
    9.1613  -17.9717   19.1146 C   0  0  1  0  0  0  0  0  0  0  0  0
    9.4807  -17.3215   17.7982 C   0  0  0  0  0  0  0  0  0  0  0  0
    9.5344  -18.3722   16.6864 C   0  0  0  0  0  0  0  0  0  0  0  0
    8.2758  -18.2219   15.8603 C   0  0  0  0  0  0  0  0  0  0  0  0
    8.2907  -19.1249   14.6476 C   0  0  0  0  0  0  0  0  0  0  0  0
    7.5555  -20.3409   14.8319 N   0  0  0  0  0  0  0  0  0  0  0  0
    9.1935  -16.9741   20.1951 C   0  0  0  0  0  0  0  0  0  0  0  0
   10.1967  -16.2112   20.2430 O   0  0  0  0  0  0  0  0  0  0  0  0
    8.1989  -16.8074   21.1719 N   0  0  0  0  0  0  0  0  0  0  0  0
    8.2302  -15.7893   22.1978 C   0  0  1  0  0  0  0  0  0  0  0  0
    6.9809  -15.7707   23.0406 C   0  0  0  0  0  0  0  0  0  0  0  0
    7.0309  -14.7315   24.0951 C   0  0  0  0  0  0  0  0  0  0  0  0
    7.4196  -13.4406   23.8114 C   0  0  0  0  0  0  0  0  0  0  0  0
    7.4704  -12.4571   24.7938 C   0  0  0  0  0  0  0  0  0  0  0  0
    7.1293  -12.7437   26.1015 C   0  0  0  0  0  0  0  0  0  0  0  0
    6.7424  -14.0255   26.3880 C   0  0  0  0  0  0  0  0  0  0  0  0
    6.6942  -14.9922   25.4142 C   0  0  0  0  0  0  0  0  0  0  0  0
    9.4590  -15.9322   22.9763 C   0  0  0  0  0  0  0  0  0  0  0  0
   10.3047  -15.0059   22.9606 O   0  0  0  0  0  0  0  0  0  0  0  0
    9.7808  -17.0687   23.7715 N   0  0  0  0  0  0  0  0  0  0  0  0
   11.0796  -17.2725   24.3880 C   0  0  1  0  0  0  0  0  0  0  0  0
   11.3004  -16.0850   25.3102 C   0  0  0  0  0  0  0  0  0  0  0  0
   10.6257  -16.2264   26.6055 C   0  0  0  0  0  0  0  0  0  0  0  0
    9.8637  -17.2609   27.1090 C   0  0  0  0  0  0  0  0  0  0  0  0
    9.4603  -16.9243   28.3464 N   0  0  0  0  0  0  0  0  0  0  0  0
    9.9292  -15.7023   28.6794 C   0  0  0  0  0  0  0  0  0  0  0  0
    9.7978  -14.9167   29.8240 C   0  0  0  0  0  0  0  0  0  0  0  0
   10.4075  -13.6694   29.8811 C   0  0  0  0  0  0  0  0  0  0  0  0
   11.1440  -13.2041   28.8075 C   0  0  0  0  0  0  0  0  0  0  0  0
   11.2515  -14.0082   27.6940 C   0  0  0  0  0  0  0  0  0  0  0  0
   10.6590  -15.2567   27.5985 C   0  0  0  0  0  0  0  0  0  0  0  0
   11.0730  -18.5475   25.1430 C   0  0  0  0  0  0  0  0  0  0  0  0
    9.9985  -19.1811   25.3035 O   0  0  0  0  0  0  0  0  0  0  0  0
   12.2186  -19.0839   25.6908 O   0  0  0  0  0  0  0  0  0  0  0  0
  2  1  1  6
  2  3  1  0
  4  3  1  0
  5  4  1  0
  6  5  1  0
  7  6  1  0
  8  2  1  0
  9  8  2  0
 10  8  1  0
 11 10  1  0
 12 13  1  0
 11 12  1  1
 13 18  2  0
 14 15  2  0
 14 13  1  0
 15 16  1  0
 16 17  2  0
 18 17  1  0
 19 11  1  0
 19 21  1  0
 20 19  2  0
 22 21  1  0
 22 33  1  0
 22 23  1  1
 24 32  1  0
 24 23  1  0
 25 24  2  0
 26 25  1  0
 26 27  1  0
 27 32  2  0
 28 27  1  0
 28 29  2  0
 29 30  1  0
 30 31  2  0
 32 31  1  0
 33 35  1  0
 34 33  2  0
M  END
$$$$
