KFW.pdb
     RDKit          3D

 35 37  0  0  1  0  0  0  0  0999 V2000
    9.1495  -19.2510   18.8818 N   0  0  0  0  0  0  0  0  0  0  0  0
    9.6866  -17.9288   18.7356 C   0  0  1  0  0  0  0  0  0  0  0  0
    9.2419  -17.2237   17.4855 C   0  0  0  0  0  0  0  0  0  0  0  0
    9.2845  -18.1813   16.2922 C   0  0  0  0  0  0  0  0  0  0  0  0
   10.7194  -18.2495   15.8174 C   0  0  0  0  0  0  0  0  0  0  0  0
   10.8513  -19.0601   14.5479 C   0  0  0  0  0  0  0  0  0  0  0  0
   10.5339  -18.3205   13.3623 N   0  0  0  0  0  0  0  0  0  0  0  0
    9.4776  -17.0652   19.9079 C   0  0  0  0  0  0  0  0  0  0  0  0
    9.9526  -15.8981   19.8537 O   0  0  0  0  0  0  0  0  0  0  0  0
    8.7941  -17.4387   21.0760 N   0  0  0  0  0  0  0  0  0  0  0  0
    8.6269  -16.5821   22.2286 C   0  0  1  0  0  0  0  0  0  0  0  0
    7.1810  -16.3871   22.6065 C   0  0  0  0  0  0  0  0  0  0  0  0
    7.0245  -15.5204   23.7977 C   0  0  0  0  0  0  0  0  0  0  0  0
    6.6919  -16.0452   25.0272 C   0  0  0  0  0  0  0  0  0  0  0  0
    6.5421  -15.2407   26.1521 C   0  0  0  0  0  0  0  0  0  0  0  0
    6.7237  -13.8734   26.0745 C   0  0  0  0  0  0  0  0  0  0  0  0
    7.0544  -13.3474   24.8543 C   0  0  0  0  0  0  0  0  0  0  0  0
    7.2009  -14.1464   23.7474 C   0  0  0  0  0  0  0  0  0  0  0  0
    9.4549  -17.0854   23.3228 C   0  0  0  0  0  0  0  0  0  0  0  0
    9.4895  -18.3191   23.5468 O   0  0  0  0  0  0  0  0  0  0  0  0
   10.2459  -16.2653   24.1769 N   0  0  0  0  0  0  0  0  0  0  0  0
   11.2875  -16.7845   25.0453 C   0  0  1  0  0  0  0  0  0  0  0  0
   11.8636  -15.5843   25.7781 C   0  0  0  0  0  0  0  0  0  0  0  0
   11.0043  -15.1052   26.8666 C   0  0  0  0  0  0  0  0  0  0  0  0
   10.7042  -15.6759   28.0866 C   0  0  0  0  0  0  0  0  0  0  0  0
    9.8674  -14.8534   28.7427 N   0  0  0  0  0  0  0  0  0  0  0  0
    9.6031  -13.7576   27.9988 C   0  0  0  0  0  0  0  0  0  0  0  0
    8.8126  -12.6304   28.2198 C   0  0  0  0  0  0  0  0  0  0  0  0
    8.7313  -11.6406   27.2481 C   0  0  0  0  0  0  0  0  0  0  0  0
    9.4312  -11.7689   26.0626 C   0  0  0  0  0  0  0  0  0  0  0  0
   10.2017  -12.8963   25.8800 C   0  0  0  0  0  0  0  0  0  0  0  0
   10.3087  -13.9045   26.8239 C   0  0  0  0  0  0  0  0  0  0  0  0
   10.6997  -17.7624   25.9909 C   0  0  0  0  0  0  0  0  0  0  0  0
   11.4423  -18.4124   26.7703 O   0  0  0  0  0  0  0  0  0  0  0  0
    9.3430  -17.9978   26.0566 O   0  0  0  0  0  0  0  0  0  0  0  0
  2  1  1  1
  2  3  1  0
  4  3  1  0
  5  4  1  0
  6  5  1  0
  7  6  1  0
  8  2  1  0
  9  8  2  0
 10  8  1  0
 11 10  1  0
 12 13  1  0
 11 12  1  1
 13 18  2  0
 14 15  2  0
 14 13  1  0
 15 16  1  0
 16 17  2  0
 18 17  1  0
 19 11  1  0
 19 21  1  0
 20 19  2  0
 22 21  1  0
 22 33  1  0
 22 23  1  1
 24 32  1  0
 24 23  1  0
 25 24  2  0
 26 25  1  0
 26 27  1  0
 27 32  2  0
 28 27  1  0
 28 29  2  0
 29 30  1  0
 30 31  2  0
 32 31  1  0
 33 35  1  0
 34 33  2  0
M  END
$$$$
