KFW.pdb
     RDKit          3D

 35 37  0  0  1  0  0  0  0  0999 V2000
    5.1478  -20.0365   22.9406 N   0  0  0  0  0  0  0  0  0  0  0  0
    6.1917  -19.3512   22.2344 C   0  0  1  0  0  0  0  0  0  0  0  0
    5.9178  -19.1657   20.7687 C   0  0  0  0  0  0  0  0  0  0  0  0
    5.5524  -20.5047   20.1234 C   0  0  0  0  0  0  0  0  0  0  0  0
    5.8851  -20.4033   18.6509 C   0  0  0  0  0  0  0  0  0  0  0  0
    5.5552  -21.6812   17.9130 C   0  0  0  0  0  0  0  0  0  0  0  0
    4.1588  -21.8329   17.6294 N   0  0  0  0  0  0  0  0  0  0  0  0
    6.5859  -18.0717   22.8437 C   0  0  0  0  0  0  0  0  0  0  0  0
    6.7782  -17.0991   22.0640 O   0  0  0  0  0  0  0  0  0  0  0  0
    6.7636  -17.8514   24.2188 N   0  0  0  0  0  0  0  0  0  0  0  0
    7.3107  -16.6381   24.7833 C   0  0  1  0  0  0  0  0  0  0  0  0
    6.5070  -16.1222   25.9492 C   0  0  0  0  0  0  0  0  0  0  0  0
    6.9209  -14.7595   26.3567 C   0  0  0  0  0  0  0  0  0  0  0  0
    6.1230  -13.6640   26.1092 C   0  0  0  0  0  0  0  0  0  0  0  0
    6.5019  -12.3800   26.4872 C   0  0  0  0  0  0  0  0  0  0  0  0
    7.7038  -12.1566   27.1306 C   0  0  0  0  0  0  0  0  0  0  0  0
    8.5001  -13.2425   27.3786 C   0  0  0  0  0  0  0  0  0  0  0  0
    8.1210  -14.5076   27.0032 C   0  0  0  0  0  0  0  0  0  0  0  0
    8.7231  -16.8495   25.0940 C   0  0  0  0  0  0  0  0  0  0  0  0
    9.1017  -16.7957   26.2887 O   0  0  0  0  0  0  0  0  0  0  0  0
    9.7297  -17.1184   24.1233 N   0  0  0  0  0  0  0  0  0  0  0  0
   10.8494  -16.2308   23.8643 C   0  0  1  0  0  0  0  0  0  0  0  0
   10.2472  -14.9188   23.3895 C   0  0  0  0  0  0  0  0  0  0  0  0
    9.9789  -14.8949   21.9473 C   0  0  0  0  0  0  0  0  0  0  0  0
   10.5687  -15.5967   20.9159 C   0  0  0  0  0  0  0  0  0  0  0  0
    9.9778  -15.2316   19.7649 N   0  0  0  0  0  0  0  0  0  0  0  0
    9.0169  -14.3118   19.9990 C   0  0  0  0  0  0  0  0  0  0  0  0
    8.1343  -13.6297   19.1622 C   0  0  0  0  0  0  0  0  0  0  0  0
    7.2343  -12.7185   19.7009 C   0  0  0  0  0  0  0  0  0  0  0  0
    7.2102  -12.4854   21.0636 C   0  0  0  0  0  0  0  0  0  0  0  0
    8.0970  -13.1780   21.8584 C   0  0  0  0  0  0  0  0  0  0  0  0
    9.0088  -14.0939   21.3598 C   0  0  0  0  0  0  0  0  0  0  0  0
   11.6308  -16.0460   25.1097 C   0  0  0  0  0  0  0  0  0  0  0  0
   12.7346  -15.4439   25.0794 O   0  0  0  0  0  0  0  0  0  0  0  0
   11.1927  -16.5154   26.3294 O   0  0  0  0  0  0  0  0  0  0  0  0
  2  1  1  1
  2  3  1  0
  4  3  1  0
  5  4  1  0
  6  5  1  0
  7  6  1  0
  8  2  1  0
  9  8  2  0
 10  8  1  0
 11 10  1  0
 12 13  1  0
 11 12  1  1
 13 18  2  0
 14 15  2  0
 14 13  1  0
 15 16  1  0
 16 17  2  0
 18 17  1  0
 19 11  1  0
 19 21  1  0
 20 19  2  0
 22 21  1  0
 22 33  1  0
 22 23  1  1
 24 32  1  0
 24 23  1  0
 25 24  2  0
 26 25  1  0
 26 27  1  0
 27 32  2  0
 28 27  1  0
 28 29  2  0
 29 30  1  0
 30 31  2  0
 32 31  1  0
 33 35  1  0
 34 33  2  0
M  END
$$$$
