KFW.pdb
     RDKit          3D

 35 37  0  0  1  0  0  0  0  0999 V2000
    9.6788  -16.3682   17.2587 N   0  0  0  0  0  0  0  0  0  0  0  0
    9.3750  -17.2413   18.3558 C   0  0  1  0  0  0  0  0  0  0  0  0
   10.1944  -18.5004   18.3794 C   0  0  0  0  0  0  0  0  0  0  0  0
   10.0618  -19.2451   17.0487 C   0  0  0  0  0  0  0  0  0  0  0  0
   10.4938  -20.6757   17.2855 C   0  0  0  0  0  0  0  0  0  0  0  0
   10.4709  -21.4861   16.0092 C   0  0  0  0  0  0  0  0  0  0  0  0
   10.9666  -22.8208   16.1712 N   0  0  0  0  0  0  0  0  0  0  0  0
    9.4143  -16.5846   19.6714 C   0  0  0  0  0  0  0  0  0  0  0  0
   10.4998  -16.0379   20.0085 O   0  0  0  0  0  0  0  0  0  0  0  0
    8.3422  -16.5203   20.5756 N   0  0  0  0  0  0  0  0  0  0  0  0
    8.4000  -15.8562   21.8585 C   0  0  1  0  0  0  0  0  0  0  0  0
    7.0633  -15.3157   22.2972 C   0  0  0  0  0  0  0  0  0  0  0  0
    7.1073  -14.7545   23.6674 C   0  0  0  0  0  0  0  0  0  0  0  0
    6.5654  -15.4323   24.7374 C   0  0  0  0  0  0  0  0  0  0  0  0
    6.6009  -14.9146   26.0279 C   0  0  0  0  0  0  0  0  0  0  0  0
    7.1870  -13.6901   26.2842 C   0  0  0  0  0  0  0  0  0  0  0  0
    7.7270  -13.0129   25.2237 C   0  0  0  0  0  0  0  0  0  0  0  0
    7.6889  -13.5288   23.9519 C   0  0  0  0  0  0  0  0  0  0  0  0
    9.0173  -16.7528   22.8339 C   0  0  0  0  0  0  0  0  0  0  0  0
    8.7106  -17.9690   22.8272 O   0  0  0  0  0  0  0  0  0  0  0  0
    9.9635  -16.3447   23.8167 N   0  0  0  0  0  0  0  0  0  0  0  0
   10.7430  -17.2761   24.6125 C   0  0  1  0  0  0  0  0  0  0  0  0
   11.5600  -16.4291   25.5741 C   0  0  0  0  0  0  0  0  0  0  0  0
   11.0189  -16.4191   26.9379 C   0  0  0  0  0  0  0  0  0  0  0  0
   10.8044  -17.4561   27.8227 C   0  0  0  0  0  0  0  0  0  0  0  0
   10.2899  -16.9452   28.9547 N   0  0  0  0  0  0  0  0  0  0  0  0
   10.1564  -15.6053   28.8496 C   0  0  0  0  0  0  0  0  0  0  0  0
    9.6823  -14.6289   29.7250 C   0  0  0  0  0  0  0  0  0  0  0  0
    9.6638  -13.2965   29.3313 C   0  0  0  0  0  0  0  0  0  0  0  0
   10.1135  -12.9349   28.0748 C   0  0  0  0  0  0  0  0  0  0  0  0
   10.5745  -13.9273   27.2377 C   0  0  0  0  0  0  0  0  0  0  0  0
   10.6090  -15.2657   27.5930 C   0  0  0  0  0  0  0  0  0  0  0  0
    9.8295  -18.1882   25.3401 C   0  0  0  0  0  0  0  0  0  0  0  0
   10.2804  -19.2217   25.8973 O   0  0  0  0  0  0  0  0  0  0  0  0
    8.4752  -17.9500   25.4363 O   0  0  0  0  0  0  0  0  0  0  0  0
  2  1  1  6
  2  3  1  0
  4  3  1  0
  5  4  1  0
  6  5  1  0
  7  6  1  0
  8  2  1  0
  9  8  2  0
 10  8  1  0
 11 10  1  0
 12 13  1  0
 11 12  1  1
 13 18  2  0
 14 15  2  0
 14 13  1  0
 15 16  1  0
 16 17  2  0
 18 17  1  0
 19 11  1  0
 19 21  1  0
 20 19  2  0
 22 21  1  0
 22 33  1  0
 22 23  1  1
 24 32  1  0
 24 23  1  0
 25 24  2  0
 26 25  1  0
 26 27  1  0
 27 32  2  0
 28 27  1  0
 28 29  2  0
 29 30  1  0
 30 31  2  0
 32 31  1  0
 33 35  1  0
 34 33  2  0
M  END
$$$$
