RDM.pdb
     RDKit          3D

 28 27  0  0  1  0  0  0  0  0999 V2000
    8.4524  -13.1520   17.2262 N   0  0  0  0  0  0  0  0  0  0  0  0
    8.4327  -13.1942   18.6465 C   0  0  0  0  0  0  0  0  0  0  0  0
    8.4077  -12.0570   19.2555 N   0  0  0  0  0  0  0  0  0  0  0  0
    8.4404  -14.4121   19.3744 N   0  0  0  0  0  0  0  0  0  0  0  0
    7.2107  -15.2304   19.3953 C   0  0  0  0  0  0  0  0  0  0  0  0
    6.4721  -14.9121   20.6655 C   0  0  0  0  0  0  0  0  0  0  0  0
    7.0758  -15.5031   21.8910 C   0  0  0  0  0  0  0  0  0  0  0  0
    7.5539  -16.9198   21.7530 C   0  0  2  0  0  0  0  0  0  0  0  0
    6.4780  -17.8728   21.6609 N   0  0  0  0  0  0  0  0  0  0  0  0
    8.4274  -17.3194   22.8854 C   0  0  0  0  0  0  0  0  0  0  0  0
    7.9310  -17.7315   23.9358 O   0  0  0  0  0  0  0  0  0  0  0  0
    8.5479  -11.9141   20.2728 N   0  0  0  0  0  0  0  0  0  0  0  0
    9.8489  -17.2512   22.8219 C   0  0  2  0  0  0  0  0  0  0  0  0
   10.7020  -17.4880   23.9326 C   0  0  0  0  0  0  0  0  0  0  0  0
   12.1098  -17.8508   23.6202 C   0  0  0  0  0  0  0  0  0  0  0  0
   12.8652  -18.0802   24.8513 O   0  0  0  0  0  0  0  0  0  0  0  0
   12.3845  -18.7991   25.7906 C   0  0  0  0  0  0  0  0  0  0  0  0
   10.6485  -16.2993   24.8205 O   0  0  0  0  0  0  0  0  0  0  0  0
   10.6067  -15.1263   24.3626 O   0  0  0  0  0  0  0  0  0  0  0  0
   14.1247  -17.5543   25.0961 C   0  0  0  0  0  0  0  0  0  0  0  0
    7.3825  -11.5760   25.9731 S   0  0  0  0  0  0  0  0  0  0  0  0
    7.0046  -12.9440   27.1351 C   0  0  0  0  0  0  0  0  0  0  0  0
    8.5691  -13.6407   27.6952 C   0  0  0  0  0  0  0  0  0  0  0  0
    9.0556  -14.7014   26.7679 C   0  0  1  0  0  0  0  0  0  0  0  0
   10.3782  -15.2926   27.1320 N   0  0  0  0  0  0  0  0  0  0  0  0
   10.6413  -16.4180   26.2382 C   0  0  0  0  0  0  0  0  0  0  0  0
   10.4586  -15.7935   28.5180 O   0  0  0  0  0  0  0  0  0  0  0  0
   10.2271  -15.0619   29.5053 O   0  0  0  0  0  0  0  0  0  0  0  0
  2  1  1  0
  3  2  2  0
  4  5  1  0
  4  2  1  0
  6  5  1  0
  7  6  1  0
  8  9  1  1
  8  7  1  0
 10  8  1  0
 11 10  2  0
 12 10  1  0
 13 12  1  0
 13 14  1  6
 15 14  1  0
 16 15  2  0
 17 13  1  0
 17 25  1  0
 18 17  2  0
 19 15  1  0
 21 20  1  0
 22 21  1  0
 24 23  1  6
 23 22  1  0
 24 25  1  0
 24 26  1  0
 26 28  1  0
 27 26  2  0
M  END
$$$$
