RDM.pdb
     RDKit          3D

 28 27  0  0  1  0  0  0  0  0999 V2000
    8.9567  -12.7923   17.9944 N   0  0  0  0  0  0  0  0  0  0  0  0
    7.7114  -13.4266   17.7370 C   0  0  0  0  0  0  0  0  0  0  0  0
    7.3459  -13.4964   16.5017 N   0  0  0  0  0  0  0  0  0  0  0  0
    6.8985  -13.9605   18.7702 N   0  0  0  0  0  0  0  0  0  0  0  0
    7.4626  -15.0123   19.6406 C   0  0  0  0  0  0  0  0  0  0  0  0
    6.9677  -16.3384   19.1336 C   0  0  0  0  0  0  0  0  0  0  0  0
    7.4884  -17.5147   19.8824 C   0  0  0  0  0  0  0  0  0  0  0  0
    7.5072  -17.3686   21.3767 C   0  0  2  0  0  0  0  0  0  0  0  0
    6.9950  -16.1001   21.8269 N   0  0  0  0  0  0  0  0  0  0  0  0
    8.8753  -17.5352   21.9295 C   0  0  0  0  0  0  0  0  0  0  0  0
    9.4237  -18.6389   21.9050 O   0  0  0  0  0  0  0  0  0  0  0  0
    6.4292  -13.8420   16.1623 N   0  0  0  0  0  0  0  0  0  0  0  0
    9.6100  -16.4577   22.5028 C   0  0  2  0  0  0  0  0  0  0  0  0
   10.8933  -16.6024   23.0943 C   0  0  0  0  0  0  0  0  0  0  0  0
   11.9915  -15.7969   22.4975 C   0  0  0  0  0  0  0  0  0  0  0  0
   13.2914  -16.2761   22.9660 O   0  0  0  0  0  0  0  0  0  0  0  0
   13.4395  -17.4778   23.3711 C   0  0  0  0  0  0  0  0  0  0  0  0
   10.7677  -16.3276   24.5479 O   0  0  0  0  0  0  0  0  0  0  0  0
   11.7493  -15.9527   25.2429 O   0  0  0  0  0  0  0  0  0  0  0  0
   14.4352  -15.4934   23.0095 C   0  0  0  0  0  0  0  0  0  0  0  0
    6.7745  -11.6176   25.4725 S   0  0  0  0  0  0  0  0  0  0  0  0
    6.6576  -13.4403   25.6424 C   0  0  0  0  0  0  0  0  0  0  0  0
    8.0585  -13.9936   26.6313 C   0  0  0  0  0  0  0  0  0  0  0  0
    8.0395  -15.4716   26.8231 C   0  0  2  0  0  0  0  0  0  0  0  0
    9.3631  -16.1423   26.6508 N   0  0  0  0  0  0  0  0  0  0  0  0
    9.5317  -16.4721   25.2375 C   0  0  0  0  0  0  0  0  0  0  0  0
    9.5164  -17.3907   27.4231 O   0  0  0  0  0  0  0  0  0  0  0  0
    9.5002  -18.5167   26.8796 O   0  0  0  0  0  0  0  0  0  0  0  0
  2  1  1  0
  3  2  2  0
  4  5  1  0
  4  2  1  0
  6  5  1  0
  7  6  1  0
  8  9  1  6
  8  7  1  0
 10  8  1  0
 11 10  2  0
 12 10  1  0
 13 12  1  0
 13 14  1  6
 15 14  1  0
 16 15  2  0
 17 13  1  0
 17 25  1  0
 18 17  2  0
 19 15  1  0
 21 20  1  0
 22 21  1  0
 24 23  1  6
 23 22  1  0
 24 25  1  0
 24 26  1  0
 26 28  1  0
 27 26  2  0
M  END
$$$$
