RDM.pdb
     RDKit          3D

 28 27  0  0  1  0  0  0  0  0999 V2000
    7.6567  -12.3050   19.5728 N   0  0  0  0  0  0  0  0  0  0  0  0
    8.2359  -13.2844   18.7214 C   0  0  0  0  0  0  0  0  0  0  0  0
    8.1532  -13.0649   17.4527 N   0  0  0  0  0  0  0  0  0  0  0  0
    8.8749  -14.4486   19.2208 N   0  0  0  0  0  0  0  0  0  0  0  0
    8.0415  -15.5064   19.8281 C   0  0  0  0  0  0  0  0  0  0  0  0
    7.4491  -14.9509   21.0932 C   0  0  0  0  0  0  0  0  0  0  0  0
    8.0456  -15.4985   22.3422 C   0  0  0  0  0  0  0  0  0  0  0  0
    8.0126  -16.9943   22.4683 C   0  0  2  0  0  0  0  0  0  0  0  0
    6.6764  -17.5317   22.4720 N   0  0  0  0  0  0  0  0  0  0  0  0
    8.6992  -17.4589   23.7002 C   0  0  0  0  0  0  0  0  0  0  0  0
    8.0414  -17.8087   24.6822 O   0  0  0  0  0  0  0  0  0  0  0  0
    8.5521  -13.6672   16.7089 N   0  0  0  0  0  0  0  0  0  0  0  0
   10.1179  -17.5246   23.8122 C   0  0  2  0  0  0  0  0  0  0  0  0
   10.7998  -17.9345   24.9889 C   0  0  0  0  0  0  0  0  0  0  0  0
   12.1394  -18.5505   24.7967 C   0  0  0  0  0  0  0  0  0  0  0  0
   12.6235  -19.1262   26.0510 O   0  0  0  0  0  0  0  0  0  0  0  0
   11.8062  -19.5282   26.9458 C   0  0  0  0  0  0  0  0  0  0  0  0
   10.8815  -16.7706   25.9069 O   0  0  0  0  0  0  0  0  0  0  0  0
   11.8138  -16.6466   26.7452 O   0  0  0  0  0  0  0  0  0  0  0  0
   13.9653  -19.2790   26.3657 C   0  0  0  0  0  0  0  0  0  0  0  0
    6.1058  -12.6038   25.9259 S   0  0  0  0  0  0  0  0  0  0  0  0
    6.8435  -11.9663   27.4796 C   0  0  0  0  0  0  0  0  0  0  0  0
    8.4076  -12.8222   27.7400 C   0  0  0  0  0  0  0  0  0  0  0  0
    8.6165  -13.8947   26.7262 C   0  0  1  0  0  0  0  0  0  0  0  0
    9.9182  -14.6187   26.8401 N   0  0  0  0  0  0  0  0  0  0  0  0
    9.9116  -15.7298   25.8915 C   0  0  0  0  0  0  0  0  0  0  0  0
   10.1880  -15.1756   28.1800 O   0  0  0  0  0  0  0  0  0  0  0  0
   10.8677  -14.5626   29.0319 O   0  0  0  0  0  0  0  0  0  0  0  0
  2  1  1  0
  3  2  2  0
  4  5  1  0
  4  2  1  0
  6  5  1  0
  7  6  1  0
  8  9  1  1
  8  7  1  0
 10  8  1  0
 11 10  2  0
 12 10  1  0
 13 12  1  0
 13 14  1  6
 15 14  1  0
 16 15  2  0
 17 13  1  0
 17 25  1  0
 18 17  2  0
 19 15  1  0
 21 20  1  0
 22 21  1  0
 24 23  1  6
 23 22  1  0
 24 25  1  0
 24 26  1  0
 26 28  1  0
 27 26  2  0
M  END
$$$$
