RDM.pdb
     RDKit          3D

 28 27  0  0  1  0  0  0  0  0999 V2000
    7.7322  -12.2529   18.5485 N   0  0  0  0  0  0  0  0  0  0  0  0
    8.2605  -13.5235   18.1937 C   0  0  0  0  0  0  0  0  0  0  0  0
    8.4600  -13.7329   16.9364 N   0  0  0  0  0  0  0  0  0  0  0  0
    8.5585  -14.5223   19.1564 N   0  0  0  0  0  0  0  0  0  0  0  0
    7.4407  -15.1620   19.8799 C   0  0  0  0  0  0  0  0  0  0  0  0
    7.2938  -14.4632   21.2030 C   0  0  0  0  0  0  0  0  0  0  0  0
    7.3479  -15.3677   22.3840 C   0  0  0  0  0  0  0  0  0  0  0  0
    7.9808  -16.7071   22.1394 C   0  0  2  0  0  0  0  0  0  0  0  0
    7.0232  -17.7809   22.0733 N   0  0  0  0  0  0  0  0  0  0  0  0
    8.9791  -17.0442   23.1857 C   0  0  0  0  0  0  0  0  0  0  0  0
    8.6080  -17.4510   24.2886 O   0  0  0  0  0  0  0  0  0  0  0  0
    8.7791  -14.6255   16.5165 N   0  0  0  0  0  0  0  0  0  0  0  0
   10.3829  -16.9200   22.9781 C   0  0  2  0  0  0  0  0  0  0  0  0
   11.3577  -17.2190   23.9671 C   0  0  0  0  0  0  0  0  0  0  0  0
   12.7554  -17.3882   23.4887 C   0  0  0  0  0  0  0  0  0  0  0  0
   12.8042  -18.3312   22.3719 O   0  0  0  0  0  0  0  0  0  0  0  0
   12.1806  -19.4440   22.4264 C   0  0  0  0  0  0  0  0  0  0  0  0
   11.2838  -16.1764   25.0214 O   0  0  0  0  0  0  0  0  0  0  0  0
   11.9709  -15.1219   24.9658 O   0  0  0  0  0  0  0  0  0  0  0  0
   13.5083  -18.1060   21.1987 C   0  0  0  0  0  0  0  0  0  0  0  0
    6.7723  -12.4022   26.5104 S   0  0  0  0  0  0  0  0  0  0  0  0
    8.2111  -11.9738   27.5644 C   0  0  0  0  0  0  0  0  0  0  0  0
    8.9316  -13.5116   28.1666 C   0  0  0  0  0  0  0  0  0  0  0  0
    9.1970  -14.4625   27.0498 C   0  0  1  0  0  0  0  0  0  0  0  0
   10.3940  -15.3352   27.2418 N   0  0  0  0  0  0  0  0  0  0  0  0
   10.4328  -16.3095   26.1537 C   0  0  0  0  0  0  0  0  0  0  0  0
   10.4018  -16.0840   28.5137 O   0  0  0  0  0  0  0  0  0  0  0  0
   10.4488  -15.5109   29.6240 O   0  0  0  0  0  0  0  0  0  0  0  0
  2  1  1  0
  3  2  2  0
  4  5  1  0
  4  2  1  0
  6  5  1  0
  7  6  1  0
  8  9  1  1
  8  7  1  0
 10  8  1  0
 11 10  2  0
 12 10  1  0
 13 12  1  0
 13 14  1  6
 15 14  1  0
 16 15  2  0
 17 13  1  0
 17 25  1  0
 18 17  2  0
 19 15  1  0
 21 20  1  0
 22 21  1  0
 24 23  1  6
 23 22  1  0
 24 25  1  0
 24 26  1  0
 26 28  1  0
 27 26  2  0
M  END
$$$$
