RDM.pdb
     RDKit          3D

 28 27  0  0  1  0  0  0  0  0999 V2000
    7.7109  -13.3926   16.8260 N   0  0  0  0  0  0  0  0  0  0  0  0
    7.6620  -13.6205   18.2278 C   0  0  0  0  0  0  0  0  0  0  0  0
    7.1580  -12.6755   18.9471 N   0  0  0  0  0  0  0  0  0  0  0  0
    8.1379  -14.8170   18.8239 N   0  0  0  0  0  0  0  0  0  0  0  0
    9.5943  -15.0625   18.8499 C   0  0  0  0  0  0  0  0  0  0  0  0
   10.0737  -14.8171   20.2536 C   0  0  0  0  0  0  0  0  0  0  0  0
   10.7122  -15.9966   20.8991 C   0  0  0  0  0  0  0  0  0  0  0  0
    9.7825  -17.1263   21.2368 C   0  0  2  0  0  0  0  0  0  0  0  0
    8.4855  -16.9928   20.6250 N   0  0  0  0  0  0  0  0  0  0  0  0
    9.5884  -17.2609   22.7028 C   0  0  0  0  0  0  0  0  0  0  0  0
    8.5843  -16.7903   23.2411 O   0  0  0  0  0  0  0  0  0  0  0  0
    7.1053  -12.6679   19.9825 N   0  0  0  0  0  0  0  0  0  0  0  0
   10.5265  -17.9239   23.5453 C   0  0  1  0  0  0  0  0  0  0  0  0
   10.4070  -17.9948   24.9590 C   0  0  0  0  0  0  0  0  0  0  0  0
   11.3709  -18.8833   25.6607 C   0  0  0  0  0  0  0  0  0  0  0  0
   10.9739  -19.0698   27.0559 O   0  0  0  0  0  0  0  0  0  0  0  0
    9.7571  -18.9270   27.4155 C   0  0  0  0  0  0  0  0  0  0  0  0
   10.4728  -16.6138   25.4999 O   0  0  0  0  0  0  0  0  0  0  0  0
   10.5991  -15.6092   24.7502 O   0  0  0  0  0  0  0  0  0  0  0  0
   11.8545  -19.4054   28.0731 C   0  0  0  0  0  0  0  0  0  0  0  0
    7.4349  -11.5618   25.1619 S   0  0  0  0  0  0  0  0  0  0  0  0
    7.0258  -12.5238   26.6691 C   0  0  0  0  0  0  0  0  0  0  0  0
    8.5722  -13.0983   27.3940 C   0  0  0  0  0  0  0  0  0  0  0  0
    8.9862  -14.4115   26.8233 C   0  0  1  0  0  0  0  0  0  0  0  0
   10.2089  -15.0056   27.4425 N   0  0  0  0  0  0  0  0  0  0  0  0
   10.3966  -16.3472   26.8954 C   0  0  0  0  0  0  0  0  0  0  0  0
   10.1479  -15.1261   28.9123 O   0  0  0  0  0  0  0  0  0  0  0  0
    9.9948  -14.1330   29.6564 O   0  0  0  0  0  0  0  0  0  0  0  0
  2  1  1  0
  3  2  2  0
  4  5  1  0
  4  2  1  0
  6  5  1  0
  7  6  1  0
  8  9  1  6
  8  7  1  0
 10  8  1  0
 11 10  2  0
 12 10  1  0
 13 12  1  0
 13 14  1  1
 15 14  1  0
 16 15  2  0
 17 13  1  0
 17 25  1  0
 18 17  2  0
 19 15  1  0
 21 20  1  0
 22 21  1  0
 24 23  1  6
 23 22  1  0
 24 25  1  0
 24 26  1  0
 26 28  1  0
 27 26  2  0
M  END
$$$$
