RDM.pdb
     RDKit          3D

 28 27  0  0  1  0  0  0  0  0999 V2000
    7.8588  -12.3115   17.9129 N   0  0  0  0  0  0  0  0  0  0  0  0
    8.1333  -13.5483   17.2690 C   0  0  0  0  0  0  0  0  0  0  0  0
    7.6887  -13.6811   16.0651 N   0  0  0  0  0  0  0  0  0  0  0  0
    8.8556  -14.5939   17.9000 N   0  0  0  0  0  0  0  0  0  0  0  0
    8.1220  -15.5318   18.7741 C   0  0  0  0  0  0  0  0  0  0  0  0
    7.4513  -14.7236   19.8499 C   0  0  0  0  0  0  0  0  0  0  0  0
    7.9413  -15.0077   21.2264 C   0  0  0  0  0  0  0  0  0  0  0  0
    8.8425  -16.2019   21.3543 C   0  0  2  0  0  0  0  0  0  0  0  0
    8.3150  -17.3789   20.7135 N   0  0  0  0  0  0  0  0  0  0  0  0
    9.1177  -16.5351   22.7749 C   0  0  0  0  0  0  0  0  0  0  0  0
    8.3650  -16.1310   23.6635 O   0  0  0  0  0  0  0  0  0  0  0  0
    7.8338  -14.5075   15.4560 N   0  0  0  0  0  0  0  0  0  0  0  0
   10.2363  -17.3195   23.1785 C   0  0  1  0  0  0  0  0  0  0  0  0
   10.4466  -17.7707   24.5088 C   0  0  0  0  0  0  0  0  0  0  0  0
   11.5280  -18.7724   24.7045 C   0  0  0  0  0  0  0  0  0  0  0  0
   11.5759  -19.2088   26.0996 O   0  0  0  0  0  0  0  0  0  0  0  0
   10.5252  -19.6285   26.6912 C   0  0  0  0  0  0  0  0  0  0  0  0
   10.6653  -16.5831   25.3724 O   0  0  0  0  0  0  0  0  0  0  0  0
   11.2924  -15.5690   24.9654 O   0  0  0  0  0  0  0  0  0  0  0  0
   12.7267  -19.2037   26.8732 C   0  0  0  0  0  0  0  0  0  0  0  0
    6.6567  -11.3503   26.7706 S   0  0  0  0  0  0  0  0  0  0  0  0
    6.9503  -12.9412   27.6351 C   0  0  0  0  0  0  0  0  0  0  0  0
    8.5457  -13.5786   27.0917 C   0  0  0  0  0  0  0  0  0  0  0  0
    8.9132  -14.8229   27.8253 C   0  0  2  0  0  0  0  0  0  0  0  0
   10.2897  -15.3312   27.5452 N   0  0  0  0  0  0  0  0  0  0  0  0
   10.1788  -16.5234   26.7080 C   0  0  0  0  0  0  0  0  0  0  0  0
   11.0576  -15.7004   28.7504 O   0  0  0  0  0  0  0  0  0  0  0  0
   11.2580  -16.8916   29.0738 O   0  0  0  0  0  0  0  0  0  0  0  0
  2  1  1  0
  3  2  2  0
  4  5  1  0
  4  2  1  0
  6  5  1  0
  7  6  1  0
  8  9  1  1
  8  7  1  0
 10  8  1  0
 11 10  2  0
 12 10  1  0
 13 12  1  0
 13 14  1  1
 15 14  1  0
 16 15  2  0
 17 13  1  0
 17 25  1  0
 18 17  2  0
 19 15  1  0
 21 20  1  0
 22 21  1  0
 24 23  1  6
 23 22  1  0
 24 25  1  0
 24 26  1  0
 26 28  1  0
 27 26  2  0
M  END
$$$$
