RDM.pdb
     RDKit          3D

 28 27  0  0  1  0  0  0  0  0999 V2000
    7.3454  -12.5604   18.0310 N   0  0  0  0  0  0  0  0  0  0  0  0
    8.5551  -13.2495   18.3161 C   0  0  0  0  0  0  0  0  0  0  0  0
    9.5677  -12.5215   18.6464 N   0  0  0  0  0  0  0  0  0  0  0  0
    8.6636  -14.6625   18.2462 N   0  0  0  0  0  0  0  0  0  0  0  0
    8.3070  -15.4582   19.4386 C   0  0  0  0  0  0  0  0  0  0  0  0
    6.8496  -15.8118   19.3323 C   0  0  0  0  0  0  0  0  0  0  0  0
    6.4565  -17.0293   20.0931 C   0  0  0  0  0  0  0  0  0  0  0  0
    6.6923  -16.9657   21.5746 C   0  0  2  0  0  0  0  0  0  0  0  0
    6.5267  -15.6416   22.1167 N   0  0  0  0  0  0  0  0  0  0  0  0
    8.0498  -17.4455   21.9377 C   0  0  0  0  0  0  0  0  0  0  0  0
    8.4113  -18.5807   21.6213 O   0  0  0  0  0  0  0  0  0  0  0  0
   10.5340  -12.8652   18.7986 N   0  0  0  0  0  0  0  0  0  0  0  0
    8.9843  -16.6419   22.6520 C   0  0  2  0  0  0  0  0  0  0  0  0
   10.2744  -17.0890   23.0435 C   0  0  0  0  0  0  0  0  0  0  0  0
   11.3568  -16.9528   22.0331 C   0  0  0  0  0  0  0  0  0  0  0  0
   12.6179  -17.4738   22.5596 O   0  0  0  0  0  0  0  0  0  0  0  0
   12.6473  -18.1439   23.6461 C   0  0  0  0  0  0  0  0  0  0  0  0
   10.6414  -16.3987   24.3056 O   0  0  0  0  0  0  0  0  0  0  0  0
   11.2877  -15.3173   24.3106 O   0  0  0  0  0  0  0  0  0  0  0  0
   13.8477  -17.2906   21.9457 C   0  0  0  0  0  0  0  0  0  0  0  0
    7.6887  -11.5701   26.3428 S   0  0  0  0  0  0  0  0  0  0  0  0
    6.8729  -13.2122   26.3945 C   0  0  0  0  0  0  0  0  0  0  0  0
    8.0149  -14.3719   27.1676 C   0  0  0  0  0  0  0  0  0  0  0  0
    8.6436  -15.2711   26.1588 C   0  0  1  0  0  0  0  0  0  0  0  0
    9.7857  -16.0858   26.6719 N   0  0  0  0  0  0  0  0  0  0  0  0
   10.2836  -16.9195   25.5804 C   0  0  0  0  0  0  0  0  0  0  0  0
    9.4385  -16.9788   27.7947 O   0  0  0  0  0  0  0  0  0  0  0  0
    9.3237  -16.5607   28.9675 O   0  0  0  0  0  0  0  0  0  0  0  0
  2  1  1  0
  3  2  2  0
  4  5  1  0
  4  2  1  0
  6  5  1  0
  7  6  1  0
  8  9  1  6
  8  7  1  0
 10  8  1  0
 11 10  2  0
 12 10  1  0
 13 12  1  0
 13 14  1  6
 15 14  1  0
 16 15  2  0
 17 13  1  0
 17 25  1  0
 18 17  2  0
 19 15  1  0
 21 20  1  0
 22 21  1  0
 24 23  1  6
 23 22  1  0
 24 25  1  0
 24 26  1  0
 26 28  1  0
 27 26  2  0
M  END
$$$$
