RDM.pdb
     RDKit          3D

 28 27  0  0  1  0  0  0  0  0999 V2000
    8.9711  -15.2717   16.9033 N   0  0  0  0  0  0  0  0  0  0  0  0
    8.4713  -13.9420   16.9413 C   0  0  0  0  0  0  0  0  0  0  0  0
    8.2063  -13.3943   15.8036 N   0  0  0  0  0  0  0  0  0  0  0  0
    8.2684  -13.2370   18.1558 N   0  0  0  0  0  0  0  0  0  0  0  0
    8.5168  -13.9404   19.4309 C   0  0  0  0  0  0  0  0  0  0  0  0
    7.2276  -13.9527   20.2042 C   0  0  0  0  0  0  0  0  0  0  0  0
    7.2844  -14.7177   21.4798 C   0  0  0  0  0  0  0  0  0  0  0  0
    7.7740  -16.1321   21.3598 C   0  0  2  0  0  0  0  0  0  0  0  0
    6.7229  -17.0706   21.0621 N   0  0  0  0  0  0  0  0  0  0  0  0
    8.4589  -16.5850   22.5971 C   0  0  0  0  0  0  0  0  0  0  0  0
    7.8035  -16.8498   23.6070 O   0  0  0  0  0  0  0  0  0  0  0  0
    7.9367  -12.4037   15.6590 N   0  0  0  0  0  0  0  0  0  0  0  0
    9.8729  -16.7350   22.6829 C   0  0  2  0  0  0  0  0  0  0  0  0
   10.5473  -17.2274   23.8319 C   0  0  0  0  0  0  0  0  0  0  0  0
   11.9222  -17.7518   23.6182 C   0  0  0  0  0  0  0  0  0  0  0  0
   12.3936  -18.4551   24.8107 O   0  0  0  0  0  0  0  0  0  0  0  0
   13.1777  -17.8842   25.6410 C   0  0  0  0  0  0  0  0  0  0  0  0
   10.5446  -16.1603   24.8642 O   0  0  0  0  0  0  0  0  0  0  0  0
   11.2221  -15.1060   24.7354 O   0  0  0  0  0  0  0  0  0  0  0  0
   12.0421  -19.7578   25.1308 C   0  0  0  0  0  0  0  0  0  0  0  0
    6.5667  -12.3255   25.4332 S   0  0  0  0  0  0  0  0  0  0  0  0
    7.2347  -12.1834   27.1356 C   0  0  0  0  0  0  0  0  0  0  0  0
    8.8142  -13.0492   27.1830 C   0  0  0  0  0  0  0  0  0  0  0  0
    8.6239  -14.5267   27.2316 C   0  0  2  0  0  0  0  0  0  0  0  0
    9.8861  -15.3229   27.1652 N   0  0  0  0  0  0  0  0  0  0  0  0
    9.7764  -16.2684   26.0568 C   0  0  0  0  0  0  0  0  0  0  0  0
   10.1806  -16.0973   28.3867 O   0  0  0  0  0  0  0  0  0  0  0  0
   10.3975  -15.5470   29.4884 O   0  0  0  0  0  0  0  0  0  0  0  0
  2  1  1  0
  3  2  2  0
  4  5  1  0
  4  2  1  0
  6  5  1  0
  7  6  1  0
  8  9  1  1
  8  7  1  0
 10  8  1  0
 11 10  2  0
 12 10  1  0
 13 12  1  0
 13 14  1  6
 15 14  1  0
 16 15  2  0
 17 13  1  0
 17 25  1  0
 18 17  2  0
 19 15  1  0
 21 20  1  0
 22 21  1  0
 24 23  1  6
 23 22  1  0
 24 25  1  0
 24 26  1  0
 26 28  1  0
 27 26  2  0
M  END
$$$$
