RDM.pdb
     RDKit          3D

 28 27  0  0  1  0  0  0  0  0999 V2000
    6.2245  -12.3715   17.0416 N   0  0  0  0  0  0  0  0  0  0  0  0
    7.2381  -13.2002   17.5941 C   0  0  0  0  0  0  0  0  0  0  0  0
    8.1344  -13.6363   16.7751 N   0  0  0  0  0  0  0  0  0  0  0  0
    7.2788  -13.5418   18.9707 N   0  0  0  0  0  0  0  0  0  0  0  0
    8.5944  -13.7655   19.6043 C   0  0  0  0  0  0  0  0  0  0  0  0
    8.6754  -15.2168   19.9882 C   0  0  0  0  0  0  0  0  0  0  0  0
    9.9673  -15.6157   20.6106 C   0  0  0  0  0  0  0  0  0  0  0  0
   10.1400  -17.0886   20.8456 C   0  0  2  0  0  0  0  0  0  0  0  0
    8.9847  -17.8605   20.4665 N   0  0  0  0  0  0  0  0  0  0  0  0
   10.4473  -17.3876   22.2673 C   0  0  0  0  0  0  0  0  0  0  0  0
    9.6454  -18.0236   22.9544 O   0  0  0  0  0  0  0  0  0  0  0  0
    8.9321  -14.2500   17.0244 N   0  0  0  0  0  0  0  0  0  0  0  0
   11.6534  -16.9678   22.8985 C   0  0  2  0  0  0  0  0  0  0  0  0
   12.0188  -17.3272   24.2232 C   0  0  0  0  0  0  0  0  0  0  0  0
   13.3943  -16.9604   24.6528 C   0  0  0  0  0  0  0  0  0  0  0  0
   14.3831  -17.4952   23.7173 O   0  0  0  0  0  0  0  0  0  0  0  0
   14.3742  -18.7291   23.3890 C   0  0  0  0  0  0  0  0  0  0  0  0
   11.0080  -16.7627   25.1526 O   0  0  0  0  0  0  0  0  0  0  0  0
   11.1320  -15.6140   25.6549 O   0  0  0  0  0  0  0  0  0  0  0  0
   15.3812  -16.7347   23.1272 C   0  0  0  0  0  0  0  0  0  0  0  0
    6.9579  -12.4816   28.2260 S   0  0  0  0  0  0  0  0  0  0  0  0
    7.4134  -13.1638   26.5854 C   0  0  0  0  0  0  0  0  0  0  0  0
    7.3077  -14.9598   26.6856 C   0  0  0  0  0  0  0  0  0  0  0  0
    8.3977  -15.6136   25.9071 C   0  0  1  0  0  0  0  0  0  0  0  0
    8.8226  -16.9488   26.4249 N   0  0  0  0  0  0  0  0  0  0  0  0
    9.8425  -17.4872   25.5280 C   0  0  0  0  0  0  0  0  0  0  0  0
    7.7335  -17.9412   26.5112 O   0  0  0  0  0  0  0  0  0  0  0  0
    6.6993  -17.7386   27.1842 O   0  0  0  0  0  0  0  0  0  0  0  0
  2  1  1  0
  3  2  2  0
  4  5  1  0
  4  2  1  0
  6  5  1  0
  7  6  1  0
  8  9  1  1
  8  7  1  0
 10  8  1  0
 11 10  2  0
 12 10  1  0
 13 12  1  0
 13 14  1  6
 15 14  1  0
 16 15  2  0
 17 13  1  0
 17 25  1  0
 18 17  2  0
 19 15  1  0
 21 20  1  0
 22 21  1  0
 24 23  1  1
 23 22  1  0
 24 25  1  0
 24 26  1  0
 26 28  1  0
 27 26  2  0
M  END
$$$$
