RDM.pdb
     RDKit          3D

 28 27  0  0  1  0  0  0  0  0999 V2000
    7.1326  -12.9976   14.0785 N   0  0  0  0  0  0  0  0  0  0  0  0
    8.1621  -13.9579   14.2721 C   0  0  0  0  0  0  0  0  0  0  0  0
    9.1698  -13.8906   13.4692 N   0  0  0  0  0  0  0  0  0  0  0  0
    8.1030  -14.9463   15.2883 N   0  0  0  0  0  0  0  0  0  0  0  0
    8.5977  -14.6030   16.6373 C   0  0  0  0  0  0  0  0  0  0  0  0
    7.5154  -14.9483   17.6220 C   0  0  0  0  0  0  0  0  0  0  0  0
    7.3909  -13.9934   18.7570 C   0  0  0  0  0  0  0  0  0  0  0  0
    8.6227  -13.8336   19.6007 C   0  0  2  0  0  0  0  0  0  0  0  0
    9.8406  -13.8560   18.8324 N   0  0  0  0  0  0  0  0  0  0  0  0
    8.7167  -14.8865   20.6436 C   0  0  0  0  0  0  0  0  0  0  0  0
    7.7330  -15.1677   21.3311 O   0  0  0  0  0  0  0  0  0  0  0  0
    9.9970  -14.5155   13.4855 N   0  0  0  0  0  0  0  0  0  0  0  0
    9.9164  -15.6106   20.8999 C   0  0  1  0  0  0  0  0  0  0  0  0
   10.0268  -16.6377   21.8748 C   0  0  0  0  0  0  0  0  0  0  0  0
   11.1577  -17.5888   21.7087 C   0  0  0  0  0  0  0  0  0  0  0  0
   11.3639  -17.8980   20.2942 O   0  0  0  0  0  0  0  0  0  0  0  0
   10.5827  -18.6982   19.6779 C   0  0  0  0  0  0  0  0  0  0  0  0
   10.0649  -16.0022   23.2160 O   0  0  0  0  0  0  0  0  0  0  0  0
   11.1119  -15.9855   23.9165 O   0  0  0  0  0  0  0  0  0  0  0  0
   12.3903  -17.3676   19.5274 C   0  0  0  0  0  0  0  0  0  0  0  0
    6.5197  -10.9499   27.4465 S   0  0  0  0  0  0  0  0  0  0  0  0
    5.9438  -12.5917   26.8657 C   0  0  0  0  0  0  0  0  0  0  0  0
    7.3789  -13.6766   26.7658 C   0  0  0  0  0  0  0  0  0  0  0  0
    7.6316  -14.1175   25.3646 C   0  0  1  0  0  0  0  0  0  0  0  0
    8.8542  -14.9563   25.1831 N   0  0  0  0  0  0  0  0  0  0  0  0
    8.9213  -15.3761   23.7854 C   0  0  0  0  0  0  0  0  0  0  0  0
    8.8853  -16.1730   26.0180 O   0  0  0  0  0  0  0  0  0  0  0  0
    8.2548  -17.2082   25.7107 O   0  0  0  0  0  0  0  0  0  0  0  0
  2  1  1  0
  3  2  2  0
  4  5  1  0
  4  2  1  0
  6  5  1  0
  7  6  1  0
  8  9  1  6
  8  7  1  0
 10  8  1  0
 11 10  2  0
 12 10  1  0
 13 12  1  0
 13 14  1  6
 15 14  1  0
 16 15  2  0
 17 13  1  0
 17 25  1  0
 18 17  2  0
 19 15  1  0
 21 20  1  0
 22 21  1  0
 24 23  1  6
 23 22  1  0
 24 25  1  0
 24 26  1  0
 26 28  1  0
 27 26  2  0
M  END
$$$$
