RDM.pdb
     RDKit          3D

 28 27  0  0  1  0  0  0  0  0999 V2000
    7.5069  -15.2082   14.5519 N   0  0  0  0  0  0  0  0  0  0  0  0
    8.3410  -14.0606   14.6347 C   0  0  0  0  0  0  0  0  0  0  0  0
    8.6972  -13.5265   13.5156 N   0  0  0  0  0  0  0  0  0  0  0  0
    8.7703  -13.5165   15.8728 N   0  0  0  0  0  0  0  0  0  0  0  0
    7.7475  -13.0889   16.8491 C   0  0  0  0  0  0  0  0  0  0  0  0
    7.1657  -14.3271   17.4727 C   0  0  0  0  0  0  0  0  0  0  0  0
    7.2857  -14.3818   18.9553 C   0  0  0  0  0  0  0  0  0  0  0  0
    8.6387  -14.7718   19.4768 C   0  0  2  0  0  0  0  0  0  0  0  0
    9.4284  -15.4952   18.5138 N   0  0  0  0  0  0  0  0  0  0  0  0
    8.5382  -15.6000   20.7051 C   0  0  0  0  0  0  0  0  0  0  0  0
    7.6476  -15.3817   21.5289 O   0  0  0  0  0  0  0  0  0  0  0  0
    9.2836  -12.6777   13.4117 N   0  0  0  0  0  0  0  0  0  0  0  0
    9.4408  -16.6643   20.9915 C   0  0  2  0  0  0  0  0  0  0  0  0
    9.4912  -17.3443   22.2375 C   0  0  0  0  0  0  0  0  0  0  0  0
   10.4045  -18.5151   22.3159 C   0  0  0  0  0  0  0  0  0  0  0  0
   10.3049  -19.1559   23.6268 O   0  0  0  0  0  0  0  0  0  0  0  0
    9.1798  -19.2599   24.2214 C   0  0  0  0  0  0  0  0  0  0  0  0
    9.8134  -16.3526   23.2945 O   0  0  0  0  0  0  0  0  0  0  0  0
   10.9126  -15.7376   23.3191 O   0  0  0  0  0  0  0  0  0  0  0  0
   11.3866  -19.6867   24.3132 C   0  0  0  0  0  0  0  0  0  0  0  0
    6.6204  -10.9482   27.9546 S   0  0  0  0  0  0  0  0  0  0  0  0
    6.4572  -12.1695   26.5958 C   0  0  0  0  0  0  0  0  0  0  0  0
    7.9722  -13.1434   26.5439 C   0  0  0  0  0  0  0  0  0  0  0  0
    7.9469  -14.1305   25.4274 C   0  0  1  0  0  0  0  0  0  0  0  0
    9.1526  -15.0081   25.3402 N   0  0  0  0  0  0  0  0  0  0  0  0
    8.8987  -16.0411   24.3388 C   0  0  0  0  0  0  0  0  0  0  0  0
    9.5029  -15.6859   26.6037 O   0  0  0  0  0  0  0  0  0  0  0  0
    9.9945  -15.0714   27.5753 O   0  0  0  0  0  0  0  0  0  0  0  0
  2  1  1  0
  3  2  2  0
  4  5  1  0
  4  2  1  0
  6  5  1  0
  7  6  1  0
  8  9  1  6
  8  7  1  0
 10  8  1  0
 11 10  2  0
 12 10  1  0
 13 12  1  0
 13 14  1  1
 15 14  1  0
 16 15  2  0
 17 13  1  0
 17 25  1  0
 18 17  2  0
 19 15  1  0
 21 20  1  0
 22 21  1  0
 24 23  1  6
 23 22  1  0
 24 25  1  0
 24 26  1  0
 26 28  1  0
 27 26  2  0
M  END
$$$$
