RDM.pdb
     RDKit          3D

 28 27  0  0  1  0  0  0  0  0999 V2000
    9.1452  -13.1427   20.1214 N   0  0  0  0  0  0  0  0  0  0  0  0
    8.3008  -13.0621   18.9812 C   0  0  0  0  0  0  0  0  0  0  0  0
    8.8069  -12.5146   17.9283 N   0  0  0  0  0  0  0  0  0  0  0  0
    6.9690  -13.5515   18.9813 N   0  0  0  0  0  0  0  0  0  0  0  0
    6.4174  -14.0984   20.2378 C   0  0  0  0  0  0  0  0  0  0  0  0
    6.8574  -15.5321   20.3437 C   0  0  0  0  0  0  0  0  0  0  0  0
    8.0456  -15.7467   21.2142 C   0  0  0  0  0  0  0  0  0  0  0  0
    8.5656  -17.1547   21.2564 C   0  0  2  0  0  0  0  0  0  0  0  0
    7.5201  -18.1445   21.2192 N   0  0  0  0  0  0  0  0  0  0  0  0
    9.3906  -17.4014   22.4661 C   0  0  0  0  0  0  0  0  0  0  0  0
    8.9068  -17.9852   23.4380 O   0  0  0  0  0  0  0  0  0  0  0  0
    8.3111  -12.3605   17.0308 N   0  0  0  0  0  0  0  0  0  0  0  0
   10.7503  -16.9887   22.5674 C   0  0  2  0  0  0  0  0  0  0  0  0
   11.5227  -17.0964   23.7545 C   0  0  0  0  0  0  0  0  0  0  0  0
   12.9992  -17.0290   23.5917 C   0  0  0  0  0  0  0  0  0  0  0  0
   13.4396  -17.9339   22.5304 O   0  0  0  0  0  0  0  0  0  0  0  0
   13.0825  -19.1597   22.5246 C   0  0  0  0  0  0  0  0  0  0  0  0
   11.0501  -16.0637   24.7108 O   0  0  0  0  0  0  0  0  0  0  0  0
   10.8423  -14.8725   24.3571 O   0  0  0  0  0  0  0  0  0  0  0  0
   14.2553  -17.5517   21.4762 C   0  0  0  0  0  0  0  0  0  0  0  0
    7.3982  -11.5622   26.0925 S   0  0  0  0  0  0  0  0  0  0  0  0
    8.4080  -12.5435   27.2680 C   0  0  0  0  0  0  0  0  0  0  0  0
    7.8767  -14.2613   27.1519 C   0  0  0  0  0  0  0  0  0  0  0  0
    8.8043  -15.0619   26.3032 C   0  0  1  0  0  0  0  0  0  0  0  0
   10.0769  -15.4641   26.9741 N   0  0  0  0  0  0  0  0  0  0  0  0
   10.8050  -16.3615   26.0802 C   0  0  0  0  0  0  0  0  0  0  0  0
    9.8904  -16.1663   28.2589 O   0  0  0  0  0  0  0  0  0  0  0  0
   10.0466  -15.5941   29.3597 O   0  0  0  0  0  0  0  0  0  0  0  0
  2  1  1  0
  3  2  2  0
  4  5  1  0
  4  2  1  0
  6  5  1  0
  7  6  1  0
  8  9  1  1
  8  7  1  0
 10  8  1  0
 11 10  2  0
 12 10  1  0
 13 12  1  0
 13 14  1  6
 15 14  1  0
 16 15  2  0
 17 13  1  0
 17 25  1  0
 18 17  2  0
 19 15  1  0
 21 20  1  0
 22 21  1  0
 24 23  1  6
 23 22  1  0
 24 25  1  0
 24 26  1  0
 26 28  1  0
 27 26  2  0
M  END
$$$$
