RDM.pdb
     RDKit          3D

 28 27  0  0  1  0  0  0  0  0999 V2000
    7.1418  -13.6585   14.6837 N   0  0  0  0  0  0  0  0  0  0  0  0
    7.9992  -14.7246   15.0683 C   0  0  0  0  0  0  0  0  0  0  0  0
    8.0021  -15.7645   14.3047 N   0  0  0  0  0  0  0  0  0  0  0  0
    8.8158  -14.6675   16.2272 N   0  0  0  0  0  0  0  0  0  0  0  0
    8.5891  -13.5774   17.1981 C   0  0  0  0  0  0  0  0  0  0  0  0
    7.2555  -13.8164   17.8497 C   0  0  0  0  0  0  0  0  0  0  0  0
    7.3341  -14.4517   19.1936 C   0  0  0  0  0  0  0  0  0  0  0  0
    8.6091  -14.2054   19.9474 C   0  0  2  0  0  0  0  0  0  0  0  0
    9.7853  -14.3380   19.1268 N   0  0  0  0  0  0  0  0  0  0  0  0
    8.7502  -15.1230   21.1063 C   0  0  0  0  0  0  0  0  0  0  0  0
    7.8442  -15.2166   21.9369 O   0  0  0  0  0  0  0  0  0  0  0  0
    8.5688  -16.6201   14.4526 N   0  0  0  0  0  0  0  0  0  0  0  0
    9.9090  -15.9247   21.3162 C   0  0  2  0  0  0  0  0  0  0  0  0
   10.0960  -16.7625   22.4479 C   0  0  0  0  0  0  0  0  0  0  0  0
   11.2225  -17.7304   22.3756 C   0  0  0  0  0  0  0  0  0  0  0  0
   11.2923  -18.5279   23.5996 O   0  0  0  0  0  0  0  0  0  0  0  0
   10.2513  -19.0975   24.0707 C   0  0  0  0  0  0  0  0  0  0  0  0
   10.2193  -15.8988   23.6492 O   0  0  0  0  0  0  0  0  0  0  0  0
   11.0981  -15.0003   23.7372 O   0  0  0  0  0  0  0  0  0  0  0  0
   12.4549  -18.7264   24.3288 C   0  0  0  0  0  0  0  0  0  0  0  0
    6.2351  -12.0007   25.2854 S   0  0  0  0  0  0  0  0  0  0  0  0
    6.4971  -12.4631   27.0410 C   0  0  0  0  0  0  0  0  0  0  0  0
    8.0064  -13.4429   27.1344 C   0  0  0  0  0  0  0  0  0  0  0  0
    8.1680  -14.3098   25.9327 C   0  0  1  0  0  0  0  0  0  0  0  0
    9.4010  -15.1530   25.9303 N   0  0  0  0  0  0  0  0  0  0  0  0
    9.3519  -16.0373   24.7684 C   0  0  0  0  0  0  0  0  0  0  0  0
    9.5610  -15.9982   27.1296 O   0  0  0  0  0  0  0  0  0  0  0  0
    9.4179  -17.2399   27.0936 O   0  0  0  0  0  0  0  0  0  0  0  0
  2  1  1  0
  3  2  2  0
  4  5  1  0
  4  2  1  0
  6  5  1  0
  7  6  1  0
  8  9  1  6
  8  7  1  0
 10  8  1  0
 11 10  2  0
 12 10  1  0
 13 12  1  0
 13 14  1  1
 15 14  1  0
 16 15  2  0
 17 13  1  0
 17 25  1  0
 18 17  2  0
 19 15  1  0
 21 20  1  0
 22 21  1  0
 24 23  1  6
 23 22  1  0
 24 25  1  0
 24 26  1  0
 26 28  1  0
 27 26  2  0
M  END
$$$$
