SMV.pdb
     RDKit          3D

 22 21  0  0  1  0  0  0  0  0999 V2000
   23.7961  -20.5809  -18.9452 O   0  0  0  0  0  0  0  0  0  0  0  0
   25.1097  -20.6676  -18.5043 C   0  0  0  0  0  0  0  0  0  0  0  0
   25.8017  -21.8183  -19.2073 C   0  0  2  0  0  0  0  0  0  0  0  0
   26.0558  -21.4258  -20.5616 N   0  0  0  0  0  0  0  0  0  0  0  0
   25.0165  -23.0563  -19.1676 C   0  0  0  0  0  0  0  0  0  0  0  0
   24.2384  -23.4130  -20.0888 O   0  0  0  0  0  0  0  0  0  0  0  0
   27.2915  -28.4928  -16.8538 C   0  0  0  0  0  0  0  0  0  0  0  0
   25.6222  -28.6438  -16.2183 S   0  0  0  0  0  0  0  0  0  0  0  0
   24.4834  -27.4615  -16.9992 C   0  0  0  0  0  0  0  0  0  0  0  0
   25.1803  -26.1531  -17.1564 C   0  0  0  0  0  0  0  0  0  0  0  0
   24.3417  -25.1411  -17.9090 C   0  0  2  0  0  0  0  0  0  0  0  0
   25.1034  -23.9399  -18.0450 N   0  0  0  0  0  0  0  0  0  0  0  0
   23.0392  -24.9483  -17.2637 C   0  0  0  0  0  0  0  0  0  0  0  0
   22.9953  -24.4792  -16.0980 O   0  0  0  0  0  0  0  0  0  0  0  0
   19.0748  -26.0027  -18.9889 C   0  0  0  0  0  0  0  0  0  0  0  0
   19.4312  -24.7419  -18.2376 C   0  0  2  0  0  0  0  0  0  0  0  0
   19.9293  -23.6868  -19.2124 C   0  0  0  0  0  0  0  0  0  0  0  0
   20.5445  -24.9818  -17.2374 C   0  0  2  0  0  0  0  0  0  0  0  0
   21.8017  -25.2626  -17.8813 N   0  0  0  0  0  0  0  0  0  0  0  0
   20.1066  -26.1009  -16.3618 C   0  0  0  0  0  0  0  0  0  0  0  0
   20.6504  -27.2356  -16.4817 O   0  0  0  0  0  0  0  0  0  0  0  0
   19.1252  -25.9739  -15.4093 O   0  0  0  0  0  0  0  0  0  0  0  0
  1  2  1  0
  3  4  1  6
  3  5  1  0
  3  2  1  0
  5  6  2  0
  7  8  1  0
  8  9  1  0
  9 10  1  0
 11 10  1  1
 11 13  1  0
 12  5  1  0
 12 11  1  0
 13 19  1  0
 13 14  2  0
 16 18  1  0
 16 15  1  6
 17 16  1  0
 18 20  1  0
 18 19  1  6
 20 22  1  0
 21 20  2  0
M  END
$$$$
