SMV.pdb
     RDKit          3D

 22 21  0  0  1  0  0  0  0  0999 V2000
   20.2482  -22.9490  -11.5048 O   0  0  0  0  0  0  0  0  0  0  0  0
   21.3183  -22.0827  -11.6834 C   0  0  0  0  0  0  0  0  0  0  0  0
   21.3481  -21.0788  -10.5483 C   0  0  2  0  0  0  0  0  0  0  0  0
   20.2595  -20.1656  -10.7315 N   0  0  0  0  0  0  0  0  0  0  0  0
   22.6212  -20.3549  -10.4702 C   0  0  0  0  0  0  0  0  0  0  0  0
   22.8266  -19.2514  -11.0371 O   0  0  0  0  0  0  0  0  0  0  0  0
   26.9416  -19.9138   -5.5313 C   0  0  0  0  0  0  0  0  0  0  0  0
   27.9137  -20.5565   -6.8934 S   0  0  0  0  0  0  0  0  0  0  0  0
   27.1653  -20.1781   -8.5062 C   0  0  0  0  0  0  0  0  0  0  0  0
   25.7917  -20.7559   -8.5476 C   0  0  0  0  0  0  0  0  0  0  0  0
   25.0662  -20.4240   -9.8349 C   0  0  2  0  0  0  0  0  0  0  0  0
   23.7194  -20.8883   -9.7232 N   0  0  0  0  0  0  0  0  0  0  0  0
   25.7827  -20.9556  -10.9986 C   0  0  0  0  0  0  0  0  0  0  0  0
   25.8196  -22.1990  -11.1811 O   0  0  0  0  0  0  0  0  0  0  0  0
   28.0496  -18.4914  -13.7499 C   0  0  0  0  0  0  0  0  0  0  0  0
   27.2334  -19.6697  -14.2258 C   0  0  2  0  0  0  0  0  0  0  0  0
   25.8447  -19.2021  -14.6312 C   0  0  0  0  0  0  0  0  0  0  0  0
   27.0513  -20.7031  -13.1321 C   0  0  2  0  0  0  0  0  0  0  0  0
   26.4496  -20.1422  -11.9500 N   0  0  0  0  0  0  0  0  0  0  0  0
   28.3933  -21.2791  -12.8525 C   0  0  0  0  0  0  0  0  0  0  0  0
   28.9634  -21.0261  -11.7532 O   0  0  0  0  0  0  0  0  0  0  0  0
   29.0661  -22.0875  -13.7359 O   0  0  0  0  0  0  0  0  0  0  0  0
  1  2  1  0
  3  4  1  6
  3  5  1  0
  3  2  1  0
  5  6  2  0
  7  8  1  0
  8  9  1  0
  9 10  1  0
 11 10  1  1
 11 13  1  0
 12  5  1  0
 12 11  1  0
 13 19  1  0
 13 14  2  0
 16 18  1  0
 16 15  1  1
 17 16  1  0
 18 20  1  0
 18 19  1  1
 20 22  1  0
 21 20  2  0
M  END
$$$$
