SMV.pdb
     RDKit          3D

 22 21  0  0  1  0  0  0  0  0999 V2000
   21.6611  -25.9908  -15.1158 O   0  0  0  0  0  0  0  0  0  0  0  0
   21.8872  -24.6300  -14.9584 C   0  0  0  0  0  0  0  0  0  0  0  0
   22.3579  -24.3583  -13.5435 C   0  0  2  0  0  0  0  0  0  0  0  0
   21.2097  -24.3418  -12.6868 N   0  0  0  0  0  0  0  0  0  0  0  0
   23.1042  -23.1009  -13.4302 C   0  0  0  0  0  0  0  0  0  0  0  0
   22.5537  -21.9727  -13.3571 O   0  0  0  0  0  0  0  0  0  0  0  0
   29.4343  -21.1972  -10.2195 C   0  0  0  0  0  0  0  0  0  0  0  0
   29.1857  -21.7037  -11.9210 S   0  0  0  0  0  0  0  0  0  0  0  0
   27.5900  -21.1328  -12.5784 C   0  0  0  0  0  0  0  0  0  0  0  0
   26.6887  -22.3086  -12.7442 C   0  0  0  0  0  0  0  0  0  0  0  0
   25.3361  -21.9224  -13.3055 C   0  0  2  0  0  0  0  0  0  0  0  0
   24.5351  -23.1020  -13.3971 N   0  0  0  0  0  0  0  0  0  0  0  0
   25.4760  -21.1998  -14.5738 C   0  0  0  0  0  0  0  0  0  0  0  0
   25.8898  -21.8160  -15.5886 O   0  0  0  0  0  0  0  0  0  0  0  0
   24.8447  -16.7445  -16.4396 C   0  0  0  0  0  0  0  0  0  0  0  0
   24.1908  -18.0740  -16.1461 C   0  0  2  0  0  0  0  0  0  0  0  0
   23.4518  -18.0009  -14.8194 C   0  0  0  0  0  0  0  0  0  0  0  0
   25.2134  -19.1860  -16.0230 C   0  0  2  0  0  0  0  0  0  0  0  0
   25.1686  -19.8244  -14.7329 N   0  0  0  0  0  0  0  0  0  0  0  0
   26.5443  -18.5830  -16.2987 C   0  0  0  0  0  0  0  0  0  0  0  0
   27.3335  -18.3498  -15.3393 O   0  0  0  0  0  0  0  0  0  0  0  0
   26.9780  -18.2568  -17.5604 O   0  0  0  0  0  0  0  0  0  0  0  0
  1  2  1  0
  3  4  1  1
  3  5  1  0
  3  2  1  0
  5  6  2  0
  7  8  1  0
  8  9  1  0
  9 10  1  0
 11 10  1  6
 11 13  1  0
 12  5  1  0
 12 11  1  0
 13 19  1  0
 13 14  2  0
 16 18  1  0
 16 15  1  1
 17 16  1  0
 18 20  1  0
 18 19  1  1
 20 22  1  0
 21 20  2  0
M  END
$$$$
