SMV.pdb
     RDKit          3D

 22 21  0  0  1  0  0  0  0  0999 V2000
   26.5931  -19.7765  -16.5818 O   0  0  0  0  0  0  0  0  0  0  0  0
   27.7093  -19.5466  -15.7888 C   0  0  0  0  0  0  0  0  0  0  0  0
   28.0909  -20.8271  -15.0735 C   0  0  2  0  0  0  0  0  0  0  0  0
   28.4308  -21.8064  -16.0624 N   0  0  0  0  0  0  0  0  0  0  0  0
   27.0222  -21.3245  -14.2009 C   0  0  0  0  0  0  0  0  0  0  0  0
   26.2607  -22.2758  -14.5114 O   0  0  0  0  0  0  0  0  0  0  0  0
   27.0470  -20.8273   -7.6399 C   0  0  0  0  0  0  0  0  0  0  0  0
   25.3863  -20.3021   -8.0634 S   0  0  0  0  0  0  0  0  0  0  0  0
   24.8908  -20.8686   -9.7181 C   0  0  0  0  0  0  0  0  0  0  0  0
   25.9706  -20.5275  -10.6876 C   0  0  0  0  0  0  0  0  0  0  0  0
   25.6750  -21.0394  -12.0820 C   0  0  2  0  0  0  0  0  0  0  0  0
   26.7913  -20.7313  -12.9189 N   0  0  0  0  0  0  0  0  0  0  0  0
   24.3985  -20.5158  -12.5786 C   0  0  0  0  0  0  0  0  0  0  0  0
   24.3063  -19.2955  -12.8671 O   0  0  0  0  0  0  0  0  0  0  0  0
   21.2567  -22.8900  -14.3042 C   0  0  0  0  0  0  0  0  0  0  0  0
   21.5320  -21.4202  -14.5166 C   0  0  2  0  0  0  0  0  0  0  0  0
   22.6376  -21.2486  -15.5461 C   0  0  0  0  0  0  0  0  0  0  0  0
   22.0048  -20.7492  -13.2425 C   0  0  2  0  0  0  0  0  0  0  0  0
   23.2386  -21.3121  -12.7580 N   0  0  0  0  0  0  0  0  0  0  0  0
   20.9059  -20.8817  -12.2496 C   0  0  0  0  0  0  0  0  0  0  0  0
   21.0858  -21.5783  -11.2103 O   0  0  0  0  0  0  0  0  0  0  0  0
   19.6801  -20.2798  -12.3962 O   0  0  0  0  0  0  0  0  0  0  0  0
  1  2  1  0
  3  4  1  6
  3  5  1  0
  3  2  1  0
  5  6  2  0
  7  8  1  0
  8  9  1  0
  9 10  1  0
 11 10  1  1
 11 13  1  0
 12  5  1  0
 12 11  1  0
 13 19  1  0
 13 14  2  0
 16 18  1  0
 16 15  1  1
 17 16  1  0
 18 20  1  0
 18 19  1  1
 20 22  1  0
 21 20  2  0
M  END
$$$$
