SMV.pdb
     RDKit          3D

 22 21  0  0  1  0  0  0  0  0999 V2000
   34.5980   -8.4928  -16.9992 O   0  0  0  0  0  0  0  0  0  0  0  0
   34.4749   -9.6831  -16.2952 C   0  0  0  0  0  0  0  0  0  0  0  0
   34.1667  -10.8096  -17.2612 C   0  0  2  0  0  0  0  0  0  0  0  0
   35.2333  -10.8842  -18.2148 N   0  0  0  0  0  0  0  0  0  0  0  0
   32.8789  -10.6324  -17.9403 C   0  0  0  0  0  0  0  0  0  0  0  0
   32.7700  -10.2082  -19.1190 O   0  0  0  0  0  0  0  0  0  0  0  0
   27.4612  -13.1879  -15.2479 C   0  0  0  0  0  0  0  0  0  0  0  0
   27.0408  -13.0332  -16.9836 S   0  0  0  0  0  0  0  0  0  0  0  0
   28.0728  -11.7992  -17.8300 C   0  0  0  0  0  0  0  0  0  0  0  0
   29.4138  -11.7647  -17.1797 C   0  0  0  0  0  0  0  0  0  0  0  0
   30.3584  -10.7957  -17.8596 C   0  0  2  0  0  0  0  0  0  0  0  0
   31.6523  -10.9435  -17.2716 N   0  0  0  0  0  0  0  0  0  0  0  0
   29.8372   -9.4259  -17.8108 C   0  0  0  0  0  0  0  0  0  0  0  0
   29.8790   -8.7917  -16.7260 O   0  0  0  0  0  0  0  0  0  0  0  0
   28.6894   -5.1051  -19.7371 C   0  0  0  0  0  0  0  0  0  0  0  0
   29.2348   -6.5042  -19.8988 C   0  0  2  0  0  0  0  0  0  0  0  0
   28.7827   -7.0807  -21.2310 C   0  0  0  0  0  0  0  0  0  0  0  0
   28.7220   -7.4337  -18.8169 C   0  0  2  0  0  0  0  0  0  0  0  0
   29.2782   -8.7573  -18.9297 N   0  0  0  0  0  0  0  0  0  0  0  0
   27.2388   -7.4435  -18.9214 C   0  0  0  0  0  0  0  0  0  0  0  0
   26.5806   -6.4336  -18.5410 O   0  0  0  0  0  0  0  0  0  0  0  0
   26.5245   -8.5066  -19.4173 O   0  0  0  0  0  0  0  0  0  0  0  0
  1  2  1  0
  3  4  1  6
  3  5  1  0
  3  2  1  0
  5  6  2  0
  7  8  1  0
  8  9  1  0
  9 10  1  0
 11 10  1  1
 11 13  1  0
 12  5  1  0
 12 11  1  0
 13 19  1  0
 13 14  2  0
 16 18  1  0
 16 15  1  1
 17 16  1  0
 18 20  1  0
 18 19  1  6
 20 22  1  0
 21 20  2  0
M  END
$$$$
