SMV.pdb
     RDKit          3D

 22 21  0  0  1  0  0  0  0  0999 V2000
   26.9494  -18.7578  -16.4476 O   0  0  0  0  0  0  0  0  0  0  0  0
   28.0674  -18.8704  -15.6322 C   0  0  0  0  0  0  0  0  0  0  0  0
   28.3120  -20.3316  -15.3125 C   0  0  2  0  0  0  0  0  0  0  0  0
   28.5194  -21.0297  -16.5463 N   0  0  0  0  0  0  0  0  0  0  0  0
   27.2090  -20.9351  -14.5575 C   0  0  0  0  0  0  0  0  0  0  0  0
   26.3772  -21.7311  -15.0632 O   0  0  0  0  0  0  0  0  0  0  0  0
   26.0294  -19.2382   -8.0973 C   0  0  0  0  0  0  0  0  0  0  0  0
   25.6283  -20.9732   -8.3026 S   0  0  0  0  0  0  0  0  0  0  0  0
   25.1818  -21.3736  -10.0186 C   0  0  0  0  0  0  0  0  0  0  0  0
   26.2268  -20.8249  -10.9291 C   0  0  0  0  0  0  0  0  0  0  0  0
   25.9277  -21.1092  -12.3863 C   0  0  2  0  0  0  0  0  0  0  0  0
   27.0245  -20.6357  -13.1701 N   0  0  0  0  0  0  0  0  0  0  0  0
   24.6311  -20.5485  -12.7798 C   0  0  0  0  0  0  0  0  0  0  0  0
   24.5087  -19.3018  -12.8865 O   0  0  0  0  0  0  0  0  0  0  0  0
   22.7702  -21.1889  -15.9574 C   0  0  0  0  0  0  0  0  0  0  0  0
   21.7915  -21.4037  -14.8272 C   0  0  2  0  0  0  0  0  0  0  0  0
   20.4534  -20.7741  -15.1801 C   0  0  0  0  0  0  0  0  0  0  0  0
   22.2648  -20.7491  -13.5447 C   0  0  2  0  0  0  0  0  0  0  0  0
   23.4841  -21.3368  -13.0530 N   0  0  0  0  0  0  0  0  0  0  0  0
   21.1550  -20.8683  -12.5623 C   0  0  0  0  0  0  0  0  0  0  0  0
   20.1793  -20.0671  -12.6241 O   0  0  0  0  0  0  0  0  0  0  0  0
   21.1247  -21.8173  -11.5698 O   0  0  0  0  0  0  0  0  0  0  0  0
  1  2  1  0
  3  4  1  6
  3  5  1  0
  3  2  1  0
  5  6  2  0
  7  8  1  0
  8  9  1  0
  9 10  1  0
 11 10  1  1
 11 13  1  0
 12  5  1  0
 12 11  1  0
 13 19  1  0
 13 14  2  0
 16 18  1  0
 16 15  1  6
 17 16  1  0
 18 20  1  0
 18 19  1  1
 20 22  1  0
 21 20  2  0
M  END
$$$$
