SMV.pdb
     RDKit          3D

 22 21  0  0  1  0  0  0  0  0999 V2000
   26.7492  -18.5204  -16.6656 O   0  0  0  0  0  0  0  0  0  0  0  0
   27.9102  -18.4623  -15.9065 C   0  0  0  0  0  0  0  0  0  0  0  0
   28.3296  -19.8665  -15.5199 C   0  0  2  0  0  0  0  0  0  0  0  0
   28.6391  -20.5860  -16.7195 N   0  0  0  0  0  0  0  0  0  0  0  0
   27.2995  -20.5693  -14.7480 C   0  0  0  0  0  0  0  0  0  0  0  0
   26.5835  -21.4874  -15.2231 O   0  0  0  0  0  0  0  0  0  0  0  0
   24.4528  -21.1362   -7.3303 C   0  0  0  0  0  0  0  0  0  0  0  0
   25.5743  -20.4166   -8.5295 S   0  0  0  0  0  0  0  0  0  0  0  0
   25.2719  -21.0412  -10.2096 C   0  0  0  0  0  0  0  0  0  0  0  0
   26.2898  -20.4595  -11.1304 C   0  0  0  0  0  0  0  0  0  0  0  0
   26.0280  -20.8182  -12.5783 C   0  0  2  0  0  0  0  0  0  0  0  0
   27.0558  -20.2312  -13.3787 N   0  0  0  0  0  0  0  0  0  0  0  0
   24.6708  -20.4362  -12.9813 C   0  0  0  0  0  0  0  0  0  0  0  0
   24.3964  -19.2191  -13.1361 O   0  0  0  0  0  0  0  0  0  0  0  0
   20.4430  -21.5257  -15.2502 C   0  0  0  0  0  0  0  0  0  0  0  0
   21.8457  -21.8819  -14.8181 C   0  0  2  0  0  0  0  0  0  0  0  0
   21.8652  -23.2915  -14.2487 C   0  0  0  0  0  0  0  0  0  0  0  0
   22.3476  -20.9565  -13.7275 C   0  0  2  0  0  0  0  0  0  0  0  0
   23.6276  -21.3689  -13.2122 N   0  0  0  0  0  0  0  0  0  0  0  0
   21.3046  -20.9296  -12.6682 C   0  0  0  0  0  0  0  0  0  0  0  0
   21.5118  -21.5279  -11.5743 O   0  0  0  0  0  0  0  0  0  0  0  0
   20.1029  -20.2795  -12.8091 O   0  0  0  0  0  0  0  0  0  0  0  0
  1  2  1  0
  3  4  1  6
  3  5  1  0
  3  2  1  0
  5  6  2  0
  7  8  1  0
  8  9  1  0
  9 10  1  0
 11 10  1  1
 11 13  1  0
 12  5  1  0
 12 11  1  0
 13 19  1  0
 13 14  2  0
 16 18  1  0
 16 15  1  1
 17 16  1  0
 18 20  1  0
 18 19  1  1
 20 22  1  0
 21 20  2  0
M  END
$$$$
