SMV.pdb
     RDKit          3D

 22 21  0  0  1  0  0  0  0  0999 V2000
   23.6198  -21.6553  -17.8095 O   0  0  0  0  0  0  0  0  0  0  0  0
   24.7600  -22.2614  -17.2994 C   0  0  0  0  0  0  0  0  0  0  0  0
   25.1343  -21.6047  -15.9858 C   0  0  2  0  0  0  0  0  0  0  0  0
   26.3708  -22.1739  -15.5387 N   0  0  0  0  0  0  0  0  0  0  0  0
   24.0951  -21.7598  -14.9626 C   0  0  0  0  0  0  0  0  0  0  0  0
   24.1164  -22.6596  -14.0844 O   0  0  0  0  0  0  0  0  0  0  0  0
   20.9397  -16.6504  -13.0531 C   0  0  0  0  0  0  0  0  0  0  0  0
   19.7489  -17.8387  -12.4341 S   0  0  0  0  0  0  0  0  0  0  0  0
   20.2995  -19.5529  -12.6847 C   0  0  0  0  0  0  0  0  0  0  0  0
   21.3841  -19.5660  -13.7074 C   0  0  0  0  0  0  0  0  0  0  0  0
   21.9148  -20.9608  -13.9657 C   0  0  2  0  0  0  0  0  0  0  0  0
   22.9770  -20.8675  -14.9168 N   0  0  0  0  0  0  0  0  0  0  0  0
   20.8375  -21.8714  -14.3663 C   0  0  0  0  0  0  0  0  0  0  0  0
   20.3424  -21.7674  -15.5173 O   0  0  0  0  0  0  0  0  0  0  0  0
   18.8152  -25.2164  -11.9784 C   0  0  0  0  0  0  0  0  0  0  0  0
   19.3630  -25.1409  -13.3839 C   0  0  2  0  0  0  0  0  0  0  0  0
   20.8428  -25.4900  -13.3776 C   0  0  0  0  0  0  0  0  0  0  0  0
   19.2397  -23.7438  -13.9586 C   0  0  2  0  0  0  0  0  0  0  0  0
   20.3078  -22.8814  -13.5232 N   0  0  0  0  0  0  0  0  0  0  0  0
   17.9065  -23.2248  -13.5536 C   0  0  0  0  0  0  0  0  0  0  0  0
   16.8650  -23.6908  -14.0975 O   0  0  0  0  0  0  0  0  0  0  0  0
   17.7339  -22.2483  -12.6034 O   0  0  0  0  0  0  0  0  0  0  0  0
  1  2  1  0
  3  4  1  1
  3  5  1  0
  3  2  1  0
  5  6  2  0
  7  8  1  0
  8  9  1  0
  9 10  1  0
 11 10  1  6
 11 13  1  0
 12  5  1  0
 12 11  1  0
 13 19  1  0
 13 14  2  0
 16 18  1  0
 16 15  1  1
 17 16  1  0
 18 20  1  0
 18 19  1  1
 20 22  1  0
 21 20  2  0
M  END
$$$$
