SMV.pdb
     RDKit          3D

 22 21  0  0  1  0  0  0  0  0999 V2000
   27.9424  -18.3972  -14.2770 O   0  0  0  0  0  0  0  0  0  0  0  0
   27.1029  -19.4972  -14.1642 C   0  0  0  0  0  0  0  0  0  0  0  0
   27.8658  -20.6514  -13.5453 C   0  0  2  0  0  0  0  0  0  0  0  0
   28.0051  -21.6767  -14.5363 N   0  0  0  0  0  0  0  0  0  0  0  0
   27.2104  -21.1800  -12.3445 C   0  0  0  0  0  0  0  0  0  0  0  0
   26.3147  -22.0620  -12.3756 O   0  0  0  0  0  0  0  0  0  0  0  0
   27.0713  -20.0472   -4.4792 C   0  0  0  0  0  0  0  0  0  0  0  0
   27.6718  -19.5688   -6.0990 S   0  0  0  0  0  0  0  0  0  0  0  0
   26.7158  -20.3410   -7.4384 C   0  0  0  0  0  0  0  0  0  0  0  0
   27.4689  -20.1914   -8.7163 C   0  0  0  0  0  0  0  0  0  0  0  0
   26.7328  -20.7983   -9.8925 C   0  0  2  0  0  0  0  0  0  0  0  0
   27.5718  -20.7011  -11.0451 N   0  0  0  0  0  0  0  0  0  0  0  0
   25.4129  -20.1833  -10.0656 C   0  0  0  0  0  0  0  0  0  0  0  0
   25.3207  -18.9302  -10.1089 O   0  0  0  0  0  0  0  0  0  0  0  0
   21.5319  -19.9554  -12.6846 C   0  0  0  0  0  0  0  0  0  0  0  0
   22.7927  -20.6052  -12.1657 C   0  0  2  0  0  0  0  0  0  0  0  0
   22.6935  -22.1145  -12.3204 C   0  0  0  0  0  0  0  0  0  0  0  0
   23.0018  -20.3236  -10.6912 C   0  0  2  0  0  0  0  0  0  0  0  0
   24.2104  -20.9250  -10.1896 N   0  0  0  0  0  0  0  0  0  0  0  0
   21.7957  -20.8234   -9.9795 C   0  0  0  0  0  0  0  0  0  0  0  0
   20.6559  -20.3785  -10.2967 O   0  0  0  0  0  0  0  0  0  0  0  0
   21.8458  -21.7599   -8.9760 O   0  0  0  0  0  0  0  0  0  0  0  0
  1  2  1  0
  3  4  1  6
  3  5  1  0
  3  2  1  0
  5  6  2  0
  7  8  1  0
  8  9  1  0
  9 10  1  0
 11 10  1  1
 11 13  1  0
 12  5  1  0
 12 11  1  0
 13 19  1  0
 13 14  2  0
 16 18  1  0
 16 15  1  1
 17 16  1  0
 18 20  1  0
 18 19  1  1
 20 22  1  0
 21 20  2  0
M  END
$$$$
