SMV.pdb
     RDKit          3D

 22 21  0  0  1  0  0  0  0  0999 V2000
   25.6462  -17.1471  -16.1232 O   0  0  0  0  0  0  0  0  0  0  0  0
   26.8094  -17.0686  -15.3694 C   0  0  0  0  0  0  0  0  0  0  0  0
   27.4336  -18.4456  -15.2621 C   0  0  2  0  0  0  0  0  0  0  0  0
   27.8378  -18.8558  -16.5740 N   0  0  0  0  0  0  0  0  0  0  0  0
   26.5233  -19.4317  -14.6707 C   0  0  0  0  0  0  0  0  0  0  0  0
   26.0342  -20.3958  -15.3131 O   0  0  0  0  0  0  0  0  0  0  0  0
   26.7879  -20.4453   -8.3495 C   0  0  0  0  0  0  0  0  0  0  0  0
   25.1071  -21.0083   -8.6164 S   0  0  0  0  0  0  0  0  0  0  0  0
   24.7125  -21.1706  -10.3834 C   0  0  0  0  0  0  0  0  0  0  0  0
   25.5124  -20.1728  -11.1494 C   0  0  0  0  0  0  0  0  0  0  0  0
   25.2664  -20.2608  -12.6412 C   0  0  2  0  0  0  0  0  0  0  0  0
   26.1396  -19.3379  -13.2950 N   0  0  0  0  0  0  0  0  0  0  0  0
   23.8483  -20.0616  -12.9566 C   0  0  0  0  0  0  0  0  0  0  0  0
   23.3565  -18.9078  -12.8694 O   0  0  0  0  0  0  0  0  0  0  0  0
   21.3671  -23.0601  -14.8858 C   0  0  0  0  0  0  0  0  0  0  0  0
   21.2303  -21.5620  -15.0205 C   0  0  2  0  0  0  0  0  0  0  0  0
   22.1648  -21.0569  -16.1082 C   0  0  0  0  0  0  0  0  0  0  0  0
   21.6136  -20.8474  -13.7399 C   0  0  2  0  0  0  0  0  0  0  0  0
   22.9787  -21.1064  -13.3614 N   0  0  0  0  0  0  0  0  0  0  0  0
   20.6536  -21.2884  -12.6936 C   0  0  0  0  0  0  0  0  0  0  0  0
   21.0605  -22.0098  -11.7388 O   0  0  0  0  0  0  0  0  0  0  0  0
   19.3219  -20.9521  -12.7017 O   0  0  0  0  0  0  0  0  0  0  0  0
  1  2  1  0
  3  4  1  6
  3  5  1  0
  3  2  1  0
  5  6  2  0
  7  8  1  0
  8  9  1  0
  9 10  1  0
 11 10  1  1
 11 13  1  0
 12  5  1  0
 12 11  1  0
 13 19  1  0
 13 14  2  0
 16 18  1  0
 16 15  1  1
 17 16  1  0
 18 20  1  0
 18 19  1  1
 20 22  1  0
 21 20  2  0
M  END
$$$$
