LDK.pdb
     RDKit          3D

 26 25  0  0  1  0  0  0  0  0999 V2000
    8.0032  -13.0411   18.8019 C   0  0  0  0  0  0  0  0  0  0  0  0
    7.4557  -13.6448   20.1019 C   0  0  2  0  0  0  0  0  0  0  0  0
    7.1833  -12.5397   21.0886 C   0  0  0  0  0  0  0  0  0  0  0  0
    8.4723  -14.5786   20.6814 C   0  0  0  0  0  0  0  0  0  0  0  0
    8.7783  -15.7556   19.7863 C   0  0  2  0  0  0  0  0  0  0  0  0
    7.5944  -16.4906   19.5148 N   0  0  0  0  0  0  0  0  0  0  0  0
    9.8569  -16.5435   20.4302 C   0  0  0  0  0  0  0  0  0  0  0  0
    9.4972  -17.4664   21.2063 O   0  0  0  0  0  0  0  0  0  0  0  0
   11.2277  -16.3259   20.2300 N   0  0  0  0  0  0  0  0  0  0  0  0
   12.1843  -17.2049   20.8633 C   0  0  1  0  0  0  0  0  0  0  0  0
   13.5089  -17.0516   20.1741 C   0  0  0  0  0  0  0  0  0  0  0  0
   13.5485  -17.6471   18.8233 C   0  0  0  0  0  0  0  0  0  0  0  0
   14.0287  -16.9661   17.8701 O   0  0  0  0  0  0  0  0  0  0  0  0
   12.2850  -16.9431   22.3268 C   0  0  0  0  0  0  0  0  0  0  0  0
   12.6591  -15.7993   22.6809 O   0  0  0  0  0  0  0  0  0  0  0  0
   13.0933  -18.9101   18.5195 O   0  0  0  0  0  0  0  0  0  0  0  0
   11.9594  -17.9784   23.2129 N   0  0  0  0  0  0  0  0  0  0  0  0
   12.1577  -17.7125   24.6890 C   0  0  1  0  0  0  0  0  0  0  0  0
   11.4100  -18.8220   25.3131 C   0  0  0  0  0  0  0  0  0  0  0  0
   11.4650  -19.1343   26.7344 C   0  0  0  0  0  0  0  0  0  0  0  0
   10.8327  -20.3424   27.2944 C   0  0  0  0  0  0  0  0  0  0  0  0
   11.2405  -20.4218   28.7879 C   0  0  0  0  0  0  0  0  0  0  0  0
   10.6102  -21.5587   29.3929 N   0  0  0  0  0  0  0  0  0  0  0  0
   13.6134  -17.6794   24.8511 C   0  0  0  0  0  0  0  0  0  0  0  0
   14.5756  -18.3909   24.1979 O   0  0  0  0  0  0  0  0  0  0  0  0
   14.0803  -16.8689   25.7397 O   0  0  0  0  0  0  0  0  0  0  0  0
  2  1  1  6
  2  4  1  0
  3  2  1  0
  5  4  1  0
  5  6  1  1
  7  5  1  0
  8  7  2  0
  9  7  1  0
 10 14  1  0
 10  9  1  0
 10 11  1  6
 12 13  2  0
 12 11  1  0
 14 15  2  0
 16 12  1  0
 17 18  1  0
 17 14  1  0
 18 19  1  1
 20 19  1  0
 21 20  1  0
 22 21  1  0
 23 22  1  0
 24 25  1  0
 24 18  1  0
 26 24  2  0
M  END
$$$$
