LDK.pdb
     RDKit          3D

 26 25  0  0  1  0  0  0  0  0999 V2000
    6.4677  -12.3076   25.1245 C   0  0  0  0  0  0  0  0  0  0  0  0
    6.5675  -13.2210   26.3533 C   0  0  2  0  0  0  0  0  0  0  0  0
    7.1681  -12.4504   27.4998 C   0  0  0  0  0  0  0  0  0  0  0  0
    7.4490  -14.3879   26.0331 C   0  0  0  0  0  0  0  0  0  0  0  0
    6.8872  -15.2795   24.9516 C   0  0  2  0  0  0  0  0  0  0  0  0
    5.8407  -16.0863   25.4707 N   0  0  0  0  0  0  0  0  0  0  0  0
    8.0156  -16.0405   24.3630 C   0  0  0  0  0  0  0  0  0  0  0  0
    8.2549  -17.1719   24.8590 O   0  0  0  0  0  0  0  0  0  0  0  0
    8.8170  -15.5833   23.3068 N   0  0  0  0  0  0  0  0  0  0  0  0
    9.8980  -16.4139   22.8272 C   0  0  1  0  0  0  0  0  0  0  0  0
   10.3171  -15.9237   21.4718 C   0  0  0  0  0  0  0  0  0  0  0  0
   11.3360  -16.7721   20.8216 C   0  0  0  0  0  0  0  0  0  0  0  0
   11.6596  -17.8662   21.3705 O   0  0  0  0  0  0  0  0  0  0  0  0
   11.0379  -16.4393   23.7866 C   0  0  0  0  0  0  0  0  0  0  0  0
   11.5601  -15.3390   24.0868 O   0  0  0  0  0  0  0  0  0  0  0  0
   11.9709  -16.4548   19.6423 O   0  0  0  0  0  0  0  0  0  0  0  0
   11.4556  -17.6772   24.2926 N   0  0  0  0  0  0  0  0  0  0  0  0
   12.6093  -17.6699   25.2713 C   0  0  1  0  0  0  0  0  0  0  0  0
   12.2602  -18.7803   26.1795 C   0  0  0  0  0  0  0  0  0  0  0  0
   12.4289  -18.7252   27.6249 C   0  0  0  0  0  0  0  0  0  0  0  0
   12.0285  -19.8403   28.5018 C   0  0  0  0  0  0  0  0  0  0  0  0
   12.2695  -19.3824   29.9631 C   0  0  0  0  0  0  0  0  0  0  0  0
   11.8862  -20.4336   30.8598 N   0  0  0  0  0  0  0  0  0  0  0  0
   13.7951  -17.8144   24.4232 C   0  0  0  0  0  0  0  0  0  0  0  0
   14.3191  -18.9337   23.8477 O   0  0  0  0  0  0  0  0  0  0  0  0
   14.4632  -16.7398   24.1714 O   0  0  0  0  0  0  0  0  0  0  0  0
  2  1  1  6
  2  4  1  0
  3  2  1  0
  5  4  1  0
  5  6  1  1
  7  5  1  0
  8  7  2  0
  9  7  1  0
 10 14  1  0
 10  9  1  0
 10 11  1  6
 12 13  2  0
 12 11  1  0
 14 15  2  0
 16 12  1  0
 17 18  1  0
 17 14  1  0
 18 19  1  1
 20 19  1  0
 21 20  1  0
 22 21  1  0
 23 22  1  0
 24 25  1  0
 24 18  1  0
 26 24  2  0
M  END
$$$$
