LDK.pdb
     RDKit          3D

 26 25  0  0  1  0  0  0  0  0999 V2000
    8.2098  -13.2668   18.7604 C   0  0  0  0  0  0  0  0  0  0  0  0
    7.5963  -13.5145   20.1448 C   0  0  2  0  0  0  0  0  0  0  0  0
    7.5397  -12.2150   20.9045 C   0  0  0  0  0  0  0  0  0  0  0  0
    8.4507  -14.4854   20.8990 C   0  0  0  0  0  0  0  0  0  0  0  0
    8.4839  -15.8597   20.2742 C   0  0  2  0  0  0  0  0  0  0  0  0
    7.1652  -16.3592   20.1090 N   0  0  0  0  0  0  0  0  0  0  0  0
    9.3644  -16.7130   21.1080 C   0  0  0  0  0  0  0  0  0  0  0  0
    8.7965  -17.4896   21.9190 O   0  0  0  0  0  0  0  0  0  0  0  0
   10.7655  -16.7065   21.0480 N   0  0  0  0  0  0  0  0  0  0  0  0
   11.5150  -17.6034   21.8980 C   0  0  1  0  0  0  0  0  0  0  0  0
   12.7902  -17.9757   21.1994 C   0  0  0  0  0  0  0  0  0  0  0  0
   13.4725  -19.1444   21.7906 C   0  0  0  0  0  0  0  0  0  0  0  0
   14.0815  -19.9475   21.0243 O   0  0  0  0  0  0  0  0  0  0  0  0
   11.7692  -17.0046   23.2386 C   0  0  0  0  0  0  0  0  0  0  0  0
   12.4729  -15.9670   23.2797 O   0  0  0  0  0  0  0  0  0  0  0  0
   13.4948  -19.4296   23.1370 O   0  0  0  0  0  0  0  0  0  0  0  0
   11.2135  -17.6284   24.3633 N   0  0  0  0  0  0  0  0  0  0  0  0
   11.4693  -16.9839   25.7080 C   0  0  1  0  0  0  0  0  0  0  0  0
   10.4050  -15.9630   25.7767 C   0  0  0  0  0  0  0  0  0  0  0  0
   10.3810  -14.8858   26.7563 C   0  0  0  0  0  0  0  0  0  0  0  0
    9.2751  -13.9135   26.8221 C   0  0  0  0  0  0  0  0  0  0  0  0
    9.5836  -12.9485   27.9956 C   0  0  0  0  0  0  0  0  0  0  0  0
    8.5856  -11.9199   28.0399 N   0  0  0  0  0  0  0  0  0  0  0  0
   11.4194  -18.1024   26.6528 C   0  0  0  0  0  0  0  0  0  0  0  0
   11.9972  -18.2269   27.8814 O   0  0  0  0  0  0  0  0  0  0  0  0
   10.7382  -19.1371   26.2923 O   0  0  0  0  0  0  0  0  0  0  0  0
  2  1  1  6
  2  4  1  0
  3  2  1  0
  5  4  1  0
  5  6  1  1
  7  5  1  0
  8  7  2  0
  9  7  1  0
 10 14  1  0
 10  9  1  0
 10 11  1  6
 12 13  2  0
 12 11  1  0
 14 15  2  0
 16 12  1  0
 17 18  1  0
 17 14  1  0
 18 19  1  1
 20 19  1  0
 21 20  1  0
 22 21  1  0
 23 22  1  0
 24 25  1  0
 24 18  1  0
 26 24  2  0
M  END
$$$$
