LDK.pdb
     RDKit          3D

 26 25  0  0  1  0  0  0  0  0999 V2000
    5.8145  -12.2966   24.9780 C   0  0  0  0  0  0  0  0  0  0  0  0
    6.4544  -13.0581   26.1463 C   0  0  2  0  0  0  0  0  0  0  0  0
    7.1704  -12.0832   27.0440 C   0  0  0  0  0  0  0  0  0  0  0  0
    7.4426  -14.0473   25.6113 C   0  0  0  0  0  0  0  0  0  0  0  0
    6.8070  -15.1288   24.7709 C   0  0  2  0  0  0  0  0  0  0  0  0
    5.8506  -15.8492   25.5337 N   0  0  0  0  0  0  0  0  0  0  0  0
    7.8972  -15.9615   24.2077 C   0  0  0  0  0  0  0  0  0  0  0  0
    8.2151  -16.9916   24.8565 O   0  0  0  0  0  0  0  0  0  0  0  0
    8.5820  -15.6749   23.0179 N   0  0  0  0  0  0  0  0  0  0  0  0
    9.6643  -16.5361   22.5987 C   0  0  1  0  0  0  0  0  0  0  0  0
    9.9829  -16.2440   21.1612 C   0  0  0  0  0  0  0  0  0  0  0  0
   11.0463  -17.1024   20.6019 C   0  0  0  0  0  0  0  0  0  0  0  0
   11.0452  -18.3369   20.8831 O   0  0  0  0  0  0  0  0  0  0  0  0
   10.8591  -16.3824   23.4758 C   0  0  0  0  0  0  0  0  0  0  0  0
   11.3791  -15.2428   23.5430 O   0  0  0  0  0  0  0  0  0  0  0  0
   12.0565  -16.6507   19.7832 O   0  0  0  0  0  0  0  0  0  0  0  0
   11.3273  -17.5073   24.1673 N   0  0  0  0  0  0  0  0  0  0  0  0
   12.3476  -17.2721   25.2593 C   0  0  1  0  0  0  0  0  0  0  0  0
   11.5247  -17.3500   26.4826 C   0  0  0  0  0  0  0  0  0  0  0  0
   12.0133  -16.9978   27.8085 C   0  0  0  0  0  0  0  0  0  0  0  0
   11.1178  -16.4839   28.8605 C   0  0  0  0  0  0  0  0  0  0  0  0
   12.0002  -16.1553   30.0921 C   0  0  0  0  0  0  0  0  0  0  0  0
   11.1795  -15.6069   31.1320 N   0  0  0  0  0  0  0  0  0  0  0  0
   13.3549  -18.3117   25.0337 C   0  0  0  0  0  0  0  0  0  0  0  0
   13.2387  -19.5070   24.3885 O   0  0  0  0  0  0  0  0  0  0  0  0
   14.5337  -18.0908   25.5092 O   0  0  0  0  0  0  0  0  0  0  0  0
  2  1  1  6
  2  4  1  0
  3  2  1  0
  5  4  1  0
  5  6  1  1
  7  5  1  0
  8  7  2  0
  9  7  1  0
 10 14  1  0
 10  9  1  0
 10 11  1  6
 12 13  2  0
 12 11  1  0
 14 15  2  0
 16 12  1  0
 17 18  1  0
 17 14  1  0
 18 19  1  1
 20 19  1  0
 21 20  1  0
 22 21  1  0
 23 22  1  0
 24 25  1  0
 24 18  1  0
 26 24  2  0
M  END
$$$$
