LDK.pdb
     RDKit          3D

 26 25  0  0  1  0  0  0  0  0999 V2000
    8.9010  -12.2888   18.7034 C   0  0  0  0  0  0  0  0  0  0  0  0
    7.9659  -13.4915   18.5210 C   0  0  2  0  0  0  0  0  0  0  0  0
    6.5371  -13.0146   18.5091 C   0  0  0  0  0  0  0  0  0  0  0  0
    8.1545  -14.4433   19.6611 C   0  0  0  0  0  0  0  0  0  0  0  0
    9.6051  -14.7512   19.9459 C   0  0  2  0  0  0  0  0  0  0  0  0
   10.2230  -15.3213   18.8019 N   0  0  0  0  0  0  0  0  0  0  0  0
    9.6558  -15.6016   21.1597 C   0  0  0  0  0  0  0  0  0  0  0  0
    8.7827  -15.3845   22.0394 O   0  0  0  0  0  0  0  0  0  0  0  0
   10.6005  -16.6140   21.3816 N   0  0  0  0  0  0  0  0  0  0  0  0
   10.5312  -17.3933   22.5967 C   0  0  1  0  0  0  0  0  0  0  0  0
   11.6524  -18.3913   22.5933 C   0  0  0  0  0  0  0  0  0  0  0  0
   11.5923  -19.3567   23.7090 C   0  0  0  0  0  0  0  0  0  0  0  0
   10.6471  -19.2636   24.5463 O   0  0  0  0  0  0  0  0  0  0  0  0
   10.5623  -16.5256   23.8077 C   0  0  0  0  0  0  0  0  0  0  0  0
   11.5365  -15.7449   23.9295 O   0  0  0  0  0  0  0  0  0  0  0  0
   12.5048  -20.3676   23.9092 O   0  0  0  0  0  0  0  0  0  0  0  0
    9.5129  -16.6308   24.7300 N   0  0  0  0  0  0  0  0  0  0  0  0
    9.5027  -15.6480   25.8802 C   0  0  1  0  0  0  0  0  0  0  0  0
    8.3079  -14.8317   25.5877 C   0  0  0  0  0  0  0  0  0  0  0  0
    7.9145  -13.6669   26.3683 C   0  0  0  0  0  0  0  0  0  0  0  0
    6.6756  -12.9195   26.0870 C   0  0  0  0  0  0  0  0  0  0  0  0
    6.6531  -11.6963   27.0392 C   0  0  0  0  0  0  0  0  0  0  0  0
    5.4846  -10.9089   26.7737 N   0  0  0  0  0  0  0  0  0  0  0  0
    9.4867  -16.4982   27.0732 C   0  0  0  0  0  0  0  0  0  0  0  0
    9.6814  -16.1630   28.3802 O   0  0  0  0  0  0  0  0  0  0  0  0
    9.2615  -17.7549   26.8876 O   0  0  0  0  0  0  0  0  0  0  0  0
  2  1  1  1
  2  4  1  0
  3  2  1  0
  5  4  1  0
  5  6  1  6
  7  5  1  0
  8  7  2  0
  9  7  1  0
 10 14  1  0
 10  9  1  0
 10 11  1  1
 12 13  2  0
 12 11  1  0
 14 15  2  0
 16 12  1  0
 17 18  1  0
 17 14  1  0
 18 19  1  6
 20 19  1  0
 21 20  1  0
 22 21  1  0
 23 22  1  0
 24 25  1  0
 24 18  1  0
 26 24  2  0
M  END
$$$$
