LDK.pdb
     RDKit          3D

 26 25  0  0  1  0  0  0  0  0999 V2000
    5.6883  -12.3283   24.7797 C   0  0  0  0  0  0  0  0  0  0  0  0
    6.3641  -12.8942   26.0357 C   0  0  2  0  0  0  0  0  0  0  0  0
    7.0244  -11.7730   26.7944 C   0  0  0  0  0  0  0  0  0  0  0  0
    7.4052  -13.8914   25.6317 C   0  0  0  0  0  0  0  0  0  0  0  0
    6.8473  -15.0431   24.8302 C   0  0  2  0  0  0  0  0  0  0  0  0
    5.8417  -15.7187   25.5703 N   0  0  0  0  0  0  0  0  0  0  0  0
    7.9860  -15.8986   24.4173 C   0  0  0  0  0  0  0  0  0  0  0  0
    8.2258  -16.9054   25.1330 O   0  0  0  0  0  0  0  0  0  0  0  0
    8.7962  -15.6573   23.2984 N   0  0  0  0  0  0  0  0  0  0  0  0
    9.7809  -16.6419   22.9115 C   0  0  1  0  0  0  0  0  0  0  0  0
   10.1755  -16.3934   21.4848 C   0  0  0  0  0  0  0  0  0  0  0  0
    9.1144  -16.7162   20.5098 C   0  0  0  0  0  0  0  0  0  0  0  0
    8.3905  -17.7353   20.7108 O   0  0  0  0  0  0  0  0  0  0  0  0
   10.9583  -16.6286   23.8248 C   0  0  0  0  0  0  0  0  0  0  0  0
   11.6416  -15.5774   23.8652 O   0  0  0  0  0  0  0  0  0  0  0  0
    8.8505  -15.9775   19.3787 O   0  0  0  0  0  0  0  0  0  0  0  0
   11.2308  -17.7785   24.5775 N   0  0  0  0  0  0  0  0  0  0  0  0
   12.3926  -17.7122   25.5443 C   0  0  1  0  0  0  0  0  0  0  0  0
   11.9251  -18.5603   26.6586 C   0  0  0  0  0  0  0  0  0  0  0  0
   12.7869  -19.0256   27.7364 C   0  0  0  0  0  0  0  0  0  0  0  0
   12.2895  -19.9020   28.8121 C   0  0  0  0  0  0  0  0  0  0  0  0
   13.4387  -20.0616   29.8403 C   0  0  0  0  0  0  0  0  0  0  0  0
   12.9417  -20.7270   31.0091 N   0  0  0  0  0  0  0  0  0  0  0  0
   13.5377  -18.1731   24.7552 C   0  0  0  0  0  0  0  0  0  0  0  0
   13.5865  -19.0998   23.7563 O   0  0  0  0  0  0  0  0  0  0  0  0
   14.6819  -17.6433   25.0281 O   0  0  0  0  0  0  0  0  0  0  0  0
  2  1  1  6
  2  4  1  0
  3  2  1  0
  5  4  1  0
  5  6  1  1
  7  5  1  0
  8  7  2  0
  9  7  1  0
 10 14  1  0
 10  9  1  0
 10 11  1  6
 12 13  2  0
 12 11  1  0
 14 15  2  0
 16 12  1  0
 17 18  1  0
 17 14  1  0
 18 19  1  1
 20 19  1  0
 21 20  1  0
 22 21  1  0
 23 22  1  0
 24 25  1  0
 24 18  1  0
 26 24  2  0
M  END
$$$$
