LDK.pdb
     RDKit          3D

 26 25  0  0  1  0  0  0  0  0999 V2000
    5.9391  -12.4041   24.1105 C   0  0  0  0  0  0  0  0  0  0  0  0
    6.1902  -12.8915   25.5435 C   0  0  2  0  0  0  0  0  0  0  0  0
    6.7593  -11.7621   26.3616 C   0  0  0  0  0  0  0  0  0  0  0  0
    7.1729  -14.0207   25.5179 C   0  0  0  0  0  0  0  0  0  0  0  0
    6.6944  -15.2084   24.7176 C   0  0  2  0  0  0  0  0  0  0  0  0
    5.6878  -15.9113   25.4305 N   0  0  0  0  0  0  0  0  0  0  0  0
    7.8822  -16.0238   24.3667 C   0  0  0  0  0  0  0  0  0  0  0  0
    8.2289  -16.9045   25.1959 O   0  0  0  0  0  0  0  0  0  0  0  0
    8.6281  -15.8750   23.1885 N   0  0  0  0  0  0  0  0  0  0  0  0
    9.7653  -16.7363   22.9567 C   0  0  1  0  0  0  0  0  0  0  0  0
   10.3006  -16.4673   21.5805 C   0  0  0  0  0  0  0  0  0  0  0  0
   11.4072  -17.3626   21.1876 C   0  0  0  0  0  0  0  0  0  0  0  0
   11.1408  -18.5589   20.8699 O   0  0  0  0  0  0  0  0  0  0  0  0
   10.8100  -16.5596   24.0045 C   0  0  0  0  0  0  0  0  0  0  0  0
   11.2348  -15.3958   24.2010 O   0  0  0  0  0  0  0  0  0  0  0  0
   12.7301  -16.9852   21.1410 O   0  0  0  0  0  0  0  0  0  0  0  0
   11.2525  -17.6913   24.7019 N   0  0  0  0  0  0  0  0  0  0  0  0
   12.2004  -17.4633   25.8588 C   0  0  1  0  0  0  0  0  0  0  0  0
   11.2782  -17.3584   27.0069 C   0  0  0  0  0  0  0  0  0  0  0  0
   11.5385  -16.5350   28.1795 C   0  0  0  0  0  0  0  0  0  0  0  0
   10.5870  -16.4503   29.3021 C   0  0  0  0  0  0  0  0  0  0  0  0
   11.2043  -15.4932   30.3538 C   0  0  0  0  0  0  0  0  0  0  0  0
   10.2921  -15.3386   31.4491 N   0  0  0  0  0  0  0  0  0  0  0  0
   13.1107  -18.6098   25.8030 C   0  0  0  0  0  0  0  0  0  0  0  0
   14.3337  -18.7757   26.3823 O   0  0  0  0  0  0  0  0  0  0  0  0
   12.7245  -19.6244   25.1059 O   0  0  0  0  0  0  0  0  0  0  0  0
  2  1  1  6
  2  4  1  0
  3  2  1  0
  5  4  1  0
  5  6  1  1
  7  5  1  0
  8  7  2  0
  9  7  1  0
 10 14  1  0
 10  9  1  0
 10 11  1  6
 12 13  2  0
 12 11  1  0
 14 15  2  0
 16 12  1  0
 17 18  1  0
 17 14  1  0
 18 19  1  1
 20 19  1  0
 21 20  1  0
 22 21  1  0
 23 22  1  0
 24 25  1  0
 24 18  1  0
 26 24  2  0
M  END
$$$$
