LDK.pdb
     RDKit          3D

 26 25  0  0  1  0  0  0  0  0999 V2000
    5.2827  -12.0382   25.9720 C   0  0  0  0  0  0  0  0  0  0  0  0
    6.5926  -12.7931   26.2341 C   0  0  2  0  0  0  0  0  0  0  0  0
    7.6117  -11.8404   26.8022 C   0  0  0  0  0  0  0  0  0  0  0  0
    7.1097  -13.3510   24.9447 C   0  0  0  0  0  0  0  0  0  0  0  0
    6.5795  -14.7312   24.6380 C   0  0  2  0  0  0  0  0  0  0  0  0
    5.9287  -15.2747   25.7767 N   0  0  0  0  0  0  0  0  0  0  0  0
    7.7094  -15.5455   24.1290 C   0  0  0  0  0  0  0  0  0  0  0  0
    8.1810  -16.4107   24.9115 O   0  0  0  0  0  0  0  0  0  0  0  0
    8.2733  -15.4116   22.8519 N   0  0  0  0  0  0  0  0  0  0  0  0
    9.3539  -16.2873   22.4595 C   0  0  1  0  0  0  0  0  0  0  0  0
    9.6599  -16.0542   21.0086 C   0  0  0  0  0  0  0  0  0  0  0  0
   10.6730  -16.9774   20.4590 C   0  0  0  0  0  0  0  0  0  0  0  0
   11.7697  -16.5017   20.0419 O   0  0  0  0  0  0  0  0  0  0  0  0
   10.5556  -16.0953   23.3195 C   0  0  0  0  0  0  0  0  0  0  0  0
   11.1013  -14.9660   23.2995 O   0  0  0  0  0  0  0  0  0  0  0  0
   10.5092  -18.3409   20.3651 O   0  0  0  0  0  0  0  0  0  0  0  0
   11.0016  -17.1755   24.0923 N   0  0  0  0  0  0  0  0  0  0  0  0
   12.1221  -16.9077   25.0729 C   0  0  1  0  0  0  0  0  0  0  0  0
   11.4123  -16.8925   26.3673 C   0  0  0  0  0  0  0  0  0  0  0  0
   12.0475  -17.2027   27.6405 C   0  0  0  0  0  0  0  0  0  0  0  0
   11.2981  -17.1978   28.9097 C   0  0  0  0  0  0  0  0  0  0  0  0
   12.3145  -17.4932   30.0424 C   0  0  0  0  0  0  0  0  0  0  0  0
   11.6401  -17.4580   31.3072 N   0  0  0  0  0  0  0  0  0  0  0  0
   13.0804  -17.9866   24.8200 C   0  0  0  0  0  0  0  0  0  0  0  0
   12.8537  -19.2807   24.4557 O   0  0  0  0  0  0  0  0  0  0  0  0
   14.3300  -17.6978   24.9595 O   0  0  0  0  0  0  0  0  0  0  0  0
  2  1  1  6
  2  4  1  0
  3  2  1  0
  5  4  1  0
  5  6  1  1
  7  5  1  0
  8  7  2  0
  9  7  1  0
 10 14  1  0
 10  9  1  0
 10 11  1  6
 12 13  2  0
 12 11  1  0
 14 15  2  0
 16 12  1  0
 17 18  1  0
 17 14  1  0
 18 19  1  1
 20 19  1  0
 21 20  1  0
 22 21  1  0
 23 22  1  0
 24 25  1  0
 24 18  1  0
 26 24  2  0
M  END
$$$$
