LDK.pdb
     RDKit          3D

 26 25  0  0  1  0  0  0  0  0999 V2000
    9.5011  -12.8803   18.4703 C   0  0  0  0  0  0  0  0  0  0  0  0
    8.1400  -13.2982   19.0422 C   0  0  2  0  0  0  0  0  0  0  0  0
    7.4526  -12.0914   19.6253 C   0  0  0  0  0  0  0  0  0  0  0  0
    8.3471  -14.3133   20.1230 C   0  0  0  0  0  0  0  0  0  0  0  0
    9.0877  -15.5420   19.6520 C   0  0  2  0  0  0  0  0  0  0  0  0
    8.2625  -16.3186   18.7967 N   0  0  0  0  0  0  0  0  0  0  0  0
    9.5776  -16.2612   20.8526 C   0  0  0  0  0  0  0  0  0  0  0  0
    8.7203  -16.8937   21.5222 O   0  0  0  0  0  0  0  0  0  0  0  0
   10.9136  -16.2783   21.2785 N   0  0  0  0  0  0  0  0  0  0  0  0
   11.2640  -16.9967   22.4826 C   0  0  1  0  0  0  0  0  0  0  0  0
   12.6905  -17.4511   22.3744 C   0  0  0  0  0  0  0  0  0  0  0  0
   12.9176  -18.4475   21.3084 C   0  0  0  0  0  0  0  0  0  0  0  0
   12.0302  -19.3246   21.0938 O   0  0  0  0  0  0  0  0  0  0  0  0
   11.0342  -16.1703   23.7011 C   0  0  0  0  0  0  0  0  0  0  0  0
   11.8742  -15.2735   23.9532 O   0  0  0  0  0  0  0  0  0  0  0  0
   14.0433  -18.4933   20.5175 O   0  0  0  0  0  0  0  0  0  0  0  0
    9.9054  -16.4399   24.4860 N   0  0  0  0  0  0  0  0  0  0  0  0
    9.7538  -15.6555   25.7708 C   0  0  1  0  0  0  0  0  0  0  0  0
    8.4529  -14.9844   25.5797 C   0  0  0  0  0  0  0  0  0  0  0  0
    7.8806  -14.0450   26.5341 C   0  0  0  0  0  0  0  0  0  0  0  0
    6.5834  -13.3853   26.2998 C   0  0  0  0  0  0  0  0  0  0  0  0
    6.2521  -12.5629   27.5715 C   0  0  0  0  0  0  0  0  0  0  0  0
    4.9858  -11.9126   27.4004 N   0  0  0  0  0  0  0  0  0  0  0  0
    9.8626  -16.6709   26.8213 C   0  0  0  0  0  0  0  0  0  0  0  0
    9.7114  -18.0234   26.7398 O   0  0  0  0  0  0  0  0  0  0  0  0
   10.1371  -16.2499   28.0096 O   0  0  0  0  0  0  0  0  0  0  0  0
  2  1  1  1
  2  4  1  0
  3  2  1  0
  5  4  1  0
  5  6  1  1
  7  5  1  0
  8  7  2  0
  9  7  1  0
 10 14  1  0
 10  9  1  0
 10 11  1  6
 12 13  2  0
 12 11  1  0
 14 15  2  0
 16 12  1  0
 17 18  1  0
 17 14  1  0
 18 19  1  6
 20 19  1  0
 21 20  1  0
 22 21  1  0
 23 22  1  0
 24 25  1  0
 24 18  1  0
 26 24  2  0
M  END
$$$$
