LDK.pdb
     RDKit          3D

 26 25  0  0  1  0  0  0  0  0999 V2000
    8.1754  -12.8307   20.6953 C   0  0  0  0  0  0  0  0  0  0  0  0
    7.5633  -13.4193   21.9733 C   0  0  2  0  0  0  0  0  0  0  0  0
    7.6299  -12.3947   23.0754 C   0  0  0  0  0  0  0  0  0  0  0  0
    8.3419  -14.6305   22.3834 C   0  0  0  0  0  0  0  0  0  0  0  0
    8.2758  -15.7510   21.3734 C   0  0  2  0  0  0  0  0  0  0  0  0
    6.9398  -16.2096   21.2311 N   0  0  0  0  0  0  0  0  0  0  0  0
    9.2423  -16.7943   21.7933 C   0  0  0  0  0  0  0  0  0  0  0  0
    8.7938  -17.7246   22.5121 O   0  0  0  0  0  0  0  0  0  0  0  0
   10.6005  -16.8059   21.4440 N   0  0  0  0  0  0  0  0  0  0  0  0
   11.4383  -17.8938   21.8947 C   0  0  1  0  0  0  0  0  0  0  0  0
   12.6119  -18.0141   20.9667 C   0  0  0  0  0  0  0  0  0  0  0  0
   13.5115  -19.1400   21.2889 C   0  0  0  0  0  0  0  0  0  0  0  0
   14.6075  -18.8971   21.8743 O   0  0  0  0  0  0  0  0  0  0  0  0
   11.8651  -17.7077   23.3102 C   0  0  0  0  0  0  0  0  0  0  0  0
   12.3282  -16.5859   23.6274 O   0  0  0  0  0  0  0  0  0  0  0  0
   13.2411  -20.4570   20.9937 O   0  0  0  0  0  0  0  0  0  0  0  0
   11.7257  -18.7848   24.1954 N   0  0  0  0  0  0  0  0  0  0  0  0
   12.2282  -18.5873   25.6087 C   0  0  1  0  0  0  0  0  0  0  0  0
   11.3954  -19.5349   26.3755 C   0  0  0  0  0  0  0  0  0  0  0  0
   11.4279  -19.6473   27.8270 C   0  0  0  0  0  0  0  0  0  0  0  0
   10.4926  -20.5153   28.5650 C   0  0  0  0  0  0  0  0  0  0  0  0
   10.9258  -20.4936   30.0533 C   0  0  0  0  0  0  0  0  0  0  0  0
   10.0016  -21.2687   30.8286 N   0  0  0  0  0  0  0  0  0  0  0  0
   13.6667  -18.8480   25.5135 C   0  0  0  0  0  0  0  0  0  0  0  0
   14.7027  -18.2443   26.1623 O   0  0  0  0  0  0  0  0  0  0  0  0
   14.0355  -19.7786   24.6996 O   0  0  0  0  0  0  0  0  0  0  0  0
  2  1  1  6
  2  4  1  0
  3  2  1  0
  5  4  1  0
  5  6  1  1
  7  5  1  0
  8  7  2  0
  9  7  1  0
 10 14  1  0
 10  9  1  0
 10 11  1  6
 12 13  2  0
 12 11  1  0
 14 15  2  0
 16 12  1  0
 17 18  1  0
 17 14  1  0
 18 19  1  1
 20 19  1  0
 21 20  1  0
 22 21  1  0
 23 22  1  0
 24 25  1  0
 24 18  1  0
 26 24  2  0
M  END
$$$$
