LDK.pdb
     RDKit          3D

 26 25  0  0  1  0  0  0  0  0999 V2000
    8.2264  -13.1819   18.7510 C   0  0  0  0  0  0  0  0  0  0  0  0
    7.5603  -13.4814   20.1003 C   0  0  2  0  0  0  0  0  0  0  0  0
    7.4415  -12.2052   20.8916 C   0  0  0  0  0  0  0  0  0  0  0  0
    8.4038  -14.4541   20.8644 C   0  0  0  0  0  0  0  0  0  0  0  0
    8.4939  -15.8098   20.2057 C   0  0  2  0  0  0  0  0  0  0  0  0
    7.2042  -16.3934   20.0978 N   0  0  0  0  0  0  0  0  0  0  0  0
    9.4725  -16.6191   20.9713 C   0  0  0  0  0  0  0  0  0  0  0  0
    9.0249  -17.2712   21.9499 O   0  0  0  0  0  0  0  0  0  0  0  0
   10.8411  -16.6996   20.6757 N   0  0  0  0  0  0  0  0  0  0  0  0
   11.6983  -17.5142   21.5065 C   0  0  1  0  0  0  0  0  0  0  0  0
   12.9530  -17.8260   20.7438 C   0  0  0  0  0  0  0  0  0  0  0  0
   12.7262  -18.6438   19.5353 C   0  0  0  0  0  0  0  0  0  0  0  0
   11.8375  -19.5451   19.5662 O   0  0  0  0  0  0  0  0  0  0  0  0
   11.9892  -16.8527   22.8096 C   0  0  0  0  0  0  0  0  0  0  0  0
   12.5392  -15.7259   22.7712 O   0  0  0  0  0  0  0  0  0  0  0  0
   13.4227  -18.4955   18.3573 O   0  0  0  0  0  0  0  0  0  0  0  0
   11.6354  -17.5202   23.9895 N   0  0  0  0  0  0  0  0  0  0  0  0
   12.0322  -16.8702   25.2968 C   0  0  1  0  0  0  0  0  0  0  0  0
   10.7630  -16.2652   25.7469 C   0  0  0  0  0  0  0  0  0  0  0  0
   10.6680  -15.3048   26.8374 C   0  0  0  0  0  0  0  0  0  0  0  0
    9.3885  -14.6813   27.2209 C   0  0  0  0  0  0  0  0  0  0  0  0
    9.6886  -13.6968   28.3802 C   0  0  0  0  0  0  0  0  0  0  0  0
    8.4818  -13.0168   28.7505 N   0  0  0  0  0  0  0  0  0  0  0  0
   12.5935  -17.9708   26.0843 C   0  0  0  0  0  0  0  0  0  0  0  0
   13.4977  -17.9351   27.1040 O   0  0  0  0  0  0  0  0  0  0  0  0
   12.1933  -19.1607   25.7867 O   0  0  0  0  0  0  0  0  0  0  0  0
  2  1  1  6
  2  4  1  0
  3  2  1  0
  5  4  1  0
  5  6  1  1
  7  5  1  0
  8  7  2  0
  9  7  1  0
 10 14  1  0
 10  9  1  0
 10 11  1  6
 12 13  2  0
 12 11  1  0
 14 15  2  0
 16 12  1  0
 17 18  1  0
 17 14  1  0
 18 19  1  1
 20 19  1  0
 21 20  1  0
 22 21  1  0
 23 22  1  0
 24 25  1  0
 24 18  1  0
 26 24  2  0
M  END
$$$$
