LDK.pdb
     RDKit          3D

 26 25  0  0  1  0  0  0  0  0999 V2000
    8.8994  -13.2743   18.3177 C   0  0  0  0  0  0  0  0  0  0  0  0
    7.7988  -13.2931   19.3866 C   0  0  2  0  0  0  0  0  0  0  0  0
    7.5737  -11.8931   19.8947 C   0  0  0  0  0  0  0  0  0  0  0  0
    8.2292  -14.1638   20.5259 C   0  0  0  0  0  0  0  0  0  0  0  0
    8.5378  -15.5817   20.1081 C   0  0  2  0  0  0  0  0  0  0  0  0
    7.3807  -16.1995   19.5649 N   0  0  0  0  0  0  0  0  0  0  0  0
    9.1152  -16.2819   21.2808 C   0  0  0  0  0  0  0  0  0  0  0  0
    8.3011  -16.7374   22.1251 O   0  0  0  0  0  0  0  0  0  0  0  0
   10.4883  -16.4633   21.5009 N   0  0  0  0  0  0  0  0  0  0  0  0
   10.9278  -17.1997   22.6642 C   0  0  1  0  0  0  0  0  0  0  0  0
   12.3434  -17.6475   22.4441 C   0  0  0  0  0  0  0  0  0  0  0  0
   12.8807  -18.4798   23.5392 C   0  0  0  0  0  0  0  0  0  0  0  0
   12.3482  -19.6055   23.7678 O   0  0  0  0  0  0  0  0  0  0  0  0
   10.7864  -16.3937   23.9096 C   0  0  0  0  0  0  0  0  0  0  0  0
   11.4817  -15.3538   24.0023 O   0  0  0  0  0  0  0  0  0  0  0  0
   13.9361  -18.1147   24.3439 O   0  0  0  0  0  0  0  0  0  0  0  0
    9.8947  -16.8393   24.8941 N   0  0  0  0  0  0  0  0  0  0  0  0
    9.8878  -16.0919   26.2095 C   0  0  1  0  0  0  0  0  0  0  0  0
    8.5160  -15.5482   26.2567 C   0  0  0  0  0  0  0  0  0  0  0  0
    8.2080  -14.1588   26.5655 C   0  0  0  0  0  0  0  0  0  0  0  0
    6.8213  -13.6712   26.6754 C   0  0  0  0  0  0  0  0  0  0  0  0
    6.8903  -12.2023   27.1661 C   0  0  0  0  0  0  0  0  0  0  0  0
    5.5620  -11.7186   27.4060 N   0  0  0  0  0  0  0  0  0  0  0  0
   10.2660  -17.1067   27.1962 C   0  0  0  0  0  0  0  0  0  0  0  0
   10.6707  -16.9516   28.4888 O   0  0  0  0  0  0  0  0  0  0  0  0
   10.2226  -18.3368   26.8097 O   0  0  0  0  0  0  0  0  0  0  0  0
  2  1  1  6
  2  4  1  0
  3  2  1  0
  5  4  1  0
  5  6  1  1
  7  5  1  0
  8  7  2  0
  9  7  1  0
 10 14  1  0
 10  9  1  0
 10 11  1  6
 12 13  2  0
 12 11  1  0
 14 15  2  0
 16 12  1  0
 17 18  1  0
 17 14  1  0
 18 19  1  1
 20 19  1  0
 21 20  1  0
 22 21  1  0
 23 22  1  0
 24 25  1  0
 24 18  1  0
 26 24  2  0
M  END
$$$$
