MTC.pdb
     RDKit          3D

 22 21  0  0  1  0  0  0  0  0999 V2000
    8.0919  -11.5640   20.2595 C   0  0  0  0  0  0  0  0  0  0  0  0
    8.2404  -12.2848   18.6116 S   0  0  0  0  0  0  0  0  0  0  0  0
    8.5410  -14.0632   18.7956 C   0  0  0  0  0  0  0  0  0  0  0  0
    8.4083  -14.4820   20.2448 C   0  0  0  0  0  0  0  0  0  0  0  0
    8.7570  -15.9483   20.3849 C   0  0  2  0  0  0  0  0  0  0  0  0
    7.9607  -16.7649   19.5016 N   0  0  0  0  0  0  0  0  0  0  0  0
    8.5315  -16.4026   21.7858 C   0  0  0  0  0  0  0  0  0  0  0  0
    7.4148  -16.7986   22.1718 O   0  0  0  0  0  0  0  0  0  0  0  0
   10.1816  -19.1355   23.5496 C   0  0  0  0  0  0  0  0  0  0  0  0
   10.4391  -17.9084   24.3544 C   0  0  1  0  0  0  0  0  0  0  0  0
   11.7244  -17.3944   24.1598 O   0  0  0  0  0  0  0  0  0  0  0  0
    9.4102  -16.8213   24.1158 C   0  0  2  0  0  0  0  0  0  0  0  0
    9.5946  -16.3940   22.7221 N   0  0  0  0  0  0  0  0  0  0  0  0
    9.6595  -15.6338   24.9568 C   0  0  0  0  0  0  0  0  0  0  0  0
   10.5641  -14.7717   24.6881 O   0  0  0  0  0  0  0  0  0  0  0  0
    8.9111  -15.3494   26.1402 N   0  0  0  0  0  0  0  0  0  0  0  0
    9.1602  -14.2207   26.9701 C   0  0  1  0  0  0  0  0  0  0  0  0
    7.9207  -13.5046   27.4311 C   0  0  0  0  0  0  0  0  0  0  0  0
    6.9924  -13.0120   25.9324 S   0  0  0  0  0  0  0  0  0  0  0  0
   10.0337  -14.6135   28.1019 C   0  0  0  0  0  0  0  0  0  0  0  0
   10.5406  -13.6310   28.9387 O   0  0  0  0  0  0  0  0  0  0  0  0
   10.3468  -15.8028   28.3514 O   0  0  0  0  0  0  0  0  0  0  0  0
  2  1  1  0
  3  4  1  0
  3  2  1  0
  4  5  1  0
  5  7  1  0
  5  6  1  6
  7  8  2  0
 10  9  1  6
 10 12  1  0
 11 10  1  0
 12 14  1  0
 12 13  1  6
 13  7  1  0
 14 15  2  0
 16 17  1  0
 16 14  1  0
 17 20  1  0
 17 18  1  1
 19 18  1  0
 20 22  2  0
 20 21  1  0
M  END
$$$$
