MTC.pdb
     RDKit          3D

 22 21  0  0  1  0  0  0  0  0999 V2000
    8.0629  -10.8606   26.4058 C   0  0  0  0  0  0  0  0  0  0  0  0
    6.5278  -11.3667   27.2087 S   0  0  0  0  0  0  0  0  0  0  0  0
    5.7598  -12.6616   26.1987 C   0  0  0  0  0  0  0  0  0  0  0  0
    6.7462  -13.7747   25.9138 C   0  0  0  0  0  0  0  0  0  0  0  0
    6.1106  -14.7953   24.9943 C   0  0  2  0  0  0  0  0  0  0  0  0
    4.9822  -15.4382   25.6223 N   0  0  0  0  0  0  0  0  0  0  0  0
    7.1032  -15.8396   24.6149 C   0  0  0  0  0  0  0  0  0  0  0  0
    7.2018  -16.9076   25.2495 O   0  0  0  0  0  0  0  0  0  0  0  0
    8.2120  -15.9866   20.7731 C   0  0  0  0  0  0  0  0  0  0  0  0
    9.3616  -16.2572   21.6814 C   0  0  1  0  0  0  0  0  0  0  0  0
   10.2543  -15.1841   21.7577 O   0  0  0  0  0  0  0  0  0  0  0  0
    8.9274  -16.6635   23.0755 C   0  0  2  0  0  0  0  0  0  0  0  0
    7.9681  -15.6393   23.5109 N   0  0  0  0  0  0  0  0  0  0  0  0
   10.0493  -16.6244   24.0344 C   0  0  0  0  0  0  0  0  0  0  0  0
   10.6545  -15.5435   24.3493 O   0  0  0  0  0  0  0  0  0  0  0  0
   10.5517  -17.7904   24.6897 N   0  0  0  0  0  0  0  0  0  0  0  0
   11.6949  -17.7793   25.5369 C   0  0  1  0  0  0  0  0  0  0  0  0
   11.4008  -18.0879   26.9791 C   0  0  0  0  0  0  0  0  0  0  0  0
    9.6370  -18.5667   27.0803 S   0  0  0  0  0  0  0  0  0  0  0  0
   12.7428  -18.6662   24.9768 C   0  0  0  0  0  0  0  0  0  0  0  0
   13.9665  -18.7598   25.6219 O   0  0  0  0  0  0  0  0  0  0  0  0
   12.5848  -19.3488   23.9357 O   0  0  0  0  0  0  0  0  0  0  0  0
  2  1  1  0
  3  4  1  0
  3  2  1  0
  4  5  1  0
  5  7  1  0
  5  6  1  1
  7  8  2  0
 10  9  1  6
 10 12  1  0
 11 10  1  0
 12 14  1  0
 12 13  1  1
 13  7  1  0
 14 15  2  0
 16 17  1  0
 16 14  1  0
 17 20  1  0
 17 18  1  1
 19 18  1  0
 20 22  2  0
 20 21  1  0
M  END
$$$$
