MTC.pdb
     RDKit          3D

 22 21  0  0  1  0  0  0  0  0999 V2000
    7.6787  -11.6367   20.9645 C   0  0  0  0  0  0  0  0  0  0  0  0
    7.7070  -12.2646   19.2727 S   0  0  0  0  0  0  0  0  0  0  0  0
    8.0755  -14.0387   19.3325 C   0  0  0  0  0  0  0  0  0  0  0  0
    8.1336  -14.5260   20.7651 C   0  0  0  0  0  0  0  0  0  0  0  0
    8.2954  -16.0309   20.7848 C   0  0  2  0  0  0  0  0  0  0  0  0
    7.2441  -16.6826   20.0426 N   0  0  0  0  0  0  0  0  0  0  0  0
    8.2723  -16.5358   22.1863 C   0  0  0  0  0  0  0  0  0  0  0  0
    7.2008  -16.7469   22.7864 O   0  0  0  0  0  0  0  0  0  0  0  0
    9.8835  -19.6367   23.3544 C   0  0  0  0  0  0  0  0  0  0  0  0
   10.4191  -18.5338   24.2010 C   0  0  1  0  0  0  0  0  0  0  0  0
   11.7055  -18.1384   23.8230 O   0  0  0  0  0  0  0  0  0  0  0  0
    9.5032  -17.3270   24.2443 C   0  0  2  0  0  0  0  0  0  0  0  0
    9.4830  -16.7901   22.8767 N   0  0  0  0  0  0  0  0  0  0  0  0
   10.0422  -16.2581   25.1084 C   0  0  0  0  0  0  0  0  0  0  0  0
   10.3493  -15.0986   24.6667 O   0  0  0  0  0  0  0  0  0  0  0  0
   10.2653  -16.4303   26.5090 N   0  0  0  0  0  0  0  0  0  0  0  0
   10.5319  -15.3506   27.3966 C   0  0  1  0  0  0  0  0  0  0  0  0
    9.5184  -14.2407   27.3449 C   0  0  0  0  0  0  0  0  0  0  0  0
   10.0306  -12.9837   28.5728 S   0  0  0  0  0  0  0  0  0  0  0  0
   10.7256  -15.8685   28.7723 C   0  0  0  0  0  0  0  0  0  0  0  0
   11.6490  -15.2532   29.6037 O   0  0  0  0  0  0  0  0  0  0  0  0
   10.0925  -16.8474   29.2366 O   0  0  0  0  0  0  0  0  0  0  0  0
  2  1  1  0
  3  4  1  0
  3  2  1  0
  4  5  1  0
  5  7  1  0
  5  6  1  6
  7  8  2  0
 10  9  1  6
 10 12  1  0
 11 10  1  0
 12 14  1  0
 12 13  1  6
 13  7  1  0
 14 15  2  0
 16 17  1  0
 16 14  1  0
 17 20  1  0
 17 18  1  1
 19 18  1  0
 20 22  2  0
 20 21  1  0
M  END
$$$$
