MTC.pdb
     RDKit          3D

 22 21  0  0  1  0  0  0  0  0999 V2000
    5.6054  -11.4281   27.2952 C   0  0  0  0  0  0  0  0  0  0  0  0
    6.6896  -12.5065   26.3367 S   0  0  0  0  0  0  0  0  0  0  0  0
    6.8728  -14.0702   27.2357 C   0  0  0  0  0  0  0  0  0  0  0  0
    7.7722  -15.0229   26.4763 C   0  0  0  0  0  0  0  0  0  0  0  0
    6.9945  -15.6679   25.3492 C   0  0  2  0  0  0  0  0  0  0  0  0
    6.0955  -16.6819   25.8438 N   0  0  0  0  0  0  0  0  0  0  0  0
    7.9260  -16.2942   24.3696 C   0  0  0  0  0  0  0  0  0  0  0  0
    8.4177  -17.4223   24.5656 O   0  0  0  0  0  0  0  0  0  0  0  0
    7.4371  -15.6502   20.5719 C   0  0  0  0  0  0  0  0  0  0  0  0
    8.8924  -15.5607   20.8784 C   0  0  1  0  0  0  0  0  0  0  0  0
    9.3816  -14.2535   20.8007 O   0  0  0  0  0  0  0  0  0  0  0  0
    9.2490  -16.1631   22.2227 C   0  0  2  0  0  0  0  0  0  0  0  0
    8.2783  -15.6126   23.1786 N   0  0  0  0  0  0  0  0  0  0  0  0
   10.5839  -15.7312   22.6823 C   0  0  0  0  0  0  0  0  0  0  0  0
   10.7532  -14.8039   23.5455 O   0  0  0  0  0  0  0  0  0  0  0  0
   11.7967  -16.3131   22.2010 N   0  0  0  0  0  0  0  0  0  0  0  0
   12.9439  -16.5169   23.0178 C   0  0  1  0  0  0  0  0  0  0  0  0
   12.6721  -17.2672   24.2924 C   0  0  0  0  0  0  0  0  0  0  0  0
   14.2594  -17.3906   25.1956 S   0  0  0  0  0  0  0  0  0  0  0  0
   14.0239  -17.1436   22.2183 C   0  0  0  0  0  0  0  0  0  0  0  0
   15.3399  -16.7743   22.4507 O   0  0  0  0  0  0  0  0  0  0  0  0
   13.8136  -18.0032   21.3285 O   0  0  0  0  0  0  0  0  0  0  0  0
  2  1  1  0
  3  4  1  0
  3  2  1  0
  4  5  1  0
  5  7  1  0
  5  6  1  1
  7  8  2  0
 10  9  1  1
 10 12  1  0
 11 10  1  0
 12 14  1  0
 12 13  1  1
 13  7  1  0
 14 15  2  0
 16 17  1  0
 16 14  1  0
 17 20  1  0
 17 18  1  1
 19 18  1  0
 20 22  2  0
 20 21  1  0
M  END
$$$$
