MTC.pdb
     RDKit          3D

 22 21  0  0  1  0  0  0  0  0999 V2000
    7.3383  -10.9661   26.6801 C   0  0  0  0  0  0  0  0  0  0  0  0
    6.9589  -12.3459   27.7799 S   0  0  0  0  0  0  0  0  0  0  0  0
    6.0736  -13.6063   26.8236 C   0  0  0  0  0  0  0  0  0  0  0  0
    7.0007  -14.2747   25.8302 C   0  0  0  0  0  0  0  0  0  0  0  0
    6.2466  -15.3445   25.0700 C   0  0  2  0  0  0  0  0  0  0  0  0
    5.8514  -16.4267   25.9382 N   0  0  0  0  0  0  0  0  0  0  0  0
    7.0937  -15.8969   23.9760 C   0  0  0  0  0  0  0  0  0  0  0  0
    7.6204  -17.0228   24.0634 O   0  0  0  0  0  0  0  0  0  0  0  0
    7.9489  -13.2987   20.8353 C   0  0  0  0  0  0  0  0  0  0  0  0
    7.9008  -14.7542   20.5205 C   0  0  1  0  0  0  0  0  0  0  0  0
    8.7401  -15.1055   19.4592 O   0  0  0  0  0  0  0  0  0  0  0  0
    8.2014  -15.6268   21.7229 C   0  0  2  0  0  0  0  0  0  0  0  0
    7.3225  -15.1449   22.7973 N   0  0  0  0  0  0  0  0  0  0  0  0
    9.5870  -15.4476   22.2000 C   0  0  0  0  0  0  0  0  0  0  0  0
    9.9522  -14.4485   22.9086 O   0  0  0  0  0  0  0  0  0  0  0  0
   10.6342  -16.3751   21.9098 N   0  0  0  0  0  0  0  0  0  0  0  0
   11.9855  -16.1787   22.3101 C   0  0  1  0  0  0  0  0  0  0  0  0
   12.3638  -16.8843   23.5831 C   0  0  0  0  0  0  0  0  0  0  0  0
   10.8473  -17.6772   24.2325 S   0  0  0  0  0  0  0  0  0  0  0  0
   12.8949  -16.5188   21.1896 C   0  0  0  0  0  0  0  0  0  0  0  0
   14.2625  -16.3620   21.3559 O   0  0  0  0  0  0  0  0  0  0  0  0
   12.4933  -16.9474   20.0806 O   0  0  0  0  0  0  0  0  0  0  0  0
  2  1  1  0
  3  4  1  0
  3  2  1  0
  4  5  1  0
  5  7  1  0
  5  6  1  1
  7  8  2  0
 10  9  1  1
 10 12  1  0
 11 10  1  0
 12 14  1  0
 12 13  1  1
 13  7  1  0
 14 15  2  0
 16 17  1  0
 16 14  1  0
 17 20  1  0
 17 18  1  1
 19 18  1  0
 20 22  2  0
 20 21  1  0
M  END
$$$$
