MTC.pdb
     RDKit          3D

 22 21  0  0  1  0  0  0  0  0999 V2000
    7.1015  -11.4082   26.6676 C   0  0  0  0  0  0  0  0  0  0  0  0
    5.7687  -12.6241   26.7173 S   0  0  0  0  0  0  0  0  0  0  0  0
    6.4080  -14.1349   27.4891 C   0  0  0  0  0  0  0  0  0  0  0  0
    7.3633  -14.8500   26.5568 C   0  0  0  0  0  0  0  0  0  0  0  0
    6.5805  -15.7057   25.5841 C   0  0  2  0  0  0  0  0  0  0  0  0
    6.0498  -16.8824   26.2282 N   0  0  0  0  0  0  0  0  0  0  0  0
    7.4516  -16.1336   24.4538 C   0  0  0  0  0  0  0  0  0  0  0  0
    8.1717  -17.1476   24.5322 O   0  0  0  0  0  0  0  0  0  0  0  0
    7.7761  -13.5150   21.2012 C   0  0  0  0  0  0  0  0  0  0  0  0
    7.8047  -14.9790   20.9260 C   0  0  1  0  0  0  0  0  0  0  0  0
    8.5405  -15.2994   19.7814 O   0  0  0  0  0  0  0  0  0  0  0  0
    8.3085  -15.7896   22.1034 C   0  0  2  0  0  0  0  0  0  0  0  0
    7.4815  -15.3878   23.2496 N   0  0  0  0  0  0  0  0  0  0  0  0
    9.7025  -15.4486   22.4499 C   0  0  0  0  0  0  0  0  0  0  0  0
   10.0073  -14.4697   23.2132 O   0  0  0  0  0  0  0  0  0  0  0  0
   10.8261  -16.1835   21.9613 N   0  0  0  0  0  0  0  0  0  0  0  0
   12.0925  -16.1981   22.6099 C   0  0  1  0  0  0  0  0  0  0  0  0
   12.0924  -16.8704   23.9551 C   0  0  0  0  0  0  0  0  0  0  0  0
   11.5566  -15.6228   25.1826 S   0  0  0  0  0  0  0  0  0  0  0  0
   13.1156  -16.7666   21.6997 C   0  0  0  0  0  0  0  0  0  0  0  0
   14.4409  -16.7976   22.1058 O   0  0  0  0  0  0  0  0  0  0  0  0
   12.8483  -17.2291   20.5642 O   0  0  0  0  0  0  0  0  0  0  0  0
  2  1  1  0
  3  4  1  0
  3  2  1  0
  4  5  1  0
  5  7  1  0
  5  6  1  1
  7  8  2  0
 10  9  1  1
 10 12  1  0
 11 10  1  0
 12 14  1  0
 12 13  1  1
 13  7  1  0
 14 15  2  0
 16 17  1  0
 16 14  1  0
 17 20  1  0
 17 18  1  1
 19 18  1  0
 20 22  2  0
 20 21  1  0
M  END
$$$$
