MTC.pdb
     RDKit          3D

 22 21  0  0  1  0  0  0  0  0999 V2000
    1.3782  -26.1706   27.4909 C   0  0  0  0  0  0  0  0  0  0  0  0
    0.8769  -27.2447   26.1300 S   0  0  0  0  0  0  0  0  0  0  0  0
   -0.8914  -26.9856   25.8250 C   0  0  0  0  0  0  0  0  0  0  0  0
   -1.5100  -26.1561   26.9305 C   0  0  0  0  0  0  0  0  0  0  0  0
   -2.9861  -25.9624   26.6567 C   0  0  2  0  0  0  0  0  0  0  0  0
   -3.2390  -25.7705   25.2494 N   0  0  0  0  0  0  0  0  0  0  0  0
   -3.4992  -24.7768   27.3987 C   0  0  0  0  0  0  0  0  0  0  0  0
   -3.1892  -24.5662   28.5872 O   0  0  0  0  0  0  0  0  0  0  0  0
   -3.7819  -21.0919   25.8734 C   0  0  0  0  0  0  0  0  0  0  0  0
   -5.0766  -21.6084   26.3995 C   0  0  1  0  0  0  0  0  0  0  0  0
   -5.9193  -22.0829   25.3901 O   0  0  0  0  0  0  0  0  0  0  0  0
   -4.8970  -22.6747   27.4616 C   0  0  2  0  0  0  0  0  0  0  0  0
   -4.3620  -23.8509   26.7620 N   0  0  0  0  0  0  0  0  0  0  0  0
   -6.1864  -23.0861   28.0516 C   0  0  0  0  0  0  0  0  0  0  0  0
   -6.9534  -23.9512   27.5065 O   0  0  0  0  0  0  0  0  0  0  0  0
   -6.6838  -22.5521   29.2798 N   0  0  0  0  0  0  0  0  0  0  0  0
   -7.9277  -22.9382   29.8530 C   0  0  1  0  0  0  0  0  0  0  0  0
   -7.8467  -24.1325   30.7634 C   0  0  0  0  0  0  0  0  0  0  0  0
   -6.5667  -23.7679   32.0201 S   0  0  0  0  0  0  0  0  0  0  0  0
   -8.5586  -21.7711   30.5150 C   0  0  0  0  0  0  0  0  0  0  0  0
   -9.8579  -21.8806   30.9864 O   0  0  0  0  0  0  0  0  0  0  0  0
   -7.9762  -20.6713   30.6765 O   0  0  0  0  0  0  0  0  0  0  0  0
  2  1  1  0
  3  4  1  0
  3  2  1  0
  4  5  1  0
  5  7  1  0
  5  6  1  6
  7  8  2  0
 10  9  1  6
 10 12  1  0
 11 10  1  0
 12 14  1  0
 12 13  1  6
 13  7  1  0
 14 15  2  0
 16 17  1  0
 16 14  1  0
 17 20  1  0
 17 18  1  1
 19 18  1  0
 20 22  2  0
 20 21  1  0
M  END
$$$$
