MTC.pdb
     RDKit          3D

 22 21  0  0  1  0  0  0  0  0999 V2000
    7.2419  -11.3547   26.4542 C   0  0  0  0  0  0  0  0  0  0  0  0
    6.0812  -12.6707   26.0327 S   0  0  0  0  0  0  0  0  0  0  0  0
    6.2754  -13.0555   24.2717 C   0  0  0  0  0  0  0  0  0  0  0  0
    7.7118  -13.4180   23.9576 C   0  0  0  0  0  0  0  0  0  0  0  0
    7.7510  -14.7159   23.1798 C   0  0  2  0  0  0  0  0  0  0  0  0
    6.4223  -15.1770   22.8589 N   0  0  0  0  0  0  0  0  0  0  0  0
    8.4436  -15.7722   23.9699 C   0  0  0  0  0  0  0  0  0  0  0  0
    7.8195  -16.5224   24.7449 O   0  0  0  0  0  0  0  0  0  0  0  0
   11.0321  -18.0591   22.2965 C   0  0  0  0  0  0  0  0  0  0  0  0
   11.6087  -17.5215   23.5608 C   0  0  1  0  0  0  0  0  0  0  0  0
   12.5403  -16.5031   23.3397 O   0  0  0  0  0  0  0  0  0  0  0  0
   10.5497  -17.0456   24.5351 C   0  0  2  0  0  0  0  0  0  0  0  0
    9.8446  -15.9495   23.8566 N   0  0  0  0  0  0  0  0  0  0  0  0
   11.1454  -16.4703   25.7574 C   0  0  0  0  0  0  0  0  0  0  0  0
   12.1297  -15.6554   25.7312 O   0  0  0  0  0  0  0  0  0  0  0  0
   10.6718  -16.7763   27.0701 N   0  0  0  0  0  0  0  0  0  0  0  0
   11.4175  -16.5088   28.2521 C   0  0  1  0  0  0  0  0  0  0  0  0
   10.8303  -15.4348   29.1259 C   0  0  0  0  0  0  0  0  0  0  0  0
   10.1449  -14.1504   28.0164 S   0  0  0  0  0  0  0  0  0  0  0  0
   11.6494  -17.7707   28.9951 C   0  0  0  0  0  0  0  0  0  0  0  0
   12.3828  -17.7390   30.1713 O   0  0  0  0  0  0  0  0  0  0  0  0
   11.2139  -18.8848   28.6157 O   0  0  0  0  0  0  0  0  0  0  0  0
  2  1  1  0
  3  4  1  0
  3  2  1  0
  4  5  1  0
  5  7  1  0
  5  6  1  1
  7  8  2  0
 10  9  1  6
 10 12  1  0
 11 10  1  0
 12 14  1  0
 12 13  1  6
 13  7  1  0
 14 15  2  0
 16 17  1  0
 16 14  1  0
 17 20  1  0
 17 18  1  1
 19 18  1  0
 20 22  2  0
 20 21  1  0
M  END
$$$$
