MTC.pdb
     RDKit          3D

 22 21  0  0  1  0  0  0  0  0999 V2000
    6.8126  -10.9601   25.6636 C   0  0  0  0  0  0  0  0  0  0  0  0
    6.0519  -12.0938   26.8440 S   0  0  0  0  0  0  0  0  0  0  0  0
    5.7940  -13.6858   26.0156 C   0  0  0  0  0  0  0  0  0  0  0  0
    6.9038  -13.9589   25.0221 C   0  0  0  0  0  0  0  0  0  0  0  0
    6.7084  -15.3266   24.4038 C   0  0  2  0  0  0  0  0  0  0  0  0
    5.5486  -15.9892   24.9486 N   0  0  0  0  0  0  0  0  0  0  0  0
    7.9039  -16.1812   24.6489 C   0  0  0  0  0  0  0  0  0  0  0  0
    7.9758  -16.9346   25.6389 O   0  0  0  0  0  0  0  0  0  0  0  0
    9.9143  -17.6411   21.5108 C   0  0  0  0  0  0  0  0  0  0  0  0
   10.8280  -17.1111   22.5616 C   0  0  1  0  0  0  0  0  0  0  0  0
   11.3791  -15.8718   22.2235 O   0  0  0  0  0  0  0  0  0  0  0  0
   10.1708  -17.0258   23.9247 C   0  0  2  0  0  0  0  0  0  0  0  0
    8.9995  -16.1558   23.7510 N   0  0  0  0  0  0  0  0  0  0  0  0
   11.0431  -16.3647   24.9156 C   0  0  0  0  0  0  0  0  0  0  0  0
   11.3252  -15.1190   24.8687 O   0  0  0  0  0  0  0  0  0  0  0  0
   11.6441  -17.0616   26.0085 N   0  0  0  0  0  0  0  0  0  0  0  0
   11.8358  -16.4826   27.2940 C   0  0  1  0  0  0  0  0  0  0  0  0
   10.6054  -15.8427   27.8756 C   0  0  0  0  0  0  0  0  0  0  0  0
   11.0847  -15.1135   29.4845 S   0  0  0  0  0  0  0  0  0  0  0  0
   12.4332  -17.4832   28.2107 C   0  0  0  0  0  0  0  0  0  0  0  0
   13.5219  -17.1227   28.9899 O   0  0  0  0  0  0  0  0  0  0  0  0
   12.0044  -18.6571   28.3248 O   0  0  0  0  0  0  0  0  0  0  0  0
  2  1  1  0
  3  4  1  0
  3  2  1  0
  4  5  1  0
  5  7  1  0
  5  6  1  1
  7  8  2  0
 10  9  1  6
 10 12  1  0
 11 10  1  0
 12 14  1  0
 12 13  1  6
 13  7  1  0
 14 15  2  0
 16 17  1  0
 16 14  1  0
 17 20  1  0
 17 18  1  1
 19 18  1  0
 20 22  2  0
 20 21  1  0
M  END
$$$$
