MTC.pdb
     RDKit          3D

 22 21  0  0  1  0  0  0  0  0999 V2000
    6.8225  -10.4156   25.9723 C   0  0  0  0  0  0  0  0  0  0  0  0
    6.3830  -11.5796   27.2796 S   0  0  0  0  0  0  0  0  0  0  0  0
    5.8089  -13.1140   26.5031 C   0  0  0  0  0  0  0  0  0  0  0  0
    6.9775  -13.9106   25.9618 C   0  0  0  0  0  0  0  0  0  0  0  0
    6.4641  -15.1033   25.1840 C   0  0  2  0  0  0  0  0  0  0  0  0
    5.7944  -16.0453   26.0473 N   0  0  0  0  0  0  0  0  0  0  0  0
    7.5902  -15.8001   24.5015 C   0  0  0  0  0  0  0  0  0  0  0  0
    8.1828  -16.7588   25.0332 O   0  0  0  0  0  0  0  0  0  0  0  0
    7.5515  -15.5411   20.4982 C   0  0  0  0  0  0  0  0  0  0  0  0
    8.9418  -15.5891   21.0317 C   0  0  1  0  0  0  0  0  0  0  0  0
    9.5859  -14.3497   20.9738 O   0  0  0  0  0  0  0  0  0  0  0  0
    9.0124  -16.1386   22.4425 C   0  0  2  0  0  0  0  0  0  0  0  0
    8.0181  -15.3831   23.2169 N   0  0  0  0  0  0  0  0  0  0  0  0
   10.3228  -15.8764   23.0701 C   0  0  0  0  0  0  0  0  0  0  0  0
   10.6319  -14.7472   23.5831 O   0  0  0  0  0  0  0  0  0  0  0  0
   11.3536  -16.8619   23.1563 N   0  0  0  0  0  0  0  0  0  0  0  0
   12.5634  -16.6663   23.8794 C   0  0  1  0  0  0  0  0  0  0  0  0
   12.9873  -17.8467   24.7093 C   0  0  0  0  0  0  0  0  0  0  0  0
   11.7297  -18.0641   26.0214 S   0  0  0  0  0  0  0  0  0  0  0  0
   13.6329  -16.2181   22.9556 C   0  0  0  0  0  0  0  0  0  0  0  0
   14.8879  -15.9223   23.4654 O   0  0  0  0  0  0  0  0  0  0  0  0
   13.4666  -16.0884   21.7185 O   0  0  0  0  0  0  0  0  0  0  0  0
  2  1  1  0
  3  4  1  0
  3  2  1  0
  4  5  1  0
  5  7  1  0
  5  6  1  1
  7  8  2  0
 10  9  1  1
 10 12  1  0
 11 10  1  0
 12 14  1  0
 12 13  1  1
 13  7  1  0
 14 15  2  0
 16 17  1  0
 16 14  1  0
 17 20  1  0
 17 18  1  6
 19 18  1  0
 20 22  2  0
 20 21  1  0
M  END
$$$$
