MTC.pdb
     RDKit          3D

 22 21  0  0  1  0  0  0  0  0999 V2000
    7.9418  -11.8085   26.7967 C   0  0  0  0  0  0  0  0  0  0  0  0
    6.1721  -11.9774   26.4856 S   0  0  0  0  0  0  0  0  0  0  0  0
    5.9041  -13.5083   25.5522 C   0  0  0  0  0  0  0  0  0  0  0  0
    7.1634  -14.3489   25.5283 C   0  0  0  0  0  0  0  0  0  0  0  0
    6.9648  -15.5378   24.6128 C   0  0  2  0  0  0  0  0  0  0  0  0
    5.8100  -16.3116   24.9988 N   0  0  0  0  0  0  0  0  0  0  0  0
    8.1631  -16.4223   24.6453 C   0  0  0  0  0  0  0  0  0  0  0  0
    8.2344  -17.3968   25.4187 O   0  0  0  0  0  0  0  0  0  0  0  0
   10.1389  -17.3778   21.3474 C   0  0  0  0  0  0  0  0  0  0  0  0
   11.0650  -16.9005   22.4123 C   0  0  1  0  0  0  0  0  0  0  0  0
   11.5163  -15.5960   22.1912 O   0  0  0  0  0  0  0  0  0  0  0  0
   10.4699  -17.0090   23.8021 C   0  0  2  0  0  0  0  0  0  0  0  0
    9.2624  -16.1720   23.7873 N   0  0  0  0  0  0  0  0  0  0  0  0
   11.3644  -16.4397   24.8295 C   0  0  0  0  0  0  0  0  0  0  0  0
   12.0105  -15.3501   24.6591 O   0  0  0  0  0  0  0  0  0  0  0  0
   11.5821  -17.0586   26.0987 N   0  0  0  0  0  0  0  0  0  0  0  0
   11.6616  -16.3316   27.3193 C   0  0  1  0  0  0  0  0  0  0  0  0
   10.5565  -15.3313   27.5184 C   0  0  0  0  0  0  0  0  0  0  0  0
   10.8389  -14.5297   29.1395 S   0  0  0  0  0  0  0  0  0  0  0  0
   11.7755  -17.2745   28.4579 C   0  0  0  0  0  0  0  0  0  0  0  0
   10.9876  -18.4153   28.4738 O   0  0  0  0  0  0  0  0  0  0  0  0
   12.5559  -17.0979   29.4246 O   0  0  0  0  0  0  0  0  0  0  0  0
  2  1  1  0
  3  4  1  0
  3  2  1  0
  4  5  1  0
  5  7  1  0
  5  6  1  1
  7  8  2  0
 10  9  1  6
 10 12  1  0
 11 10  1  0
 12 14  1  0
 12 13  1  6
 13  7  1  0
 14 15  2  0
 16 17  1  0
 16 14  1  0
 17 20  1  0
 17 18  1  1
 19 18  1  0
 20 22  2  0
 20 21  1  0
M  END
$$$$
