NPC.pdb
     RDKit          3D

 22 22  0  0  1  0  0  0  0  0999 V2000
   24.5167  -19.8177  -15.1164 N   0  0  0  0  0  0  0  0  0  0  0  0
   24.0665  -19.2052  -13.9030 C   0  0  0  0  0  0  0  0  0  0  0  0
   23.0272  -18.4766  -13.9012 O   0  0  0  0  0  0  0  0  0  0  0  0
   24.8320  -19.4372  -12.6493 C   0  0  0  0  0  0  0  0  0  0  0  0
   25.3242  -20.8814  -12.5893 C   0  0  2  0  0  0  0  0  0  0  0  0
   24.1427  -21.7406  -12.8529 N   0  0  0  0  0  0  0  0  0  0  0  0
   25.8467  -21.2196  -11.2511 C   0  0  0  0  0  0  0  0  0  0  0  0
   25.0114  -21.3587  -10.3374 O   0  0  0  0  0  0  0  0  0  0  0  0
   27.2156  -21.3870  -10.9758 N   0  0  0  0  0  0  0  0  0  0  0  0
   28.1380  -21.8452  -12.0449 C   0  0  0  0  0  0  0  0  0  0  0  0
   29.4687  -21.2021  -11.7429 C   0  0  0  0  0  0  0  0  0  0  0  0
   29.2396  -20.4199  -10.4730 C   0  0  0  0  0  0  0  0  0  0  0  0
   28.0680  -21.2366   -9.8582 C   0  0  1  0  0  0  0  0  0  0  0  0
   27.6273  -20.4919   -8.6984 C   0  0  0  0  0  0  0  0  0  0  0  0
   27.2213  -19.3228   -8.7485 O   0  0  0  0  0  0  0  0  0  0  0  0
   27.6290  -21.0655   -7.3665 N   0  0  0  0  0  0  0  0  0  0  0  0
   27.5898  -20.2747   -6.1804 C   0  0  1  0  0  0  0  0  0  0  0  0
   27.7230  -21.1039   -4.8914 C   0  0  0  0  0  0  0  0  0  0  0  0
   27.6719  -19.8707   -3.5365 S   0  0  0  0  0  0  0  0  0  0  0  0
   28.7489  -19.3518   -6.1705 C   0  0  0  0  0  0  0  0  0  0  0  0
   29.8582  -19.7565   -6.5853 O   0  0  0  0  0  0  0  0  0  0  0  0
   28.6875  -18.0313   -5.7194 O   0  0  0  0  0  0  0  0  0  0  0  0
  1  2  1  0
  2  3  2  0
  4  2  1  0
  4  5  1  0
  5  6  1  1
  7  5  1  0
  7  8  2  0
  9  7  1  0
 10  9  1  0
 11 10  1  0
 11 12  1  0
 12 13  1  0
 13  9  1  0
 13 14  1  1
 15 14  2  0
 16 14  1  0
 17 20  1  0
 17 16  1  0
 17 18  1  1
 19 18  1  0
 20 22  1  0
 21 20  2  0
M  END
$$$$
