NPC.pdb
     RDKit          3D

 22 22  0  0  1  0  0  0  0  0999 V2000
-3141.2358 -657.5187 3087.8796 N   0  0  0  0  0  0  0  0  0  0  0  0
-3139.8501 -657.2830 3088.1548 C   0  0  0  0  0  0  0  0  0  0  0  0
-3138.9810 -657.4278 3087.2407 O   0  0  0  0  0  0  0  0  0  0  0  0
-3139.4480 -656.8651 3089.5234 C   0  0  0  0  0  0  0  0  0  0  0  0
-3139.2524 -655.3513 3089.5806 C   0  0  2  0  0  0  0  0  0  0  0  0
-3138.4929 -655.0698 3090.8235 N   0  0  0  0  0  0  0  0  0  0  0  0
-3140.5457 -654.6435 3089.6641 C   0  0  0  0  0  0  0  0  0  0  0  0
-3140.5635 -653.4538 3089.2949 O   0  0  0  0  0  0  0  0  0  0  0  0
-3141.7268 -655.2449 3090.1331 N   0  0  0  0  0  0  0  0  0  0  0  0
-3141.7400 -656.6893 3090.4763 C   0  0  0  0  0  0  0  0  0  0  0  0
-3142.7424 -656.8370 3091.5935 C   0  0  0  0  0  0  0  0  0  0  0  0
-3143.2837 -655.4457 3091.8127 C   0  0  0  0  0  0  0  0  0  0  0  0
-3143.0554 -654.8391 3090.3992 C   0  0  1  0  0  0  0  0  0  0  0  0
-3143.3811 -653.4337 3090.5098 C   0  0  0  0  0  0  0  0  0  0  0  0
-3143.4775 -652.8358 3091.5898 O   0  0  0  0  0  0  0  0  0  0  0  0
-3143.6255 -652.6043 3089.3457 N   0  0  0  0  0  0  0  0  0  0  0  0
-3144.7307 -652.8054 3088.4670 C   0  0  1  0  0  0  0  0  0  0  0  0
-3145.0303 -651.5865 3087.5776 C   0  0  0  0  0  0  0  0  0  0  0  0
-3145.3918 -650.2286 3088.7549 S   0  0  0  0  0  0  0  0  0  0  0  0
-3144.4119 -653.9044 3087.5247 C   0  0  0  0  0  0  0  0  0  0  0  0
-3145.1521 -654.9124 3087.4856 O   0  0  0  0  0  0  0  0  0  0  0  0
-3143.3162 -653.8922 3086.6582 O   0  0  0  0  0  0  0  0  0  0  0  0
  1  2  1  0
  2  3  2  0
  4  2  1  0
  4  5  1  0
  5  6  1  1
  7  5  1  0
  7  8  2  0
  9  7  1  0
 10  9  1  0
 11 10  1  0
 11 12  1  0
 12 13  1  0
 13  9  1  0
 13 14  1  1
 15 14  2  0
 16 14  1  0
 17 20  1  0
 17 16  1  0
 17 18  1  6
 19 18  1  0
 20 22  1  0
 21 20  2  0
M  END
$$$$
