NPC.pdb
     RDKit          3D

 22 22  0  0  1  0  0  0  0  0999 V2000
   19.4939  -16.5510  -19.5561 N   0  0  0  0  0  0  0  0  0  0  0  0
   20.0548  -15.2778  -19.8945 C   0  0  0  0  0  0  0  0  0  0  0  0
   20.4179  -15.0349  -21.0863 O   0  0  0  0  0  0  0  0  0  0  0  0
   20.2029  -14.2480  -18.8320 C   0  0  0  0  0  0  0  0  0  0  0  0
   21.6806  -13.9669  -18.5695 C   0  0  2  0  0  0  0  0  0  0  0  0
   22.2471  -15.2062  -17.9805 N   0  0  0  0  0  0  0  0  0  0  0  0
   21.8584  -12.8737  -17.5942 C   0  0  0  0  0  0  0  0  0  0  0  0
   21.0925  -12.8633  -16.6118 O   0  0  0  0  0  0  0  0  0  0  0  0
   22.8344  -11.8701  -17.7280 N   0  0  0  0  0  0  0  0  0  0  0  0
   24.1016  -12.1569  -18.4462 C   0  0  0  0  0  0  0  0  0  0  0  0
   24.5160  -10.8542  -19.0842 C   0  0  0  0  0  0  0  0  0  0  0  0
   23.4586   -9.8642  -18.6614 C   0  0  0  0  0  0  0  0  0  0  0  0
   22.9864  -10.5212  -17.3336 C   0  0  1  0  0  0  0  0  0  0  0  0
   21.8402   -9.7550  -16.8945 C   0  0  0  0  0  0  0  0  0  0  0  0
   20.8133   -9.6091  -17.5715 O   0  0  0  0  0  0  0  0  0  0  0  0
   21.8056   -9.0866  -15.6080 N   0  0  0  0  0  0  0  0  0  0  0  0
   20.6843   -8.3302  -15.1558 C   0  0  1  0  0  0  0  0  0  0  0  0
   20.5902   -8.2386  -13.6230 C   0  0  0  0  0  0  0  0  0  0  0  0
   19.0877   -7.2376  -13.3072 S   0  0  0  0  0  0  0  0  0  0  0  0
   20.8202   -6.9301  -15.6213 C   0  0  0  0  0  0  0  0  0  0  0  0
   21.9561   -6.4065  -15.6658 O   0  0  0  0  0  0  0  0  0  0  0  0
   19.7434   -6.1362  -16.0226 O   0  0  0  0  0  0  0  0  0  0  0  0
  1  2  1  0
  2  3  2  0
  4  2  1  0
  4  5  1  0
  5  6  1  1
  7  5  1  0
  7  8  2  0
  9  7  1  0
 10  9  1  0
 11 10  1  0
 11 12  1  0
 12 13  1  0
 13  9  1  0
 13 14  1  6
 15 14  2  0
 16 14  1  0
 17 20  1  0
 17 16  1  0
 17 18  1  1
 19 18  1  0
 20 22  1  0
 21 20  2  0
M  END
$$$$
