NPC.pdb
     RDKit          3D

 22 22  0  0  1  0  0  0  0  0999 V2000
   32.3007  -25.1626  -15.1615 N   0  0  0  0  0  0  0  0  0  0  0  0
   30.9492  -25.1023  -15.6303 C   0  0  0  0  0  0  0  0  0  0  0  0
   30.3976  -23.9805  -15.8507 O   0  0  0  0  0  0  0  0  0  0  0  0
   30.2055  -26.3701  -15.8560 C   0  0  0  0  0  0  0  0  0  0  0  0
   29.4070  -26.2913  -17.1552 C   0  0  2  0  0  0  0  0  0  0  0  0
   28.2502  -25.4008  -16.8853 N   0  0  0  0  0  0  0  0  0  0  0  0
   28.8843  -27.6138  -17.5500 C   0  0  0  0  0  0  0  0  0  0  0  0
   28.0490  -28.1405  -16.7905 O   0  0  0  0  0  0  0  0  0  0  0  0
   29.2825  -28.2839  -18.7205 N   0  0  0  0  0  0  0  0  0  0  0  0
   29.6612  -27.5084  -19.9284 C   0  0  0  0  0  0  0  0  0  0  0  0
   30.7074  -28.3340  -20.6353 C   0  0  0  0  0  0  0  0  0  0  0  0
   30.8508  -29.5779  -19.7932 C   0  0  0  0  0  0  0  0  0  0  0  0
   29.4422  -29.6255  -19.1363 C   0  0  1  0  0  0  0  0  0  0  0  0
   29.4928  -30.6918  -18.1595 C   0  0  0  0  0  0  0  0  0  0  0  0
   30.2590  -30.6939  -17.1864 O   0  0  0  0  0  0  0  0  0  0  0  0
   28.6380  -31.8600  -18.2473 N   0  0  0  0  0  0  0  0  0  0  0  0
   28.6070  -32.8764  -17.2474 C   0  0  1  0  0  0  0  0  0  0  0  0
   27.1948  -33.1512  -16.7026 C   0  0  0  0  0  0  0  0  0  0  0  0
   26.7853  -31.6716  -15.7015 S   0  0  0  0  0  0  0  0  0  0  0  0
   29.0510  -34.1592  -17.8414 C   0  0  0  0  0  0  0  0  0  0  0  0
   29.1617  -34.2532  -19.0845 O   0  0  0  0  0  0  0  0  0  0  0  0
   29.3612  -35.2966  -17.0925 O   0  0  0  0  0  0  0  0  0  0  0  0
  1  2  1  0
  2  3  2  0
  4  2  1  0
  4  5  1  0
  5  6  1  1
  7  5  1  0
  7  8  2  0
  9  7  1  0
 10  9  1  0
 11 10  1  0
 11 12  1  0
 12 13  1  0
 13  9  1  0
 13 14  1  1
 15 14  2  0
 16 14  1  0
 17 20  1  0
 17 16  1  0
 17 18  1  6
 19 18  1  0
 20 22  1  0
 21 20  2  0
M  END
$$$$
