NPC.pdb
     RDKit          3D

 22 22  0  0  1  0  0  0  0  0999 V2000
   23.9526  -21.7699   -8.8618 N   0  0  0  0  0  0  0  0  0  0  0  0
   23.1132  -21.1553   -9.8456 C   0  0  0  0  0  0  0  0  0  0  0  0
   21.8504  -21.1903   -9.7215 O   0  0  0  0  0  0  0  0  0  0  0  0
   23.7421  -20.4761  -11.0095 C   0  0  0  0  0  0  0  0  0  0  0  0
   25.2387  -20.7760  -11.0521 C   0  0  2  0  0  0  0  0  0  0  0  0
   25.7462  -20.5848   -9.6701 N   0  0  0  0  0  0  0  0  0  0  0  0
   25.9539  -19.8357  -11.9365 C   0  0  0  0  0  0  0  0  0  0  0  0
   25.7251  -18.6221  -11.7734 O   0  0  0  0  0  0  0  0  0  0  0  0
   26.8604  -20.2469  -12.9299 N   0  0  0  0  0  0  0  0  0  0  0  0
   27.7526  -21.4083  -12.6868 C   0  0  0  0  0  0  0  0  0  0  0  0
   27.9665  -22.0511  -14.0347 C   0  0  0  0  0  0  0  0  0  0  0  0
   27.1950  -21.1863  -15.0012 C   0  0  0  0  0  0  0  0  0  0  0  0
   27.2177  -19.8341  -14.2338 C   0  0  1  0  0  0  0  0  0  0  0  0
   26.3584  -18.9384  -14.9775 C   0  0  0  0  0  0  0  0  0  0  0  0
   25.1418  -19.1196  -15.1232 O   0  0  0  0  0  0  0  0  0  0  0  0
   26.8640  -17.7415  -15.6215 N   0  0  0  0  0  0  0  0  0  0  0  0
   26.0269  -16.8252  -16.3241 C   0  0  1  0  0  0  0  0  0  0  0  0
   26.4273  -15.3541  -16.1179 C   0  0  0  0  0  0  0  0  0  0  0  0
   26.2718  -15.0775  -14.3128 S   0  0  0  0  0  0  0  0  0  0  0  0
   26.1575  -17.0631  -17.7807 C   0  0  0  0  0  0  0  0  0  0  0  0
   27.2199  -17.5492  -18.2296 O   0  0  0  0  0  0  0  0  0  0  0  0
   25.1539  -16.7754  -18.7086 O   0  0  0  0  0  0  0  0  0  0  0  0
  1  2  1  0
  2  3  2  0
  4  2  1  0
  4  5  1  0
  5  6  1  1
  7  5  1  0
  7  8  2  0
  9  7  1  0
 10  9  1  0
 11 10  1  0
 11 12  1  0
 12 13  1  0
 13  9  1  0
 13 14  1  6
 15 14  2  0
 16 14  1  0
 17 20  1  0
 17 16  1  0
 17 18  1  6
 19 18  1  0
 20 22  1  0
 21 20  2  0
M  END
$$$$
