NPC.pdb
     RDKit          3D

 22 22  0  0  1  0  0  0  0  0999 V2000
   27.2853  -23.8994   11.8578 N   0  0  0  0  0  0  0  0  0  0  0  0
   28.4361  -23.7684   12.6997 C   0  0  0  0  0  0  0  0  0  0  0  0
   28.3008  -23.6728   13.9581 O   0  0  0  0  0  0  0  0  0  0  0  0
   29.7871  -23.7484   12.0787 C   0  0  0  0  0  0  0  0  0  0  0  0
   29.6727  -23.8450   10.5591 C   0  0  2  0  0  0  0  0  0  0  0  0
   29.1587  -25.2054   10.2609 N   0  0  0  0  0  0  0  0  0  0  0  0
   30.9887  -23.6997    9.9071 C   0  0  0  0  0  0  0  0  0  0  0  0
   31.7612  -24.6749    9.9710 O   0  0  0  0  0  0  0  0  0  0  0  0
   31.3928  -22.5330    9.2338 N   0  0  0  0  0  0  0  0  0  0  0  0
   30.3832  -21.6719    8.5682 C   0  0  0  0  0  0  0  0  0  0  0  0
   30.9197  -20.2648    8.6589 C   0  0  0  0  0  0  0  0  0  0  0  0
   32.2498  -20.4036    9.3578 C   0  0  0  0  0  0  0  0  0  0  0  0
   32.6102  -21.8653    8.9688 C   0  0  1  0  0  0  0  0  0  0  0  0
   33.8027  -22.1957    9.7188 C   0  0  0  0  0  0  0  0  0  0  0  0
   33.8185  -22.3503   10.9476 O   0  0  0  0  0  0  0  0  0  0  0  0
   35.0923  -22.3721    9.0794 N   0  0  0  0  0  0  0  0  0  0  0  0
   36.2778  -22.7024    9.8002 C   0  0  1  0  0  0  0  0  0  0  0  0
   37.4079  -23.2341    8.9020 C   0  0  0  0  0  0  0  0  0  0  0  0
   38.7606  -23.6653   10.0610 S   0  0  0  0  0  0  0  0  0  0  0  0
   36.8244  -21.4769   10.4284 C   0  0  0  0  0  0  0  0  0  0  0  0
   36.6041  -20.3652    9.8973 O   0  0  0  0  0  0  0  0  0  0  0  0
   37.5863  -21.4769   11.5991 O   0  0  0  0  0  0  0  0  0  0  0  0
  1  2  1  0
  2  3  2  0
  4  2  1  0
  4  5  1  0
  5  6  1  1
  7  5  1  0
  7  8  2  0
  9  7  1  0
 10  9  1  0
 11 10  1  0
 11 12  1  0
 12 13  1  0
 13  9  1  0
 13 14  1  1
 15 14  2  0
 16 14  1  0
 17 20  1  0
 17 16  1  0
 17 18  1  6
 19 18  1  0
 20 22  1  0
 21 20  2  0
M  END
$$$$
