NPC.pdb
     RDKit          3D

 22 22  0  0  1  0  0  0  0  0999 V2000
   15.9789  -12.9584  -14.3290 N   0  0  0  0  0  0  0  0  0  0  0  0
   16.0924  -11.8034  -15.1676 C   0  0  0  0  0  0  0  0  0  0  0  0
   15.1490  -11.4904  -15.9569 O   0  0  0  0  0  0  0  0  0  0  0  0
   17.3277  -10.9784  -15.0977 C   0  0  0  0  0  0  0  0  0  0  0  0
   18.0094  -10.9294  -16.4632 C   0  0  2  0  0  0  0  0  0  0  0  0
   18.6391  -12.2582  -16.6677 N   0  0  0  0  0  0  0  0  0  0  0  0
   19.0738   -9.9079  -16.5001 C   0  0  0  0  0  0  0  0  0  0  0  0
   20.0268  -10.0567  -15.7117 O   0  0  0  0  0  0  0  0  0  0  0  0
   19.0539   -8.8023  -17.3690 N   0  0  0  0  0  0  0  0  0  0  0  0
   18.5168   -8.9485  -18.7453 C   0  0  0  0  0  0  0  0  0  0  0  0
   17.9167   -7.6096  -19.0964 C   0  0  0  0  0  0  0  0  0  0  0  0
   18.1765   -6.7422  -17.8893 C   0  0  0  0  0  0  0  0  0  0  0  0
   19.4408   -7.4437  -17.3173 C   0  0  1  0  0  0  0  0  0  0  0  0
   19.7089   -6.8085  -16.0451 C   0  0  0  0  0  0  0  0  0  0  0  0
   18.9002   -6.7846  -15.1073 O   0  0  0  0  0  0  0  0  0  0  0  0
   20.9645   -6.1386  -15.7664 N   0  0  0  0  0  0  0  0  0  0  0  0
   21.2314   -5.4700  -14.5353 C   0  0  1  0  0  0  0  0  0  0  0  0
   22.5069   -5.9699  -13.8354 C   0  0  0  0  0  0  0  0  0  0  0  0
   22.6179   -4.9732  -12.3013 S   0  0  0  0  0  0  0  0  0  0  0  0
   21.4724   -4.0327  -14.8025 C   0  0  0  0  0  0  0  0  0  0  0  0
   22.0138   -3.6916  -15.8781 O   0  0  0  0  0  0  0  0  0  0  0  0
   21.1295   -3.0090  -13.9164 O   0  0  0  0  0  0  0  0  0  0  0  0
  1  2  1  0
  2  3  2  0
  4  2  1  0
  4  5  1  0
  5  6  1  1
  7  5  1  0
  7  8  2  0
  9  7  1  0
 10  9  1  0
 11 10  1  0
 11 12  1  0
 12 13  1  0
 13  9  1  0
 13 14  1  1
 15 14  2  0
 16 14  1  0
 17 20  1  0
 17 16  1  0
 17 18  1  6
 19 18  1  0
 20 22  1  0
 21 20  2  0
M  END
$$$$
