NPC.pdb
     RDKit          3D

 22 22  0  0  1  0  0  0  0  0999 V2000
   26.9159  -21.6127  -20.0136 N   0  0  0  0  0  0  0  0  0  0  0  0
   25.9899  -22.3017  -19.1663 C   0  0  0  0  0  0  0  0  0  0  0  0
   24.9472  -22.8338  -19.6570 O   0  0  0  0  0  0  0  0  0  0  0  0
   26.2693  -22.3854  -17.7081 C   0  0  0  0  0  0  0  0  0  0  0  0
   27.6198  -21.7476  -17.3905 C   0  0  2  0  0  0  0  0  0  0  0  0
   28.6549  -22.7415  -17.7705 N   0  0  0  0  0  0  0  0  0  0  0  0
   27.7605  -21.4688  -15.9481 C   0  0  0  0  0  0  0  0  0  0  0  0
   28.0263  -22.4360  -15.2093 O   0  0  0  0  0  0  0  0  0  0  0  0
   27.6105  -20.1863  -15.3908 N   0  0  0  0  0  0  0  0  0  0  0  0
   28.0948  -18.9936  -16.1302 C   0  0  0  0  0  0  0  0  0  0  0  0
   27.1673  -17.8676  -15.7461 C   0  0  0  0  0  0  0  0  0  0  0  0
   26.2016  -18.4819  -14.7627 C   0  0  0  0  0  0  0  0  0  0  0  0
   27.0813  -19.6348  -14.2017 C   0  0  1  0  0  0  0  0  0  0  0  0
   26.2134  -20.4232  -13.3539 C   0  0  0  0  0  0  0  0  0  0  0  0
   25.3654  -21.2145  -13.7885 O   0  0  0  0  0  0  0  0  0  0  0  0
   26.2692  -20.3450  -11.9069 N   0  0  0  0  0  0  0  0  0  0  0  0
   25.3006  -20.9578  -11.0582 C   0  0  1  0  0  0  0  0  0  0  0  0
   25.5373  -20.6787   -9.5639 C   0  0  0  0  0  0  0  0  0  0  0  0
   27.2965  -21.1091   -9.2825 S   0  0  0  0  0  0  0  0  0  0  0  0
   23.9642  -20.3896  -11.3529 C   0  0  0  0  0  0  0  0  0  0  0  0
   23.8815  -19.3206  -11.9984 O   0  0  0  0  0  0  0  0  0  0  0  0
   22.7632  -20.9782  -10.9503 O   0  0  0  0  0  0  0  0  0  0  0  0
  1  2  1  0
  2  3  2  0
  4  2  1  0
  4  5  1  0
  5  6  1  1
  7  5  1  0
  7  8  2  0
  9  7  1  0
 10  9  1  0
 11 10  1  0
 11 12  1  0
 12 13  1  0
 13  9  1  0
 13 14  1  6
 15 14  2  0
 16 14  1  0
 17 20  1  0
 17 16  1  0
 17 18  1  1
 19 18  1  0
 20 22  1  0
 21 20  2  0
M  END
$$$$
