NPC.pdb
     RDKit          3D

 22 22  0  0  1  0  0  0  0  0999 V2000
   25.6422  -13.0745  -21.3082 N   0  0  0  0  0  0  0  0  0  0  0  0
   24.4702  -13.5503  -20.6374 C   0  0  0  0  0  0  0  0  0  0  0  0
   23.9814  -14.6846  -20.9300 O   0  0  0  0  0  0  0  0  0  0  0  0
   23.8383  -12.6985  -19.5951 C   0  0  0  0  0  0  0  0  0  0  0  0
   24.4345  -13.0096  -18.2242 C   0  0  2  0  0  0  0  0  0  0  0  0
   24.0420  -14.4043  -17.9007 N   0  0  0  0  0  0  0  0  0  0  0  0
   23.8818  -12.1247  -17.1804 C   0  0  0  0  0  0  0  0  0  0  0  0
   22.6498  -12.1644  -17.0008 O   0  0  0  0  0  0  0  0  0  0  0  0
   24.6726  -11.2616  -16.4010 N   0  0  0  0  0  0  0  0  0  0  0  0
   26.0459  -11.6650  -16.0069 C   0  0  0  0  0  0  0  0  0  0  0  0
   26.8420  -10.3862  -15.9248 C   0  0  0  0  0  0  0  0  0  0  0  0
   25.8529   -9.2946  -16.2521 C   0  0  0  0  0  0  0  0  0  0  0  0
   24.5308   -9.9846  -15.8118 C   0  0  1  0  0  0  0  0  0  0  0  0
   23.4621   -9.1025  -16.2284 C   0  0  0  0  0  0  0  0  0  0  0  0
   23.2099   -8.8435  -17.4130 O   0  0  0  0  0  0  0  0  0  0  0  0
   22.5912   -8.4418  -15.2755 N   0  0  0  0  0  0  0  0  0  0  0  0
   21.5464   -7.5526  -15.6652 C   0  0  1  0  0  0  0  0  0  0  0  0
   20.2858   -7.6750  -14.7919 C   0  0  0  0  0  0  0  0  0  0  0  0
   19.1583   -6.3717  -15.4159 S   0  0  0  0  0  0  0  0  0  0  0  0
   22.0053   -6.1545  -15.4916 C   0  0  0  0  0  0  0  0  0  0  0  0
   22.7717   -5.8742  -14.5426 O   0  0  0  0  0  0  0  0  0  0  0  0
   21.6328   -5.1038  -16.3331 O   0  0  0  0  0  0  0  0  0  0  0  0
  1  2  1  0
  2  3  2  0
  4  2  1  0
  4  5  1  0
  5  6  1  1
  7  5  1  0
  7  8  2  0
  9  7  1  0
 10  9  1  0
 11 10  1  0
 11 12  1  0
 12 13  1  0
 13  9  1  0
 13 14  1  6
 15 14  2  0
 16 14  1  0
 17 20  1  0
 17 16  1  0
 17 18  1  1
 19 18  1  0
 20 22  1  0
 21 20  2  0
M  END
$$$$
