NPC.pdb
     RDKit          3D

 22 22  0  0  1  0  0  0  0  0999 V2000
   25.2693  -24.2404  -13.6287 N   0  0  0  0  0  0  0  0  0  0  0  0
   24.6556  -22.9580  -13.7986 C   0  0  0  0  0  0  0  0  0  0  0  0
   24.4357  -22.5029  -14.9630 O   0  0  0  0  0  0  0  0  0  0  0  0
   24.2796  -22.1716  -12.5938 C   0  0  0  0  0  0  0  0  0  0  0  0
   25.5238  -21.5688  -11.9456 C   0  0  2  0  0  0  0  0  0  0  0  0
   25.2642  -21.5368  -10.4843 N   0  0  0  0  0  0  0  0  0  0  0  0
   25.7534  -20.1836  -12.4001 C   0  0  0  0  0  0  0  0  0  0  0  0
   24.9573  -19.3164  -11.9927 O   0  0  0  0  0  0  0  0  0  0  0  0
   26.8093  -19.8152  -13.2528 N   0  0  0  0  0  0  0  0  0  0  0  0
   28.0992  -20.5481  -13.1976 C   0  0  0  0  0  0  0  0  0  0  0  0
   28.6551  -20.5074  -14.5994 C   0  0  0  0  0  0  0  0  0  0  0  0
   27.6478  -19.7096  -15.3906 C   0  0  0  0  0  0  0  0  0  0  0  0
   27.0340  -18.8435  -14.2545 C   0  0  1  0  0  0  0  0  0  0  0  0
   25.9204  -18.1361  -14.8489 C   0  0  0  0  0  0  0  0  0  0  0  0
   24.8051  -18.6432  -15.0310 O   0  0  0  0  0  0  0  0  0  0  0  0
   26.0266  -16.7574  -15.2858 N   0  0  0  0  0  0  0  0  0  0  0  0
   24.9066  -15.9960  -15.7328 C   0  0  1  0  0  0  0  0  0  0  0  0
   24.6222  -14.7618  -14.8596 C   0  0  0  0  0  0  0  0  0  0  0  0
   23.1238  -14.0054  -15.5956 S   0  0  0  0  0  0  0  0  0  0  0  0
   25.1896  -15.4591  -17.0845 C   0  0  0  0  0  0  0  0  0  0  0  0
   26.2476  -14.8201  -17.2811 O   0  0  0  0  0  0  0  0  0  0  0  0
   24.3372  -15.6202  -18.1792 O   0  0  0  0  0  0  0  0  0  0  0  0
  1  2  1  0
  2  3  2  0
  4  2  1  0
  4  5  1  0
  5  6  1  1
  7  5  1  0
  7  8  2  0
  9  7  1  0
 10  9  1  0
 11 10  1  0
 11 12  1  0
 12 13  1  0
 13  9  1  0
 13 14  1  6
 15 14  2  0
 16 14  1  0
 17 20  1  0
 17 16  1  0
 17 18  1  1
 19 18  1  0
 20 22  1  0
 21 20  2  0
M  END
$$$$
