NPC.pdb
     RDKit          3D

 22 22  0  0  1  0  0  0  0  0999 V2000
   27.6141  -17.0535  -18.2954 N   0  0  0  0  0  0  0  0  0  0  0  0
   28.3869  -17.6995  -17.2777 C   0  0  0  0  0  0  0  0  0  0  0  0
   29.6479  -17.5586  -17.2455 O   0  0  0  0  0  0  0  0  0  0  0  0
   27.6908  -18.5332  -16.2619 C   0  0  0  0  0  0  0  0  0  0  0  0
   28.3700  -19.8953  -16.1396 C   0  0  2  0  0  0  0  0  0  0  0  0
   28.0974  -20.6174  -17.4078 N   0  0  0  0  0  0  0  0  0  0  0  0
   27.8008  -20.6860  -15.0312 C   0  0  0  0  0  0  0  0  0  0  0  0
   26.6330  -21.0963  -15.1717 O   0  0  0  0  0  0  0  0  0  0  0  0
   28.5083  -20.9865  -13.8535 N   0  0  0  0  0  0  0  0  0  0  0  0
   29.9503  -21.3333  -13.9210 C   0  0  0  0  0  0  0  0  0  0  0  0
   30.5529  -20.8367  -12.6303 C   0  0  0  0  0  0  0  0  0  0  0  0
   29.3933  -20.2490  -11.8642 C   0  0  0  0  0  0  0  0  0  0  0  0
   28.2215  -21.0708  -12.4719 C   0  0  1  0  0  0  0  0  0  0  0  0
   27.0079  -20.4885  -11.9411 C   0  0  0  0  0  0  0  0  0  0  0  0
   26.7217  -19.2879  -12.0446 O   0  0  0  0  0  0  0  0  0  0  0  0
   26.0182  -21.2782  -11.2339 N   0  0  0  0  0  0  0  0  0  0  0  0
   24.8249  -20.7197  -10.6880 C   0  0  1  0  0  0  0  0  0  0  0  0
   23.5431  -21.2726  -11.3345 C   0  0  0  0  0  0  0  0  0  0  0  0
   22.1763  -20.4022  -10.4781 S   0  0  0  0  0  0  0  0  0  0  0  0
   24.7262  -21.0846   -9.2553 C   0  0  0  0  0  0  0  0  0  0  0  0
   25.3139  -22.1094   -8.8419 O   0  0  0  0  0  0  0  0  0  0  0  0
   24.0059  -20.3470   -8.3130 O   0  0  0  0  0  0  0  0  0  0  0  0
  1  2  1  0
  2  3  2  0
  4  2  1  0
  4  5  1  0
  5  6  1  6
  7  5  1  0
  7  8  2  0
  9  7  1  0
 10  9  1  0
 11 10  1  0
 11 12  1  0
 12 13  1  0
 13  9  1  0
 13 14  1  6
 15 14  2  0
 16 14  1  0
 17 20  1  0
 17 16  1  0
 17 18  1  6
 19 18  1  0
 20 22  1  0
 21 20  2  0
M  END
$$$$
