NPC.pdb
     RDKit          3D

 22 22  0  0  1  0  0  0  0  0999 V2000
   24.8976  -20.5939  -18.3744 N   0  0  0  0  0  0  0  0  0  0  0  0
   24.9822  -21.7640  -17.5536 C   0  0  0  0  0  0  0  0  0  0  0  0
   24.1006  -21.9903  -16.6688 O   0  0  0  0  0  0  0  0  0  0  0  0
   26.1140  -22.7075  -17.7548 C   0  0  0  0  0  0  0  0  0  0  0  0
   27.4195  -22.0782  -17.2739 C   0  0  2  0  0  0  0  0  0  0  0  0
   28.4856  -23.0824  -17.5163 N   0  0  0  0  0  0  0  0  0  0  0  0
   27.3810  -21.7917  -15.8266 C   0  0  0  0  0  0  0  0  0  0  0  0
   27.3018  -22.7699  -15.0593 O   0  0  0  0  0  0  0  0  0  0  0  0
   27.4297  -20.4907  -15.2950 N   0  0  0  0  0  0  0  0  0  0  0  0
   28.1162  -19.4076  -16.0430 C   0  0  0  0  0  0  0  0  0  0  0  0
   27.3760  -18.1386  -15.7001 C   0  0  0  0  0  0  0  0  0  0  0  0
   26.3035  -18.5681  -14.7294 C   0  0  0  0  0  0  0  0  0  0  0  0
   26.9728  -19.8363  -14.1283 C   0  0  1  0  0  0  0  0  0  0  0  0
   25.9713  -20.4562  -13.2878 C   0  0  0  0  0  0  0  0  0  0  0  0
   24.9885  -21.0670  -13.7297 O   0  0  0  0  0  0  0  0  0  0  0  0
   26.0412  -20.4078  -11.8401 N   0  0  0  0  0  0  0  0  0  0  0  0
   25.0438  -20.9779  -10.9950 C   0  0  1  0  0  0  0  0  0  0  0  0
   25.1624  -20.5321   -9.5274 C   0  0  0  0  0  0  0  0  0  0  0  0
   26.9308  -20.7709   -9.1092 S   0  0  0  0  0  0  0  0  0  0  0  0
   23.7074  -20.5140  -11.4355 C   0  0  0  0  0  0  0  0  0  0  0  0
   23.6230  -19.5331  -12.2083 O   0  0  0  0  0  0  0  0  0  0  0  0
   22.5079  -21.1092  -11.0383 O   0  0  0  0  0  0  0  0  0  0  0  0
  1  2  1  0
  2  3  2  0
  4  2  1  0
  4  5  1  0
  5  6  1  1
  7  5  1  0
  7  8  2  0
  9  7  1  0
 10  9  1  0
 11 10  1  0
 11 12  1  0
 12 13  1  0
 13  9  1  0
 13 14  1  6
 15 14  2  0
 16 14  1  0
 17 20  1  0
 17 16  1  0
 17 18  1  1
 19 18  1  0
 20 22  1  0
 21 20  2  0
M  END
$$$$
