IGW.pdb
     RDKit          3D

 27 28  0  0  1  0  0  0  0  0999 V2000
   26.1024  -15.4014  -17.9587 C   0  0  0  0  0  0  0  0  0  0  0  0
   25.5931  -16.0715  -16.7073 C   0  0  0  0  0  0  0  0  0  0  0  0
   26.5386  -17.1653  -16.2207 C   0  0  2  0  0  0  0  0  0  0  0  0
   26.7444  -18.1496  -17.3179 C   0  0  0  0  0  0  0  0  0  0  0  0
   25.9688  -17.7213  -14.9478 C   0  0  2  0  0  0  0  0  0  0  0  0
   25.9779  -16.5981  -13.9932 N   0  0  0  0  0  0  0  0  0  0  0  0
   26.7051  -18.8461  -14.3726 C   0  0  0  0  0  0  0  0  0  0  0  0
   26.6038  -19.9961  -14.9214 O   0  0  0  0  0  0  0  0  0  0  0  0
   27.5460  -18.7912  -13.2341 N   0  0  0  0  0  0  0  0  0  0  0  0
   28.2380  -19.9508  -12.7056 C   0  0  0  0  0  0  0  0  0  0  0  0
   27.3365  -20.8150  -11.9040 C   0  0  0  0  0  0  0  0  0  0  0  0
   26.7113  -21.7810  -12.4085 O   0  0  0  0  0  0  0  0  0  0  0  0
   27.1787  -20.5363  -10.5216 N   0  0  0  0  0  0  0  0  0  0  0  0
   26.4316  -21.3454   -9.6122 C   0  0  1  0  0  0  0  0  0  0  0  0
   27.1918  -21.6592   -8.3440 C   0  0  0  0  0  0  0  0  0  0  0  0
   27.3765  -20.4247   -7.5415 C   0  0  0  0  0  0  0  0  0  0  0  0
   26.9439  -19.1405   -7.8197 C   0  0  0  0  0  0  0  0  0  0  0  0
   27.3228  -18.3109   -6.8278 N   0  0  0  0  0  0  0  0  0  0  0  0
   27.9899  -19.0042   -5.9062 C   0  0  0  0  0  0  0  0  0  0  0  0
   28.6034  -18.7164   -4.7040 C   0  0  0  0  0  0  0  0  0  0  0  0
   29.2365  -19.6761   -3.9448 C   0  0  0  0  0  0  0  0  0  0  0  0
   29.2830  -20.9734   -4.3592 C   0  0  0  0  0  0  0  0  0  0  0  0
   28.6692  -21.2865   -5.5714 C   0  0  0  0  0  0  0  0  0  0  0  0
   28.0373  -20.3346   -6.3314 C   0  0  0  0  0  0  0  0  0  0  0  0
   25.1039  -20.7665   -9.3403 C   0  0  0  0  0  0  0  0  0  0  0  0
   24.8372  -19.4866   -9.8163 O   0  0  0  0  0  0  0  0  0  0  0  0
   24.2482  -21.4288   -8.6928 O   0  0  0  0  0  0  0  0  0  0  0  0
  2  1  1  0
  3  2  1  0
  3  5  1  0
  3  4  1  6
  5  6  1  1
  7  5  1  0
  7  9  1  0
  8  7  2  0
 10  9  1  0
 11 10  1  0
 12 11  2  0
 13 11  1  0
 14 25  1  0
 14 13  1  0
 14 15  1  1
 16 15  1  0
 17 16  2  0
 18 19  1  0
 18 17  1  0
 19 24  2  0
 20 19  1  0
 20 21  2  0
 21 22  1  0
 22 23  2  0
 24 16  1  0
 24 23  1  0
 25 26  1  0
 27 25  2  0
M  END
$$$$
