IGW.pdb
     RDKit          3D

 27 28  0  0  1  0  0  0  0  0999 V2000
   28.2424  -22.9638  -20.1699 C   0  0  0  0  0  0  0  0  0  0  0  0
   28.6521  -23.1179  -18.7266 C   0  0  0  0  0  0  0  0  0  0  0  0
   27.8469  -22.2074  -17.8047 C   0  0  2  0  0  0  0  0  0  0  0  0
   27.9812  -20.8020  -18.2757 C   0  0  0  0  0  0  0  0  0  0  0  0
   28.3060  -22.4680  -16.3992 C   0  0  2  0  0  0  0  0  0  0  0  0
   27.9900  -23.8847  -16.1421 N   0  0  0  0  0  0  0  0  0  0  0  0
   27.6741  -21.6413  -15.3720 C   0  0  0  0  0  0  0  0  0  0  0  0
   28.1429  -20.4741  -15.1438 O   0  0  0  0  0  0  0  0  0  0  0  0
   26.5606  -22.0115  -14.5789 N   0  0  0  0  0  0  0  0  0  0  0  0
   25.9674  -21.1329  -13.5895 C   0  0  0  0  0  0  0  0  0  0  0  0
   26.3271  -21.5342  -12.2068 C   0  0  0  0  0  0  0  0  0  0  0  0
   26.8648  -22.6400  -11.9487 O   0  0  0  0  0  0  0  0  0  0  0  0
   26.0520  -20.6350  -11.1441 N   0  0  0  0  0  0  0  0  0  0  0  0
   26.3993  -20.8648   -9.7780 C   0  0  1  0  0  0  0  0  0  0  0  0
   27.6095  -20.0732   -9.3381 C   0  0  0  0  0  0  0  0  0  0  0  0
   27.5424  -19.8073   -7.8798 C   0  0  0  0  0  0  0  0  0  0  0  0
   26.6378  -19.0245   -7.1850 C   0  0  0  0  0  0  0  0  0  0  0  0
   26.9329  -19.0513   -5.8705 N   0  0  0  0  0  0  0  0  0  0  0  0
   28.0002  -19.8245   -5.6756 C   0  0  0  0  0  0  0  0  0  0  0  0
   28.7465  -20.2238   -4.5856 C   0  0  0  0  0  0  0  0  0  0  0  0
   29.8363  -21.0593   -4.6975 C   0  0  0  0  0  0  0  0  0  0  0  0
   30.2283  -21.5339   -5.9133 C   0  0  0  0  0  0  0  0  0  0  0  0
   29.4881  -21.1430   -7.0283 C   0  0  0  0  0  0  0  0  0  0  0  0
   28.4019  -20.3112   -6.9225 C   0  0  0  0  0  0  0  0  0  0  0  0
   25.2437  -20.6626   -8.8860 C   0  0  0  0  0  0  0  0  0  0  0  0
   24.2106  -19.8419   -9.3279 O   0  0  0  0  0  0  0  0  0  0  0  0
   25.2116  -21.2264   -7.7586 O   0  0  0  0  0  0  0  0  0  0  0  0
  2  1  1  0
  3  2  1  0
  3  5  1  0
  3  4  1  6
  5  6  1  1
  7  5  1  0
  7  9  1  0
  8  7  2  0
 10  9  1  0
 11 10  1  0
 12 11  2  0
 13 11  1  0
 14 25  1  0
 14 13  1  0
 14 15  1  1
 16 15  1  0
 17 16  2  0
 18 19  1  0
 18 17  1  0
 19 24  2  0
 20 19  1  0
 20 21  2  0
 21 22  1  0
 22 23  2  0
 24 16  1  0
 24 23  1  0
 25 26  1  0
 27 25  2  0
M  END
$$$$
