IGW.pdb
     RDKit          3D

 27 28  0  0  1  0  0  0  0  0999 V2000
   24.3466  -23.7102  -18.8802 C   0  0  0  0  0  0  0  0  0  0  0  0
   25.2399  -23.9771  -17.6947 C   0  0  0  0  0  0  0  0  0  0  0  0
   25.2330  -22.8182  -16.7027 C   0  0  2  0  0  0  0  0  0  0  0  0
   26.0100  -21.6860  -17.2768 C   0  0  0  0  0  0  0  0  0  0  0  0
   25.7298  -23.3462  -15.3880 C   0  0  2  0  0  0  0  0  0  0  0  0
   24.7982  -24.4296  -15.0258 N   0  0  0  0  0  0  0  0  0  0  0  0
   25.7771  -22.3701  -14.3003 C   0  0  0  0  0  0  0  0  0  0  0  0
   24.6828  -21.8597  -13.8805 O   0  0  0  0  0  0  0  0  0  0  0  0
   26.9470  -21.9177  -13.6426 N   0  0  0  0  0  0  0  0  0  0  0  0
   26.9348  -20.8737  -12.6363 C   0  0  0  0  0  0  0  0  0  0  0  0
   26.3896  -21.3578  -11.3437 C   0  0  0  0  0  0  0  0  0  0  0  0
   26.1550  -22.5732  -11.1288 O   0  0  0  0  0  0  0  0  0  0  0  0
   26.1261  -20.4117  -10.3195 N   0  0  0  0  0  0  0  0  0  0  0  0
   25.5334  -20.7265   -9.0589 C   0  0  1  0  0  0  0  0  0  0  0  0
   26.0101  -19.8244   -7.9437 C   0  0  0  0  0  0  0  0  0  0  0  0
   27.4203  -20.1363   -7.6030 C   0  0  0  0  0  0  0  0  0  0  0  0
   28.3635  -20.8086   -8.3594 C   0  0  0  0  0  0  0  0  0  0  0  0
   29.5240  -20.8772   -7.6781 N   0  0  0  0  0  0  0  0  0  0  0  0
   29.3777  -20.2735   -6.4995 C   0  0  0  0  0  0  0  0  0  0  0  0
   30.1841  -20.0294   -5.4064 C   0  0  0  0  0  0  0  0  0  0  0  0
   29.7385  -19.3550   -4.2907 C   0  0  0  0  0  0  0  0  0  0  0  0
   28.4585  -18.8931   -4.2208 C   0  0  0  0  0  0  0  0  0  0  0  0
   27.6263  -19.1287   -5.3145 C   0  0  0  0  0  0  0  0  0  0  0  0
   28.0649  -19.7997   -6.4282 C   0  0  0  0  0  0  0  0  0  0  0  0
   24.0633  -20.7741   -9.1506 C   0  0  0  0  0  0  0  0  0  0  0  0
   23.3647  -21.4291   -8.1412 O   0  0  0  0  0  0  0  0  0  0  0  0
   23.4747  -20.2305  -10.1243 O   0  0  0  0  0  0  0  0  0  0  0  0
  2  1  1  0
  3  2  1  0
  3  5  1  0
  3  4  1  6
  5  6  1  1
  7  5  1  0
  7  9  1  0
  8  7  2  0
 10  9  1  0
 11 10  1  0
 12 11  2  0
 13 11  1  0
 14 25  1  0
 14 13  1  0
 14 15  1  1
 16 15  1  0
 17 16  2  0
 18 19  1  0
 18 17  1  0
 19 24  2  0
 20 19  1  0
 20 21  2  0
 21 22  1  0
 22 23  2  0
 24 16  1  0
 24 23  1  0
 25 26  1  0
 27 25  2  0
M  END
$$$$
