IGW.pdb
     RDKit          3D

 27 28  0  0  1  0  0  0  0  0999 V2000
   24.9686  -15.6230  -18.2002 C   0  0  0  0  0  0  0  0  0  0  0  0
   24.3225  -16.6980  -17.3626 C   0  0  0  0  0  0  0  0  0  0  0  0
   25.3561  -17.5600  -16.6444 C   0  0  2  0  0  0  0  0  0  0  0  0
   25.9475  -18.5176  -17.6183 C   0  0  0  0  0  0  0  0  0  0  0  0
   24.6805  -18.1779  -15.4546 C   0  0  2  0  0  0  0  0  0  0  0  0
   24.2529  -17.0434  -14.6162 N   0  0  0  0  0  0  0  0  0  0  0  0
   25.5159  -19.0753  -14.6578 C   0  0  0  0  0  0  0  0  0  0  0  0
   25.4697  -20.3315  -14.8907 O   0  0  0  0  0  0  0  0  0  0  0  0
   26.3994  -18.6843  -13.6221 N   0  0  0  0  0  0  0  0  0  0  0  0
   27.2472  -19.6210  -12.9104 C   0  0  0  0  0  0  0  0  0  0  0  0
   26.4720  -20.4569  -11.9603 C   0  0  0  0  0  0  0  0  0  0  0  0
   25.4269  -21.0648  -12.3017 O   0  0  0  0  0  0  0  0  0  0  0  0
   26.9311  -20.5696  -10.6223 N   0  0  0  0  0  0  0  0  0  0  0  0
   26.3097  -21.3721   -9.6176 C   0  0  1  0  0  0  0  0  0  0  0  0
   27.2192  -21.6518   -8.4432 C   0  0  0  0  0  0  0  0  0  0  0  0
   27.4178  -20.4160   -7.6462 C   0  0  0  0  0  0  0  0  0  0  0  0
   26.9252  -19.1455   -7.8850 C   0  0  0  0  0  0  0  0  0  0  0  0
   27.3438  -18.3087   -6.9152 N   0  0  0  0  0  0  0  0  0  0  0  0
   28.0948  -18.9840   -6.0463 C   0  0  0  0  0  0  0  0  0  0  0  0
   28.7794  -18.6820   -4.8868 C   0  0  0  0  0  0  0  0  0  0  0  0
   29.4942  -19.6240   -4.1796 C   0  0  0  0  0  0  0  0  0  0  0  0
   29.5547  -20.9169   -4.6056 C   0  0  0  0  0  0  0  0  0  0  0  0
   28.8699  -21.2441   -5.7753 C   0  0  0  0  0  0  0  0  0  0  0  0
   28.1565  -20.3100   -6.4834 C   0  0  0  0  0  0  0  0  0  0  0  0
   25.0143  -20.8067   -9.2001 C   0  0  0  0  0  0  0  0  0  0  0  0
   24.1094  -21.6462   -8.5580 O   0  0  0  0  0  0  0  0  0  0  0  0
   24.7530  -19.5943   -9.4280 O   0  0  0  0  0  0  0  0  0  0  0  0
  2  1  1  0
  3  2  1  0
  3  5  1  0
  3  4  1  6
  5  6  1  1
  7  5  1  0
  7  9  1  0
  8  7  2  0
 10  9  1  0
 11 10  1  0
 12 11  2  0
 13 11  1  0
 14 25  1  0
 14 13  1  0
 14 15  1  1
 16 15  1  0
 17 16  2  0
 18 19  1  0
 18 17  1  0
 19 24  2  0
 20 19  1  0
 20 21  2  0
 21 22  1  0
 22 23  2  0
 24 16  1  0
 24 23  1  0
 25 26  1  0
 27 25  2  0
M  END
$$$$
