IGW.pdb
     RDKit          3D

 27 28  0  0  1  0  0  0  0  0999 V2000
   21.6677  -18.0255  -15.7001 C   0  0  0  0  0  0  0  0  0  0  0  0
   22.5487  -19.2472  -15.6241 C   0  0  0  0  0  0  0  0  0  0  0  0
   23.9879  -18.8913  -15.2648 C   0  0  2  0  0  0  0  0  0  0  0  0
   24.5241  -17.9539  -16.2889 C   0  0  0  0  0  0  0  0  0  0  0  0
   24.7443  -20.1780  -15.1025 C   0  0  2  0  0  0  0  0  0  0  0  0
   23.9191  -21.0046  -14.2032 N   0  0  0  0  0  0  0  0  0  0  0  0
   26.0864  -20.0469  -14.5373 C   0  0  0  0  0  0  0  0  0  0  0  0
   26.9838  -19.4356  -15.2119 O   0  0  0  0  0  0  0  0  0  0  0  0
   26.5082  -20.5425  -13.2792 N   0  0  0  0  0  0  0  0  0  0  0  0
   27.8477  -20.3447  -12.7602 C   0  0  0  0  0  0  0  0  0  0  0  0
   28.0373  -21.0137  -11.4492 C   0  0  0  0  0  0  0  0  0  0  0  0
   29.1426  -21.0158  -10.8519 O   0  0  0  0  0  0  0  0  0  0  0  0
   26.9296  -21.6719  -10.8548 N   0  0  0  0  0  0  0  0  0  0  0  0
   26.2771  -21.2411   -9.6597 C   0  0  1  0  0  0  0  0  0  0  0  0
   27.0022  -20.1084   -8.9699 C   0  0  0  0  0  0  0  0  0  0  0  0
   26.8220  -20.2075   -7.5003 C   0  0  0  0  0  0  0  0  0  0  0  0
   25.6945  -20.5820   -6.7914 C   0  0  0  0  0  0  0  0  0  0  0  0
   25.9558  -20.5374   -5.4702 N   0  0  0  0  0  0  0  0  0  0  0  0
   27.2159  -20.1467   -5.2846 C   0  0  0  0  0  0  0  0  0  0  0  0
   28.0311  -19.9216   -4.1941 C   0  0  0  0  0  0  0  0  0  0  0  0
   29.3392  -19.5069   -4.3177 C   0  0  0  0  0  0  0  0  0  0  0  0
   29.8908  -19.2984   -5.5461 C   0  0  0  0  0  0  0  0  0  0  0  0
   29.0846  -19.5200   -6.6620 C   0  0  0  0  0  0  0  0  0  0  0  0
   27.7813  -19.9330   -6.5446 C   0  0  0  0  0  0  0  0  0  0  0  0
   24.8568  -20.9315   -9.9018 C   0  0  0  0  0  0  0  0  0  0  0  0
   23.9257  -21.3419   -8.9528 O   0  0  0  0  0  0  0  0  0  0  0  0
   24.5160  -20.3115  -10.9456 O   0  0  0  0  0  0  0  0  0  0  0  0
  2  1  1  0
  3  2  1  0
  3  5  1  0
  3  4  1  6
  5  6  1  1
  7  5  1  0
  7  9  1  0
  8  7  2  0
 10  9  1  0
 11 10  1  0
 12 11  2  0
 13 11  1  0
 14 25  1  0
 14 13  1  0
 14 15  1  6
 16 15  1  0
 17 16  2  0
 18 19  1  0
 18 17  1  0
 19 24  2  0
 20 19  1  0
 20 21  2  0
 21 22  1  0
 22 23  2  0
 24 16  1  0
 24 23  1  0
 25 26  1  0
 27 25  2  0
M  END
$$$$
