IGW.pdb
     RDKit          3D

 27 28  0  0  1  0  0  0  0  0999 V2000
   25.8631  -23.1796  -20.2780 C   0  0  0  0  0  0  0  0  0  0  0  0
   26.9293  -22.2553  -19.7456 C   0  0  0  0  0  0  0  0  0  0  0  0
   26.7942  -22.0344  -18.2422 C   0  0  2  0  0  0  0  0  0  0  0  0
   25.4159  -21.5576  -17.9457 C   0  0  0  0  0  0  0  0  0  0  0  0
   27.9042  -21.1163  -17.8192 C   0  0  2  0  0  0  0  0  0  0  0  0
   29.1312  -21.9303  -17.8882 N   0  0  0  0  0  0  0  0  0  0  0  0
   27.7742  -20.5569  -16.4745 C   0  0  0  0  0  0  0  0  0  0  0  0
   27.0003  -19.5556  -16.2941 O   0  0  0  0  0  0  0  0  0  0  0  0
   28.4379  -21.0251  -15.3141 N   0  0  0  0  0  0  0  0  0  0  0  0
   28.1949  -20.4830  -13.9913 C   0  0  0  0  0  0  0  0  0  0  0  0
   27.0928  -21.1933  -13.2963 C   0  0  0  0  0  0  0  0  0  0  0  0
   26.4077  -22.0822  -13.8611 O   0  0  0  0  0  0  0  0  0  0  0  0
   26.8072  -20.8529  -11.9487 N   0  0  0  0  0  0  0  0  0  0  0  0
   25.8988  -21.5656  -11.1082 C   0  0  1  0  0  0  0  0  0  0  0  0
   26.5044  -21.9444   -9.7762 C   0  0  0  0  0  0  0  0  0  0  0  0
   26.8091  -20.7239   -8.9889 C   0  0  0  0  0  0  0  0  0  0  0  0
   26.1820  -19.4914   -9.0284 C   0  0  0  0  0  0  0  0  0  0  0  0
   26.7713  -18.6561   -8.1505 N   0  0  0  0  0  0  0  0  0  0  0  0
   27.7645  -19.2956   -7.5345 C   0  0  0  0  0  0  0  0  0  0  0  0
   28.6970  -18.9771   -6.5683 C   0  0  0  0  0  0  0  0  0  0  0  0
   29.6336  -19.8797   -6.1139 C   0  0  0  0  0  0  0  0  0  0  0  0
   29.6770  -21.1480   -6.6103 C   0  0  0  0  0  0  0  0  0  0  0  0
   28.7436  -21.4913   -7.5876 C   0  0  0  0  0  0  0  0  0  0  0  0
   27.8087  -20.5963   -8.0437 C   0  0  0  0  0  0  0  0  0  0  0  0
   24.6229  -20.8434  -10.9579 C   0  0  0  0  0  0  0  0  0  0  0  0
   23.4951  -21.5740  -10.5970 O   0  0  0  0  0  0  0  0  0  0  0  0
   24.5761  -19.5989  -11.1554 O   0  0  0  0  0  0  0  0  0  0  0  0
  2  1  1  0
  3  2  1  0
  3  5  1  0
  3  4  1  6
  5  6  1  1
  7  5  1  0
  7  9  1  0
  8  7  2  0
 10  9  1  0
 11 10  1  0
 12 11  2  0
 13 11  1  0
 14 25  1  0
 14 13  1  0
 14 15  1  1
 16 15  1  0
 17 16  2  0
 18 19  1  0
 18 17  1  0
 19 24  2  0
 20 19  1  0
 20 21  2  0
 21 22  1  0
 22 23  2  0
 24 16  1  0
 24 23  1  0
 25 26  1  0
 27 25  2  0
M  END
$$$$
