IGW.pdb
     RDKit          3D

 27 28  0  0  1  0  0  0  0  0999 V2000
   26.0236  -18.7283  -19.7424 C   0  0  0  0  0  0  0  0  0  0  0  0
   26.6764  -19.6957  -18.7872 C   0  0  0  0  0  0  0  0  0  0  0  0
   26.6196  -19.2000  -17.3456 C   0  0  2  0  0  0  0  0  0  0  0  0
   27.3300  -17.8953  -17.2548 C   0  0  0  0  0  0  0  0  0  0  0  0
   27.1575  -20.2947  -16.4702 C   0  0  2  0  0  0  0  0  0  0  0  0
   26.3824  -21.4964  -16.8279 N   0  0  0  0  0  0  0  0  0  0  0  0
   27.0406  -20.0588  -15.0319 C   0  0  0  0  0  0  0  0  0  0  0  0
   25.8770  -19.9182  -14.5215 O   0  0  0  0  0  0  0  0  0  0  0  0
   28.1176  -19.9676  -14.1164 N   0  0  0  0  0  0  0  0  0  0  0  0
   27.9444  -19.5915  -12.7267 C   0  0  0  0  0  0  0  0  0  0  0  0
   27.1243  -20.5806  -11.9842 C   0  0  0  0  0  0  0  0  0  0  0  0
   26.6868  -21.6276  -12.5234 O   0  0  0  0  0  0  0  0  0  0  0  0
   26.8271  -20.3302  -10.6194 N   0  0  0  0  0  0  0  0  0  0  0  0
   26.1543  -21.2470   -9.7554 C   0  0  1  0  0  0  0  0  0  0  0  0
   26.9484  -21.5727   -8.5113 C   0  0  0  0  0  0  0  0  0  0  0  0
   27.1874  -20.3395   -7.7214 C   0  0  0  0  0  0  0  0  0  0  0  0
   26.7494  -19.0521   -7.9757 C   0  0  0  0  0  0  0  0  0  0  0  0
   27.1900  -18.2252   -7.0073 N   0  0  0  0  0  0  0  0  0  0  0  0
   27.9028  -18.9232   -6.1243 C   0  0  0  0  0  0  0  0  0  0  0  0
   28.5854  -18.6397   -4.9589 C   0  0  0  0  0  0  0  0  0  0  0  0
   29.2533  -19.6039   -4.2361 C   0  0  0  0  0  0  0  0  0  0  0  0
   29.2665  -20.9016   -4.6515 C   0  0  0  0  0  0  0  0  0  0  0  0
   28.5829  -21.2104   -5.8268 C   0  0  0  0  0  0  0  0  0  0  0  0
   27.9161  -20.2540   -6.5506 C   0  0  0  0  0  0  0  0  0  0  0  0
   24.7878  -20.7914   -9.4440 C   0  0  0  0  0  0  0  0  0  0  0  0
   23.9557  -21.6523   -8.7352 O   0  0  0  0  0  0  0  0  0  0  0  0
   24.4032  -19.6503   -9.8183 O   0  0  0  0  0  0  0  0  0  0  0  0
  2  1  1  0
  3  2  1  0
  3  5  1  0
  3  4  1  6
  5  6  1  6
  7  5  1  0
  7  9  1  0
  8  7  2  0
 10  9  1  0
 11 10  1  0
 12 11  2  0
 13 11  1  0
 14 25  1  0
 14 13  1  0
 14 15  1  1
 16 15  1  0
 17 16  2  0
 18 19  1  0
 18 17  1  0
 19 24  2  0
 20 19  1  0
 20 21  2  0
 21 22  1  0
 22 23  2  0
 24 16  1  0
 24 23  1  0
 25 26  1  0
 27 25  2  0
M  END
$$$$
