IGW.pdb
     RDKit          3D

 27 28  0  0  1  0  0  0  0  0999 V2000
   30.6769  -16.7789  -18.0509 C   0  0  0  0  0  0  0  0  0  0  0  0
   30.0982  -17.4284  -16.8189 C   0  0  0  0  0  0  0  0  0  0  0  0
   28.5771  -17.5240  -16.8854 C   0  0  2  0  0  0  0  0  0  0  0  0
   28.0008  -16.1581  -16.7553 C   0  0  0  0  0  0  0  0  0  0  0  0
   28.1411  -18.5148  -15.8450 C   0  0  2  0  0  0  0  0  0  0  0  0
   28.9734  -19.7101  -16.0718 N   0  0  0  0  0  0  0  0  0  0  0  0
   26.7303  -18.8954  -15.8971 C   0  0  0  0  0  0  0  0  0  0  0  0
   26.3561  -19.7638  -16.7573 O   0  0  0  0  0  0  0  0  0  0  0  0
   25.7028  -18.3855  -15.0661 N   0  0  0  0  0  0  0  0  0  0  0  0
   24.3046  -18.7306  -15.2355 C   0  0  0  0  0  0  0  0  0  0  0  0
   23.8673  -19.7612  -14.2613 C   0  0  0  0  0  0  0  0  0  0  0  0
   22.6712  -20.1356  -14.1741 O   0  0  0  0  0  0  0  0  0  0  0  0
   24.8368  -20.3396  -13.4017 N   0  0  0  0  0  0  0  0  0  0  0  0
   24.5701  -21.3880  -12.4692 C   0  0  1  0  0  0  0  0  0  0  0  0
   25.8118  -21.8673  -11.7529 C   0  0  0  0  0  0  0  0  0  0  0  0
   26.0090  -21.0946  -10.5015 C   0  0  0  0  0  0  0  0  0  0  0  0
   25.0712  -20.4015   -9.7572 C   0  0  0  0  0  0  0  0  0  0  0  0
   25.6689  -19.8368   -8.6897 N   0  0  0  0  0  0  0  0  0  0  0  0
   26.9676  -20.1339   -8.7052 C   0  0  0  0  0  0  0  0  0  0  0  0
   28.0562  -19.8525   -7.9051 C   0  0  0  0  0  0  0  0  0  0  0  0
   29.3233  -20.3154   -8.1853 C   0  0  0  0  0  0  0  0  0  0  0  0
   29.5564  -21.0849   -9.2855 C   0  0  0  0  0  0  0  0  0  0  0  0
   28.4702  -21.3816  -10.1079 C   0  0  0  0  0  0  0  0  0  0  0  0
   27.2063  -20.9232   -9.8335 C   0  0  0  0  0  0  0  0  0  0  0  0
   23.4925  -21.0177  -11.5345 C   0  0  0  0  0  0  0  0  0  0  0  0
   22.7148  -22.0371  -10.9942 O   0  0  0  0  0  0  0  0  0  0  0  0
   23.2973  -19.8058  -11.2460 O   0  0  0  0  0  0  0  0  0  0  0  0
  2  1  1  0
  3  2  1  0
  3  5  1  0
  3  4  1  1
  5  6  1  6
  7  5  1  0
  7  9  1  0
  8  7  2  0
 10  9  1  0
 11 10  1  0
 12 11  2  0
 13 11  1  0
 14 25  1  0
 14 13  1  0
 14 15  1  1
 16 15  1  0
 17 16  2  0
 18 19  1  0
 18 17  1  0
 19 24  2  0
 20 19  1  0
 20 21  2  0
 21 22  1  0
 22 23  2  0
 24 16  1  0
 24 23  1  0
 25 26  1  0
 27 25  2  0
M  END
$$$$
