IGW.pdb
     RDKit          3D

 27 28  0  0  1  0  0  0  0  0999 V2000
   25.8582  -16.5111  -16.7384 C   0  0  0  0  0  0  0  0  0  0  0  0
   26.0533  -16.3219  -15.2549 C   0  0  0  0  0  0  0  0  0  0  0  0
   27.0515  -17.3212  -14.6787 C   0  0  2  0  0  0  0  0  0  0  0  0
   28.3214  -17.2352  -15.4500 C   0  0  0  0  0  0  0  0  0  0  0  0
   26.3876  -18.6678  -14.6686 C   0  0  2  0  0  0  0  0  0  0  0  0
   25.1301  -18.4770  -13.9234 N   0  0  0  0  0  0  0  0  0  0  0  0
   27.1591  -19.7401  -14.0416 C   0  0  0  0  0  0  0  0  0  0  0  0
   27.9541  -20.4329  -14.7642 O   0  0  0  0  0  0  0  0  0  0  0  0
   27.1154  -20.1017  -12.6729 N   0  0  0  0  0  0  0  0  0  0  0  0
   28.0143  -21.0749  -12.0831 C   0  0  0  0  0  0  0  0  0  0  0  0
   27.7582  -21.2567  -10.6328 C   0  0  0  0  0  0  0  0  0  0  0  0
   28.4318  -22.0490   -9.9278 O   0  0  0  0  0  0  0  0  0  0  0  0
   26.7160  -20.5082  -10.0269 N   0  0  0  0  0  0  0  0  0  0  0  0
   25.6259  -21.0778   -9.3010 C   0  0  1  0  0  0  0  0  0  0  0  0
   25.4186  -20.4328   -7.9499 C   0  0  0  0  0  0  0  0  0  0  0  0
   26.6516  -19.7223   -7.5294 C   0  0  0  0  0  0  0  0  0  0  0  0
   27.2688  -18.6367   -8.1247 C   0  0  0  0  0  0  0  0  0  0  0  0
   28.3686  -18.3007   -7.4222 N   0  0  0  0  0  0  0  0  0  0  0  0
   28.4969  -19.1272   -6.3852 C   0  0  0  0  0  0  0  0  0  0  0  0
   29.3916  -19.2780   -5.3454 C   0  0  0  0  0  0  0  0  0  0  0  0
   29.2602  -20.2611   -4.3892 C   0  0  0  0  0  0  0  0  0  0  0  0
   28.2207  -21.1411   -4.4330 C   0  0  0  0  0  0  0  0  0  0  0  0
   27.3045  -21.0068   -5.4754 C   0  0  0  0  0  0  0  0  0  0  0  0
   27.4306  -20.0295   -6.4304 C   0  0  0  0  0  0  0  0  0  0  0  0
   24.3923  -21.0974  -10.1072 C   0  0  0  0  0  0  0  0  0  0  0  0
   23.2793  -21.7498   -9.5861 O   0  0  0  0  0  0  0  0  0  0  0  0
   24.3671  -20.5330  -11.2345 O   0  0  0  0  0  0  0  0  0  0  0  0
  2  1  1  0
  3  2  1  0
  3  5  1  0
  3  4  1  6
  5  6  1  1
  7  5  1  0
  7  9  1  0
  8  7  2  0
 10  9  1  0
 11 10  1  0
 12 11  2  0
 13 11  1  0
 14 25  1  0
 14 13  1  0
 14 15  1  1
 16 15  1  0
 17 16  2  0
 18 19  1  0
 18 17  1  0
 19 24  2  0
 20 19  1  0
 20 21  2  0
 21 22  1  0
 22 23  2  0
 24 16  1  0
 24 23  1  0
 25 26  1  0
 27 25  2  0
M  END
$$$$
