IGW.pdb
     RDKit          3D

 27 28  0  0  1  0  0  0  0  0999 V2000
   26.1398  -18.3585  -18.0323 C   0  0  0  0  0  0  0  0  0  0  0  0
   25.5609  -19.3631  -17.0678 C   0  0  0  0  0  0  0  0  0  0  0  0
   26.4648  -20.5806  -16.9012 C   0  0  2  0  0  0  0  0  0  0  0  0
   26.6009  -21.2651  -18.2157 C   0  0  0  0  0  0  0  0  0  0  0  0
   25.8974  -21.4155  -15.7898 C   0  0  2  0  0  0  0  0  0  0  0  0
   24.5454  -21.7950  -16.2384 N   0  0  0  0  0  0  0  0  0  0  0  0
   25.8028  -20.7478  -14.4924 C   0  0  0  0  0  0  0  0  0  0  0  0
   24.8007  -19.9888  -14.2599 O   0  0  0  0  0  0  0  0  0  0  0  0
   26.7361  -20.8589  -13.4328 N   0  0  0  0  0  0  0  0  0  0  0  0
   26.6415  -20.0833  -12.2112 C   0  0  0  0  0  0  0  0  0  0  0  0
   26.1203  -20.8922  -11.0815 C   0  0  0  0  0  0  0  0  0  0  0  0
   25.7069  -22.0687  -11.2346 O   0  0  0  0  0  0  0  0  0  0  0  0
   26.0899  -20.3122   -9.7867 N   0  0  0  0  0  0  0  0  0  0  0  0
   25.3577  -20.8398   -8.6798 C   0  0  1  0  0  0  0  0  0  0  0  0
   25.6947  -20.1577   -7.3737 C   0  0  0  0  0  0  0  0  0  0  0  0
   27.1644  -19.9964   -7.2469 C   0  0  0  0  0  0  0  0  0  0  0  0
   28.1281  -20.0508   -8.2379 C   0  0  0  0  0  0  0  0  0  0  0  0
   29.3457  -19.8525   -7.6956 N   0  0  0  0  0  0  0  0  0  0  0  0
   29.2171  -19.6694   -6.3823 C   0  0  0  0  0  0  0  0  0  0  0  0
   30.0752  -19.4295   -5.3284 C   0  0  0  0  0  0  0  0  0  0  0  0
   29.6348  -19.2789   -4.0316 C   0  0  0  0  0  0  0  0  0  0  0  0
   28.3081  -19.3627   -3.7322 C   0  0  0  0  0  0  0  0  0  0  0  0
   27.4232  -19.6045   -4.7823 C   0  0  0  0  0  0  0  0  0  0  0  0
   27.8564  -19.7552   -6.0756 C   0  0  0  0  0  0  0  0  0  0  0  0
   23.9086  -20.8516   -8.9476 C   0  0  0  0  0  0  0  0  0  0  0  0
   23.1056  -21.6813   -8.1712 O   0  0  0  0  0  0  0  0  0  0  0  0
   23.4302  -20.1231   -9.8589 O   0  0  0  0  0  0  0  0  0  0  0  0
  2  1  1  0
  3  2  1  0
  3  5  1  0
  3  4  1  6
  5  6  1  6
  7  5  1  0
  7  9  1  0
  8  7  2  0
 10  9  1  0
 11 10  1  0
 12 11  2  0
 13 11  1  0
 14 25  1  0
 14 13  1  0
 14 15  1  1
 16 15  1  0
 17 16  2  0
 18 19  1  0
 18 17  1  0
 19 24  2  0
 20 19  1  0
 20 21  2  0
 21 22  1  0
 22 23  2  0
 24 16  1  0
 24 23  1  0
 25 26  1  0
 27 25  2  0
M  END
$$$$
