IGW.pdb
     RDKit          3D

 27 28  0  0  1  0  0  0  0  0999 V2000
   24.6479  -23.7303  -18.8286 C   0  0  0  0  0  0  0  0  0  0  0  0
   25.7563  -22.7713  -18.4730 C   0  0  0  0  0  0  0  0  0  0  0  0
   25.6668  -22.3086  -17.0221 C   0  0  2  0  0  0  0  0  0  0  0  0
   24.3159  -21.7323  -16.7811 C   0  0  0  0  0  0  0  0  0  0  0  0
   26.8219  -21.3830  -16.7712 C   0  0  2  0  0  0  0  0  0  0  0  0
   28.0201  -22.2417  -16.7867 N   0  0  0  0  0  0  0  0  0  0  0  0
   26.7727  -20.6507  -15.5066 C   0  0  0  0  0  0  0  0  0  0  0  0
   25.9775  -19.6555  -15.3997 O   0  0  0  0  0  0  0  0  0  0  0  0
   27.5389  -20.9395  -14.3509 N   0  0  0  0  0  0  0  0  0  0  0  0
   27.4429  -20.1696  -13.1259 C   0  0  0  0  0  0  0  0  0  0  0  0
   26.5407  -20.8119  -12.1381 C   0  0  0  0  0  0  0  0  0  0  0  0
   25.4694  -21.3744  -12.4762 O   0  0  0  0  0  0  0  0  0  0  0  0
   26.9049  -20.7867  -10.7669 N   0  0  0  0  0  0  0  0  0  0  0  0
   26.1778  -21.4364   -9.7235 C   0  0  1  0  0  0  0  0  0  0  0  0
   27.0445  -21.7939   -8.5378 C   0  0  0  0  0  0  0  0  0  0  0  0
   27.4609  -20.5632   -7.8210 C   0  0  0  0  0  0  0  0  0  0  0  0
   27.1672  -19.2457   -8.1239 C   0  0  0  0  0  0  0  0  0  0  0  0
   27.7434  -18.4338   -7.2158 N   0  0  0  0  0  0  0  0  0  0  0  0
   28.4062  -19.1709   -6.3256 C   0  0  0  0  0  0  0  0  0  0  0  0
   29.1669  -18.9179   -5.2023 C   0  0  0  0  0  0  0  0  0  0  0  0
   29.7468  -19.9210   -4.4567 C   0  0  0  0  0  0  0  0  0  0  0  0
   29.5891  -21.2287   -4.8059 C   0  0  0  0  0  0  0  0  0  0  0  0
   28.8240  -21.5070   -5.9379 C   0  0  0  0  0  0  0  0  0  0  0  0
   28.2442  -20.5119   -6.6840 C   0  0  0  0  0  0  0  0  0  0  0  0
   24.9864  -20.6619   -9.3327 C   0  0  0  0  0  0  0  0  0  0  0  0
   24.9096  -19.3315   -9.7327 O   0  0  0  0  0  0  0  0  0  0  0  0
   24.0741  -21.2082   -8.6551 O   0  0  0  0  0  0  0  0  0  0  0  0
  2  1  1  0
  3  2  1  0
  3  5  1  0
  3  4  1  6
  5  6  1  1
  7  5  1  0
  7  9  1  0
  8  7  2  0
 10  9  1  0
 11 10  1  0
 12 11  2  0
 13 11  1  0
 14 25  1  0
 14 13  1  0
 14 15  1  1
 16 15  1  0
 17 16  2  0
 18 19  1  0
 18 17  1  0
 19 24  2  0
 20 19  1  0
 20 21  2  0
 21 22  1  0
 22 23  2  0
 24 16  1  0
 24 23  1  0
 25 26  1  0
 27 25  2  0
M  END
$$$$
