IGW.pdb
     RDKit          3D

 27 28  0  0  1  0  0  0  0  0999 V2000
   27.9744  -15.7334  -16.6556 C   0  0  0  0  0  0  0  0  0  0  0  0
   27.1437  -16.4944  -15.6528 C   0  0  0  0  0  0  0  0  0  0  0  0
   25.9321  -17.1567  -16.3011 C   0  0  2  0  0  0  0  0  0  0  0  0
   25.0156  -16.0986  -16.8066 C   0  0  0  0  0  0  0  0  0  0  0  0
   25.3412  -18.1010  -15.2945 C   0  0  2  0  0  0  0  0  0  0  0  0
   24.9939  -17.2642  -14.1317 N   0  0  0  0  0  0  0  0  0  0  0  0
   26.2232  -19.1835  -14.8604 C   0  0  0  0  0  0  0  0  0  0  0  0
   26.0391  -20.3571  -15.3325 O   0  0  0  0  0  0  0  0  0  0  0  0
   27.2946  -19.0622  -13.9420 N   0  0  0  0  0  0  0  0  0  0  0  0
   28.0204  -20.2032  -13.4186 C   0  0  0  0  0  0  0  0  0  0  0  0
   27.3861  -20.7470  -12.1922 C   0  0  0  0  0  0  0  0  0  0  0  0
   26.9005  -21.9049  -12.1462 O   0  0  0  0  0  0  0  0  0  0  0  0
   27.3286  -19.9273  -11.0353 N   0  0  0  0  0  0  0  0  0  0  0  0
   26.8886  -20.3692   -9.7505 C   0  0  1  0  0  0  0  0  0  0  0  0
   27.2300  -19.3957   -8.6456 C   0  0  0  0  0  0  0  0  0  0  0  0
   26.9154  -19.9933   -7.3243 C   0  0  0  0  0  0  0  0  0  0  0  0
   25.8825  -20.8496   -6.9871 C   0  0  0  0  0  0  0  0  0  0  0  0
   25.9580  -21.1550   -5.6769 N   0  0  0  0  0  0  0  0  0  0  0  0
   27.0046  -20.5297   -5.1397 C   0  0  0  0  0  0  0  0  0  0  0  0
   27.5747  -20.4545   -3.8852 C   0  0  0  0  0  0  0  0  0  0  0  0
   28.6960  -19.6980   -3.6231 C   0  0  0  0  0  0  0  0  0  0  0  0
   29.2986  -18.9798   -4.6121 C   0  0  0  0  0  0  0  0  0  0  0  0
   28.7390  -19.0416   -5.8877 C   0  0  0  0  0  0  0  0  0  0  0  0
   27.6224  -19.7934   -6.1541 C   0  0  0  0  0  0  0  0  0  0  0  0
   25.4582  -20.7235   -9.7622 C   0  0  0  0  0  0  0  0  0  0  0  0
   25.0571  -21.8531   -9.0558 O   0  0  0  0  0  0  0  0  0  0  0  0
   24.6374  -20.0100  -10.4005 O   0  0  0  0  0  0  0  0  0  0  0  0
  2  1  1  0
  3  2  1  0
  3  5  1  0
  3  4  1  1
  5  6  1  1
  7  5  1  0
  7  9  1  0
  8  7  2  0
 10  9  1  0
 11 10  1  0
 12 11  2  0
 13 11  1  0
 14 25  1  0
 14 13  1  0
 14 15  1  1
 16 15  1  0
 17 16  2  0
 18 19  1  0
 18 17  1  0
 19 24  2  0
 20 19  1  0
 20 21  2  0
 21 22  1  0
 22 23  2  0
 24 16  1  0
 24 23  1  0
 25 26  1  0
 27 25  2  0
M  END
$$$$
