LLK.pdb
     RDKit          3D

 26 25  0  0  1  0  0  0  0  0999 V2000
   27.3450  -17.1663  -18.6509 C   0  0  0  0  0  0  0  0  0  0  0  0
   27.9487  -18.2276  -17.7805 C   0  0  1  0  0  0  0  0  0  0  0  0
   29.0667  -17.6777  -16.9036 C   0  0  0  0  0  0  0  0  0  0  0  0
   26.9256  -18.9510  -16.9389 C   0  0  0  0  0  0  0  0  0  0  0  0
   27.5975  -20.0133  -16.1174 C   0  0  2  0  0  0  0  0  0  0  0  0
   28.1436  -21.0646  -16.9367 N   0  0  0  0  0  0  0  0  0  0  0  0
   26.6348  -20.6085  -15.1573 C   0  0  0  0  0  0  0  0  0  0  0  0
   25.9136  -21.5572  -15.5484 O   0  0  0  0  0  0  0  0  0  0  0  0
   25.7852  -19.9731   -9.1179 C   0  0  0  0  0  0  0  0  0  0  0  0
   25.1553  -20.6114  -10.3793 C   0  0  2  0  0  0  0  0  0  0  0  0
   25.0824  -22.1032  -10.1152 C   0  0  0  0  0  0  0  0  0  0  0  0
   26.0188  -20.2847  -11.5380 C   0  0  0  0  0  0  0  0  0  0  0  0
   25.5540  -20.6879  -12.8885 C   0  0  2  0  0  0  0  0  0  0  0  0
   26.5400  -20.1028  -13.8229 N   0  0  0  0  0  0  0  0  0  0  0  0
   24.1966  -20.2401  -13.2616 C   0  0  0  0  0  0  0  0  0  0  0  0
   23.9892  -19.0120  -13.4234 O   0  0  0  0  0  0  0  0  0  0  0  0
   23.1197  -21.1351  -13.4480 N   0  0  0  0  0  0  0  0  0  0  0  0
   21.8103  -20.5566  -13.8047 C   0  0  1  0  0  0  0  0  0  0  0  0
   21.3514  -21.3302  -15.0235 C   0  0  0  0  0  0  0  0  0  0  0  0
   19.9973  -20.9386  -15.5154 C   0  0  0  0  0  0  0  0  0  0  0  0
   19.7900  -21.6788  -16.8397 C   0  0  0  0  0  0  0  0  0  0  0  0
   18.4541  -21.3055  -17.4611 C   0  0  0  0  0  0  0  0  0  0  0  0
   18.6217  -19.9840  -18.0699 N   0  0  0  0  0  0  0  0  0  0  0  0
   20.8901  -20.6801  -12.6553 C   0  0  0  0  0  0  0  0  0  0  0  0
   19.7840  -19.8586  -12.5637 O   0  0  0  0  0  0  0  0  0  0  0  0
   21.0830  -21.5149  -11.7504 O   0  0  0  0  0  0  0  0  0  0  0  0
  2  1  1  1
  2  4  1  0
  3  2  1  0
  5  6  1  6
  5  4  1  0
  7  5  1  0
  8  7  2  0
 10  9  1  1
 10 12  1  0
 11 10  1  0
 13 12  1  1
 13 14  1  0
 14  7  1  0
 15 13  1  0
 15 17  1  0
 16 15  2  0
 18 19  1  6
 18 17  1  0
 18 24  1  0
 20 21  1  0
 20 19  1  0
 21 22  1  0
 22 23  1  0
 24 25  1  0
 26 24  2  0
M  END
$$$$
