LLK.pdb
     RDKit          3D

 26 25  0  0  1  0  0  0  0  0999 V2000
   14.3107  -21.9629  -13.4329 C   0  0  0  0  0  0  0  0  0  0  0  0
   15.7865  -21.6976  -13.4231 C   0  0  1  0  0  0  0  0  0  0  0  0
   16.0974  -20.2101  -13.3136 C   0  0  0  0  0  0  0  0  0  0  0  0
   16.5163  -22.4694  -12.3508 C   0  0  0  0  0  0  0  0  0  0  0  0
   17.9887  -22.1843  -12.4273 C   0  0  2  0  0  0  0  0  0  0  0  0
   18.5770  -22.7031  -13.6353 N   0  0  0  0  0  0  0  0  0  0  0  0
   18.6901  -22.7785  -11.2621 C   0  0  0  0  0  0  0  0  0  0  0  0
   18.8820  -24.0179  -11.2514 O   0  0  0  0  0  0  0  0  0  0  0  0
   23.1047  -20.6551   -8.6324 C   0  0  0  0  0  0  0  0  0  0  0  0
   22.1566  -21.6866   -9.2899 C   0  0  2  0  0  0  0  0  0  0  0  0
   22.0753  -21.3199  -10.7593 C   0  0  0  0  0  0  0  0  0  0  0  0
   20.8422  -21.5978   -8.6122 C   0  0  0  0  0  0  0  0  0  0  0  0
   19.7870  -22.5627   -9.0099 C   0  0  2  0  0  0  0  0  0  0  0  0
   19.1294  -21.9482  -10.1836 N   0  0  0  0  0  0  0  0  0  0  0  0
   18.7722  -22.8663   -7.9802 C   0  0  0  0  0  0  0  0  0  0  0  0
   17.7569  -22.1316   -7.8981 O   0  0  0  0  0  0  0  0  0  0  0  0
   18.8924  -23.9514   -7.0838 N   0  0  0  0  0  0  0  0  0  0  0  0
   17.8321  -24.1160   -6.0713 C   0  0  1  0  0  0  0  0  0  0  0  0
   16.6158  -24.5881   -6.8410 C   0  0  0  0  0  0  0  0  0  0  0  0
   15.4480  -24.9324   -5.9771 C   0  0  0  0  0  0  0  0  0  0  0  0
   14.3608  -25.4638   -6.9153 C   0  0  0  0  0  0  0  0  0  0  0  0
   13.0977  -25.7995   -6.1392 C   0  0  0  0  0  0  0  0  0  0  0  0
   12.0976  -26.2306   -7.1184 N   0  0  0  0  0  0  0  0  0  0  0  0
   18.2808  -25.0778   -5.0433 C   0  0  0  0  0  0  0  0  0  0  0  0
   17.5530  -25.2368   -3.8807 O   0  0  0  0  0  0  0  0  0  0  0  0
   19.3120  -25.7611   -5.1932 O   0  0  0  0  0  0  0  0  0  0  0  0
  2  1  1  1
  2  4  1  0
  3  2  1  0
  5  6  1  6
  5  4  1  0
  7  5  1  0
  8  7  2  0
 10  9  1  1
 10 12  1  0
 11 10  1  0
 13 12  1  1
 13 14  1  0
 14  7  1  0
 15 13  1  0
 15 17  1  0
 16 15  2  0
 18 19  1  6
 18 17  1  0
 18 24  1  0
 20 21  1  0
 20 19  1  0
 21 22  1  0
 22 23  1  0
 24 25  1  0
 26 24  2  0
M  END
$$$$
