LLK.pdb
     RDKit          3D

 26 25  0  0  1  0  0  0  0  0999 V2000
   29.6847  -18.3019  -17.1664 C   0  0  0  0  0  0  0  0  0  0  0  0
   28.3549  -17.8603  -16.6325 C   0  0  1  0  0  0  0  0  0  0  0  0
   27.3962  -17.4635  -17.7482 C   0  0  0  0  0  0  0  0  0  0  0  0
   27.7150  -18.8839  -15.7264 C   0  0  0  0  0  0  0  0  0  0  0  0
   26.3148  -18.4618  -15.3858 C   0  0  2  0  0  0  0  0  0  0  0  0
   26.2935  -17.3243  -14.5025 N   0  0  0  0  0  0  0  0  0  0  0  0
   25.5816  -19.5797  -14.7412 C   0  0  0  0  0  0  0  0  0  0  0  0
   25.5017  -20.6710  -15.3542 O   0  0  0  0  0  0  0  0  0  0  0  0
   26.4760  -21.9012  -11.1979 C   0  0  0  0  0  0  0  0  0  0  0  0
   25.9609  -20.4696  -10.9143 C   0  0  2  0  0  0  0  0  0  0  0  0
   26.1024  -20.2502   -9.4202 C   0  0  0  0  0  0  0  0  0  0  0  0
   24.5518  -20.3921  -11.3653 C   0  0  0  0  0  0  0  0  0  0  0  0
   24.2762  -20.5355  -12.8166 C   0  0  2  0  0  0  0  0  0  0  0  0
   24.9838  -19.4038  -13.4540 N   0  0  0  0  0  0  0  0  0  0  0  0
   22.8516  -20.5074  -13.2063 C   0  0  0  0  0  0  0  0  0  0  0  0
   22.2793  -19.3955  -13.3222 O   0  0  0  0  0  0  0  0  0  0  0  0
   22.1039  -21.6791  -13.4583 N   0  0  0  0  0  0  0  0  0  0  0  0
   20.6935  -21.5115  -13.8573 C   0  0  1  0  0  0  0  0  0  0  0  0
   20.4187  -22.6374  -14.8328 C   0  0  0  0  0  0  0  0  0  0  0  0
   18.9984  -22.7132  -15.2864 C   0  0  0  0  0  0  0  0  0  0  0  0
   18.9015  -23.9431  -16.1933 C   0  0  0  0  0  0  0  0  0  0  0  0
   17.4979  -24.0850  -16.7589 C   0  0  0  0  0  0  0  0  0  0  0  0
   17.4921  -25.2929  -17.5871 N   0  0  0  0  0  0  0  0  0  0  0  0
   19.8350  -21.5588  -12.6557 C   0  0  0  0  0  0  0  0  0  0  0  0
   18.5589  -21.0328  -12.6966 O   0  0  0  0  0  0  0  0  0  0  0  0
   20.2316  -22.0657  -11.5886 O   0  0  0  0  0  0  0  0  0  0  0  0
  2  1  1  6
  2  4  1  0
  3  2  1  0
  5  6  1  1
  5  4  1  0
  7  5  1  0
  8  7  2  0
 10  9  1  1
 10 12  1  0
 11 10  1  0
 13 12  1  1
 13 14  1  0
 14  7  1  0
 15 13  1  0
 15 17  1  0
 16 15  2  0
 18 19  1  6
 18 17  1  0
 18 24  1  0
 20 21  1  0
 20 19  1  0
 21 22  1  0
 22 23  1  0
 24 25  1  0
 26 24  2  0
M  END
$$$$
