LLK.pdb
     RDKit          3D

 26 25  0  0  1  0  0  0  0  0999 V2000
   30.1205  -22.5293  -16.9187 C   0  0  0  0  0  0  0  0  0  0  0  0
   28.9897  -21.5500  -16.8160 C   0  0  1  0  0  0  0  0  0  0  0  0
   28.3180  -21.3116  -18.1626 C   0  0  0  0  0  0  0  0  0  0  0  0
   27.9659  -21.9397  -15.7775 C   0  0  0  0  0  0  0  0  0  0  0  0
   26.8365  -20.9502  -15.7757 C   0  0  2  0  0  0  0  0  0  0  0  0
   27.2696  -19.6373  -15.3716 N   0  0  0  0  0  0  0  0  0  0  0  0
   25.7587  -21.3996  -14.8596 C   0  0  0  0  0  0  0  0  0  0  0  0
   25.3063  -22.5612  -14.9974 O   0  0  0  0  0  0  0  0  0  0  0  0
   25.7172  -22.2425  -10.6194 C   0  0  0  0  0  0  0  0  0  0  0  0
   25.7833  -20.7332  -10.9551 C   0  0  2  0  0  0  0  0  0  0  0  0
   25.9780  -20.0080   -9.6373 C   0  0  0  0  0  0  0  0  0  0  0  0
   24.5166  -20.3568  -11.6249 C   0  0  0  0  0  0  0  0  0  0  0  0
   24.2015  -20.9942  -12.9276 C   0  0  2  0  0  0  0  0  0  0  0  0
   25.2556  -20.5199  -13.8504 N   0  0  0  0  0  0  0  0  0  0  0  0
   22.8739  -20.6787  -13.4933 C   0  0  0  0  0  0  0  0  0  0  0  0
   22.5669  -19.4750  -13.6780 O   0  0  0  0  0  0  0  0  0  0  0  0
   21.9333  -21.6742  -13.8396 N   0  0  0  0  0  0  0  0  0  0  0  0
   20.6415  -21.2246  -14.3923 C   0  0  1  0  0  0  0  0  0  0  0  0
   20.0808  -22.4268  -15.1238 C   0  0  0  0  0  0  0  0  0  0  0  0
   19.5931  -23.5118  -14.2217 C   0  0  0  0  0  0  0  0  0  0  0  0
   18.9718  -24.5780  -15.1282 C   0  0  0  0  0  0  0  0  0  0  0  0
   18.3761  -25.7059  -14.3016 C   0  0  0  0  0  0  0  0  0  0  0  0
   17.6429  -26.5718  -15.2276 N   0  0  0  0  0  0  0  0  0  0  0  0
   19.7742  -20.7550  -13.2922 C   0  0  0  0  0  0  0  0  0  0  0  0
   18.6704  -19.9724  -13.5678 O   0  0  0  0  0  0  0  0  0  0  0  0
   20.0104  -21.0462  -12.1038 O   0  0  0  0  0  0  0  0  0  0  0  0
  2  1  1  6
  2  4  1  0
  3  2  1  0
  5  6  1  1
  5  4  1  0
  7  5  1  0
  8  7  2  0
 10  9  1  1
 10 12  1  0
 11 10  1  0
 13 12  1  1
 13 14  1  0
 14  7  1  0
 15 13  1  0
 15 17  1  0
 16 15  2  0
 18 19  1  1
 18 17  1  0
 18 24  1  0
 20 21  1  0
 20 19  1  0
 21 22  1  0
 22 23  1  0
 24 25  1  0
 26 24  2  0
M  END
$$$$
