LLK.pdb
     RDKit          3D

 26 25  0  0  1  0  0  0  0  0999 V2000
   19.1644  -15.3629  -18.3471 C   0  0  0  0  0  0  0  0  0  0  0  0
   20.0217  -14.2657  -18.9034 C   0  0  1  0  0  0  0  0  0  0  0  0
   19.2460  -13.3629  -19.8545 C   0  0  0  0  0  0  0  0  0  0  0  0
   20.6977  -13.4458  -17.8315 C   0  0  0  0  0  0  0  0  0  0  0  0
   21.4482  -12.3052  -18.4564 C   0  0  2  0  0  0  0  0  0  0  0  0
   22.6136  -12.7542  -19.1739 N   0  0  0  0  0  0  0  0  0  0  0  0
   21.8730  -11.3358  -17.4160 C   0  0  0  0  0  0  0  0  0  0  0  0
   21.0559  -11.0354  -16.5131 O   0  0  0  0  0  0  0  0  0  0  0  0
   25.5643  -11.4507  -14.7458 C   0  0  0  0  0  0  0  0  0  0  0  0
   25.8170  -11.0379  -16.2159 C   0  0  2  0  0  0  0  0  0  0  0  0
   27.3170  -10.8680  -16.3627 C   0  0  0  0  0  0  0  0  0  0  0  0
   25.0785   -9.7793  -16.4717 C   0  0  0  0  0  0  0  0  0  0  0  0
   23.5966   -9.8141  -16.3982 C   0  0  2  0  0  0  0  0  0  0  0  0
   23.1834  -10.7640  -17.4539 N   0  0  0  0  0  0  0  0  0  0  0  0
   22.9121   -8.5213  -16.6042 C   0  0  0  0  0  0  0  0  0  0  0  0
   22.8052   -8.0743  -17.7730 O   0  0  0  0  0  0  0  0  0  0  0  0
   22.3682   -7.7656  -15.5419 N   0  0  0  0  0  0  0  0  0  0  0  0
   21.6359   -6.5333  -15.8909 C   0  0  1  0  0  0  0  0  0  0  0  0
   20.4235   -6.9976  -16.6714 C   0  0  0  0  0  0  0  0  0  0  0  0
   19.4684   -5.9029  -17.0152 C   0  0  0  0  0  0  0  0  0  0  0  0
   18.3027   -6.5655  -17.7545 C   0  0  0  0  0  0  0  0  0  0  0  0
   17.2650   -5.5313  -18.1591 C   0  0  0  0  0  0  0  0  0  0  0  0
   16.2012   -6.2485  -18.8654 N   0  0  0  0  0  0  0  0  0  0  0  0
   21.2885   -5.8025  -14.6546 C   0  0  0  0  0  0  0  0  0  0  0  0
   20.8862   -4.4833  -14.7212 O   0  0  0  0  0  0  0  0  0  0  0  0
   21.3482   -6.3466  -13.5351 O   0  0  0  0  0  0  0  0  0  0  0  0
  2  1  1  1
  2  4  1  0
  3  2  1  0
  5  6  1  1
  5  4  1  0
  7  5  1  0
  8  7  2  0
 10  9  1  1
 10 12  1  0
 11 10  1  0
 13 12  1  6
 13 14  1  0
 14  7  1  0
 15 13  1  0
 15 17  1  0
 16 15  2  0
 18 19  1  1
 18 17  1  0
 18 24  1  0
 20 21  1  0
 20 19  1  0
 21 22  1  0
 22 23  1  0
 24 25  1  0
 26 24  2  0
M  END
$$$$
