LLK.pdb
     RDKit          3D

 26 25  0  0  1  0  0  0  0  0999 V2000
   16.8220  -24.0213   -9.3356 C   0  0  0  0  0  0  0  0  0  0  0  0
   17.5763  -24.0760  -10.6304 C   0  0  1  0  0  0  0  0  0  0  0  0
   16.6432  -24.1923  -11.8292 C   0  0  0  0  0  0  0  0  0  0  0  0
   18.5231  -22.9142  -10.8096 C   0  0  0  0  0  0  0  0  0  0  0  0
   19.2241  -23.0246  -12.1329 C   0  0  2  0  0  0  0  0  0  0  0  0
   19.7984  -24.3304  -12.3324 N   0  0  0  0  0  0  0  0  0  0  0  0
   20.3021  -22.0095  -12.2317 C   0  0  0  0  0  0  0  0  0  0  0  0
   20.0033  -20.8045  -12.0531 O   0  0  0  0  0  0  0  0  0  0  0  0
   26.2746  -22.0370  -11.4326 C   0  0  0  0  0  0  0  0  0  0  0  0
   25.1290  -21.1441  -11.9670 C   0  0  2  0  0  0  0  0  0  0  0  0
   25.0127  -19.9747  -11.0081 C   0  0  0  0  0  0  0  0  0  0  0  0
   23.8942  -21.9616  -12.0128 C   0  0  0  0  0  0  0  0  0  0  0  0
   22.6967  -21.3783  -12.6672 C   0  0  2  0  0  0  0  0  0  0  0  0
   21.6440  -22.4075  -12.5257 N   0  0  0  0  0  0  0  0  0  0  0  0
   22.8512  -21.0254  -14.0934 C   0  0  0  0  0  0  0  0  0  0  0  0
   22.9546  -21.9505  -14.9364 O   0  0  0  0  0  0  0  0  0  0  0  0
   22.8844  -19.6897  -14.5519 N   0  0  0  0  0  0  0  0  0  0  0  0
   22.9763  -19.4742  -16.0085 C   0  0  1  0  0  0  0  0  0  0  0  0
   22.2056  -18.1969  -16.2719 C   0  0  0  0  0  0  0  0  0  0  0  0
   22.2525  -17.7431  -17.6934 C   0  0  0  0  0  0  0  0  0  0  0  0
   21.3616  -16.5007  -17.7778 C   0  0  0  0  0  0  0  0  0  0  0  0
   21.3152  -15.9678  -19.2006 C   0  0  0  0  0  0  0  0  0  0  0  0
   20.4403  -14.7934  -19.1876 N   0  0  0  0  0  0  0  0  0  0  0  0
   24.3977  -19.3892  -16.4029 C   0  0  0  0  0  0  0  0  0  0  0  0
   24.7948  -19.8173  -17.6542 O   0  0  0  0  0  0  0  0  0  0  0  0
   25.2645  -18.9370  -15.6302 O   0  0  0  0  0  0  0  0  0  0  0  0
  2  1  1  1
  2  4  1  0
  3  2  1  0
  5  6  1  1
  5  4  1  0
  7  5  1  0
  8  7  2  0
 10  9  1  1
 10 12  1  0
 11 10  1  0
 13 12  1  6
 13 14  1  0
 14  7  1  0
 15 13  1  0
 15 17  1  0
 16 15  2  0
 18 19  1  1
 18 17  1  0
 18 24  1  0
 20 21  1  0
 20 19  1  0
 21 22  1  0
 22 23  1  0
 24 25  1  0
 26 24  2  0
M  END
$$$$
