LLK.pdb
     RDKit          3D

 26 25  0  0  1  0  0  0  0  0999 V2000
   26.6348  -20.3949   -8.5211 C   0  0  0  0  0  0  0  0  0  0  0  0
   26.0814  -20.9541   -9.7976 C   0  0  1  0  0  0  0  0  0  0  0  0
   24.6836  -21.5300   -9.6088 C   0  0  0  0  0  0  0  0  0  0  0  0
   26.0925  -19.9570  -10.9307 C   0  0  0  0  0  0  0  0  0  0  0  0
   25.5684  -20.5992  -12.1828 C   0  0  2  0  0  0  0  0  0  0  0  0
   26.4131  -21.6762  -12.6314 N   0  0  0  0  0  0  0  0  0  0  0  0
   25.4582  -19.5951  -13.2700 C   0  0  0  0  0  0  0  0  0  0  0  0
   24.7181  -18.5990  -13.0877 O   0  0  0  0  0  0  0  0  0  0  0  0
   29.2152  -17.9392  -17.6897 C   0  0  0  0  0  0  0  0  0  0  0  0
   27.7737  -17.6998  -17.1798 C   0  0  2  0  0  0  0  0  0  0  0  0
   27.7291  -16.2712  -16.6724 C   0  0  0  0  0  0  0  0  0  0  0  0
   27.4958  -18.6875  -16.1111 C   0  0  0  0  0  0  0  0  0  0  0  0
   26.1313  -18.7173  -15.5280 C   0  0  2  0  0  0  0  0  0  0  0  0
   26.1812  -19.7711  -14.4914 N   0  0  0  0  0  0  0  0  0  0  0  0
   25.0344  -19.0089  -16.4735 C   0  0  0  0  0  0  0  0  0  0  0  0
   25.0676  -20.0826  -17.1242 O   0  0  0  0  0  0  0  0  0  0  0  0
   23.9453  -18.1323  -16.6760 N   0  0  0  0  0  0  0  0  0  0  0  0
   22.9552  -18.5059  -17.7038 C   0  0  1  0  0  0  0  0  0  0  0  0
   21.6373  -18.6191  -16.9655 C   0  0  0  0  0  0  0  0  0  0  0  0
   21.5599  -19.7877  -16.0396 C   0  0  0  0  0  0  0  0  0  0  0  0
   20.1830  -19.7179  -15.3733 C   0  0  0  0  0  0  0  0  0  0  0  0
   19.9889  -20.8830  -14.4166 C   0  0  0  0  0  0  0  0  0  0  0  0
   18.6934  -20.6862  -13.7626 N   0  0  0  0  0  0  0  0  0  0  0  0
   22.9414  -17.4802  -18.7672 C   0  0  0  0  0  0  0  0  0  0  0  0
   23.4220  -16.2115  -18.5104 O   0  0  0  0  0  0  0  0  0  0  0  0
   22.5023  -17.7264  -19.9072 O   0  0  0  0  0  0  0  0  0  0  0  0
  2  1  1  1
  2  4  1  0
  3  2  1  0
  5  6  1  6
  5  4  1  0
  7  5  1  0
  8  7  2  0
 10  9  1  1
 10 12  1  0
 11 10  1  0
 13 12  1  6
 13 14  1  0
 14  7  1  0
 15 13  1  0
 15 17  1  0
 16 15  2  0
 18 19  1  1
 18 17  1  0
 18 24  1  0
 20 21  1  0
 20 19  1  0
 21 22  1  0
 22 23  1  0
 24 25  1  0
 26 24  2  0
M  END
$$$$
