LLK.pdb
     RDKit          3D

 26 25  0  0  1  0  0  0  0  0999 V2000
   17.7699   -8.0694  -22.5218 C   0  0  0  0  0  0  0  0  0  0  0  0
   18.2044   -9.1913  -21.6269 C   0  0  1  0  0  0  0  0  0  0  0  0
   19.4845   -9.8525  -22.1223 C   0  0  0  0  0  0  0  0  0  0  0  0
   18.3520   -8.7707  -20.1848 C   0  0  0  0  0  0  0  0  0  0  0  0
   18.7647   -9.9473  -19.3481 C   0  0  2  0  0  0  0  0  0  0  0  0
   17.6969  -10.9016  -19.1945 N   0  0  0  0  0  0  0  0  0  0  0  0
   19.1982   -9.4962  -18.0022 C   0  0  0  0  0  0  0  0  0  0  0  0
   18.3162   -9.2158  -17.1557 O   0  0  0  0  0  0  0  0  0  0  0  0
   23.7804  -10.9505  -14.5110 C   0  0  0  0  0  0  0  0  0  0  0  0
   22.6801   -9.8674  -14.6178 C   0  0  2  0  0  0  0  0  0  0  0  0
   21.7359  -10.0978  -13.4533 C   0  0  0  0  0  0  0  0  0  0  0  0
   22.0083  -10.0243  -15.9289 C   0  0  0  0  0  0  0  0  0  0  0  0
   21.0045   -9.0050  -16.3236 C   0  0  2  0  0  0  0  0  0  0  0  0
   20.5898   -9.3860  -17.6912 N   0  0  0  0  0  0  0  0  0  0  0  0
   21.4760   -7.6050  -16.3245 C   0  0  0  0  0  0  0  0  0  0  0  0
   22.3582   -7.2656  -17.1514 O   0  0  0  0  0  0  0  0  0  0  0  0
   20.9744   -6.6280  -15.4360 N   0  0  0  0  0  0  0  0  0  0  0  0
   21.5079   -5.2583  -15.5618 C   0  0  1  0  0  0  0  0  0  0  0  0
   20.3619   -4.4327  -16.1093 C   0  0  0  0  0  0  0  0  0  0  0  0
   19.2774   -4.1689  -15.1177 C   0  0  0  0  0  0  0  0  0  0  0  0
   18.2161   -3.3435  -15.8506 C   0  0  0  0  0  0  0  0  0  0  0  0
   17.0067   -3.1102  -14.9600 C   0  0  0  0  0  0  0  0  0  0  0  0
   16.0756   -2.2704  -15.7169 N   0  0  0  0  0  0  0  0  0  0  0  0
   21.9825   -4.7938  -14.2419 C   0  0  0  0  0  0  0  0  0  0  0  0
   22.6996   -3.6182  -14.1395 O   0  0  0  0  0  0  0  0  0  0  0  0
   21.7537   -5.4393  -13.2008 O   0  0  0  0  0  0  0  0  0  0  0  0
  2  1  1  6
  2  4  1  0
  3  2  1  0
  5  6  1  1
  5  4  1  0
  7  5  1  0
  8  7  2  0
 10  9  1  6
 10 12  1  0
 11 10  1  0
 13 12  1  6
 13 14  1  0
 14  7  1  0
 15 13  1  0
 15 17  1  0
 16 15  2  0
 18 19  1  1
 18 17  1  0
 18 24  1  0
 20 21  1  0
 20 19  1  0
 21 22  1  0
 22 23  1  0
 24 25  1  0
 26 24  2  0
M  END
$$$$
