LLK.pdb
     RDKit          3D

 26 25  0  0  1  0  0  0  0  0999 V2000
   26.2829  -20.5751  -20.6043 C   0  0  0  0  0  0  0  0  0  0  0  0
   27.1953  -20.9815  -19.4860 C   0  0  1  0  0  0  0  0  0  0  0  0
   28.2326  -19.9088  -19.1784 C   0  0  0  0  0  0  0  0  0  0  0  0
   26.4517  -21.3713  -18.2316 C   0  0  0  0  0  0  0  0  0  0  0  0
   27.4278  -21.7320  -17.1491 C   0  0  2  0  0  0  0  0  0  0  0  0
   28.0829  -22.9881  -17.4095 N   0  0  0  0  0  0  0  0  0  0  0  0
   26.7363  -21.8176  -15.8388 C   0  0  0  0  0  0  0  0  0  0  0  0
   26.0236  -22.8231  -15.6063 O   0  0  0  0  0  0  0  0  0  0  0  0
   27.9484  -22.2807  -11.4217 C   0  0  0  0  0  0  0  0  0  0  0  0
   28.3675  -21.0423  -12.2500 C   0  0  2  0  0  0  0  0  0  0  0  0
   29.3194  -20.2450  -11.3790 C   0  0  0  0  0  0  0  0  0  0  0  0
   27.1420  -20.2822  -12.5896 C   0  0  0  0  0  0  0  0  0  0  0  0
   26.2000  -20.8807  -13.5679 C   0  0  2  0  0  0  0  0  0  0  0  0
   26.8850  -20.7721  -14.8743 N   0  0  0  0  0  0  0  0  0  0  0  0
   24.8710  -20.2416  -13.6546 C   0  0  0  0  0  0  0  0  0  0  0  0
   24.8037  -19.0301  -13.9787 O   0  0  0  0  0  0  0  0  0  0  0  0
   23.6693  -20.9360  -13.3914 N   0  0  0  0  0  0  0  0  0  0  0  0
   22.4094  -20.1756  -13.4952 C   0  0  1  0  0  0  0  0  0  0  0  0
   21.7183  -20.7160  -14.7302 C   0  0  0  0  0  0  0  0  0  0  0  0
   20.3985  -20.0784  -15.0139 C   0  0  0  0  0  0  0  0  0  0  0  0
   19.8421  -20.7766  -16.2579 C   0  0  0  0  0  0  0  0  0  0  0  0
   18.5604  -20.1052  -16.7234 C   0  0  0  0  0  0  0  0  0  0  0  0
   18.1189  -20.8164  -17.9252 N   0  0  0  0  0  0  0  0  0  0  0  0
   21.6219  -20.3602  -12.2587 C   0  0  0  0  0  0  0  0  0  0  0  0
   20.6760  -19.4223  -11.8949 O   0  0  0  0  0  0  0  0  0  0  0  0
   21.7865  -21.3507  -11.5207 O   0  0  0  0  0  0  0  0  0  0  0  0
  2  1  1  6
  2  4  1  0
  3  2  1  0
  5  6  1  6
  5  4  1  0
  7  5  1  0
  8  7  2  0
 10  9  1  1
 10 12  1  0
 11 10  1  0
 13 12  1  1
 13 14  1  0
 14  7  1  0
 15 13  1  0
 15 17  1  0
 16 15  2  0
 18 19  1  6
 18 17  1  0
 18 24  1  0
 20 21  1  0
 20 19  1  0
 21 22  1  0
 22 23  1  0
 24 25  1  0
 26 24  2  0
M  END
$$$$
