LLK.pdb
     RDKit          3D

 26 25  0  0  1  0  0  0  0  0999 V2000
   26.9600  -19.0941  -19.2931 C   0  0  0  0  0  0  0  0  0  0  0  0
   26.8064  -17.8745  -20.1518 C   0  0  1  0  0  0  0  0  0  0  0  0
   25.3439  -17.4917  -20.3417 C   0  0  0  0  0  0  0  0  0  0  0  0
   27.5990  -16.6941  -19.6450 C   0  0  0  0  0  0  0  0  0  0  0  0
   29.0653  -17.0176  -19.6606 C   0  0  2  0  0  0  0  0  0  0  0  0
   29.4319  -17.9137  -18.5942 N   0  0  0  0  0  0  0  0  0  0  0  0
   29.8686  -15.7758  -19.5372 C   0  0  0  0  0  0  0  0  0  0  0  0
   29.3803  -14.8118  -18.9005 O   0  0  0  0  0  0  0  0  0  0  0  0
   35.7912  -14.6389  -19.6711 C   0  0  0  0  0  0  0  0  0  0  0  0
   34.4338  -13.9016  -19.7667 C   0  0  2  0  0  0  0  0  0  0  0  0
   34.3457  -13.0038  -18.5474 C   0  0  0  0  0  0  0  0  0  0  0  0
   33.3595  -14.9214  -19.7958 C   0  0  0  0  0  0  0  0  0  0  0  0
   31.9624  -14.4560  -19.9805 C   0  0  2  0  0  0  0  0  0  0  0  0
   31.1649  -15.6920  -20.1356 N   0  0  0  0  0  0  0  0  0  0  0  0
   31.7275  -13.5703  -21.1391 C   0  0  0  0  0  0  0  0  0  0  0  0
   31.8362  -14.0476  -22.2957 O   0  0  0  0  0  0  0  0  0  0  0  0
   31.3820  -12.2074  -21.0029 N   0  0  0  0  0  0  0  0  0  0  0  0
   31.1895  -11.4289  -22.2412 C   0  0  1  0  0  0  0  0  0  0  0  0
   29.7232  -11.0487  -22.2492 C   0  0  0  0  0  0  0  0  0  0  0  0
   28.8121  -12.1568  -22.6624 C   0  0  0  0  0  0  0  0  0  0  0  0
   27.3901  -11.5933  -22.5919 C   0  0  0  0  0  0  0  0  0  0  0  0
   26.3682  -12.6696  -22.9200 C   0  0  0  0  0  0  0  0  0  0  0  0
   25.0476  -12.0411  -22.8435 N   0  0  0  0  0  0  0  0  0  0  0  0
   32.0945  -10.2610  -22.2319 C   0  0  0  0  0  0  0  0  0  0  0  0
   32.7431   -9.8982  -21.0682 O   0  0  0  0  0  0  0  0  0  0  0  0
   32.2946   -9.5810  -23.2568 O   0  0  0  0  0  0  0  0  0  0  0  0
  2  1  1  1
  2  4  1  0
  3  2  1  0
  5  6  1  1
  5  4  1  0
  7  5  1  0
  8  7  2  0
 10  9  1  1
 10 12  1  0
 11 10  1  0
 13 12  1  6
 13 14  1  0
 14  7  1  0
 15 13  1  0
 15 17  1  0
 16 15  2  0
 18 19  1  1
 18 17  1  0
 18 24  1  0
 20 21  1  0
 20 19  1  0
 21 22  1  0
 22 23  1  0
 24 25  1  0
 26 24  2  0
M  END
$$$$
