LLK.pdb
     RDKit          3D

 26 25  0  0  1  0  0  0  0  0999 V2000
   19.5154  -21.6930  -14.7700 C   0  0  0  0  0  0  0  0  0  0  0  0
   20.1593  -21.9159  -13.4343 C   0  0  1  0  0  0  0  0  0  0  0  0
   20.6253  -23.3559  -13.2594 C   0  0  0  0  0  0  0  0  0  0  0  0
   21.2929  -20.9577  -13.1601 C   0  0  0  0  0  0  0  0  0  0  0  0
   21.9413  -21.2938  -11.8481 C   0  0  2  0  0  0  0  0  0  0  0  0
   21.0668  -21.0381  -10.7325 N   0  0  0  0  0  0  0  0  0  0  0  0
   23.1848  -20.5036  -11.6700 C   0  0  0  0  0  0  0  0  0  0  0  0
   23.1188  -19.2562  -11.7835 O   0  0  0  0  0  0  0  0  0  0  0  0
   25.7793  -19.2651   -8.3989 C   0  0  0  0  0  0  0  0  0  0  0  0
   25.7777  -20.7795   -8.7181 C   0  0  2  0  0  0  0  0  0  0  0  0
   26.6019  -21.4479   -7.6344 C   0  0  0  0  0  0  0  0  0  0  0  0
   26.3625  -20.9641  -10.0668 C   0  0  0  0  0  0  0  0  0  0  0  0
   25.6546  -20.3578  -11.2217 C   0  0  2  0  0  0  0  0  0  0  0  0
   24.4217  -21.1597  -11.3786 N   0  0  0  0  0  0  0  0  0  0  0  0
   26.3990  -20.3452  -12.4976 C   0  0  0  0  0  0  0  0  0  0  0  0
   27.5278  -19.7959  -12.5325 O   0  0  0  0  0  0  0  0  0  0  0  0
   25.8970  -20.9283  -13.6823 N   0  0  0  0  0  0  0  0  0  0  0  0
   26.6692  -20.7192  -14.9218 C   0  0  1  0  0  0  0  0  0  0  0  0
   27.3526  -22.0435  -15.1939 C   0  0  0  0  0  0  0  0  0  0  0  0
   28.0945  -22.0877  -16.4887 C   0  0  0  0  0  0  0  0  0  0  0  0
   28.6594  -23.5056  -16.6125 C   0  0  0  0  0  0  0  0  0  0  0  0
   29.8406  -23.5323  -17.5686 C   0  0  0  0  0  0  0  0  0  0  0  0
   30.3288  -24.9126  -17.6046 N   0  0  0  0  0  0  0  0  0  0  0  0
   25.7548  -20.3018  -16.0047 C   0  0  0  0  0  0  0  0  0  0  0  0
   26.2650  -19.8849  -17.2182 O   0  0  0  0  0  0  0  0  0  0  0  0
   24.5176  -20.3132  -15.8562 O   0  0  0  0  0  0  0  0  0  0  0  0
  2  1  1  6
  2  4  1  0
  3  2  1  0
  5  6  1  1
  5  4  1  0
  7  5  1  0
  8  7  2  0
 10  9  1  1
 10 12  1  0
 11 10  1  0
 13 12  1  1
 13 14  1  0
 14  7  1  0
 15 13  1  0
 15 17  1  0
 16 15  2  0
 18 19  1  6
 18 17  1  0
 18 24  1  0
 20 21  1  0
 20 19  1  0
 21 22  1  0
 22 23  1  0
 24 25  1  0
 26 24  2  0
M  END
$$$$
