LLK.pdb
     RDKit          3D

 26 25  0  0  1  0  0  0  0  0999 V2000
   27.8985  -19.9890  -16.5139 C   0  0  0  0  0  0  0  0  0  0  0  0
   28.8673  -19.8612  -15.3766 C   0  0  1  0  0  0  0  0  0  0  0  0
   29.3181  -18.4204  -15.1712 C   0  0  0  0  0  0  0  0  0  0  0  0
   28.3388  -20.4377  -14.0855 C   0  0  0  0  0  0  0  0  0  0  0  0
   26.8634  -20.1810  -13.9764 C   0  0  2  0  0  0  0  0  0  0  0  0
   26.5693  -18.7800  -13.8173 N   0  0  0  0  0  0  0  0  0  0  0  0
   26.2951  -20.9214  -12.8225 C   0  0  0  0  0  0  0  0  0  0  0  0
   26.2486  -22.1734  -12.8831 O   0  0  0  0  0  0  0  0  0  0  0  0
   27.6034  -21.2859   -8.9343 C   0  0  0  0  0  0  0  0  0  0  0  0
   26.8286  -19.9624   -9.1428 C   0  0  2  0  0  0  0  0  0  0  0  0
   27.0414  -19.1378   -7.8878 C   0  0  0  0  0  0  0  0  0  0  0  0
   25.4023  -20.2965   -9.3638 C   0  0  0  0  0  0  0  0  0  0  0  0
   25.0274  -20.9328  -10.6512 C   0  0  2  0  0  0  0  0  0  0  0  0
   25.8141  -20.2136  -11.6767 N   0  0  0  0  0  0  0  0  0  0  0  0
   23.5936  -20.8771  -11.0024 C   0  0  0  0  0  0  0  0  0  0  0  0
   22.7482  -21.2399  -10.1474 O   0  0  0  0  0  0  0  0  0  0  0  0
   23.1305  -20.4297  -12.2597 N   0  0  0  0  0  0  0  0  0  0  0  0
   21.6724  -20.4271  -12.4842 C   0  0  1  0  0  0  0  0  0  0  0  0
   21.4374  -19.3925  -13.5655 C   0  0  0  0  0  0  0  0  0  0  0  0
   20.0074  -19.2544  -13.9716 C   0  0  0  0  0  0  0  0  0  0  0  0
   19.9832  -18.2473  -15.1247 C   0  0  0  0  0  0  0  0  0  0  0  0
   18.5532  -17.9008  -15.5060 C   0  0  0  0  0  0  0  0  0  0  0  0
   18.6260  -16.8486  -16.5221 N   0  0  0  0  0  0  0  0  0  0  0  0
   21.2333  -21.7840  -12.8705 C   0  0  0  0  0  0  0  0  0  0  0  0
   19.9328  -22.1833  -12.6344 O   0  0  0  0  0  0  0  0  0  0  0  0
   22.0114  -22.5937  -13.4108 O   0  0  0  0  0  0  0  0  0  0  0  0
  2  1  1  6
  2  4  1  0
  3  2  1  0
  5  6  1  1
  5  4  1  0
  7  5  1  0
  8  7  2  0
 10  9  1  1
 10 12  1  0
 11 10  1  0
 13 12  1  1
 13 14  1  0
 14  7  1  0
 15 13  1  0
 15 17  1  0
 16 15  2  0
 18 19  1  6
 18 17  1  0
 18 24  1  0
 20 21  1  0
 20 19  1  0
 21 22  1  0
 22 23  1  0
 24 25  1  0
 26 24  2  0
M  END
$$$$
