PRW.pdb
     RDKit          3D

 33 35  0  0  1  0  0  0  0  0999 V2000
  -34.4144  -24.7256  -70.4961 N   0  0  0  0  0  0  0  0  0  0  0  0
  -34.4666  -25.6362  -69.3749 C   0  0  0  0  0  0  0  0  0  0  0  0
  -33.0885  -25.7772  -68.8179 C   0  0  0  0  0  0  0  0  0  0  0  0
  -32.2398  -24.8163  -69.6096 C   0  0  0  0  0  0  0  0  0  0  0  0
  -33.2185  -23.9262  -70.3489 C   0  0  1  0  0  0  0  0  0  0  0  0
  -32.7115  -23.6063  -71.7072 C   0  0  0  0  0  0  0  0  0  0  0  0
  -33.2290  -22.6575  -72.3782 O   0  0  0  0  0  0  0  0  0  0  0  0
  -35.1561  -24.8496  -69.2311 N   0  0  0  0  0  0  0  0  0  0  0  0
  -35.7969  -25.1269  -70.4641 C   0  0  0  0  0  0  0  0  0  0  0  0
  -37.0121  -25.5543  -70.5263 N   0  0  0  0  0  0  0  0  0  0  0  0
  -35.1139  -24.9408  -71.6974 N   0  0  0  0  0  0  0  0  0  0  0  0
  -33.7259  -25.2395  -71.7913 C   0  0  0  0  0  0  0  0  0  0  0  0
  -33.4490  -26.6241  -72.3708 C   0  0  0  0  0  0  0  0  0  0  0  0
  -31.9650  -26.7469  -72.5004 C   0  0  0  0  0  0  0  0  0  0  0  0
  -31.1953  -25.5974  -71.9429 C   0  0  2  0  0  0  0  0  0  0  0  0
  -31.6609  -24.2998  -72.3339 N   0  0  0  0  0  0  0  0  0  0  0  0
  -29.7191  -25.7452  -72.1926 C   0  0  0  0  0  0  0  0  0  0  0  0
  -29.0323  -24.7420  -72.5782 O   0  0  0  0  0  0  0  0  0  0  0  0
  -37.7415  -24.8765  -70.8958 N   0  0  0  0  0  0  0  0  0  0  0  0
  -29.0188  -26.9600  -72.0240 C   0  0  2  0  0  0  0  0  0  0  0  0
  -29.4481  -28.2341  -72.5880 C   0  0  0  0  0  0  0  0  0  0  0  0
  -30.6093  -28.7025  -71.7802 C   0  0  0  0  0  0  0  0  0  0  0  0
  -31.0728  -30.0800  -72.0211 C   0  0  0  0  0  0  0  0  0  0  0  0
  -30.5079  -31.0102  -72.9094 N   0  0  0  0  0  0  0  0  0  0  0  0
  -31.2062  -32.1417  -72.8817 C   0  0  0  0  0  0  0  0  0  0  0  0
  -32.2388  -32.0195  -71.9980 C   0  0  0  0  0  0  0  0  0  0  0  0
  -33.2190  -32.9001  -71.6107 C   0  0  0  0  0  0  0  0  0  0  0  0
  -34.1439  -32.5179  -70.6724 C   0  0  0  0  0  0  0  0  0  0  0  0
  -34.0578  -31.2502  -70.1447 C   0  0  0  0  0  0  0  0  0  0  0  0
  -33.0942  -30.3784  -70.5234 C   0  0  0  0  0  0  0  0  0  0  0  0
  -32.1511  -30.7386  -71.4670 C   0  0  0  0  0  0  0  0  0  0  0  0
  -29.5926  -28.1860  -74.0279 O   0  0  0  0  0  0  0  0  0  0  0  0
  -28.7076  -27.6194  -74.7573 O   0  0  0  0  0  0  0  0  0  0  0  0
  2  1  1  0
  3  2  1  0
  4  3  1  0
  4  5  1  0
  5  1  1  0
  5  6  1  6
  6  7  2  0
  8  9  1  0
  9 11  1  0
 10  9  2  0
 11 12  1  0
 12 13  1  0
 13 14  1  0
 15 14  1  6
 15 16  1  0
 16  6  1  0
 17 15  1  0
 18 17  2  0
 19 17  1  0
 20 21  1  1
 20 19  1  0
 21 22  1  0
 22 23  2  0
 23 24  1  0
 25 26  2  0
 25 24  1  0
 27 26  1  0
 28 27  2  0
 29 28  1  0
 29 30  2  0
 30 22  1  0
 30 25  1  0
 31 33  1  0
 31 20  1  0
 32 31  2  0
M  END
$$$$
