PRW.pdb
     RDKit          3D

 33 35  0  0  1  0  0  0  0  0999 V2000
   31.7101  -23.3279  -13.3089 N   0  0  0  0  0  0  0  0  0  0  0  0
   33.0377  -23.7737  -13.6665 C   0  0  0  0  0  0  0  0  0  0  0  0
   33.9729  -23.3999  -12.5642 C   0  0  0  0  0  0  0  0  0  0  0  0
   33.1019  -22.8017  -11.4900 C   0  0  0  0  0  0  0  0  0  0  0  0
   31.6810  -23.1637  -11.8726 C   0  0  1  0  0  0  0  0  0  0  0  0
   30.7540  -22.0474  -11.5581 C   0  0  0  0  0  0  0  0  0  0  0  0
   30.5030  -21.7433  -10.3487 O   0  0  0  0  0  0  0  0  0  0  0  0
   25.2129  -20.1837  -16.2173 N   0  0  0  0  0  0  0  0  0  0  0  0
   24.7481  -18.9655  -15.6627 C   0  0  0  0  0  0  0  0  0  0  0  0
   23.5051  -18.6238  -15.6988 N   0  0  0  0  0  0  0  0  0  0  0  0
   25.6484  -18.0608  -15.0356 N   0  0  0  0  0  0  0  0  0  0  0  0
   27.0059  -18.4369  -14.8343 C   0  0  0  0  0  0  0  0  0  0  0  0
   27.2209  -19.2424  -13.5558 C   0  0  0  0  0  0  0  0  0  0  0  0
   28.6956  -19.4416  -13.4162 C   0  0  0  0  0  0  0  0  0  0  0  0
   29.1016  -20.2861  -12.2558 C   0  0  2  0  0  0  0  0  0  0  0  0
   30.1061  -21.2695  -12.5341 N   0  0  0  0  0  0  0  0  0  0  0  0
   27.9101  -20.9014  -11.5738 C   0  0  0  0  0  0  0  0  0  0  0  0
   27.3593  -21.9420  -12.0646 O   0  0  0  0  0  0  0  0  0  0  0  0
   23.2442  -17.7089  -15.2264 N   0  0  0  0  0  0  0  0  0  0  0  0
   27.3405  -20.3876  -10.3881 C   0  0  2  0  0  0  0  0  0  0  0  0
   26.3090  -21.0704   -9.6163 C   0  0  0  0  0  0  0  0  0  0  0  0
   26.8989  -21.3969   -8.2876 C   0  0  0  0  0  0  0  0  0  0  0  0
   27.1274  -20.2690   -7.3677 C   0  0  0  0  0  0  0  0  0  0  0  0
   26.7211  -18.9377   -7.5580 N   0  0  0  0  0  0  0  0  0  0  0  0
   27.1240  -18.1924   -6.5329 C   0  0  0  0  0  0  0  0  0  0  0  0
   27.7977  -18.9721   -5.6384 C   0  0  0  0  0  0  0  0  0  0  0  0
   28.3884  -18.6786   -4.4337 C   0  0  0  0  0  0  0  0  0  0  0  0
   28.9974  -19.6756   -3.7146 C   0  0  0  0  0  0  0  0  0  0  0  0
   28.9962  -20.9512   -4.2303 C   0  0  0  0  0  0  0  0  0  0  0  0
   28.4160  -21.2455   -5.4173 C   0  0  0  0  0  0  0  0  0  0  0  0
   27.7966  -20.2594   -6.1613 C   0  0  0  0  0  0  0  0  0  0  0  0
   25.0384  -20.3766   -9.6477 O   0  0  0  0  0  0  0  0  0  0  0  0
   23.9953  -20.8938   -9.1178 O   0  0  0  0  0  0  0  0  0  0  0  0
  2  1  1  0
  3  2  1  0
  4  3  1  0
  4  5  1  0
  5  1  1  0
  5  6  1  6
  6  7  2  0
  8  9  1  0
  9 11  1  0
 10  9  2  0
 11 12  1  0
 12 13  1  0
 13 14  1  0
 15 14  1  6
 15 16  1  0
 16  6  1  0
 17 15  1  0
 18 17  2  0
 19 17  1  0
 20 21  1  6
 20 19  1  0
 21 22  1  0
 22 23  2  0
 23 24  1  0
 25 26  2  0
 25 24  1  0
 27 26  1  0
 28 27  2  0
 29 28  1  0
 29 30  2  0
 30 22  1  0
 30 25  1  0
 31 33  1  0
 31 20  1  0
 32 31  2  0
M  END
$$$$
