PRW.pdb
     RDKit          3D

 33 35  0  0  1  0  0  0  0  0999 V2000
   27.0774  -22.5394  -17.1032 N   0  0  0  0  0  0  0  0  0  0  0  0
   27.2287  -22.6345  -18.5374 C   0  0  0  0  0  0  0  0  0  0  0  0
   28.5702  -22.0929  -18.9067 C   0  0  0  0  0  0  0  0  0  0  0  0
   29.2423  -21.7701  -17.5973 C   0  0  0  0  0  0  0  0  0  0  0  0
   28.4033  -22.4488  -16.5334 C   0  0  1  0  0  0  0  0  0  0  0  0
   28.3211  -21.6048  -15.3146 C   0  0  0  0  0  0  0  0  0  0  0  0
   29.3673  -21.3548  -14.6355 O   0  0  0  0  0  0  0  0  0  0  0  0
   21.8342  -19.0880  -16.0978 N   0  0  0  0  0  0  0  0  0  0  0  0
   23.0177  -18.3254  -16.2573 C   0  0  0  0  0  0  0  0  0  0  0  0
   23.5538  -18.1220  -17.4125 N   0  0  0  0  0  0  0  0  0  0  0  0
   23.6678  -17.7466  -15.1328 N   0  0  0  0  0  0  0  0  0  0  0  0
   25.0173  -17.3089  -15.2417 C   0  0  0  0  0  0  0  0  0  0  0  0
   26.0193  -18.4598  -15.2760 C   0  0  0  0  0  0  0  0  0  0  0  0
   26.1018  -18.9994  -13.8846 C   0  0  0  0  0  0  0  0  0  0  0  0
   27.0427  -20.1445  -13.7169 C   0  0  2  0  0  0  0  0  0  0  0  0
   27.1272  -21.0379  -14.8342 N   0  0  0  0  0  0  0  0  0  0  0  0
   26.7827  -20.8933  -12.4383 C   0  0  0  0  0  0  0  0  0  0  0  0
   26.7102  -22.1668  -12.4466 O   0  0  0  0  0  0  0  0  0  0  0  0
   24.4768  -17.5965  -17.4281 N   0  0  0  0  0  0  0  0  0  0  0  0
   26.6068  -20.2611  -11.1878 C   0  0  2  0  0  0  0  0  0  0  0  0
   26.2823  -20.9682   -9.9547 C   0  0  0  0  0  0  0  0  0  0  0  0
   27.4652  -20.8495   -9.0565 C   0  0  0  0  0  0  0  0  0  0  0  0
   27.1929  -20.6077   -7.6290 C   0  0  0  0  0  0  0  0  0  0  0  0
   25.9893  -20.8637   -6.9511 N   0  0  0  0  0  0  0  0  0  0  0  0
   26.1020  -20.4964   -5.6779 C   0  0  0  0  0  0  0  0  0  0  0  0
   27.3511  -19.9935   -5.4565 C   0  0  0  0  0  0  0  0  0  0  0  0
   27.9502  -19.5014   -4.3229 C   0  0  0  0  0  0  0  0  0  0  0  0
   29.2501  -19.0659   -4.3755 C   0  0  0  0  0  0  0  0  0  0  0  0
   29.9178  -19.1372   -5.5764 C   0  0  0  0  0  0  0  0  0  0  0  0
   29.3317  -19.6208   -6.6965 C   0  0  0  0  0  0  0  0  0  0  0  0
   28.0235  -20.0652   -6.6703 C   0  0  0  0  0  0  0  0  0  0  0  0
   24.9845  -20.6020   -9.4272 O   0  0  0  0  0  0  0  0  0  0  0  0
   24.3859  -19.5465   -9.8321 O   0  0  0  0  0  0  0  0  0  0  0  0
  2  1  1  0
  3  2  1  0
  4  3  1  0
  4  5  1  0
  5  1  1  0
  5  6  1  1
  6  7  2  0
  8  9  1  0
  9 11  1  0
 10  9  2  0
 11 12  1  0
 12 13  1  0
 13 14  1  0
 15 14  1  6
 15 16  1  0
 16  6  1  0
 17 15  1  0
 18 17  2  0
 19 17  1  0
 20 21  1  6
 20 19  1  0
 21 22  1  0
 22 23  2  0
 23 24  1  0
 25 26  2  0
 25 24  1  0
 27 26  1  0
 28 27  2  0
 29 28  1  0
 29 30  2  0
 30 22  1  0
 30 25  1  0
 31 33  1  0
 31 20  1  0
 32 31  2  0
M  END
$$$$
