PRW.pdb
     RDKit          3D

 33 35  0  0  1  0  0  0  0  0999 V2000
   28.5081  -21.5174  -17.5441 N   0  0  0  0  0  0  0  0  0  0  0  0
   29.5277  -22.4564  -17.9533 C   0  0  0  0  0  0  0  0  0  0  0  0
   29.8380  -23.3485  -16.7970 C   0  0  0  0  0  0  0  0  0  0  0  0
   28.8680  -22.9489  -15.7155 C   0  0  0  0  0  0  0  0  0  0  0  0
   27.8276  -22.0877  -16.4028 C   0  0  1  0  0  0  0  0  0  0  0  0
   27.4040  -20.9730  -15.5182 C   0  0  0  0  0  0  0  0  0  0  0  0
   28.0951  -19.9070  -15.4535 O   0  0  0  0  0  0  0  0  0  0  0  0
   21.4256  -20.9819  -16.5360 N   0  0  0  0  0  0  0  0  0  0  0  0
   21.1285  -20.8124  -15.1609 C   0  0  0  0  0  0  0  0  0  0  0  0
   20.3485  -21.6165  -14.5220 N   0  0  0  0  0  0  0  0  0  0  0  0
   21.6884  -19.7335  -14.4229 N   0  0  0  0  0  0  0  0  0  0  0  0
   22.6315  -18.8656  -15.0409 C   0  0  0  0  0  0  0  0  0  0  0  0
   24.0046  -19.5064  -15.2242 C   0  0  0  0  0  0  0  0  0  0  0  0
   24.8303  -19.0974  -14.0474 C   0  0  0  0  0  0  0  0  0  0  0  0
   25.9340  -20.0403  -13.7047 C   0  0  2  0  0  0  0  0  0  0  0  0
   26.2508  -21.0069  -14.7141 N   0  0  0  0  0  0  0  0  0  0  0  0
   25.7071  -20.6986  -12.3712 C   0  0  0  0  0  0  0  0  0  0  0  0
   24.8823  -21.6661  -12.2678 O   0  0  0  0  0  0  0  0  0  0  0  0
   20.1905  -21.4149  -13.4912 N   0  0  0  0  0  0  0  0  0  0  0  0
   26.3667  -20.3046  -11.1862 C   0  0  2  0  0  0  0  0  0  0  0  0
   26.0825  -20.8637   -9.8699 C   0  0  0  0  0  0  0  0  0  0  0  0
   27.3017  -20.6658   -9.0366 C   0  0  0  0  0  0  0  0  0  0  0  0
   27.1112  -20.6473   -7.5758 C   0  0  0  0  0  0  0  0  0  0  0  0
   26.0412  -21.2144   -6.8637 N   0  0  0  0  0  0  0  0  0  0  0  0
   26.1900  -20.9791   -5.5632 C   0  0  0  0  0  0  0  0  0  0  0  0
   27.3342  -20.2649   -5.3564 C   0  0  0  0  0  0  0  0  0  0  0  0
   27.9229  -19.7949   -4.2080 C   0  0  0  0  0  0  0  0  0  0  0  0
   29.1062  -19.1049   -4.2841 C   0  0  0  0  0  0  0  0  0  0  0  0
   29.6701  -18.9042   -5.5229 C   0  0  0  0  0  0  0  0  0  0  0  0
   29.0937  -19.3647   -6.6577 C   0  0  0  0  0  0  0  0  0  0  0  0
   27.9017  -20.0621   -6.6083 C   0  0  0  0  0  0  0  0  0  0  0  0
   24.8116  -20.4184   -9.3378 O   0  0  0  0  0  0  0  0  0  0  0  0
   24.3717  -19.2433   -9.5868 O   0  0  0  0  0  0  0  0  0  0  0  0
  2  1  1  0
  3  2  1  0
  4  3  1  0
  4  5  1  0
  5  1  1  0
  5  6  1  1
  6  7  2  0
  8  9  1  0
  9 11  1  0
 10  9  2  0
 11 12  1  0
 12 13  1  0
 13 14  1  0
 15 14  1  6
 15 16  1  0
 16  6  1  0
 17 15  1  0
 18 17  2  0
 19 17  1  0
 20 21  1  1
 20 19  1  0
 21 22  1  0
 22 23  2  0
 23 24  1  0
 25 26  2  0
 25 24  1  0
 27 26  1  0
 28 27  2  0
 29 28  1  0
 29 30  2  0
 30 22  1  0
 30 25  1  0
 31 33  1  0
 31 20  1  0
 32 31  2  0
M  END
$$$$
