PRW.pdb
     RDKit          3D

 33 35  0  0  1  0  0  0  0  0999 V2000
   31.6191  -22.9678  -12.2510 N   0  0  0  0  0  0  0  0  0  0  0  0
   33.0243  -23.0315  -12.5832 C   0  0  0  0  0  0  0  0  0  0  0  0
   33.7605  -22.0774  -11.7016 C   0  0  0  0  0  0  0  0  0  0  0  0
   32.7222  -21.5250  -10.7597 C   0  0  0  0  0  0  0  0  0  0  0  0
   31.5146  -22.4275  -10.9138 C   0  0  1  0  0  0  0  0  0  0  0  0
   30.2590  -21.6391  -10.8353 C   0  0  0  0  0  0  0  0  0  0  0  0
   29.9581  -21.0163   -9.7678 O   0  0  0  0  0  0  0  0  0  0  0  0
   23.0064  -21.3382  -14.1959 N   0  0  0  0  0  0  0  0  0  0  0  0
   23.0086  -19.9268  -14.3224 C   0  0  0  0  0  0  0  0  0  0  0  0
   21.9211  -19.2339  -14.3083 N   0  0  0  0  0  0  0  0  0  0  0  0
   24.2284  -19.2112  -14.4713 N   0  0  0  0  0  0  0  0  0  0  0  0
   25.4693  -19.9049  -14.4102 C   0  0  0  0  0  0  0  0  0  0  0  0
   26.0279  -20.0093  -12.9937 C   0  0  0  0  0  0  0  0  0  0  0  0
   27.3774  -20.6414  -13.1093 C   0  0  0  0  0  0  0  0  0  0  0  0
   28.0881  -20.8310  -11.8118 C   0  0  2  0  0  0  0  0  0  0  0  0
   29.3399  -21.5238  -11.8934 N   0  0  0  0  0  0  0  0  0  0  0  0
   27.1909  -21.4464  -10.7728 C   0  0  0  0  0  0  0  0  0  0  0  0
   27.3863  -22.6471  -10.3894 O   0  0  0  0  0  0  0  0  0  0  0  0
   22.0174  -18.1854  -14.4491 N   0  0  0  0  0  0  0  0  0  0  0  0
   26.1104  -20.7624  -10.1734 C   0  0  2  0  0  0  0  0  0  0  0  0
   25.4065  -21.2308   -8.9856 C   0  0  0  0  0  0  0  0  0  0  0  0
   26.4306  -21.4455   -7.9248 C   0  0  0  0  0  0  0  0  0  0  0  0
   26.9341  -20.2446   -7.2358 C   0  0  0  0  0  0  0  0  0  0  0  0
   26.7914  -18.9133   -7.6614 N   0  0  0  0  0  0  0  0  0  0  0  0
   27.3954  -18.0979   -6.8017 C   0  0  0  0  0  0  0  0  0  0  0  0
   27.9518  -18.8290   -5.7928 C   0  0  0  0  0  0  0  0  0  0  0  0
   28.6599  -18.4554   -4.6768 C   0  0  0  0  0  0  0  0  0  0  0  0
   29.0991  -19.4132   -3.7984 C   0  0  0  0  0  0  0  0  0  0  0  0
   28.8124  -20.7316   -4.0679 C   0  0  0  0  0  0  0  0  0  0  0  0
   28.1155  -21.1050   -5.1665 C   0  0  0  0  0  0  0  0  0  0  0  0
   27.6624  -20.1600   -6.0671 C   0  0  0  0  0  0  0  0  0  0  0  0
   24.2514  -20.4185   -8.6656 O   0  0  0  0  0  0  0  0  0  0  0  0
   24.0039  -19.3450   -9.3158 O   0  0  0  0  0  0  0  0  0  0  0  0
  2  1  1  0
  3  2  1  0
  4  3  1  0
  4  5  1  0
  5  1  1  0
  5  6  1  6
  6  7  2  0
  8  9  1  0
  9 11  1  0
 10  9  2  0
 11 12  1  0
 12 13  1  0
 13 14  1  0
 15 14  1  6
 15 16  1  0
 16  6  1  0
 17 15  1  0
 18 17  2  0
 19 17  1  0
 20 21  1  6
 20 19  1  0
 21 22  1  0
 22 23  2  0
 23 24  1  0
 25 26  2  0
 25 24  1  0
 27 26  1  0
 28 27  2  0
 29 28  1  0
 29 30  2  0
 30 22  1  0
 30 25  1  0
 31 33  1  0
 31 20  1  0
 32 31  2  0
M  END
$$$$
