PRW.pdb
     RDKit          3D

 33 35  0  0  1  0  0  0  0  0999 V2000
   28.5009  -23.7281  -17.4586 N   0  0  0  0  0  0  0  0  0  0  0  0
   29.1603  -24.1229  -18.6827 C   0  0  0  0  0  0  0  0  0  0  0  0
   30.5196  -23.5056  -18.7058 C   0  0  0  0  0  0  0  0  0  0  0  0
   30.6626  -22.8101  -17.3768 C   0  0  0  0  0  0  0  0  0  0  0  0
   29.5289  -23.3367  -16.5201 C   0  0  1  0  0  0  0  0  0  0  0  0
   28.9781  -22.2585  -15.6608 C   0  0  0  0  0  0  0  0  0  0  0  0
   29.6836  -21.7576  -14.7283 O   0  0  0  0  0  0  0  0  0  0  0  0
   24.9156  -16.5355  -17.7628 N   0  0  0  0  0  0  0  0  0  0  0  0
   25.7129  -17.2995  -18.6507 C   0  0  0  0  0  0  0  0  0  0  0  0
   25.3148  -17.6109  -19.8372 N   0  0  0  0  0  0  0  0  0  0  0  0
   27.0014  -17.7578  -18.2610 N   0  0  0  0  0  0  0  0  0  0  0  0
   27.4947  -17.4637  -16.9591 C   0  0  0  0  0  0  0  0  0  0  0  0
   28.0183  -18.6951  -16.2247 C   0  0  0  0  0  0  0  0  0  0  0  0
   26.8241  -19.4132  -15.6842 C   0  0  0  0  0  0  0  0  0  0  0  0
   27.1334  -20.6918  -14.9812 C   0  0  2  0  0  0  0  0  0  0  0  0
   27.6840  -21.7272  -15.8047 N   0  0  0  0  0  0  0  0  0  0  0  0
   25.9530  -21.1912  -14.1935 C   0  0  0  0  0  0  0  0  0  0  0  0
   25.7122  -22.4420  -14.1264 O   0  0  0  0  0  0  0  0  0  0  0  0
   25.9877  -18.1713  -20.4383 N   0  0  0  0  0  0  0  0  0  0  0  0
   25.0632  -20.3410  -13.5009 C   0  0  2  0  0  0  0  0  0  0  0  0
   24.6550  -20.5417  -12.1156 C   0  0  0  0  0  0  0  0  0  0  0  0
   25.8970  -20.7374  -11.3161 C   0  0  0  0  0  0  0  0  0  0  0  0
   25.7359  -20.8455   -9.8557 C   0  0  0  0  0  0  0  0  0  0  0  0
   24.7531  -21.5822   -9.1739 N   0  0  0  0  0  0  0  0  0  0  0  0
   24.9008  -21.4247   -7.8616 C   0  0  0  0  0  0  0  0  0  0  0  0
   25.9595  -20.5992   -7.6172 C   0  0  0  0  0  0  0  0  0  0  0  0
   26.5141  -20.1473   -6.4447 C   0  0  0  0  0  0  0  0  0  0  0  0
   27.6085  -19.3211   -6.4846 C   0  0  0  0  0  0  0  0  0  0  0  0
   28.1198  -18.9683   -7.7123 C   0  0  0  0  0  0  0  0  0  0  0  0
   27.5767  -19.4105   -8.8706 C   0  0  0  0  0  0  0  0  0  0  0  0
   26.4739  -20.2431   -8.8578 C   0  0  0  0  0  0  0  0  0  0  0  0
   23.7023  -19.5484  -11.6657 O   0  0  0  0  0  0  0  0  0  0  0  0
   22.6897  -19.8833  -10.9594 O   0  0  0  0  0  0  0  0  0  0  0  0
  2  1  1  0
  3  2  1  0
  4  3  1  0
  4  5  1  0
  5  1  1  0
  5  6  1  1
  6  7  2  0
  8  9  1  0
  9 11  1  0
 10  9  2  0
 11 12  1  0
 12 13  1  0
 13 14  1  0
 15 14  1  6
 15 16  1  0
 16  6  1  0
 17 15  1  0
 18 17  2  0
 19 17  1  0
 20 21  1  6
 20 19  1  0
 21 22  1  0
 22 23  2  0
 23 24  1  0
 25 26  2  0
 25 24  1  0
 27 26  1  0
 28 27  2  0
 29 28  1  0
 29 30  2  0
 30 22  1  0
 30 25  1  0
 31 33  1  0
 31 20  1  0
 32 31  2  0
M  END
$$$$
