PRW.pdb
     RDKit          3D

 33 35  0  0  1  0  0  0  0  0999 V2000
   26.6436  -21.0560  -18.3057 N   0  0  0  0  0  0  0  0  0  0  0  0
   25.9153  -20.2995  -19.2988 C   0  0  0  0  0  0  0  0  0  0  0  0
   25.6255  -18.9454  -18.7405 C   0  0  0  0  0  0  0  0  0  0  0  0
   26.3162  -18.9116  -17.4017 C   0  0  0  0  0  0  0  0  0  0  0  0
   27.2468  -20.1076  -17.3959 C   0  0  1  0  0  0  0  0  0  0  0  0
   27.2907  -20.7298  -16.0486 C   0  0  0  0  0  0  0  0  0  0  0  0
   26.5310  -21.7114  -15.7701 O   0  0  0  0  0  0  0  0  0  0  0  0
   32.6129  -22.8049  -10.0438 N   0  0  0  0  0  0  0  0  0  0  0  0
   31.7389  -22.2334   -9.0860 C   0  0  0  0  0  0  0  0  0  0  0  0
   31.8616  -22.4598   -7.8223 N   0  0  0  0  0  0  0  0  0  0  0  0
   30.6785  -21.3757   -9.4884 N   0  0  0  0  0  0  0  0  0  0  0  0
   30.6077  -20.9193  -10.8343 C   0  0  0  0  0  0  0  0  0  0  0  0
   29.2246  -21.0970  -11.4549 C   0  0  0  0  0  0  0  0  0  0  0  0
   29.3224  -20.6171  -12.8671 C   0  0  0  0  0  0  0  0  0  0  0  0
   28.0639  -20.7488  -13.6567 C   0  0  2  0  0  0  0  0  0  0  0  0
   28.1421  -20.2998  -15.0153 N   0  0  0  0  0  0  0  0  0  0  0  0
   26.8941  -20.1276  -12.9435 C   0  0  0  0  0  0  0  0  0  0  0  0
   26.7665  -18.8589  -12.9091 O   0  0  0  0  0  0  0  0  0  0  0  0
   31.1616  -21.9859   -7.1790 N   0  0  0  0  0  0  0  0  0  0  0  0
   25.8944  -20.8786  -12.2868 C   0  0  2  0  0  0  0  0  0  0  0  0
   24.8265  -20.2913  -11.4864 C   0  0  0  0  0  0  0  0  0  0  0  0
   23.5404  -20.8425  -11.9984 C   0  0  0  0  0  0  0  0  0  0  0  0
   22.3162  -20.4463  -11.2810 C   0  0  0  0  0  0  0  0  0  0  0  0
   21.2845  -19.6296  -11.7732 N   0  0  0  0  0  0  0  0  0  0  0  0
   20.3533  -19.4666  -10.8378 C   0  0  0  0  0  0  0  0  0  0  0  0
   20.7127  -20.1487   -9.7119 C   0  0  0  0  0  0  0  0  0  0  0  0
   20.0898  -20.2998   -8.4972 C   0  0  0  0  0  0  0  0  0  0  0  0
   20.6753  -21.0694   -7.5242 C   0  0  0  0  0  0  0  0  0  0  0  0
   21.8813  -21.6711   -7.8009 C   0  0  0  0  0  0  0  0  0  0  0  0
   22.4995  -21.5250   -8.9961 C   0  0  0  0  0  0  0  0  0  0  0  0
   21.9311  -20.7547   -9.9926 C   0  0  0  0  0  0  0  0  0  0  0  0
   25.0867  -20.3726  -10.0643 O   0  0  0  0  0  0  0  0  0  0  0  0
   24.7982  -19.3978   -9.2879 O   0  0  0  0  0  0  0  0  0  0  0  0
  2  1  1  0
  3  2  1  0
  4  3  1  0
  4  5  1  0
  5  1  1  0
  5  6  1  1
  6  7  2  0
  8  9  1  0
  9 11  1  0
 10  9  2  0
 11 12  1  0
 12 13  1  0
 13 14  1  0
 15 14  1  1
 15 16  1  0
 16  6  1  0
 17 15  1  0
 18 17  2  0
 19 17  1  0
 20 21  1  6
 20 19  1  0
 21 22  1  0
 22 23  2  0
 23 24  1  0
 25 26  2  0
 25 24  1  0
 27 26  1  0
 28 27  2  0
 29 28  1  0
 29 30  2  0
 30 22  1  0
 30 25  1  0
 31 33  1  0
 31 20  1  0
 32 31  2  0
M  END
$$$$
