PRW.pdb
     RDKit          3D

 33 35  0  0  1  0  0  0  0  0999 V2000
   21.4858  -20.2398  -17.8471 N   0  0  0  0  0  0  0  0  0  0  0  0
   20.4403  -20.4644  -18.8194 C   0  0  0  0  0  0  0  0  0  0  0  0
   19.2720  -21.0787  -18.1215 C   0  0  0  0  0  0  0  0  0  0  0  0
   19.6501  -21.1065  -16.6632 C   0  0  0  0  0  0  0  0  0  0  0  0
   20.8634  -20.2067  -16.5423 C   0  0  1  0  0  0  0  0  0  0  0  0
   21.8294  -20.7603  -15.5600 C   0  0  0  0  0  0  0  0  0  0  0  0
   21.5559  -20.7541  -14.3177 O   0  0  0  0  0  0  0  0  0  0  0  0
   22.0251  -25.5606  -16.9772 N   0  0  0  0  0  0  0  0  0  0  0  0
   22.6550  -26.7388  -16.5048 C   0  0  0  0  0  0  0  0  0  0  0  0
   22.0607  -27.8833  -16.5053 N   0  0  0  0  0  0  0  0  0  0  0  0
   23.9861  -26.7025  -16.0059 N   0  0  0  0  0  0  0  0  0  0  0  0
   24.6883  -25.4662  -15.9484 C   0  0  0  0  0  0  0  0  0  0  0  0
   23.8505  -24.3278  -15.3723 C   0  0  0  0  0  0  0  0  0  0  0  0
   24.7046  -23.1020  -15.4138 C   0  0  0  0  0  0  0  0  0  0  0  0
   24.0183  -21.8513  -14.9786 C   0  0  2  0  0  0  0  0  0  0  0  0
   23.0736  -21.3132  -15.9121 N   0  0  0  0  0  0  0  0  0  0  0  0
   25.0027  -20.8043  -14.5341 C   0  0  0  0  0  0  0  0  0  0  0  0
   24.8076  -19.5781  -14.8263 O   0  0  0  0  0  0  0  0  0  0  0  0
   22.6396  -28.7254  -16.2153 N   0  0  0  0  0  0  0  0  0  0  0  0
   26.1677  -21.0964  -13.7911 C   0  0  2  0  0  0  0  0  0  0  0  0
   27.0949  -20.0856  -13.2968 C   0  0  0  0  0  0  0  0  0  0  0  0
   26.2960  -19.1051  -12.5090 C   0  0  0  0  0  0  0  0  0  0  0  0
   25.8687  -19.5259  -11.1634 C   0  0  0  0  0  0  0  0  0  0  0  0
   26.5968  -19.3824   -9.9706 N   0  0  0  0  0  0  0  0  0  0  0  0
   25.9087  -19.9002   -8.9571 C   0  0  0  0  0  0  0  0  0  0  0  0
   24.7240  -20.3977   -9.4165 C   0  0  0  0  0  0  0  0  0  0  0  0
   23.6787  -21.0111   -8.7705 C   0  0  0  0  0  0  0  0  0  0  0  0
   22.5766  -21.4071   -9.4849 C   0  0  0  0  0  0  0  0  0  0  0  0
   22.5551  -21.1741  -10.8407 C   0  0  0  0  0  0  0  0  0  0  0  0
   23.5829  -20.5706  -11.4822 C   0  0  0  0  0  0  0  0  0  0  0  0
   24.7045  -20.1626  -10.7858 C   0  0  0  0  0  0  0  0  0  0  0  0
   28.2706  -20.6622  -12.6789 O   0  0  0  0  0  0  0  0  0  0  0  0
   28.3581  -21.9237  -12.4854 O   0  0  0  0  0  0  0  0  0  0  0  0
  2  1  1  0
  3  2  1  0
  4  3  1  0
  4  5  1  0
  5  1  1  0
  5  6  1  1
  6  7  2  0
  8  9  1  0
  9 11  1  0
 10  9  2  0
 11 12  1  0
 12 13  1  0
 13 14  1  0
 15 14  1  6
 15 16  1  0
 16  6  1  0
 17 15  1  0
 18 17  2  0
 19 17  1  0
 20 21  1  6
 20 19  1  0
 21 22  1  0
 22 23  2  0
 23 24  1  0
 25 26  2  0
 25 24  1  0
 27 26  1  0
 28 27  2  0
 29 28  1  0
 29 30  2  0
 30 22  1  0
 30 25  1  0
 31 33  1  0
 31 20  1  0
 32 31  2  0
M  END
$$$$
