HRK.pdb
     RDKit          3D

 31 31  0  0  1  0  0  0  0  0999 V2000
   26.2111  -16.4040  -17.7695 N   0  0  0  0  0  0  0  0  0  0  0  0
   25.6043  -16.4290  -16.4831 C   0  0  1  0  0  0  0  0  0  0  0  0
   24.8738  -15.1179  -16.2692 C   0  0  0  0  0  0  0  0  0  0  0  0
   25.8061  -13.9828  -16.1948 C   0  0  0  0  0  0  0  0  0  0  0  0
   26.6194  -13.6561  -15.1356 C   0  0  0  0  0  0  0  0  0  0  0  0
   27.3099  -12.5655  -15.4674 N   0  0  0  0  0  0  0  0  0  0  0  0
   26.9297  -12.2212  -16.7342 C   0  0  0  0  0  0  0  0  0  0  0  0
   26.0184  -13.0828  -17.1875 N   0  0  0  0  0  0  0  0  0  0  0  0
   24.6553  -17.5610  -16.3798 C   0  0  0  0  0  0  0  0  0  0  0  0
   23.9449  -17.8309  -17.3755 O   0  0  0  0  0  0  0  0  0  0  0  0
   23.0483  -24.7461  -14.3102 N   0  0  0  0  0  0  0  0  0  0  0  0
   24.4208  -24.5138  -14.5836 C   0  0  0  0  0  0  0  0  0  0  0  0
   25.0828  -25.1995  -15.4798 N   0  0  0  0  0  0  0  0  0  0  0  0
   25.1290  -23.4922  -13.8506 N   0  0  0  0  0  0  0  0  0  0  0  0
   24.3746  -22.6716  -12.9786 C   0  0  0  0  0  0  0  0  0  0  0  0
   23.4473  -21.6953  -13.7460 C   0  0  0  0  0  0  0  0  0  0  0  0
   24.3321  -20.5720  -14.1118 C   0  0  0  0  0  0  0  0  0  0  0  0
   23.7973  -19.4409  -14.9201 C   0  0  2  0  0  0  0  0  0  0  0  0
   24.5474  -18.3087  -15.2083 N   0  0  0  0  0  0  0  0  0  0  0  0
   22.5095  -19.0477  -14.3007 C   0  0  0  0  0  0  0  0  0  0  0  0
   22.6410  -18.3608  -13.2125 O   0  0  0  0  0  0  0  0  0  0  0  0
   26.0968  -24.9156  -15.6067 N   0  0  0  0  0  0  0  0  0  0  0  0
   21.2581  -19.3705  -14.7919 C   0  0  2  0  0  0  0  0  0  0  0  0
   19.9968  -18.7956  -14.1731 C   0  0  0  0  0  0  0  0  0  0  0  0
   19.2456  -18.1603  -15.2659 C   0  0  0  0  0  0  0  0  0  0  0  0
   18.2103  -17.1719  -14.9866 C   0  0  0  0  0  0  0  0  0  0  0  0
   16.7908  -17.6006  -14.7859 C   0  0  0  0  0  0  0  0  0  0  0  0
   15.8888  -16.3544  -14.5744 N   0  0  0  0  0  0  0  0  0  0  0  0
   14.5414  -16.8628  -14.3586 C   0  0  0  0  0  0  0  0  0  0  0  0
   19.4369  -20.0271  -13.5498 O   0  0  0  0  0  0  0  0  0  0  0  0
   18.5624  -20.0196  -12.5044 O   0  0  0  0  0  0  0  0  0  0  0  0
  2  1  1  6
  2  9  1  0
  2  3  1  0
  3  4  1  0
  4  8  1  0
  4  5  2  0
  5  6  1  0
  7  6  1  0
  8  7  2  0
  9 10  2  0
 12 14  1  0
 12 11  1  0
 13 12  2  0
 15 16  1  0
 15 14  1  0
 16 17  1  0
 18 17  1  1
 19 18  1  0
 19  9  1  0
 20 18  1  0
 21 20  2  0
 22 20  1  0
 23 22  1  0
 24 25  1  0
 23 24  1  6
 25 26  1  0
 26 27  1  0
 27 28  1  0
 29 23  1  0
 29 30  1  0
 31 29  2  0
M  END
$$$$
