HRK.pdb
     RDKit          3D

 31 31  0  0  1  0  0  0  0  0999 V2000
   27.0596  -20.6500  -17.3096 N   0  0  0  0  0  0  0  0  0  0  0  0
   26.5916  -19.7711  -16.2937 C   0  0  1  0  0  0  0  0  0  0  0  0
   26.0017  -18.5408  -16.9549 C   0  0  0  0  0  0  0  0  0  0  0  0
   27.0452  -17.6885  -17.5449 C   0  0  0  0  0  0  0  0  0  0  0  0
   28.3976  -17.9348  -17.5560 C   0  0  0  0  0  0  0  0  0  0  0  0
   28.9950  -16.9260  -18.1898 N   0  0  0  0  0  0  0  0  0  0  0  0
   28.0121  -16.0590  -18.5774 C   0  0  0  0  0  0  0  0  0  0  0  0
   26.8205  -16.5187  -18.1941 N   0  0  0  0  0  0  0  0  0  0  0  0
   25.5660  -20.4405  -15.4615 C   0  0  0  0  0  0  0  0  0  0  0  0
   24.8823  -21.3513  -15.9830 O   0  0  0  0  0  0  0  0  0  0  0  0
   28.8182  -22.8009  -10.3382 N   0  0  0  0  0  0  0  0  0  0  0  0
   28.9923  -21.3959  -10.2475 C   0  0  0  0  0  0  0  0  0  0  0  0
   30.1617  -20.8247  -10.3798 N   0  0  0  0  0  0  0  0  0  0  0  0
   27.8491  -20.5526   -9.9938 N   0  0  0  0  0  0  0  0  0  0  0  0
   26.5725  -21.1634   -9.9976 C   0  0  0  0  0  0  0  0  0  0  0  0
   26.1466  -21.6257  -11.4143 C   0  0  0  0  0  0  0  0  0  0  0  0
   24.9872  -20.7715  -11.7375 C   0  0  0  0  0  0  0  0  0  0  0  0
   24.5472  -20.6247  -13.1531 C   0  0  2  0  0  0  0  0  0  0  0  0
   25.3587  -20.0703  -14.1337 N   0  0  0  0  0  0  0  0  0  0  0  0
   23.2429  -19.9214  -13.1217 C   0  0  0  0  0  0  0  0  0  0  0  0
   23.3178  -18.6994  -12.7043 O   0  0  0  0  0  0  0  0  0  0  0  0
   30.1590  -19.7671  -10.2995 N   0  0  0  0  0  0  0  0  0  0  0  0
   22.0293  -20.4778  -13.4812 C   0  0  1  0  0  0  0  0  0  0  0  0
   20.7515  -19.6586  -13.4640 C   0  0  0  0  0  0  0  0  0  0  0  0
   19.9434  -20.1180  -14.6033 C   0  0  0  0  0  0  0  0  0  0  0  0
   18.6186  -19.5622  -14.8537 C   0  0  0  0  0  0  0  0  0  0  0  0
   17.7333  -20.1617  -15.9006 C   0  0  0  0  0  0  0  0  0  0  0  0
   16.3736  -19.4124  -15.9330 N   0  0  0  0  0  0  0  0  0  0  0  0
   15.6384  -19.9581  -17.0654 C   0  0  0  0  0  0  0  0  0  0  0  0
   20.2738  -19.9642  -12.0866 O   0  0  0  0  0  0  0  0  0  0  0  0
   19.5141  -19.1142  -11.3397 O   0  0  0  0  0  0  0  0  0  0  0  0
  2  1  1  6
  2  9  1  0
  2  3  1  0
  3  4  1  0
  4  8  1  0
  4  5  2  0
  5  6  1  0
  7  6  1  0
  8  7  2  0
  9 10  2  0
 12 14  1  0
 12 11  1  0
 13 12  2  0
 15 16  1  0
 15 14  1  0
 16 17  1  0
 18 17  1  1
 19 18  1  0
 19  9  1  0
 20 18  1  0
 21 20  2  0
 22 20  1  0
 23 22  1  0
 24 25  1  0
 23 24  1  1
 25 26  1  0
 26 27  1  0
 27 28  1  0
 29 23  1  0
 29 30  1  0
 31 29  2  0
M  END
$$$$
