HRK.pdb
     RDKit          3D

 31 31  0  0  1  0  0  0  0  0999 V2000
   18.9506  -24.8143   -9.6697 N   0  0  0  0  0  0  0  0  0  0  0  0
   18.1264  -25.7541   -8.9907 C   0  0  1  0  0  0  0  0  0  0  0  0
   18.8678  -27.0740   -8.9079 C   0  0  0  0  0  0  0  0  0  0  0  0
   19.1285  -27.6349  -10.2424 C   0  0  0  0  0  0  0  0  0  0  0  0
   20.2872  -27.5137  -10.9721 C   0  0  0  0  0  0  0  0  0  0  0  0
   20.1205  -28.1672  -12.1217 N   0  0  0  0  0  0  0  0  0  0  0  0
   18.8617  -28.6991  -12.1005 C   0  0  0  0  0  0  0  0  0  0  0  0
   18.2524  -28.3850  -10.9567 N   0  0  0  0  0  0  0  0  0  0  0  0
   17.8005  -25.2694   -7.6300 C   0  0  0  0  0  0  0  0  0  0  0  0
   18.6407  -24.5520   -7.0399 O   0  0  0  0  0  0  0  0  0  0  0  0
   11.0333  -21.0634   -7.4553 N   0  0  0  0  0  0  0  0  0  0  0  0
   11.6861  -21.7734   -8.4957 C   0  0  0  0  0  0  0  0  0  0  0  0
   11.1632  -21.9087   -9.6872 N   0  0  0  0  0  0  0  0  0  0  0  0
   12.9712  -22.3803   -8.2450 N   0  0  0  0  0  0  0  0  0  0  0  0
   13.5888  -22.1126   -7.0001 C   0  0  0  0  0  0  0  0  0  0  0  0
   14.9980  -22.7491   -6.8944 C   0  0  0  0  0  0  0  0  0  0  0  0
   14.7559  -24.0523   -6.2452 C   0  0  0  0  0  0  0  0  0  0  0  0
   15.8964  -24.9759   -5.9902 C   0  0  2  0  0  0  0  0  0  0  0  0
   16.5946  -25.6011   -7.0145 N   0  0  0  0  0  0  0  0  0  0  0  0
   15.4154  -25.9865   -5.0185 C   0  0  0  0  0  0  0  0  0  0  0  0
   14.7602  -26.9616   -5.5597 O   0  0  0  0  0  0  0  0  0  0  0  0
   11.7621  -22.4362  -10.3856 N   0  0  0  0  0  0  0  0  0  0  0  0
   15.6103  -25.9321   -3.6507 C   0  0  1  0  0  0  0  0  0  0  0  0
   15.0743  -27.0177   -2.7352 C   0  0  0  0  0  0  0  0  0  0  0  0
   16.2395  -27.6156   -2.0668 C   0  0  0  0  0  0  0  0  0  0  0  0
   16.1388  -28.9102   -1.4029 C   0  0  0  0  0  0  0  0  0  0  0  0
   17.0053  -30.0507   -1.8359 C   0  0  0  0  0  0  0  0  0  0  0  0
   16.6019  -31.3396   -1.0693 N   0  0  0  0  0  0  0  0  0  0  0  0
   17.3816  -32.4200   -1.6569 C   0  0  0  0  0  0  0  0  0  0  0  0
   14.1236  -26.2129   -1.9182 O   0  0  0  0  0  0  0  0  0  0  0  0
   13.1616  -26.7542   -1.1189 O   0  0  0  0  0  0  0  0  0  0  0  0
  2  1  1  1
  2  9  1  0
  2  3  1  0
  3  4  1  0
  4  8  1  0
  4  5  2  0
  5  6  1  0
  7  6  1  0
  8  7  2  0
  9 10  2  0
 12 14  1  0
 12 11  1  0
 13 12  2  0
 15 16  1  0
 15 14  1  0
 16 17  1  0
 18 17  1  6
 19 18  1  0
 19  9  1  0
 20 18  1  0
 21 20  2  0
 22 20  1  0
 23 22  1  0
 24 25  1  0
 23 24  1  1
 25 26  1  0
 26 27  1  0
 27 28  1  0
 29 23  1  0
 29 30  1  0
 31 29  2  0
M  END
$$$$
