HRK.pdb
     RDKit          3D

 31 31  0  0  1  0  0  0  0  0999 V2000
   19.0213  -11.4991  -16.8950 N   0  0  0  0  0  0  0  0  0  0  0  0
   18.8785  -11.0304  -15.5595 C   0  0  1  0  0  0  0  0  0  0  0  0
   18.7229  -12.2277  -14.6425 C   0  0  0  0  0  0  0  0  0  0  0  0
   17.5253  -13.0141  -14.9749 C   0  0  0  0  0  0  0  0  0  0  0  0
   17.4002  -13.9290  -15.9934 C   0  0  0  0  0  0  0  0  0  0  0  0
   16.1631  -14.4234  -15.9535 N   0  0  0  0  0  0  0  0  0  0  0  0
   15.5248  -13.8202  -14.9063 C   0  0  0  0  0  0  0  0  0  0  0  0
   16.3491  -12.9647  -14.3006 N   0  0  0  0  0  0  0  0  0  0  0  0
   20.0625  -10.2360  -15.1598 C   0  0  0  0  0  0  0  0  0  0  0  0
   20.0906   -9.7560  -14.0032 O   0  0  0  0  0  0  0  0  0  0  0  0
   28.1246  -10.6246  -18.4387 N   0  0  0  0  0  0  0  0  0  0  0  0
   28.1343   -9.2553  -18.0676 C   0  0  0  0  0  0  0  0  0  0  0  0
   29.1052   -8.4452  -18.4032 N   0  0  0  0  0  0  0  0  0  0  0  0
   27.0446   -8.7226  -17.2859 N   0  0  0  0  0  0  0  0  0  0  0  0
   25.8038   -9.4005  -17.3469 C   0  0  0  0  0  0  0  0  0  0  0  0
   24.7286   -8.7400  -16.4471 C   0  0  0  0  0  0  0  0  0  0  0  0
   23.5244   -9.5662  -16.6606 C   0  0  0  0  0  0  0  0  0  0  0  0
   22.2758   -9.2642  -15.9066 C   0  0  2  0  0  0  0  0  0  0  0  0
   21.1198  -10.0210  -16.0424 N   0  0  0  0  0  0  0  0  0  0  0  0
   21.9717   -7.8331  -16.1441 C   0  0  0  0  0  0  0  0  0  0  0  0
   21.7520   -7.5445  -17.3857 O   0  0  0  0  0  0  0  0  0  0  0  0
   28.9459   -7.4251  -18.1604 N   0  0  0  0  0  0  0  0  0  0  0  0
   21.9278   -6.8556  -15.1674 C   0  0  1  0  0  0  0  0  0  0  0  0
   21.5712   -5.4195  -15.5060 C   0  0  0  0  0  0  0  0  0  0  0  0
   20.1123   -5.3810  -15.6857 C   0  0  0  0  0  0  0  0  0  0  0  0
   19.3883   -4.1152  -15.6606 C   0  0  0  0  0  0  0  0  0  0  0  0
   17.8921   -4.1004  -15.6715 C   0  0  0  0  0  0  0  0  0  0  0  0
   17.3801   -2.6357  -15.7353 N   0  0  0  0  0  0  0  0  0  0  0  0
   15.9268   -2.7131  -15.6859 C   0  0  0  0  0  0  0  0  0  0  0  0
   22.1588   -4.7278  -14.3249 O   0  0  0  0  0  0  0  0  0  0  0  0
   22.6256   -5.3746  -13.2198 O   0  0  0  0  0  0  0  0  0  0  0  0
  2  1  1  6
  2  9  1  0
  2  3  1  0
  3  4  1  0
  4  8  1  0
  4  5  2  0
  5  6  1  0
  7  6  1  0
  8  7  2  0
  9 10  2  0
 12 14  1  0
 12 11  1  0
 13 12  2  0
 15 16  1  0
 15 14  1  0
 16 17  1  0
 18 17  1  6
 19 18  1  0
 19  9  1  0
 20 18  1  0
 21 20  2  0
 22 20  1  0
 23 22  1  0
 24 25  1  0
 23 24  1  1
 25 26  1  0
 26 27  1  0
 27 28  1  0
 29 23  1  0
 29 30  1  0
 31 29  2  0
M  END
$$$$
