HRK.pdb
     RDKit          3D

 31 31  0  0  1  0  0  0  0  0999 V2000
   20.6178  -17.3902  -16.3349 N   0  0  0  0  0  0  0  0  0  0  0  0
   20.0687  -16.4260  -17.2250 C   0  0  1  0  0  0  0  0  0  0  0  0
   18.5576  -16.5440  -17.1910 C   0  0  0  0  0  0  0  0  0  0  0  0
   18.1037  -17.8507  -17.6908 C   0  0  0  0  0  0  0  0  0  0  0  0
   18.3601  -18.3906  -18.9288 C   0  0  0  0  0  0  0  0  0  0  0  0
   17.7770  -19.5878  -18.9850 N   0  0  0  0  0  0  0  0  0  0  0  0
   17.1660  -19.7922  -17.7797 C   0  0  0  0  0  0  0  0  0  0  0  0
   17.3651  -18.7416  -16.9828 N   0  0  0  0  0  0  0  0  0  0  0  0
   20.4798  -15.0603  -16.8272 C   0  0  0  0  0  0  0  0  0  0  0  0
   20.6670  -14.8290  -15.6105 O   0  0  0  0  0  0  0  0  0  0  0  0
   25.6716  -10.9601  -21.7992 N   0  0  0  0  0  0  0  0  0  0  0  0
   25.3460  -12.3373  -21.8981 C   0  0  0  0  0  0  0  0  0  0  0  0
   25.6542  -13.0568  -22.9464 N   0  0  0  0  0  0  0  0  0  0  0  0
   24.6434  -12.9817  -20.8148 N   0  0  0  0  0  0  0  0  0  0  0  0
   24.4140  -12.2235  -19.6420 C   0  0  0  0  0  0  0  0  0  0  0  0
   23.5854  -13.0043  -18.5903 C   0  0  0  0  0  0  0  0  0  0  0  0
   22.2898  -12.2981  -18.5573 C   0  0  0  0  0  0  0  0  0  0  0  0
   21.2042  -12.7839  -17.6605 C   0  0  2  0  0  0  0  0  0  0  0  0
   20.6527  -14.0529  -17.7751 N   0  0  0  0  0  0  0  0  0  0  0  0
   20.1308  -11.7626  -17.7011 C   0  0  0  0  0  0  0  0  0  0  0  0
   19.3818  -11.8331  -18.7533 O   0  0  0  0  0  0  0  0  0  0  0  0
   25.3319  -14.0667  -22.9112 N   0  0  0  0  0  0  0  0  0  0  0  0
   19.9156  -10.7947  -16.7376 C   0  0  1  0  0  0  0  0  0  0  0  0
   18.8214   -9.7547  -16.8967 C   0  0  0  0  0  0  0  0  0  0  0  0
   17.8352  -10.0184  -15.8384 C   0  0  0  0  0  0  0  0  0  0  0  0
   16.6238   -9.2141  -15.7271 C   0  0  0  0  0  0  0  0  0  0  0  0
   15.5601   -9.5827  -14.7413 C   0  0  0  0  0  0  0  0  0  0  0  0
   14.3092   -8.6881  -14.9567 N   0  0  0  0  0  0  0  0  0  0  0  0
   13.3420   -9.0961  -13.9474 C   0  0  0  0  0  0  0  0  0  0  0  0
   19.6388   -8.5125  -16.8108 O   0  0  0  0  0  0  0  0  0  0  0  0
   19.1659   -7.2695  -17.1088 O   0  0  0  0  0  0  0  0  0  0  0  0
  2  1  1  1
  2  9  1  0
  2  3  1  0
  3  4  1  0
  4  8  1  0
  4  5  2  0
  5  6  1  0
  7  6  1  0
  8  7  2  0
  9 10  2  0
 12 14  1  0
 12 11  1  0
 13 12  2  0
 15 16  1  0
 15 14  1  0
 16 17  1  0
 18 17  1  6
 19 18  1  0
 19  9  1  0
 20 18  1  0
 21 20  2  0
 22 20  1  0
 23 22  1  0
 24 25  1  0
 23 24  1  6
 25 26  1  0
 26 27  1  0
 27 28  1  0
 29 23  1  0
 29 30  1  0
 31 29  2  0
M  END
$$$$
