HRK.pdb
     RDKit          3D

 31 31  0  0  1  0  0  0  0  0999 V2000
   27.3945  -24.3416  -16.6765 N   0  0  0  0  0  0  0  0  0  0  0  0
   26.7450  -23.1529  -17.1108 C   0  0  1  0  0  0  0  0  0  0  0  0
   25.7702  -23.5121  -18.2149 C   0  0  0  0  0  0  0  0  0  0  0  0
   26.3710  -23.3412  -19.5465 C   0  0  0  0  0  0  0  0  0  0  0  0
   27.6225  -22.8453  -19.8252 C   0  0  0  0  0  0  0  0  0  0  0  0
   27.7856  -22.8580  -21.1479 N   0  0  0  0  0  0  0  0  0  0  0  0
   26.6383  -23.3684  -21.6876 C   0  0  0  0  0  0  0  0  0  0  0  0
   25.7734  -23.6713  -20.7189 N   0  0  0  0  0  0  0  0  0  0  0  0
   26.0241  -22.5156  -15.9853 C   0  0  0  0  0  0  0  0  0  0  0  0
   25.8590  -23.1794  -14.9360 O   0  0  0  0  0  0  0  0  0  0  0  0
   26.3440  -14.1197  -15.5858 N   0  0  0  0  0  0  0  0  0  0  0  0
   26.6833  -15.1015  -16.5520 C   0  0  0  0  0  0  0  0  0  0  0  0
   27.0585  -14.7899  -17.7659 N   0  0  0  0  0  0  0  0  0  0  0  0
   26.6108  -16.4994  -16.2012 N   0  0  0  0  0  0  0  0  0  0  0  0
   26.2956  -16.8211  -14.8595 C   0  0  0  0  0  0  0  0  0  0  0  0
   26.4152  -18.3401  -14.5760 C   0  0  0  0  0  0  0  0  0  0  0  0
   25.1686  -18.9076  -15.1259 C   0  0  0  0  0  0  0  0  0  0  0  0
   24.9651  -20.3832  -15.1297 C   0  0  2  0  0  0  0  0  0  0  0  0
   25.5365  -21.2135  -16.0845 N   0  0  0  0  0  0  0  0  0  0  0  0
   23.5014  -20.6102  -15.0758 C   0  0  0  0  0  0  0  0  0  0  0  0
   22.9202  -20.5495  -16.2297 O   0  0  0  0  0  0  0  0  0  0  0  0
   27.2910  -15.6139  -18.3919 N   0  0  0  0  0  0  0  0  0  0  0  0
   22.7752  -20.8543  -13.9248 C   0  0  2  0  0  0  0  0  0  0  0  0
   21.2774  -21.0950  -13.9749 C   0  0  0  0  0  0  0  0  0  0  0  0
   20.9575  -21.9841  -12.8483 C   0  0  0  0  0  0  0  0  0  0  0  0
   19.5854  -22.4091  -12.5964 C   0  0  0  0  0  0  0  0  0  0  0  0
   19.2470  -23.1735  -11.3553 C   0  0  0  0  0  0  0  0  0  0  0  0
   17.7226  -23.4669  -11.3163 N   0  0  0  0  0  0  0  0  0  0  0  0
   17.4784  -24.1701  -10.0648 C   0  0  0  0  0  0  0  0  0  0  0  0
   20.7933  -19.6871  -13.9269 O   0  0  0  0  0  0  0  0  0  0  0  0
   21.5028  -18.6576  -13.3846 O   0  0  0  0  0  0  0  0  0  0  0  0
  2  1  1  1
  2  9  1  0
  2  3  1  0
  3  4  1  0
  4  8  1  0
  4  5  2  0
  5  6  1  0
  7  6  1  0
  8  7  2  0
  9 10  2  0
 12 14  1  0
 12 11  1  0
 13 12  2  0
 15 16  1  0
 15 14  1  0
 16 17  1  0
 18 17  1  6
 19 18  1  0
 19  9  1  0
 20 18  1  0
 21 20  2  0
 22 20  1  0
 23 22  1  0
 24 25  1  0
 23 24  1  1
 25 26  1  0
 26 27  1  0
 27 28  1  0
 29 23  1  0
 29 30  1  0
 31 29  2  0
M  END
$$$$
