HRK.pdb
     RDKit          3D

 31 31  0  0  1  0  0  0  0  0999 V2000
   18.3587  -22.6075  -14.0233 N   0  0  0  0  0  0  0  0  0  0  0  0
   19.0418  -22.6247  -12.7756 C   0  0  1  0  0  0  0  0  0  0  0  0
   19.0026  -21.2288  -12.1853 C   0  0  0  0  0  0  0  0  0  0  0  0
   19.7769  -20.2753  -12.9943 C   0  0  0  0  0  0  0  0  0  0  0  0
   19.2895  -19.4462  -13.9766 C   0  0  0  0  0  0  0  0  0  0  0  0
   20.3094  -18.7390  -14.4625 N   0  0  0  0  0  0  0  0  0  0  0  0
   21.4266  -19.1249  -13.7763 C   0  0  0  0  0  0  0  0  0  0  0  0
   21.1104  -20.0560  -12.8756 N   0  0  0  0  0  0  0  0  0  0  0  0
   18.4025  -23.5857  -11.8481 C   0  0  0  0  0  0  0  0  0  0  0  0
   17.1513  -23.6400  -11.8214 O   0  0  0  0  0  0  0  0  0  0  0  0
   21.6544  -31.3464  -10.8869 N   0  0  0  0  0  0  0  0  0  0  0  0
   20.5339  -31.5383  -10.0384 C   0  0  0  0  0  0  0  0  0  0  0  0
   20.1520  -32.7241   -9.6390 N   0  0  0  0  0  0  0  0  0  0  0  0
   19.7726  -30.3949   -9.5961 N   0  0  0  0  0  0  0  0  0  0  0  0
   20.0981  -29.1366  -10.1561 C   0  0  0  0  0  0  0  0  0  0  0  0
   19.1510  -28.0123   -9.6652 C   0  0  0  0  0  0  0  0  0  0  0  0
   19.6083  -26.8133  -10.3943 C   0  0  0  0  0  0  0  0  0  0  0  0
   18.8218  -25.5510  -10.3111 C   0  0  2  0  0  0  0  0  0  0  0  0
   19.1655  -24.4087  -11.0214 N   0  0  0  0  0  0  0  0  0  0  0  0
   18.6889  -25.2276   -8.8707 C   0  0  0  0  0  0  0  0  0  0  0  0
   19.7207  -24.6274   -8.3724 O   0  0  0  0  0  0  0  0  0  0  0  0
   19.2586  -32.7419   -9.0677 N   0  0  0  0  0  0  0  0  0  0  0  0
   17.5922  -25.5293   -8.0846 C   0  0  2  0  0  0  0  0  0  0  0  0
   17.4505  -24.9674   -6.6817 C   0  0  0  0  0  0  0  0  0  0  0  0
   16.0267  -24.6483   -6.4996 C   0  0  0  0  0  0  0  0  0  0  0  0
   15.5537  -24.0067   -5.2784 C   0  0  0  0  0  0  0  0  0  0  0  0
   14.1098  -23.6452   -5.1253 C   0  0  0  0  0  0  0  0  0  0  0  0
   13.8790  -22.9696   -3.7463 N   0  0  0  0  0  0  0  0  0  0  0  0
   12.5161  -22.4573   -3.7703 C   0  0  0  0  0  0  0  0  0  0  0  0
   18.0307  -26.0937   -5.8984 O   0  0  0  0  0  0  0  0  0  0  0  0
   18.6395  -25.9435   -4.6883 O   0  0  0  0  0  0  0  0  0  0  0  0
  2  1  1  6
  2  9  1  0
  2  3  1  0
  3  4  1  0
  4  8  1  0
  4  5  2  0
  5  6  1  0
  7  6  1  0
  8  7  2  0
  9 10  2  0
 12 14  1  0
 12 11  1  0
 13 12  2  0
 15 16  1  0
 15 14  1  0
 16 17  1  0
 18 17  1  1
 19 18  1  0
 19  9  1  0
 20 18  1  0
 21 20  2  0
 22 20  1  0
 23 22  1  0
 24 25  1  0
 23 24  1  6
 25 26  1  0
 26 27  1  0
 27 28  1  0
 29 23  1  0
 29 30  1  0
 31 29  2  0
M  END
$$$$
