HRK.pdb
     RDKit          3D

 31 31  0  0  1  0  0  0  0  0999 V2000
   21.2944  -15.2661  -17.7715 N   0  0  0  0  0  0  0  0  0  0  0  0
   21.0365  -16.2153  -16.7438 C   0  0  1  0  0  0  0  0  0  0  0  0
   19.6173  -16.0162  -16.2489 C   0  0  0  0  0  0  0  0  0  0  0  0
   19.4230  -14.6723  -15.6837 C   0  0  0  0  0  0  0  0  0  0  0  0
   20.3615  -13.6708  -15.6053 C   0  0  0  0  0  0  0  0  0  0  0  0
   19.7881  -12.6127  -15.0326 N   0  0  0  0  0  0  0  0  0  0  0  0
   18.4930  -12.9564  -14.7632 C   0  0  0  0  0  0  0  0  0  0  0  0
   18.2601  -14.2073  -15.1622 N   0  0  0  0  0  0  0  0  0  0  0  0
   21.2058  -17.5938  -17.2573 C   0  0  0  0  0  0  0  0  0  0  0  0
   21.3630  -17.7514  -18.4899 O   0  0  0  0  0  0  0  0  0  0  0  0
   27.1666  -22.4865  -17.6654 N   0  0  0  0  0  0  0  0  0  0  0  0
   26.6966  -21.9183  -16.4535 C   0  0  0  0  0  0  0  0  0  0  0  0
   27.2517  -22.1757  -15.2972 N   0  0  0  0  0  0  0  0  0  0  0  0
   25.5617  -21.0273  -16.4788 N   0  0  0  0  0  0  0  0  0  0  0  0
   25.0103  -20.7069  -17.7422 C   0  0  0  0  0  0  0  0  0  0  0  0
   23.7765  -19.7761  -17.6258 C   0  0  0  0  0  0  0  0  0  0  0  0
   22.7849  -20.5843  -16.8897 C   0  0  0  0  0  0  0  0  0  0  0  0
   21.4210  -20.0386  -16.6430 C   0  0  2  0  0  0  0  0  0  0  0  0
   21.1884  -18.6918  -16.3987 N   0  0  0  0  0  0  0  0  0  0  0  0
   20.8255  -20.8571  -15.5602 C   0  0  0  0  0  0  0  0  0  0  0  0
   20.7725  -20.2534  -14.4175 O   0  0  0  0  0  0  0  0  0  0  0  0
   26.7888  -21.7144  -14.4617 N   0  0  0  0  0  0  0  0  0  0  0  0
   20.3668  -22.1536  -15.7024 C   0  0  1  0  0  0  0  0  0  0  0  0
   19.5601  -22.8280  -14.6077 C   0  0  0  0  0  0  0  0  0  0  0  0
   19.2560  -21.7905  -13.6111 C   0  0  0  0  0  0  0  0  0  0  0  0
   18.3819  -22.0738  -12.4786 C   0  0  0  0  0  0  0  0  0  0  0  0
   17.9237  -20.9666  -11.5824 C   0  0  0  0  0  0  0  0  0  0  0  0
   16.9427  -21.5241  -10.5154 N   0  0  0  0  0  0  0  0  0  0  0  0
   16.5570  -20.3889   -9.6889 C   0  0  0  0  0  0  0  0  0  0  0  0
   18.4410  -23.3795  -15.4214 O   0  0  0  0  0  0  0  0  0  0  0  0
   17.7300  -24.4914  -15.0812 O   0  0  0  0  0  0  0  0  0  0  0  0
  2  1  1  6
  2  9  1  0
  2  3  1  0
  3  4  1  0
  4  8  1  0
  4  5  2  0
  5  6  1  0
  7  6  1  0
  8  7  2  0
  9 10  2  0
 12 14  1  0
 12 11  1  0
 13 12  2  0
 15 16  1  0
 15 14  1  0
 16 17  1  0
 18 17  1  1
 19 18  1  0
 19  9  1  0
 20 18  1  0
 21 20  2  0
 22 20  1  0
 23 22  1  0
 24 25  1  0
 23 24  1  1
 25 26  1  0
 26 27  1  0
 27 28  1  0
 29 23  1  0
 29 30  1  0
 31 29  2  0
M  END
$$$$
