HRK.pdb
     RDKit          3D

 31 31  0  0  1  0  0  0  0  0999 V2000
   18.9881  -12.5797  -15.4402 N   0  0  0  0  0  0  0  0  0  0  0  0
   18.7160  -11.4147  -16.2097 C   0  0  1  0  0  0  0  0  0  0  0  0
   17.2131  -11.2631  -16.3398 C   0  0  0  0  0  0  0  0  0  0  0  0
   16.6338  -12.3102  -17.1949 C   0  0  0  0  0  0  0  0  0  0  0  0
   17.2853  -13.0280  -18.1697 C   0  0  0  0  0  0  0  0  0  0  0  0
   16.4119  -13.8787  -18.7081 N   0  0  0  0  0  0  0  0  0  0  0  0
   15.2220  -13.6928  -18.0618 C   0  0  0  0  0  0  0  0  0  0  0  0
   15.3497  -12.7435  -17.1341 N   0  0  0  0  0  0  0  0  0  0  0  0
   19.2919  -10.2167  -15.5573 C   0  0  0  0  0  0  0  0  0  0  0  0
   18.9515   -9.9627  -14.3790 O   0  0  0  0  0  0  0  0  0  0  0  0
   26.1314  -10.6989  -15.5798 N   0  0  0  0  0  0  0  0  0  0  0  0
   25.0267  -11.5353  -15.8843 C   0  0  0  0  0  0  0  0  0  0  0  0
   25.0197  -12.8145  -15.6103 N   0  0  0  0  0  0  0  0  0  0  0  0
   23.8634  -10.9715  -16.5257 N   0  0  0  0  0  0  0  0  0  0  0  0
   23.8870   -9.5881  -16.8232 C   0  0  0  0  0  0  0  0  0  0  0  0
   23.3759   -8.7244  -15.6421 C   0  0  0  0  0  0  0  0  0  0  0  0
   22.2612   -7.9488  -16.2202 C   0  0  0  0  0  0  0  0  0  0  0  0
   20.8604   -8.2478  -15.8113 C   0  0  2  0  0  0  0  0  0  0  0  0
   20.1869   -9.3870  -16.2310 N   0  0  0  0  0  0  0  0  0  0  0  0
   20.0585   -7.0426  -16.1295 C   0  0  0  0  0  0  0  0  0  0  0  0
   19.5772   -7.0371  -17.3301 O   0  0  0  0  0  0  0  0  0  0  0  0
   24.1568  -13.3402  -15.9327 N   0  0  0  0  0  0  0  0  0  0  0  0
   19.8275   -5.9886  -15.2650 C   0  0  1  0  0  0  0  0  0  0  0  0
   18.9480   -4.8187  -15.6670 C   0  0  0  0  0  0  0  0  0  0  0  0
   17.5762   -5.1697  -15.2708 C   0  0  0  0  0  0  0  0  0  0  0  0
   16.5204   -4.1637  -15.2571 C   0  0  0  0  0  0  0  0  0  0  0  0
   15.1182   -4.5449  -14.8999 C   0  0  0  0  0  0  0  0  0  0  0  0
   14.1802   -3.3186  -15.0663 N   0  0  0  0  0  0  0  0  0  0  0  0
   12.8595   -3.7593  -14.6397 C   0  0  0  0  0  0  0  0  0  0  0  0
   19.6384   -3.7202  -14.9353 O   0  0  0  0  0  0  0  0  0  0  0  0
   20.6540   -3.9187  -14.0484 O   0  0  0  0  0  0  0  0  0  0  0  0
  2  1  1  1
  2  9  1  0
  2  3  1  0
  3  4  1  0
  4  8  1  0
  4  5  2  0
  5  6  1  0
  7  6  1  0
  8  7  2  0
  9 10  2  0
 12 14  1  0
 12 11  1  0
 13 12  2  0
 15 16  1  0
 15 14  1  0
 16 17  1  0
 18 17  1  6
 19 18  1  0
 19  9  1  0
 20 18  1  0
 21 20  2  0
 22 20  1  0
 23 22  1  0
 24 25  1  0
 23 24  1  6
 25 26  1  0
 26 27  1  0
 27 28  1  0
 29 23  1  0
 29 30  1  0
 31 29  2  0
M  END
$$$$
