HRK.pdb
     RDKit          3D

 31 31  0  0  1  0  0  0  0  0999 V2000
   35.7117  -33.8091  -10.1234 N   0  0  0  0  0  0  0  0  0  0  0  0
   36.2947  -33.8118  -11.4209 C   0  0  1  0  0  0  0  0  0  0  0  0
   36.1242  -35.1927  -12.0231 C   0  0  0  0  0  0  0  0  0  0  0  0
   36.9437  -36.1946  -11.3245 C   0  0  0  0  0  0  0  0  0  0  0  0
   36.5549  -36.9795  -10.2650 C   0  0  0  0  0  0  0  0  0  0  0  0
   37.5845  -37.7556   -9.9274 N   0  0  0  0  0  0  0  0  0  0  0  0
   38.6080  -37.4565  -10.7823 C   0  0  0  0  0  0  0  0  0  0  0  0
   38.2245  -36.5109  -11.6408 N   0  0  0  0  0  0  0  0  0  0  0  0
   35.6445  -32.7988  -12.2833 C   0  0  0  0  0  0  0  0  0  0  0  0
   34.4616  -32.4754  -12.0282 O   0  0  0  0  0  0  0  0  0  0  0  0
   36.1148  -25.5334  -13.5418 N   0  0  0  0  0  0  0  0  0  0  0  0
   35.5402  -25.6898  -14.8294 C   0  0  0  0  0  0  0  0  0  0  0  0
   34.7802  -24.7746  -15.3736 N   0  0  0  0  0  0  0  0  0  0  0  0
   35.7877  -26.8994  -15.5765 N   0  0  0  0  0  0  0  0  0  0  0  0
   36.2075  -28.0406  -14.8523 C   0  0  0  0  0  0  0  0  0  0  0  0
   36.5375  -29.2370  -15.7807 C   0  0  0  0  0  0  0  0  0  0  0  0
   36.9790  -30.2987  -14.8554 C   0  0  0  0  0  0  0  0  0  0  0  0
   35.9691  -31.1689  -14.1909 C   0  0  2  0  0  0  0  0  0  0  0  0
   36.3229  -32.2187  -13.3539 N   0  0  0  0  0  0  0  0  0  0  0  0
   35.0627  -31.6580  -15.2567 C   0  0  0  0  0  0  0  0  0  0  0  0
   35.5310  -32.6650  -15.9198 O   0  0  0  0  0  0  0  0  0  0  0  0
   34.3115  -25.0587  -16.2817 N   0  0  0  0  0  0  0  0  0  0  0  0
   33.8282  -31.1159  -15.5631 C   0  0  2  0  0  0  0  0  0  0  0  0
   32.8143  -31.8842  -16.3911 C   0  0  0  0  0  0  0  0  0  0  0  0
   31.4889  -31.5423  -15.8541 C   0  0  0  0  0  0  0  0  0  0  0  0
   30.2807  -32.1495  -16.4004 C   0  0  0  0  0  0  0  0  0  0  0  0
   28.9398  -31.8092  -15.8300 C   0  0  0  0  0  0  0  0  0  0  0  0
   27.8369  -32.6325  -16.5490 N   0  0  0  0  0  0  0  0  0  0  0  0
   26.5778  -32.2552  -15.9224 C   0  0  0  0  0  0  0  0  0  0  0  0
   33.1762  -31.3958  -17.7510 O   0  0  0  0  0  0  0  0  0  0  0  0
   32.6873  -31.9303  -18.9054 O   0  0  0  0  0  0  0  0  0  0  0  0
  2  1  1  1
  2  9  1  0
  2  3  1  0
  3  4  1  0
  4  8  1  0
  4  5  2  0
  5  6  1  0
  7  6  1  0
  8  7  2  0
  9 10  2  0
 12 14  1  0
 12 11  1  0
 13 12  2  0
 15 16  1  0
 15 14  1  0
 16 17  1  0
 18 17  1  6
 19 18  1  0
 19  9  1  0
 20 18  1  0
 21 20  2  0
 22 20  1  0
 23 22  1  0
 24 25  1  0
 23 24  1  1
 25 26  1  0
 26 27  1  0
 27 28  1  0
 29 23  1  0
 29 30  1  0
 31 29  2  0
M  END
$$$$
