MSH.pdb
     RDKit          3D

 25 25  0  0  1  0  0  0  0  0999 V2000
   26.3315  -20.8801   -7.0873 C   0  0  0  0  0  0  0  0  0  0  0  0
   25.6392  -21.0257   -8.7440 S   0  0  0  0  0  0  0  0  0  0  0  0
   26.5824  -20.0761   -9.9576 C   0  0  0  0  0  0  0  0  0  0  0  0
   25.8428  -20.0364  -11.2728 C   0  0  0  0  0  0  0  0  0  0  0  0
   25.3899  -21.4077  -11.7248 C   0  0  2  0  0  0  0  0  0  0  0  0
   26.5693  -22.1281  -12.1657 N   0  0  0  0  0  0  0  0  0  0  0  0
   24.4163  -21.2045  -12.8243 C   0  0  0  0  0  0  0  0  0  0  0  0
   24.8907  -21.0775  -13.9864 O   0  0  0  0  0  0  0  0  0  0  0  0
   20.4324  -20.7658  -12.2687 O   0  0  0  0  0  0  0  0  0  0  0  0
   20.7817  -21.5657  -13.3552 C   0  0  0  0  0  0  0  0  0  0  0  0
   22.1608  -21.0915  -13.8356 C   0  0  2  0  0  0  0  0  0  0  0  0
   23.0273  -21.1437  -12.6707 N   0  0  0  0  0  0  0  0  0  0  0  0
   22.1005  -19.7525  -14.4304 C   0  0  0  0  0  0  0  0  0  0  0  0
   22.0132  -18.7242  -13.7228 O   0  0  0  0  0  0  0  0  0  0  0  0
   22.1423  -19.6238  -15.8350 N   0  0  0  0  0  0  0  0  0  0  0  0
   21.9421  -18.3230  -16.4947 C   0  0  1  0  0  0  0  0  0  0  0  0
   22.6294  -18.3641  -17.8168 C   0  0  0  0  0  0  0  0  0  0  0  0
   22.5457  -17.0821  -18.5839 C   0  0  0  0  0  0  0  0  0  0  0  0
   23.1878  -15.9159  -18.2545 C   0  0  0  0  0  0  0  0  0  0  0  0
   22.8574  -14.9953  -19.1702 N   0  0  0  0  0  0  0  0  0  0  0  0
   22.0286  -15.5730  -20.0503 C   0  0  0  0  0  0  0  0  0  0  0  0
   21.8375  -16.8448  -19.6945 N   0  0  0  0  0  0  0  0  0  0  0  0
   20.5135  -18.0701  -16.6578 C   0  0  0  0  0  0  0  0  0  0  0  0
   19.6291  -19.1092  -16.8003 O   0  0  0  0  0  0  0  0  0  0  0  0
   20.0548  -16.9029  -16.6723 O   0  0  0  0  0  0  0  0  0  0  0  0
  1  2  1  0
  3  2  1  0
  4  3  1  0
  5  4  1  0
  5  6  1  6
  7  5  1  0
  8  7  2  0
  9 10  1  0
 11 10  1  1
 11 12  1  0
 12  7  1  0
 13 15  1  0
 13 11  1  0
 14 13  2  0
 16 15  1  0
 16 17  1  6
 17 18  1  0
 18 19  2  0
 18 22  1  0
 19 20  1  0
 20 21  1  0
 22 21  2  0
 23 16  1  0
 24 23  1  0
 25 23  2  0
M  END
$$$$
