MSH.pdb
     RDKit          3D

 25 25  0  0  1  0  0  0  0  0999 V2000
   19.5012  -15.2486  -12.2709 C   0  0  0  0  0  0  0  0  0  0  0  0
   19.9779  -16.8978  -12.8169 S   0  0  0  0  0  0  0  0  0  0  0  0
   19.5067  -17.2050  -14.5338 C   0  0  0  0  0  0  0  0  0  0  0  0
   19.4849  -15.9077  -15.3051 C   0  0  0  0  0  0  0  0  0  0  0  0
   18.9058  -16.0687  -16.6939 C   0  0  2  0  0  0  0  0  0  0  0  0
   19.6969  -17.0742  -17.3775 N   0  0  0  0  0  0  0  0  0  0  0  0
   18.9906  -14.7455  -17.3573 C   0  0  0  0  0  0  0  0  0  0  0  0
   20.0497  -14.4979  -17.9968 O   0  0  0  0  0  0  0  0  0  0  0  0
   16.2416  -11.8462  -16.8760 O   0  0  0  0  0  0  0  0  0  0  0  0
   16.7783  -11.8889  -18.1615 C   0  0  0  0  0  0  0  0  0  0  0  0
   18.1769  -12.5114  -18.0426 C   0  0  2  0  0  0  0  0  0  0  0  0
   17.9957  -13.7628  -17.3272 N   0  0  0  0  0  0  0  0  0  0  0  0
   19.1190  -11.6117  -17.3694 C   0  0  0  0  0  0  0  0  0  0  0  0
   19.3734  -11.7227  -16.1493 O   0  0  0  0  0  0  0  0  0  0  0  0
   19.7525  -10.5974  -18.1184 N   0  0  0  0  0  0  0  0  0  0  0  0
   20.6463   -9.6156  -17.4823 C   0  0  1  0  0  0  0  0  0  0  0  0
   21.4830   -8.9933  -18.5475 C   0  0  0  0  0  0  0  0  0  0  0  0
   22.4713   -7.9933  -18.0357 C   0  0  0  0  0  0  0  0  0  0  0  0
   23.2810   -8.1646  -16.9421 C   0  0  0  0  0  0  0  0  0  0  0  0
   24.0123   -7.0513  -16.7972 N   0  0  0  0  0  0  0  0  0  0  0  0
   23.6672   -6.2049  -17.7769 C   0  0  0  0  0  0  0  0  0  0  0  0
   22.7281   -6.7773  -18.5327 N   0  0  0  0  0  0  0  0  0  0  0  0
   19.8521   -8.6067  -16.7876 C   0  0  0  0  0  0  0  0  0  0  0  0
   20.2935   -8.0534  -15.6124 O   0  0  0  0  0  0  0  0  0  0  0  0
   18.7494   -8.2178  -17.2415 O   0  0  0  0  0  0  0  0  0  0  0  0
  1  2  1  0
  3  2  1  0
  4  3  1  0
  5  4  1  0
  5  6  1  6
  7  5  1  0
  8  7  2  0
  9 10  1  0
 11 10  1  1
 11 12  1  0
 12  7  1  0
 13 15  1  0
 13 11  1  0
 14 13  2  0
 16 15  1  0
 16 17  1  6
 17 18  1  0
 18 19  2  0
 18 22  1  0
 19 20  1  0
 20 21  1  0
 22 21  2  0
 23 16  1  0
 24 23  1  0
 25 23  2  0
M  END
$$$$
