MSH.pdb
     RDKit          3D

 25 25  0  0  1  0  0  0  0  0999 V2000
   20.4815  -14.2687  -22.6404 C   0  0  0  0  0  0  0  0  0  0  0  0
   20.7325  -13.1222  -21.2738 S   0  0  0  0  0  0  0  0  0  0  0  0
   22.3784  -13.2854  -20.5469 C   0  0  0  0  0  0  0  0  0  0  0  0
   22.5602  -12.2718  -19.4433 C   0  0  0  0  0  0  0  0  0  0  0  0
   23.9727  -12.2526  -18.9007 C   0  0  2  0  0  0  0  0  0  0  0  0
   24.2922  -13.6038  -18.4807 N   0  0  0  0  0  0  0  0  0  0  0  0
   23.9912  -11.2967  -17.7676 C   0  0  0  0  0  0  0  0  0  0  0  0
   23.4461  -11.6769  -16.6951 O   0  0  0  0  0  0  0  0  0  0  0  0
   26.4659   -8.1869  -17.5326 O   0  0  0  0  0  0  0  0  0  0  0  0
   25.9885   -8.7648  -16.3576 C   0  0  0  0  0  0  0  0  0  0  0  0
   24.5315   -9.1727  -16.6188 C   0  0  2  0  0  0  0  0  0  0  0  0
   24.5611  -10.0197  -17.7988 N   0  0  0  0  0  0  0  0  0  0  0  0
   23.6601   -8.0055  -16.7877 C   0  0  0  0  0  0  0  0  0  0  0  0
   23.4796   -7.4790  -17.9084 O   0  0  0  0  0  0  0  0  0  0  0  0
   23.0108   -7.4654  -15.6574 N   0  0  0  0  0  0  0  0  0  0  0  0
   22.1768   -6.2561  -15.7539 C   0  0  1  0  0  0  0  0  0  0  0  0
   20.8725   -6.5394  -15.0900 C   0  0  0  0  0  0  0  0  0  0  0  0
   19.9248   -7.3361  -15.9302 C   0  0  0  0  0  0  0  0  0  0  0  0
   20.1580   -7.7479  -17.2174 C   0  0  0  0  0  0  0  0  0  0  0  0
   19.0768   -8.4216  -17.6327 N   0  0  0  0  0  0  0  0  0  0  0  0
   18.1896   -8.4300  -16.6286 C   0  0  0  0  0  0  0  0  0  0  0  0
   18.7047   -7.7688  -15.5902 N   0  0  0  0  0  0  0  0  0  0  0  0
   22.8576   -5.1374  -15.1085 C   0  0  0  0  0  0  0  0  0  0  0  0
   24.0652   -5.3180  -14.4829 O   0  0  0  0  0  0  0  0  0  0  0  0
   22.3623   -3.9851  -15.1068 O   0  0  0  0  0  0  0  0  0  0  0  0
  1  2  1  0
  3  2  1  0
  4  3  1  0
  5  4  1  0
  5  6  1  1
  7  5  1  0
  8  7  2  0
  9 10  1  0
 11 10  1  6
 11 12  1  0
 12  7  1  0
 13 15  1  0
 13 11  1  0
 14 13  2  0
 16 15  1  0
 16 17  1  1
 17 18  1  0
 18 19  2  0
 18 22  1  0
 19 20  1  0
 20 21  1  0
 22 21  2  0
 23 16  1  0
 24 23  1  0
 25 23  2  0
M  END
$$$$
