MSH.pdb
     RDKit          3D

 25 25  0  0  1  0  0  0  0  0999 V2000
   25.9760  -10.3565  -14.4971 C   0  0  0  0  0  0  0  0  0  0  0  0
   25.0392  -11.2522  -15.7482 S   0  0  0  0  0  0  0  0  0  0  0  0
   23.4756  -10.4349  -16.1372 C   0  0  0  0  0  0  0  0  0  0  0  0
   22.7352  -10.1005  -14.8651 C   0  0  0  0  0  0  0  0  0  0  0  0
   21.4212   -9.3973  -15.1268 C   0  0  2  0  0  0  0  0  0  0  0  0
   21.6270   -8.5014  -16.2489 N   0  0  0  0  0  0  0  0  0  0  0  0
   21.0636   -8.6666  -13.8873 C   0  0  0  0  0  0  0  0  0  0  0  0
   20.8796   -9.3625  -12.8511 O   0  0  0  0  0  0  0  0  0  0  0  0
   20.2570   -4.6368  -13.6972 O   0  0  0  0  0  0  0  0  0  0  0  0
   20.8882   -5.2110  -12.5953 C   0  0  0  0  0  0  0  0  0  0  0  0
   20.4495   -6.6815  -12.5437 C   0  0  2  0  0  0  0  0  0  0  0  0
   20.9166   -7.2795  -13.7826 N   0  0  0  0  0  0  0  0  0  0  0  0
   18.9994   -6.8124  -12.3694 C   0  0  0  0  0  0  0  0  0  0  0  0
   18.2235   -6.8654  -13.3496 O   0  0  0  0  0  0  0  0  0  0  0  0
   18.4693   -6.8801  -11.0634 N   0  0  0  0  0  0  0  0  0  0  0  0
   17.0184   -6.9543  -10.8249 C   0  0  1  0  0  0  0  0  0  0  0  0
   16.7910   -7.7918   -9.6130 C   0  0  0  0  0  0  0  0  0  0  0  0
   15.3471   -7.9830   -9.2700 C   0  0  0  0  0  0  0  0  0  0  0  0
   14.2876   -7.5129  -10.0031 C   0  0  0  0  0  0  0  0  0  0  0  0
   13.1623   -7.8736   -9.3716 N   0  0  0  0  0  0  0  0  0  0  0  0
   13.5110   -8.5526   -8.2704 C   0  0  0  0  0  0  0  0  0  0  0  0
   14.8422   -8.6202   -8.2068 N   0  0  0  0  0  0  0  0  0  0  0  0
   16.4825   -5.6094  -10.6369 C   0  0  0  0  0  0  0  0  0  0  0  0
   15.2919   -5.2422  -11.2112 O   0  0  0  0  0  0  0  0  0  0  0  0
   17.0905   -4.7548   -9.9490 O   0  0  0  0  0  0  0  0  0  0  0  0
  1  2  1  0
  3  2  1  0
  4  3  1  0
  5  4  1  0
  5  6  1  6
  7  5  1  0
  8  7  2  0
  9 10  1  0
 11 10  1  6
 11 12  1  0
 12  7  1  0
 13 15  1  0
 13 11  1  0
 14 13  2  0
 16 15  1  0
 16 17  1  1
 17 18  1  0
 18 19  2  0
 18 22  1  0
 19 20  1  0
 20 21  1  0
 22 21  2  0
 23 16  1  0
 24 23  1  0
 25 23  2  0
M  END
$$$$
