MSH.pdb
     RDKit          3D

 25 25  0  0  1  0  0  0  0  0999 V2000
   28.7881  -18.6165   -5.2513 C   0  0  0  0  0  0  0  0  0  0  0  0
   27.4443  -19.7976   -5.4623 S   0  0  0  0  0  0  0  0  0  0  0  0
   27.6508  -20.7988   -6.9519 C   0  0  0  0  0  0  0  0  0  0  0  0
   26.8465  -20.2118   -8.0863 C   0  0  0  0  0  0  0  0  0  0  0  0
   26.9552  -21.0270   -9.3566 C   0  0  2  0  0  0  0  0  0  0  0  0
   28.3596  -21.0820   -9.7153 N   0  0  0  0  0  0  0  0  0  0  0  0
   26.1422  -20.3379  -10.3873 C   0  0  0  0  0  0  0  0  0  0  0  0
   26.6192  -19.2735  -10.8685 O   0  0  0  0  0  0  0  0  0  0  0  0
   25.3916  -21.4319  -14.3575 O   0  0  0  0  0  0  0  0  0  0  0  0
   25.5742  -21.6161  -12.9882 C   0  0  0  0  0  0  0  0  0  0  0  0
   24.5808  -20.6877  -12.2749 C   0  0  2  0  0  0  0  0  0  0  0  0
   24.9005  -20.7749  -10.8603 N   0  0  0  0  0  0  0  0  0  0  0  0
   23.1901  -21.0550  -12.5594 C   0  0  0  0  0  0  0  0  0  0  0  0
   22.7271  -22.1711  -12.2340 O   0  0  0  0  0  0  0  0  0  0  0  0
   22.3560  -20.1253  -13.2160 N   0  0  0  0  0  0  0  0  0  0  0  0
   20.9333  -20.4099  -13.4652 C   0  0  1  0  0  0  0  0  0  0  0  0
   20.2176  -19.1092  -13.5984 C   0  0  0  0  0  0  0  0  0  0  0  0
   18.7557  -19.2479  -13.8855 C   0  0  0  0  0  0  0  0  0  0  0  0
   17.8332  -19.8241  -13.0501 C   0  0  0  0  0  0  0  0  0  0  0  0
   16.6410  -19.7704  -13.6593 N   0  0  0  0  0  0  0  0  0  0  0  0
   16.8151  -19.1750  -14.8469 C   0  0  0  0  0  0  0  0  0  0  0  0
   18.1033  -18.8559  -14.9865 N   0  0  0  0  0  0  0  0  0  0  0  0
   20.7978  -21.2060  -14.6815 C   0  0  0  0  0  0  0  0  0  0  0  0
   19.7989  -22.1387  -14.8017 O   0  0  0  0  0  0  0  0  0  0  0  0
   21.5854  -21.0620  -15.6469 O   0  0  0  0  0  0  0  0  0  0  0  0
  1  2  1  0
  3  2  1  0
  4  3  1  0
  5  4  1  0
  5  6  1  6
  7  5  1  0
  8  7  2  0
  9 10  1  0
 11 10  1  6
 11 12  1  0
 12  7  1  0
 13 15  1  0
 13 11  1  0
 14 13  2  0
 16 15  1  0
 16 17  1  6
 17 18  1  0
 18 19  2  0
 18 22  1  0
 19 20  1  0
 20 21  1  0
 22 21  2  0
 23 16  1  0
 24 23  1  0
 25 23  2  0
M  END
$$$$
