MSH.pdb
     RDKit          3D

 25 25  0  0  1  0  0  0  0  0999 V2000
   20.5079  -17.2094  -18.7441 C   0  0  0  0  0  0  0  0  0  0  0  0
   21.5191  -16.0428  -19.6724 S   0  0  0  0  0  0  0  0  0  0  0  0
   20.6698  -14.4699  -19.9343 C   0  0  0  0  0  0  0  0  0  0  0  0
   21.0696  -13.4811  -18.8662 C   0  0  0  0  0  0  0  0  0  0  0  0
   22.3003  -12.6857  -19.2438 C   0  0  2  0  0  0  0  0  0  0  0  0
   23.4571  -13.4775  -18.8711 N   0  0  0  0  0  0  0  0  0  0  0  0
   22.2369  -11.4052  -18.4992 C   0  0  0  0  0  0  0  0  0  0  0  0
   22.7370  -11.3967  -17.3409 O   0  0  0  0  0  0  0  0  0  0  0  0
   20.3455   -7.8859  -19.7358 O   0  0  0  0  0  0  0  0  0  0  0  0
   21.6197   -7.8431  -19.1727 C   0  0  0  0  0  0  0  0  0  0  0  0
   21.7093   -9.0091  -18.1778 C   0  0  2  0  0  0  0  0  0  0  0  0
   21.6704  -10.2199  -18.9797 N   0  0  0  0  0  0  0  0  0  0  0  0
   20.6336   -8.9607  -17.1824 C   0  0  0  0  0  0  0  0  0  0  0  0
   19.6210   -9.6898  -17.2755 O   0  0  0  0  0  0  0  0  0  0  0  0
   20.7462   -8.0694  -16.0942 N   0  0  0  0  0  0  0  0  0  0  0  0
   19.6953   -7.9715  -15.0679 C   0  0  1  0  0  0  0  0  0  0  0  0
   20.1874   -8.6503  -13.8354 C   0  0  0  0  0  0  0  0  0  0  0  0
   19.2423   -8.5666  -12.6784 C   0  0  0  0  0  0  0  0  0  0  0  0
   18.0186   -7.9477  -12.6956 C   0  0  0  0  0  0  0  0  0  0  0  0
   17.4797   -8.0749  -11.4754 N   0  0  0  0  0  0  0  0  0  0  0  0
   18.3466   -8.7568  -10.7146 C   0  0  0  0  0  0  0  0  0  0  0  0
   19.4214   -9.0573  -11.4461 N   0  0  0  0  0  0  0  0  0  0  0  0
   19.3954   -6.5672  -14.8049 C   0  0  0  0  0  0  0  0  0  0  0  0
   18.1529   -6.1855  -14.3659 O   0  0  0  0  0  0  0  0  0  0  0  0
   20.2592   -5.6731  -14.9711 O   0  0  0  0  0  0  0  0  0  0  0  0
  1  2  1  0
  3  2  1  0
  4  3  1  0
  5  4  1  0
  5  6  1  1
  7  5  1  0
  8  7  2  0
  9 10  1  0
 11 10  1  6
 11 12  1  0
 12  7  1  0
 13 15  1  0
 13 11  1  0
 14 13  2  0
 16 15  1  0
 16 17  1  1
 17 18  1  0
 18 19  2  0
 18 22  1  0
 19 20  1  0
 20 21  1  0
 22 21  2  0
 23 16  1  0
 24 23  1  0
 25 23  2  0
M  END
$$$$
