MSH.pdb
     RDKit          3D

 25 25  0  0  1  0  0  0  0  0999 V2000
   21.1383  -19.9455  -20.0401 C   0  0  0  0  0  0  0  0  0  0  0  0
   21.4024  -18.2914  -19.3773 S   0  0  0  0  0  0  0  0  0  0  0  0
   22.3936  -17.2676  -20.4878 C   0  0  0  0  0  0  0  0  0  0  0  0
   22.4020  -15.8375  -20.0048 C   0  0  0  0  0  0  0  0  0  0  0  0
   23.1536  -14.9144  -20.9390 C   0  0  2  0  0  0  0  0  0  0  0  0
   24.5397  -15.3421  -20.9456 N   0  0  0  0  0  0  0  0  0  0  0  0
   22.9966  -13.5379  -20.4110 C   0  0  0  0  0  0  0  0  0  0  0  0
   23.9919  -13.0413  -19.8156 O   0  0  0  0  0  0  0  0  0  0  0  0
   19.6271  -11.2036  -20.8503 O   0  0  0  0  0  0  0  0  0  0  0  0
   20.8861  -10.6128  -20.9408 C   0  0  0  0  0  0  0  0  0  0  0  0
   21.8182  -11.3996  -20.0083 C   0  0  2  0  0  0  0  0  0  0  0  0
   21.8406  -12.7583  -20.5224 N   0  0  0  0  0  0  0  0  0  0  0  0
   21.3745  -11.3353  -18.6122 C   0  0  0  0  0  0  0  0  0  0  0  0
   20.7604  -12.2840  -18.0752 O   0  0  0  0  0  0  0  0  0  0  0  0
   21.6483  -10.1741  -17.8587 N   0  0  0  0  0  0  0  0  0  0  0  0
   21.1961  -10.0373  -16.4644 C   0  0  1  0  0  0  0  0  0  0  0  0
   22.2510   -9.3071  -15.7054 C   0  0  0  0  0  0  0  0  0  0  0  0
   21.8578   -8.9568  -14.3048 C   0  0  0  0  0  0  0  0  0  0  0  0
   22.0112   -9.7685  -13.2101 C   0  0  0  0  0  0  0  0  0  0  0  0
   21.5333   -9.1115  -12.1446 N   0  0  0  0  0  0  0  0  0  0  0  0
   21.0919   -7.9180  -12.5643 C   0  0  0  0  0  0  0  0  0  0  0  0
   21.2889   -7.8220  -13.8806 N   0  0  0  0  0  0  0  0  0  0  0  0
   19.9306   -9.3104  -16.4279 C   0  0  0  0  0  0  0  0  0  0  0  0
   19.0272   -9.5253  -15.4180 O   0  0  0  0  0  0  0  0  0  0  0  0
   19.6331   -8.4730  -17.3130 O   0  0  0  0  0  0  0  0  0  0  0  0
  1  2  1  0
  3  2  1  0
  4  3  1  0
  5  4  1  0
  5  6  1  1
  7  5  1  0
  8  7  2  0
  9 10  1  0
 11 10  1  6
 11 12  1  0
 12  7  1  0
 13 15  1  0
 13 11  1  0
 14 13  2  0
 16 15  1  0
 16 17  1  1
 17 18  1  0
 18 19  2  0
 18 22  1  0
 19 20  1  0
 20 21  1  0
 22 21  2  0
 23 16  1  0
 24 23  1  0
 25 23  2  0
M  END
$$$$
