MSH.pdb
     RDKit          3D

 25 25  0  0  1  0  0  0  0  0999 V2000
   22.9452  -14.7001  -20.8417 C   0  0  0  0  0  0  0  0  0  0  0  0
   22.2610  -16.1009  -19.9392 S   0  0  0  0  0  0  0  0  0  0  0  0
   20.6907  -15.6924  -19.1446 C   0  0  0  0  0  0  0  0  0  0  0  0
   20.8992  -14.6146  -18.1085 C   0  0  0  0  0  0  0  0  0  0  0  0
   21.8785  -15.0276  -17.0314 C   0  0  2  0  0  0  0  0  0  0  0  0
   21.2728  -16.1194  -16.2930 N   0  0  0  0  0  0  0  0  0  0  0  0
   22.1136  -13.8387  -16.1773 C   0  0  0  0  0  0  0  0  0  0  0  0
   21.1842  -13.5136  -15.3885 O   0  0  0  0  0  0  0  0  0  0  0  0
   25.3241  -11.3907  -16.5607 O   0  0  0  0  0  0  0  0  0  0  0  0
   24.8711  -11.5496  -15.2523 C   0  0  0  0  0  0  0  0  0  0  0  0
   23.3747  -11.8839  -15.3338 C   0  0  2  0  0  0  0  0  0  0  0  0
   23.2755  -13.0599  -16.1812 N   0  0  0  0  0  0  0  0  0  0  0  0
   22.5909  -10.7555  -15.8462 C   0  0  0  0  0  0  0  0  0  0  0  0
   22.2273  -10.6993  -17.0422 O   0  0  0  0  0  0  0  0  0  0  0  0
   22.2395   -9.7094  -14.9669 N   0  0  0  0  0  0  0  0  0  0  0  0
   21.4816   -8.5358  -15.4312 C   0  0  1  0  0  0  0  0  0  0  0  0
   20.1446   -9.0029  -15.8965 C   0  0  0  0  0  0  0  0  0  0  0  0
   19.2458   -7.9013  -16.3628 C   0  0  0  0  0  0  0  0  0  0  0  0
   19.6339   -6.8270  -17.1218 C   0  0  0  0  0  0  0  0  0  0  0  0
   18.5549   -6.0588  -17.3239 N   0  0  0  0  0  0  0  0  0  0  0  0
   17.5178   -6.6397  -16.7056 C   0  0  0  0  0  0  0  0  0  0  0  0
   17.9370   -7.7627  -16.1192 N   0  0  0  0  0  0  0  0  0  0  0  0
   21.3471   -7.5752  -14.3401 C   0  0  0  0  0  0  0  0  0  0  0  0
   21.0673   -6.2569  -14.5967 O   0  0  0  0  0  0  0  0  0  0  0  0
   21.4824   -7.9242  -13.1429 O   0  0  0  0  0  0  0  0  0  0  0  0
  1  2  1  0
  3  2  1  0
  4  3  1  0
  5  4  1  0
  5  6  1  1
  7  5  1  0
  8  7  2  0
  9 10  1  0
 11 10  1  6
 11 12  1  0
 12  7  1  0
 13 15  1  0
 13 11  1  0
 14 13  2  0
 16 15  1  0
 16 17  1  1
 17 18  1  0
 18 19  2  0
 18 22  1  0
 19 20  1  0
 20 21  1  0
 22 21  2  0
 23 16  1  0
 24 23  1  0
 25 23  2  0
M  END
$$$$
