MSH.pdb
     RDKit          3D

 25 25  0  0  1  0  0  0  0  0999 V2000
   29.0696  -18.9288   -4.5152 C   0  0  0  0  0  0  0  0  0  0  0  0
   28.3854  -19.6704   -6.0075 S   0  0  0  0  0  0  0  0  0  0  0  0
   29.2064  -19.0686   -7.5001 C   0  0  0  0  0  0  0  0  0  0  0  0
   28.5096  -19.6050   -8.7269 C   0  0  0  0  0  0  0  0  0  0  0  0
   27.9941  -21.0142   -8.5312 C   0  0  2  0  0  0  0  0  0  0  0  0
   29.1209  -21.9127   -8.6959 N   0  0  0  0  0  0  0  0  0  0  0  0
   26.9454  -21.2405   -9.5544 C   0  0  0  0  0  0  0  0  0  0  0  0
   27.3253  -21.7085  -10.6628 O   0  0  0  0  0  0  0  0  0  0  0  0
   23.2104  -19.7586   -9.3520 O   0  0  0  0  0  0  0  0  0  0  0  0
   23.2425  -21.0637   -9.8398 C   0  0  0  0  0  0  0  0  0  0  0  0
   24.6369  -21.2818  -10.4445 C   0  0  2  0  0  0  0  0  0  0  0  0
   25.5823  -20.9768   -9.3843 N   0  0  0  0  0  0  0  0  0  0  0  0
   24.8484  -20.4579  -11.6390 C   0  0  0  0  0  0  0  0  0  0  0  0
   25.6310  -19.4816  -11.6317 O   0  0  0  0  0  0  0  0  0  0  0  0
   24.1513  -20.7765  -12.8237 N   0  0  0  0  0  0  0  0  0  0  0  0
   24.2869  -19.9580  -14.0399 C   0  0  1  0  0  0  0  0  0  0  0  0
   25.3247  -20.5854  -14.9066 C   0  0  0  0  0  0  0  0  0  0  0  0
   25.4675  -19.9374  -16.2477 C   0  0  0  0  0  0  0  0  0  0  0  0
   25.2414  -18.6120  -16.5177 C   0  0  0  0  0  0  0  0  0  0  0  0
   25.4616  -18.4183  -17.8251 N   0  0  0  0  0  0  0  0  0  0  0  0
   25.8166  -19.5950  -18.3587 C   0  0  0  0  0  0  0  0  0  0  0  0
   25.8207  -20.5220  -17.3988 N   0  0  0  0  0  0  0  0  0  0  0  0
   23.0027  -19.8896  -14.7311 C   0  0  0  0  0  0  0  0  0  0  0  0
   22.8171  -19.0280  -15.7825 O   0  0  0  0  0  0  0  0  0  0  0  0
   22.0369  -20.6119  -14.3868 O   0  0  0  0  0  0  0  0  0  0  0  0
  1  2  1  0
  3  2  1  0
  4  3  1  0
  5  4  1  0
  5  6  1  6
  7  5  1  0
  8  7  2  0
  9 10  1  0
 11 10  1  1
 11 12  1  0
 12  7  1  0
 13 15  1  0
 13 11  1  0
 14 13  2  0
 16 15  1  0
 16 17  1  6
 17 18  1  0
 18 19  2  0
 18 22  1  0
 19 20  1  0
 20 21  1  0
 22 21  2  0
 23 16  1  0
 24 23  1  0
 25 23  2  0
M  END
$$$$
