MSH.pdb
     RDKit          3D

 25 25  0  0  1  0  0  0  0  0999 V2000
   29.7216  -12.0948  -15.9826 C   0  0  0  0  0  0  0  0  0  0  0  0
   28.0648  -11.4049  -15.8273 S   0  0  0  0  0  0  0  0  0  0  0  0
   27.4341  -10.7964  -17.4071 C   0  0  0  0  0  0  0  0  0  0  0  0
   26.0658  -10.1875  -17.2189 C   0  0  0  0  0  0  0  0  0  0  0  0
   25.0863  -11.1485  -16.5811 C   0  0  2  0  0  0  0  0  0  0  0  0
   24.9330  -12.2722  -17.4855 N   0  0  0  0  0  0  0  0  0  0  0  0
   23.8152  -10.4104  -16.3872 C   0  0  0  0  0  0  0  0  0  0  0  0
   23.0828  -10.2643  -17.4042 O   0  0  0  0  0  0  0  0  0  0  0  0
   21.4706  -10.3479  -13.1387 O   0  0  0  0  0  0  0  0  0  0  0  0
   21.7716   -9.0677  -13.6000 C   0  0  0  0  0  0  0  0  0  0  0  0
   22.0894   -9.1940  -15.0968 C   0  0  2  0  0  0  0  0  0  0  0  0
   23.3729   -9.8702  -15.1751 N   0  0  0  0  0  0  0  0  0  0  0  0
   22.1016   -7.8883  -15.7640 C   0  0  0  0  0  0  0  0  0  0  0  0
   23.0802   -7.1141  -15.6716 O   0  0  0  0  0  0  0  0  0  0  0  0
   20.9812   -7.4985  -16.5282 N   0  0  0  0  0  0  0  0  0  0  0  0
   20.9361   -6.1998  -17.2202 C   0  0  1  0  0  0  0  0  0  0  0  0
   19.9197   -6.2897  -18.3069 C   0  0  0  0  0  0  0  0  0  0  0  0
   19.7521   -5.0237  -19.0867 C   0  0  0  0  0  0  0  0  0  0  0  0
   20.7606   -4.1555  -19.4182 C   0  0  0  0  0  0  0  0  0  0  0  0
   20.2168   -3.1406  -20.1035 N   0  0  0  0  0  0  0  0  0  0  0  0
   18.9000   -3.3698  -20.1975 C   0  0  0  0  0  0  0  0  0  0  0  0
   18.6150   -4.5170  -19.5783 N   0  0  0  0  0  0  0  0  0  0  0  0
   20.5898   -5.1483  -16.2686 C   0  0  0  0  0  0  0  0  0  0  0  0
   21.1389   -3.8957  -16.3768 O   0  0  0  0  0  0  0  0  0  0  0  0
   19.7849   -5.3570  -15.3295 O   0  0  0  0  0  0  0  0  0  0  0  0
  1  2  1  0
  3  2  1  0
  4  3  1  0
  5  4  1  0
  5  6  1  6
  7  5  1  0
  8  7  2  0
  9 10  1  0
 11 10  1  1
 11 12  1  0
 12  7  1  0
 13 15  1  0
 13 11  1  0
 14 13  2  0
 16 15  1  0
 16 17  1  6
 17 18  1  0
 18 19  2  0
 18 22  1  0
 19 20  1  0
 20 21  1  0
 22 21  2  0
 23 16  1  0
 24 23  1  0
 25 23  2  0
M  END
$$$$
