MSH.pdb
     RDKit          3D

 25 25  0  0  1  0  0  0  0  0999 V2000
   22.5358  -15.0747  -16.2527 C   0  0  0  0  0  0  0  0  0  0  0  0
   23.2918  -14.5853  -17.8128 S   0  0  0  0  0  0  0  0  0  0  0  0
   24.5838  -13.3443  -17.5790 C   0  0  0  0  0  0  0  0  0  0  0  0
   24.0255  -12.1459  -16.8507 C   0  0  0  0  0  0  0  0  0  0  0  0
   25.0474  -11.0430  -16.6805 C   0  0  2  0  0  0  0  0  0  0  0  0
   25.9963  -11.4849  -15.6762 N   0  0  0  0  0  0  0  0  0  0  0  0
   24.3108   -9.8282  -16.2564 C   0  0  0  0  0  0  0  0  0  0  0  0
   23.9890   -9.7556  -15.0386 O   0  0  0  0  0  0  0  0  0  0  0  0
   23.4048   -6.7258  -18.7344 O   0  0  0  0  0  0  0  0  0  0  0  0
   23.6313   -6.4241  -17.3928 C   0  0  0  0  0  0  0  0  0  0  0  0
   23.1872   -7.6470  -16.5774 C   0  0  2  0  0  0  0  0  0  0  0  0
   23.9503   -8.7692  -17.0962 N   0  0  0  0  0  0  0  0  0  0  0  0
   21.7398   -7.8646  -16.6648 C   0  0  0  0  0  0  0  0  0  0  0  0
   21.2572   -8.8003  -17.3411 O   0  0  0  0  0  0  0  0  0  0  0  0
   20.8727   -6.9963  -15.9682 N   0  0  0  0  0  0  0  0  0  0  0  0
   19.4103   -7.0955  -16.1063 C   0  0  1  0  0  0  0  0  0  0  0  0
   18.9849   -8.4236  -15.5798 C   0  0  0  0  0  0  0  0  0  0  0  0
   17.5009   -8.6032  -15.5150 C   0  0  0  0  0  0  0  0  0  0  0  0
   16.5705   -7.6747  -15.9063 C   0  0  0  0  0  0  0  0  0  0  0  0
   15.3559   -8.1956  -15.6852 N   0  0  0  0  0  0  0  0  0  0  0  0
   15.5242   -9.4201  -15.1680 C   0  0  0  0  0  0  0  0  0  0  0  0
   16.8308   -9.6702  -15.0635 N   0  0  0  0  0  0  0  0  0  0  0  0
   18.7727   -6.0122  -15.3638 C   0  0  0  0  0  0  0  0  0  0  0  0
   19.3548   -5.4999  -14.2321 O   0  0  0  0  0  0  0  0  0  0  0  0
   17.6805   -5.5204  -15.7359 O   0  0  0  0  0  0  0  0  0  0  0  0
  1  2  1  0
  3  2  1  0
  4  3  1  0
  5  4  1  0
  5  6  1  1
  7  5  1  0
  8  7  2  0
  9 10  1  0
 11 10  1  6
 11 12  1  0
 12  7  1  0
 13 15  1  0
 13 11  1  0
 14 13  2  0
 16 15  1  0
 16 17  1  1
 17 18  1  0
 18 19  2  0
 18 22  1  0
 19 20  1  0
 20 21  1  0
 22 21  2  0
 23 16  1  0
 24 23  1  0
 25 23  2  0
M  END
$$$$
