MSH.pdb
     RDKit          3D

 25 25  0  0  1  0  0  0  0  0999 V2000
   23.7637  -14.0878  -19.0922 C   0  0  0  0  0  0  0  0  0  0  0  0
   22.6557  -15.3584  -18.4572 S   0  0  0  0  0  0  0  0  0  0  0  0
   23.3773  -16.2496  -17.0612 C   0  0  0  0  0  0  0  0  0  0  0  0
   22.4272  -17.3208  -16.5834 C   0  0  0  0  0  0  0  0  0  0  0  0
   23.1458  -18.4947  -15.9547 C   0  0  2  0  0  0  0  0  0  0  0  0
   23.8133  -19.2145  -17.0226 N   0  0  0  0  0  0  0  0  0  0  0  0
   22.1185  -19.3237  -15.2797 C   0  0  0  0  0  0  0  0  0  0  0  0
   21.6614  -20.3028  -15.9310 O   0  0  0  0  0  0  0  0  0  0  0  0
   19.9330  -20.7609  -11.2839 O   0  0  0  0  0  0  0  0  0  0  0  0
   20.8411  -19.8857  -11.8770 C   0  0  0  0  0  0  0  0  0  0  0  0
   20.6786  -20.0334  -13.3966 C   0  0  2  0  0  0  0  0  0  0  0  0
   21.6242  -19.1035  -13.9899 N   0  0  0  0  0  0  0  0  0  0  0  0
   19.2992  -19.7804  -13.8248 C   0  0  0  0  0  0  0  0  0  0  0  0
   18.8330  -18.6206  -13.8825 O   0  0  0  0  0  0  0  0  0  0  0  0
   18.4803  -20.8732  -14.1800 N   0  0  0  0  0  0  0  0  0  0  0  0
   17.0510  -20.6964  -14.4852 C   0  0  1  0  0  0  0  0  0  0  0  0
   16.6270  -21.8121  -15.3782 C   0  0  0  0  0  0  0  0  0  0  0  0
   15.2101  -21.7082  -15.8477 C   0  0  0  0  0  0  0  0  0  0  0  0
   14.7482  -20.8249  -16.7896 C   0  0  0  0  0  0  0  0  0  0  0  0
   13.4314  -21.0293  -16.9299 N   0  0  0  0  0  0  0  0  0  0  0  0
   13.0797  -22.0166  -16.0952 C   0  0  0  0  0  0  0  0  0  0  0  0
   14.1624  -22.4316  -15.4348 N   0  0  0  0  0  0  0  0  0  0  0  0
   16.2803  -20.6999  -13.2452 C   0  0  0  0  0  0  0  0  0  0  0  0
   15.0523  -20.0916  -13.1809 O   0  0  0  0  0  0  0  0  0  0  0  0
   16.7148  -21.2558  -12.2082 O   0  0  0  0  0  0  0  0  0  0  0  0
  1  2  1  0
  3  2  1  0
  4  3  1  0
  5  4  1  0
  5  6  1  6
  7  5  1  0
  8  7  2  0
  9 10  1  0
 11 10  1  1
 11 12  1  0
 12  7  1  0
 13 15  1  0
 13 11  1  0
 14 13  2  0
 16 15  1  0
 16 17  1  6
 17 18  1  0
 18 19  2  0
 18 22  1  0
 19 20  1  0
 20 21  1  0
 22 21  2  0
 23 16  1  0
 24 23  1  0
 25 23  2  0
M  END
$$$$
