FWH.pdb
     RDKit          3D

 36 39  0  0  1  0  0  0  0  0999 V2000
    6.8641  -14.3502   21.7593 N   0  0  0  0  0  0  0  0  0  0  0  0
    8.1288  -15.0457   21.6281 C   0  0  1  0  0  0  0  0  0  0  0  0
    9.0442  -14.3286   20.6618 C   0  0  0  0  0  0  0  0  0  0  0  0
    8.3811  -14.2869   19.3389 C   0  0  0  0  0  0  0  0  0  0  0  0
    7.9637  -13.1095   18.7620 C   0  0  0  0  0  0  0  0  0  0  0  0
    7.3482  -13.0802   17.5325 C   0  0  0  0  0  0  0  0  0  0  0  0
    7.1286  -14.2448   16.8332 C   0  0  0  0  0  0  0  0  0  0  0  0
    7.5388  -15.4540   17.3889 C   0  0  0  0  0  0  0  0  0  0  0  0
    8.1465  -15.4448   18.6110 C   0  0  0  0  0  0  0  0  0  0  0  0
    8.7470  -15.2130   22.9655 C   0  0  0  0  0  0  0  0  0  0  0  0
    9.3104  -14.2032   23.5108 O   0  0  0  0  0  0  0  0  0  0  0  0
    8.7732  -16.3981   23.7049 N   0  0  0  0  0  0  0  0  0  0  0  0
    9.3783  -16.4750   25.0517 C   0  0  1  0  0  0  0  0  0  0  0  0
    8.2305  -16.6057   25.9887 C   0  0  0  0  0  0  0  0  0  0  0  0
    7.2969  -15.4962   26.0666 C   0  0  0  0  0  0  0  0  0  0  0  0
    5.9820  -15.5267   25.6552 C   0  0  0  0  0  0  0  0  0  0  0  0
    5.4517  -14.3159   25.8732 N   0  0  0  0  0  0  0  0  0  0  0  0
    6.3919  -13.5163   26.4116 C   0  0  0  0  0  0  0  0  0  0  0  0
    6.3791  -12.2064   26.8175 C   0  0  0  0  0  0  0  0  0  0  0  0
    7.5302  -11.6433   27.3448 C   0  0  0  0  0  0  0  0  0  0  0  0
    8.6856  -12.3722   27.4692 C   0  0  0  0  0  0  0  0  0  0  0  0
    8.7294  -13.6923   27.0696 C   0  0  0  0  0  0  0  0  0  0  0  0
    7.5755  -14.2377   26.5469 C   0  0  0  0  0  0  0  0  0  0  0  0
   10.3167  -17.5947   25.0905 C   0  0  0  0  0  0  0  0  0  0  0  0
    9.8509  -18.7697   24.8960 O   0  0  0  0  0  0  0  0  0  0  0  0
   11.7052  -17.4796   25.3239 N   0  0  0  0  0  0  0  0  0  0  0  0
   12.5165  -18.7016   25.3228 C   0  0  1  0  0  0  0  0  0  0  0  0
   13.9627  -18.3291   25.0272 C   0  0  0  0  0  0  0  0  0  0  0  0
   14.0445  -17.6037   23.7485 C   0  0  0  0  0  0  0  0  0  0  0  0
   13.3115  -17.7621   22.5868 C   0  0  0  0  0  0  0  0  0  0  0  0
   13.7544  -16.8995   21.6633 N   0  0  0  0  0  0  0  0  0  0  0  0
   14.7521  -16.1893   22.1960 C   0  0  0  0  0  0  0  0  0  0  0  0
   14.9292  -16.6111   23.4513 N   0  0  0  0  0  0  0  0  0  0  0  0
   12.4467  -19.3631   26.6240 C   0  0  0  0  0  0  0  0  0  0  0  0
   13.1940  -20.5193   26.8417 O   0  0  0  0  0  0  0  0  0  0  0  0
   11.7197  -18.8937   27.5349 O   0  0  0  0  0  0  0  0  0  0  0  0
  2  1  1  1
  2  3  1  0
  4  3  1  0
  4  9  1  0
  5  4  2  0
  6  5  1  0
  6  7  2  0
  7  8  1  0
  8  9  2  0
 10  2  1  0
 11 10  2  0
 12 10  1  0
 13 12  1  0
 14 15  1  0
 13 14  1  1
 15 16  2  0
 17 16  1  0
 18 17  1  0
 19 18  2  0
 20 19  1  0
 21 22  1  0
 21 20  2  0
 22 23  2  0
 23 15  1  0
 23 18  1  0
 24 13  1  0
 24 25  2  0
 26 24  1  0
 27 34  1  0
 27 26  1  0
 28 29  1  0
 27 28  1  1
 29 30  2  0
 30 31  1  0
 32 31  1  0
 33 29  1  0
 33 32  2  0
 34 35  1  0
 36 34  2  0
M  END
$$$$
