FWH.pdb
     RDKit          3D

 36 39  0  0  1  0  0  0  0  0999 V2000
    9.3984  -15.7962   19.8256 N   0  0  0  0  0  0  0  0  0  0  0  0
    9.3563  -14.4521   20.3660 C   0  0  1  0  0  0  0  0  0  0  0  0
    8.0123  -13.8077   20.1129 C   0  0  0  0  0  0  0  0  0  0  0  0
    7.7751  -13.7882   18.6517 C   0  0  0  0  0  0  0  0  0  0  0  0
    7.0523  -14.7679   18.0106 C   0  0  0  0  0  0  0  0  0  0  0  0
    6.8372  -14.7419   16.6526 C   0  0  0  0  0  0  0  0  0  0  0  0
    7.3461  -13.7201   15.8840 C   0  0  0  0  0  0  0  0  0  0  0  0
    8.0825  -12.7125   16.5017 C   0  0  0  0  0  0  0  0  0  0  0  0
    8.2758  -12.7710   17.8515 C   0  0  0  0  0  0  0  0  0  0  0  0
    9.6994  -14.4836   21.8083 C   0  0  0  0  0  0  0  0  0  0  0  0
    9.9815  -13.3834   22.3952 O   0  0  0  0  0  0  0  0  0  0  0  0
    9.7448  -15.6290   22.6069 N   0  0  0  0  0  0  0  0  0  0  0  0
    9.3842  -15.6066   24.0405 C   0  0  1  0  0  0  0  0  0  0  0  0
    7.8997  -15.5160   24.0685 C   0  0  0  0  0  0  0  0  0  0  0  0
    7.2819  -14.9791   25.2680 C   0  0  0  0  0  0  0  0  0  0  0  0
    6.4657  -15.6796   26.1296 C   0  0  0  0  0  0  0  0  0  0  0  0
    6.0808  -14.8459   27.1051 N   0  0  0  0  0  0  0  0  0  0  0  0
    6.6291  -13.6353   26.8885 C   0  0  0  0  0  0  0  0  0  0  0  0
    6.5603  -12.4467   27.5690 C   0  0  0  0  0  0  0  0  0  0  0  0
    7.2493  -11.3441   27.0897 C   0  0  0  0  0  0  0  0  0  0  0  0
    8.0010  -11.4182   25.9446 C   0  0  0  0  0  0  0  0  0  0  0  0
    8.0895  -12.6003   25.2381 C   0  0  0  0  0  0  0  0  0  0  0  0
    7.3979  -13.6881   25.7284 C   0  0  0  0  0  0  0  0  0  0  0  0
    9.9259  -16.7996   24.6880 C   0  0  0  0  0  0  0  0  0  0  0  0
    9.3796  -17.1864   25.7776 O   0  0  0  0  0  0  0  0  0  0  0  0
   11.0090  -17.5643   24.2002 N   0  0  0  0  0  0  0  0  0  0  0  0
   11.4553  -18.7210   24.9840 C   0  0  1  0  0  0  0  0  0  0  0  0
   12.4265  -19.5375   24.1427 C   0  0  0  0  0  0  0  0  0  0  0  0
   11.9392  -19.6272   22.7561 C   0  0  0  0  0  0  0  0  0  0  0  0
   10.6479  -19.5979   22.2628 C   0  0  0  0  0  0  0  0  0  0  0  0
   10.6793  -19.7446   20.9322 N   0  0  0  0  0  0  0  0  0  0  0  0
   11.9538  -19.8677   20.5531 C   0  0  0  0  0  0  0  0  0  0  0  0
   12.7148  -19.7976   21.6490 N   0  0  0  0  0  0  0  0  0  0  0  0
   12.1277  -18.2827   26.2051 C   0  0  0  0  0  0  0  0  0  0  0  0
   12.5779  -19.2374   27.1154 O   0  0  0  0  0  0  0  0  0  0  0  0
   12.2966  -17.0583   26.4307 O   0  0  0  0  0  0  0  0  0  0  0  0
  2  1  1  1
  2  3  1  0
  4  3  1  0
  4  9  1  0
  5  4  2  0
  6  5  1  0
  6  7  2  0
  7  8  1  0
  8  9  2  0
 10  2  1  0
 11 10  2  0
 12 10  1  0
 13 12  1  0
 14 15  1  0
 13 14  1  6
 15 16  2  0
 17 16  1  0
 18 17  1  0
 19 18  2  0
 20 19  1  0
 21 22  1  0
 21 20  2  0
 22 23  2  0
 23 15  1  0
 23 18  1  0
 24 13  1  0
 24 25  2  0
 26 24  1  0
 27 34  1  0
 27 26  1  0
 28 29  1  0
 27 28  1  6
 29 30  2  0
 30 31  1  0
 32 31  1  0
 33 29  1  0
 33 32  2  0
 34 35  1  0
 36 34  2  0
M  END
$$$$
