FWH.pdb
     RDKit          3D

 36 39  0  0  1  0  0  0  0  0999 V2000
   10.3952  -19.0616   26.7962 N   0  0  0  0  0  0  0  0  0  0  0  0
   10.1400  -17.7435   26.2504 C   0  0  1  0  0  0  0  0  0  0  0  0
   11.4077  -16.9209   26.2046 C   0  0  0  0  0  0  0  0  0  0  0  0
   11.1908  -15.6901   26.9979 C   0  0  0  0  0  0  0  0  0  0  0  0
   10.8768  -14.4843   26.4141 C   0  0  0  0  0  0  0  0  0  0  0  0
   10.6773  -13.3456   27.1589 C   0  0  0  0  0  0  0  0  0  0  0  0
   10.7874  -13.3796   28.5302 C   0  0  0  0  0  0  0  0  0  0  0  0
   11.1040  -14.5842   29.1529 C   0  0  0  0  0  0  0  0  0  0  0  0
   11.2951  -15.6940   28.3817 C   0  0  0  0  0  0  0  0  0  0  0  0
    9.5065  -17.8705   24.9157 C   0  0  0  0  0  0  0  0  0  0  0  0
    9.7673  -18.9038   24.2094 O   0  0  0  0  0  0  0  0  0  0  0  0
    8.6302  -16.9460   24.3421 N   0  0  0  0  0  0  0  0  0  0  0  0
    8.0211  -17.1561   23.0114 C   0  0  1  0  0  0  0  0  0  0  0  0
    6.9098  -16.1708   22.9304 C   0  0  0  0  0  0  0  0  0  0  0  0
    6.5117  -15.5046   24.1577 C   0  0  0  0  0  0  0  0  0  0  0  0
    5.9425  -16.1181   25.2527 C   0  0  0  0  0  0  0  0  0  0  0  0
    5.7043  -15.1778   26.1768 N   0  0  0  0  0  0  0  0  0  0  0  0
    6.1057  -13.9839   25.7008 C   0  0  0  0  0  0  0  0  0  0  0  0
    6.0895  -12.7180   26.2279 C   0  0  0  0  0  0  0  0  0  0  0  0
    6.5827  -11.6604   25.4807 C   0  0  0  0  0  0  0  0  0  0  0  0
    7.0883  -11.8551   24.2205 C   0  0  0  0  0  0  0  0  0  0  0  0
    7.1180  -13.1172   23.6632 C   0  0  0  0  0  0  0  0  0  0  0  0
    6.6234  -14.1588   24.4197 C   0  0  0  0  0  0  0  0  0  0  0  0
    9.0477  -16.9901   21.9845 C   0  0  0  0  0  0  0  0  0  0  0  0
    8.8892  -17.6103   20.8775 O   0  0  0  0  0  0  0  0  0  0  0  0
   10.2053  -16.1915   22.1188 N   0  0  0  0  0  0  0  0  0  0  0  0
   11.0566  -15.9934   20.9409 C   0  0  1  0  0  0  0  0  0  0  0  0
   11.1230  -14.5047   20.6293 C   0  0  0  0  0  0  0  0  0  0  0  0
    9.9010  -14.0828   19.9246 C   0  0  0  0  0  0  0  0  0  0  0  0
    8.8275  -14.8314   19.4782 C   0  0  0  0  0  0  0  0  0  0  0  0
    7.9542  -14.0269   18.8592 N   0  0  0  0  0  0  0  0  0  0  0  0
    8.4336  -12.7809   18.8934 C   0  0  0  0  0  0  0  0  0  0  0  0
    9.6056  -12.8114   19.5341 N   0  0  0  0  0  0  0  0  0  0  0  0
   12.4064  -16.4920   21.1956 C   0  0  0  0  0  0  0  0  0  0  0  0
   13.3756  -16.3738   20.2010 O   0  0  0  0  0  0  0  0  0  0  0  0
   12.6881  -17.0219   22.2994 O   0  0  0  0  0  0  0  0  0  0  0  0
  2  1  1  6
  2  3  1  0
  4  3  1  0
  4  9  1  0
  5  4  2  0
  6  5  1  0
  6  7  2  0
  7  8  1  0
  8  9  2  0
 10  2  1  0
 11 10  2  0
 12 10  1  0
 13 12  1  0
 14 15  1  0
 13 14  1  6
 15 16  2  0
 17 16  1  0
 18 17  1  0
 19 18  2  0
 20 19  1  0
 21 22  1  0
 21 20  2  0
 22 23  2  0
 23 15  1  0
 23 18  1  0
 24 13  1  0
 24 25  2  0
 26 24  1  0
 27 34  1  0
 27 26  1  0
 28 29  1  0
 27 28  1  1
 29 30  2  0
 30 31  1  0
 32 31  1  0
 33 29  1  0
 33 32  2  0
 34 35  1  0
 36 34  2  0
M  END
$$$$
