FWH.pdb
     RDKit          3D

 36 39  0  0  1  0  0  0  0  0999 V2000
   11.0936  -15.8121   18.9876 N   0  0  0  0  0  0  0  0  0  0  0  0
   10.3025  -16.8229   19.6607 C   0  0  1  0  0  0  0  0  0  0  0  0
   10.9234  -18.1922   19.5017 C   0  0  0  0  0  0  0  0  0  0  0  0
   10.0413  -19.1809   20.1618 C   0  0  0  0  0  0  0  0  0  0  0  0
    8.8363  -19.5678   19.6218 C   0  0  0  0  0  0  0  0  0  0  0  0
    8.0229  -20.4869   20.2421 C   0  0  0  0  0  0  0  0  0  0  0  0
    8.3960  -21.0548   21.4388 C   0  0  0  0  0  0  0  0  0  0  0  0
    9.6098  -20.6850   22.0126 C   0  0  0  0  0  0  0  0  0  0  0  0
   10.3912  -19.7699   21.3686 C   0  0  0  0  0  0  0  0  0  0  0  0
   10.1249  -16.4506   21.0849 C   0  0  0  0  0  0  0  0  0  0  0  0
   11.1630  -16.1896   21.7841 O   0  0  0  0  0  0  0  0  0  0  0  0
    8.9013  -16.3553   21.7524 N   0  0  0  0  0  0  0  0  0  0  0  0
    8.7990  -15.8832   23.1497 C   0  0  1  0  0  0  0  0  0  0  0  0
    7.5611  -15.0597   23.1942 C   0  0  0  0  0  0  0  0  0  0  0  0
    7.0644  -14.6632   24.4998 C   0  0  0  0  0  0  0  0  0  0  0  0
    6.3815  -15.4776   25.3771 C   0  0  0  0  0  0  0  0  0  0  0  0
    6.0784  -14.7541   26.4633 N   0  0  0  0  0  0  0  0  0  0  0  0
    6.5492  -13.5029   26.3017 C   0  0  0  0  0  0  0  0  0  0  0  0
    6.5116  -12.3843   27.0941 C   0  0  0  0  0  0  0  0  0  0  0  0
    7.0961  -11.2103   26.6468 C   0  0  0  0  0  0  0  0  0  0  0  0
    7.7134  -11.1445   25.4235 C   0  0  0  0  0  0  0  0  0  0  0  0
    7.7672  -12.2534   24.6039 C   0  0  0  0  0  0  0  0  0  0  0  0
    7.1808  -13.4139   25.0637 C   0  0  0  0  0  0  0  0  0  0  0  0
    8.7848  -17.0387   24.0445 C   0  0  0  0  0  0  0  0  0  0  0  0
    8.2870  -18.1299   23.6011 O   0  0  0  0  0  0  0  0  0  0  0  0
    9.2836  -17.0452   25.3662 N   0  0  0  0  0  0  0  0  0  0  0  0
   10.3930  -17.9488   25.6888 C   0  0  1  0  0  0  0  0  0  0  0  0
   11.5027  -17.7466   24.6664 C   0  0  0  0  0  0  0  0  0  0  0  0
   12.6186  -18.6655   24.9461 C   0  0  0  0  0  0  0  0  0  0  0  0
   12.7676  -19.6055   25.9491 C   0  0  0  0  0  0  0  0  0  0  0  0
   13.9661  -20.1911   25.8321 N   0  0  0  0  0  0  0  0  0  0  0  0
   14.5945  -19.6558   24.7823 C   0  0  0  0  0  0  0  0  0  0  0  0
   13.7858  -18.7368   24.2470 N   0  0  0  0  0  0  0  0  0  0  0  0
   10.9125  -17.6646   27.0248 C   0  0  0  0  0  0  0  0  0  0  0  0
   11.3986  -16.3900   27.3102 O   0  0  0  0  0  0  0  0  0  0  0  0
   10.9207  -18.5612   27.9050 O   0  0  0  0  0  0  0  0  0  0  0  0
  2  1  1  1
  2  3  1  0
  4  3  1  0
  4  9  1  0
  5  4  2  0
  6  5  1  0
  6  7  2  0
  7  8  1  0
  8  9  2  0
 10  2  1  0
 11 10  2  0
 12 10  1  0
 13 12  1  0
 14 15  1  0
 13 14  1  6
 15 16  2  0
 17 16  1  0
 18 17  1  0
 19 18  2  0
 20 19  1  0
 21 22  1  0
 21 20  2  0
 22 23  2  0
 23 15  1  0
 23 18  1  0
 24 13  1  0
 24 25  2  0
 26 24  1  0
 27 34  1  0
 27 26  1  0
 28 29  1  0
 27 28  1  6
 29 30  2  0
 30 31  1  0
 32 31  1  0
 33 29  1  0
 33 32  2  0
 34 35  1  0
 36 34  2  0
M  END
$$$$
