FWH.pdb
     RDKit          3D

 36 39  0  0  1  0  0  0  0  0999 V2000
    8.1628  -16.2148   21.5417 N   0  0  0  0  0  0  0  0  0  0  0  0
    9.4069  -15.5734   21.9174 C   0  0  1  0  0  0  0  0  0  0  0  0
    9.3936  -14.1070   21.5497 C   0  0  0  0  0  0  0  0  0  0  0  0
    8.5434  -13.9375   20.3497 C   0  0  0  0  0  0  0  0  0  0  0  0
    7.5031  -13.0380   20.3063 C   0  0  0  0  0  0  0  0  0  0  0  0
    6.7181  -12.8873   19.1873 C   0  0  0  0  0  0  0  0  0  0  0  0
    6.9537  -13.6430   18.0616 C   0  0  0  0  0  0  0  0  0  0  0  0
    7.9991  -14.5629   18.0723 C   0  0  0  0  0  0  0  0  0  0  0  0
    8.7573  -14.6854   19.2005 C   0  0  0  0  0  0  0  0  0  0  0  0
    9.6608  -15.7858   23.3628 C   0  0  0  0  0  0  0  0  0  0  0  0
   10.4726  -15.0021   23.9641 O   0  0  0  0  0  0  0  0  0  0  0  0
    9.0835  -16.7852   24.1499 N   0  0  0  0  0  0  0  0  0  0  0  0
    9.3511  -16.9019   25.5993 C   0  0  1  0  0  0  0  0  0  0  0  0
    8.0180  -16.8047   26.2518 C   0  0  0  0  0  0  0  0  0  0  0  0
    7.2806  -15.5640   26.0922 C   0  0  0  0  0  0  0  0  0  0  0  0
    6.1196  -15.4111   25.3655 C   0  0  0  0  0  0  0  0  0  0  0  0
    5.7493  -14.1259   25.4421 N   0  0  0  0  0  0  0  0  0  0  0  0
    6.6417  -13.4571   26.1968 C   0  0  0  0  0  0  0  0  0  0  0  0
    6.7356  -12.1449   26.5844 C   0  0  0  0  0  0  0  0  0  0  0  0
    7.7952  -11.7422   27.3813 C   0  0  0  0  0  0  0  0  0  0  0  0
    8.7548  -12.6324   27.7916 C   0  0  0  0  0  0  0  0  0  0  0  0
    8.6873  -13.9591   27.4178 C   0  0  0  0  0  0  0  0  0  0  0  0
    7.6267  -14.3438   26.6246 C   0  0  0  0  0  0  0  0  0  0  0  0
   10.0558  -18.1563   25.8555 C   0  0  0  0  0  0  0  0  0  0  0  0
    9.4466  -19.2479   25.5863 O   0  0  0  0  0  0  0  0  0  0  0  0
   11.3650  -18.2575   26.3767 N   0  0  0  0  0  0  0  0  0  0  0  0
   11.8861  -19.5900   26.6999 C   0  0  1  0  0  0  0  0  0  0  0  0
   13.4022  -19.5694   26.5633 C   0  0  0  0  0  0  0  0  0  0  0  0
   13.7793  -19.1727   25.1964 C   0  0  0  0  0  0  0  0  0  0  0  0
   13.1527  -19.4281   23.9906 C   0  0  0  0  0  0  0  0  0  0  0  0
   13.8743  -18.8965   22.9958 N   0  0  0  0  0  0  0  0  0  0  0  0
   14.9485  -18.3056   23.5253 C   0  0  0  0  0  0  0  0  0  0  0  0
   14.8942  -18.4703   24.8500 N   0  0  0  0  0  0  0  0  0  0  0  0
   11.5316  -19.9598   28.0685 C   0  0  0  0  0  0  0  0  0  0  0  0
   11.9486  -21.1909   28.5716 O   0  0  0  0  0  0  0  0  0  0  0  0
   10.8575  -19.1756   28.7820 O   0  0  0  0  0  0  0  0  0  0  0  0
  2  1  1  1
  2  3  1  0
  4  3  1  0
  4  9  1  0
  5  4  2  0
  6  5  1  0
  6  7  2  0
  7  8  1  0
  8  9  2  0
 10  2  1  0
 11 10  2  0
 12 10  1  0
 13 12  1  0
 14 15  1  0
 13 14  1  1
 15 16  2  0
 17 16  1  0
 18 17  1  0
 19 18  2  0
 20 19  1  0
 21 22  1  0
 21 20  2  0
 22 23  2  0
 23 15  1  0
 23 18  1  0
 24 13  1  0
 24 25  2  0
 26 24  1  0
 27 34  1  0
 27 26  1  0
 28 29  1  0
 27 28  1  1
 29 30  2  0
 30 31  1  0
 32 31  1  0
 33 29  1  0
 33 32  2  0
 34 35  1  0
 36 34  2  0
M  END
$$$$
