FWH.pdb
     RDKit          3D

 36 39  0  0  1  0  0  0  0  0999 V2000
    9.4619  -17.8919   20.3181 N   0  0  0  0  0  0  0  0  0  0  0  0
    9.1282  -16.6969   21.0671 C   0  0  1  0  0  0  0  0  0  0  0  0
    7.6448  -16.4123   21.0012 C   0  0  0  0  0  0  0  0  0  0  0  0
    7.4562  -14.9452   20.9416 C   0  0  0  0  0  0  0  0  0  0  0  0
    7.0714  -14.2079   22.0378 C   0  0  0  0  0  0  0  0  0  0  0  0
    6.8983  -12.8451   21.9733 C   0  0  0  0  0  0  0  0  0  0  0  0
    7.1080  -12.1693   20.7931 C   0  0  0  0  0  0  0  0  0  0  0  0
    7.4983  -12.8857   19.6646 C   0  0  0  0  0  0  0  0  0  0  0  0
    7.6604  -14.2371   19.7658 C   0  0  0  0  0  0  0  0  0  0  0  0
    9.6109  -16.8320   22.4626 C   0  0  0  0  0  0  0  0  0  0  0  0
   10.8666  -16.9585   22.6672 O   0  0  0  0  0  0  0  0  0  0  0  0
    8.8047  -16.8343   23.6036 N   0  0  0  0  0  0  0  0  0  0  0  0
    9.3565  -16.6344   24.9605 C   0  0  1  0  0  0  0  0  0  0  0  0
    8.1737  -16.5964   25.8616 C   0  0  0  0  0  0  0  0  0  0  0  0
    7.2781  -15.4592   25.7471 C   0  0  0  0  0  0  0  0  0  0  0  0
    5.9692  -15.5116   25.3190 C   0  0  0  0  0  0  0  0  0  0  0  0
    5.4779  -14.2653   25.3353 N   0  0  0  0  0  0  0  0  0  0  0  0
    6.4371  -13.4218   25.7617 C   0  0  0  0  0  0  0  0  0  0  0  0
    6.4636  -12.0649   25.9586 C   0  0  0  0  0  0  0  0  0  0  0  0
    7.6254  -11.4634   26.4151 C   0  0  0  0  0  0  0  0  0  0  0  0
    8.7529  -12.2004   26.6746 C   0  0  0  0  0  0  0  0  0  0  0  0
    8.7569  -13.5674   26.4861 C   0  0  0  0  0  0  0  0  0  0  0  0
    7.5928  -14.1506   26.0314 C   0  0  0  0  0  0  0  0  0  0  0  0
   10.3022  -17.7092   25.2548 C   0  0  0  0  0  0  0  0  0  0  0  0
    9.8745  -18.9128   25.1932 O   0  0  0  0  0  0  0  0  0  0  0  0
   11.6591  -17.5216   25.6002 N   0  0  0  0  0  0  0  0  0  0  0  0
   12.6143  -18.5876   25.2802 C   0  0  1  0  0  0  0  0  0  0  0  0
   12.6456  -18.7803   23.7703 C   0  0  0  0  0  0  0  0  0  0  0  0
   13.5983  -19.8463   23.4184 C   0  0  0  0  0  0  0  0  0  0  0  0
   14.4607  -20.5700   24.2212 C   0  0  0  0  0  0  0  0  0  0  0  0
   15.1657  -21.4178   23.4615 N   0  0  0  0  0  0  0  0  0  0  0  0
   14.7828  -21.2618   22.1917 C   0  0  0  0  0  0  0  0  0  0  0  0
   13.8394  -20.3161   22.1625 N   0  0  0  0  0  0  0  0  0  0  0  0
   13.9526  -18.2326   25.7474 C   0  0  0  0  0  0  0  0  0  0  0  0
   14.1968  -16.9350   26.1939 O   0  0  0  0  0  0  0  0  0  0  0  0
   14.8721  -19.0889   25.7452 O   0  0  0  0  0  0  0  0  0  0  0  0
  2  1  1  6
  2  3  1  0
  4  3  1  0
  4  9  1  0
  5  4  2  0
  6  5  1  0
  6  7  2  0
  7  8  1  0
  8  9  2  0
 10  2  1  0
 11 10  2  0
 12 10  1  0
 13 12  1  0
 14 15  1  0
 13 14  1  1
 15 16  2  0
 17 16  1  0
 18 17  1  0
 19 18  2  0
 20 19  1  0
 21 22  1  0
 21 20  2  0
 22 23  2  0
 23 15  1  0
 23 18  1  0
 24 13  1  0
 24 25  2  0
 26 24  1  0
 27 34  1  0
 27 26  1  0
 28 29  1  0
 27 28  1  6
 29 30  2  0
 30 31  1  0
 32 31  1  0
 33 29  1  0
 33 32  2  0
 34 35  1  0
 36 34  2  0
M  END
$$$$
