FWH.pdb
     RDKit          3D

 36 39  0  0  1  0  0  0  0  0999 V2000
    5.4029  -15.6708   21.4064 N   0  0  0  0  0  0  0  0  0  0  0  0
    6.6660  -16.3691   21.2750 C   0  0  1  0  0  0  0  0  0  0  0  0
    7.1957  -16.2703   19.8624 C   0  0  0  0  0  0  0  0  0  0  0  0
    7.3839  -14.8385   19.5367 C   0  0  0  0  0  0  0  0  0  0  0  0
    7.1618  -13.8395   20.4565 C   0  0  0  0  0  0  0  0  0  0  0  0
    7.3389  -12.5117   20.1451 C   0  0  0  0  0  0  0  0  0  0  0  0
    7.7495  -12.1381   18.8859 C   0  0  0  0  0  0  0  0  0  0  0  0
    7.9831  -13.1246   17.9312 C   0  0  0  0  0  0  0  0  0  0  0  0
    7.7970  -14.4320   18.2758 C   0  0  0  0  0  0  0  0  0  0  0  0
    7.6308  -15.8467   22.2725 C   0  0  0  0  0  0  0  0  0  0  0  0
    7.7796  -14.5812   22.3767 O   0  0  0  0  0  0  0  0  0  0  0  0
    8.4120  -16.6245   23.1307 N   0  0  0  0  0  0  0  0  0  0  0  0
    9.4134  -16.0310   24.0422 C   0  0  1  0  0  0  0  0  0  0  0  0
    8.8661  -16.2352   25.4102 C   0  0  0  0  0  0  0  0  0  0  0  0
    7.6702  -15.4956   25.7728 C   0  0  0  0  0  0  0  0  0  0  0  0
    6.3760  -15.9463   25.6274 C   0  0  0  0  0  0  0  0  0  0  0  0
    5.5510  -14.9819   26.0568 N   0  0  0  0  0  0  0  0  0  0  0  0
    6.2837  -13.9309   26.4711 C   0  0  0  0  0  0  0  0  0  0  0  0
    5.9463  -12.7076   26.9910 C   0  0  0  0  0  0  0  0  0  0  0  0
    6.9461  -11.8104   27.3310 C   0  0  0  0  0  0  0  0  0  0  0  0
    8.2706  -12.1225   27.1574 C   0  0  0  0  0  0  0  0  0  0  0  0
    8.6412  -13.3455   26.6365 C   0  0  0  0  0  0  0  0  0  0  0  0
    7.6342  -14.2269   26.3032 C   0  0  0  0  0  0  0  0  0  0  0  0
   10.7075  -16.6694   23.8110 C   0  0  0  0  0  0  0  0  0  0  0  0
   10.7624  -17.9454   23.8739 O   0  0  0  0  0  0  0  0  0  0  0  0
   11.9077  -15.9838   23.5187 N   0  0  0  0  0  0  0  0  0  0  0  0
   13.1499  -16.7586   23.4302 C   0  0  1  0  0  0  0  0  0  0  0  0
   14.1591  -15.9737   22.6036 C   0  0  0  0  0  0  0  0  0  0  0  0
   13.6439  -15.7717   21.2392 C   0  0  0  0  0  0  0  0  0  0  0  0
   13.0817  -16.6761   20.3571 C   0  0  0  0  0  0  0  0  0  0  0  0
   12.7865  -16.0505   19.2106 N   0  0  0  0  0  0  0  0  0  0  0  0
   13.1422  -14.7686   19.3277 C   0  0  0  0  0  0  0  0  0  0  0  0
   13.6589  -14.5978   20.5480 N   0  0  0  0  0  0  0  0  0  0  0  0
   13.7008  -16.9962   24.7627 C   0  0  0  0  0  0  0  0  0  0  0  0
   13.1179  -16.3695   25.8628 O   0  0  0  0  0  0  0  0  0  0  0  0
   14.6896  -17.7566   24.9130 O   0  0  0  0  0  0  0  0  0  0  0  0
  2  1  1  6
  2  3  1  0
  4  3  1  0
  4  9  1  0
  5  4  2  0
  6  5  1  0
  6  7  2  0
  7  8  1  0
  8  9  2  0
 10  2  1  0
 11 10  2  0
 12 10  1  0
 13 12  1  0
 14 15  1  0
 13 14  1  1
 15 16  2  0
 17 16  1  0
 18 17  1  0
 19 18  2  0
 20 19  1  0
 21 22  1  0
 21 20  2  0
 22 23  2  0
 23 15  1  0
 23 18  1  0
 24 13  1  0
 24 25  2  0
 26 24  1  0
 27 34  1  0
 27 26  1  0
 28 29  1  0
 27 28  1  6
 29 30  2  0
 30 31  1  0
 32 31  1  0
 33 29  1  0
 33 32  2  0
 34 35  1  0
 36 34  2  0
M  END
$$$$
