FWH.pdb
     RDKit          3D

 36 39  0  0  1  0  0  0  0  0999 V2000
    8.4002  -16.2905   21.2441 N   0  0  0  0  0  0  0  0  0  0  0  0
    9.3777  -15.3806   21.8070 C   0  0  1  0  0  0  0  0  0  0  0  0
    8.7957  -13.9952   21.9741 C   0  0  0  0  0  0  0  0  0  0  0  0
    8.0798  -13.6396   20.7281 C   0  0  0  0  0  0  0  0  0  0  0  0
    6.7339  -13.8718   20.5611 C   0  0  0  0  0  0  0  0  0  0  0  0
    6.0768  -13.5384   19.3999 C   0  0  0  0  0  0  0  0  0  0  0  0
    6.7565  -12.9542   18.3557 C   0  0  0  0  0  0  0  0  0  0  0  0
    8.1199  -12.7055   18.4921 C   0  0  0  0  0  0  0  0  0  0  0  0
    8.7388  -13.0497   19.6588 C   0  0  0  0  0  0  0  0  0  0  0  0
    9.8922  -15.9295   23.0848 C   0  0  0  0  0  0  0  0  0  0  0  0
   11.0696  -15.6035   23.4618 O   0  0  0  0  0  0  0  0  0  0  0  0
    9.1962  -16.7902   23.9371 N   0  0  0  0  0  0  0  0  0  0  0  0
    9.5836  -16.9851   25.3505 C   0  0  1  0  0  0  0  0  0  0  0  0
    8.3012  -17.1213   26.0919 C   0  0  0  0  0  0  0  0  0  0  0  0
    7.4477  -15.9498   26.1789 C   0  0  0  0  0  0  0  0  0  0  0  0
    6.1464  -15.8731   25.7319 C   0  0  0  0  0  0  0  0  0  0  0  0
    5.6981  -14.6337   25.9728 N   0  0  0  0  0  0  0  0  0  0  0  0
    6.6773  -13.9201   26.5603 C   0  0  0  0  0  0  0  0  0  0  0  0
    6.7469  -12.6250   27.0057 C   0  0  0  0  0  0  0  0  0  0  0  0
    7.9197  -12.1621   27.5804 C   0  0  0  0  0  0  0  0  0  0  0  0
    9.0159  -12.9761   27.7131 C   0  0  0  0  0  0  0  0  0  0  0  0
    8.9764  -14.2839   27.2744 C   0  0  0  0  0  0  0  0  0  0  0  0
    7.8018  -14.7290   26.7048 C   0  0  0  0  0  0  0  0  0  0  0  0
   10.4615  -18.1494   25.4491 C   0  0  0  0  0  0  0  0  0  0  0  0
   10.1861  -19.1665   24.7246 O   0  0  0  0  0  0  0  0  0  0  0  0
   11.5979  -18.2380   26.2836 N   0  0  0  0  0  0  0  0  0  0  0  0
   12.3974  -19.4672   26.2454 C   0  0  1  0  0  0  0  0  0  0  0  0
   13.8721  -19.0914   26.2052 C   0  0  0  0  0  0  0  0  0  0  0  0
   14.7032  -20.3026   26.3057 C   0  0  0  0  0  0  0  0  0  0  0  0
   14.5863  -21.3952   27.1450 C   0  0  0  0  0  0  0  0  0  0  0  0
   15.5900  -22.2480   26.9034 N   0  0  0  0  0  0  0  0  0  0  0  0
   16.3511  -21.7368   25.9323 C   0  0  0  0  0  0  0  0  0  0  0  0
   15.8198  -20.5654   25.5706 N   0  0  0  0  0  0  0  0  0  0  0  0
   12.1408  -20.2814   27.4314 C   0  0  0  0  0  0  0  0  0  0  0  0
   12.7368  -21.5367   27.5384 O   0  0  0  0  0  0  0  0  0  0  0  0
   11.3901  -19.8530   28.3434 O   0  0  0  0  0  0  0  0  0  0  0  0
  2  1  1  1
  2  3  1  0
  4  3  1  0
  4  9  1  0
  5  4  2  0
  6  5  1  0
  6  7  2  0
  7  8  1  0
  8  9  2  0
 10  2  1  0
 11 10  2  0
 12 10  1  0
 13 12  1  0
 14 15  1  0
 13 14  1  1
 15 16  2  0
 17 16  1  0
 18 17  1  0
 19 18  2  0
 20 19  1  0
 21 22  1  0
 21 20  2  0
 22 23  2  0
 23 15  1  0
 23 18  1  0
 24 13  1  0
 24 25  2  0
 26 24  1  0
 27 34  1  0
 27 26  1  0
 28 29  1  0
 27 28  1  1
 29 30  2  0
 30 31  1  0
 32 31  1  0
 33 29  1  0
 33 32  2  0
 34 35  1  0
 36 34  2  0
M  END
$$$$
