FWH.pdb
     RDKit          3D

 36 39  0  0  1  0  0  0  0  0999 V2000
   11.3906  -17.4313   19.3898 N   0  0  0  0  0  0  0  0  0  0  0  0
   10.5436  -17.8357   20.4941 C   0  0  1  0  0  0  0  0  0  0  0  0
   11.0010  -19.1552   21.0733 C   0  0  0  0  0  0  0  0  0  0  0  0
   10.7437  -20.2152   20.0725 C   0  0  0  0  0  0  0  0  0  0  0  0
   11.7575  -20.8276   19.3723 C   0  0  0  0  0  0  0  0  0  0  0  0
   11.5092  -21.8114   18.4441 C   0  0  0  0  0  0  0  0  0  0  0  0
   10.2204  -22.2180   18.1847 C   0  0  0  0  0  0  0  0  0  0  0  0
    9.1708  -21.6184   18.8761 C   0  0  0  0  0  0  0  0  0  0  0  0
    9.4549  -20.6454   19.7901 C   0  0  0  0  0  0  0  0  0  0  0  0
   10.5058  -16.7597   21.5136 C   0  0  0  0  0  0  0  0  0  0  0  0
   11.6000  -16.1822   21.8359 O   0  0  0  0  0  0  0  0  0  0  0  0
    9.3605  -16.3053   22.1720 N   0  0  0  0  0  0  0  0  0  0  0  0
    9.4173  -15.2907   23.2458 C   0  0  1  0  0  0  0  0  0  0  0  0
    8.0893  -14.6213   23.2215 C   0  0  0  0  0  0  0  0  0  0  0  0
    7.8933  -13.4849   24.1041 C   0  0  0  0  0  0  0  0  0  0  0  0
    8.3066  -12.1948   23.8511 C   0  0  0  0  0  0  0  0  0  0  0  0
    7.9601  -11.4359   24.8994 N   0  0  0  0  0  0  0  0  0  0  0  0
    7.3382  -12.2066   25.8118 C   0  0  0  0  0  0  0  0  0  0  0  0
    6.7939  -11.9385   27.0416 C   0  0  0  0  0  0  0  0  0  0  0  0
    6.2083  -12.9632   27.7677 C   0  0  0  0  0  0  0  0  0  0  0  0
    6.1621  -14.2442   27.2793 C   0  0  0  0  0  0  0  0  0  0  0  0
    6.7012  -14.5449   26.0451 C   0  0  0  0  0  0  0  0  0  0  0  0
    7.2804  -13.5140   25.3352 C   0  0  0  0  0  0  0  0  0  0  0  0
    9.7348  -15.9508   24.5105 C   0  0  0  0  0  0  0  0  0  0  0  0
    9.1005  -17.0231   24.7988 O   0  0  0  0  0  0  0  0  0  0  0  0
   10.6946  -15.4965   25.4422 N   0  0  0  0  0  0  0  0  0  0  0  0
   10.8627  -16.2456   26.6920 C   0  0  1  0  0  0  0  0  0  0  0  0
   12.3465  -16.5068   26.9108 C   0  0  0  0  0  0  0  0  0  0  0  0
   12.8002  -17.5987   26.0335 C   0  0  0  0  0  0  0  0  0  0  0  0
   12.0791  -18.4119   25.1788 C   0  0  0  0  0  0  0  0  0  0  0  0
   12.9068  -19.2931   24.6032 N   0  0  0  0  0  0  0  0  0  0  0  0
   14.1412  -19.0718   25.0622 C   0  0  0  0  0  0  0  0  0  0  0  0
   14.0802  -18.0523   25.9237 N   0  0  0  0  0  0  0  0  0  0  0  0
   10.3374  -15.4811   27.8212 C   0  0  0  0  0  0  0  0  0  0  0  0
   10.3879  -16.0327   29.1002 O   0  0  0  0  0  0  0  0  0  0  0  0
    9.8453  -14.3395   27.6390 O   0  0  0  0  0  0  0  0  0  0  0  0
  2  1  1  6
  2  3  1  0
  4  3  1  0
  4  9  1  0
  5  4  2  0
  6  5  1  0
  6  7  2  0
  7  8  1  0
  8  9  2  0
 10  2  1  0
 11 10  2  0
 12 10  1  0
 13 12  1  0
 14 15  1  0
 13 14  1  1
 15 16  2  0
 17 16  1  0
 18 17  1  0
 19 18  2  0
 20 19  1  0
 21 22  1  0
 21 20  2  0
 22 23  2  0
 23 15  1  0
 23 18  1  0
 24 13  1  0
 24 25  2  0
 26 24  1  0
 27 34  1  0
 27 26  1  0
 28 29  1  0
 27 28  1  1
 29 30  2  0
 30 31  1  0
 32 31  1  0
 33 29  1  0
 33 32  2  0
 34 35  1  0
 36 34  2  0
M  END
$$$$
