FWH.pdb
     RDKit          3D

 36 39  0  0  1  0  0  0  0  0999 V2000
    8.3473  -16.0659   20.5956 N   0  0  0  0  0  0  0  0  0  0  0  0
    8.9493  -14.8146   21.0109 C   0  0  1  0  0  0  0  0  0  0  0  0
    7.9760  -13.6678   20.8583 C   0  0  0  0  0  0  0  0  0  0  0  0
    7.6217  -13.5476   19.4261 C   0  0  0  0  0  0  0  0  0  0  0  0
    6.5396  -14.1979   18.8788 C   0  0  0  0  0  0  0  0  0  0  0  0
    6.2180  -14.0807   17.5469 C   0  0  0  0  0  0  0  0  0  0  0  0
    6.9803  -13.2980   16.7103 C   0  0  0  0  0  0  0  0  0  0  0  0
    8.0827  -12.6261   17.2323 C   0  0  0  0  0  0  0  0  0  0  0  0
    8.3717  -12.7658   18.5588 C   0  0  0  0  0  0  0  0  0  0  0  0
    9.4531  -14.9404   22.3998 C   0  0  0  0  0  0  0  0  0  0  0  0
   10.1885  -14.0071   22.8718 O   0  0  0  0  0  0  0  0  0  0  0  0
    9.1947  -16.0077   23.2633 N   0  0  0  0  0  0  0  0  0  0  0  0
    9.8153  -16.1087   24.6014 C   0  0  1  0  0  0  0  0  0  0  0  0
    8.6943  -16.4145   25.5300 C   0  0  0  0  0  0  0  0  0  0  0  0
    7.5460  -15.5259   25.5126 C   0  0  0  0  0  0  0  0  0  0  0  0
    6.2502  -15.8986   25.2276 C   0  0  0  0  0  0  0  0  0  0  0  0
    5.4799  -14.8046   25.2969 N   0  0  0  0  0  0  0  0  0  0  0  0
    6.2489  -13.7469   25.6178 C   0  0  0  0  0  0  0  0  0  0  0  0
    5.9709  -12.4179   25.8110 C   0  0  0  0  0  0  0  0  0  0  0  0
    6.9965  -11.5462   26.1400 C   0  0  0  0  0  0  0  0  0  0  0  0
    8.2882  -11.9874   26.2768 C   0  0  0  0  0  0  0  0  0  0  0  0
    8.5989  -13.3187   26.0887 C   0  0  0  0  0  0  0  0  0  0  0  0
    7.5669  -14.1732   25.7616 C   0  0  0  0  0  0  0  0  0  0  0  0
   10.8623  -17.1279   24.5667 C   0  0  0  0  0  0  0  0  0  0  0  0
   10.6398  -18.1879   23.8870 O   0  0  0  0  0  0  0  0  0  0  0  0
   12.1080  -17.0314   25.2258 N   0  0  0  0  0  0  0  0  0  0  0  0
   12.1171  -16.9271   26.6888 C   0  0  1  0  0  0  0  0  0  0  0  0
   10.9016  -16.1236   27.1302 C   0  0  0  0  0  0  0  0  0  0  0  0
   10.8872  -15.9973   28.5971 C   0  0  0  0  0  0  0  0  0  0  0  0
   11.1778  -14.9096   29.3998 C   0  0  0  0  0  0  0  0  0  0  0  0
   11.0630  -15.2654   30.6855 N   0  0  0  0  0  0  0  0  0  0  0  0
   10.7067  -16.5515   30.7353 C   0  0  0  0  0  0  0  0  0  0  0  0
   10.6002  -16.9950   29.4795 N   0  0  0  0  0  0  0  0  0  0  0  0
   12.0623  -18.2549   27.2967 C   0  0  0  0  0  0  0  0  0  0  0  0
   11.3430  -19.2660   26.6619 O   0  0  0  0  0  0  0  0  0  0  0  0
   12.6571  -18.4805   28.3802 O   0  0  0  0  0  0  0  0  0  0  0  0
  2  1  1  1
  2  3  1  0
  4  3  1  0
  4  9  1  0
  5  4  2  0
  6  5  1  0
  6  7  2  0
  7  8  1  0
  8  9  2  0
 10  2  1  0
 11 10  2  0
 12 10  1  0
 13 12  1  0
 14 15  1  0
 13 14  1  1
 15 16  2  0
 17 16  1  0
 18 17  1  0
 19 18  2  0
 20 19  1  0
 21 22  1  0
 21 20  2  0
 22 23  2  0
 23 15  1  0
 23 18  1  0
 24 13  1  0
 24 25  2  0
 26 24  1  0
 27 34  1  0
 27 26  1  0
 28 29  1  0
 27 28  1  1
 29 30  2  0
 30 31  1  0
 32 31  1  0
 33 29  1  0
 33 32  2  0
 34 35  1  0
 36 34  2  0
M  END
$$$$
