FWH.pdb
     RDKit          3D

 36 39  0  0  1  0  0  0  0  0999 V2000
   11.4788  -17.8290   19.9422 N   0  0  0  0  0  0  0  0  0  0  0  0
   10.5209  -16.7866   20.2529 C   0  0  1  0  0  0  0  0  0  0  0  0
    9.1789  -17.0774   19.6203 C   0  0  0  0  0  0  0  0  0  0  0  0
    8.3116  -15.8923   19.8071 C   0  0  0  0  0  0  0  0  0  0  0  0
    8.5766  -14.6844   19.2038 C   0  0  0  0  0  0  0  0  0  0  0  0
    7.7655  -13.5884   19.3831 C   0  0  0  0  0  0  0  0  0  0  0  0
    6.6487  -13.6692   20.1830 C   0  0  0  0  0  0  0  0  0  0  0  0
    6.3517  -14.8774   20.8085 C   0  0  0  0  0  0  0  0  0  0  0  0
    7.1793  -15.9440   20.6076 C   0  0  0  0  0  0  0  0  0  0  0  0
   10.4229  -16.6217   21.7233 C   0  0  0  0  0  0  0  0  0  0  0  0
   10.8180  -17.5776   22.4748 O   0  0  0  0  0  0  0  0  0  0  0  0
    9.9277  -15.4938   22.3822 N   0  0  0  0  0  0  0  0  0  0  0  0
    9.9596  -15.3620   23.8544 C   0  0  1  0  0  0  0  0  0  0  0  0
    8.8601  -14.4167   24.1860 C   0  0  0  0  0  0  0  0  0  0  0  0
    8.6175  -14.1339   25.5895 C   0  0  0  0  0  0  0  0  0  0  0  0
    9.1745  -14.8144   26.6506 C   0  0  0  0  0  0  0  0  0  0  0  0
    8.7020  -14.2751   27.7823 N   0  0  0  0  0  0  0  0  0  0  0  0
    7.8604  -13.2711   27.4711 C   0  0  0  0  0  0  0  0  0  0  0  0
    7.1183  -12.4073   28.2353 C   0  0  0  0  0  0  0  0  0  0  0  0
    6.3244  -11.4560   27.6151 C   0  0  0  0  0  0  0  0  0  0  0  0
    6.2657  -11.3607   26.2479 C   0  0  0  0  0  0  0  0  0  0  0  0
    7.0008  -12.2157   25.4524 C   0  0  0  0  0  0  0  0  0  0  0  0
    7.7858  -13.1568   26.0851 C   0  0  0  0  0  0  0  0  0  0  0  0
    9.8157  -16.6863   24.4558 C   0  0  0  0  0  0  0  0  0  0  0  0
    8.6769  -17.2610   24.3661 O   0  0  0  0  0  0  0  0  0  0  0  0
   10.8423  -17.3857   25.1286 N   0  0  0  0  0  0  0  0  0  0  0  0
   10.4780  -18.5598   25.9287 C   0  0  1  0  0  0  0  0  0  0  0  0
   11.7310  -19.3852   26.1861 C   0  0  0  0  0  0  0  0  0  0  0  0
   12.2998  -19.8485   24.9094 C   0  0  0  0  0  0  0  0  0  0  0  0
   11.7670  -19.8168   23.6339 C   0  0  0  0  0  0  0  0  0  0  0  0
   12.6304  -20.3804   22.7797 N   0  0  0  0  0  0  0  0  0  0  0  0
   13.7050  -20.7748   23.4676 C   0  0  0  0  0  0  0  0  0  0  0  0
   13.5088  -20.4561   24.7502 N   0  0  0  0  0  0  0  0  0  0  0  0
    9.9019  -18.1489   27.2072 C   0  0  0  0  0  0  0  0  0  0  0  0
   10.7455  -17.7023   28.2229 O   0  0  0  0  0  0  0  0  0  0  0  0
    8.6594  -18.1991   27.3874 O   0  0  0  0  0  0  0  0  0  0  0  0
  2  1  1  1
  2  3  1  0
  4  3  1  0
  4  9  1  0
  5  4  2  0
  6  5  1  0
  6  7  2  0
  7  8  1  0
  8  9  2  0
 10  2  1  0
 11 10  2  0
 12 10  1  0
 13 12  1  0
 14 15  1  0
 13 14  1  1
 15 16  2  0
 17 16  1  0
 18 17  1  0
 19 18  2  0
 20 19  1  0
 21 22  1  0
 21 20  2  0
 22 23  2  0
 23 15  1  0
 23 18  1  0
 24 13  1  0
 24 25  2  0
 26 24  1  0
 27 34  1  0
 27 26  1  0
 28 29  1  0
 27 28  1  1
 29 30  2  0
 30 31  1  0
 32 31  1  0
 33 29  1  0
 33 32  2  0
 34 35  1  0
 36 34  2  0
M  END
$$$$
