FWH.pdb
     RDKit          3D

 36 39  0  0  1  0  0  0  0  0999 V2000
    7.8827  -17.5572   20.5984 N   0  0  0  0  0  0  0  0  0  0  0  0
    9.2685  -17.1866   20.3918 C   0  0  1  0  0  0  0  0  0  0  0  0
    9.4022  -16.2016   19.2526 C   0  0  0  0  0  0  0  0  0  0  0  0
    8.7029  -14.9538   19.6338 C   0  0  0  0  0  0  0  0  0  0  0  0
    9.3211  -13.7250   19.6024 C   0  0  0  0  0  0  0  0  0  0  0  0
    8.6637  -12.5708   19.9586 C   0  0  0  0  0  0  0  0  0  0  0  0
    7.3490  -12.6119   20.3628 C   0  0  0  0  0  0  0  0  0  0  0  0
    6.6936  -13.8399   20.4059 C   0  0  0  0  0  0  0  0  0  0  0  0
    7.3776  -14.9645   20.0453 C   0  0  0  0  0  0  0  0  0  0  0  0
    9.8380  -16.6612   21.6560 C   0  0  0  0  0  0  0  0  0  0  0  0
   11.0624  -16.2935   21.6703 O   0  0  0  0  0  0  0  0  0  0  0  0
    9.1474  -16.5260   22.8629 N   0  0  0  0  0  0  0  0  0  0  0  0
    9.7874  -15.9895   24.0828 C   0  0  1  0  0  0  0  0  0  0  0  0
    9.3241  -14.5793   24.1791 C   0  0  0  0  0  0  0  0  0  0  0  0
    8.0027  -14.3425   24.7328 C   0  0  0  0  0  0  0  0  0  0  0  0
    6.9579  -15.2410   24.7217 C   0  0  0  0  0  0  0  0  0  0  0  0
    5.9043  -14.6582   25.3093 N   0  0  0  0  0  0  0  0  0  0  0  0
    6.2495  -13.4147   25.6938 C   0  0  0  0  0  0  0  0  0  0  0  0
    5.5617  -12.4111   26.3266 C   0  0  0  0  0  0  0  0  0  0  0  0
    6.1987  -11.2101   26.5947 C   0  0  0  0  0  0  0  0  0  0  0  0
    7.5074  -11.0045   26.2388 C   0  0  0  0  0  0  0  0  0  0  0  0
    8.2255  -11.9954   25.6009 C   0  0  0  0  0  0  0  0  0  0  0  0
    7.5770  -13.1846   25.3413 C   0  0  0  0  0  0  0  0  0  0  0  0
    9.4155  -16.8237   25.2238 C   0  0  0  0  0  0  0  0  0  0  0  0
    8.2144  -17.2592   25.2773 O   0  0  0  0  0  0  0  0  0  0  0  0
   10.2843  -17.1910   26.2754 N   0  0  0  0  0  0  0  0  0  0  0  0
   10.9349  -18.5043   26.2162 C   0  0  1  0  0  0  0  0  0  0  0  0
   11.7738  -18.5788   24.9480 C   0  0  0  0  0  0  0  0  0  0  0  0
   12.3902  -19.9107   24.8296 C   0  0  0  0  0  0  0  0  0  0  0  0
   12.3269  -20.9996   25.6794 C   0  0  0  0  0  0  0  0  0  0  0  0
   13.0734  -21.9933   25.1814 N   0  0  0  0  0  0  0  0  0  0  0  0
   13.6165  -21.5768   24.0346 C   0  0  0  0  0  0  0  0  0  0  0  0
   13.2072  -20.3231   23.8202 N   0  0  0  0  0  0  0  0  0  0  0  0
   11.8006  -18.6990   27.3774 C   0  0  0  0  0  0  0  0  0  0  0  0
   12.3650  -19.9531   27.6040 O   0  0  0  0  0  0  0  0  0  0  0  0
   12.0317  -17.7454   28.1621 O   0  0  0  0  0  0  0  0  0  0  0  0
  2  1  1  1
  2  3  1  0
  4  3  1  0
  4  9  1  0
  5  4  2  0
  6  5  1  0
  6  7  2  0
  7  8  1  0
  8  9  2  0
 10  2  1  0
 11 10  2  0
 12 10  1  0
 13 12  1  0
 14 15  1  0
 13 14  1  1
 15 16  2  0
 17 16  1  0
 18 17  1  0
 19 18  2  0
 20 19  1  0
 21 22  1  0
 21 20  2  0
 22 23  2  0
 23 15  1  0
 23 18  1  0
 24 13  1  0
 24 25  2  0
 26 24  1  0
 27 34  1  0
 27 26  1  0
 28 29  1  0
 27 28  1  6
 29 30  2  0
 30 31  1  0
 32 31  1  0
 33 29  1  0
 33 32  2  0
 34 35  1  0
 36 34  2  0
M  END
$$$$
