FWH.pdb
     RDKit          3D

 36 39  0  0  1  0  0  0  0  0999 V2000
   10.5490  -15.4246   20.8343 N   0  0  0  0  0  0  0  0  0  0  0  0
    9.3977  -15.3987   21.7143 C   0  0  1  0  0  0  0  0  0  0  0  0
    8.1625  -15.9073   21.0062 C   0  0  0  0  0  0  0  0  0  0  0  0
    7.7459  -14.8916   20.0131 C   0  0  0  0  0  0  0  0  0  0  0  0
    7.2813  -13.6498   20.3813 C   0  0  0  0  0  0  0  0  0  0  0  0
    6.8962  -12.7124   19.4518 C   0  0  0  0  0  0  0  0  0  0  0  0
    6.9653  -12.9931   18.1064 C   0  0  0  0  0  0  0  0  0  0  0  0
    7.4311  -14.2408   17.6997 C   0  0  0  0  0  0  0  0  0  0  0  0
    7.8046  -15.1463   18.6502 C   0  0  0  0  0  0  0  0  0  0  0  0
    9.6941  -16.1691   22.9460 C   0  0  0  0  0  0  0  0  0  0  0  0
   10.8952  -16.5553   23.1532 O   0  0  0  0  0  0  0  0  0  0  0  0
    8.7633  -16.5222   23.9262 N   0  0  0  0  0  0  0  0  0  0  0  0
    9.1301  -16.6538   25.3523 C   0  0  1  0  0  0  0  0  0  0  0  0
    7.8590  -16.4661   26.1016 C   0  0  0  0  0  0  0  0  0  0  0  0
    7.2215  -15.1634   26.0277 C   0  0  0  0  0  0  0  0  0  0  0  0
    5.9658  -14.9151   25.5171 C   0  0  0  0  0  0  0  0  0  0  0  0
    5.7350  -13.5985   25.6072 N   0  0  0  0  0  0  0  0  0  0  0  0
    6.8082  -13.0025   26.1606 C   0  0  0  0  0  0  0  0  0  0  0  0
    7.0914  -11.6972   26.4714 C   0  0  0  0  0  0  0  0  0  0  0  0
    8.3117  -11.3812   27.0469 C   0  0  0  0  0  0  0  0  0  0  0  0
    9.2447  -12.3509   27.3128 C   0  0  0  0  0  0  0  0  0  0  0  0
    8.9887  -13.6730   27.0114 C   0  0  0  0  0  0  0  0  0  0  0  0
    7.7697  -13.9708   26.4390 C   0  0  0  0  0  0  0  0  0  0  0  0
    9.7666  -17.9522   25.5640 C   0  0  0  0  0  0  0  0  0  0  0  0
    9.1538  -18.9923   25.1422 O   0  0  0  0  0  0  0  0  0  0  0  0
   11.0135  -18.1487   26.1983 N   0  0  0  0  0  0  0  0  0  0  0  0
   11.3457  -19.4928   26.6827 C   0  0  1  0  0  0  0  0  0  0  0  0
   12.7974  -19.7934   26.3364 C   0  0  0  0  0  0  0  0  0  0  0  0
   12.9659  -19.8454   24.8746 C   0  0  0  0  0  0  0  0  0  0  0  0
   12.8494  -20.9121   24.0025 C   0  0  0  0  0  0  0  0  0  0  0  0
   13.1229  -20.4985   22.7587 N   0  0  0  0  0  0  0  0  0  0  0  0
   13.4126  -19.1956   22.8034 C   0  0  0  0  0  0  0  0  0  0  0  0
   13.3191  -18.7996   24.0760 N   0  0  0  0  0  0  0  0  0  0  0  0
   11.1706  -19.5722   28.1313 C   0  0  0  0  0  0  0  0  0  0  0  0
   11.4596  -20.7670   28.7882 O   0  0  0  0  0  0  0  0  0  0  0  0
   10.7631  -18.5736   28.7757 O   0  0  0  0  0  0  0  0  0  0  0  0
  2  1  1  6
  2  3  1  0
  4  3  1  0
  4  9  1  0
  5  4  2  0
  6  5  1  0
  6  7  2  0
  7  8  1  0
  8  9  2  0
 10  2  1  0
 11 10  2  0
 12 10  1  0
 13 12  1  0
 14 15  1  0
 13 14  1  1
 15 16  2  0
 17 16  1  0
 18 17  1  0
 19 18  2  0
 20 19  1  0
 21 22  1  0
 21 20  2  0
 22 23  2  0
 23 15  1  0
 23 18  1  0
 24 13  1  0
 24 25  2  0
 26 24  1  0
 27 34  1  0
 27 26  1  0
 28 29  1  0
 27 28  1  1
 29 30  2  0
 30 31  1  0
 32 31  1  0
 33 29  1  0
 33 32  2  0
 34 35  1  0
 36 34  2  0
M  END
$$$$
