DDQ.pdb
     RDKit          3D

 26 25  0  0  1  0  0  0  0  0999 V2000
   16.8294   -9.8547  -15.2222 N   0  0  0  0  0  0  0  0  0  0  0  0
   17.4129   -9.9082  -13.9151 C   0  0  1  0  0  0  0  0  0  0  0  0
   18.8451   -9.4304  -13.8807 C   0  0  0  0  0  0  0  0  0  0  0  0
   19.6479  -10.3811  -14.6992 C   0  0  0  0  0  0  0  0  0  0  0  0
   19.5724  -11.6106  -14.4479 O   0  0  0  0  0  0  0  0  0  0  0  0
   16.5690   -9.2336  -12.9026 C   0  0  0  0  0  0  0  0  0  0  0  0
   16.2423   -8.0360  -13.1257 O   0  0  0  0  0  0  0  0  0  0  0  0
   20.4790   -9.9794  -15.7298 O   0  0  0  0  0  0  0  0  0  0  0  0
   16.1152   -9.8403  -11.7211 N   0  0  0  0  0  0  0  0  0  0  0  0
   15.1649   -9.1357  -10.8382 C   0  0  1  0  0  0  0  0  0  0  0  0
   14.3300  -10.1609  -10.1020 C   0  0  0  0  0  0  0  0  0  0  0  0
   13.3507  -10.7832  -10.9891 C   0  0  0  0  0  0  0  0  0  0  0  0
   12.4918  -10.0888  -11.5650 O   0  0  0  0  0  0  0  0  0  0  0  0
   15.8795   -8.2157   -9.9399 C   0  0  0  0  0  0  0  0  0  0  0  0
   17.0201   -8.4813   -9.4913 O   0  0  0  0  0  0  0  0  0  0  0  0
   13.3998  -12.1650  -11.1751 O   0  0  0  0  0  0  0  0  0  0  0  0
   17.1552   -3.0441  -10.8861 N   0  0  0  0  0  0  0  0  0  0  0  0
   17.7122   -2.9799   -9.5686 C   0  0  0  0  0  0  0  0  0  0  0  0
   18.1560   -1.9388   -9.0563 O   0  0  0  0  0  0  0  0  0  0  0  0
   17.7613   -4.2423   -8.7633 C   0  0  0  0  0  0  0  0  0  0  0  0
   17.0920   -5.3364   -9.5428 C   0  0  0  0  0  0  0  0  0  0  0  0
   16.0423   -5.9961   -8.7159 C   0  0  2  0  0  0  0  0  0  0  0  0
   15.3162   -6.9747   -9.5308 N   0  0  0  0  0  0  0  0  0  0  0  0
   15.1335   -5.1001   -8.0087 C   0  0  0  0  0  0  0  0  0  0  0  0
   15.4078   -4.4776   -6.8054 O   0  0  0  0  0  0  0  0  0  0  0  0
   13.9772   -4.8319   -8.4890 O   0  0  0  0  0  0  0  0  0  0  0  0
  2  1  1  6
  2  3  1  0
  3  4  1  0
  4  8  1  0
  5  4  2  0
  6  2  1  0
  7  6  2  0
  9  6  1  0
 10 14  1  0
 10  9  1  0
 11 12  1  0
 10 11  1  1
 12 13  2  0
 14 23  1  0
 15 14  2  0
 16 12  1  0
 18 19  2  0
 18 17  1  0
 20 18  1  0
 21 20  1  0
 22 21  1  6
 22 24  1  0
 23 22  1  0
 24 26  2  0
 24 25  1  0
M  END
$$$$
