DDQ.pdb
     RDKit          3D

 26 25  0  0  1  0  0  0  0  0999 V2000
   26.9420  -21.3345  -12.0241 N   0  0  0  0  0  0  0  0  0  0  0  0
   25.6720  -21.1758  -11.3808 C   0  0  1  0  0  0  0  0  0  0  0  0
   25.7288  -20.2926  -10.1572 C   0  0  0  0  0  0  0  0  0  0  0  0
   26.8284  -20.8049   -9.2931 C   0  0  0  0  0  0  0  0  0  0  0  0
   27.5967  -21.6888   -9.7503 O   0  0  0  0  0  0  0  0  0  0  0  0
   24.6172  -20.7554  -12.3311 C   0  0  0  0  0  0  0  0  0  0  0  0
   23.9775  -19.7032  -12.0581 O   0  0  0  0  0  0  0  0  0  0  0  0
   27.0509  -20.3557   -8.0035 O   0  0  0  0  0  0  0  0  0  0  0  0
   24.2894  -21.4502  -13.5057 N   0  0  0  0  0  0  0  0  0  0  0  0
   23.2939  -20.8982  -14.4456 C   0  0  1  0  0  0  0  0  0  0  0  0
   23.7727  -21.1387  -15.8610 C   0  0  0  0  0  0  0  0  0  0  0  0
   22.8430  -20.5775  -16.8378 C   0  0  0  0  0  0  0  0  0  0  0  0
   22.1133  -19.6153  -16.5323 O   0  0  0  0  0  0  0  0  0  0  0  0
   21.9626  -21.4644  -14.1791 C   0  0  0  0  0  0  0  0  0  0  0  0
   21.8075  -22.6647  -13.8508 O   0  0  0  0  0  0  0  0  0  0  0  0
   22.7919  -21.1412  -18.1129 O   0  0  0  0  0  0  0  0  0  0  0  0
   14.6764  -19.8482  -13.8768 N   0  0  0  0  0  0  0  0  0  0  0  0
   16.0668  -19.5470  -14.0394 C   0  0  0  0  0  0  0  0  0  0  0  0
   16.5021  -18.4125  -14.2977 O   0  0  0  0  0  0  0  0  0  0  0  0
   17.0513  -20.6661  -13.8887 C   0  0  0  0  0  0  0  0  0  0  0  0
   18.4252  -20.1418  -14.1890 C   0  0  0  0  0  0  0  0  0  0  0  0
   19.4369  -21.2274  -14.0526 C   0  0  2  0  0  0  0  0  0  0  0  0
   20.7784  -20.6817  -14.2793 N   0  0  0  0  0  0  0  0  0  0  0  0
   19.1973  -22.4240  -14.8524 C   0  0  0  0  0  0  0  0  0  0  0  0
   19.4477  -22.5375  -16.2072 O   0  0  0  0  0  0  0  0  0  0  0  0
   18.7178  -23.4826  -14.3148 O   0  0  0  0  0  0  0  0  0  0  0  0
  2  1  1  6
  2  3  1  0
  3  4  1  0
  4  8  1  0
  5  4  2  0
  6  2  1  0
  7  6  2  0
  9  6  1  0
 10 14  1  0
 10  9  1  0
 11 12  1  0
 10 11  1  6
 12 13  2  0
 14 23  1  0
 15 14  2  0
 16 12  1  0
 18 19  2  0
 18 17  1  0
 20 18  1  0
 21 20  1  0
 22 21  1  6
 22 24  1  0
 23 22  1  0
 24 26  2  0
 24 25  1  0
M  END
$$$$
