DDQ.pdb
     RDKit          3D

 26 25  0  0  1  0  0  0  0  0999 V2000
   13.8106   -9.4145  -11.4697 N   0  0  0  0  0  0  0  0  0  0  0  0
   14.9709   -9.4113  -10.6295 C   0  0  1  0  0  0  0  0  0  0  0  0
   15.9163  -10.5543  -10.9130 C   0  0  0  0  0  0  0  0  0  0  0  0
   15.1881  -11.8167  -10.6058 C   0  0  0  0  0  0  0  0  0  0  0  0
   15.8105  -12.9070  -10.6727 O   0  0  0  0  0  0  0  0  0  0  0  0
   15.6559   -8.0986  -10.6342 C   0  0  0  0  0  0  0  0  0  0  0  0
   15.8592   -7.5553  -11.7542 O   0  0  0  0  0  0  0  0  0  0  0  0
   13.8521  -11.8531  -10.2479 O   0  0  0  0  0  0  0  0  0  0  0  0
   16.0884   -7.4289   -9.4790 N   0  0  0  0  0  0  0  0  0  0  0  0
   16.6852   -6.0823   -9.5769 C   0  0  1  0  0  0  0  0  0  0  0  0
   16.4196   -5.3355   -8.2878 C   0  0  0  0  0  0  0  0  0  0  0  0
   15.0337   -4.8804   -8.2145 C   0  0  0  0  0  0  0  0  0  0  0  0
   14.3237   -4.8564   -9.2377 O   0  0  0  0  0  0  0  0  0  0  0  0
   18.1150   -6.1742   -9.9105 C   0  0  0  0  0  0  0  0  0  0  0  0
   18.9862   -6.3923   -9.0353 O   0  0  0  0  0  0  0  0  0  0  0  0
   14.5272   -4.4757   -6.9792 O   0  0  0  0  0  0  0  0  0  0  0  0
   22.7674   -9.1017  -14.5359 N   0  0  0  0  0  0  0  0  0  0  0  0
   21.5692   -8.8862  -13.7822 C   0  0  0  0  0  0  0  0  0  0  0  0
   20.5706   -9.6223  -13.8471 O   0  0  0  0  0  0  0  0  0  0  0  0
   21.5194   -7.7043  -12.8630 C   0  0  0  0  0  0  0  0  0  0  0  0
   20.0919   -7.4623  -12.4676 C   0  0  0  0  0  0  0  0  0  0  0  0
   19.9862   -6.2363  -11.6270 C   0  0  2  0  0  0  0  0  0  0  0  0
   18.5878   -6.0208  -11.2439 N   0  0  0  0  0  0  0  0  0  0  0  0
   20.5866   -5.0292  -12.1848 C   0  0  0  0  0  0  0  0  0  0  0  0
   19.8850   -3.9176  -12.6129 O   0  0  0  0  0  0  0  0  0  0  0  0
   21.8568   -4.9326  -12.3147 O   0  0  0  0  0  0  0  0  0  0  0  0
  2  1  1  6
  2  3  1  0
  3  4  1  0
  4  8  1  0
  5  4  2  0
  6  2  1  0
  7  6  2  0
  9  6  1  0
 10 14  1  0
 10  9  1  0
 11 12  1  0
 10 11  1  1
 12 13  2  0
 14 23  1  0
 15 14  2  0
 16 12  1  0
 18 19  2  0
 18 17  1  0
 20 18  1  0
 21 20  1  0
 22 21  1  6
 22 24  1  0
 23 22  1  0
 24 26  2  0
 24 25  1  0
M  END
$$$$
