DDQ.pdb
     RDKit          3D

 26 25  0  0  1  0  0  0  0  0999 V2000
   17.4119  -13.4500  -14.7067 N   0  0  0  0  0  0  0  0  0  0  0  0
   16.3653  -12.4722  -14.6857 C   0  0  1  0  0  0  0  0  0  0  0  0
   15.0853  -12.9810  -14.0664 C   0  0  0  0  0  0  0  0  0  0  0  0
   14.4772  -13.9380  -15.0320 C   0  0  0  0  0  0  0  0  0  0  0  0
   15.0784  -14.1750  -16.1105 O   0  0  0  0  0  0  0  0  0  0  0  0
   16.8121  -11.1938  -14.0869 C   0  0  0  0  0  0  0  0  0  0  0  0
   16.9678  -11.1635  -12.8356 O   0  0  0  0  0  0  0  0  0  0  0  0
   13.2759  -14.5853  -14.8031 O   0  0  0  0  0  0  0  0  0  0  0  0
   17.0702  -10.0253  -14.8202 N   0  0  0  0  0  0  0  0  0  0  0  0
   17.6136   -8.8282  -14.1489 C   0  0  1  0  0  0  0  0  0  0  0  0
   18.4351   -8.0398  -15.1459 C   0  0  0  0  0  0  0  0  0  0  0  0
   18.9760   -6.8240  -14.5437 C   0  0  0  0  0  0  0  0  0  0  0  0
   19.7508   -6.8939  -13.5709 O   0  0  0  0  0  0  0  0  0  0  0  0
   16.5303   -8.0419  -13.5387 C   0  0  0  0  0  0  0  0  0  0  0  0
   15.4482   -7.8309  -14.1361 O   0  0  0  0  0  0  0  0  0  0  0  0
   18.6065   -5.5904  -15.0803 O   0  0  0  0  0  0  0  0  0  0  0  0
   15.6384   -7.2309   -7.4852 N   0  0  0  0  0  0  0  0  0  0  0  0
   14.5138   -6.5036   -7.9917 C   0  0  0  0  0  0  0  0  0  0  0  0
   13.5994   -6.0603   -7.2772 O   0  0  0  0  0  0  0  0  0  0  0  0
   14.4378   -6.2648   -9.4687 C   0  0  0  0  0  0  0  0  0  0  0  0
   15.5954   -6.9562  -10.1280 C   0  0  0  0  0  0  0  0  0  0  0  0
   15.5808   -6.7075  -11.5973 C   0  0  2  0  0  0  0  0  0  0  0  0
   16.6509   -7.4780  -12.2378 N   0  0  0  0  0  0  0  0  0  0  0  0
   15.6039   -5.3069  -12.0053 C   0  0  0  0  0  0  0  0  0  0  0  0
   14.4867   -4.5125  -12.1827 O   0  0  0  0  0  0  0  0  0  0  0  0
   16.7148   -4.7122  -12.2330 O   0  0  0  0  0  0  0  0  0  0  0  0
  2  1  1  1
  2  3  1  0
  3  4  1  0
  4  8  1  0
  5  4  2  0
  6  2  1  0
  7  6  2  0
  9  6  1  0
 10 14  1  0
 10  9  1  0
 11 12  1  0
 10 11  1  6
 12 13  2  0
 14 23  1  0
 15 14  2  0
 16 12  1  0
 18 19  2  0
 18 17  1  0
 20 18  1  0
 21 20  1  0
 22 21  1  1
 22 24  1  0
 23 22  1  0
 24 26  2  0
 24 25  1  0
M  END
$$$$
