DDQ.pdb
     RDKit          3D

 26 25  0  0  1  0  0  0  0  0999 V2000
   27.6638  -34.1631   -3.2723 N   0  0  0  0  0  0  0  0  0  0  0  0
   28.7682  -35.0621   -3.4273 C   0  0  1  0  0  0  0  0  0  0  0  0
   29.7218  -34.6526   -4.5245 C   0  0  0  0  0  0  0  0  0  0  0  0
   28.9679  -34.7064   -5.8079 C   0  0  0  0  0  0  0  0  0  0  0  0
   27.7538  -35.0319   -5.7844 O   0  0  0  0  0  0  0  0  0  0  0  0
   29.4613  -35.3162   -2.1438 C   0  0  0  0  0  0  0  0  0  0  0  0
   29.8844  -34.3140   -1.5056 O   0  0  0  0  0  0  0  0  0  0  0  0
   29.5378  -34.4147   -7.0345 O   0  0  0  0  0  0  0  0  0  0  0  0
   29.6739  -36.5925   -1.5998 N   0  0  0  0  0  0  0  0  0  0  0  0
   30.2722  -36.7413   -0.2586 C   0  0  1  0  0  0  0  0  0  0  0  0
   30.0701  -38.1657    0.2111 C   0  0  0  0  0  0  0  0  0  0  0  0
   28.6981  -38.3859    0.6613 C   0  0  0  0  0  0  0  0  0  0  0  0
   28.2435  -39.5420    0.7537 O   0  0  0  0  0  0  0  0  0  0  0  0
   31.6847  -36.3304   -0.2747 C   0  0  0  0  0  0  0  0  0  0  0  0
   32.4430  -36.6055   -1.2348 O   0  0  0  0  0  0  0  0  0  0  0  0
   27.9140  -37.2780    0.9832 O   0  0  0  0  0  0  0  0  0  0  0  0
   36.1690  -30.8634    0.5878 N   0  0  0  0  0  0  0  0  0  0  0  0
   34.9360  -31.5884    0.5225 C   0  0  0  0  0  0  0  0  0  0  0  0
   33.8165  -31.0556    0.6013 O   0  0  0  0  0  0  0  0  0  0  0  0
   35.0024  -33.0750    0.3492 C   0  0  0  0  0  0  0  0  0  0  0  0
   33.6081  -33.6280    0.4017 C   0  0  0  0  0  0  0  0  0  0  0  0
   33.6360  -35.0747    0.7581 C   0  0  2  0  0  0  0  0  0  0  0  0
   32.2676  -35.5988    0.7976 N   0  0  0  0  0  0  0  0  0  0  0  0
   34.3819  -35.4182    1.9642 C   0  0  0  0  0  0  0  0  0  0  0  0
   33.8314  -35.9541    3.1133 O   0  0  0  0  0  0  0  0  0  0  0  0
   35.6471  -35.2303    2.0242 O   0  0  0  0  0  0  0  0  0  0  0  0
  2  1  1  1
  2  3  1  0
  3  4  1  0
  4  8  1  0
  5  4  2  0
  6  2  1  0
  7  6  2  0
  9  6  1  0
 10 14  1  0
 10  9  1  0
 11 12  1  0
 10 11  1  6
 12 13  2  0
 14 23  1  0
 15 14  2  0
 16 12  1  0
 18 19  2  0
 18 17  1  0
 20 18  1  0
 21 20  1  0
 22 21  1  1
 22 24  1  0
 23 22  1  0
 24 26  2  0
 24 25  1  0
M  END
$$$$
