DDQ.pdb
     RDKit          3D

 26 25  0  0  1  0  0  0  0  0999 V2000
   15.7056  -10.4659  -16.6465 N   0  0  0  0  0  0  0  0  0  0  0  0
   16.2875  -10.1940  -15.3661 C   0  0  1  0  0  0  0  0  0  0  0  0
   17.2039  -11.2921  -14.8815 C   0  0  0  0  0  0  0  0  0  0  0  0
   16.3424  -12.4250  -14.4426 C   0  0  0  0  0  0  0  0  0  0  0  0
   16.7299  -13.6010  -14.6611 O   0  0  0  0  0  0  0  0  0  0  0  0
   16.9313   -8.8614  -15.3208 C   0  0  0  0  0  0  0  0  0  0  0  0
   17.7886   -8.6017  -16.2088 O   0  0  0  0  0  0  0  0  0  0  0  0
   15.1286  -12.2503  -13.8020 O   0  0  0  0  0  0  0  0  0  0  0  0
   16.6481   -7.8792  -14.3589 N   0  0  0  0  0  0  0  0  0  0  0  0
   17.3117   -6.5621  -14.4200 C   0  0  1  0  0  0  0  0  0  0  0  0
   16.5195   -5.5769  -13.5881 C   0  0  0  0  0  0  0  0  0  0  0  0
   15.2477   -5.2467  -14.2258 C   0  0  0  0  0  0  0  0  0  0  0  0
   14.1711   -5.5034  -13.6542 O   0  0  0  0  0  0  0  0  0  0  0  0
   18.7187   -6.6730  -14.0048 C   0  0  0  0  0  0  0  0  0  0  0  0
   19.0556   -7.2900  -12.9664 O   0  0  0  0  0  0  0  0  0  0  0  0
   15.2670   -4.6408  -15.4823 O   0  0  0  0  0  0  0  0  0  0  0  0
   23.1402   -8.0347  -17.6756 N   0  0  0  0  0  0  0  0  0  0  0  0
   23.9450   -7.8450  -16.5066 C   0  0  0  0  0  0  0  0  0  0  0  0
   25.1498   -8.1411  -16.4421 O   0  0  0  0  0  0  0  0  0  0  0  0
   23.2945   -7.2553  -15.2928 C   0  0  0  0  0  0  0  0  0  0  0  0
   21.8532   -6.9778  -15.6063 C   0  0  0  0  0  0  0  0  0  0  0  0
   21.1912   -6.3038  -14.4538 C   0  0  2  0  0  0  0  0  0  0  0  0
   19.7738   -6.0865  -14.7582 N   0  0  0  0  0  0  0  0  0  0  0  0
   21.8347   -5.0851  -13.9747 C   0  0  0  0  0  0  0  0  0  0  0  0
   22.8652   -5.0397  -13.0545 O   0  0  0  0  0  0  0  0  0  0  0  0
   21.4587   -3.9379  -14.4017 O   0  0  0  0  0  0  0  0  0  0  0  0
  2  1  1  6
  2  3  1  0
  3  4  1  0
  4  8  1  0
  5  4  2  0
  6  2  1  0
  7  6  2  0
  9  6  1  0
 10 14  1  0
 10  9  1  0
 11 12  1  0
 10 11  1  1
 12 13  2  0
 14 23  1  0
 15 14  2  0
 16 12  1  0
 18 19  2  0
 18 17  1  0
 20 18  1  0
 21 20  1  0
 22 21  1  6
 22 24  1  0
 23 22  1  0
 24 26  2  0
 24 25  1  0
M  END
$$$$
