DDQ.pdb
     RDKit          3D

 26 25  0  0  1  0  0  0  0  0999 V2000
   17.1649  -14.1253  -15.0357 N   0  0  0  0  0  0  0  0  0  0  0  0
   16.1846  -13.0819  -14.9869 C   0  0  1  0  0  0  0  0  0  0  0  0
   14.9349  -13.4716  -14.2340 C   0  0  0  0  0  0  0  0  0  0  0  0
   14.3988  -14.7042  -14.8755 C   0  0  0  0  0  0  0  0  0  0  0  0
   13.9076  -14.6221  -16.0298 O   0  0  0  0  0  0  0  0  0  0  0  0
   16.7576  -11.8042  -14.5055 C   0  0  0  0  0  0  0  0  0  0  0  0
   17.3507  -11.8183  -13.3925 O   0  0  0  0  0  0  0  0  0  0  0  0
   14.4130  -15.9449  -14.2631 O   0  0  0  0  0  0  0  0  0  0  0  0
   16.6813  -10.5904  -15.2060 N   0  0  0  0  0  0  0  0  0  0  0  0
   17.3642   -9.3875  -14.6904 C   0  0  1  0  0  0  0  0  0  0  0  0
   18.1530   -8.7536  -15.8157 C   0  0  0  0  0  0  0  0  0  0  0  0
   18.8282   -7.5374  -15.3704 C   0  0  0  0  0  0  0  0  0  0  0  0
   19.4434   -7.5191  -14.2874 O   0  0  0  0  0  0  0  0  0  0  0  0
   16.3957   -8.4693  -14.0714 C   0  0  0  0  0  0  0  0  0  0  0  0
   15.3659   -8.0872  -14.6765 O   0  0  0  0  0  0  0  0  0  0  0  0
   18.7682   -6.4040  -16.1815 O   0  0  0  0  0  0  0  0  0  0  0  0
   15.3131   -7.5770   -8.0733 N   0  0  0  0  0  0  0  0  0  0  0  0
   14.6275   -6.4275   -8.5821 C   0  0  0  0  0  0  0  0  0  0  0  0
   13.9568   -5.6552   -7.8771 O   0  0  0  0  0  0  0  0  0  0  0  0
   14.7261   -6.1419  -10.0494 C   0  0  0  0  0  0  0  0  0  0  0  0
   15.5840   -7.1950  -10.6878 C   0  0  0  0  0  0  0  0  0  0  0  0
   15.6920   -6.9581  -12.1551 C   0  0  2  0  0  0  0  0  0  0  0  0
   16.5742   -7.9646  -12.7530 N   0  0  0  0  0  0  0  0  0  0  0  0
   16.0653   -5.6054  -12.5550 C   0  0  0  0  0  0  0  0  0  0  0  0
   15.1780   -4.5690  -12.7770 O   0  0  0  0  0  0  0  0  0  0  0  0
   17.2946   -5.2933  -12.7312 O   0  0  0  0  0  0  0  0  0  0  0  0
  2  1  1  1
  2  3  1  0
  3  4  1  0
  4  8  1  0
  5  4  2  0
  6  2  1  0
  7  6  2  0
  9  6  1  0
 10 14  1  0
 10  9  1  0
 11 12  1  0
 10 11  1  6
 12 13  2  0
 14 23  1  0
 15 14  2  0
 16 12  1  0
 18 19  2  0
 18 17  1  0
 20 18  1  0
 21 20  1  0
 22 21  1  1
 22 24  1  0
 23 22  1  0
 24 26  2  0
 24 25  1  0
M  END
$$$$
