DDQ.pdb
     RDKit          3D

 26 25  0  0  1  0  0  0  0  0999 V2000
   16.1201  -13.4367  -13.7472 N   0  0  0  0  0  0  0  0  0  0  0  0
   16.7481  -13.5346  -15.0310 C   0  0  1  0  0  0  0  0  0  0  0  0
   15.9321  -14.3109  -16.0371 C   0  0  0  0  0  0  0  0  0  0  0  0
   15.6687  -15.6542  -15.4502 C   0  0  0  0  0  0  0  0  0  0  0  0
   16.4395  -16.0867  -14.5561 O   0  0  0  0  0  0  0  0  0  0  0  0
   17.1677  -12.2113  -15.5460 C   0  0  0  0  0  0  0  0  0  0  0  0
   16.5068  -11.7268  -16.5048 O   0  0  0  0  0  0  0  0  0  0  0  0
   14.6120  -16.4577  -15.8402 O   0  0  0  0  0  0  0  0  0  0  0  0
   18.2457  -11.4708  -15.0367 N   0  0  0  0  0  0  0  0  0  0  0  0
   18.5382  -10.1223  -15.5611 C   0  0  1  0  0  0  0  0  0  0  0  0
   17.3524   -9.2233  -15.2855 C   0  0  0  0  0  0  0  0  0  0  0  0
   17.6058   -7.8578  -15.7375 C   0  0  0  0  0  0  0  0  0  0  0  0
   18.3270   -7.6468  -16.7309 O   0  0  0  0  0  0  0  0  0  0  0  0
   19.7974   -9.6111  -14.9979 C   0  0  0  0  0  0  0  0  0  0  0  0
   19.9802   -9.5200  -13.7606 O   0  0  0  0  0  0  0  0  0  0  0  0
   17.0247   -6.8020  -15.0346 O   0  0  0  0  0  0  0  0  0  0  0  0
   26.2286  -11.1832  -15.0073 N   0  0  0  0  0  0  0  0  0  0  0  0
   25.6197  -10.2056  -15.8581 C   0  0  0  0  0  0  0  0  0  0  0  0
   25.9051  -10.0609  -17.0584 O   0  0  0  0  0  0  0  0  0  0  0  0
   24.5788   -9.3067  -15.2641 C   0  0  0  0  0  0  0  0  0  0  0  0
   23.2513   -9.6328  -15.8839 C   0  0  0  0  0  0  0  0  0  0  0  0
   22.1795   -8.7813  -15.2947 C   0  0  2  0  0  0  0  0  0  0  0  0
   20.8764   -9.1922  -15.8256 N   0  0  0  0  0  0  0  0  0  0  0  0
   22.3791   -7.3403  -15.4060 C   0  0  0  0  0  0  0  0  0  0  0  0
   21.8567   -6.5406  -16.4052 O   0  0  0  0  0  0  0  0  0  0  0  0
   23.0845   -6.7110  -14.5423 O   0  0  0  0  0  0  0  0  0  0  0  0
  2  1  1  1
  2  3  1  0
  3  4  1  0
  4  8  1  0
  5  4  2  0
  6  2  1  0
  7  6  2  0
  9  6  1  0
 10 14  1  0
 10  9  1  0
 11 12  1  0
 10 11  1  1
 12 13  2  0
 14 23  1  0
 15 14  2  0
 16 12  1  0
 18 19  2  0
 18 17  1  0
 20 18  1  0
 21 20  1  0
 22 21  1  6
 22 24  1  0
 23 22  1  0
 24 26  2  0
 24 25  1  0
M  END
$$$$
