DDQ.pdb
     RDKit          3D

 26 25  0  0  1  0  0  0  0  0999 V2000
   14.7724  -12.0803  -14.1622 N   0  0  0  0  0  0  0  0  0  0  0  0
   16.0404  -11.5309  -13.7849 C   0  0  1  0  0  0  0  0  0  0  0  0
   17.1423  -11.8411  -14.7698 C   0  0  0  0  0  0  0  0  0  0  0  0
   17.3519  -13.3156  -14.7485 C   0  0  0  0  0  0  0  0  0  0  0  0
   17.2981  -13.9194  -13.6470 O   0  0  0  0  0  0  0  0  0  0  0  0
   15.9495  -10.0853  -13.4775 C   0  0  0  0  0  0  0  0  0  0  0  0
   15.3546   -9.3516  -14.3133 O   0  0  0  0  0  0  0  0  0  0  0  0
   17.6045  -14.0618  -15.8859 O   0  0  0  0  0  0  0  0  0  0  0  0
   16.4801   -9.4880  -12.3235 N   0  0  0  0  0  0  0  0  0  0  0  0
   16.2540   -8.0543  -12.0544 C   0  0  1  0  0  0  0  0  0  0  0  0
   16.4717   -7.7939  -10.5796 C   0  0  0  0  0  0  0  0  0  0  0  0
   15.3994   -8.3734   -9.7749 C   0  0  0  0  0  0  0  0  0  0  0  0
   14.3075   -8.6666  -10.2978 O   0  0  0  0  0  0  0  0  0  0  0  0
   17.1051   -7.2255  -12.9221 C   0  0  0  0  0  0  0  0  0  0  0  0
   18.3082   -7.5085  -13.1343 O   0  0  0  0  0  0  0  0  0  0  0  0
   15.6256   -8.5895   -8.4153 O   0  0  0  0  0  0  0  0  0  0  0  0
   15.7167   -5.7244  -18.3355 N   0  0  0  0  0  0  0  0  0  0  0  0
   16.9327   -4.9701  -18.2855 C   0  0  0  0  0  0  0  0  0  0  0  0
   17.4799   -4.4749  -19.2848 O   0  0  0  0  0  0  0  0  0  0  0  0
   17.5805   -4.7677  -16.9499 C   0  0  0  0  0  0  0  0  0  0  0  0
   16.7671   -5.4787  -15.9081 C   0  0  0  0  0  0  0  0  0  0  0  0
   17.3815   -5.3054  -14.5615 C   0  0  2  0  0  0  0  0  0  0  0  0
   16.6103   -6.0580  -13.5677 N   0  0  0  0  0  0  0  0  0  0  0  0
   17.6094   -3.9275  -14.1392 C   0  0  0  0  0  0  0  0  0  0  0  0
   18.7503   -3.1935  -14.4047 O   0  0  0  0  0  0  0  0  0  0  0  0
   16.7215   -3.2962  -13.4664 O   0  0  0  0  0  0  0  0  0  0  0  0
  2  1  1  6
  2  3  1  0
  3  4  1  0
  4  8  1  0
  5  4  2  0
  6  2  1  0
  7  6  2  0
  9  6  1  0
 10 14  1  0
 10  9  1  0
 11 12  1  0
 10 11  1  1
 12 13  2  0
 14 23  1  0
 15 14  2  0
 16 12  1  0
 18 19  2  0
 18 17  1  0
 20 18  1  0
 21 20  1  0
 22 21  1  6
 22 24  1  0
 23 22  1  0
 24 26  2  0
 24 25  1  0
M  END
$$$$
