DDQ.pdb
     RDKit          3D

 26 25  0  0  1  0  0  0  0  0999 V2000
   44.4470  -10.2179   -5.7032 N   0  0  0  0  0  0  0  0  0  0  0  0
   43.0358  -10.1222   -5.9296 C   0  0  1  0  0  0  0  0  0  0  0  0
   42.3446   -9.1613   -4.9916 C   0  0  0  0  0  0  0  0  0  0  0  0
   42.4634   -9.7230   -3.6173 C   0  0  0  0  0  0  0  0  0  0  0  0
   41.8262  -10.7687   -3.3328 O   0  0  0  0  0  0  0  0  0  0  0  0
   42.7187   -9.8497   -7.3500 C   0  0  0  0  0  0  0  0  0  0  0  0
   43.4715   -9.0485   -7.9682 O   0  0  0  0  0  0  0  0  0  0  0  0
   43.2444   -9.1500   -2.6292 O   0  0  0  0  0  0  0  0  0  0  0  0
   41.6417  -10.4235   -8.0433 N   0  0  0  0  0  0  0  0  0  0  0  0
   41.2229   -9.8819   -9.3511 C   0  0  1  0  0  0  0  0  0  0  0  0
   40.7104  -11.0183  -10.2090 C   0  0  0  0  0  0  0  0  0  0  0  0
   41.7965  -11.9050  -10.6185 C   0  0  0  0  0  0  0  0  0  0  0  0
   42.6911  -11.4942  -11.3817 O   0  0  0  0  0  0  0  0  0  0  0  0
   40.2409   -8.8013   -9.1720 C   0  0  0  0  0  0  0  0  0  0  0  0
   39.3019   -8.8906   -8.3456 O   0  0  0  0  0  0  0  0  0  0  0  0
   41.8079  -13.2146  -10.1378 O   0  0  0  0  0  0  0  0  0  0  0  0
   41.3090   -3.3176   -7.8425 N   0  0  0  0  0  0  0  0  0  0  0  0
   39.9377   -3.0828   -8.1812 C   0  0  0  0  0  0  0  0  0  0  0  0
   39.3274   -2.0367   -7.9047 O   0  0  0  0  0  0  0  0  0  0  0  0
   39.1986   -4.1623   -8.9111 C   0  0  0  0  0  0  0  0  0  0  0  0
   40.0980   -5.3567   -9.0426 C   0  0  0  0  0  0  0  0  0  0  0  0
   39.3815   -6.4746   -9.7192 C   0  0  2  0  0  0  0  0  0  0  0  0
   40.3025   -7.5961   -9.9261 N   0  0  0  0  0  0  0  0  0  0  0  0
   38.6707   -6.1251  -10.9445 C   0  0  0  0  0  0  0  0  0  0  0  0
   37.5130   -5.3720  -11.0043 O   0  0  0  0  0  0  0  0  0  0  0  0
   39.1027   -6.5184  -12.0839 O   0  0  0  0  0  0  0  0  0  0  0  0
  2  1  1  6
  2  3  1  0
  3  4  1  0
  4  8  1  0
  5  4  2  0
  6  2  1  0
  7  6  2  0
  9  6  1  0
 10 14  1  0
 10  9  1  0
 11 12  1  0
 10 11  1  6
 12 13  2  0
 14 23  1  0
 15 14  2  0
 16 12  1  0
 18 19  2  0
 18 17  1  0
 20 18  1  0
 21 20  1  0
 22 21  1  6
 22 24  1  0
 23 22  1  0
 24 26  2  0
 24 25  1  0
M  END
$$$$
