DDQ.pdb
     RDKit          3D

 26 25  0  0  1  0  0  0  0  0999 V2000
   15.9863  -12.5245  -14.4961 N   0  0  0  0  0  0  0  0  0  0  0  0
   17.1066  -13.0499  -15.2179 C   0  0  1  0  0  0  0  0  0  0  0  0
   16.7984  -14.3382  -15.9431 C   0  0  0  0  0  0  0  0  0  0  0  0
   16.1187  -15.2402  -14.9722 C   0  0  0  0  0  0  0  0  0  0  0  0
   16.6788  -16.3196  -14.6533 O   0  0  0  0  0  0  0  0  0  0  0  0
   17.7198  -12.0359  -16.1056 C   0  0  0  0  0  0  0  0  0  0  0  0
   17.6544  -12.2388  -17.3488 O   0  0  0  0  0  0  0  0  0  0  0  0
   14.8936  -14.9505  -14.3981 O   0  0  0  0  0  0  0  0  0  0  0  0
   18.3633  -10.8739  -15.6519 N   0  0  0  0  0  0  0  0  0  0  0  0
   18.7134   -9.7971  -16.5989 C   0  0  1  0  0  0  0  0  0  0  0  0
   17.4550   -9.3370  -17.3024 C   0  0  0  0  0  0  0  0  0  0  0  0
   17.7256   -8.2085  -18.1892 C   0  0  0  0  0  0  0  0  0  0  0  0
   18.5815   -8.3058  -19.0891 O   0  0  0  0  0  0  0  0  0  0  0  0
   19.4214   -8.7098  -15.9056 C   0  0  0  0  0  0  0  0  0  0  0  0
   19.1185   -8.3603  -14.7400 O   0  0  0  0  0  0  0  0  0  0  0  0
   17.0075   -7.0266  -18.0058 O   0  0  0  0  0  0  0  0  0  0  0  0
   25.2323   -7.0163  -16.9385 N   0  0  0  0  0  0  0  0  0  0  0  0
   24.8647   -5.9512  -16.0551 C   0  0  0  0  0  0  0  0  0  0  0  0
   25.6636   -5.1009  -15.6285 O   0  0  0  0  0  0  0  0  0  0  0  0
   23.4336   -5.8589  -15.6216 C   0  0  0  0  0  0  0  0  0  0  0  0
   22.6648   -6.9793  -16.2590 C   0  0  0  0  0  0  0  0  0  0  0  0
   21.2356   -6.9334  -15.8392 C   0  0  2  0  0  0  0  0  0  0  0  0
   20.4883   -7.9954  -16.5192 N   0  0  0  0  0  0  0  0  0  0  0  0
   20.5758   -5.6386  -15.9699 C   0  0  0  0  0  0  0  0  0  0  0  0
   20.2100   -5.0504  -17.1661 O   0  0  0  0  0  0  0  0  0  0  0  0
   20.2886   -4.9453  -14.9324 O   0  0  0  0  0  0  0  0  0  0  0  0
  2  1  1  6
  2  3  1  0
  3  4  1  0
  4  8  1  0
  5  4  2  0
  6  2  1  0
  7  6  2  0
  9  6  1  0
 10 14  1  0
 10  9  1  0
 11 12  1  0
 10 11  1  1
 12 13  2  0
 14 23  1  0
 15 14  2  0
 16 12  1  0
 18 19  2  0
 18 17  1  0
 20 18  1  0
 21 20  1  0
 22 21  1  6
 22 24  1  0
 23 22  1  0
 24 26  2  0
 24 25  1  0
M  END
$$$$
