QER.pdb
     RDKit          3D

 30 29  0  0  1  0  0  0  0  0999 V2000
    6.8567  -14.5941   16.1193 N   0  0  0  0  0  0  0  0  0  0  0  0
    7.7769  -13.7903   16.8241 C   0  0  0  0  0  0  0  0  0  0  0  0
    8.9705  -13.7614   16.3981 O   0  0  0  0  0  0  0  0  0  0  0  0
    7.3517  -12.9961   18.0394 C   0  0  0  0  0  0  0  0  0  0  0  0
    8.4339  -13.1511   19.0471 C   0  0  0  0  0  0  0  0  0  0  0  0
    8.5757  -14.4913   19.6802 C   0  0  2  0  0  0  0  0  0  0  0  0
    7.2448  -14.8072   20.2461 N   0  0  0  0  0  0  0  0  0  0  0  0
    9.5626  -14.6220   20.7395 C   0  0  0  0  0  0  0  0  0  0  0  0
   10.4564  -13.7156   20.9002 O   0  0  0  0  0  0  0  0  0  0  0  0
    9.6713  -15.6856   21.6769 N   0  0  0  0  0  0  0  0  0  0  0  0
   10.7619  -15.8018   22.6187 C   0  0  1  0  0  0  0  0  0  0  0  0
   10.4767  -16.9102   23.5964 C   0  0  0  0  0  0  0  0  0  0  0  0
   11.6477  -17.0882   24.5155 C   0  0  0  0  0  0  0  0  0  0  0  0
   11.4849  -18.1584   25.5117 C   0  0  0  0  0  0  0  0  0  0  0  0
   11.1859  -17.9181   26.6963 O   0  0  0  0  0  0  0  0  0  0  0  0
   12.0655  -16.0589   21.9022 C   0  0  0  0  0  0  0  0  0  0  0  0
   12.1229  -17.0700   21.1684 O   0  0  0  0  0  0  0  0  0  0  0  0
   11.6656  -19.4948   25.1436 O   0  0  0  0  0  0  0  0  0  0  0  0
   17.6780  -11.7957   18.1257 N   0  0  0  0  0  0  0  0  0  0  0  0
   17.7962  -12.9914   17.3694 C   0  0  0  0  0  0  0  0  0  0  0  0
   18.8835  -13.1590   16.6845 N   0  0  0  0  0  0  0  0  0  0  0  0
   16.7841  -13.9875   17.3418 N   0  0  0  0  0  0  0  0  0  0  0  0
   15.5960  -13.8786   18.1664 C   0  0  0  0  0  0  0  0  0  0  0  0
   15.8834  -14.2295   19.6083 C   0  0  0  0  0  0  0  0  0  0  0  0
   14.5896  -14.2117   20.3637 C   0  0  0  0  0  0  0  0  0  0  0  0
   14.4265  -15.3936   21.2941 C   0  0  2  0  0  0  0  0  0  0  0  0
   13.1896  -15.2319   22.0208 N   0  0  0  0  0  0  0  0  0  0  0  0
   15.5882  -15.5632   22.2063 C   0  0  0  0  0  0  0  0  0  0  0  0
   15.5711  -15.1889   23.4178 O   0  0  0  0  0  0  0  0  0  0  0  0
   16.7709  -16.1482   21.7759 O   0  0  0  0  0  0  0  0  0  0  0  0
  2  1  1  0
  2  3  2  0
  4  5  1  0
  4  2  1  0
  6  7  1  1
  6  5  1  0
  8  6  1  0
  9  8  2  0
 10  8  1  0
 11 10  1  0
 11 12  1  1
 13 12  1  0
 14 15  2  0
 14 13  1  0
 16 11  1  0
 16 17  2  0
 18 14  1  0
 20 19  1  0
 21 20  2  0
 22 20  1  0
 23 22  1  0
 24 25  1  0
 24 23  1  0
 26 25  1  1
 26 27  1  0
 27 16  1  0
 28 26  1  0
 29 28  2  0
 30 28  1  0
M  END
$$$$
