QER.pdb
     RDKit          3D

 30 29  0  0  1  0  0  0  0  0999 V2000
    6.5936  -12.5548   18.3756 N   0  0  0  0  0  0  0  0  0  0  0  0
    7.4176  -13.3859   17.5884 C   0  0  0  0  0  0  0  0  0  0  0  0
    6.9778  -13.7331   16.4512 O   0  0  0  0  0  0  0  0  0  0  0  0
    8.7716  -13.8422   18.0855 C   0  0  0  0  0  0  0  0  0  0  0  0
    8.9929  -13.1677   19.3919 C   0  0  0  0  0  0  0  0  0  0  0  0
   10.2617  -13.4830   20.1045 C   0  0  2  0  0  0  0  0  0  0  0  0
   11.3453  -12.9856   19.2273 N   0  0  0  0  0  0  0  0  0  0  0  0
   10.5239  -14.8814   20.4024 C   0  0  0  0  0  0  0  0  0  0  0  0
    9.7057  -15.5470   21.1330 O   0  0  0  0  0  0  0  0  0  0  0  0
   11.6338  -15.6534   19.9619 N   0  0  0  0  0  0  0  0  0  0  0  0
   11.8950  -16.9985   20.4229 C   0  0  1  0  0  0  0  0  0  0  0  0
   13.0712  -17.5737   19.6805 C   0  0  0  0  0  0  0  0  0  0  0  0
   12.6609  -17.9360   18.2849 C   0  0  0  0  0  0  0  0  0  0  0  0
   12.9660  -19.3225   17.8991 C   0  0  0  0  0  0  0  0  0  0  0  0
   14.1307  -19.7073   17.6851 O   0  0  0  0  0  0  0  0  0  0  0  0
   12.1557  -17.0157   21.9097 C   0  0  0  0  0  0  0  0  0  0  0  0
   13.2127  -16.4801   22.3095 O   0  0  0  0  0  0  0  0  0  0  0  0
   11.9355  -20.2569   17.7617 O   0  0  0  0  0  0  0  0  0  0  0  0
   10.6893  -16.0272   29.8113 N   0  0  0  0  0  0  0  0  0  0  0  0
   10.2304  -14.8593   29.1471 C   0  0  0  0  0  0  0  0  0  0  0  0
    9.9879  -13.8153   29.8755 N   0  0  0  0  0  0  0  0  0  0  0  0
   10.0349  -14.8002   27.7415 N   0  0  0  0  0  0  0  0  0  0  0  0
    9.4881  -15.9255   27.0080 C   0  0  0  0  0  0  0  0  0  0  0  0
   10.5788  -16.8064   26.4431 C   0  0  0  0  0  0  0  0  0  0  0  0
   10.4500  -16.8157   24.9503 C   0  0  0  0  0  0  0  0  0  0  0  0
   11.5057  -17.6564   24.2664 C   0  0  2  0  0  0  0  0  0  0  0  0
   11.2836  -17.5930   22.8414 N   0  0  0  0  0  0  0  0  0  0  0  0
   11.5261  -19.0575   24.7633 C   0  0  0  0  0  0  0  0  0  0  0  0
   10.9684  -20.0141   24.1451 O   0  0  0  0  0  0  0  0  0  0  0  0
   12.1651  -19.3998   25.9468 O   0  0  0  0  0  0  0  0  0  0  0  0
  2  1  1  0
  2  3  2  0
  4  5  1  0
  4  2  1  0
  6  7  1  6
  6  5  1  0
  8  6  1  0
  9  8  2  0
 10  8  1  0
 11 10  1  0
 11 12  1  6
 13 12  1  0
 14 15  2  0
 14 13  1  0
 16 11  1  0
 16 17  2  0
 18 14  1  0
 20 19  1  0
 21 20  2  0
 22 20  1  0
 23 22  1  0
 24 25  1  0
 24 23  1  0
 26 25  1  1
 26 27  1  0
 27 16  1  0
 28 26  1  0
 29 28  2  0
 30 28  1  0
M  END
$$$$
