QER.pdb
     RDKit          3D

 30 29  0  0  1  0  0  0  0  0999 V2000
    6.4962  -20.1668   17.8634 N   0  0  0  0  0  0  0  0  0  0  0  0
    7.8831  -20.1501   17.6067 C   0  0  0  0  0  0  0  0  0  0  0  0
    8.3601  -21.1049   16.9227 O   0  0  0  0  0  0  0  0  0  0  0  0
    8.7621  -19.0353   18.1291 C   0  0  0  0  0  0  0  0  0  0  0  0
    7.8952  -18.1725   18.9744 C   0  0  0  0  0  0  0  0  0  0  0  0
    8.5318  -16.9728   19.5848 C   0  0  2  0  0  0  0  0  0  0  0  0
    9.4624  -16.4504   18.5590 N   0  0  0  0  0  0  0  0  0  0  0  0
    9.2785  -17.1735   20.8157 C   0  0  0  0  0  0  0  0  0  0  0  0
    8.6776  -17.5863   21.8716 O   0  0  0  0  0  0  0  0  0  0  0  0
   10.6706  -16.9610   21.0127 N   0  0  0  0  0  0  0  0  0  0  0  0
   11.3539  -17.2850   22.2449 C   0  0  1  0  0  0  0  0  0  0  0  0
   12.8373  -17.0982   22.0708 C   0  0  0  0  0  0  0  0  0  0  0  0
   13.1001  -15.8726   21.2483 C   0  0  0  0  0  0  0  0  0  0  0  0
   14.5208  -15.6256   20.9573 C   0  0  0  0  0  0  0  0  0  0  0  0
   15.2638  -16.5110   20.4942 O   0  0  0  0  0  0  0  0  0  0  0  0
   10.8486  -16.4285   23.3806 C   0  0  0  0  0  0  0  0  0  0  0  0
   10.1564  -15.4317   23.0788 O   0  0  0  0  0  0  0  0  0  0  0  0
   15.0793  -14.3671   21.1987 O   0  0  0  0  0  0  0  0  0  0  0  0
    6.3256  -22.1944   26.6192 N   0  0  0  0  0  0  0  0  0  0  0  0
    5.9424  -21.0737   27.4021 C   0  0  0  0  0  0  0  0  0  0  0  0
    4.9082  -21.2089   28.1711 N   0  0  0  0  0  0  0  0  0  0  0  0
    6.6421  -19.8381   27.3709 N   0  0  0  0  0  0  0  0  0  0  0  0
    7.6064  -19.5433   26.3284 C   0  0  0  0  0  0  0  0  0  0  0  0
    8.0401  -18.0958   26.3625 C   0  0  0  0  0  0  0  0  0  0  0  0
    9.1573  -17.9162   25.3804 C   0  0  0  0  0  0  0  0  0  0  0  0
   10.1220  -16.8175   25.7697 C   0  0  2  0  0  0  0  0  0  0  0  0
   11.1155  -16.6961   24.7293 N   0  0  0  0  0  0  0  0  0  0  0  0
   10.7391  -17.0491   27.1023 C   0  0  0  0  0  0  0  0  0  0  0  0
   10.1791  -16.7077   28.1876 O   0  0  0  0  0  0  0  0  0  0  0  0
   11.9786  -17.6595   27.2331 O   0  0  0  0  0  0  0  0  0  0  0  0
  2  1  1  0
  2  3  2  0
  4  5  1  0
  4  2  1  0
  6  7  1  6
  6  5  1  0
  8  6  1  0
  9  8  2  0
 10  8  1  0
 11 10  1  0
 11 12  1  6
 13 12  1  0
 14 15  2  0
 14 13  1  0
 16 11  1  0
 16 17  2  0
 18 14  1  0
 20 19  1  0
 21 20  2  0
 22 20  1  0
 23 22  1  0
 24 25  1  0
 24 23  1  0
 26 25  1  6
 26 27  1  0
 27 16  1  0
 28 26  1  0
 29 28  2  0
 30 28  1  0
M  END
$$$$
