QER.pdb
     RDKit          3D

 30 29  0  0  1  0  0  0  0  0999 V2000
   14.4792  -21.2596   16.9368 N   0  0  0  0  0  0  0  0  0  0  0  0
   13.5598  -20.8048   15.9686 C   0  0  0  0  0  0  0  0  0  0  0  0
   13.2111  -21.6244   15.0665 O   0  0  0  0  0  0  0  0  0  0  0  0
   13.0143  -19.3944   16.0093 C   0  0  0  0  0  0  0  0  0  0  0  0
   12.4215  -19.2079   17.3600 C   0  0  0  0  0  0  0  0  0  0  0  0
   11.0818  -19.8136   17.5954 C   0  0  2  0  0  0  0  0  0  0  0  0
   10.1257  -18.9699   16.8437 N   0  0  0  0  0  0  0  0  0  0  0  0
   10.6267  -19.8989   18.9734 C   0  0  0  0  0  0  0  0  0  0  0  0
    9.8603  -18.9892   19.4543 O   0  0  0  0  0  0  0  0  0  0  0  0
   10.9374  -20.9207   19.9121 N   0  0  0  0  0  0  0  0  0  0  0  0
   10.3688  -20.9745   21.2402 C   0  0  1  0  0  0  0  0  0  0  0  0
   10.3399  -22.3988   21.7263 C   0  0  0  0  0  0  0  0  0  0  0  0
    9.3324  -23.1819   20.9394 C   0  0  0  0  0  0  0  0  0  0  0  0
    9.2158  -24.5950   21.3315 C   0  0  0  0  0  0  0  0  0  0  0  0
    9.9769  -25.4707   20.8795 O   0  0  0  0  0  0  0  0  0  0  0  0
   11.1553  -20.1112   22.1968 C   0  0  0  0  0  0  0  0  0  0  0  0
   12.3917  -20.0458   22.0209 O   0  0  0  0  0  0  0  0  0  0  0  0
    8.2292  -24.9939   22.2378 O   0  0  0  0  0  0  0  0  0  0  0  0
    8.0371  -13.7911   27.7022 N   0  0  0  0  0  0  0  0  0  0  0  0
    9.4348  -13.8711   27.9383 C   0  0  0  0  0  0  0  0  0  0  0  0
    9.9218  -13.1391   28.8903 N   0  0  0  0  0  0  0  0  0  0  0  0
   10.2960  -14.7102   27.1822 N   0  0  0  0  0  0  0  0  0  0  0  0
    9.7705  -15.7688   26.3415 C   0  0  0  0  0  0  0  0  0  0  0  0
   10.8765  -16.6098   25.7465 C   0  0  0  0  0  0  0  0  0  0  0  0
   10.2566  -17.6298   24.8409 C   0  0  0  0  0  0  0  0  0  0  0  0
   11.2749  -18.5067   24.1456 C   0  0  2  0  0  0  0  0  0  0  0  0
   10.5728  -19.3953   23.2503 N   0  0  0  0  0  0  0  0  0  0  0  0
   12.1340  -19.2499   25.1047 C   0  0  0  0  0  0  0  0  0  0  0  0
   11.7885  -20.3542   25.6236 O   0  0  0  0  0  0  0  0  0  0  0  0
   13.3776  -18.7692   25.4900 O   0  0  0  0  0  0  0  0  0  0  0  0
  2  1  1  0
  2  3  2  0
  4  5  1  0
  4  2  1  0
  6  7  1  6
  6  5  1  0
  8  6  1  0
  9  8  2  0
 10  8  1  0
 11 10  1  0
 11 12  1  1
 13 12  1  0
 14 15  2  0
 14 13  1  0
 16 11  1  0
 16 17  2  0
 18 14  1  0
 20 19  1  0
 21 20  2  0
 22 20  1  0
 23 22  1  0
 24 25  1  0
 24 23  1  0
 26 25  1  1
 26 27  1  0
 27 16  1  0
 28 26  1  0
 29 28  2  0
 30 28  1  0
M  END
$$$$
