QER.pdb
     RDKit          3D

 30 29  0  0  1  0  0  0  0  0999 V2000
    8.7973  -12.5774   17.3076 N   0  0  0  0  0  0  0  0  0  0  0  0
    7.4318  -12.9305   17.2934 C   0  0  0  0  0  0  0  0  0  0  0  0
    6.8249  -12.8646   16.1823 O   0  0  0  0  0  0  0  0  0  0  0  0
    6.7240  -13.3699   18.5561 C   0  0  0  0  0  0  0  0  0  0  0  0
    7.7725  -13.9001   19.4672 C   0  0  0  0  0  0  0  0  0  0  0  0
    8.5899  -15.0372   18.9615 C   0  0  2  0  0  0  0  0  0  0  0  0
    7.6583  -16.1829   18.8591 N   0  0  0  0  0  0  0  0  0  0  0  0
    9.7266  -15.4467   19.7699 C   0  0  0  0  0  0  0  0  0  0  0  0
    9.5656  -16.2878   20.7254 O   0  0  0  0  0  0  0  0  0  0  0  0
   11.0731  -15.0119   19.6299 N   0  0  0  0  0  0  0  0  0  0  0  0
   12.1561  -15.5164   20.4438 C   0  0  1  0  0  0  0  0  0  0  0  0
   13.4402  -14.8252   20.0711 C   0  0  0  0  0  0  0  0  0  0  0  0
   14.5568  -15.3320   20.9337 C   0  0  0  0  0  0  0  0  0  0  0  0
   15.8874  -14.8172   20.5750 C   0  0  0  0  0  0  0  0  0  0  0  0
   16.0652  -14.0748   19.5913 O   0  0  0  0  0  0  0  0  0  0  0  0
   11.8626  -15.3188   21.9113 C   0  0  0  0  0  0  0  0  0  0  0  0
   11.9885  -14.1611   22.3671 O   0  0  0  0  0  0  0  0  0  0  0  0
   17.0034  -15.1565   21.3453 O   0  0  0  0  0  0  0  0  0  0  0  0
    6.7785  -13.5557   27.1637 N   0  0  0  0  0  0  0  0  0  0  0  0
    6.7579  -12.8897   25.9100 C   0  0  0  0  0  0  0  0  0  0  0  0
    6.3958  -11.6455   25.9015 N   0  0  0  0  0  0  0  0  0  0  0  0
    7.1153  -13.5292   24.6932 N   0  0  0  0  0  0  0  0  0  0  0  0
    7.7203  -14.8472   24.6831 C   0  0  0  0  0  0  0  0  0  0  0  0
    9.2169  -14.7728   24.4844 C   0  0  0  0  0  0  0  0  0  0  0  0
    9.7554  -16.1702   24.4384 C   0  0  0  0  0  0  0  0  0  0  0  0
   11.2465  -16.2262   24.1881 C   0  0  2  0  0  0  0  0  0  0  0  0
   11.4637  -16.3537   22.7666 N   0  0  0  0  0  0  0  0  0  0  0  0
   11.9102  -17.3160   24.9511 C   0  0  0  0  0  0  0  0  0  0  0  0
   11.9706  -17.3299   26.2178 O   0  0  0  0  0  0  0  0  0  0  0  0
   12.5081  -18.3921   24.3103 O   0  0  0  0  0  0  0  0  0  0  0  0
  2  1  1  0
  2  3  2  0
  4  5  1  0
  4  2  1  0
  6  7  1  1
  6  5  1  0
  8  6  1  0
  9  8  2  0
 10  8  1  0
 11 10  1  0
 11 12  1  6
 13 12  1  0
 14 15  2  0
 14 13  1  0
 16 11  1  0
 16 17  2  0
 18 14  1  0
 20 19  1  0
 21 20  2  0
 22 20  1  0
 23 22  1  0
 24 25  1  0
 24 23  1  0
 26 25  1  6
 26 27  1  0
 27 16  1  0
 28 26  1  0
 29 28  2  0
 30 28  1  0
M  END
$$$$
