QER.pdb
     RDKit          3D

 30 29  0  0  1  0  0  0  0  0999 V2000
    6.0493  -12.4520   18.4376 N   0  0  0  0  0  0  0  0  0  0  0  0
    6.9817  -12.9072   19.3931 C   0  0  0  0  0  0  0  0  0  0  0  0
    6.5660  -13.0735   20.5791 O   0  0  0  0  0  0  0  0  0  0  0  0
    8.4194  -13.1847   19.0129 C   0  0  0  0  0  0  0  0  0  0  0  0
    8.3791  -14.0851   17.8304 C   0  0  0  0  0  0  0  0  0  0  0  0
    9.6845  -14.6012   17.3338 C   0  0  2  0  0  0  0  0  0  0  0  0
    9.3480  -15.6603   16.3559 N   0  0  0  0  0  0  0  0  0  0  0  0
   10.5919  -15.1648   18.3198 C   0  0  0  0  0  0  0  0  0  0  0  0
   10.3518  -16.3180   18.8288 O   0  0  0  0  0  0  0  0  0  0  0  0
   11.7818  -14.5700   18.8217 N   0  0  0  0  0  0  0  0  0  0  0  0
   12.5896  -15.1702   19.8596 C   0  0  1  0  0  0  0  0  0  0  0  0
   13.9260  -14.4811   19.9296 C   0  0  0  0  0  0  0  0  0  0  0  0
   14.7279  -15.0458   21.0634 C   0  0  0  0  0  0  0  0  0  0  0  0
   16.0451  -14.4184   21.2518 C   0  0  0  0  0  0  0  0  0  0  0  0
   16.8990  -14.3905   20.3459 O   0  0  0  0  0  0  0  0  0  0  0  0
   11.8912  -15.0941   21.1956 C   0  0  0  0  0  0  0  0  0  0  0  0
   11.5595  -13.9587   21.6018 O   0  0  0  0  0  0  0  0  0  0  0  0
   16.3740  -13.8279   22.4754 O   0  0  0  0  0  0  0  0  0  0  0  0
    6.8684  -21.1041   25.2720 N   0  0  0  0  0  0  0  0  0  0  0  0
    7.1318  -20.1277   26.2685 C   0  0  0  0  0  0  0  0  0  0  0  0
    6.5869  -20.3003   27.4315 N   0  0  0  0  0  0  0  0  0  0  0  0
    7.9563  -18.9947   26.0365 N   0  0  0  0  0  0  0  0  0  0  0  0
    8.5222  -18.7289   24.7279 C   0  0  0  0  0  0  0  0  0  0  0  0
    9.4300  -17.5204   24.7474 C   0  0  0  0  0  0  0  0  0  0  0  0
   10.0363  -17.3655   23.3861 C   0  0  0  0  0  0  0  0  0  0  0  0
   10.9782  -16.1858   23.2841 C   0  0  2  0  0  0  0  0  0  0  0  0
   11.6043  -16.2160   21.9836 N   0  0  0  0  0  0  0  0  0  0  0  0
   11.9802  -16.1622   24.3821 C   0  0  0  0  0  0  0  0  0  0  0  0
   13.1428  -16.6544   24.2623 O   0  0  0  0  0  0  0  0  0  0  0  0
   11.6942  -15.5926   25.6150 O   0  0  0  0  0  0  0  0  0  0  0  0
  2  1  1  0
  2  3  2  0
  4  5  1  0
  4  2  1  0
  6  7  1  6
  6  5  1  0
  8  6  1  0
  9  8  2  0
 10  8  1  0
 11 10  1  0
 11 12  1  1
 13 12  1  0
 14 15  2  0
 14 13  1  0
 16 11  1  0
 16 17  2  0
 18 14  1  0
 20 19  1  0
 21 20  2  0
 22 20  1  0
 23 22  1  0
 24 25  1  0
 24 23  1  0
 26 25  1  1
 26 27  1  0
 27 16  1  0
 28 26  1  0
 29 28  2  0
 30 28  1  0
M  END
$$$$
