QER.pdb
     RDKit          3D

 30 29  0  0  1  0  0  0  0  0999 V2000
   13.9760  -13.2860   19.1115 N   0  0  0  0  0  0  0  0  0  0  0  0
   14.7528  -14.1722   18.3364 C   0  0  0  0  0  0  0  0  0  0  0  0
   15.8797  -13.7566   17.9310 O   0  0  0  0  0  0  0  0  0  0  0  0
   14.2568  -15.5624   18.0048 C   0  0  0  0  0  0  0  0  0  0  0  0
   12.9206  -15.6990   18.6424 C   0  0  0  0  0  0  0  0  0  0  0  0
   12.3429  -17.0699   18.7051 C   0  0  2  0  0  0  0  0  0  0  0  0
   11.4049  -17.1594   17.5636 N   0  0  0  0  0  0  0  0  0  0  0  0
   11.6219  -17.4299   19.9150 C   0  0  0  0  0  0  0  0  0  0  0  0
   10.3460  -17.3032   19.9642 O   0  0  0  0  0  0  0  0  0  0  0  0
   12.1795  -17.9356   21.1212 N   0  0  0  0  0  0  0  0  0  0  0  0
   11.3848  -18.2668   22.2825 C   0  0  1  0  0  0  0  0  0  0  0  0
   12.2054  -19.0784   23.2487 C   0  0  0  0  0  0  0  0  0  0  0  0
   11.4089  -19.3440   24.4907 C   0  0  0  0  0  0  0  0  0  0  0  0
   12.1346  -20.0834   25.5351 C   0  0  0  0  0  0  0  0  0  0  0  0
   11.9411  -19.8750   26.7474 O   0  0  0  0  0  0  0  0  0  0  0  0
   10.8693  -17.0174   22.9549 C   0  0  0  0  0  0  0  0  0  0  0  0
   11.7177  -16.1719   23.3143 O   0  0  0  0  0  0  0  0  0  0  0  0
   13.0758  -21.0552   25.1833 O   0  0  0  0  0  0  0  0  0  0  0  0
    9.8831  -13.0933   20.4528 N   0  0  0  0  0  0  0  0  0  0  0  0
    8.7611  -12.8720   19.6115 C   0  0  0  0  0  0  0  0  0  0  0  0
    8.9573  -12.2028   18.5193 N   0  0  0  0  0  0  0  0  0  0  0  0
    7.4606  -13.3517   19.9214 N   0  0  0  0  0  0  0  0  0  0  0  0
    7.1298  -13.8299   21.2500 C   0  0  0  0  0  0  0  0  0  0  0  0
    8.3234  -14.4618   21.9289 C   0  0  0  0  0  0  0  0  0  0  0  0
    7.8757  -15.0170   23.2466 C   0  0  0  0  0  0  0  0  0  0  0  0
    8.9852  -15.7053   24.0111 C   0  0  2  0  0  0  0  0  0  0  0  0
    9.5108  -16.7691   23.1887 N   0  0  0  0  0  0  0  0  0  0  0  0
    8.5376  -16.2002   25.3396 C   0  0  0  0  0  0  0  0  0  0  0  0
    8.3662  -17.4310   25.5925 O   0  0  0  0  0  0  0  0  0  0  0  0
    8.2792  -15.3305   26.3899 O   0  0  0  0  0  0  0  0  0  0  0  0
  2  1  1  0
  2  3  2  0
  4  5  1  0
  4  2  1  0
  6  7  1  6
  6  5  1  0
  8  6  1  0
  9  8  2  0
 10  8  1  0
 11 10  1  0
 11 12  1  1
 13 12  1  0
 14 15  2  0
 14 13  1  0
 16 11  1  0
 16 17  2  0
 18 14  1  0
 20 19  1  0
 21 20  2  0
 22 20  1  0
 23 22  1  0
 24 25  1  0
 24 23  1  0
 26 25  1  6
 26 27  1  0
 27 16  1  0
 28 26  1  0
 29 28  2  0
 30 28  1  0
M  END
$$$$
