QER.pdb
     RDKit          3D

 30 29  0  0  1  0  0  0  0  0999 V2000
   17.5402  -13.3474   16.7219 N   0  0  0  0  0  0  0  0  0  0  0  0
   16.1821  -13.7154   16.8196 C   0  0  0  0  0  0  0  0  0  0  0  0
   15.5128  -13.7628   15.7440 O   0  0  0  0  0  0  0  0  0  0  0  0
   15.5536  -14.0397   18.1569 C   0  0  0  0  0  0  0  0  0  0  0  0
   14.1056  -14.2612   17.9023 C   0  0  0  0  0  0  0  0  0  0  0  0
   13.3922  -15.1787   18.8330 C   0  0  2  0  0  0  0  0  0  0  0  0
   13.1257  -16.4085   18.0535 N   0  0  0  0  0  0  0  0  0  0  0  0
   12.1328  -14.7108   19.3882 C   0  0  0  0  0  0  0  0  0  0  0  0
   12.1126  -13.6872   20.1617 O   0  0  0  0  0  0  0  0  0  0  0  0
   10.8445  -15.2719   19.1712 N   0  0  0  0  0  0  0  0  0  0  0  0
    9.6539  -14.8038   19.8444 C   0  0  1  0  0  0  0  0  0  0  0  0
    8.5421  -14.6189   18.8467 C   0  0  0  0  0  0  0  0  0  0  0  0
    8.9704  -13.6511   17.7850 C   0  0  0  0  0  0  0  0  0  0  0  0
    8.0594  -13.5656   16.6331 C   0  0  0  0  0  0  0  0  0  0  0  0
    7.0452  -14.2819   16.5386 O   0  0  0  0  0  0  0  0  0  0  0  0
    9.2321  -15.7704   20.9244 C   0  0  0  0  0  0  0  0  0  0  0  0
    9.0498  -16.9603   20.5852 O   0  0  0  0  0  0  0  0  0  0  0  0
    8.3166  -12.6609   15.5990 O   0  0  0  0  0  0  0  0  0  0  0  0
   12.3669  -21.3276   24.0147 N   0  0  0  0  0  0  0  0  0  0  0  0
   12.3826  -20.6285   25.2502 C   0  0  0  0  0  0  0  0  0  0  0  0
   12.1134  -21.3052   26.3220 N   0  0  0  0  0  0  0  0  0  0  0  0
   12.6790  -19.2427   25.3463 N   0  0  0  0  0  0  0  0  0  0  0  0
   12.3157  -18.3186   24.2891 C   0  0  0  0  0  0  0  0  0  0  0  0
   10.9311  -17.7491   24.4972 C   0  0  0  0  0  0  0  0  0  0  0  0
   10.6282  -16.8215   23.3602 C   0  0  0  0  0  0  0  0  0  0  0  0
    9.2212  -16.2668   23.4024 C   0  0  2  0  0  0  0  0  0  0  0  0
    9.0403  -15.4007   22.2617 N   0  0  0  0  0  0  0  0  0  0  0  0
    8.9233  -15.5699   24.6814 C   0  0  0  0  0  0  0  0  0  0  0  0
    9.1174  -14.3279   24.8487 O   0  0  0  0  0  0  0  0  0  0  0  0
    8.4097  -16.2495   25.7770 O   0  0  0  0  0  0  0  0  0  0  0  0
  2  1  1  0
  2  3  2  0
  4  5  1  0
  4  2  1  0
  6  7  1  6
  6  5  1  0
  8  6  1  0
  9  8  2  0
 10  8  1  0
 11 10  1  0
 11 12  1  6
 13 12  1  0
 14 15  2  0
 14 13  1  0
 16 11  1  0
 16 17  2  0
 18 14  1  0
 20 19  1  0
 21 20  2  0
 22 20  1  0
 23 22  1  0
 24 25  1  0
 24 23  1  0
 26 25  1  1
 26 27  1  0
 27 16  1  0
 28 26  1  0
 29 28  2  0
 30 28  1  0
M  END
$$$$
