QER.pdb
     RDKit          3D

 30 29  0  0  1  0  0  0  0  0999 V2000
    7.8406  -12.2606   18.4333 N   0  0  0  0  0  0  0  0  0  0  0  0
    8.5773  -13.4553   18.2933 C   0  0  0  0  0  0  0  0  0  0  0  0
    9.7505  -13.3640   17.8217 O   0  0  0  0  0  0  0  0  0  0  0  0
    7.9867  -14.7899   18.6914 C   0  0  0  0  0  0  0  0  0  0  0  0
    7.4785  -14.6314   20.0796 C   0  0  0  0  0  0  0  0  0  0  0  0
    7.8585  -15.6867   21.0590 C   0  0  2  0  0  0  0  0  0  0  0  0
    6.5913  -16.3477   21.4439 N   0  0  0  0  0  0  0  0  0  0  0  0
    8.5315  -15.2526   22.2722 C   0  0  0  0  0  0  0  0  0  0  0  0
    9.8094  -15.3279   22.3601 O   0  0  0  0  0  0  0  0  0  0  0  0
    7.9218  -14.7227   23.4423 N   0  0  0  0  0  0  0  0  0  0  0  0
    8.6734  -14.2831   24.5964 C   0  0  1  0  0  0  0  0  0  0  0  0
    8.0052  -13.0848   25.2152 C   0  0  0  0  0  0  0  0  0  0  0  0
    6.6434  -13.4655   25.7133 C   0  0  0  0  0  0  0  0  0  0  0  0
    5.9206  -12.3847   26.4016 C   0  0  0  0  0  0  0  0  0  0  0  0
    6.4382  -11.2712   26.6081 O   0  0  0  0  0  0  0  0  0  0  0  0
    8.7988  -15.3940   25.6108 C   0  0  0  0  0  0  0  0  0  0  0  0
    7.8646  -16.2235   25.6663 O   0  0  0  0  0  0  0  0  0  0  0  0
    4.6114  -12.5874   26.8476 O   0  0  0  0  0  0  0  0  0  0  0  0
   13.6336  -21.9939   27.4589 N   0  0  0  0  0  0  0  0  0  0  0  0
   13.5943  -21.0906   26.3642 C   0  0  0  0  0  0  0  0  0  0  0  0
   14.4449  -21.2786   25.4049 N   0  0  0  0  0  0  0  0  0  0  0  0
   12.6719  -20.0132   26.2887 N   0  0  0  0  0  0  0  0  0  0  0  0
   13.1018  -18.6387   26.4607 C   0  0  0  0  0  0  0  0  0  0  0  0
   12.2167  -17.8948   27.4343 C   0  0  0  0  0  0  0  0  0  0  0  0
   10.8767  -17.6958   26.7943 C   0  0  0  0  0  0  0  0  0  0  0  0
   10.0663  -16.5928   27.4393 C   0  0  2  0  0  0  0  0  0  0  0  0
    9.8929  -15.5333   26.4742 N   0  0  0  0  0  0  0  0  0  0  0  0
   10.6800  -16.1000   28.7005 C   0  0  0  0  0  0  0  0  0  0  0  0
   10.9883  -14.8839   28.8853 O   0  0  0  0  0  0  0  0  0  0  0  0
   10.9529  -16.9554   29.7588 O   0  0  0  0  0  0  0  0  0  0  0  0
  2  1  1  0
  2  3  2  0
  4  5  1  0
  4  2  1  0
  6  7  1  1
  6  5  1  0
  8  6  1  0
  9  8  2  0
 10  8  1  0
 11 10  1  0
 11 12  1  1
 13 12  1  0
 14 15  2  0
 14 13  1  0
 16 11  1  0
 16 17  2  0
 18 14  1  0
 20 19  1  0
 21 20  2  0
 22 20  1  0
 23 22  1  0
 24 25  1  0
 24 23  1  0
 26 25  1  6
 26 27  1  0
 27 16  1  0
 28 26  1  0
 29 28  2  0
 30 28  1  0
M  END
$$$$
