QER.pdb
     RDKit          3D

 30 29  0  0  1  0  0  0  0  0999 V2000
    7.1424  -12.6147   18.1790 N   0  0  0  0  0  0  0  0  0  0  0  0
    7.9222  -12.6740   19.3529 C   0  0  0  0  0  0  0  0  0  0  0  0
    8.5966  -11.6444   19.6566 O   0  0  0  0  0  0  0  0  0  0  0  0
    7.9494  -13.9188   20.2121 C   0  0  0  0  0  0  0  0  0  0  0  0
    6.9834  -14.8732   19.6064 C   0  0  0  0  0  0  0  0  0  0  0  0
    6.8136  -16.1837   20.2924 C   0  0  2  0  0  0  0  0  0  0  0  0
    5.9174  -15.9191   21.4404 N   0  0  0  0  0  0  0  0  0  0  0  0
    8.0157  -16.8293   20.7937 C   0  0  0  0  0  0  0  0  0  0  0  0
    8.2330  -16.8905   22.0568 O   0  0  0  0  0  0  0  0  0  0  0  0
    9.0415  -17.4392   20.0207 N   0  0  0  0  0  0  0  0  0  0  0  0
   10.2251  -18.0311   20.6028 C   0  0  1  0  0  0  0  0  0  0  0  0
   11.2009  -18.3962   19.5165 C   0  0  0  0  0  0  0  0  0  0  0  0
   12.4384  -18.9848   20.1245 C   0  0  0  0  0  0  0  0  0  0  0  0
   13.4642  -19.3893   19.1507 C   0  0  0  0  0  0  0  0  0  0  0  0
   14.4769  -18.6984   18.9327 O   0  0  0  0  0  0  0  0  0  0  0  0
   10.8690  -17.0864   21.5885 C   0  0  0  0  0  0  0  0  0  0  0  0
   10.9463  -15.8828   21.2577 O   0  0  0  0  0  0  0  0  0  0  0  0
   13.3223  -20.5814   18.4345 O   0  0  0  0  0  0  0  0  0  0  0  0
    9.7962  -13.7346   30.1121 N   0  0  0  0  0  0  0  0  0  0  0  0
   10.2848  -14.9787   29.6333 C   0  0  0  0  0  0  0  0  0  0  0  0
    9.9808  -16.0400   30.3120 N   0  0  0  0  0  0  0  0  0  0  0  0
   11.0766  -15.0940   28.4598 N   0  0  0  0  0  0  0  0  0  0  0  0
   10.6569  -15.9212   27.3449 C   0  0  0  0  0  0  0  0  0  0  0  0
   11.6138  -15.8147   26.1797 C   0  0  0  0  0  0  0  0  0  0  0  0
   11.0603  -16.6168   25.0416 C   0  0  0  0  0  0  0  0  0  0  0  0
   11.9550  -16.6160   23.8215 C   0  0  2  0  0  0  0  0  0  0  0  0
   11.3730  -17.4905   22.8313 N   0  0  0  0  0  0  0  0  0  0  0  0
   13.3557  -16.9965   24.1437 C   0  0  0  0  0  0  0  0  0  0  0  0
   13.7947  -18.1787   24.0100 O   0  0  0  0  0  0  0  0  0  0  0  0
   14.2715  -16.0663   24.6150 O   0  0  0  0  0  0  0  0  0  0  0  0
  2  1  1  0
  2  3  2  0
  4  5  1  0
  4  2  1  0
  6  7  1  1
  6  5  1  0
  8  6  1  0
  9  8  2  0
 10  8  1  0
 11 10  1  0
 11 12  1  6
 13 12  1  0
 14 15  2  0
 14 13  1  0
 16 11  1  0
 16 17  2  0
 18 14  1  0
 20 19  1  0
 21 20  2  0
 22 20  1  0
 23 22  1  0
 24 25  1  0
 24 23  1  0
 26 25  1  1
 26 27  1  0
 27 16  1  0
 28 26  1  0
 29 28  2  0
 30 28  1  0
M  END
$$$$
