QER.pdb
     RDKit          3D

 30 29  0  0  1  0  0  0  0  0999 V2000
    6.5339  -13.8867   17.3177 N   0  0  0  0  0  0  0  0  0  0  0  0
    7.6802  -13.2666   16.7783 C   0  0  0  0  0  0  0  0  0  0  0  0
    7.5761  -12.7544   15.6234 O   0  0  0  0  0  0  0  0  0  0  0  0
    8.9798  -13.2170   17.5511 C   0  0  0  0  0  0  0  0  0  0  0  0
    8.7843  -14.0552   18.7635 C   0  0  0  0  0  0  0  0  0  0  0  0
    9.8745  -14.0350   19.7775 C   0  0  2  0  0  0  0  0  0  0  0  0
   11.1352  -13.9606   19.0053 N   0  0  0  0  0  0  0  0  0  0  0  0
    9.9606  -15.1714   20.6798 C   0  0  0  0  0  0  0  0  0  0  0  0
    8.9923  -15.4306   21.4807 O   0  0  0  0  0  0  0  0  0  0  0  0
   11.0414  -16.0880   20.7957 N   0  0  0  0  0  0  0  0  0  0  0  0
   11.1083  -17.1073   21.8188 C   0  0  1  0  0  0  0  0  0  0  0  0
   12.3124  -17.9813   21.5913 C   0  0  0  0  0  0  0  0  0  0  0  0
   12.2783  -19.1456   22.5350 C   0  0  0  0  0  0  0  0  0  0  0  0
   13.4605  -20.0189   22.4704 C   0  0  0  0  0  0  0  0  0  0  0  0
   13.8278  -20.7061   23.4417 O   0  0  0  0  0  0  0  0  0  0  0  0
   11.1652  -16.4859   23.1933 C   0  0  0  0  0  0  0  0  0  0  0  0
   11.5496  -15.2981   23.2666 O   0  0  0  0  0  0  0  0  0  0  0  0
   14.2123  -20.0983   21.2947 O   0  0  0  0  0  0  0  0  0  0  0  0
    6.4760  -11.3802   25.2898 N   0  0  0  0  0  0  0  0  0  0  0  0
    6.6037  -12.0409   26.5400 C   0  0  0  0  0  0  0  0  0  0  0  0
    6.2474  -11.3860   27.5999 N   0  0  0  0  0  0  0  0  0  0  0  0
    7.0966  -13.3673   26.6624 N   0  0  0  0  0  0  0  0  0  0  0  0
    7.3890  -14.1742   25.4933 C   0  0  0  0  0  0  0  0  0  0  0  0
    7.7589  -15.5903   25.8709 C   0  0  0  0  0  0  0  0  0  0  0  0
    8.7112  -16.1181   24.8416 C   0  0  0  0  0  0  0  0  0  0  0  0
   10.0061  -16.6293   25.4344 C   0  0  2  0  0  0  0  0  0  0  0  0
   10.8135  -17.1672   24.3654 N   0  0  0  0  0  0  0  0  0  0  0  0
    9.7819  -17.6247   26.5158 C   0  0  0  0  0  0  0  0  0  0  0  0
    9.9480  -18.8707   26.3480 O   0  0  0  0  0  0  0  0  0  0  0  0
    9.3730  -17.2397   27.7849 O   0  0  0  0  0  0  0  0  0  0  0  0
  2  1  1  0
  2  3  2  0
  4  5  1  0
  4  2  1  0
  6  7  1  6
  6  5  1  0
  8  6  1  0
  9  8  2  0
 10  8  1  0
 11 10  1  0
 11 12  1  6
 13 12  1  0
 14 15  2  0
 14 13  1  0
 16 11  1  0
 16 17  2  0
 18 14  1  0
 20 19  1  0
 21 20  2  0
 22 20  1  0
 23 22  1  0
 24 25  1  0
 24 23  1  0
 26 25  1  6
 26 27  1  0
 27 16  1  0
 28 26  1  0
 29 28  2  0
 30 28  1  0
M  END
$$$$
