QER.pdb
     RDKit          3D

 30 29  0  0  1  0  0  0  0  0999 V2000
    7.2016  -12.1583   19.3691 N   0  0  0  0  0  0  0  0  0  0  0  0
    7.4266  -13.1178   18.3601 C   0  0  0  0  0  0  0  0  0  0  0  0
    8.2471  -12.8159   17.4421 O   0  0  0  0  0  0  0  0  0  0  0  0
    6.7149  -14.4526   18.3770 C   0  0  0  0  0  0  0  0  0  0  0  0
    7.4792  -15.3289   19.3036 C   0  0  0  0  0  0  0  0  0  0  0  0
    8.9274  -15.5148   19.0117 C   0  0  2  0  0  0  0  0  0  0  0  0
    9.0004  -15.8902   17.5818 N   0  0  0  0  0  0  0  0  0  0  0  0
    9.6341  -16.5240   19.7832 C   0  0  0  0  0  0  0  0  0  0  0  0
    9.4100  -16.6448   21.0408 O   0  0  0  0  0  0  0  0  0  0  0  0
   10.5966  -17.4503   19.2962 N   0  0  0  0  0  0  0  0  0  0  0  0
   11.2741  -18.4062   20.1432 C   0  0  1  0  0  0  0  0  0  0  0  0
   12.3283  -19.1329   19.3518 C   0  0  0  0  0  0  0  0  0  0  0  0
   12.9413  -20.2103   20.1950 C   0  0  0  0  0  0  0  0  0  0  0  0
   13.9990  -20.9826   19.5250 C   0  0  0  0  0  0  0  0  0  0  0  0
   15.0755  -21.2550   20.0884 O   0  0  0  0  0  0  0  0  0  0  0  0
   11.8951  -17.7213   21.3365 C   0  0  0  0  0  0  0  0  0  0  0  0
   12.6730  -16.7695   21.1066 O   0  0  0  0  0  0  0  0  0  0  0  0
   13.8157  -21.4368   18.2157 O   0  0  0  0  0  0  0  0  0  0  0  0
    8.3384  -14.1885   28.2254 N   0  0  0  0  0  0  0  0  0  0  0  0
    9.6670  -14.4035   28.6773 C   0  0  0  0  0  0  0  0  0  0  0  0
    9.9878  -13.9226   29.8371 N   0  0  0  0  0  0  0  0  0  0  0  0
   10.6329  -15.1143   27.9162 N   0  0  0  0  0  0  0  0  0  0  0  0
   10.2781  -15.7743   26.6745 C   0  0  0  0  0  0  0  0  0  0  0  0
   11.4976  -16.3051   25.9564 C   0  0  0  0  0  0  0  0  0  0  0  0
   11.0467  -16.9676   24.6904 C   0  0  0  0  0  0  0  0  0  0  0  0
   12.1934  -17.4548   23.8318 C   0  0  2  0  0  0  0  0  0  0  0  0
   11.6433  -18.0974   22.6619 N   0  0  0  0  0  0  0  0  0  0  0  0
   13.1183  -18.3512   24.5744 C   0  0  0  0  0  0  0  0  0  0  0  0
   14.0131  -17.9163   25.3607 O   0  0  0  0  0  0  0  0  0  0  0  0
   13.0522  -19.7315   24.4457 O   0  0  0  0  0  0  0  0  0  0  0  0
  2  1  1  0
  2  3  2  0
  4  5  1  0
  4  2  1  0
  6  7  1  6
  6  5  1  0
  8  6  1  0
  9  8  2  0
 10  8  1  0
 11 10  1  0
 11 12  1  6
 13 12  1  0
 14 15  2  0
 14 13  1  0
 16 11  1  0
 16 17  2  0
 18 14  1  0
 20 19  1  0
 21 20  2  0
 22 20  1  0
 23 22  1  0
 24 25  1  0
 24 23  1  0
 26 25  1  1
 26 27  1  0
 27 16  1  0
 28 26  1  0
 29 28  2  0
 30 28  1  0
M  END
$$$$
