SCV.pdb
     RDKit          3D

 20 19  0  0  1  0  0  0  0  0999 V2000
   16.4651   -9.1046  -19.6479 O   0  0  0  0  0  0  0  0  0  0  0  0
   16.7840   -8.9836  -18.3200 C   0  0  0  0  0  0  0  0  0  0  0  0
   17.6641  -10.0871  -17.7969 C   0  0  2  0  0  0  0  0  0  0  0  0
   16.9220  -11.2727  -17.4884 N   0  0  0  0  0  0  0  0  0  0  0  0
   18.5261   -9.6921  -16.6862 C   0  0  0  0  0  0  0  0  0  0  0  0
   18.0366   -9.6904  -15.5253 O   0  0  0  0  0  0  0  0  0  0  0  0
   19.8796   -9.3075  -16.8102 N   0  0  0  0  0  0  0  0  0  0  0  0
   20.6493   -8.9692  -15.6371 C   0  0  1  0  0  0  0  0  0  0  0  0
   21.8371   -9.9287  -15.6475 C   0  0  0  0  0  0  0  0  0  0  0  0
   23.1210   -9.4466  -14.4752 S   0  0  0  0  0  0  0  0  0  0  0  0
   21.0685   -7.5593  -15.7589 C   0  0  0  0  0  0  0  0  0  0  0  0
   21.5683   -7.1367  -16.8591 O   0  0  0  0  0  0  0  0  0  0  0  0
   19.5867   -4.5565  -16.3171 C   0  0  0  0  0  0  0  0  0  0  0  0
   20.3495   -4.2448  -15.0474 C   0  0  1  0  0  0  0  0  0  0  0  0
   19.3898   -4.2754  -13.8995 C   0  0  0  0  0  0  0  0  0  0  0  0
   21.4537   -5.2599  -14.9185 C   0  0  2  0  0  0  0  0  0  0  0  0
   20.9646   -6.6000  -14.7376 N   0  0  0  0  0  0  0  0  0  0  0  0
   22.2603   -4.9096  -13.7206 C   0  0  0  0  0  0  0  0  0  0  0  0
   22.2543   -5.6348  -12.6824 O   0  0  0  0  0  0  0  0  0  0  0  0
   23.0549   -3.7665  -13.6970 O   0  0  0  0  0  0  0  0  0  0  0  0
  2  1  1  0
  3  2  1  0
  3  5  1  0
  3  4  1  1
  5  6  2  0
  7  8  1  0
  7  5  1  0
  9 10  1  0
  8  9  1  6
 11  8  1  0
 11 12  2  0
 14 13  1  6
 14 16  1  0
 15 14  1  0
 16 17  1  1
 16 18  1  0
 17 11  1  0
 18 19  2  0
 18 20  1  0
M  END
$$$$
