SCV.pdb
     RDKit          3D

 20 19  0  0  1  0  0  0  0  0999 V2000
   16.0453  -12.5823  -18.2646 O   0  0  0  0  0  0  0  0  0  0  0  0
   16.3720  -11.6508  -17.3132 C   0  0  0  0  0  0  0  0  0  0  0  0
   17.5710  -12.0180  -16.4805 C   0  0  2  0  0  0  0  0  0  0  0  0
   17.3030  -13.1129  -15.5968 N   0  0  0  0  0  0  0  0  0  0  0  0
   18.1761  -10.8942  -15.7707 C   0  0  0  0  0  0  0  0  0  0  0  0
   17.6905  -10.5645  -14.6558 O   0  0  0  0  0  0  0  0  0  0  0  0
   19.2740  -10.1388  -16.2388 N   0  0  0  0  0  0  0  0  0  0  0  0
   19.7650   -9.0188  -15.4723 C   0  0  1  0  0  0  0  0  0  0  0  0
   21.2451   -9.3127  -15.2376 C   0  0  0  0  0  0  0  0  0  0  0  0
   21.8636   -8.5595  -13.7194 S   0  0  0  0  0  0  0  0  0  0  0  0
   19.5579   -7.7951  -16.2709 C   0  0  0  0  0  0  0  0  0  0  0  0
   19.9918   -7.7392  -17.4740 O   0  0  0  0  0  0  0  0  0  0  0  0
   16.5206   -6.2569  -17.5127 C   0  0  0  0  0  0  0  0  0  0  0  0
   17.2333   -5.1311  -16.7946 C   0  0  1  0  0  0  0  0  0  0  0  0
   16.5747   -4.9252  -15.4665 C   0  0  0  0  0  0  0  0  0  0  0  0
   18.6852   -5.5116  -16.6786 C   0  0  2  0  0  0  0  0  0  0  0  0
   18.9015   -6.6399  -15.8138 N   0  0  0  0  0  0  0  0  0  0  0  0
   19.4172   -4.3547  -16.1007 C   0  0  0  0  0  0  0  0  0  0  0  0
   19.8553   -4.3743  -14.9127 O   0  0  0  0  0  0  0  0  0  0  0  0
   19.6485   -3.2030  -16.8482 O   0  0  0  0  0  0  0  0  0  0  0  0
  2  1  1  0
  3  2  1  0
  3  5  1  0
  3  4  1  1
  5  6  2  0
  7  8  1  0
  7  5  1  0
  9 10  1  0
  8  9  1  6
 11  8  1  0
 11 12  2  0
 14 13  1  1
 14 16  1  0
 15 14  1  0
 16 17  1  1
 16 18  1  0
 17 11  1  0
 18 19  2  0
 18 20  1  0
M  END
$$$$
