SCV.pdb
     RDKit          3D

 20 19  0  0  1  0  0  0  0  0999 V2000
   14.5120  -12.1721  -10.3883 O   0  0  0  0  0  0  0  0  0  0  0  0
   14.6557  -10.8995  -10.8779 C   0  0  0  0  0  0  0  0  0  0  0  0
   14.5886   -9.8255   -9.8253 C   0  0  2  0  0  0  0  0  0  0  0  0
   13.2595   -9.6381   -9.3255 N   0  0  0  0  0  0  0  0  0  0  0  0
   15.1940   -8.5572  -10.2222 C   0  0  0  0  0  0  0  0  0  0  0  0
   14.5916   -7.8521  -11.0751 O   0  0  0  0  0  0  0  0  0  0  0  0
   16.4141   -8.0517   -9.7213 N   0  0  0  0  0  0  0  0  0  0  0  0
   16.9061   -6.7694  -10.1646 C   0  0  1  0  0  0  0  0  0  0  0  0
   16.8383   -5.8676   -8.9342 C   0  0  0  0  0  0  0  0  0  0  0  0
   15.1543   -5.3383   -8.5613 S   0  0  0  0  0  0  0  0  0  0  0  0
   18.2888   -6.9543  -10.6465 C   0  0  0  0  0  0  0  0  0  0  0  0
   19.1416   -7.5666   -9.9139 O   0  0  0  0  0  0  0  0  0  0  0  0
   21.6730   -7.5995  -13.9859 C   0  0  0  0  0  0  0  0  0  0  0  0
   20.2083   -7.4649  -13.6284 C   0  0  1  0  0  0  0  0  0  0  0  0
   19.5988   -8.8316  -13.6081 C   0  0  0  0  0  0  0  0  0  0  0  0
   20.1264   -6.7644  -12.2984 C   0  0  2  0  0  0  0  0  0  0  0  0
   18.7743   -6.5026  -11.8852 N   0  0  0  0  0  0  0  0  0  0  0  0
   20.8193   -5.4560  -12.4265 C   0  0  0  0  0  0  0  0  0  0  0  0
   20.1828   -4.3914  -12.6824 O   0  0  0  0  0  0  0  0  0  0  0  0
   22.1989   -5.3535  -12.2690 O   0  0  0  0  0  0  0  0  0  0  0  0
  2  1  1  0
  3  2  1  0
  3  5  1  0
  3  4  1  6
  5  6  2  0
  7  8  1  0
  7  5  1  0
  9 10  1  0
  8  9  1  1
 11  8  1  0
 11 12  2  0
 14 13  1  1
 14 16  1  0
 15 14  1  0
 16 17  1  6
 16 18  1  0
 17 11  1  0
 18 19  2  0
 18 20  1  0
M  END
$$$$
