SCV.pdb
     RDKit          3D

 20 19  0  0  1  0  0  0  0  0999 V2000
   19.1679  -12.6318  -18.4665 O   0  0  0  0  0  0  0  0  0  0  0  0
   19.8749  -13.6510  -17.8824 C   0  0  0  0  0  0  0  0  0  0  0  0
   21.1295  -13.2044  -17.1806 C   0  0  2  0  0  0  0  0  0  0  0  0
   21.8159  -14.2929  -16.5516 N   0  0  0  0  0  0  0  0  0  0  0  0
   20.9366  -12.0894  -16.2575 C   0  0  0  0  0  0  0  0  0  0  0  0
   20.3818  -12.3232  -15.1507 O   0  0  0  0  0  0  0  0  0  0  0  0
   21.3264  -10.7551  -16.5084 N   0  0  0  0  0  0  0  0  0  0  0  0
   21.1140   -9.7358  -15.5090 C   0  0  1  0  0  0  0  0  0  0  0  0
   22.4999   -9.4357  -14.9426 C   0  0  0  0  0  0  0  0  0  0  0  0
   22.5086   -7.9754  -13.8832 S   0  0  0  0  0  0  0  0  0  0  0  0
   20.5165   -8.5624  -16.1757 C   0  0  0  0  0  0  0  0  0  0  0  0
   20.9777   -8.1673  -17.3026 O   0  0  0  0  0  0  0  0  0  0  0  0
   17.1008   -5.1976  -16.9542 C   0  0  0  0  0  0  0  0  0  0  0  0
   17.4736   -6.5747  -16.4484 C   0  0  1  0  0  0  0  0  0  0  0  0
   16.9175   -7.5925  -17.3941 C   0  0  0  0  0  0  0  0  0  0  0  0
   18.9741   -6.6296  -16.3405 C   0  0  2  0  0  0  0  0  0  0  0  0
   19.4447   -7.8096  -15.6669 N   0  0  0  0  0  0  0  0  0  0  0  0
   19.4200   -5.4524  -15.5507 C   0  0  0  0  0  0  0  0  0  0  0  0
   19.5253   -5.5019  -14.2897 O   0  0  0  0  0  0  0  0  0  0  0  0
   19.7393   -4.2479  -16.1719 O   0  0  0  0  0  0  0  0  0  0  0  0
  2  1  1  0
  3  2  1  0
  3  5  1  0
  3  4  1  1
  5  6  2  0
  7  8  1  0
  7  5  1  0
  9 10  1  0
  8  9  1  6
 11  8  1  0
 11 12  2  0
 14 13  1  6
 14 16  1  0
 15 14  1  0
 16 17  1  1
 16 18  1  0
 17 11  1  0
 18 19  2  0
 18 20  1  0
M  END
$$$$
