SCV.pdb
     RDKit          3D

 20 19  0  0  1  0  0  0  0  0999 V2000
   12.8236  -10.1419  -15.7666 O   0  0  0  0  0  0  0  0  0  0  0  0
   13.2385  -10.0484  -14.4632 C   0  0  0  0  0  0  0  0  0  0  0  0
   14.4640  -10.8641  -14.1489 C   0  0  2  0  0  0  0  0  0  0  0  0
   14.1614  -12.2535  -13.9769 N   0  0  0  0  0  0  0  0  0  0  0  0
   15.2595  -10.3489  -13.0378 C   0  0  0  0  0  0  0  0  0  0  0  0
   15.1375  -10.9024  -11.9126 O   0  0  0  0  0  0  0  0  0  0  0  0
   16.1646   -9.2680  -13.1243 N   0  0  0  0  0  0  0  0  0  0  0  0
   16.9261   -8.8636  -11.9669 C   0  0  1  0  0  0  0  0  0  0  0  0
   18.3460   -8.6371  -12.4812 C   0  0  0  0  0  0  0  0  0  0  0  0
   19.3216  -10.1546  -12.4986 S   0  0  0  0  0  0  0  0  0  0  0  0
   16.3212   -7.6277  -11.4332 C   0  0  0  0  0  0  0  0  0  0  0  0
   16.0407   -6.6626  -12.2261 O   0  0  0  0  0  0  0  0  0  0  0  0
   13.1046   -7.1489   -9.5887 C   0  0  0  0  0  0  0  0  0  0  0  0
   14.1704   -6.4688   -8.7564 C   0  0  1  0  0  0  0  0  0  0  0  0
   14.5058   -7.3572   -7.5997 C   0  0  0  0  0  0  0  0  0  0  0  0
   15.3487   -6.2021   -9.6545 C   0  0  2  0  0  0  0  0  0  0  0  0
   16.0118   -7.4046  -10.0809 N   0  0  0  0  0  0  0  0  0  0  0  0
   16.3328   -5.3920   -8.8905 C   0  0  0  0  0  0  0  0  0  0  0  0
   16.0655   -4.2160   -8.5043 O   0  0  0  0  0  0  0  0  0  0  0  0
   17.5893   -5.8996   -8.5707 O   0  0  0  0  0  0  0  0  0  0  0  0
  2  1  1  0
  3  2  1  0
  3  5  1  0
  3  4  1  1
  5  6  2  0
  7  8  1  0
  7  5  1  0
  9 10  1  0
  8  9  1  6
 11  8  1  0
 11 12  2  0
 14 13  1  6
 14 16  1  0
 15 14  1  0
 16 17  1  1
 16 18  1  0
 17 11  1  0
 18 19  2  0
 18 20  1  0
M  END
$$$$
