SCV.pdb
     RDKit          3D

 20 19  0  0  1  0  0  0  0  0999 V2000
   19.2771  -10.4325  -21.2393 O   0  0  0  0  0  0  0  0  0  0  0  0
   19.0951  -10.7587  -19.9202 C   0  0  0  0  0  0  0  0  0  0  0  0
   20.2812  -11.4339  -19.2853 C   0  0  2  0  0  0  0  0  0  0  0  0
   20.1832  -12.8620  -19.3348 N   0  0  0  0  0  0  0  0  0  0  0  0
   20.5876  -10.9658  -17.9362 C   0  0  0  0  0  0  0  0  0  0  0  0
   20.0895  -11.5914  -16.9626 O   0  0  0  0  0  0  0  0  0  0  0  0
   21.4064   -9.8559  -17.6319 N   0  0  0  0  0  0  0  0  0  0  0  0
   21.6586   -9.4939  -16.2578 C   0  0  1  0  0  0  0  0  0  0  0  0
   22.8172  -10.3849  -15.8154 C   0  0  0  0  0  0  0  0  0  0  0  0
   23.5319   -9.8551  -14.2459 S   0  0  0  0  0  0  0  0  0  0  0  0
   22.0101   -8.0610  -16.2218 C   0  0  0  0  0  0  0  0  0  0  0  0
   22.9317   -7.6123  -16.9887 O   0  0  0  0  0  0  0  0  0  0  0  0
   20.3913   -5.1885  -17.3368 C   0  0  0  0  0  0  0  0  0  0  0  0
   20.7067   -4.8095  -15.9057 C   0  0  1  0  0  0  0  0  0  0  0  0
   19.4510   -4.9213  -15.0991 C   0  0  0  0  0  0  0  0  0  0  0  0
   21.7999   -5.7246  -15.4223 C   0  0  2  0  0  0  0  0  0  0  0  0
   21.4013   -7.1058  -15.3904 N   0  0  0  0  0  0  0  0  0  0  0  0
   22.1514   -5.3253  -14.0347 C   0  0  0  0  0  0  0  0  0  0  0  0
   21.8713   -6.0607  -13.0426 O   0  0  0  0  0  0  0  0  0  0  0  0
   22.8041   -4.1231  -13.7751 O   0  0  0  0  0  0  0  0  0  0  0  0
  2  1  1  0
  3  2  1  0
  3  5  1  0
  3  4  1  1
  5  6  2  0
  7  8  1  0
  7  5  1  0
  9 10  1  0
  8  9  1  6
 11  8  1  0
 11 12  2  0
 14 13  1  6
 14 16  1  0
 15 14  1  0
 16 17  1  1
 16 18  1  0
 17 11  1  0
 18 19  2  0
 18 20  1  0
M  END
$$$$
