SCV.pdb
     RDKit          3D

 20 19  0  0  1  0  0  0  0  0999 V2000
   18.6359  -12.5821  -20.3211 O   0  0  0  0  0  0  0  0  0  0  0  0
   18.4023  -12.2025  -19.0245 C   0  0  0  0  0  0  0  0  0  0  0  0
   19.6321  -12.1925  -18.1566 C   0  0  2  0  0  0  0  0  0  0  0  0
   19.9064  -13.4789  -17.5896 N   0  0  0  0  0  0  0  0  0  0  0  0
   19.6391  -11.1467  -17.1372 C   0  0  0  0  0  0  0  0  0  0  0  0
   18.9909  -11.3471  -16.0756 O   0  0  0  0  0  0  0  0  0  0  0  0
   20.3217   -9.9150  -17.2470 N   0  0  0  0  0  0  0  0  0  0  0  0
   20.3135   -8.9792  -16.1484 C   0  0  1  0  0  0  0  0  0  0  0  0
   21.7742   -8.8498  -15.7220 C   0  0  0  0  0  0  0  0  0  0  0  0
   22.0333   -7.4973  -14.5565 S   0  0  0  0  0  0  0  0  0  0  0  0
   19.7601   -7.7030  -16.6417 C   0  0  0  0  0  0  0  0  0  0  0  0
   20.1025   -7.2641  -17.7944 O   0  0  0  0  0  0  0  0  0  0  0  0
   16.1975   -6.0877  -15.4909 C   0  0  0  0  0  0  0  0  0  0  0  0
   16.9025   -5.6581  -16.7596 C   0  0  1  0  0  0  0  0  0  0  0  0
   16.3762   -4.3162  -17.1620 C   0  0  0  0  0  0  0  0  0  0  0  0
   18.3814   -5.6501  -16.4786 C   0  0  2  0  0  0  0  0  0  0  0  0
   18.8552   -6.8938  -15.9342 N   0  0  0  0  0  0  0  0  0  0  0  0
   18.6512   -4.5876  -15.4752 C   0  0  0  0  0  0  0  0  0  0  0  0
   18.5821   -3.3594  -15.7758 O   0  0  0  0  0  0  0  0  0  0  0  0
   18.9911   -4.9063  -14.1631 O   0  0  0  0  0  0  0  0  0  0  0  0
  2  1  1  0
  3  2  1  0
  3  5  1  0
  3  4  1  1
  5  6  2  0
  7  8  1  0
  7  5  1  0
  9 10  1  0
  8  9  1  6
 11  8  1  0
 11 12  2  0
 14 13  1  1
 14 16  1  0
 15 14  1  0
 16 17  1  1
 16 18  1  0
 17 11  1  0
 18 19  2  0
 18 20  1  0
M  END
$$$$
