MEC.pdb
     RDKit          3D

 24 23  0  0  1  0  0  0  0  0999 V2000
   25.7441  -20.1174   -7.0053 C   0  0  0  0  0  0  0  0  0  0  0  0
   26.2876  -19.7821   -8.6799 S   0  0  0  0  0  0  0  0  0  0  0  0
   25.5555  -20.7884   -9.9486 C   0  0  0  0  0  0  0  0  0  0  0  0
   25.9961  -20.4934  -11.3451 C   0  0  0  0  0  0  0  0  0  0  0  0
   25.2645  -21.3198  -12.3344 C   0  0  2  0  0  0  0  0  0  0  0  0
   25.7604  -22.6679  -12.2863 N   0  0  0  0  0  0  0  0  0  0  0  0
   25.4714  -20.7956  -13.7426 C   0  0  0  0  0  0  0  0  0  0  0  0
   26.4768  -21.1537  -14.4165 O   0  0  0  0  0  0  0  0  0  0  0  0
   24.5354  -19.9098  -14.2873 N   0  0  0  0  0  0  0  0  0  0  0  0
   24.4702  -19.6383  -15.7304 C   0  0  1  0  0  0  0  0  0  0  0  0
   23.0442  -19.8491  -16.1470 C   0  0  0  0  0  0  0  0  0  0  0  0
   22.7296  -19.5972  -17.5715 C   0  0  0  0  0  0  0  0  0  0  0  0
   21.2991  -19.7858  -17.8808 C   0  0  0  0  0  0  0  0  0  0  0  0
   20.8717  -20.9053  -18.3287 O   0  0  0  0  0  0  0  0  0  0  0  0
   24.9003  -18.2305  -15.9597 C   0  0  0  0  0  0  0  0  0  0  0  0
   24.2217  -17.2830  -15.4928 O   0  0  0  0  0  0  0  0  0  0  0  0
   20.3909  -18.7718  -17.6997 O   0  0  0  0  0  0  0  0  0  0  0  0
   26.0696  -17.9103  -16.6993 N   0  0  0  0  0  0  0  0  0  0  0  0
   26.4550  -16.5476  -17.0594 C   0  0  1  0  0  0  0  0  0  0  0  0
   27.8751  -16.6095  -17.5969 C   0  0  0  0  0  0  0  0  0  0  0  0
   28.9910  -17.2943  -16.3450 S   0  0  0  0  0  0  0  0  0  0  0  0
   25.5495  -15.9806  -18.0748 C   0  0  0  0  0  0  0  0  0  0  0  0
   25.3237  -14.7524  -18.1325 O   0  0  0  0  0  0  0  0  0  0  0  0
   24.9281  -16.8092  -18.9903 O   0  0  0  0  0  0  0  0  0  0  0  0
  1  2  1  0
  2  3  1  0
  4  5  1  0
  4  3  1  0
  5  7  1  0
  5  6  1  6
  7  8  2  0
  9  7  1  0
  9 10  1  0
 10 15  1  0
 10 11  1  1
 12 13  1  0
 12 11  1  0
 13 14  2  0
 15 16  2  0
 17 13  1  0
 18 15  1  0
 18 19  1  0
 19 22  1  0
 20 21  1  0
 19 20  1  6
 22 24  1  0
 23 22  2  0
M  END
$$$$
