MEC.pdb
     RDKit          3D

 24 23  0  0  1  0  0  0  0  0999 V2000
   28.7726  -24.6153  -16.7790 C   0  0  0  0  0  0  0  0  0  0  0  0
   28.3883  -26.2363  -16.1184 S   0  0  0  0  0  0  0  0  0  0  0  0
   26.7912  -26.8886  -16.5454 C   0  0  0  0  0  0  0  0  0  0  0  0
   25.6620  -25.9112  -16.5136 C   0  0  0  0  0  0  0  0  0  0  0  0
   24.3824  -26.5423  -16.9150 C   0  0  2  0  0  0  0  0  0  0  0  0
   24.4145  -26.8266  -18.3235 N   0  0  0  0  0  0  0  0  0  0  0  0
   23.2109  -25.6155  -16.6518 C   0  0  0  0  0  0  0  0  0  0  0  0
   22.8921  -24.7329  -17.4961 O   0  0  0  0  0  0  0  0  0  0  0  0
   22.4868  -25.7489  -15.4622 N   0  0  0  0  0  0  0  0  0  0  0  0
   21.3996  -24.8259  -15.1062 C   0  0  1  0  0  0  0  0  0  0  0  0
   20.4883  -25.5688  -14.1739 C   0  0  0  0  0  0  0  0  0  0  0  0
   19.3626  -24.7980  -13.5992 C   0  0  0  0  0  0  0  0  0  0  0  0
   18.5158  -25.6089  -12.7034 C   0  0  0  0  0  0  0  0  0  0  0  0
   18.7982  -25.7157  -11.4602 O   0  0  0  0  0  0  0  0  0  0  0  0
   21.9986  -23.6334  -14.4442 C   0  0  0  0  0  0  0  0  0  0  0  0
   22.7719  -23.7809  -13.4661 O   0  0  0  0  0  0  0  0  0  0  0  0
   17.4079  -26.2696  -13.1744 O   0  0  0  0  0  0  0  0  0  0  0  0
   21.7254  -22.3106  -14.8828 N   0  0  0  0  0  0  0  0  0  0  0  0
   22.1934  -21.1122  -14.1900 C   0  0  1  0  0  0  0  0  0  0  0  0
   22.6994  -20.1488  -15.2507 C   0  0  0  0  0  0  0  0  0  0  0  0
   23.9945  -20.9334  -16.2451 S   0  0  0  0  0  0  0  0  0  0  0  0
   21.1143  -20.4860  -13.4052 C   0  0  0  0  0  0  0  0  0  0  0  0
   19.9338  -20.8897  -13.4838 O   0  0  0  0  0  0  0  0  0  0  0  0
   21.3950  -19.4290  -12.5598 O   0  0  0  0  0  0  0  0  0  0  0  0
  1  2  1  0
  2  3  1  0
  4  5  1  0
  4  3  1  0
  5  7  1  0
  5  6  1  6
  7  8  2  0
  9  7  1  0
  9 10  1  0
 10 15  1  0
 10 11  1  1
 12 13  1  0
 12 11  1  0
 13 14  2  0
 15 16  2  0
 17 13  1  0
 18 15  1  0
 18 19  1  0
 19 22  1  0
 20 21  1  0
 19 20  1  6
 22 24  1  0
 23 22  2  0
M  END
$$$$
