MEC.pdb
     RDKit          3D

 24 23  0  0  1  0  0  0  0  0999 V2000
   31.8280  -22.0083   -9.7728 C   0  0  0  0  0  0  0  0  0  0  0  0
   30.3708  -21.3107  -10.5483 S   0  0  0  0  0  0  0  0  0  0  0  0
   28.9686  -21.0655   -9.4843 C   0  0  0  0  0  0  0  0  0  0  0  0
   27.8120  -20.3415  -10.0923 C   0  0  0  0  0  0  0  0  0  0  0  0
   26.8034  -21.2824  -10.6349 C   0  0  2  0  0  0  0  0  0  0  0  0
   27.4735  -22.4108  -11.2209 N   0  0  0  0  0  0  0  0  0  0  0  0
   25.9674  -20.6226  -11.7149 C   0  0  0  0  0  0  0  0  0  0  0  0
   25.3131  -19.5726  -11.4645 O   0  0  0  0  0  0  0  0  0  0  0  0
   25.9286  -21.1907  -12.9928 N   0  0  0  0  0  0  0  0  0  0  0  0
   25.1696  -20.5789  -14.0929 C   0  0  1  0  0  0  0  0  0  0  0  0
   26.0998  -20.4957  -15.2674 C   0  0  0  0  0  0  0  0  0  0  0  0
   25.5340  -19.9415  -16.5182 C   0  0  0  0  0  0  0  0  0  0  0  0
   26.5314  -19.8473  -17.6016 C   0  0  0  0  0  0  0  0  0  0  0  0
   26.2073  -20.1136  -18.8102 O   0  0  0  0  0  0  0  0  0  0  0  0
   23.9968  -21.4482  -14.3898 C   0  0  0  0  0  0  0  0  0  0  0  0
   24.0867  -22.6927  -14.2505 O   0  0  0  0  0  0  0  0  0  0  0  0
   27.8282  -19.4749  -17.3463 O   0  0  0  0  0  0  0  0  0  0  0  0
   22.7568  -20.9161  -14.8328 N   0  0  0  0  0  0  0  0  0  0  0  0
   21.4657  -21.5566  -14.5918 C   0  0  1  0  0  0  0  0  0  0  0  0
   21.3379  -21.7594  -13.0911 C   0  0  0  0  0  0  0  0  0  0  0  0
   19.7149  -22.4554  -12.6876 S   0  0  0  0  0  0  0  0  0  0  0  0
   20.3516  -20.7310  -15.0916 C   0  0  0  0  0  0  0  0  0  0  0  0
   20.4285  -19.4837  -15.1222 O   0  0  0  0  0  0  0  0  0  0  0  0
   19.1899  -21.3314  -15.5397 O   0  0  0  0  0  0  0  0  0  0  0  0
  1  2  1  0
  2  3  1  0
  4  5  1  0
  4  3  1  0
  5  7  1  0
  5  6  1  6
  7  8  2  0
  9  7  1  0
  9 10  1  0
 10 15  1  0
 10 11  1  6
 12 13  1  0
 12 11  1  0
 13 14  2  0
 15 16  2  0
 17 13  1  0
 18 15  1  0
 18 19  1  0
 19 22  1  0
 20 21  1  0
 19 20  1  1
 22 24  1  0
 23 22  2  0
M  END
$$$$
