MEC.pdb
     RDKit          3D

 24 23  0  0  1  0  0  0  0  0999 V2000
   19.0560  -18.8780  -17.2935 C   0  0  0  0  0  0  0  0  0  0  0  0
   19.6766  -17.3025  -16.7066 S   0  0  0  0  0  0  0  0  0  0  0  0
   20.8185  -16.4692  -17.7837 C   0  0  0  0  0  0  0  0  0  0  0  0
   21.3227  -15.1496  -17.2981 C   0  0  0  0  0  0  0  0  0  0  0  0
   22.2911  -14.5523  -18.2480 C   0  0  2  0  0  0  0  0  0  0  0  0
   23.5003  -15.3292  -18.2447 N   0  0  0  0  0  0  0  0  0  0  0  0
   22.6459  -13.1336  -17.8452 C   0  0  0  0  0  0  0  0  0  0  0  0
   23.6528  -12.9087  -17.1179 O   0  0  0  0  0  0  0  0  0  0  0  0
   21.8447  -12.0759  -18.2884 N   0  0  0  0  0  0  0  0  0  0  0  0
   22.2007  -10.6722  -18.0362 C   0  0  1  0  0  0  0  0  0  0  0  0
   22.0385   -9.9435  -19.3377 C   0  0  0  0  0  0  0  0  0  0  0  0
   22.2002   -8.4725  -19.2941 C   0  0  0  0  0  0  0  0  0  0  0  0
   22.0192   -7.8402  -20.6149 C   0  0  0  0  0  0  0  0  0  0  0  0
   20.8505   -7.7044  -21.1174 O   0  0  0  0  0  0  0  0  0  0  0  0
   21.2784  -10.1372  -16.9958 C   0  0  0  0  0  0  0  0  0  0  0  0
   20.0532  -10.4073  -17.0443 O   0  0  0  0  0  0  0  0  0  0  0  0
   23.0923   -7.3834  -21.3397 O   0  0  0  0  0  0  0  0  0  0  0  0
   21.7374   -9.3179  -15.9304 N   0  0  0  0  0  0  0  0  0  0  0  0
   20.8616   -8.7470  -14.9095 C   0  0  1  0  0  0  0  0  0  0  0  0
   21.4763   -9.0709  -13.5580 C   0  0  0  0  0  0  0  0  0  0  0  0
   20.4732   -8.3629  -12.2261 S   0  0  0  0  0  0  0  0  0  0  0  0
   20.7236   -7.2884  -15.0707 C   0  0  0  0  0  0  0  0  0  0  0  0
   21.6978   -6.5739  -15.3920 O   0  0  0  0  0  0  0  0  0  0  0  0
   19.4991   -6.6806  -14.8660 O   0  0  0  0  0  0  0  0  0  0  0  0
  1  2  1  0
  2  3  1  0
  4  5  1  0
  4  3  1  0
  5  7  1  0
  5  6  1  1
  7  8  2  0
  9  7  1  0
  9 10  1  0
 10 15  1  0
 10 11  1  6
 12 13  1  0
 12 11  1  0
 13 14  2  0
 15 16  2  0
 17 13  1  0
 18 15  1  0
 18 19  1  0
 19 22  1  0
 20 21  1  0
 19 20  1  1
 22 24  1  0
 23 22  2  0
M  END
$$$$
