MEC.pdb
     RDKit          3D

 24 23  0  0  1  0  0  0  0  0999 V2000
   24.4912  -15.2465  -14.5025 C   0  0  0  0  0  0  0  0  0  0  0  0
   23.5158  -13.8325  -15.0134 S   0  0  0  0  0  0  0  0  0  0  0  0
   24.4280  -12.4637  -15.6861 C   0  0  0  0  0  0  0  0  0  0  0  0
   23.6194  -11.2614  -16.0492 C   0  0  0  0  0  0  0  0  0  0  0  0
   22.3950  -11.6326  -16.7975 C   0  0  2  0  0  0  0  0  0  0  0  0
   22.7642  -12.1389  -18.0910 N   0  0  0  0  0  0  0  0  0  0  0  0
   21.4968  -10.4283  -17.0059 C   0  0  0  0  0  0  0  0  0  0  0  0
   21.7379   -9.6037  -17.9307 O   0  0  0  0  0  0  0  0  0  0  0  0
   20.3974  -10.2404  -16.1614 N   0  0  0  0  0  0  0  0  0  0  0  0
   19.5257   -9.0620  -16.2704 C   0  0  1  0  0  0  0  0  0  0  0  0
   18.1236   -9.5357  -16.0227 C   0  0  0  0  0  0  0  0  0  0  0  0
   17.2856   -9.7691  -17.2206 C   0  0  0  0  0  0  0  0  0  0  0  0
   15.8415   -9.7464  -16.9186 C   0  0  0  0  0  0  0  0  0  0  0  0
   15.0637   -8.9256  -17.5170 O   0  0  0  0  0  0  0  0  0  0  0  0
   19.9527   -8.0699  -15.2444 C   0  0  0  0  0  0  0  0  0  0  0  0
   20.1408   -8.4354  -14.0581 O   0  0  0  0  0  0  0  0  0  0  0  0
   15.2934  -10.5985  -15.9916 O   0  0  0  0  0  0  0  0  0  0  0  0
   20.1598   -6.7007  -15.5596 N   0  0  0  0  0  0  0  0  0  0  0  0
   20.6507   -5.7121  -14.6021 C   0  0  1  0  0  0  0  0  0  0  0  0
   22.0249   -6.1728  -14.1453 C   0  0  0  0  0  0  0  0  0  0  0  0
   22.7659   -4.9408  -13.0433 S   0  0  0  0  0  0  0  0  0  0  0  0
   20.7373   -4.3708  -15.2071 C   0  0  0  0  0  0  0  0  0  0  0  0
   21.0200   -4.2188  -16.4153 O   0  0  0  0  0  0  0  0  0  0  0  0
   20.5045   -3.2463  -14.4377 O   0  0  0  0  0  0  0  0  0  0  0  0
  1  2  1  0
  2  3  1  0
  4  5  1  0
  4  3  1  0
  5  7  1  0
  5  6  1  6
  7  8  2  0
  9  7  1  0
  9 10  1  0
 10 15  1  0
 10 11  1  1
 12 13  1  0
 12 11  1  0
 13 14  2  0
 15 16  2  0
 17 13  1  0
 18 15  1  0
 18 19  1  0
 19 22  1  0
 20 21  1  0
 19 20  1  6
 22 24  1  0
 23 22  2  0
M  END
$$$$
