MEC.pdb
     RDKit          3D

 24 23  0  0  1  0  0  0  0  0999 V2000
   29.7990  -14.2633  -21.5787 C   0  0  0  0  0  0  0  0  0  0  0  0
   29.2473  -15.8032  -20.8464 S   0  0  0  0  0  0  0  0  0  0  0  0
   27.4978  -16.1091  -20.9104 C   0  0  0  0  0  0  0  0  0  0  0  0
   27.0500  -17.4279  -20.3703 C   0  0  0  0  0  0  0  0  0  0  0  0
   26.6406  -17.3251  -18.9495 C   0  0  2  0  0  0  0  0  0  0  0  0
   27.8128  -17.2320  -18.1231 N   0  0  0  0  0  0  0  0  0  0  0  0
   25.8599  -18.5515  -18.5167 C   0  0  0  0  0  0  0  0  0  0  0  0
   24.8494  -18.9298  -19.1719 O   0  0  0  0  0  0  0  0  0  0  0  0
   26.2715  -19.2595  -17.3825 N   0  0  0  0  0  0  0  0  0  0  0  0
   25.5920  -20.4866  -16.9430 C   0  0  1  0  0  0  0  0  0  0  0  0
   26.6607  -21.4287  -16.4720 C   0  0  0  0  0  0  0  0  0  0  0  0
   27.6082  -21.9172  -17.4993 C   0  0  0  0  0  0  0  0  0  0  0  0
   28.6679  -22.7748  -16.9348 C   0  0  0  0  0  0  0  0  0  0  0  0
   28.7036  -23.0261  -15.6809 O   0  0  0  0  0  0  0  0  0  0  0  0
   24.6565  -20.1315  -15.8394 C   0  0  0  0  0  0  0  0  0  0  0  0
   24.9903  -19.2740  -14.9852 O   0  0  0  0  0  0  0  0  0  0  0  0
   29.6414  -23.3238  -17.7328 O   0  0  0  0  0  0  0  0  0  0  0  0
   23.3773  -20.7351  -15.7116 N   0  0  0  0  0  0  0  0  0  0  0  0
   22.3610  -20.2909  -14.7603 C   0  0  1  0  0  0  0  0  0  0  0  0
   21.9988  -18.8608  -15.1250 C   0  0  0  0  0  0  0  0  0  0  0  0
   20.7452  -18.2204  -13.9849 S   0  0  0  0  0  0  0  0  0  0  0  0
   21.1635  -21.1488  -14.8095 C   0  0  0  0  0  0  0  0  0  0  0  0
   20.8437  -21.7610  -15.8515 O   0  0  0  0  0  0  0  0  0  0  0  0
   20.3655  -21.2910  -13.6898 O   0  0  0  0  0  0  0  0  0  0  0  0
  1  2  1  0
  2  3  1  0
  4  5  1  0
  4  3  1  0
  5  7  1  0
  5  6  1  1
  7  8  2  0
  9  7  1  0
  9 10  1  0
 10 15  1  0
 10 11  1  1
 12 13  1  0
 12 11  1  0
 13 14  2  0
 15 16  2  0
 17 13  1  0
 18 15  1  0
 18 19  1  0
 19 22  1  0
 20 21  1  0
 19 20  1  6
 22 24  1  0
 23 22  2  0
M  END
$$$$
