MEC.pdb
     RDKit          3D

 24 23  0  0  1  0  0  0  0  0999 V2000
   28.8305  -11.2050  -16.0736 C   0  0  0  0  0  0  0  0  0  0  0  0
   28.2663  -12.8798  -15.7759 S   0  0  0  0  0  0  0  0  0  0  0  0
   26.5067  -13.1247  -15.8222 C   0  0  0  0  0  0  0  0  0  0  0  0
   25.7007  -11.9527  -16.2785 C   0  0  0  0  0  0  0  0  0  0  0  0
   24.2556  -12.2758  -16.3425 C   0  0  2  0  0  0  0  0  0  0  0  0
   24.0406  -13.2968  -17.3310 N   0  0  0  0  0  0  0  0  0  0  0  0
   23.4419  -11.0597  -16.7422 C   0  0  0  0  0  0  0  0  0  0  0  0
   23.4553  -10.6455  -17.9345 O   0  0  0  0  0  0  0  0  0  0  0  0
   22.6758  -10.4009  -15.7745 N   0  0  0  0  0  0  0  0  0  0  0  0
   21.7870   -9.2812  -16.1164 C   0  0  1  0  0  0  0  0  0  0  0  0
   20.4126   -9.6606  -15.6487 C   0  0  0  0  0  0  0  0  0  0  0  0
   19.3803   -8.6012  -15.7084 C   0  0  0  0  0  0  0  0  0  0  0  0
   18.0742   -9.0488  -15.1878 C   0  0  0  0  0  0  0  0  0  0  0  0
   17.9333  -10.2260  -14.7072 O   0  0  0  0  0  0  0  0  0  0  0  0
   22.2816   -8.0629  -15.4163 C   0  0  0  0  0  0  0  0  0  0  0  0
   22.7191   -8.1476  -14.2425 O   0  0  0  0  0  0  0  0  0  0  0  0
   16.9783   -8.2213  -15.2050 O   0  0  0  0  0  0  0  0  0  0  0  0
   22.2785   -6.7843  -16.0345 N   0  0  0  0  0  0  0  0  0  0  0  0
   22.7040   -5.5573  -15.3648 C   0  0  1  0  0  0  0  0  0  0  0  0
   22.6336   -4.4381  -16.3903 C   0  0  0  0  0  0  0  0  0  0  0  0
   23.0034   -2.8462  -15.6088 S   0  0  0  0  0  0  0  0  0  0  0  0
   21.8429   -5.2459  -14.2098 C   0  0  0  0  0  0  0  0  0  0  0  0
   22.3235   -4.8339  -13.1318 O   0  0  0  0  0  0  0  0  0  0  0  0
   20.4731   -5.4068  -14.3024 O   0  0  0  0  0  0  0  0  0  0  0  0
  1  2  1  0
  2  3  1  0
  4  5  1  0
  4  3  1  0
  5  7  1  0
  5  6  1  6
  7  8  2  0
  9  7  1  0
  9 10  1  0
 10 15  1  0
 10 11  1  1
 12 13  1  0
 12 11  1  0
 13 14  2  0
 15 16  2  0
 17 13  1  0
 18 15  1  0
 18 19  1  0
 19 22  1  0
 20 21  1  0
 19 20  1  6
 22 24  1  0
 23 22  2  0
M  END
$$$$
