MEC.pdb
     RDKit          3D

 24 23  0  0  1  0  0  0  0  0999 V2000
   25.3743   -9.8802  -21.2506 C   0  0  0  0  0  0  0  0  0  0  0  0
   24.7183  -10.7216  -19.8106 S   0  0  0  0  0  0  0  0  0  0  0  0
   23.0747  -11.3768  -19.9775 C   0  0  0  0  0  0  0  0  0  0  0  0
   21.9633  -10.4205  -19.6912 C   0  0  0  0  0  0  0  0  0  0  0  0
   22.1181   -9.7864  -18.3604 C   0  0  2  0  0  0  0  0  0  0  0  0
   22.1251  -10.8054  -17.3468 N   0  0  0  0  0  0  0  0  0  0  0  0
   20.9661   -8.8441  -18.0679 C   0  0  0  0  0  0  0  0  0  0  0  0
   20.6787   -7.9165  -18.8744 O   0  0  0  0  0  0  0  0  0  0  0  0
   20.2248   -9.0135  -16.8936 N   0  0  0  0  0  0  0  0  0  0  0  0
   19.0065   -8.2365  -16.6244 C   0  0  1  0  0  0  0  0  0  0  0  0
   18.0146   -9.1832  -16.0148 C   0  0  0  0  0  0  0  0  0  0  0  0
   17.4406  -10.2071  -16.9169 C   0  0  0  0  0  0  0  0  0  0  0  0
   16.7340  -11.2774  -16.1870 C   0  0  0  0  0  0  0  0  0  0  0  0
   16.7993  -12.4910  -16.5866 O   0  0  0  0  0  0  0  0  0  0  0  0
   19.3545   -7.1350  -15.6837 C   0  0  0  0  0  0  0  0  0  0  0  0
   18.5184   -6.2310  -15.4390 O   0  0  0  0  0  0  0  0  0  0  0  0
   15.9895  -11.0043  -15.0659 O   0  0  0  0  0  0  0  0  0  0  0  0
   20.6183   -7.0645  -15.0396 N   0  0  0  0  0  0  0  0  0  0  0  0
   20.9843   -6.0245  -14.0807 C   0  0  1  0  0  0  0  0  0  0  0  0
   21.8473   -6.6795  -13.0151 C   0  0  0  0  0  0  0  0  0  0  0  0
   20.9775   -8.0892  -12.2818 S   0  0  0  0  0  0  0  0  0  0  0  0
   21.7220   -4.9262  -14.7305 C   0  0  0  0  0  0  0  0  0  0  0  0
   21.9673   -4.9426  -15.9562 O   0  0  0  0  0  0  0  0  0  0  0  0
   22.1595   -3.8478  -13.9847 O   0  0  0  0  0  0  0  0  0  0  0  0
  1  2  1  0
  2  3  1  0
  4  5  1  0
  4  3  1  0
  5  7  1  0
  5  6  1  1
  7  8  2  0
  9  7  1  0
  9 10  1  0
 10 15  1  0
 10 11  1  1
 12 13  1  0
 12 11  1  0
 13 14  2  0
 15 16  2  0
 17 13  1  0
 18 15  1  0
 18 19  1  0
 19 22  1  0
 20 21  1  0
 19 20  1  1
 22 24  1  0
 23 22  2  0
M  END
$$$$
