MEC.pdb
     RDKit          3D

 24 23  0  0  1  0  0  0  0  0999 V2000
   15.6026  -16.9034  -14.1738 C   0  0  0  0  0  0  0  0  0  0  0  0
   16.3451  -15.4669  -13.4011 S   0  0  0  0  0  0  0  0  0  0  0  0
   16.9253  -14.2040  -14.5086 C   0  0  0  0  0  0  0  0  0  0  0  0
   17.5426  -13.0075  -13.8613 C   0  0  0  0  0  0  0  0  0  0  0  0
   17.9125  -11.9767  -14.8600 C   0  0  2  0  0  0  0  0  0  0  0  0
   19.0273  -12.4461  -15.6364 N   0  0  0  0  0  0  0  0  0  0  0  0
   18.3262  -10.6843  -14.1822 C   0  0  0  0  0  0  0  0  0  0  0  0
   19.5416  -10.4560  -13.9293 O   0  0  0  0  0  0  0  0  0  0  0  0
   17.3456   -9.7470  -13.8397 N   0  0  0  0  0  0  0  0  0  0  0  0
   17.6884   -8.4359  -13.2706 C   0  0  1  0  0  0  0  0  0  0  0  0
   17.9972   -7.5294  -14.4257 C   0  0  0  0  0  0  0  0  0  0  0  0
   19.3309   -6.8868  -14.4210 C   0  0  0  0  0  0  0  0  0  0  0  0
   19.5466   -6.0140  -15.5910 C   0  0  0  0  0  0  0  0  0  0  0  0
   20.4218   -6.3138  -16.4747 O   0  0  0  0  0  0  0  0  0  0  0  0
   16.5165   -7.9445  -12.4931 C   0  0  0  0  0  0  0  0  0  0  0  0
   15.3696   -7.9702  -13.0032 O   0  0  0  0  0  0  0  0  0  0  0  0
   18.8206   -4.8613  -15.7642 O   0  0  0  0  0  0  0  0  0  0  0  0
   16.6462   -7.4384  -11.1725 N   0  0  0  0  0  0  0  0  0  0  0  0
   15.5230   -6.9490  -10.3763 C   0  0  1  0  0  0  0  0  0  0  0  0
   15.9331   -7.0422   -8.9160 C   0  0  0  0  0  0  0  0  0  0  0  0
   16.0447   -8.7764   -8.4046 S   0  0  0  0  0  0  0  0  0  0  0  0
   15.1813   -5.5576  -10.7224 C   0  0  0  0  0  0  0  0  0  0  0  0
   14.1349   -5.0199  -10.2995 O   0  0  0  0  0  0  0  0  0  0  0  0
   16.0234   -4.8168  -11.5304 O   0  0  0  0  0  0  0  0  0  0  0  0
  1  2  1  0
  2  3  1  0
  4  5  1  0
  4  3  1  0
  5  7  1  0
  5  6  1  1
  7  8  2  0
  9  7  1  0
  9 10  1  0
 10 15  1  0
 10 11  1  6
 12 13  1  0
 12 11  1  0
 13 14  2  0
 15 16  2  0
 17 13  1  0
 18 15  1  0
 18 19  1  0
 19 22  1  0
 20 21  1  0
 19 20  1  1
 22 24  1  0
 23 22  2  0
M  END
$$$$
