MEC.pdb
     RDKit          3D

 24 23  0  0  1  0  0  0  0  0999 V2000
   11.9417  -12.8860  -12.8378 C   0  0  0  0  0  0  0  0  0  0  0  0
   12.8954  -11.8449  -11.7340 S   0  0  0  0  0  0  0  0  0  0  0  0
   14.6068  -11.6263  -12.1603 C   0  0  0  0  0  0  0  0  0  0  0  0
   15.3749  -10.6811  -11.2954 C   0  0  0  0  0  0  0  0  0  0  0  0
   16.7667  -10.5102  -11.7754 C   0  0  2  0  0  0  0  0  0  0  0  0
   17.4533  -11.7706  -11.6995 N   0  0  0  0  0  0  0  0  0  0  0  0
   17.5217   -9.5142  -10.9160 C   0  0  0  0  0  0  0  0  0  0  0  0
   18.0931   -9.8897   -9.8549 O   0  0  0  0  0  0  0  0  0  0  0  0
   17.5781   -8.1735  -11.3118 N   0  0  0  0  0  0  0  0  0  0  0  0
   18.3762   -7.1797  -10.5798 C   0  0  1  0  0  0  0  0  0  0  0  0
   19.2087   -6.4574  -11.5980 C   0  0  0  0  0  0  0  0  0  0  0  0
   20.6401   -6.8297  -11.6629 C   0  0  0  0  0  0  0  0  0  0  0  0
   21.4042   -5.9919  -12.6071 C   0  0  0  0  0  0  0  0  0  0  0  0
   21.3767   -6.2349  -13.8629 O   0  0  0  0  0  0  0  0  0  0  0  0
   17.4411   -6.2508   -9.8855 C   0  0  0  0  0  0  0  0  0  0  0  0
   17.8905   -5.3709   -9.1108 O   0  0  0  0  0  0  0  0  0  0  0  0
   22.1634   -4.9348  -12.1690 O   0  0  0  0  0  0  0  0  0  0  0  0
   16.0344   -6.3213  -10.0677 N   0  0  0  0  0  0  0  0  0  0  0  0
   15.0845   -5.4264   -9.4105 C   0  0  1  0  0  0  0  0  0  0  0  0
   15.1316   -5.7351   -7.9233 C   0  0  0  0  0  0  0  0  0  0  0  0
   14.7730   -7.4870   -7.6340 S   0  0  0  0  0  0  0  0  0  0  0  0
   15.4218   -4.0115   -9.6487 C   0  0  0  0  0  0  0  0  0  0  0  0
   16.3591   -3.6849  -10.4087 O   0  0  0  0  0  0  0  0  0  0  0  0
   14.6976   -3.0115   -9.0272 O   0  0  0  0  0  0  0  0  0  0  0  0
  1  2  1  0
  2  3  1  0
  4  5  1  0
  4  3  1  0
  5  7  1  0
  5  6  1  1
  7  8  2  0
  9  7  1  0
  9 10  1  0
 10 15  1  0
 10 11  1  6
 12 13  1  0
 12 11  1  0
 13 14  2  0
 15 16  2  0
 17 13  1  0
 18 15  1  0
 18 19  1  0
 19 22  1  0
 20 21  1  0
 19 20  1  1
 22 24  1  0
 23 22  2  0
M  END
$$$$
