FRL.pdb
     RDKit          3D

 31 31  0  0  1  0  0  0  0  0999 V2000
    6.0074  -18.3085   19.7198 N   0  0  0  0  0  0  0  0  0  0  0  0
    6.7073  -17.2289   20.3751 C   0  0  1  0  0  0  0  0  0  0  0  0
    6.1013  -15.9210   19.8969 C   0  0  0  0  0  0  0  0  0  0  0  0
    6.9679  -14.7557   20.1897 C   0  0  0  0  0  0  0  0  0  0  0  0
    6.6794  -13.9998   21.3307 C   0  0  0  0  0  0  0  0  0  0  0  0
    7.4662  -12.9306   21.6133 C   0  0  0  0  0  0  0  0  0  0  0  0
    8.5182  -12.6121   20.7867 C   0  0  0  0  0  0  0  0  0  0  0  0
    8.8060  -13.3575   19.6580 C   0  0  0  0  0  0  0  0  0  0  0  0
    8.0083  -14.4630   19.3483 C   0  0  0  0  0  0  0  0  0  0  0  0
    6.5552  -17.2492   21.8453 C   0  0  0  0  0  0  0  0  0  0  0  0
    5.3794  -17.4132   22.2786 O   0  0  0  0  0  0  0  0  0  0  0  0
    7.4991  -20.0939   28.2437 N   0  0  0  0  0  0  0  0  0  0  0  0
    7.2649  -21.3190   27.5664 C   0  0  0  0  0  0  0  0  0  0  0  0
    7.8160  -22.3875   28.0180 N   0  0  0  0  0  0  0  0  0  0  0  0
    6.4409  -21.3290   26.4237 N   0  0  0  0  0  0  0  0  0  0  0  0
    6.4512  -20.2595   25.4620 C   0  0  0  0  0  0  0  0  0  0  0  0
    7.6311  -19.3204   25.6794 C   0  0  0  0  0  0  0  0  0  0  0  0
    8.0349  -18.7114   24.3742 C   0  0  0  0  0  0  0  0  0  0  0  0
    7.5038  -17.2982   24.1447 C   0  0  2  0  0  0  0  0  0  0  0  0
    7.6744  -17.0935   22.6919 N   0  0  0  0  0  0  0  0  0  0  0  0
    8.3527  -16.3095   24.8362 C   0  0  0  0  0  0  0  0  0  0  0  0
    9.5322  -16.1346   24.3910 O   0  0  0  0  0  0  0  0  0  0  0  0
    7.6779  -23.2849   27.5196 C   0  0  0  0  0  0  0  0  0  0  0  0
    6.0859  -12.1712   27.3719 C   0  0  1  0  0  0  0  0  0  0  0  0
    7.0592  -12.9070   26.5073 C   0  0  0  0  0  0  0  0  0  0  0  0
    7.5206  -12.0225   25.3495 C   0  0  0  0  0  0  0  0  0  0  0  0
    8.2365  -13.4747   27.2407 C   0  0  2  0  0  0  0  0  0  0  0  0
    8.9194  -14.6279   26.5802 N   0  0  0  0  0  0  0  0  0  0  0  0
    7.9875  -15.5356   25.9427 C   0  0  0  0  0  0  0  0  0  0  0  0
    9.8706  -15.3304   27.4666 O   0  0  0  0  0  0  0  0  0  0  0  0
   10.8362  -14.7282   27.9797 O   0  0  0  0  0  0  0  0  0  0  0  0
  2  1  1  6
  3  4  1  0
  3  2  1  0
  4  9  2  0
  5  6  2  0
  5  4  1  0
  6  7  1  0
  7  8  2  0
  9  8  1  0
 10  2  1  0
 10 20  1  0
 11 10  2  0
 13 15  1  0
 13 12  1  0
 14 13  2  0
 16 15  1  0
 16 17  1  0
 18 17  1  0
 19 18  1  6
 20 19  1  0
 21 19  1  0
 21 22  2  0
 24 23  1  6
 24 25  1  0
 26 24  1  0
 27 28  1  0
 27 26  1  6
 28 21  1  0
 29 27  1  0
 30 29  2  0
 31 29  1  0
M  END
$$$$
