FRL.pdb
     RDKit          3D

 31 31  0  0  1  0  0  0  0  0999 V2000
    5.8135  -18.9643   25.9970 N   0  0  0  0  0  0  0  0  0  0  0  0
    6.2955  -17.6362   25.6993 C   0  0  1  0  0  0  0  0  0  0  0  0
    6.6235  -16.9524   27.0150 C   0  0  0  0  0  0  0  0  0  0  0  0
    6.9001  -15.5066   26.8475 C   0  0  0  0  0  0  0  0  0  0  0  0
    5.8358  -14.6786   26.4762 C   0  0  0  0  0  0  0  0  0  0  0  0
    6.0733  -13.3513   26.3214 C   0  0  0  0  0  0  0  0  0  0  0  0
    7.3367  -12.8491   26.5288 C   0  0  0  0  0  0  0  0  0  0  0  0
    8.3911  -13.6652   26.8960 C   0  0  0  0  0  0  0  0  0  0  0  0
    8.1683  -15.0355   27.0611 C   0  0  0  0  0  0  0  0  0  0  0  0
    7.5422  -17.6379   24.9050 C   0  0  0  0  0  0  0  0  0  0  0  0
    8.4164  -18.4840   25.2475 O   0  0  0  0  0  0  0  0  0  0  0  0
    8.0813  -11.7534   19.3698 N   0  0  0  0  0  0  0  0  0  0  0  0
    8.7613  -12.9520   19.0298 C   0  0  0  0  0  0  0  0  0  0  0  0
    9.7009  -12.9003   18.1558 N   0  0  0  0  0  0  0  0  0  0  0  0
    8.3881  -14.1581   19.6552 N   0  0  0  0  0  0  0  0  0  0  0  0
    7.3997  -14.2063   20.6989 C   0  0  0  0  0  0  0  0  0  0  0  0
    8.0016  -14.6648   22.0213 C   0  0  0  0  0  0  0  0  0  0  0  0
    8.7040  -15.9710   21.8268 C   0  0  0  0  0  0  0  0  0  0  0  0
    9.0134  -16.7213   23.1204 C   0  0  2  0  0  0  0  0  0  0  0  0
    7.7190  -16.7377   23.8317 N   0  0  0  0  0  0  0  0  0  0  0  0
    9.9654  -15.9546   23.9464 C   0  0  0  0  0  0  0  0  0  0  0  0
   10.5938  -15.0004   23.3855 O   0  0  0  0  0  0  0  0  0  0  0  0
   10.1134  -13.7791   17.7949 C   0  0  0  0  0  0  0  0  0  0  0  0
    9.8154  -13.6671   28.7122 C   0  0  1  0  0  0  0  0  0  0  0  0
   10.1134  -14.1464   27.3274 C   0  0  0  0  0  0  0  0  0  0  0  0
   10.2894  -12.9617   26.3781 C   0  0  0  0  0  0  0  0  0  0  0  0
   11.2822  -15.0796   27.2308 C   0  0  2  0  0  0  0  0  0  0  0  0
   11.4893  -15.7263   25.8998 N   0  0  0  0  0  0  0  0  0  0  0  0
   10.2488  -16.1722   25.2988 C   0  0  0  0  0  0  0  0  0  0  0  0
   12.5177  -16.7874   25.9186 O   0  0  0  0  0  0  0  0  0  0  0  0
   13.6922  -16.5386   26.2608 O   0  0  0  0  0  0  0  0  0  0  0  0
  2  1  1  1
  3  4  1  0
  3  2  1  0
  4  9  2  0
  5  6  2  0
  5  4  1  0
  6  7  1  0
  7  8  2  0
  9  8  1  0
 10  2  1  0
 10 20  1  0
 11 10  2  0
 13 15  1  0
 13 12  1  0
 14 13  2  0
 16 15  1  0
 16 17  1  0
 18 17  1  0
 19 18  1  6
 20 19  1  0
 21 19  1  0
 21 22  2  0
 24 23  1  6
 24 25  1  0
 26 24  1  0
 27 28  1  0
 27 26  1  6
 28 21  1  0
 29 27  1  0
 30 29  2  0
 31 29  1  0
M  END
$$$$
