FRL.pdb
     RDKit          3D

 31 31  0  0  1  0  0  0  0  0999 V2000
    5.9842  -18.6796   25.6969 N   0  0  0  0  0  0  0  0  0  0  0  0
    6.0865  -17.2788   25.3617 C   0  0  1  0  0  0  0  0  0  0  0  0
    6.2507  -16.4998   26.6549 C   0  0  0  0  0  0  0  0  0  0  0  0
    6.0973  -15.0394   26.4588 C   0  0  0  0  0  0  0  0  0  0  0  0
    7.1828  -14.2206   26.7868 C   0  0  0  0  0  0  0  0  0  0  0  0
    7.0580  -12.8807   26.6101 C   0  0  0  0  0  0  0  0  0  0  0  0
    5.8849  -12.3572   26.1190 C   0  0  0  0  0  0  0  0  0  0  0  0
    4.8099  -13.1641   25.7938 C   0  0  0  0  0  0  0  0  0  0  0  0
    4.9171  -14.5471   25.9680 C   0  0  0  0  0  0  0  0  0  0  0  0
    7.2691  -16.9678   24.5312 C   0  0  0  0  0  0  0  0  0  0  0  0
    8.2530  -17.7517   24.6521 O   0  0  0  0  0  0  0  0  0  0  0  0
    9.1208  -14.6630   17.3031 N   0  0  0  0  0  0  0  0  0  0  0  0
    9.8478  -13.6557   17.9896 C   0  0  0  0  0  0  0  0  0  0  0  0
   11.1268  -13.6336   17.8759 N   0  0  0  0  0  0  0  0  0  0  0  0
    9.1510  -12.7149   18.7733 N   0  0  0  0  0  0  0  0  0  0  0  0
    8.2526  -13.1088   19.8252 C   0  0  0  0  0  0  0  0  0  0  0  0
    8.8693  -14.1772   20.7194 C   0  0  0  0  0  0  0  0  0  0  0  0
    7.8765  -14.5983   21.7560 C   0  0  0  0  0  0  0  0  0  0  0  0
    8.3472  -15.7386   22.6560 C   0  0  2  0  0  0  0  0  0  0  0  0
    7.2719  -15.8552   23.6619 N   0  0  0  0  0  0  0  0  0  0  0  0
    9.5825  -15.3582   23.3672 C   0  0  0  0  0  0  0  0  0  0  0  0
    9.8516  -14.1172   23.4543 O   0  0  0  0  0  0  0  0  0  0  0  0
   11.6730  -12.9097   18.3763 C   0  0  0  0  0  0  0  0  0  0  0  0
   11.9079  -13.6359   27.3668 C   0  0  2  0  0  0  0  0  0  0  0  0
   11.0625  -14.8647   27.4745 C   0  0  0  0  0  0  0  0  0  0  0  0
   10.0558  -14.7224   28.6156 C   0  0  0  0  0  0  0  0  0  0  0  0
   10.3701  -15.2561   26.2042 C   0  0  1  0  0  0  0  0  0  0  0  0
   11.2377  -15.8687   25.1532 N   0  0  0  0  0  0  0  0  0  0  0  0
   10.4967  -16.2333   23.9630 C   0  0  0  0  0  0  0  0  0  0  0  0
   12.0723  -16.9790   25.6576 O   0  0  0  0  0  0  0  0  0  0  0  0
   12.9411  -16.7843   26.5327 O   0  0  0  0  0  0  0  0  0  0  0  0
  2  1  1  1
  3  4  1  0
  3  2  1  0
  4  9  2  0
  5  6  2  0
  5  4  1  0
  6  7  1  0
  7  8  2  0
  9  8  1  0
 10  2  1  0
 10 20  1  0
 11 10  2  0
 13 15  1  0
 13 12  1  0
 14 13  2  0
 16 15  1  0
 16 17  1  0
 18 17  1  0
 19 18  1  6
 20 19  1  0
 21 19  1  0
 21 22  2  0
 24 23  1  1
 24 25  1  0
 26 24  1  0
 27 28  1  0
 27 26  1  6
 28 21  1  0
 29 27  1  0
 30 29  2  0
 31 29  1  0
M  END
$$$$
