FRL.pdb
     RDKit          3D

 31 31  0  0  1  0  0  0  0  0999 V2000
    6.2540  -17.6147   19.7553 N   0  0  0  0  0  0  0  0  0  0  0  0
    7.0590  -16.5036   20.2048 C   0  0  1  0  0  0  0  0  0  0  0  0
    6.1331  -15.3256   20.4521 C   0  0  0  0  0  0  0  0  0  0  0  0
    6.8692  -14.0981   20.8347 C   0  0  0  0  0  0  0  0  0  0  0  0
    7.5474  -13.4047   19.8271 C   0  0  0  0  0  0  0  0  0  0  0  0
    8.2242  -12.2769   20.1620 C   0  0  0  0  0  0  0  0  0  0  0  0
    8.2324  -11.8403   21.4662 C   0  0  0  0  0  0  0  0  0  0  0  0
    7.5628  -12.5238   22.4646 C   0  0  0  0  0  0  0  0  0  0  0  0
    6.8592  -13.6878   22.1415 C   0  0  0  0  0  0  0  0  0  0  0  0
    7.7499  -16.7702   21.4842 C   0  0  0  0  0  0  0  0  0  0  0  0
    7.0584  -17.3310   22.3811 O   0  0  0  0  0  0  0  0  0  0  0  0
   16.3848  -17.5602   23.0291 N   0  0  0  0  0  0  0  0  0  0  0  0
   15.7691  -18.8273   23.2025 C   0  0  0  0  0  0  0  0  0  0  0  0
   16.4756  -19.7981   23.6580 N   0  0  0  0  0  0  0  0  0  0  0  0
   14.4088  -18.9845   22.8708 N   0  0  0  0  0  0  0  0  0  0  0  0
   13.6185  -17.9043   22.3442 C   0  0  0  0  0  0  0  0  0  0  0  0
   12.2942  -17.7648   23.0845 C   0  0  0  0  0  0  0  0  0  0  0  0
   11.3103  -17.0415   22.2207 C   0  0  0  0  0  0  0  0  0  0  0  0
    9.8757  -17.0609   22.7437 C   0  0  2  0  0  0  0  0  0  0  0  0
    9.1031  -16.4103   21.6659 N   0  0  0  0  0  0  0  0  0  0  0  0
    9.7544  -16.2188   23.9488 C   0  0  0  0  0  0  0  0  0  0  0  0
   10.4049  -15.1249   23.9688 O   0  0  0  0  0  0  0  0  0  0  0  0
   16.0288  -20.7140   23.8428 C   0  0  0  0  0  0  0  0  0  0  0  0
    5.7725  -13.9657   26.5605 C   0  0  2  0  0  0  0  0  0  0  0  0
    7.1950  -14.1988   26.1626 C   0  0  0  0  0  0  0  0  0  0  0  0
    7.9993  -12.9038   26.2711 C   0  0  0  0  0  0  0  0  0  0  0  0
    7.8750  -15.3076   26.9071 C   0  0  2  0  0  0  0  0  0  0  0  0
    9.1673  -15.7831   26.3270 N   0  0  0  0  0  0  0  0  0  0  0  0
    8.9872  -16.5037   25.0832 C   0  0  0  0  0  0  0  0  0  0  0  0
   10.0028  -16.5279   27.2919 O   0  0  0  0  0  0  0  0  0  0  0  0
   10.2548  -17.7391   27.1237 O   0  0  0  0  0  0  0  0  0  0  0  0
  2  1  1  1
  3  4  1  0
  3  2  1  0
  4  9  2  0
  5  6  2  0
  5  4  1  0
  6  7  1  0
  7  8  2  0
  9  8  1  0
 10  2  1  0
 10 20  1  0
 11 10  2  0
 13 15  1  0
 13 12  1  0
 14 13  2  0
 16 15  1  0
 16 17  1  0
 18 17  1  0
 19 18  1  6
 20 19  1  0
 21 19  1  0
 21 22  2  0
 24 23  1  6
 24 25  1  0
 26 24  1  0
 27 28  1  0
 27 26  1  6
 28 21  1  0
 29 27  1  0
 30 29  2  0
 31 29  1  0
M  END
$$$$
