FRL.pdb
     RDKit          3D

 31 31  0  0  1  0  0  0  0  0999 V2000
    6.2207  -17.8778   20.4317 N   0  0  0  0  0  0  0  0  0  0  0  0
    7.0765  -16.8048   20.8801 C   0  0  1  0  0  0  0  0  0  0  0  0
    6.2033  -15.5914   21.1475 C   0  0  0  0  0  0  0  0  0  0  0  0
    6.9533  -14.3188   21.0345 C   0  0  0  0  0  0  0  0  0  0  0  0
    7.1773  -13.5886   22.2063 C   0  0  0  0  0  0  0  0  0  0  0  0
    7.8652  -12.4219   22.1189 C   0  0  0  0  0  0  0  0  0  0  0  0
    8.3240  -11.9827   20.8990 C   0  0  0  0  0  0  0  0  0  0  0  0
    8.1042  -12.7024   19.7388 C   0  0  0  0  0  0  0  0  0  0  0  0
    7.3979  -13.9071   19.8062 C   0  0  0  0  0  0  0  0  0  0  0  0
    7.7705  -17.1103   22.1490 C   0  0  0  0  0  0  0  0  0  0  0  0
    7.0799  -17.6943   23.0317 O   0  0  0  0  0  0  0  0  0  0  0  0
   11.0422  -19.5742   19.4533 N   0  0  0  0  0  0  0  0  0  0  0  0
   11.9858  -20.5410   19.8887 C   0  0  0  0  0  0  0  0  0  0  0  0
   12.0151  -21.6818   19.2997 N   0  0  0  0  0  0  0  0  0  0  0  0
   12.8578  -20.2251   20.9493 N   0  0  0  0  0  0  0  0  0  0  0  0
   12.7266  -19.0144   21.7146 C   0  0  0  0  0  0  0  0  0  0  0  0
   11.2938  -18.8013   22.1869 C   0  0  0  0  0  0  0  0  0  0  0  0
   11.2250  -17.5778   23.0447 C   0  0  0  0  0  0  0  0  0  0  0  0
    9.8241  -17.2363   23.5477 C   0  0  2  0  0  0  0  0  0  0  0  0
    9.1255  -16.7603   22.3365 N   0  0  0  0  0  0  0  0  0  0  0  0
    9.8782  -16.1118   24.5011 C   0  0  0  0  0  0  0  0  0  0  0  0
   10.8775  -15.3269   24.4274 O   0  0  0  0  0  0  0  0  0  0  0  0
   12.7460  -22.3704   19.5532 C   0  0  0  0  0  0  0  0  0  0  0  0
    6.0277  -12.8930   26.2790 C   0  0  1  0  0  0  0  0  0  0  0  0
    7.3984  -13.3793   25.9316 C   0  0  0  0  0  0  0  0  0  0  0  0
    8.2622  -12.2254   25.4236 C   0  0  0  0  0  0  0  0  0  0  0  0
    8.0953  -14.1151   27.0358 C   0  0  2  0  0  0  0  0  0  0  0  0
    9.2468  -14.9718   26.6205 N   0  0  0  0  0  0  0  0  0  0  0  0
    8.9310  -15.8175   25.4874 C   0  0  0  0  0  0  0  0  0  0  0  0
    9.8445  -15.7309   27.7387 O   0  0  0  0  0  0  0  0  0  0  0  0
   10.3017  -15.1450   28.7419 O   0  0  0  0  0  0  0  0  0  0  0  0
  2  1  1  1
  3  4  1  0
  3  2  1  0
  4  9  2  0
  5  6  2  0
  5  4  1  0
  6  7  1  0
  7  8  2  0
  9  8  1  0
 10  2  1  0
 10 20  1  0
 11 10  2  0
 13 15  1  0
 13 12  1  0
 14 13  2  0
 16 15  1  0
 16 17  1  0
 18 17  1  0
 19 18  1  6
 20 19  1  0
 21 19  1  0
 21 22  2  0
 24 23  1  6
 24 25  1  0
 26 24  1  0
 27 28  1  0
 27 26  1  6
 28 21  1  0
 29 27  1  0
 30 29  2  0
 31 29  1  0
M  END
$$$$
