FRL.pdb
     RDKit          3D

 31 31  0  0  1  0  0  0  0  0999 V2000
    6.8607  -17.2993   20.2011 N   0  0  0  0  0  0  0  0  0  0  0  0
    7.7901  -16.5483   21.0117 C   0  0  1  0  0  0  0  0  0  0  0  0
    7.1736  -15.1888   21.2910 C   0  0  0  0  0  0  0  0  0  0  0  0
    7.6287  -14.1539   20.3335 C   0  0  0  0  0  0  0  0  0  0  0  0
    6.7045  -13.1816   19.9375 C   0  0  0  0  0  0  0  0  0  0  0  0
    7.1076  -12.2255   19.0626 C   0  0  0  0  0  0  0  0  0  0  0  0
    8.3979  -12.2274   18.5866 C   0  0  0  0  0  0  0  0  0  0  0  0
    9.3139  -13.1874   18.9763 C   0  0  0  0  0  0  0  0  0  0  0  0
    8.9197  -14.1814   19.8768 C   0  0  0  0  0  0  0  0  0  0  0  0
    8.0449  -17.1719   22.3275 C   0  0  0  0  0  0  0  0  0  0  0  0
    7.0455  -17.6986   22.8941 O   0  0  0  0  0  0  0  0  0  0  0  0
   14.4596  -22.1744   24.0789 N   0  0  0  0  0  0  0  0  0  0  0  0
   13.0880  -22.5338   24.0144 C   0  0  0  0  0  0  0  0  0  0  0  0
   12.7773  -23.7020   23.5807 N   0  0  0  0  0  0  0  0  0  0  0  0
   12.1114  -21.6045   24.4237 N   0  0  0  0  0  0  0  0  0  0  0  0
   12.4516  -20.2761   24.8576 C   0  0  0  0  0  0  0  0  0  0  0  0
   11.2097  -19.4596   25.1927 C   0  0  0  0  0  0  0  0  0  0  0  0
   10.7931  -18.6654   23.9956 C   0  0  0  0  0  0  0  0  0  0  0  0
    9.5449  -17.8114   24.2065 C   0  0  2  0  0  0  0  0  0  0  0  0
    9.3382  -17.1663   22.8939 N   0  0  0  0  0  0  0  0  0  0  0  0
    9.8100  -16.7442   25.1900 C   0  0  0  0  0  0  0  0  0  0  0  0
   10.8005  -15.9758   24.9702 O   0  0  0  0  0  0  0  0  0  0  0  0
   11.7815  -23.9835   23.5361 C   0  0  0  0  0  0  0  0  0  0  0  0
    7.0580  -12.5616   26.5157 C   0  0  1  0  0  0  0  0  0  0  0  0
    8.1819  -13.5297   26.3264 C   0  0  0  0  0  0  0  0  0  0  0  0
    9.4585  -12.7938   25.9209 C   0  0  0  0  0  0  0  0  0  0  0  0
    8.4374  -14.4232   27.5023 C   0  0  2  0  0  0  0  0  0  0  0  0
    9.4794  -15.4756   27.3046 N   0  0  0  0  0  0  0  0  0  0  0  0
    9.0737  -16.4884   26.3515 C   0  0  0  0  0  0  0  0  0  0  0  0
    9.9686  -16.0597   28.5709 O   0  0  0  0  0  0  0  0  0  0  0  0
    9.6274  -17.2076   28.9237 O   0  0  0  0  0  0  0  0  0  0  0  0
  2  1  1  6
  3  4  1  0
  3  2  1  0
  4  9  2  0
  5  6  2  0
  5  4  1  0
  6  7  1  0
  7  8  2  0
  9  8  1  0
 10  2  1  0
 10 20  1  0
 11 10  2  0
 13 15  1  0
 13 12  1  0
 14 13  2  0
 16 15  1  0
 16 17  1  0
 18 17  1  0
 19 18  1  6
 20 19  1  0
 21 19  1  0
 21 22  2  0
 24 23  1  6
 24 25  1  0
 26 24  1  0
 27 28  1  0
 27 26  1  6
 28 21  1  0
 29 27  1  0
 30 29  2  0
 31 29  1  0
M  END
$$$$
