DWA.pdb
     RDKit          3D

 28 29  0  0  1  0  0  0  0  0999 V2000
   28.4605  -37.6009   -9.4181 N   0  0  0  0  0  0  0  0  0  0  0  0
   27.3594  -37.5742   -8.4997 C   0  0  1  0  0  0  0  0  0  0  0  0
   27.5408  -38.7474   -7.5556 C   0  0  0  0  0  0  0  0  0  0  0  0
   26.3294  -39.5691   -7.5495 C   0  0  0  0  0  0  0  0  0  0  0  0
   25.3932  -39.2737   -8.3363 O   0  0  0  0  0  0  0  0  0  0  0  0
   27.3019  -36.2945   -7.7329 C   0  0  0  0  0  0  0  0  0  0  0  0
   28.3495  -35.6149   -7.5650 O   0  0  0  0  0  0  0  0  0  0  0  0
   26.1403  -40.6673   -6.7233 O   0  0  0  0  0  0  0  0  0  0  0  0
   26.1047  -35.7816   -7.1651 N   0  0  0  0  0  0  0  0  0  0  0  0
   26.0813  -34.5174   -6.3919 C   0  0  1  0  0  0  0  0  0  0  0  0
   24.9081  -33.6969   -6.8415 C   0  0  0  0  0  0  0  0  0  0  0  0
   25.0371  -33.1671   -8.2117 C   0  0  0  0  0  0  0  0  0  0  0  0
   26.1420  -33.3728   -9.0560 C   0  0  0  0  0  0  0  0  0  0  0  0
   25.9480  -32.7255  -10.2136 N   0  0  0  0  0  0  0  0  0  0  0  0
   24.7578  -32.0868  -10.1975 C   0  0  0  0  0  0  0  0  0  0  0  0
   24.1224  -31.3162  -11.1494 C   0  0  0  0  0  0  0  0  0  0  0  0
   22.8796  -30.8133  -10.8297 C   0  0  0  0  0  0  0  0  0  0  0  0
   22.2944  -31.0750   -9.5963 C   0  0  0  0  0  0  0  0  0  0  0  0
   22.9458  -31.8434   -8.6654 C   0  0  0  0  0  0  0  0  0  0  0  0
   24.1950  -32.3598   -8.9609 C   0  0  0  0  0  0  0  0  0  0  0  0
   26.2393  -34.7553   -4.9710 C   0  0  0  0  0  0  0  0  0  0  0  0
   25.4007  -35.3279   -4.2402 O   0  0  0  0  0  0  0  0  0  0  0  0
   28.9749  -33.9984   -2.4901 C   0  0  0  0  0  0  0  0  0  0  0  0
   27.5917  -34.4771   -2.8476 C   0  0  2  0  0  0  0  0  0  0  0  0
   27.4348  -34.3222   -4.2848 N   0  0  0  0  0  0  0  0  0  0  0  0
   26.5320  -33.6964   -2.1654 C   0  0  0  0  0  0  0  0  0  0  0  0
   25.9072  -32.7985   -2.7866 O   0  0  0  0  0  0  0  0  0  0  0  0
   26.1883  -33.9163   -0.8368 O   0  0  0  0  0  0  0  0  0  0  0  0
  2  1  1  6
  2  6  1  0
  2  3  1  0
  3  4  1  0
  4  5  2  0
  4  8  1  0
  6  7  2  0
  9 10  1  0
  9  6  1  0
 10 11  1  1
 12 11  1  0
 13 12  2  0
 14 13  1  0
 15 14  1  0
 15 20  2  0
 16 15  1  0
 17 16  2  0
 17 18  1  0
 18 19  2  0
 19 20  1  0
 20 12  1  0
 21 22  2  0
 21 10  1  0
 24 23  1  1
 24 26  1  0
 24 25  1  0
 25 21  1  0
 26 28  1  0
 27 26  2  0
M  END
$$$$
