DWA.pdb
     RDKit          3D

 28 29  0  0  1  0  0  0  0  0999 V2000
   27.8126  -20.0385  -15.4553 N   0  0  0  0  0  0  0  0  0  0  0  0
   27.2897  -21.3738  -15.4549 C   0  0  1  0  0  0  0  0  0  0  0  0
   28.4787  -22.3156  -15.4446 C   0  0  0  0  0  0  0  0  0  0  0  0
   29.1917  -22.2258  -16.7199 C   0  0  0  0  0  0  0  0  0  0  0  0
   28.6097  -21.6996  -17.7033 O   0  0  0  0  0  0  0  0  0  0  0  0
   26.4133  -21.6308  -14.2738 C   0  0  0  0  0  0  0  0  0  0  0  0
   26.0227  -22.8023  -14.0241 O   0  0  0  0  0  0  0  0  0  0  0  0
   30.4840  -22.6881  -16.9211 O   0  0  0  0  0  0  0  0  0  0  0  0
   25.9809  -20.6064  -13.3893 N   0  0  0  0  0  0  0  0  0  0  0  0
   25.0580  -20.8801  -12.2624 C   0  0  1  0  0  0  0  0  0  0  0  0
   25.4988  -20.0814  -11.0710 C   0  0  0  0  0  0  0  0  0  0  0  0
   26.7977  -20.5029  -10.5141 C   0  0  0  0  0  0  0  0  0  0  0  0
   27.8062  -21.1684  -11.2323 C   0  0  0  0  0  0  0  0  0  0  0  0
   28.8368  -21.4330  -10.4172 N   0  0  0  0  0  0  0  0  0  0  0  0
   28.5768  -20.9763   -9.1728 C   0  0  0  0  0  0  0  0  0  0  0  0
   29.3288  -20.9996   -8.0162 C   0  0  0  0  0  0  0  0  0  0  0  0
   28.7799  -20.4194   -6.8929 C   0  0  0  0  0  0  0  0  0  0  0  0
   27.5189  -19.8355   -6.9293 C   0  0  0  0  0  0  0  0  0  0  0  0
   26.7895  -19.8250   -8.0909 C   0  0  0  0  0  0  0  0  0  0  0  0
   27.3173  -20.4015   -9.2327 C   0  0  0  0  0  0  0  0  0  0  0  0
   23.6707  -20.7826  -12.6701 C   0  0  0  0  0  0  0  0  0  0  0  0
   23.1202  -19.7467  -13.1050 O   0  0  0  0  0  0  0  0  0  0  0  0
   20.9778  -23.3039  -13.2961 C   0  0  0  0  0  0  0  0  0  0  0  0
   21.4223  -21.8857  -13.0482 C   0  0  2  0  0  0  0  0  0  0  0  0
   22.8022  -21.9348  -12.5929 N   0  0  0  0  0  0  0  0  0  0  0  0
   20.6024  -21.2114  -12.0135 C   0  0  0  0  0  0  0  0  0  0  0  0
   21.0516  -21.0603  -10.8483 O   0  0  0  0  0  0  0  0  0  0  0  0
   19.3271  -20.7262  -12.2782 O   0  0  0  0  0  0  0  0  0  0  0  0
  2  1  1  1
  2  6  1  0
  2  3  1  0
  3  4  1  0
  4  5  2  0
  4  8  1  0
  6  7  2  0
  9 10  1  0
  9  6  1  0
 10 11  1  1
 12 11  1  0
 13 12  2  0
 14 13  1  0
 15 14  1  0
 15 20  2  0
 16 15  1  0
 17 16  2  0
 17 18  1  0
 18 19  2  0
 19 20  1  0
 20 12  1  0
 21 22  2  0
 21 10  1  0
 24 23  1  1
 24 26  1  0
 24 25  1  0
 25 21  1  0
 26 28  1  0
 27 26  2  0
M  END
$$$$
