DWA.pdb
     RDKit          3D

 28 29  0  0  1  0  0  0  0  0999 V2000
   28.0183  -21.6134  -13.2234 N   0  0  0  0  0  0  0  0  0  0  0  0
   26.8050  -20.8842  -12.9943 C   0  0  1  0  0  0  0  0  0  0  0  0
   25.8433  -21.2640  -14.1042 C   0  0  0  0  0  0  0  0  0  0  0  0
   26.3737  -20.8160  -15.3928 C   0  0  0  0  0  0  0  0  0  0  0  0
   26.4426  -21.6417  -16.3395 O   0  0  0  0  0  0  0  0  0  0  0  0
   26.2088  -21.1954  -11.6614 C   0  0  0  0  0  0  0  0  0  0  0  0
   25.9335  -22.3871  -11.3588 O   0  0  0  0  0  0  0  0  0  0  0  0
   26.8121  -19.5242  -15.6452 O   0  0  0  0  0  0  0  0  0  0  0  0
   25.9252  -20.2023  -10.6858 N   0  0  0  0  0  0  0  0  0  0  0  0
   25.3102  -20.5378   -9.3797 C   0  0  1  0  0  0  0  0  0  0  0  0
   25.8694  -19.6208   -8.3317 C   0  0  0  0  0  0  0  0  0  0  0  0
   27.1787  -20.0442   -7.8015 C   0  0  0  0  0  0  0  0  0  0  0  0
   28.0842  -20.8887   -8.4669 C   0  0  0  0  0  0  0  0  0  0  0  0
   29.1567  -21.0966   -7.6902 N   0  0  0  0  0  0  0  0  0  0  0  0
   29.0239  -20.4299   -6.5229 C   0  0  0  0  0  0  0  0  0  0  0  0
   29.8610  -20.3254   -5.4310 C   0  0  0  0  0  0  0  0  0  0  0  0
   29.4390  -19.5349   -4.3837 C   0  0  0  0  0  0  0  0  0  0  0  0
   28.2182  -18.8717   -4.4309 C   0  0  0  0  0  0  0  0  0  0  0  0
   27.4024  -18.9915   -5.5270 C   0  0  0  0  0  0  0  0  0  0  0  0
   27.8021  -19.7796   -6.5918 C   0  0  0  0  0  0  0  0  0  0  0  0
   23.8693  -20.6559   -9.4802 C   0  0  0  0  0  0  0  0  0  0  0  0
   23.1493  -20.0153  -10.2780 O   0  0  0  0  0  0  0  0  0  0  0  0
   21.3129  -22.8343   -7.7705 C   0  0  0  0  0  0  0  0  0  0  0  0
   21.7062  -21.7303   -8.7174 C   0  0  2  0  0  0  0  0  0  0  0  0
   23.1476  -21.5662   -8.6211 N   0  0  0  0  0  0  0  0  0  0  0  0
   21.0560  -20.4413   -8.3806 C   0  0  0  0  0  0  0  0  0  0  0  0
   21.7055  -19.5388   -7.7921 O   0  0  0  0  0  0  0  0  0  0  0  0
   19.7276  -20.1772   -8.6926 O   0  0  0  0  0  0  0  0  0  0  0  0
  2  1  1  6
  2  6  1  0
  2  3  1  0
  3  4  1  0
  4  5  2  0
  4  8  1  0
  6  7  2  0
  9 10  1  0
  9  6  1  0
 10 11  1  1
 12 11  1  0
 13 12  2  0
 14 13  1  0
 15 14  1  0
 15 20  2  0
 16 15  1  0
 17 16  2  0
 17 18  1  0
 18 19  2  0
 19 20  1  0
 20 12  1  0
 21 22  2  0
 21 10  1  0
 24 23  1  1
 24 26  1  0
 24 25  1  0
 25 21  1  0
 26 28  1  0
 27 26  2  0
M  END
$$$$
