DWA.pdb
     RDKit          3D

 28 29  0  0  1  0  0  0  0  0999 V2000
   29.2580  -21.1167  -13.0591 N   0  0  0  0  0  0  0  0  0  0  0  0
   27.9947  -20.6564  -13.5578 C   0  0  1  0  0  0  0  0  0  0  0  0
   27.7851  -21.3139  -14.9086 C   0  0  0  0  0  0  0  0  0  0  0  0
   28.8957  -20.9764  -15.8004 C   0  0  0  0  0  0  0  0  0  0  0  0
   28.6838  -20.1931  -16.7619 O   0  0  0  0  0  0  0  0  0  0  0  0
   26.8717  -20.9966  -12.6346 C   0  0  0  0  0  0  0  0  0  0  0  0
   25.7015  -21.1163  -13.0859 O   0  0  0  0  0  0  0  0  0  0  0  0
   30.1846  -21.4684  -15.6559 O   0  0  0  0  0  0  0  0  0  0  0  0
   27.0469  -21.1995  -11.2394 N   0  0  0  0  0  0  0  0  0  0  0  0
   25.9177  -21.5639  -10.3512 C   0  0  1  0  0  0  0  0  0  0  0  0
   26.4610  -21.9168   -8.9977 C   0  0  0  0  0  0  0  0  0  0  0  0
   26.8347  -20.7488   -8.1787 C   0  0  0  0  0  0  0  0  0  0  0  0
   26.4989  -19.4159   -8.4728 C   0  0  0  0  0  0  0  0  0  0  0  0
   27.0240  -18.6057   -7.5431 N   0  0  0  0  0  0  0  0  0  0  0  0
   27.7037  -19.3273   -6.6254 C   0  0  0  0  0  0  0  0  0  0  0  0
   28.3897  -18.9466   -5.4904 C   0  0  0  0  0  0  0  0  0  0  0  0
   28.9694  -19.9446   -4.7369 C   0  0  0  0  0  0  0  0  0  0  0  0
   28.8639  -21.2795   -5.1099 C   0  0  0  0  0  0  0  0  0  0  0  0
   28.1772  -21.6338   -6.2432 C   0  0  0  0  0  0  0  0  0  0  0  0
   27.5866  -20.6512   -7.0179 C   0  0  0  0  0  0  0  0  0  0  0  0
   24.8458  -20.5909  -10.4204 C   0  0  0  0  0  0  0  0  0  0  0  0
   25.0031  -19.3531  -10.5118 O   0  0  0  0  0  0  0  0  0  0  0  0
   22.4850  -20.2201  -12.4104 C   0  0  0  0  0  0  0  0  0  0  0  0
   22.3933  -20.1862  -10.9069 C   0  0  2  0  0  0  0  0  0  0  0  0
   23.4659  -21.0181  -10.3860 N   0  0  0  0  0  0  0  0  0  0  0  0
   21.0988  -20.7106  -10.4099 C   0  0  0  0  0  0  0  0  0  0  0  0
   20.9719  -21.9328  -10.1402 O   0  0  0  0  0  0  0  0  0  0  0  0
   19.9903  -19.8932  -10.2235 O   0  0  0  0  0  0  0  0  0  0  0  0
  2  1  1  1
  2  6  1  0
  2  3  1  0
  3  4  1  0
  4  5  2  0
  4  8  1  0
  6  7  2  0
  9 10  1  0
  9  6  1  0
 10 11  1  1
 12 11  1  0
 13 12  2  0
 14 13  1  0
 15 14  1  0
 15 20  2  0
 16 15  1  0
 17 16  2  0
 17 18  1  0
 18 19  2  0
 19 20  1  0
 20 12  1  0
 21 22  2  0
 21 10  1  0
 24 23  1  6
 24 26  1  0
 24 25  1  0
 25 21  1  0
 26 28  1  0
 27 26  2  0
M  END
$$$$
