DWA.pdb
     RDKit          3D

 28 29  0  0  1  0  0  0  0  0999 V2000
   28.4564  -20.7782  -16.0919 N   0  0  0  0  0  0  0  0  0  0  0  0
   28.0068  -20.1767  -14.8703 C   0  0  1  0  0  0  0  0  0  0  0  0
   27.6901  -18.7261  -15.1806 C   0  0  0  0  0  0  0  0  0  0  0  0
   28.8225  -18.1103  -15.8741 C   0  0  0  0  0  0  0  0  0  0  0  0
   28.5982  -17.1874  -16.6993 O   0  0  0  0  0  0  0  0  0  0  0  0
   26.8022  -20.8648  -14.3185 C   0  0  0  0  0  0  0  0  0  0  0  0
   25.9305  -21.3293  -15.1006 O   0  0  0  0  0  0  0  0  0  0  0  0
   30.1456  -18.4801  -15.6811 O   0  0  0  0  0  0  0  0  0  0  0  0
   26.5723  -21.0327  -12.9265 N   0  0  0  0  0  0  0  0  0  0  0  0
   25.3198  -21.6283  -12.4039 C   0  0  1  0  0  0  0  0  0  0  0  0
   25.6081  -22.2797  -11.0832 C   0  0  0  0  0  0  0  0  0  0  0  0
   26.2194  -21.3769  -10.0903 C   0  0  0  0  0  0  0  0  0  0  0  0
   25.5096  -20.5000   -9.2518 C   0  0  0  0  0  0  0  0  0  0  0  0
   26.3723  -19.8034   -8.4987 N   0  0  0  0  0  0  0  0  0  0  0  0
   27.6413  -20.1669   -8.7855 C   0  0  0  0  0  0  0  0  0  0  0  0
   28.8499  -19.7487   -8.2675 C   0  0  0  0  0  0  0  0  0  0  0  0
   29.9906  -20.3404   -8.7661 C   0  0  0  0  0  0  0  0  0  0  0  0
   29.9205  -21.3187   -9.7511 C   0  0  0  0  0  0  0  0  0  0  0  0
   28.7073  -21.7178  -10.2513 C   0  0  0  0  0  0  0  0  0  0  0  0
   27.5468  -21.1391   -9.7685 C   0  0  0  0  0  0  0  0  0  0  0  0
   24.2127  -20.6957  -12.4741 C   0  0  0  0  0  0  0  0  0  0  0  0
   24.2463  -19.5089  -12.0797 O   0  0  0  0  0  0  0  0  0  0  0  0
   21.3392  -20.1358  -14.5085 C   0  0  0  0  0  0  0  0  0  0  0  0
   21.8013  -20.2081  -13.0762 C   0  0  2  0  0  0  0  0  0  0  0  0
   22.9444  -21.1055  -13.0319 N   0  0  0  0  0  0  0  0  0  0  0  0
   20.7499  -20.7302  -12.1710 C   0  0  0  0  0  0  0  0  0  0  0  0
   20.8181  -21.9074  -11.7331 O   0  0  0  0  0  0  0  0  0  0  0  0
   19.6638  -19.9590  -11.7738 O   0  0  0  0  0  0  0  0  0  0  0  0
  2  1  1  6
  2  6  1  0
  2  3  1  0
  3  4  1  0
  4  5  2  0
  4  8  1  0
  6  7  2  0
  9 10  1  0
  9  6  1  0
 10 11  1  1
 12 11  1  0
 13 12  2  0
 14 13  1  0
 15 14  1  0
 15 20  2  0
 16 15  1  0
 17 16  2  0
 17 18  1  0
 18 19  2  0
 19 20  1  0
 20 12  1  0
 21 22  2  0
 21 10  1  0
 24 23  1  6
 24 26  1  0
 24 25  1  0
 25 21  1  0
 26 28  1  0
 27 26  2  0
M  END
$$$$
