DWA.pdb
     RDKit          3D

 28 29  0  0  1  0  0  0  0  0999 V2000
   28.4296  -20.1292  -15.0010 N   0  0  0  0  0  0  0  0  0  0  0  0
   27.6047  -21.2785  -15.2359 C   0  0  1  0  0  0  0  0  0  0  0  0
   28.5343  -22.4665  -15.3945 C   0  0  0  0  0  0  0  0  0  0  0  0
   29.3318  -22.3113  -16.6121 C   0  0  0  0  0  0  0  0  0  0  0  0
   29.1200  -21.3161  -17.3521 O   0  0  0  0  0  0  0  0  0  0  0  0
   26.6448  -21.5157  -14.1173 C   0  0  0  0  0  0  0  0  0  0  0  0
   26.0450  -22.6201  -14.0274 O   0  0  0  0  0  0  0  0  0  0  0  0
   30.3196  -23.1995  -17.0118 O   0  0  0  0  0  0  0  0  0  0  0  0
   26.3584  -20.5452  -13.1199 N   0  0  0  0  0  0  0  0  0  0  0  0
   25.3331  -20.7732  -12.0741 C   0  0  1  0  0  0  0  0  0  0  0  0
   25.7167  -20.0036  -10.8444 C   0  0  0  0  0  0  0  0  0  0  0  0
   26.9504  -20.4858  -10.1960 C   0  0  0  0  0  0  0  0  0  0  0  0
   27.9666  -21.2157  -10.8364 C   0  0  0  0  0  0  0  0  0  0  0  0
   28.9243  -21.5229   -9.9504 N   0  0  0  0  0  0  0  0  0  0  0  0
   28.6070  -21.0336   -8.7318 C   0  0  0  0  0  0  0  0  0  0  0  0
   29.2775  -21.0796   -7.5268 C   0  0  0  0  0  0  0  0  0  0  0  0
   28.6872  -20.4534   -6.4501 C   0  0  0  0  0  0  0  0  0  0  0  0
   27.4655  -19.8030   -6.5787 C   0  0  0  0  0  0  0  0  0  0  0  0
   26.8172  -19.7711   -7.7870 C   0  0  0  0  0  0  0  0  0  0  0  0
   27.3877  -20.3927   -8.8837 C   0  0  0  0  0  0  0  0  0  0  0  0
   23.9909  -20.6002  -12.5927 C   0  0  0  0  0  0  0  0  0  0  0  0
   23.5252  -19.5281  -13.0388 O   0  0  0  0  0  0  0  0  0  0  0  0
   21.2792  -22.9582  -13.5952 C   0  0  0  0  0  0  0  0  0  0  0  0
   21.7309  -21.5827  -13.1777 C   0  0  2  0  0  0  0  0  0  0  0  0
   23.0695  -21.7126  -12.6250 N   0  0  0  0  0  0  0  0  0  0  0  0
   20.8457  -20.9877  -12.1481 C   0  0  0  0  0  0  0  0  0  0  0  0
   21.1838  -21.0025  -10.9366 O   0  0  0  0  0  0  0  0  0  0  0  0
   19.6277  -20.3995  -12.4680 O   0  0  0  0  0  0  0  0  0  0  0  0
  2  1  1  1
  2  6  1  0
  2  3  1  0
  3  4  1  0
  4  5  2  0
  4  8  1  0
  6  7  2  0
  9 10  1  0
  9  6  1  0
 10 11  1  1
 12 11  1  0
 13 12  2  0
 14 13  1  0
 15 14  1  0
 15 20  2  0
 16 15  1  0
 17 16  2  0
 17 18  1  0
 18 19  2  0
 19 20  1  0
 20 12  1  0
 21 22  2  0
 21 10  1  0
 24 23  1  1
 24 26  1  0
 24 25  1  0
 25 21  1  0
 26 28  1  0
 27 26  2  0
M  END
$$$$
