DWA.pdb
     RDKit          3D

 28 29  0  0  1  0  0  0  0  0999 V2000
   29.2172  -21.6505  -18.0725 N   0  0  0  0  0  0  0  0  0  0  0  0
   28.7499  -22.3122  -16.8892 C   0  0  1  0  0  0  0  0  0  0  0  0
   29.9648  -22.9124  -16.2077 C   0  0  0  0  0  0  0  0  0  0  0  0
   30.4006  -24.1056  -16.9351 C   0  0  0  0  0  0  0  0  0  0  0  0
   29.8228  -24.4029  -18.0124 O   0  0  0  0  0  0  0  0  0  0  0  0
   28.0465  -21.3741  -15.9649 C   0  0  0  0  0  0  0  0  0  0  0  0
   28.6796  -20.4239  -15.4323 O   0  0  0  0  0  0  0  0  0  0  0  0
   31.4219  -24.9434  -16.5115 O   0  0  0  0  0  0  0  0  0  0  0  0
   26.6682  -21.4905  -15.6403 N   0  0  0  0  0  0  0  0  0  0  0  0
   25.9766  -20.4975  -14.7844 C   0  0  1  0  0  0  0  0  0  0  0  0
   25.0704  -19.6657  -15.6438 C   0  0  0  0  0  0  0  0  0  0  0  0
   25.7710  -18.6334  -16.4302 C   0  0  0  0  0  0  0  0  0  0  0  0
   26.0670  -18.7257  -17.8013 C   0  0  0  0  0  0  0  0  0  0  0  0
   26.7384  -17.6324  -18.1893 N   0  0  0  0  0  0  0  0  0  0  0  0
   26.9135  -16.7963  -17.1429 C   0  0  0  0  0  0  0  0  0  0  0  0
   27.5206  -15.5605  -17.0535 C   0  0  0  0  0  0  0  0  0  0  0  0
   27.5151  -14.9405  -15.8225 C   0  0  0  0  0  0  0  0  0  0  0  0
   26.9203  -15.5405  -14.7187 C   0  0  0  0  0  0  0  0  0  0  0  0
   26.3233  -16.7703  -14.8318 C   0  0  0  0  0  0  0  0  0  0  0  0
   26.3157  -17.4146  -16.0563 C   0  0  0  0  0  0  0  0  0  0  0  0
   25.4134  -21.1117  -13.5987 C   0  0  0  0  0  0  0  0  0  0  0  0
   24.6594  -22.1100  -13.5952 O   0  0  0  0  0  0  0  0  0  0  0  0
   25.7267  -20.4462   -9.9051 C   0  0  0  0  0  0  0  0  0  0  0  0
   25.0496  -21.0804  -11.0924 C   0  0  2  0  0  0  0  0  0  0  0  0
   25.7063  -20.5781  -12.2883 N   0  0  0  0  0  0  0  0  0  0  0  0
   23.6074  -20.7449  -11.1636 C   0  0  0  0  0  0  0  0  0  0  0  0
   23.2075  -19.8263  -11.9243 O   0  0  0  0  0  0  0  0  0  0  0  0
   22.6521  -21.4156  -10.4090 O   0  0  0  0  0  0  0  0  0  0  0  0
  2  1  1  6
  2  6  1  0
  2  3  1  0
  3  4  1  0
  4  5  2  0
  4  8  1  0
  6  7  2  0
  9 10  1  0
  9  6  1  0
 10 11  1  6
 12 11  1  0
 13 12  2  0
 14 13  1  0
 15 14  1  0
 15 20  2  0
 16 15  1  0
 17 16  2  0
 17 18  1  0
 18 19  2  0
 19 20  1  0
 20 12  1  0
 21 22  2  0
 21 10  1  0
 24 23  1  1
 24 26  1  0
 24 25  1  0
 25 21  1  0
 26 28  1  0
 27 26  2  0
M  END
$$$$
