DWA.pdb
     RDKit          3D

 28 29  0  0  1  0  0  0  0  0999 V2000
   27.9790  -19.7832  -15.0106 N   0  0  0  0  0  0  0  0  0  0  0  0
   27.2653  -20.9854  -15.3297 C   0  0  1  0  0  0  0  0  0  0  0  0
   28.3025  -22.0449  -15.6500 C   0  0  0  0  0  0  0  0  0  0  0  0
   29.0048  -21.6919  -16.8849 C   0  0  0  0  0  0  0  0  0  0  0  0
   28.6291  -20.6770  -17.5264 O   0  0  0  0  0  0  0  0  0  0  0  0
   26.3949  -21.4346  -14.2029 C   0  0  0  0  0  0  0  0  0  0  0  0
   26.0317  -22.6388  -14.1308 O   0  0  0  0  0  0  0  0  0  0  0  0
   30.0719  -22.4105  -17.4038 O   0  0  0  0  0  0  0  0  0  0  0  0
   25.9385  -20.5627  -13.1781 N   0  0  0  0  0  0  0  0  0  0  0  0
   24.9751  -21.0051  -12.1423 C   0  0  1  0  0  0  0  0  0  0  0  0
   25.3238  -20.3417  -10.8423 C   0  0  0  0  0  0  0  0  0  0  0  0
   26.6207  -20.7649  -10.2821 C   0  0  0  0  0  0  0  0  0  0  0  0
   27.5687  -21.5580  -10.9514 C   0  0  0  0  0  0  0  0  0  0  0  0
   28.6149  -21.7828  -10.1442 N   0  0  0  0  0  0  0  0  0  0  0  0
   28.4234  -21.1769   -8.9522 C   0  0  0  0  0  0  0  0  0  0  0  0
   29.2156  -21.1097   -7.8246 C   0  0  0  0  0  0  0  0  0  0  0  0
   28.7372  -20.3798   -6.7578 C   0  0  0  0  0  0  0  0  0  0  0  0
   27.5052  -19.7390   -6.8207 C   0  0  0  0  0  0  0  0  0  0  0  0
   26.7347  -19.8208   -7.9525 C   0  0  0  0  0  0  0  0  0  0  0  0
   27.1915  -20.5479   -9.0375 C   0  0  0  0  0  0  0  0  0  0  0  0
   23.6060  -20.9097  -12.6080 C   0  0  0  0  0  0  0  0  0  0  0  0
   23.0267  -19.8471  -12.9246 O   0  0  0  0  0  0  0  0  0  0  0  0
   21.0364  -23.4791  -13.5765 C   0  0  0  0  0  0  0  0  0  0  0  0
   21.4678  -22.0557  -13.3359 C   0  0  2  0  0  0  0  0  0  0  0  0
   22.7929  -22.0969  -12.7390 N   0  0  0  0  0  0  0  0  0  0  0  0
   20.5529  -21.3378  -12.4166 C   0  0  0  0  0  0  0  0  0  0  0  0
   19.6003  -20.6561  -12.8752 O   0  0  0  0  0  0  0  0  0  0  0  0
   20.7030  -21.3841  -11.0355 O   0  0  0  0  0  0  0  0  0  0  0  0
  2  1  1  1
  2  6  1  0
  2  3  1  0
  3  4  1  0
  4  5  2  0
  4  8  1  0
  6  7  2  0
  9 10  1  0
  9  6  1  0
 10 11  1  1
 12 11  1  0
 13 12  2  0
 14 13  1  0
 15 14  1  0
 15 20  2  0
 16 15  1  0
 17 16  2  0
 17 18  1  0
 18 19  2  0
 19 20  1  0
 20 12  1  0
 21 22  2  0
 21 10  1  0
 24 23  1  1
 24 26  1  0
 24 25  1  0
 25 21  1  0
 26 28  1  0
 27 26  2  0
M  END
$$$$
