DWA.pdb
     RDKit          3D

 28 29  0  0  1  0  0  0  0  0999 V2000
   28.0869  -22.7184  -16.7714 N   0  0  0  0  0  0  0  0  0  0  0  0
   28.0379  -21.4914  -16.0307 C   0  0  1  0  0  0  0  0  0  0  0  0
   27.4030  -20.4525  -16.9353 C   0  0  0  0  0  0  0  0  0  0  0  0
   28.3447  -20.0736  -17.9900 C   0  0  0  0  0  0  0  0  0  0  0  0
   28.1129  -20.4427  -19.1702 O   0  0  0  0  0  0  0  0  0  0  0  0
   27.2521  -21.6312  -14.7689 C   0  0  0  0  0  0  0  0  0  0  0  0
   26.0951  -22.1289  -14.8009 O   0  0  0  0  0  0  0  0  0  0  0  0
   29.4922  -19.3246  -17.7740 O   0  0  0  0  0  0  0  0  0  0  0  0
   27.7431  -21.2261  -13.4986 N   0  0  0  0  0  0  0  0  0  0  0  0
   26.9068  -21.2906  -12.2767 C   0  0  1  0  0  0  0  0  0  0  0  0
   27.7627  -20.9689  -11.0869 C   0  0  0  0  0  0  0  0  0  0  0  0
   27.0063  -20.8007   -9.8322 C   0  0  0  0  0  0  0  0  0  0  0  0
   25.6044  -20.7925   -9.7297 C   0  0  0  0  0  0  0  0  0  0  0  0
   25.2495  -20.5843   -8.4541 N   0  0  0  0  0  0  0  0  0  0  0  0
   26.3483  -20.4506   -7.6798 C   0  0  0  0  0  0  0  0  0  0  0  0
   26.4893  -20.2428   -6.3231 C   0  0  0  0  0  0  0  0  0  0  0  0
   27.7720  -20.1716   -5.8238 C   0  0  0  0  0  0  0  0  0  0  0  0
   28.8759  -20.3046   -6.6581 C   0  0  0  0  0  0  0  0  0  0  0  0
   28.7108  -20.5099   -8.0042 C   0  0  0  0  0  0  0  0  0  0  0  0
   27.4335  -20.5845   -8.5311 C   0  0  0  0  0  0  0  0  0  0  0  0
   25.6653  -20.5605  -12.4378 C   0  0  0  0  0  0  0  0  0  0  0  0
   25.5686  -19.3159  -12.5205 O   0  0  0  0  0  0  0  0  0  0  0  0
   22.4628  -21.2605  -13.9015 C   0  0  0  0  0  0  0  0  0  0  0  0
   23.1523  -20.5690  -12.7540 C   0  0  2  0  0  0  0  0  0  0  0  0
   24.4063  -21.2652  -12.5158 N   0  0  0  0  0  0  0  0  0  0  0  0
   22.3455  -20.6009  -11.5107 C   0  0  0  0  0  0  0  0  0  0  0  0
   22.5891  -21.4543  -10.6192 O   0  0  0  0  0  0  0  0  0  0  0  0
   21.3054  -19.7086  -11.2789 O   0  0  0  0  0  0  0  0  0  0  0  0
  2  1  1  6
  2  6  1  0
  2  3  1  0
  3  4  1  0
  4  5  2  0
  4  8  1  0
  6  7  2  0
  9 10  1  0
  9  6  1  0
 10 11  1  1
 12 11  1  0
 13 12  2  0
 14 13  1  0
 15 14  1  0
 15 20  2  0
 16 15  1  0
 17 16  2  0
 17 18  1  0
 18 19  2  0
 19 20  1  0
 20 12  1  0
 21 22  2  0
 21 10  1  0
 24 23  1  6
 24 26  1  0
 24 25  1  0
 25 21  1  0
 26 28  1  0
 27 26  2  0
M  END
$$$$
