DWA.pdb
     RDKit          3D

 28 29  0  0  1  0  0  0  0  0999 V2000
   24.0411  -17.8585  -16.2038 N   0  0  0  0  0  0  0  0  0  0  0  0
   22.7262  -18.3453  -16.5046 C   0  0  1  0  0  0  0  0  0  0  0  0
   22.6191  -18.4289  -18.0153 C   0  0  0  0  0  0  0  0  0  0  0  0
   22.6214  -17.0811  -18.5865 C   0  0  0  0  0  0  0  0  0  0  0  0
   22.7922  -16.0986  -17.8195 O   0  0  0  0  0  0  0  0  0  0  0  0
   22.4711  -19.6823  -15.8910 C   0  0  0  0  0  0  0  0  0  0  0  0
   21.9351  -20.5953  -16.5741 O   0  0  0  0  0  0  0  0  0  0  0  0
   22.4455  -16.8091  -19.9354 O   0  0  0  0  0  0  0  0  0  0  0  0
   22.8053  -19.9970  -14.5465 N   0  0  0  0  0  0  0  0  0  0  0  0
   22.6331  -21.3612  -13.9934 C   0  0  1  0  0  0  0  0  0  0  0  0
   23.8896  -21.7533  -13.2727 C   0  0  0  0  0  0  0  0  0  0  0  0
   24.9824  -22.1841  -14.1643 C   0  0  0  0  0  0  0  0  0  0  0  0
   25.9746  -21.3395  -14.6915 C   0  0  0  0  0  0  0  0  0  0  0  0
   26.7884  -22.0467  -15.4878 N   0  0  0  0  0  0  0  0  0  0  0  0
   26.3959  -23.3386  -15.5272 C   0  0  0  0  0  0  0  0  0  0  0  0
   26.9203  -24.4324  -16.1848 C   0  0  0  0  0  0  0  0  0  0  0  0
   26.2892  -25.6438  -16.0006 C   0  0  0  0  0  0  0  0  0  0  0  0
   25.1698  -25.7537  -15.1839 C   0  0  0  0  0  0  0  0  0  0  0  0
   24.6660  -24.6519  -14.5407 C   0  0  0  0  0  0  0  0  0  0  0  0
   25.2804  -23.4236  -14.7093 C   0  0  0  0  0  0  0  0  0  0  0  0
   21.3745  -21.4987  -13.2883 C   0  0  0  0  0  0  0  0  0  0  0  0
   21.0324  -20.8268  -12.2899 O   0  0  0  0  0  0  0  0  0  0  0  0
   18.1090  -23.0116  -14.1416 C   0  0  0  0  0  0  0  0  0  0  0  0
   19.0920  -22.5778  -13.0854 C   0  0  2  0  0  0  0  0  0  0  0  0
   20.3950  -22.4687  -13.7212 N   0  0  0  0  0  0  0  0  0  0  0  0
   19.1856  -23.5499  -11.9700 C   0  0  0  0  0  0  0  0  0  0  0  0
   20.1567  -24.3467  -11.9038 O   0  0  0  0  0  0  0  0  0  0  0  0
   18.2248  -23.6235  -10.9684 O   0  0  0  0  0  0  0  0  0  0  0  0
  2  1  1  6
  2  6  1  0
  2  3  1  0
  3  4  1  0
  4  5  2  0
  4  8  1  0
  6  7  2  0
  9 10  1  0
  9  6  1  0
 10 11  1  1
 12 11  1  0
 13 12  2  0
 14 13  1  0
 15 14  1  0
 15 20  2  0
 16 15  1  0
 17 16  2  0
 17 18  1  0
 18 19  2  0
 19 20  1  0
 20 12  1  0
 21 22  2  0
 21 10  1  0
 24 23  1  6
 24 26  1  0
 24 25  1  0
 25 21  1  0
 26 28  1  0
 27 26  2  0
M  END
$$$$
