DWA.pdb
     RDKit          3D

 28 29  0  0  1  0  0  0  0  0999 V2000
   16.9873  -11.8818  -17.2118 N   0  0  0  0  0  0  0  0  0  0  0  0
   17.7623  -10.7963  -17.7387 C   0  0  1  0  0  0  0  0  0  0  0  0
   16.8509   -9.5849  -17.7904 C   0  0  0  0  0  0  0  0  0  0  0  0
   15.8167   -9.7874  -18.8063 C   0  0  0  0  0  0  0  0  0  0  0  0
   16.1572  -10.2088  -19.9418 O   0  0  0  0  0  0  0  0  0  0  0  0
   18.9629  -10.5076  -16.8994 C   0  0  0  0  0  0  0  0  0  0  0  0
   19.1767  -11.1805  -15.8559 O   0  0  0  0  0  0  0  0  0  0  0  0
   14.4669   -9.5426  -18.5997 O   0  0  0  0  0  0  0  0  0  0  0  0
   19.9055   -9.4923  -17.2144 N   0  0  0  0  0  0  0  0  0  0  0  0
   21.1625   -9.3228  -16.4477 C   0  0  1  0  0  0  0  0  0  0  0  0
   22.2255  -10.1835  -17.0648 C   0  0  0  0  0  0  0  0  0  0  0  0
   23.4569  -10.2849  -16.2596 C   0  0  0  0  0  0  0  0  0  0  0  0
   23.5233  -10.7771  -14.9447 C   0  0  0  0  0  0  0  0  0  0  0  0
   24.7851  -10.6975  -14.4996 N   0  0  0  0  0  0  0  0  0  0  0  0
   25.5845  -10.1729  -15.4538 C   0  0  0  0  0  0  0  0  0  0  0  0
   26.9400   -9.9158  -15.4693 C   0  0  0  0  0  0  0  0  0  0  0  0
   27.4704   -9.3864  -16.6261 C   0  0  0  0  0  0  0  0  0  0  0  0
   26.6673   -9.1240  -17.7300 C   0  0  0  0  0  0  0  0  0  0  0  0
   25.3218   -9.3873  -17.6908 C   0  0  0  0  0  0  0  0  0  0  0  0
   24.7640   -9.9183  -16.5412 C   0  0  0  0  0  0  0  0  0  0  0  0
   21.4676   -7.9242  -16.2210 C   0  0  0  0  0  0  0  0  0  0  0  0
   21.5029   -7.0430  -17.1084 O   0  0  0  0  0  0  0  0  0  0  0  0
   22.0422   -5.8713  -13.1178 C   0  0  0  0  0  0  0  0  0  0  0  0
   21.9832   -6.0352  -14.6144 C   0  0  2  0  0  0  0  0  0  0  0  0
   21.7629   -7.4457  -14.8900 N   0  0  0  0  0  0  0  0  0  0  0  0
   23.2394   -5.6105  -15.2773 C   0  0  0  0  0  0  0  0  0  0  0  0
   24.1384   -6.4531  -15.5306 O   0  0  0  0  0  0  0  0  0  0  0  0
   23.4759   -4.2900  -15.6408 O   0  0  0  0  0  0  0  0  0  0  0  0
  2  1  1  1
  2  6  1  0
  2  3  1  0
  3  4  1  0
  4  5  2  0
  4  8  1  0
  6  7  2  0
  9 10  1  0
  9  6  1  0
 10 11  1  6
 12 11  1  0
 13 12  2  0
 14 13  1  0
 15 14  1  0
 15 20  2  0
 16 15  1  0
 17 16  2  0
 17 18  1  0
 18 19  2  0
 19 20  1  0
 20 12  1  0
 21 22  2  0
 21 10  1  0
 24 23  1  1
 24 26  1  0
 24 25  1  0
 25 21  1  0
 26 28  1  0
 27 26  2  0
M  END
$$$$
