ETN.pdb
     RDKit          3D

 25 24  0  0  1  0  0  0  0  0999 V2000
    7.7883  -17.3224   16.5263 N   0  0  0  0  0  0  0  0  0  0  0  0
    9.2577  -17.1998   16.6369 C   0  0  1  0  0  0  0  0  0  0  0  0
    9.7043  -16.6105   15.3352 C   0  0  0  0  0  0  0  0  0  0  0  0
    8.6292  -16.0233   14.4890 C   0  0  0  0  0  0  0  0  0  0  0  0
    9.0903  -15.5694   13.1639 C   0  0  0  0  0  0  0  0  0  0  0  0
   10.2104  -15.9016   12.7152 O   0  0  0  0  0  0  0  0  0  0  0  0
    9.6007  -16.2929   17.7596 C   0  0  0  0  0  0  0  0  0  0  0  0
   10.7523  -15.8965   18.0089 O   0  0  0  0  0  0  0  0  0  0  0  0
    8.2741  -14.7531   12.3822 O   0  0  0  0  0  0  0  0  0  0  0  0
    7.3966  -13.2742   19.1181 C   0  0  0  0  0  0  0  0  0  0  0  0
    7.7232  -14.2465   20.2275 C   0  0  1  0  0  0  0  0  0  0  0  0
    6.6187  -15.1011   20.3458 O   0  0  0  0  0  0  0  0  0  0  0  0
    8.9161  -15.1144   19.8730 C   0  0  2  0  0  0  0  0  0  0  0  0
    8.5774  -15.8107   18.6469 N   0  0  0  0  0  0  0  0  0  0  0  0
    9.0968  -16.0883   21.0011 C   0  0  0  0  0  0  0  0  0  0  0  0
    9.1062  -17.3369   20.7862 O   0  0  0  0  0  0  0  0  0  0  0  0
   12.8141  -16.9416   24.6878 N   0  0  0  0  0  0  0  0  0  0  0  0
   12.2898  -17.4972   23.4974 C   0  0  0  0  0  0  0  0  0  0  0  0
   12.5952  -18.6705   23.1929 O   0  0  0  0  0  0  0  0  0  0  0  0
   11.4079  -16.6994   22.6500 C   0  0  0  0  0  0  0  0  0  0  0  0
   10.0585  -16.4356   23.2781 C   0  0  2  0  0  0  0  0  0  0  0  0
    9.2631  -15.6652   22.3393 N   0  0  0  0  0  0  0  0  0  0  0  0
   10.1782  -15.7522   24.5870 C   0  0  0  0  0  0  0  0  0  0  0  0
   10.5829  -14.4282   24.5747 O   0  0  0  0  0  0  0  0  0  0  0  0
    9.9408  -16.2881   25.6774 O   0  0  0  0  0  0  0  0  0  0  0  0
  2  1  1  6
  2  7  1  0
  3  2  1  0
  4  5  1  0
  4  3  1  0
  5  9  1  0
  6  5  2  0
  7 14  1  0
  7  8  2  0
 11 10  1  6
 12 11  1  0
 13 11  1  0
 13 14  1  6
 15 13  1  0
 15 22  1  0
 16 15  2  0
 18 17  1  0
 19 18  2  0
 21 20  1  6
 20 18  1  0
 21 22  1  0
 21 23  1  0
 23 24  1  0
 25 23  2  0
M  END
$$$$
