ETN.pdb
     RDKit          3D

 25 24  0  0  1  0  0  0  0  0999 V2000
   10.0275  -15.8713   14.4703 N   0  0  0  0  0  0  0  0  0  0  0  0
    9.6439  -16.5218   15.7416 C   0  0  1  0  0  0  0  0  0  0  0  0
   10.6591  -17.6010   15.9555 C   0  0  0  0  0  0  0  0  0  0  0  0
   11.9300  -17.4526   15.1942 C   0  0  0  0  0  0  0  0  0  0  0  0
   12.9306  -18.4948   15.4898 C   0  0  0  0  0  0  0  0  0  0  0  0
   14.1189  -18.2014   15.7506 O   0  0  0  0  0  0  0  0  0  0  0  0
    9.7001  -15.5331   16.8460 C   0  0  0  0  0  0  0  0  0  0  0  0
   10.5496  -14.6292   16.9301 O   0  0  0  0  0  0  0  0  0  0  0  0
   12.5617  -19.8393   15.4827 O   0  0  0  0  0  0  0  0  0  0  0  0
    7.4776  -13.0990   20.4201 C   0  0  0  0  0  0  0  0  0  0  0  0
    7.4916  -14.0298   19.2300 C   0  0  1  0  0  0  0  0  0  0  0  0
    7.2793  -13.2314   18.0978 O   0  0  0  0  0  0  0  0  0  0  0  0
    8.8467  -14.6897   19.0561 C   0  0  2  0  0  0  0  0  0  0  0  0
    8.7374  -15.5752   17.9129 N   0  0  0  0  0  0  0  0  0  0  0  0
    9.1131  -15.4739   20.3082 C   0  0  0  0  0  0  0  0  0  0  0  0
    8.7429  -16.6814   20.4097 O   0  0  0  0  0  0  0  0  0  0  0  0
   12.4290  -17.3029   24.4828 N   0  0  0  0  0  0  0  0  0  0  0  0
   12.1207  -16.8186   23.1901 C   0  0  0  0  0  0  0  0  0  0  0  0
   12.4393  -17.5062   22.1959 O   0  0  0  0  0  0  0  0  0  0  0  0
   11.4414  -15.5351   23.0377 C   0  0  0  0  0  0  0  0  0  0  0  0
    9.9907  -15.6742   22.6363 C   0  0  2  0  0  0  0  0  0  0  0  0
    9.7809  -14.9109   21.4193 N   0  0  0  0  0  0  0  0  0  0  0  0
    9.0712  -15.2485   23.7171 C   0  0  0  0  0  0  0  0  0  0  0  0
    8.8910  -16.1227   24.7754 O   0  0  0  0  0  0  0  0  0  0  0  0
    8.4621  -14.1708   23.7297 O   0  0  0  0  0  0  0  0  0  0  0  0
  2  1  1  6
  2  7  1  0
  3  2  1  0
  4  5  1  0
  4  3  1  0
  5  9  1  0
  6  5  2  0
  7 14  1  0
  7  8  2  0
 11 10  1  1
 12 11  1  0
 13 11  1  0
 13 14  1  6
 15 13  1  0
 15 22  1  0
 16 15  2  0
 18 17  1  0
 19 18  2  0
 21 20  1  1
 20 18  1  0
 21 22  1  0
 21 23  1  0
 23 24  1  0
 25 23  2  0
M  END
$$$$
