ETN.pdb
     RDKit          3D

 25 24  0  0  1  0  0  0  0  0999 V2000
    9.9225  -16.4611   15.8846 N   0  0  0  0  0  0  0  0  0  0  0  0
    8.9718  -16.5553   17.0131 C   0  0  1  0  0  0  0  0  0  0  0  0
    8.8921  -18.0136   17.3422 C   0  0  0  0  0  0  0  0  0  0  0  0
   10.1907  -18.7414   17.3708 C   0  0  0  0  0  0  0  0  0  0  0  0
   10.0692  -20.1701   17.7153 C   0  0  0  0  0  0  0  0  0  0  0  0
   10.6879  -20.6607   18.6863 O   0  0  0  0  0  0  0  0  0  0  0  0
    9.4946  -15.7917   18.1724 C   0  0  0  0  0  0  0  0  0  0  0  0
   10.6956  -15.5202   18.3443 O   0  0  0  0  0  0  0  0  0  0  0  0
    9.2528  -21.0052   16.9538 O   0  0  0  0  0  0  0  0  0  0  0  0
    7.4433  -12.7945   20.1326 C   0  0  0  0  0  0  0  0  0  0  0  0
    7.9333  -13.9234   21.0092 C   0  0  1  0  0  0  0  0  0  0  0  0
    6.8825  -14.8470   21.0930 O   0  0  0  0  0  0  0  0  0  0  0  0
    9.1077  -14.6479   20.3784 C   0  0  2  0  0  0  0  0  0  0  0  0
    8.6021  -15.3107   19.1918 N   0  0  0  0  0  0  0  0  0  0  0  0
    9.5880  -15.6555   21.3823 C   0  0  0  0  0  0  0  0  0  0  0  0
    9.2428  -16.8716   21.2983 O   0  0  0  0  0  0  0  0  0  0  0  0
   13.9619  -15.3886   22.0783 N   0  0  0  0  0  0  0  0  0  0  0  0
   13.1694  -16.3986   22.6723 C   0  0  0  0  0  0  0  0  0  0  0  0
   13.2447  -17.5646   22.2280 O   0  0  0  0  0  0  0  0  0  0  0  0
   12.2838  -16.0673   23.7850 C   0  0  0  0  0  0  0  0  0  0  0  0
   10.8214  -16.2729   23.4626 C   0  0  2  0  0  0  0  0  0  0  0  0
   10.4373  -15.3010   22.4549 N   0  0  0  0  0  0  0  0  0  0  0  0
    9.9673  -16.1799   24.6694 C   0  0  0  0  0  0  0  0  0  0  0  0
    9.0397  -15.1529   24.7104 O   0  0  0  0  0  0  0  0  0  0  0  0
   10.0330  -16.9564   25.6313 O   0  0  0  0  0  0  0  0  0  0  0  0
  2  1  1  6
  2  7  1  0
  3  2  1  0
  4  5  1  0
  4  3  1  0
  5  9  1  0
  6  5  2  0
  7 14  1  0
  7  8  2  0
 11 10  1  6
 12 11  1  0
 13 11  1  0
 13 14  1  6
 15 13  1  0
 15 22  1  0
 16 15  2  0
 18 17  1  0
 19 18  2  0
 21 20  1  1
 20 18  1  0
 21 22  1  0
 21 23  1  0
 23 24  1  0
 25 23  2  0
M  END
$$$$
