ETN.pdb
     RDKit          3D

 25 24  0  0  1  0  0  0  0  0999 V2000
   12.8652  -14.8569   17.6029 N   0  0  0  0  0  0  0  0  0  0  0  0
   13.2631  -15.3551   18.9371 C   0  0  1  0  0  0  0  0  0  0  0  0
   14.4698  -14.5536   19.3146 C   0  0  0  0  0  0  0  0  0  0  0  0
   15.6643  -14.7355   18.4447 C   0  0  0  0  0  0  0  0  0  0  0  0
   16.8584  -14.0033   18.9059 C   0  0  0  0  0  0  0  0  0  0  0  0
   16.8852  -12.7524   18.9331 O   0  0  0  0  0  0  0  0  0  0  0  0
   12.1642  -15.1222   19.9059 C   0  0  0  0  0  0  0  0  0  0  0  0
   11.4155  -14.1299   19.8859 O   0  0  0  0  0  0  0  0  0  0  0  0
   17.9892  -14.7038   19.3235 O   0  0  0  0  0  0  0  0  0  0  0  0
    8.6591  -16.9164   22.6179 C   0  0  0  0  0  0  0  0  0  0  0  0
    9.8613  -17.0373   21.7106 C   0  0  1  0  0  0  0  0  0  0  0  0
    9.3772  -16.9684   20.3971 O   0  0  0  0  0  0  0  0  0  0  0  0
   10.8138  -15.8702   21.8911 C   0  0  2  0  0  0  0  0  0  0  0  0
   11.9029  -16.0702   20.9547 N   0  0  0  0  0  0  0  0  0  0  0  0
   11.3147  -15.9315   23.3050 C   0  0  0  0  0  0  0  0  0  0  0  0
   12.3796  -16.5558   23.5904 O   0  0  0  0  0  0  0  0  0  0  0  0
   11.6568  -15.4574   28.4473 N   0  0  0  0  0  0  0  0  0  0  0  0
   10.6352  -14.5763   28.0222 C   0  0  0  0  0  0  0  0  0  0  0  0
   10.0455  -13.8789   28.8758 O   0  0  0  0  0  0  0  0  0  0  0  0
   10.2880  -14.4951   26.6062 C   0  0  0  0  0  0  0  0  0  0  0  0
   11.0920  -15.4393   25.7419 C   0  0  2  0  0  0  0  0  0  0  0  0
   10.6320  -15.3041   24.3716 N   0  0  0  0  0  0  0  0  0  0  0  0
   11.0024  -16.8400   26.2157 C   0  0  0  0  0  0  0  0  0  0  0  0
    9.8890  -17.5678   25.8316 O   0  0  0  0  0  0  0  0  0  0  0  0
   11.8534  -17.3914   26.9259 O   0  0  0  0  0  0  0  0  0  0  0  0
  2  1  1  6
  2  7  1  0
  3  2  1  0
  4  5  1  0
  4  3  1  0
  5  9  1  0
  6  5  2  0
  7 14  1  0
  7  8  2  0
 11 10  1  1
 12 11  1  0
 13 11  1  0
 13 14  1  6
 15 13  1  0
 15 22  1  0
 16 15  2  0
 18 17  1  0
 19 18  2  0
 21 20  1  1
 20 18  1  0
 21 22  1  0
 21 23  1  0
 23 24  1  0
 25 23  2  0
M  END
$$$$
