ETN.pdb
     RDKit          3D

 25 24  0  0  1  0  0  0  0  0999 V2000
    9.7911  -15.4966   12.9994 N   0  0  0  0  0  0  0  0  0  0  0  0
    9.7520  -16.1887   14.3054 C   0  0  1  0  0  0  0  0  0  0  0  0
   10.8245  -17.2307   14.2329 C   0  0  0  0  0  0  0  0  0  0  0  0
   10.5694  -18.3561   13.2921 C   0  0  0  0  0  0  0  0  0  0  0  0
   11.5653  -19.4407   13.3715 C   0  0  0  0  0  0  0  0  0  0  0  0
   12.7019  -19.3198   12.8617 O   0  0  0  0  0  0  0  0  0  0  0  0
   10.0430  -15.2223   15.3925 C   0  0  0  0  0  0  0  0  0  0  0  0
   10.8809  -14.3078   15.3067 O   0  0  0  0  0  0  0  0  0  0  0  0
   11.2504  -20.6318   14.0241 O   0  0  0  0  0  0  0  0  0  0  0  0
    8.5753  -13.1120   19.5797 C   0  0  0  0  0  0  0  0  0  0  0  0
    8.3776  -14.1348   18.4853 C   0  0  1  0  0  0  0  0  0  0  0  0
    7.4946  -13.5619   17.5599 O   0  0  0  0  0  0  0  0  0  0  0  0
    9.6720  -14.4142   17.7449 C   0  0  2  0  0  0  0  0  0  0  0  0
    9.3423  -15.3005   16.6455 N   0  0  0  0  0  0  0  0  0  0  0  0
   10.5910  -15.0966   18.7163 C   0  0  0  0  0  0  0  0  0  0  0  0
   10.5118  -16.3448   18.9184 O   0  0  0  0  0  0  0  0  0  0  0  0
   15.3954  -15.6890   19.4312 N   0  0  0  0  0  0  0  0  0  0  0  0
   14.6310  -14.4995   19.4692 C   0  0  0  0  0  0  0  0  0  0  0  0
   14.7744  -13.6600   18.5541 O   0  0  0  0  0  0  0  0  0  0  0  0
   13.6945  -14.2721   20.5663 C   0  0  0  0  0  0  0  0  0  0  0  0
   12.4106  -15.0572   20.4244 C   0  0  2  0  0  0  0  0  0  0  0  0
   11.5757  -14.3891   19.4424 N   0  0  0  0  0  0  0  0  0  0  0  0
   11.7116  -15.2193   21.7205 C   0  0  0  0  0  0  0  0  0  0  0  0
   12.3169  -16.0258   22.6691 O   0  0  0  0  0  0  0  0  0  0  0  0
   10.6319  -14.6830   22.0019 O   0  0  0  0  0  0  0  0  0  0  0  0
  2  1  1  6
  2  7  1  0
  3  2  1  0
  4  5  1  0
  4  3  1  0
  5  9  1  0
  6  5  2  0
  7 14  1  0
  7  8  2  0
 11 10  1  1
 12 11  1  0
 13 11  1  0
 13 14  1  6
 15 13  1  0
 15 22  1  0
 16 15  2  0
 18 17  1  0
 19 18  2  0
 21 20  1  1
 20 18  1  0
 21 22  1  0
 21 23  1  0
 23 24  1  0
 25 23  2  0
M  END
$$$$
