ETN.pdb
     RDKit          3D

 25 24  0  0  1  0  0  0  0  0999 V2000
    8.2041  -16.5130   16.4527 N   0  0  0  0  0  0  0  0  0  0  0  0
    7.6761  -16.3923   17.8286 C   0  0  1  0  0  0  0  0  0  0  0  0
    7.4030  -17.7959   18.2719 C   0  0  0  0  0  0  0  0  0  0  0  0
    6.5144  -18.5931   17.3822 C   0  0  0  0  0  0  0  0  0  0  0  0
    6.1433  -19.9106   17.9309 C   0  0  0  0  0  0  0  0  0  0  0  0
    5.1328  -20.0531   18.6555 O   0  0  0  0  0  0  0  0  0  0  0  0
    8.6966  -15.7636   18.7024 C   0  0  0  0  0  0  0  0  0  0  0  0
    9.6152  -15.0350   18.2891 O   0  0  0  0  0  0  0  0  0  0  0  0
    6.9233  -21.0306   17.6465 O   0  0  0  0  0  0  0  0  0  0  0  0
    8.1427  -13.3186   19.4156 C   0  0  0  0  0  0  0  0  0  0  0  0
    8.1982  -13.7595   20.8598 C   0  0  1  0  0  0  0  0  0  0  0  0
    6.9074  -14.1915   21.1939 O   0  0  0  0  0  0  0  0  0  0  0  0
    9.1223  -14.9487   21.0431 C   0  0  2  0  0  0  0  0  0  0  0  0
    8.6704  -15.9754   20.1242 N   0  0  0  0  0  0  0  0  0  0  0  0
    8.9667  -15.4062   22.4645 C   0  0  0  0  0  0  0  0  0  0  0  0
    7.8811  -15.9214   22.8660 O   0  0  0  0  0  0  0  0  0  0  0  0
   11.1392  -18.8259   25.3806 N   0  0  0  0  0  0  0  0  0  0  0  0
   11.1805  -18.7756   23.9676 C   0  0  0  0  0  0  0  0  0  0  0  0
   11.5726  -19.7823   23.3387 O   0  0  0  0  0  0  0  0  0  0  0  0
   10.7684  -17.5601   23.2712 C   0  0  0  0  0  0  0  0  0  0  0  0
   10.4356  -16.4217   24.2084 C   0  0  2  0  0  0  0  0  0  0  0  0
   10.0097  -15.2861   23.4106 N   0  0  0  0  0  0  0  0  0  0  0  0
   11.5744  -16.0769   25.0910 C   0  0  0  0  0  0  0  0  0  0  0  0
   11.5143  -16.5167   26.4024 O   0  0  0  0  0  0  0  0  0  0  0  0
   12.5641  -15.4268   24.7298 O   0  0  0  0  0  0  0  0  0  0  0  0
  2  1  1  6
  2  7  1  0
  3  2  1  0
  4  5  1  0
  4  3  1  0
  5  9  1  0
  6  5  2  0
  7 14  1  0
  7  8  2  0
 11 10  1  6
 12 11  1  0
 13 11  1  0
 13 14  1  6
 15 13  1  0
 15 22  1  0
 16 15  2  0
 18 17  1  0
 19 18  2  0
 21 20  1  6
 20 18  1  0
 21 22  1  0
 21 23  1  0
 23 24  1  0
 25 23  2  0
M  END
$$$$
