ETN.pdb
     RDKit          3D

 25 24  0  0  1  0  0  0  0  0999 V2000
    9.8911  -18.2285   19.9162 N   0  0  0  0  0  0  0  0  0  0  0  0
   11.0990  -17.4028   20.1297 C   0  0  1  0  0  0  0  0  0  0  0  0
   11.4761  -16.8957   18.7726 C   0  0  0  0  0  0  0  0  0  0  0  0
   11.1448  -17.7938   17.6322 C   0  0  0  0  0  0  0  0  0  0  0  0
   12.2891  -18.5819   17.1383 C   0  0  0  0  0  0  0  0  0  0  0  0
   12.9907  -18.1824   16.1820 O   0  0  0  0  0  0  0  0  0  0  0  0
   10.7779  -16.2712   21.0334 C   0  0  0  0  0  0  0  0  0  0  0  0
   11.5370  -15.3093   21.2433 O   0  0  0  0  0  0  0  0  0  0  0  0
   12.6095  -19.7993   17.7376 O   0  0  0  0  0  0  0  0  0  0  0  0
    7.2568  -14.2891   21.5651 C   0  0  0  0  0  0  0  0  0  0  0  0
    7.7562  -15.0281   22.7848 C   0  0  1  0  0  0  0  0  0  0  0  0
    7.1812  -16.3055   22.7393 O   0  0  0  0  0  0  0  0  0  0  0  0
    9.2606  -15.2200   22.7414 C   0  0  2  0  0  0  0  0  0  0  0  0
    9.5246  -16.2319   21.7368 N   0  0  0  0  0  0  0  0  0  0  0  0
    9.6774  -15.7032   24.1003 C   0  0  0  0  0  0  0  0  0  0  0  0
    9.9933  -16.9154   24.2901 O   0  0  0  0  0  0  0  0  0  0  0  0
   10.9253  -15.8650   29.1201 N   0  0  0  0  0  0  0  0  0  0  0  0
   10.4667  -14.5530   28.8575 C   0  0  0  0  0  0  0  0  0  0  0  0
   10.4216  -13.7297   29.7972 O   0  0  0  0  0  0  0  0  0  0  0  0
   10.0569  -14.1832   27.5056 C   0  0  0  0  0  0  0  0  0  0  0  0
   10.1434  -15.3293   26.5238 C   0  0  2  0  0  0  0  0  0  0  0  0
    9.7370  -14.8409   25.2184 N   0  0  0  0  0  0  0  0  0  0  0  0
    9.3312  -16.4917   26.9526 C   0  0  0  0  0  0  0  0  0  0  0  0
    9.9881  -17.5099   27.6223 O   0  0  0  0  0  0  0  0  0  0  0  0
    8.1151  -16.6049   26.7502 O   0  0  0  0  0  0  0  0  0  0  0  0
  2  1  1  6
  2  7  1  0
  3  2  1  0
  4  5  1  0
  4  3  1  0
  5  9  1  0
  6  5  2  0
  7 14  1  0
  7  8  2  0
 11 10  1  6
 12 11  1  0
 13 11  1  0
 13 14  1  6
 15 13  1  0
 15 22  1  0
 16 15  2  0
 18 17  1  0
 19 18  2  0
 21 20  1  1
 20 18  1  0
 21 22  1  0
 21 23  1  0
 23 24  1  0
 25 23  2  0
M  END
$$$$
