ETN.pdb
     RDKit          3D

 25 24  0  0  1  0  0  0  0  0999 V2000
    8.8627  -15.4372   13.1417 N   0  0  0  0  0  0  0  0  0  0  0  0
    9.0313  -16.1523   14.4249 C   0  0  1  0  0  0  0  0  0  0  0  0
   10.1671  -17.1018   14.2020 C   0  0  0  0  0  0  0  0  0  0  0  0
   10.1211  -17.8773   12.9319 C   0  0  0  0  0  0  0  0  0  0  0  0
   11.2339  -18.8317   12.7721 C   0  0  0  0  0  0  0  0  0  0  0  0
   12.0667  -18.7118   11.8456 O   0  0  0  0  0  0  0  0  0  0  0  0
    9.3700  -15.1839   15.4963 C   0  0  0  0  0  0  0  0  0  0  0  0
   10.0295  -14.1458   15.3149 O   0  0  0  0  0  0  0  0  0  0  0  0
   11.3755  -19.8950   13.6627 O   0  0  0  0  0  0  0  0  0  0  0  0
    8.1979  -13.0928   19.6901 C   0  0  0  0  0  0  0  0  0  0  0  0
    7.9883  -14.1630   18.6442 C   0  0  1  0  0  0  0  0  0  0  0  0
    7.1024  -13.6278   17.6991 O   0  0  0  0  0  0  0  0  0  0  0  0
    9.2767  -14.4824   17.9095 C   0  0  2  0  0  0  0  0  0  0  0  0
    8.9343  -15.4090   16.8478 N   0  0  0  0  0  0  0  0  0  0  0  0
   10.1948  -15.1332   18.9030 C   0  0  0  0  0  0  0  0  0  0  0  0
   10.0819  -16.3638   19.1829 O   0  0  0  0  0  0  0  0  0  0  0  0
   14.9406  -16.0633   19.8141 N   0  0  0  0  0  0  0  0  0  0  0  0
   14.2626  -14.8352   19.6330 C   0  0  0  0  0  0  0  0  0  0  0  0
   14.4609  -14.1850   18.5838 O   0  0  0  0  0  0  0  0  0  0  0  0
   13.3499  -14.3499   20.6643 C   0  0  0  0  0  0  0  0  0  0  0  0
   11.9973  -15.0237   20.6262 C   0  0  2  0  0  0  0  0  0  0  0  0
   11.2159  -14.4146   19.5651 N   0  0  0  0  0  0  0  0  0  0  0  0
   11.3020  -14.9498   21.9322 C   0  0  0  0  0  0  0  0  0  0  0  0
   11.8294  -15.6953   22.9728 O   0  0  0  0  0  0  0  0  0  0  0  0
   10.2901  -14.2693   22.1455 O   0  0  0  0  0  0  0  0  0  0  0  0
  2  1  1  6
  2  7  1  0
  3  2  1  0
  4  5  1  0
  4  3  1  0
  5  9  1  0
  6  5  2  0
  7 14  1  0
  7  8  2  0
 11 10  1  1
 12 11  1  0
 13 11  1  0
 13 14  1  6
 15 13  1  0
 15 22  1  0
 16 15  2  0
 18 17  1  0
 19 18  2  0
 21 20  1  1
 20 18  1  0
 21 22  1  0
 21 23  1  0
 23 24  1  0
 25 23  2  0
M  END
$$$$
