ETN.pdb
     RDKit          3D

 25 24  0  0  1  0  0  0  0  0999 V2000
    9.2514  -15.0758   14.5856 N   0  0  0  0  0  0  0  0  0  0  0  0
    8.9053  -15.8795   15.7775 C   0  0  1  0  0  0  0  0  0  0  0  0
    9.6013  -17.1910   15.5856 C   0  0  0  0  0  0  0  0  0  0  0  0
   10.8044  -17.4141   16.4339 C   0  0  0  0  0  0  0  0  0  0  0  0
   11.4482  -18.7247   16.2276 C   0  0  0  0  0  0  0  0  0  0  0  0
   11.8897  -19.3920   17.1899 O   0  0  0  0  0  0  0  0  0  0  0  0
    9.4053  -15.2029   16.9992 C   0  0  0  0  0  0  0  0  0  0  0  0
   10.4578  -14.5433   17.0498 O   0  0  0  0  0  0  0  0  0  0  0  0
   11.5756  -19.2454   14.9406 O   0  0  0  0  0  0  0  0  0  0  0  0
    7.3758  -12.8669   19.1318 C   0  0  0  0  0  0  0  0  0  0  0  0
    7.9392  -13.9266   20.0498 C   0  0  1  0  0  0  0  0  0  0  0  0
    6.9402  -14.8985   20.1961 O   0  0  0  0  0  0  0  0  0  0  0  0
    9.1395  -14.6178   19.4305 C   0  0  2  0  0  0  0  0  0  0  0  0
    8.6673  -15.2812   18.2306 N   0  0  0  0  0  0  0  0  0  0  0  0
    9.6281  -15.6232   20.4326 C   0  0  0  0  0  0  0  0  0  0  0  0
   10.1655  -16.7071   20.0563 O   0  0  0  0  0  0  0  0  0  0  0  0
   11.9537  -17.6399   24.4276 N   0  0  0  0  0  0  0  0  0  0  0  0
   12.5546  -16.7613   23.4962 C   0  0  0  0  0  0  0  0  0  0  0  0
   13.8001  -16.6546   23.4835 O   0  0  0  0  0  0  0  0  0  0  0  0
   11.7193  -15.9995   22.5721 C   0  0  0  0  0  0  0  0  0  0  0  0
   10.2402  -16.2379   22.7731 C   0  0  2  0  0  0  0  0  0  0  0  0
    9.5140  -15.4120   21.8254 N   0  0  0  0  0  0  0  0  0  0  0  0
    9.8186  -15.9731   24.1683 C   0  0  0  0  0  0  0  0  0  0  0  0
   10.1976  -16.8947   25.1295 O   0  0  0  0  0  0  0  0  0  0  0  0
    9.1559  -14.9889   24.5213 O   0  0  0  0  0  0  0  0  0  0  0  0
  2  1  1  6
  2  7  1  0
  3  2  1  0
  4  5  1  0
  4  3  1  0
  5  9  1  0
  6  5  2  0
  7 14  1  0
  7  8  2  0
 11 10  1  6
 12 11  1  0
 13 11  1  0
 13 14  1  6
 15 13  1  0
 15 22  1  0
 16 15  2  0
 18 17  1  0
 19 18  2  0
 21 20  1  1
 20 18  1  0
 21 22  1  0
 21 23  1  0
 23 24  1  0
 25 23  2  0
M  END
$$$$
