ETN.pdb
     RDKit          3D

 25 24  0  0  1  0  0  0  0  0999 V2000
    8.3427  -14.9763   14.7024 N   0  0  0  0  0  0  0  0  0  0  0  0
    8.3711  -15.8984   15.8579 C   0  0  1  0  0  0  0  0  0  0  0  0
    9.1932  -17.0670   15.4109 C   0  0  0  0  0  0  0  0  0  0  0  0
    9.3907  -18.1423   16.4216 C   0  0  0  0  0  0  0  0  0  0  0  0
   10.2066  -19.2730   15.9417 C   0  0  0  0  0  0  0  0  0  0  0  0
   10.8799  -19.9720   16.7319 O   0  0  0  0  0  0  0  0  0  0  0  0
    9.0115  -15.2289   17.0163 C   0  0  0  0  0  0  0  0  0  0  0  0
   10.0143  -14.4987   16.9329 O   0  0  0  0  0  0  0  0  0  0  0  0
   10.2399  -19.5832   14.5828 O   0  0  0  0  0  0  0  0  0  0  0  0
    7.4170  -12.8124   19.1978 C   0  0  0  0  0  0  0  0  0  0  0  0
    7.9174  -13.9073   20.1110 C   0  0  1  0  0  0  0  0  0  0  0  0
    6.8510  -14.8004   20.2829 O   0  0  0  0  0  0  0  0  0  0  0  0
    9.0494  -14.6900   19.4724 C   0  0  2  0  0  0  0  0  0  0  0  0
    8.4821  -15.3995   18.3421 N   0  0  0  0  0  0  0  0  0  0  0  0
    9.5481  -15.6570   20.5068 C   0  0  0  0  0  0  0  0  0  0  0  0
    9.2575  -16.8883   20.4387 O   0  0  0  0  0  0  0  0  0  0  0  0
   13.0733  -18.1844   23.6153 N   0  0  0  0  0  0  0  0  0  0  0  0
   12.8714  -16.8039   23.8481 C   0  0  0  0  0  0  0  0  0  0  0  0
   13.1858  -16.3267   24.9599 O   0  0  0  0  0  0  0  0  0  0  0  0
   12.3043  -15.9648   22.7962 C   0  0  0  0  0  0  0  0  0  0  0  0
   10.8265  -16.1984   22.5812 C   0  0  2  0  0  0  0  0  0  0  0  0
   10.3551  -15.2462   21.5919 N   0  0  0  0  0  0  0  0  0  0  0  0
   10.0587  -16.1034   23.8445 C   0  0  0  0  0  0  0  0  0  0  0  0
   10.1963  -17.1432   24.7482 O   0  0  0  0  0  0  0  0  0  0  0  0
    9.3107  -15.1610   24.1364 O   0  0  0  0  0  0  0  0  0  0  0  0
  2  1  1  6
  2  7  1  0
  3  2  1  0
  4  5  1  0
  4  3  1  0
  5  9  1  0
  6  5  2  0
  7 14  1  0
  7  8  2  0
 11 10  1  6
 12 11  1  0
 13 11  1  0
 13 14  1  6
 15 13  1  0
 15 22  1  0
 16 15  2  0
 18 17  1  0
 19 18  2  0
 21 20  1  1
 20 18  1  0
 21 22  1  0
 21 23  1  0
 23 24  1  0
 25 23  2  0
M  END
$$$$
