ETN.pdb
     RDKit          3D

 25 24  0  0  1  0  0  0  0  0999 V2000
    7.6841  -17.2371   16.3157 N   0  0  0  0  0  0  0  0  0  0  0  0
    9.1142  -17.4788   16.6032 C   0  0  1  0  0  0  0  0  0  0  0  0
    9.8275  -17.2082   15.3151 C   0  0  0  0  0  0  0  0  0  0  0  0
    9.5723  -15.8752   14.7029 C   0  0  0  0  0  0  0  0  0  0  0  0
   10.3132  -15.6397   13.4498 C   0  0  0  0  0  0  0  0  0  0  0  0
    9.8956  -16.0773   12.3542 O   0  0  0  0  0  0  0  0  0  0  0  0
    9.5775  -16.5433   17.6570 C   0  0  0  0  0  0  0  0  0  0  0  0
   10.7613  -16.4336   18.0206 O   0  0  0  0  0  0  0  0  0  0  0  0
   11.5051  -14.9167   13.4685 O   0  0  0  0  0  0  0  0  0  0  0  0
    7.4668  -13.1147   18.8275 C   0  0  0  0  0  0  0  0  0  0  0  0
    7.8335  -14.0981   19.9145 C   0  0  1  0  0  0  0  0  0  0  0  0
    6.7437  -14.9695   20.0470 O   0  0  0  0  0  0  0  0  0  0  0  0
    9.0290  -14.9442   19.5187 C   0  0  2  0  0  0  0  0  0  0  0  0
    8.6429  -15.6859   18.3340 N   0  0  0  0  0  0  0  0  0  0  0  0
    9.2990  -15.8785   20.6623 C   0  0  0  0  0  0  0  0  0  0  0  0
    9.5123  -17.1107   20.4581 O   0  0  0  0  0  0  0  0  0  0  0  0
   11.9092  -18.1231   24.1894 N   0  0  0  0  0  0  0  0  0  0  0  0
   12.3736  -17.0047   23.4585 C   0  0  0  0  0  0  0  0  0  0  0  0
   13.5389  -16.5968   23.6545 O   0  0  0  0  0  0  0  0  0  0  0  0
   11.4934  -16.3497   22.4949 C   0  0  0  0  0  0  0  0  0  0  0  0
   10.0886  -16.1471   23.0149 C   0  0  2  0  0  0  0  0  0  0  0  0
    9.3282  -15.4349   22.0039 N   0  0  0  0  0  0  0  0  0  0  0  0
   10.0737  -15.4370   24.3150 C   0  0  0  0  0  0  0  0  0  0  0  0
    9.6229  -16.1438   25.4168 O   0  0  0  0  0  0  0  0  0  0  0  0
   10.4360  -14.2637   24.4726 O   0  0  0  0  0  0  0  0  0  0  0  0
  2  1  1  6
  2  7  1  0
  3  2  1  0
  4  5  1  0
  4  3  1  0
  5  9  1  0
  6  5  2  0
  7 14  1  0
  7  8  2  0
 11 10  1  6
 12 11  1  0
 13 11  1  0
 13 14  1  6
 15 13  1  0
 15 22  1  0
 16 15  2  0
 18 17  1  0
 19 18  2  0
 21 20  1  6
 20 18  1  0
 21 22  1  0
 21 23  1  0
 23 24  1  0
 25 23  2  0
M  END
$$$$
