KQD.pdb
     RDKit          3D

 27 26  0  0  1  0  0  0  0  0999 V2000
   16.9324  -12.6387  -16.8993 N   0  0  0  0  0  0  0  0  0  0  0  0
   18.1470  -11.8546  -17.0276 C   0  0  1  0  0  0  0  0  0  0  0  0
   18.3261  -11.5640  -18.5069 C   0  0  0  0  0  0  0  0  0  0  0  0
   18.3370  -12.8426  -19.3106 C   0  0  0  0  0  0  0  0  0  0  0  0
   19.7197  -13.2269  -19.7585 C   0  0  0  0  0  0  0  0  0  0  0  0
   19.7320  -14.4613  -20.6228 C   0  0  0  0  0  0  0  0  0  0  0  0
   21.1204  -14.7360  -20.9571 N   0  0  0  0  0  0  0  0  0  0  0  0
   18.0083  -10.6034  -16.2442 C   0  0  0  0  0  0  0  0  0  0  0  0
   17.0565   -9.8311  -16.5945 O   0  0  0  0  0  0  0  0  0  0  0  0
   16.6977   -9.9667  -10.9163 N   0  0  0  0  0  0  0  0  0  0  0  0
   17.1623   -8.6202  -10.9690 C   0  0  0  0  0  0  0  0  0  0  0  0
   16.9247   -7.8083  -10.0184 O   0  0  0  0  0  0  0  0  0  0  0  0
   17.9333   -8.2142  -12.1682 C   0  0  0  0  0  0  0  0  0  0  0  0
   18.1012   -9.2727  -13.1776 C   0  0  0  0  0  0  0  0  0  0  0  0
   18.7215   -8.9635  -14.4764 C   0  0  2  0  0  0  0  0  0  0  0  0
   18.8439  -10.2547  -15.1840 N   0  0  0  0  0  0  0  0  0  0  0  0
   19.9429   -8.2042  -14.5546 C   0  0  0  0  0  0  0  0  0  0  0  0
   21.1129   -8.6692  -14.5253 O   0  0  0  0  0  0  0  0  0  0  0  0
   19.8512   -6.7757  -14.6786 N   0  0  0  0  0  0  0  0  0  0  0  0
   21.1006   -5.9978  -14.8389 C   0  0  1  0  0  0  0  0  0  0  0  0
   20.7547   -4.6527  -15.3857 C   0  0  0  0  0  0  0  0  0  0  0  0
   21.9081   -3.7523  -15.5931 C   0  0  0  0  0  0  0  0  0  0  0  0
   22.0670   -2.7769  -14.7993 O   0  0  0  0  0  0  0  0  0  0  0  0
   21.6288   -5.8157  -13.4503 C   0  0  0  0  0  0  0  0  0  0  0  0
   22.9094   -5.3544  -13.1914 O   0  0  0  0  0  0  0  0  0  0  0  0
   22.8511   -3.8788  -16.5991 O   0  0  0  0  0  0  0  0  0  0  0  0
   20.8983   -6.0859  -12.4768 O   0  0  0  0  0  0  0  0  0  0  0  0
  2  1  1  6
  3  2  1  0
  4  3  1  0
  5  4  1  0
  6  5  1  0
  7  6  1  0
  8 16  1  0
  8  2  1  0
  9  8  2  0
 10 11  1  0
 11 12  2  0
 11 13  1  0
 13 14  1  0
 15 14  1  1
 15 16  1  0
 15 17  1  0
 17 18  2  0
 19 17  1  0
 19 20  1  0
 20 21  1  1
 21 22  1  0
 22 26  1  0
 23 22  2  0
 24 20  1  0
 24 25  1  0
 27 24  2  0
M  END
$$$$
