KQD.pdb
     RDKit          3D

 27 26  0  0  1  0  0  0  0  0999 V2000
   19.5594  -13.6740  -15.7648 N   0  0  0  0  0  0  0  0  0  0  0  0
   20.1412  -13.3749  -17.0604 C   0  0  1  0  0  0  0  0  0  0  0  0
   19.4035  -14.2258  -18.0785 C   0  0  0  0  0  0  0  0  0  0  0  0
   19.8811  -15.6579  -18.0322 C   0  0  0  0  0  0  0  0  0  0  0  0
   18.8404  -16.5921  -17.4807 C   0  0  0  0  0  0  0  0  0  0  0  0
   19.3011  -18.0266  -17.4482 C   0  0  0  0  0  0  0  0  0  0  0  0
   18.2380  -18.8038  -16.8312 N   0  0  0  0  0  0  0  0  0  0  0  0
   19.9817  -11.9290  -17.3477 C   0  0  0  0  0  0  0  0  0  0  0  0
   20.5575  -11.5055  -18.4032 O   0  0  0  0  0  0  0  0  0  0  0  0
   17.4119   -7.6635  -19.5686 N   0  0  0  0  0  0  0  0  0  0  0  0
   16.7765   -7.3511  -18.3315 C   0  0  0  0  0  0  0  0  0  0  0  0
   16.0560   -6.3092  -18.2106 O   0  0  0  0  0  0  0  0  0  0  0  0
   16.9865   -8.2903  -17.2040 C   0  0  0  0  0  0  0  0  0  0  0  0
   17.8393   -9.4480  -17.5199 C   0  0  0  0  0  0  0  0  0  0  0  0
   19.1398   -9.6126  -16.8498 C   0  0  2  0  0  0  0  0  0  0  0  0
   19.2567  -11.0527  -16.5413 N   0  0  0  0  0  0  0  0  0  0  0  0
   19.4988   -8.8018  -15.7148 C   0  0  0  0  0  0  0  0  0  0  0  0
   19.1239   -8.9766  -14.5253 O   0  0  0  0  0  0  0  0  0  0  0  0
   20.3674   -7.6771  -15.9274 N   0  0  0  0  0  0  0  0  0  0  0  0
   20.7397   -6.8408  -14.7639 C   0  0  1  0  0  0  0  0  0  0  0  0
   22.0516   -6.1885  -15.0492 C   0  0  0  0  0  0  0  0  0  0  0  0
   22.5075   -5.2348  -14.0166 C   0  0  0  0  0  0  0  0  0  0  0  0
   22.6171   -5.6414  -12.8210 O   0  0  0  0  0  0  0  0  0  0  0  0
   19.6921   -5.7737  -14.6981 C   0  0  0  0  0  0  0  0  0  0  0  0
   19.2404   -5.2415  -13.5012 O   0  0  0  0  0  0  0  0  0  0  0  0
   22.8315   -3.9074  -14.2406 O   0  0  0  0  0  0  0  0  0  0  0  0
   19.1966   -5.3359  -15.7550 O   0  0  0  0  0  0  0  0  0  0  0  0
  2  1  1  1
  3  2  1  0
  4  3  1  0
  5  4  1  0
  6  5  1  0
  7  6  1  0
  8 16  1  0
  8  2  1  0
  9  8  2  0
 10 11  1  0
 11 12  2  0
 11 13  1  0
 13 14  1  0
 15 14  1  1
 15 16  1  0
 15 17  1  0
 17 18  2  0
 19 17  1  0
 19 20  1  0
 20 21  1  6
 21 22  1  0
 22 26  1  0
 23 22  2  0
 24 20  1  0
 24 25  1  0
 27 24  2  0
M  END
$$$$
