KQD.pdb
     RDKit          3D

 27 26  0  0  1  0  0  0  0  0999 V2000
   18.2401  -14.9091  -18.2160 N   0  0  0  0  0  0  0  0  0  0  0  0
   18.8049  -14.1358  -17.1254 C   0  0  1  0  0  0  0  0  0  0  0  0
   20.2955  -14.4234  -17.1109 C   0  0  0  0  0  0  0  0  0  0  0  0
   20.5595  -15.8921  -16.8783 C   0  0  0  0  0  0  0  0  0  0  0  0
   20.2378  -16.3172  -15.4726 C   0  0  0  0  0  0  0  0  0  0  0  0
   20.4431  -17.7929  -15.2469 C   0  0  0  0  0  0  0  0  0  0  0  0
   20.1964  -18.0487  -13.8367 N   0  0  0  0  0  0  0  0  0  0  0  0
   18.5346  -12.6959  -17.3535 C   0  0  0  0  0  0  0  0  0  0  0  0
   19.3245  -12.1032  -18.1596 O   0  0  0  0  0  0  0  0  0  0  0  0
   14.7034   -8.7149  -19.1152 N   0  0  0  0  0  0  0  0  0  0  0  0
   14.6527  -10.1034  -19.4332 C   0  0  0  0  0  0  0  0  0  0  0  0
   14.1178  -10.5080  -20.5147 O   0  0  0  0  0  0  0  0  0  0  0  0
   15.2519  -11.0457  -18.4583 C   0  0  0  0  0  0  0  0  0  0  0  0
   15.8356  -10.4077  -17.2668 C   0  0  0  0  0  0  0  0  0  0  0  0
   17.2721  -10.5537  -16.9793 C   0  0  2  0  0  0  0  0  0  0  0  0
   17.4935  -11.9956  -16.7456 N   0  0  0  0  0  0  0  0  0  0  0  0
   17.9125   -9.7534  -15.9675 C   0  0  0  0  0  0  0  0  0  0  0  0
   18.0622  -10.0632  -14.7561 O   0  0  0  0  0  0  0  0  0  0  0  0
   18.4422   -8.4723  -16.3452 N   0  0  0  0  0  0  0  0  0  0  0  0
   19.0867   -7.6387  -15.3052 C   0  0  1  0  0  0  0  0  0  0  0  0
   20.5670   -7.7311  -15.4736 C   0  0  0  0  0  0  0  0  0  0  0  0
   21.3456   -6.7888  -14.6432 C   0  0  0  0  0  0  0  0  0  0  0  0
   22.5651   -6.5933  -14.9283 O   0  0  0  0  0  0  0  0  0  0  0  0
   18.6683   -6.2352  -15.6140 C   0  0  0  0  0  0  0  0  0  0  0  0
   18.6675   -5.2281  -14.6624 O   0  0  0  0  0  0  0  0  0  0  0  0
   20.8539   -6.0855  -13.5564 O   0  0  0  0  0  0  0  0  0  0  0  0
   18.3031   -5.9454  -16.7703 O   0  0  0  0  0  0  0  0  0  0  0  0
  2  1  1  6
  3  2  1  0
  4  3  1  0
  5  4  1  0
  6  5  1  0
  7  6  1  0
  8 16  1  0
  8  2  1  0
  9  8  2  0
 10 11  1  0
 11 12  2  0
 11 13  1  0
 13 14  1  0
 15 14  1  1
 15 16  1  0
 15 17  1  0
 17 18  2  0
 19 17  1  0
 19 20  1  0
 20 21  1  6
 21 22  1  0
 22 26  1  0
 23 22  2  0
 24 20  1  0
 24 25  1  0
 27 24  2  0
M  END
$$$$
