KQD.pdb
     RDKit          3D

 27 26  0  0  1  0  0  0  0  0999 V2000
   26.0012  -23.2553  -17.7505 N   0  0  0  0  0  0  0  0  0  0  0  0
   25.2734  -23.8602  -16.6500 C   0  0  1  0  0  0  0  0  0  0  0  0
   26.2022  -24.8833  -16.0210 C   0  0  0  0  0  0  0  0  0  0  0  0
   26.7364  -25.8388  -17.0613 C   0  0  0  0  0  0  0  0  0  0  0  0
   27.6994  -26.8375  -16.4823 C   0  0  0  0  0  0  0  0  0  0  0  0
   28.3388  -27.7094  -17.5321 C   0  0  0  0  0  0  0  0  0  0  0  0
   29.2683  -28.5931  -16.8467 N   0  0  0  0  0  0  0  0  0  0  0  0
   24.8906  -22.8082  -15.6778 C   0  0  0  0  0  0  0  0  0  0  0  0
   24.4917  -23.2219  -14.5399 O   0  0  0  0  0  0  0  0  0  0  0  0
   27.3033  -18.1212  -16.8139 N   0  0  0  0  0  0  0  0  0  0  0  0
   27.9470  -19.1404  -16.0532 C   0  0  0  0  0  0  0  0  0  0  0  0
   29.1849  -19.3906  -16.2096 O   0  0  0  0  0  0  0  0  0  0  0  0
   27.1174  -19.8849  -15.0760 C   0  0  0  0  0  0  0  0  0  0  0  0
   25.7182  -19.4352  -14.9899 C   0  0  0  0  0  0  0  0  0  0  0  0
   24.6272  -20.4219  -14.9303 C   0  0  2  0  0  0  0  0  0  0  0  0
   24.9480  -21.4420  -15.9497 N   0  0  0  0  0  0  0  0  0  0  0  0
   23.2490  -20.0118  -15.0134 C   0  0  0  0  0  0  0  0  0  0  0  0
   22.6181  -19.7274  -16.0655 O   0  0  0  0  0  0  0  0  0  0  0  0
   22.4938  -19.9075  -13.7956 N   0  0  0  0  0  0  0  0  0  0  0  0
   21.0239  -19.7557  -13.8854 C   0  0  1  0  0  0  0  0  0  0  0  0
   20.5413  -20.5118  -15.0785 C   0  0  0  0  0  0  0  0  0  0  0  0
   19.2770  -20.0132  -15.6588 C   0  0  0  0  0  0  0  0  0  0  0  0
   18.1820  -20.4589  -15.2015 O   0  0  0  0  0  0  0  0  0  0  0  0
   20.4858  -20.4250  -12.6595 C   0  0  0  0  0  0  0  0  0  0  0  0
   21.2923  -21.1143  -11.7683 O   0  0  0  0  0  0  0  0  0  0  0  0
   19.1771  -19.0841  -16.6807 O   0  0  0  0  0  0  0  0  0  0  0  0
   19.2642  -20.3684  -12.4170 O   0  0  0  0  0  0  0  0  0  0  0  0
  2  1  1  6
  3  2  1  0
  4  3  1  0
  5  4  1  0
  6  5  1  0
  7  6  1  0
  8 16  1  0
  8  2  1  0
  9  8  2  0
 10 11  1  0
 11 12  2  0
 11 13  1  0
 13 14  1  0
 15 14  1  6
 15 16  1  0
 15 17  1  0
 17 18  2  0
 19 17  1  0
 19 20  1  0
 20 21  1  6
 21 22  1  0
 22 26  1  0
 23 22  2  0
 24 20  1  0
 24 25  1  0
 27 24  2  0
M  END
$$$$
