KQD.pdb
     RDKit          3D

 27 26  0  0  1  0  0  0  0  0999 V2000
   20.8325  -12.1648  -15.6558 N   0  0  0  0  0  0  0  0  0  0  0  0
   20.1960  -11.2743  -16.6089 C   0  0  1  0  0  0  0  0  0  0  0  0
   19.0954  -12.0717  -17.2854 C   0  0  0  0  0  0  0  0  0  0  0  0
   19.6222  -13.3906  -17.7991 C   0  0  0  0  0  0  0  0  0  0  0  0
   18.5689  -14.1894  -18.5150 C   0  0  0  0  0  0  0  0  0  0  0  0
   19.0624  -15.5426  -18.9584 C   0  0  0  0  0  0  0  0  0  0  0  0
   17.9652  -16.1895  -19.6602 N   0  0  0  0  0  0  0  0  0  0  0  0
   19.6481  -10.0982  -15.8913 C   0  0  0  0  0  0  0  0  0  0  0  0
   19.0255   -9.2492  -16.6101 O   0  0  0  0  0  0  0  0  0  0  0  0
   17.0364  -10.2389  -10.5034 N   0  0  0  0  0  0  0  0  0  0  0  0
   16.3511  -10.3682  -11.7465 C   0  0  0  0  0  0  0  0  0  0  0  0
   15.1948  -10.8964  -11.8045 O   0  0  0  0  0  0  0  0  0  0  0  0
   17.0381   -9.8581  -12.9570 C   0  0  0  0  0  0  0  0  0  0  0  0
   18.3846   -9.3143  -12.7155 C   0  0  0  0  0  0  0  0  0  0  0  0
   19.1622   -8.7449  -13.8285 C   0  0  2  0  0  0  0  0  0  0  0  0
   19.7825   -9.8946  -14.5186 N   0  0  0  0  0  0  0  0  0  0  0  0
   20.1165   -7.6896  -13.6049 C   0  0  0  0  0  0  0  0  0  0  0  0
   21.2937   -7.8269  -13.1793 O   0  0  0  0  0  0  0  0  0  0  0  0
   19.7170   -6.3381  -13.8850 N   0  0  0  0  0  0  0  0  0  0  0  0
   20.7090   -5.2546  -13.7013 C   0  0  1  0  0  0  0  0  0  0  0  0
   21.6986   -5.3238  -14.8165 C   0  0  0  0  0  0  0  0  0  0  0  0
   22.6499   -4.1943  -14.8723 C   0  0  0  0  0  0  0  0  0  0  0  0
   23.0786   -3.7075  -13.7833 O   0  0  0  0  0  0  0  0  0  0  0  0
   19.9313   -3.9838  -13.8451 C   0  0  0  0  0  0  0  0  0  0  0  0
   20.4359   -2.7507  -13.4649 O   0  0  0  0  0  0  0  0  0  0  0  0
   23.1248   -3.6047  -16.0318 O   0  0  0  0  0  0  0  0  0  0  0  0
   18.7813   -4.0205  -14.3251 O   0  0  0  0  0  0  0  0  0  0  0  0
  2  1  1  1
  3  2  1  0
  4  3  1  0
  5  4  1  0
  6  5  1  0
  7  6  1  0
  8 16  1  0
  8  2  1  0
  9  8  2  0
 10 11  1  0
 11 12  2  0
 11 13  1  0
 13 14  1  0
 15 14  1  1
 15 16  1  0
 15 17  1  0
 17 18  2  0
 19 17  1  0
 19 20  1  0
 20 21  1  6
 21 22  1  0
 22 26  1  0
 23 22  2  0
 24 20  1  0
 24 25  1  0
 27 24  2  0
M  END
$$$$
