KQD.pdb
     RDKit          3D

 27 26  0  0  1  0  0  0  0  0999 V2000
   20.5598  -13.5045  -18.7897 N   0  0  0  0  0  0  0  0  0  0  0  0
   21.5569  -12.4553  -18.6813 C   0  0  1  0  0  0  0  0  0  0  0  0
   22.3831  -12.5035  -19.9540 C   0  0  0  0  0  0  0  0  0  0  0  0
   23.0254  -13.8590  -20.1295 C   0  0  0  0  0  0  0  0  0  0  0  0
   23.7651  -13.9790  -21.4328 C   0  0  0  0  0  0  0  0  0  0  0  0
   24.3696  -15.3440  -21.6382 C   0  0  0  0  0  0  0  0  0  0  0  0
   25.7077  -15.3096  -21.0696 N   0  0  0  0  0  0  0  0  0  0  0  0
   20.8771  -11.1466  -18.5275 C   0  0  0  0  0  0  0  0  0  0  0  0
   19.9399  -10.9065  -19.3575 O   0  0  0  0  0  0  0  0  0  0  0  0
   16.4506   -9.9875  -18.2057 N   0  0  0  0  0  0  0  0  0  0  0  0
   16.5748   -8.8771  -17.3206 C   0  0  0  0  0  0  0  0  0  0  0  0
   15.5560   -8.1956  -16.9788 O   0  0  0  0  0  0  0  0  0  0  0  0
   17.9320   -8.5593  -16.8161 C   0  0  0  0  0  0  0  0  0  0  0  0
   18.9947   -9.4505  -17.3095 C   0  0  0  0  0  0  0  0  0  0  0  0
   20.3962   -8.9996  -17.3101 C   0  0  2  0  0  0  0  0  0  0  0  0
   21.2102  -10.2089  -17.5511 N   0  0  0  0  0  0  0  0  0  0  0  0
   20.9260   -8.2184  -16.2223 C   0  0  0  0  0  0  0  0  0  0  0  0
   21.2077   -8.6401  -15.0696 O   0  0  0  0  0  0  0  0  0  0  0  0
   21.1673   -6.8191  -16.4418 N   0  0  0  0  0  0  0  0  0  0  0  0
   21.6347   -5.9948  -15.3043 C   0  0  1  0  0  0  0  0  0  0  0  0
   21.9785   -4.6347  -15.8141 C   0  0  0  0  0  0  0  0  0  0  0  0
   22.4298   -3.6806  -14.7798 C   0  0  0  0  0  0  0  0  0  0  0  0
   22.2763   -2.4400  -14.9901 O   0  0  0  0  0  0  0  0  0  0  0  0
   20.4490   -5.8684  -14.3996 C   0  0  0  0  0  0  0  0  0  0  0  0
   20.5617   -5.5269  -13.0615 O   0  0  0  0  0  0  0  0  0  0  0  0
   23.0201   -4.0258  -13.5757 O   0  0  0  0  0  0  0  0  0  0  0  0
   19.3068   -6.0759  -14.8543 O   0  0  0  0  0  0  0  0  0  0  0  0
  2  1  1  6
  3  2  1  0
  4  3  1  0
  5  4  1  0
  6  5  1  0
  7  6  1  0
  8 16  1  0
  8  2  1  0
  9  8  2  0
 10 11  1  0
 11 12  2  0
 11 13  1  0
 13 14  1  0
 15 14  1  1
 15 16  1  0
 15 17  1  0
 17 18  2  0
 19 17  1  0
 19 20  1  0
 20 21  1  6
 21 22  1  0
 22 26  1  0
 23 22  2  0
 24 20  1  0
 24 25  1  0
 27 24  2  0
M  END
$$$$
