KQD.pdb
     RDKit          3D

 27 26  0  0  1  0  0  0  0  0999 V2000
   22.3380  -13.7443  -17.4886 N   0  0  0  0  0  0  0  0  0  0  0  0
   21.5453  -12.5330  -17.5930 C   0  0  1  0  0  0  0  0  0  0  0  0
   20.1253  -12.9044  -17.2052 C   0  0  0  0  0  0  0  0  0  0  0  0
   19.6213  -14.0565  -18.0416 C   0  0  0  0  0  0  0  0  0  0  0  0
   18.1524  -14.3091  -17.8444 C   0  0  0  0  0  0  0  0  0  0  0  0
   17.6243  -15.4076  -18.7306 C   0  0  0  0  0  0  0  0  0  0  0  0
   16.1895  -15.4858  -18.5066 N   0  0  0  0  0  0  0  0  0  0  0  0
   22.1018  -11.5026  -16.6835 C   0  0  0  0  0  0  0  0  0  0  0  0
   21.7257  -11.5733  -15.4675 O   0  0  0  0  0  0  0  0  0  0  0  0
   27.7195   -9.7814  -16.0934 N   0  0  0  0  0  0  0  0  0  0  0  0
   27.0418  -10.9437  -15.6227 C   0  0  0  0  0  0  0  0  0  0  0  0
   27.6906  -11.9632  -15.2243 O   0  0  0  0  0  0  0  0  0  0  0  0
   25.5598  -10.9084  -15.6128 C   0  0  0  0  0  0  0  0  0  0  0  0
   24.9716   -9.6685  -16.1456 C   0  0  0  0  0  0  0  0  0  0  0  0
   23.5105   -9.4880  -16.1545 C   0  0  2  0  0  0  0  0  0  0  0  0
   22.9833  -10.5022  -17.0907 N   0  0  0  0  0  0  0  0  0  0  0  0
   22.9228   -8.1953  -16.3954 C   0  0  0  0  0  0  0  0  0  0  0  0
   22.8593   -7.6001  -17.5033 O   0  0  0  0  0  0  0  0  0  0  0  0
   22.3448   -7.4912  -15.2843 N   0  0  0  0  0  0  0  0  0  0  0  0
   21.8046   -6.1318  -15.5119 C   0  0  1  0  0  0  0  0  0  0  0  0
   20.3156   -6.1931  -15.4281 C   0  0  0  0  0  0  0  0  0  0  0  0
   19.6308   -4.8948  -15.5997 C   0  0  0  0  0  0  0  0  0  0  0  0
   19.2247   -4.2817  -14.5673 O   0  0  0  0  0  0  0  0  0  0  0  0
   22.3039   -5.3147  -14.3615 C   0  0  0  0  0  0  0  0  0  0  0  0
   22.4050   -3.9338  -14.4125 O   0  0  0  0  0  0  0  0  0  0  0  0
   19.3852   -4.2740  -16.8128 O   0  0  0  0  0  0  0  0  0  0  0  0
   22.6464   -5.8860  -13.3076 O   0  0  0  0  0  0  0  0  0  0  0  0
  2  1  1  1
  3  2  1  0
  4  3  1  0
  5  4  1  0
  6  5  1  0
  7  6  1  0
  8 16  1  0
  8  2  1  0
  9  8  2  0
 10 11  1  0
 11 12  2  0
 11 13  1  0
 13 14  1  0
 15 14  1  6
 15 16  1  0
 15 17  1  0
 17 18  2  0
 19 17  1  0
 19 20  1  0
 20 21  1  1
 21 22  1  0
 22 26  1  0
 23 22  2  0
 24 20  1  0
 24 25  1  0
 27 24  2  0
M  END
$$$$
