KQD.pdb
     RDKit          3D

 27 26  0  0  1  0  0  0  0  0999 V2000
   28.6395  -21.6038  -16.9756 N   0  0  0  0  0  0  0  0  0  0  0  0
   27.8354  -20.4443  -16.6356 C   0  0  1  0  0  0  0  0  0  0  0  0
   27.1166  -20.0229  -17.9047 C   0  0  0  0  0  0  0  0  0  0  0  0
   28.0867  -19.4458  -18.9081 C   0  0  0  0  0  0  0  0  0  0  0  0
   28.5567  -18.0699  -18.5259 C   0  0  0  0  0  0  0  0  0  0  0  0
   29.3981  -17.4218  -19.5950 C   0  0  0  0  0  0  0  0  0  0  0  0
   29.8933  -16.1682  -19.0489 N   0  0  0  0  0  0  0  0  0  0  0  0
   26.8750  -20.8097  -15.5667 C   0  0  0  0  0  0  0  0  0  0  0  0
   26.2584  -21.9138  -15.7274 O   0  0  0  0  0  0  0  0  0  0  0  0
   26.4425  -22.1383  -10.5518 N   0  0  0  0  0  0  0  0  0  0  0  0
   25.3663  -21.2729  -10.1987 C   0  0  0  0  0  0  0  0  0  0  0  0
   24.5562  -21.5824   -9.2674 O   0  0  0  0  0  0  0  0  0  0  0  0
   25.2388  -20.0044  -10.9550 C   0  0  0  0  0  0  0  0  0  0  0  0
   26.0913  -19.9147  -12.1518 C   0  0  0  0  0  0  0  0  0  0  0  0
   25.5802  -20.3611  -13.4583 C   0  0  2  0  0  0  0  0  0  0  0  0
   26.6314  -20.0247  -14.4405 N   0  0  0  0  0  0  0  0  0  0  0  0
   24.2782  -19.9581  -13.9241 C   0  0  0  0  0  0  0  0  0  0  0  0
   23.9665  -18.8254  -14.3777 O   0  0  0  0  0  0  0  0  0  0  0  0
   23.2106  -20.9186  -13.8797 N   0  0  0  0  0  0  0  0  0  0  0  0
   21.8545  -20.4884  -14.2893 C   0  0  1  0  0  0  0  0  0  0  0  0
   21.5026  -21.1799  -15.5645 C   0  0  0  0  0  0  0  0  0  0  0  0
   20.1598  -20.8611  -16.0927 C   0  0  0  0  0  0  0  0  0  0  0  0
   19.4565  -20.0004  -15.4833 O   0  0  0  0  0  0  0  0  0  0  0  0
   20.9425  -20.9954  -13.2161 C   0  0  0  0  0  0  0  0  0  0  0  0
   19.6361  -20.5558  -13.0749 O   0  0  0  0  0  0  0  0  0  0  0  0
   19.5862  -21.4309  -17.2168 O   0  0  0  0  0  0  0  0  0  0  0  0
   21.3613  -21.8483  -12.4090 O   0  0  0  0  0  0  0  0  0  0  0  0
  2  1  1  6
  3  2  1  0
  4  3  1  0
  5  4  1  0
  6  5  1  0
  7  6  1  0
  8 16  1  0
  8  2  1  0
  9  8  2  0
 10 11  1  0
 11 12  2  0
 11 13  1  0
 13 14  1  0
 15 14  1  1
 15 16  1  0
 15 17  1  0
 17 18  2  0
 19 17  1  0
 19 20  1  0
 20 21  1  6
 21 22  1  0
 22 26  1  0
 23 22  2  0
 24 20  1  0
 24 25  1  0
 27 24  2  0
M  END
$$$$
