KQD.pdb
     RDKit          3D

 27 26  0  0  1  0  0  0  0  0999 V2000
   18.2898  -14.0646  -16.0682 N   0  0  0  0  0  0  0  0  0  0  0  0
   18.5044  -12.8802  -16.8794 C   0  0  1  0  0  0  0  0  0  0  0  0
   17.1961  -12.5974  -17.5957 C   0  0  0  0  0  0  0  0  0  0  0  0
   16.2718  -13.7895  -17.5220 C   0  0  0  0  0  0  0  0  0  0  0  0
   14.9815  -13.5614  -18.2590 C   0  0  0  0  0  0  0  0  0  0  0  0
   14.0279  -14.7223  -18.1409 C   0  0  0  0  0  0  0  0  0  0  0  0
   12.8175  -14.3570  -18.8596 N   0  0  0  0  0  0  0  0  0  0  0  0
   18.8960  -11.7500  -16.0032 C   0  0  0  0  0  0  0  0  0  0  0  0
   18.2663  -11.6592  -14.8986 O   0  0  0  0  0  0  0  0  0  0  0  0
   24.2002   -9.7843  -14.1794 N   0  0  0  0  0  0  0  0  0  0  0  0
   23.9665  -10.3810  -15.4526 C   0  0  0  0  0  0  0  0  0  0  0  0
   24.9335  -10.7963  -16.1681 O   0  0  0  0  0  0  0  0  0  0  0  0
   22.5578  -10.5001  -15.8985 C   0  0  0  0  0  0  0  0  0  0  0  0
   21.5778   -9.8409  -15.0197 C   0  0  0  0  0  0  0  0  0  0  0  0
   20.1873   -9.6597  -15.4682 C   0  0  2  0  0  0  0  0  0  0  0  0
   19.8849  -10.8224  -16.3282 N   0  0  0  0  0  0  0  0  0  0  0  0
   19.7584   -8.4284  -16.0801 C   0  0  0  0  0  0  0  0  0  0  0  0
   19.7092   -8.1873  -17.3151 O   0  0  0  0  0  0  0  0  0  0  0  0
   19.3399   -7.3518  -15.2255 N   0  0  0  0  0  0  0  0  0  0  0  0
   18.9333   -6.0716  -15.8480 C   0  0  1  0  0  0  0  0  0  0  0  0
   17.7513   -5.5390  -15.1082 C   0  0  0  0  0  0  0  0  0  0  0  0
   17.2573   -4.2314  -15.5877 C   0  0  0  0  0  0  0  0  0  0  0  0
   17.5121   -3.8867  -16.7806 O   0  0  0  0  0  0  0  0  0  0  0  0
   20.0845   -5.1426  -15.6197 C   0  0  0  0  0  0  0  0  0  0  0  0
   20.2647   -3.9803  -16.3521 O   0  0  0  0  0  0  0  0  0  0  0  0
   16.5268   -3.3272  -14.8353 O   0  0  0  0  0  0  0  0  0  0  0  0
   20.9237   -5.4124  -14.7380 O   0  0  0  0  0  0  0  0  0  0  0  0
  2  1  1  1
  3  2  1  0
  4  3  1  0
  5  4  1  0
  6  5  1  0
  7  6  1  0
  8 16  1  0
  8  2  1  0
  9  8  2  0
 10 11  1  0
 11 12  2  0
 11 13  1  0
 13 14  1  0
 15 14  1  6
 15 16  1  0
 15 17  1  0
 17 18  2  0
 19 17  1  0
 19 20  1  0
 20 21  1  1
 21 22  1  0
 22 26  1  0
 23 22  2  0
 24 20  1  0
 24 25  1  0
 27 24  2  0
M  END
$$$$
