KQD.pdb
     RDKit          3D

 27 26  0  0  1  0  0  0  0  0999 V2000
   27.4651  -20.2216  -16.0367 N   0  0  0  0  0  0  0  0  0  0  0  0
   26.8451  -21.5339  -16.0367 C   0  0  1  0  0  0  0  0  0  0  0  0
   27.9678  -22.5484  -15.9127 C   0  0  0  0  0  0  0  0  0  0  0  0
   28.8177  -22.5679  -17.1610 C   0  0  0  0  0  0  0  0  0  0  0  0
   29.9174  -23.5906  -17.0903 C   0  0  0  0  0  0  0  0  0  0  0  0
   30.7748  -23.6133  -18.3294 C   0  0  0  0  0  0  0  0  0  0  0  0
   31.9089  -24.4797  -18.0494 N   0  0  0  0  0  0  0  0  0  0  0  0
   25.9013  -21.6305  -14.8972 C   0  0  0  0  0  0  0  0  0  0  0  0
   25.2699  -22.7328  -14.7908 O   0  0  0  0  0  0  0  0  0  0  0  0
   24.4891  -20.8763   -9.2446 N   0  0  0  0  0  0  0  0  0  0  0  0
   25.8396  -21.1238   -9.6278 C   0  0  0  0  0  0  0  0  0  0  0  0
   26.6375  -21.7407   -8.8519 O   0  0  0  0  0  0  0  0  0  0  0  0
   26.2665  -20.6394  -10.9623 C   0  0  0  0  0  0  0  0  0  0  0  0
   25.2011  -20.0027  -11.7540 C   0  0  0  0  0  0  0  0  0  0  0  0
   24.6461  -20.6885  -12.9326 C   0  0  2  0  0  0  0  0  0  0  0  0
   25.6877  -20.6051  -13.9771 N   0  0  0  0  0  0  0  0  0  0  0  0
   23.3502  -20.3381  -13.4544 C   0  0  0  0  0  0  0  0  0  0  0  0
   23.0554  -19.2793  -14.0691 O   0  0  0  0  0  0  0  0  0  0  0  0
   22.2680  -21.2655  -13.2720 N   0  0  0  0  0  0  0  0  0  0  0  0
   20.9216  -20.8859  -13.7567 C   0  0  1  0  0  0  0  0  0  0  0  0
   20.5690  -21.7625  -14.9122 C   0  0  0  0  0  0  0  0  0  0  0  0
   19.2178  -21.5419  -15.4684 C   0  0  0  0  0  0  0  0  0  0  0  0
   18.2236  -21.5868  -14.6833 O   0  0  0  0  0  0  0  0  0  0  0  0
   19.9941  -21.2072  -12.6267 C   0  0  0  0  0  0  0  0  0  0  0  0
   19.9903  -22.4369  -11.9884 O   0  0  0  0  0  0  0  0  0  0  0  0
   18.9321  -21.2866  -16.7990 O   0  0  0  0  0  0  0  0  0  0  0  0
   19.1863  -20.3431  -12.2328 O   0  0  0  0  0  0  0  0  0  0  0  0
  2  1  1  1
  3  2  1  0
  4  3  1  0
  5  4  1  0
  6  5  1  0
  7  6  1  0
  8 16  1  0
  8  2  1  0
  9  8  2  0
 10 11  1  0
 11 12  2  0
 11 13  1  0
 13 14  1  0
 15 14  1  1
 15 16  1  0
 15 17  1  0
 17 18  2  0
 19 17  1  0
 19 20  1  0
 20 21  1  6
 21 22  1  0
 22 26  1  0
 23 22  2  0
 24 20  1  0
 24 25  1  0
 27 24  2  0
M  END
$$$$
