KQD.pdb
     RDKit          3D

 27 26  0  0  1  0  0  0  0  0999 V2000
   19.8368  -14.8628  -16.0708 N   0  0  0  0  0  0  0  0  0  0  0  0
   19.2575  -13.6428  -16.6024 C   0  0  1  0  0  0  0  0  0  0  0  0
   18.0208  -13.3478  -15.7727 C   0  0  0  0  0  0  0  0  0  0  0  0
   17.2055  -14.6003  -15.5551 C   0  0  0  0  0  0  0  0  0  0  0  0
   16.0513  -14.3780  -14.6179 C   0  0  0  0  0  0  0  0  0  0  0  0
   15.2097  -15.6130  -14.4239 C   0  0  0  0  0  0  0  0  0  0  0  0
   14.1473  -15.2653  -13.4936 N   0  0  0  0  0  0  0  0  0  0  0  0
   20.2492  -12.5450  -16.5031 C   0  0  0  0  0  0  0  0  0  0  0  0
   21.1612  -12.6978  -15.6256 O   0  0  0  0  0  0  0  0  0  0  0  0
   23.0011   -8.7343  -20.5598 N   0  0  0  0  0  0  0  0  0  0  0  0
   23.8526   -9.6539  -19.8809 C   0  0  0  0  0  0  0  0  0  0  0  0
   25.0900   -9.7335  -20.1668 O   0  0  0  0  0  0  0  0  0  0  0  0
   23.2375  -10.5014  -18.8316 C   0  0  0  0  0  0  0  0  0  0  0  0
   21.8138  -10.2267  -18.5769 C   0  0  0  0  0  0  0  0  0  0  0  0
   21.2676  -10.3593  -17.2162 C   0  0  2  0  0  0  0  0  0  0  0  0
   20.2230  -11.4008  -17.2992 N   0  0  0  0  0  0  0  0  0  0  0  0
   20.8039   -9.2076  -16.4861 C   0  0  0  0  0  0  0  0  0  0  0  0
   19.6337   -8.7423  -16.4928 O   0  0  0  0  0  0  0  0  0  0  0  0
   21.7432   -8.4995  -15.6611 N   0  0  0  0  0  0  0  0  0  0  0  0
   21.2661   -7.3287  -14.8907 C   0  0  1  0  0  0  0  0  0  0  0  0
   22.3107   -6.9626  -13.8892 C   0  0  0  0  0  0  0  0  0  0  0  0
   21.9949   -5.7736  -13.0704 C   0  0  0  0  0  0  0  0  0  0  0  0
   20.9560   -5.7951  -12.3445 O   0  0  0  0  0  0  0  0  0  0  0  0
   21.1664   -6.2179  -15.8889 C   0  0  0  0  0  0  0  0  0  0  0  0
   21.8794   -6.2132  -17.0769 O   0  0  0  0  0  0  0  0  0  0  0  0
   22.7463   -4.6114  -13.0242 O   0  0  0  0  0  0  0  0  0  0  0  0
   20.4152   -5.2506  -15.6557 O   0  0  0  0  0  0  0  0  0  0  0  0
  2  1  1  1
  3  2  1  0
  4  3  1  0
  5  4  1  0
  6  5  1  0
  7  6  1  0
  8 16  1  0
  8  2  1  0
  9  8  2  0
 10 11  1  0
 11 12  2  0
 11 13  1  0
 13 14  1  0
 15 14  1  6
 15 16  1  0
 15 17  1  0
 17 18  2  0
 19 17  1  0
 19 20  1  0
 20 21  1  1
 21 22  1  0
 22 26  1  0
 23 22  2  0
 24 20  1  0
 24 25  1  0
 27 24  2  0
M  END
$$$$
