KQD.pdb
     RDKit          3D

 27 26  0  0  1  0  0  0  0  0999 V2000
   28.5612  -20.1717  -16.1162 N   0  0  0  0  0  0  0  0  0  0  0  0
   27.5680  -19.2976  -15.5195 C   0  0  1  0  0  0  0  0  0  0  0  0
   27.5564  -18.0221  -16.3428 C   0  0  0  0  0  0  0  0  0  0  0  0
   28.2128  -18.2403  -17.6853 C   0  0  0  0  0  0  0  0  0  0  0  0
   28.3510  -16.9657  -18.4703 C   0  0  0  0  0  0  0  0  0  0  0  0
   28.9107  -17.1879  -19.8517 C   0  0  0  0  0  0  0  0  0  0  0  0
   29.0613  -15.8793  -20.4682 N   0  0  0  0  0  0  0  0  0  0  0  0
   26.2460  -19.9684  -15.5439 C   0  0  0  0  0  0  0  0  0  0  0  0
   26.2044  -21.0927  -16.1433 O   0  0  0  0  0  0  0  0  0  0  0  0
   25.2005  -23.7612  -12.9146 N   0  0  0  0  0  0  0  0  0  0  0  0
   23.7864  -23.6792  -13.0734 C   0  0  0  0  0  0  0  0  0  0  0  0
   23.0291  -24.6289  -12.6943 O   0  0  0  0  0  0  0  0  0  0  0  0
   23.2426  -22.4452  -13.6892 C   0  0  0  0  0  0  0  0  0  0  0  0
   24.2602  -21.4625  -14.0966 C   0  0  0  0  0  0  0  0  0  0  0  0
   23.8595  -20.2306  -14.7962 C   0  0  2  0  0  0  0  0  0  0  0  0
   25.0957  -19.4385  -14.9608 N   0  0  0  0  0  0  0  0  0  0  0  0
   22.7760  -19.4173  -14.3074 C   0  0  0  0  0  0  0  0  0  0  0  0
   22.7682  -18.7491  -13.2400 O   0  0  0  0  0  0  0  0  0  0  0  0
   21.5739  -19.3403  -15.0906 N   0  0  0  0  0  0  0  0  0  0  0  0
   20.4611  -18.4975  -14.5976 C   0  0  1  0  0  0  0  0  0  0  0  0
   19.5678  -18.1711  -15.7480 C   0  0  0  0  0  0  0  0  0  0  0  0
   18.7190  -16.9770  -15.5547 C   0  0  0  0  0  0  0  0  0  0  0  0
   18.7718  -16.3682  -14.4442 O   0  0  0  0  0  0  0  0  0  0  0  0
   19.7004  -19.3700  -13.6486 C   0  0  0  0  0  0  0  0  0  0  0  0
   18.9699  -18.8617  -12.5866 O   0  0  0  0  0  0  0  0  0  0  0  0
   17.8503  -16.4518  -16.4965 O   0  0  0  0  0  0  0  0  0  0  0  0
   19.7152  -20.6065  -13.8075 O   0  0  0  0  0  0  0  0  0  0  0  0
  2  1  1  6
  3  2  1  0
  4  3  1  0
  5  4  1  0
  6  5  1  0
  7  6  1  0
  8 16  1  0
  8  2  1  0
  9  8  2  0
 10 11  1  0
 11 12  2  0
 11 13  1  0
 13 14  1  0
 15 14  1  1
 15 16  1  0
 15 17  1  0
 17 18  2  0
 19 17  1  0
 19 20  1  0
 20 21  1  6
 21 22  1  0
 22 26  1  0
 23 22  2  0
 24 20  1  0
 24 25  1  0
 27 24  2  0
M  END
$$$$
