KQD.pdb
     RDKit          3D

 27 26  0  0  1  0  0  0  0  0999 V2000
   26.1867  -19.8962  -16.8954 N   0  0  0  0  0  0  0  0  0  0  0  0
   24.9591  -20.5581  -17.2973 C   0  0  1  0  0  0  0  0  0  0  0  0
   25.3609  -21.7304  -18.1742 C   0  0  0  0  0  0  0  0  0  0  0  0
   26.1796  -21.2655  -19.3550 C   0  0  0  0  0  0  0  0  0  0  0  0
   26.4892  -22.3815  -20.3136 C   0  0  0  0  0  0  0  0  0  0  0  0
   27.3358  -21.9343  -21.4773 C   0  0  0  0  0  0  0  0  0  0  0  0
   27.7483  -23.1319  -22.1918 N   0  0  0  0  0  0  0  0  0  0  0  0
   24.2285  -21.0121  -16.0896 C   0  0  0  0  0  0  0  0  0  0  0  0
   23.2655  -21.8219  -16.2945 O   0  0  0  0  0  0  0  0  0  0  0  0
   26.3670  -21.0067  -10.3975 N   0  0  0  0  0  0  0  0  0  0  0  0
   24.9976  -21.1491  -10.0284 C   0  0  0  0  0  0  0  0  0  0  0  0
   24.6600  -21.2951   -8.8102 O   0  0  0  0  0  0  0  0  0  0  0  0
   23.9933  -21.1134  -11.1182 C   0  0  0  0  0  0  0  0  0  0  0  0
   24.5596  -20.9884  -12.4713 C   0  0  0  0  0  0  0  0  0  0  0  0
   23.6688  -20.9056  -13.6405 C   0  0  2  0  0  0  0  0  0  0  0  0
   24.5418  -20.6042  -14.7937 N   0  0  0  0  0  0  0  0  0  0  0  0
   22.5038  -20.0589  -13.6286 C   0  0  0  0  0  0  0  0  0  0  0  0
   22.4906  -18.8114  -13.4568 O   0  0  0  0  0  0  0  0  0  0  0  0
   21.2172  -20.6662  -13.8293 N   0  0  0  0  0  0  0  0  0  0  0  0
   20.0102  -19.8142  -13.7350 C   0  0  1  0  0  0  0  0  0  0  0  0
   19.4286  -19.6630  -15.1014 C   0  0  0  0  0  0  0  0  0  0  0  0
   18.1269  -18.9651  -15.1476 C   0  0  0  0  0  0  0  0  0  0  0  0
   17.9511  -17.9584  -14.3978 O   0  0  0  0  0  0  0  0  0  0  0  0
   19.0441  -20.5954  -12.9002 C   0  0  0  0  0  0  0  0  0  0  0  0
   19.3432  -21.8451  -12.3820 O   0  0  0  0  0  0  0  0  0  0  0  0
   17.0569  -19.3198  -15.9519 O   0  0  0  0  0  0  0  0  0  0  0  0
   17.9207  -20.1149  -12.6526 O   0  0  0  0  0  0  0  0  0  0  0  0
  2  1  1  1
  3  2  1  0
  4  3  1  0
  5  4  1  0
  6  5  1  0
  7  6  1  0
  8 16  1  0
  8  2  1  0
  9  8  2  0
 10 11  1  0
 11 12  2  0
 11 13  1  0
 13 14  1  0
 15 14  1  1
 15 16  1  0
 15 17  1  0
 17 18  2  0
 19 17  1  0
 19 20  1  0
 20 21  1  6
 21 22  1  0
 22 26  1  0
 23 22  2  0
 24 20  1  0
 24 25  1  0
 27 24  2  0
M  END
$$$$
