NWN.pdb
     RDKit          3D

 31 32  0  0  1  0  0  0  0  0999 V2000
   11.5158  -18.4402   18.3992 N   0  0  0  0  0  0  0  0  0  0  0  0
   11.1846  -17.1656   18.9336 C   0  0  0  0  0  0  0  0  0  0  0  0
   10.7138  -16.3234   18.1048 O   0  0  0  0  0  0  0  0  0  0  0  0
   11.3618  -16.8043   20.3585 C   0  0  0  0  0  0  0  0  0  0  0  0
   10.0785  -17.1198   21.1018 C   0  0  2  0  0  0  0  0  0  0  0  0
    8.9840  -16.3998   20.4587 N   0  0  0  0  0  0  0  0  0  0  0  0
   10.1724  -16.7297   22.5320 C   0  0  0  0  0  0  0  0  0  0  0  0
   11.1711  -16.0451   22.8726 O   0  0  0  0  0  0  0  0  0  0  0  0
    9.1957  -17.0973   23.4921 N   0  0  0  0  0  0  0  0  0  0  0  0
    9.4136  -16.9546   24.9283 C   0  0  1  0  0  0  0  0  0  0  0  0
    8.1349  -16.6993   25.6525 C   0  0  0  0  0  0  0  0  0  0  0  0
    7.4332  -15.4561   25.3037 C   0  0  0  0  0  0  0  0  0  0  0  0
    6.4497  -15.3686   24.3120 C   0  0  0  0  0  0  0  0  0  0  0  0
    5.9756  -14.1261   24.2375 N   0  0  0  0  0  0  0  0  0  0  0  0
    6.6193  -13.3679   25.1603 C   0  0  0  0  0  0  0  0  0  0  0  0
    6.4880  -12.0299   25.4669 C   0  0  0  0  0  0  0  0  0  0  0  0
    7.2570  -11.4575   26.4482 C   0  0  0  0  0  0  0  0  0  0  0  0
    8.1545  -12.2691   27.1045 C   0  0  0  0  0  0  0  0  0  0  0  0
    8.2978  -13.6076   26.8103 C   0  0  0  0  0  0  0  0  0  0  0  0
    7.5316  -14.1960   25.8282 C   0  0  0  0  0  0  0  0  0  0  0  0
   10.2772  -17.9837   25.5062 C   0  0  0  0  0  0  0  0  0  0  0  0
   10.2085  -19.1693   25.0957 O   0  0  0  0  0  0  0  0  0  0  0  0
   14.9117  -20.5093   26.8571 N   0  0  0  0  0  0  0  0  0  0  0  0
   14.3507  -19.4791   27.6434 C   0  0  0  0  0  0  0  0  0  0  0  0
   14.5356  -19.4760   28.8731 O   0  0  0  0  0  0  0  0  0  0  0  0
   13.5552  -18.4221   27.0033 C   0  0  0  0  0  0  0  0  0  0  0  0
   12.1005  -18.7427   27.0628 C   0  0  2  0  0  0  0  0  0  0  0  0
   11.2264  -17.7252   26.5409 N   0  0  0  0  0  0  0  0  0  0  0  0
   11.7301  -18.9815   28.4939 C   0  0  0  0  0  0  0  0  0  0  0  0
   10.7663  -18.2147   29.1485 O   0  0  0  0  0  0  0  0  0  0  0  0
   12.2755  -19.8914   29.1759 O   0  0  0  0  0  0  0  0  0  0  0  0
  2  1  1  0
  2  3  2  0
  4  2  1  0
  5  4  1  0
  5  6  1  6
  7  5  1  0
  7  8  2  0
  9  7  1  0
 10  9  1  0
 10 11  1  1
 12 11  1  0
 12 13  2  0
 14 13  1  0
 15 20  2  0
 15 14  1  0
 16 15  1  0
 17 16  2  0
 18 17  1  0
 18 19  2  0
 19 20  1  0
 20 12  1  0
 21 28  1  0
 21 10  1  0
 22 21  2  0
 23 24  1  0
 24 26  1  0
 25 24  2  0
 27 26  1  1
 27 28  1  0
 27 29  1  0
 29 31  2  0
 29 30  1  0
M  END
$$$$
