NWN.pdb
     RDKit          3D

 31 32  0  0  1  0  0  0  0  0999 V2000
    7.6645  -15.7355   18.1151 N   0  0  0  0  0  0  0  0  0  0  0  0
    7.8371  -14.4581   18.7135 C   0  0  0  0  0  0  0  0  0  0  0  0
    7.5421  -13.4600   17.9822 O   0  0  0  0  0  0  0  0  0  0  0  0
    8.3266  -14.2616   20.0970 C   0  0  0  0  0  0  0  0  0  0  0  0
    8.5913  -15.6206   20.7150 C   0  0  2  0  0  0  0  0  0  0  0  0
    7.3092  -16.2706   20.9666 N   0  0  0  0  0  0  0  0  0  0  0  0
    9.3564  -15.4982   21.9824 C   0  0  0  0  0  0  0  0  0  0  0  0
   10.3990  -14.7952   21.9542 O   0  0  0  0  0  0  0  0  0  0  0  0
    8.9537  -16.1331   23.1847 N   0  0  0  0  0  0  0  0  0  0  0  0
    9.7482  -16.0747   24.4078 C   0  0  1  0  0  0  0  0  0  0  0  0
    8.8858  -16.1355   25.6232 C   0  0  0  0  0  0  0  0  0  0  0  0
    7.7568  -15.1954   25.6606 C   0  0  0  0  0  0  0  0  0  0  0  0
    6.4225  -15.5725   25.4714 C   0  0  0  0  0  0  0  0  0  0  0  0
    5.6210  -14.5149   25.5861 N   0  0  0  0  0  0  0  0  0  0  0  0
    6.3866  -13.4261   25.8494 C   0  0  0  0  0  0  0  0  0  0  0  0
    6.0297  -12.1088   26.0462 C   0  0  0  0  0  0  0  0  0  0  0  0
    6.9833  -11.1547   26.2966 C   0  0  0  0  0  0  0  0  0  0  0  0
    8.2959  -11.5670   26.3416 C   0  0  0  0  0  0  0  0  0  0  0  0
    8.6690  -12.8791   26.1474 C   0  0  0  0  0  0  0  0  0  0  0  0
    7.7223  -13.8478   25.8961 C   0  0  0  0  0  0  0  0  0  0  0  0
   10.9104  -16.9625   24.4077 C   0  0  0  0  0  0  0  0  0  0  0  0
   10.7705  -18.1859   24.1571 O   0  0  0  0  0  0  0  0  0  0  0  0
   14.2925  -16.6882   22.1524 N   0  0  0  0  0  0  0  0  0  0  0  0
   14.7759  -16.0827   23.3331 C   0  0  0  0  0  0  0  0  0  0  0  0
   15.2656  -14.9408   23.2808 O   0  0  0  0  0  0  0  0  0  0  0  0
   14.6965  -16.8054   24.6102 C   0  0  0  0  0  0  0  0  0  0  0  0
   13.3527  -17.4264   24.7864 C   0  0  2  0  0  0  0  0  0  0  0  0
   12.2397  -16.5198   24.6823 N   0  0  0  0  0  0  0  0  0  0  0  0
   13.3041  -18.0653   26.1398 C   0  0  0  0  0  0  0  0  0  0  0  0
   14.1859  -19.0792   26.5135 O   0  0  0  0  0  0  0  0  0  0  0  0
   12.4592  -17.7140   27.0077 O   0  0  0  0  0  0  0  0  0  0  0  0
  2  1  1  0
  2  3  2  0
  4  2  1  0
  5  4  1  0
  5  6  1  1
  7  5  1  0
  7  8  2  0
  9  7  1  0
 10  9  1  0
 10 11  1  1
 12 11  1  0
 12 13  2  0
 14 13  1  0
 15 20  2  0
 15 14  1  0
 16 15  1  0
 17 16  2  0
 18 17  1  0
 18 19  2  0
 19 20  1  0
 20 12  1  0
 21 28  1  0
 21 10  1  0
 22 21  2  0
 23 24  1  0
 24 26  1  0
 25 24  2  0
 27 26  1  1
 27 28  1  0
 27 29  1  0
 29 31  2  0
 29 30  1  0
M  END
$$$$
