NWN.pdb
     RDKit          3D

 31 32  0  0  1  0  0  0  0  0999 V2000
   10.4166  -18.9742   17.6844 N   0  0  0  0  0  0  0  0  0  0  0  0
   11.1878  -17.8008   17.9032 C   0  0  0  0  0  0  0  0  0  0  0  0
   11.8862  -17.4054   16.9164 O   0  0  0  0  0  0  0  0  0  0  0  0
   11.2030  -17.0583   19.1842 C   0  0  0  0  0  0  0  0  0  0  0  0
   10.0900  -17.5902   20.0659 C   0  0  2  0  0  0  0  0  0  0  0  0
    8.8117  -17.2655   19.4414 N   0  0  0  0  0  0  0  0  0  0  0  0
   10.1532  -17.0035   21.4291 C   0  0  0  0  0  0  0  0  0  0  0  0
   11.1797  -17.2543   22.1115 O   0  0  0  0  0  0  0  0  0  0  0  0
    9.1191  -16.1934   21.9632 N   0  0  0  0  0  0  0  0  0  0  0  0
    9.1266  -15.7194   23.3437 C   0  0  1  0  0  0  0  0  0  0  0  0
    8.1308  -14.6288   23.5525 C   0  0  0  0  0  0  0  0  0  0  0  0
    7.8668  -14.2553   24.9492 C   0  0  0  0  0  0  0  0  0  0  0  0
    8.2385  -15.0376   26.0483 C   0  0  0  0  0  0  0  0  0  0  0  0
    7.8928  -14.4348   27.1846 N   0  0  0  0  0  0  0  0  0  0  0  0
    7.2926  -13.2574   26.8773 C   0  0  0  0  0  0  0  0  0  0  0  0
    6.7599  -12.2849   27.6971 C   0  0  0  0  0  0  0  0  0  0  0  0
    6.1858  -11.1581   27.1653 C   0  0  0  0  0  0  0  0  0  0  0  0
    6.1657  -11.0439   25.7936 C   0  0  0  0  0  0  0  0  0  0  0  0
    6.6938  -12.0062   24.9607 C   0  0  0  0  0  0  0  0  0  0  0  0
    7.2742  -13.1422   25.4807 C   0  0  0  0  0  0  0  0  0  0  0  0
    9.1179  -16.7882   24.3420 C   0  0  0  0  0  0  0  0  0  0  0  0
    8.3012  -17.7380   24.2431 O   0  0  0  0  0  0  0  0  0  0  0  0
   13.8459  -19.6694   25.9903 N   0  0  0  0  0  0  0  0  0  0  0  0
   12.4795  -19.6401   25.6351 C   0  0  0  0  0  0  0  0  0  0  0  0
   11.7900  -20.6671   25.7635 O   0  0  0  0  0  0  0  0  0  0  0  0
   11.8853  -18.3995   25.1179 C   0  0  0  0  0  0  0  0  0  0  0  0
   10.6604  -18.0367   25.8864 C   0  0  2  0  0  0  0  0  0  0  0  0
   10.0045  -16.8285   25.4604 N   0  0  0  0  0  0  0  0  0  0  0  0
   11.0398  -17.8744   27.3259 C   0  0  0  0  0  0  0  0  0  0  0  0
   11.8883  -16.8558   27.7591 O   0  0  0  0  0  0  0  0  0  0  0  0
   10.6071  -18.6555   28.2166 O   0  0  0  0  0  0  0  0  0  0  0  0
  2  1  1  0
  2  3  2  0
  4  2  1  0
  5  4  1  0
  5  6  1  6
  7  5  1  0
  7  8  2  0
  9  7  1  0
 10  9  1  0
 10 11  1  1
 12 11  1  0
 12 13  2  0
 14 13  1  0
 15 20  2  0
 15 14  1  0
 16 15  1  0
 17 16  2  0
 18 17  1  0
 18 19  2  0
 19 20  1  0
 20 12  1  0
 21 28  1  0
 21 10  1  0
 22 21  2  0
 23 24  1  0
 24 26  1  0
 25 24  2  0
 27 26  1  6
 27 28  1  0
 27 29  1  0
 29 31  2  0
 29 30  1  0
M  END
$$$$
