NWN.pdb
     RDKit          3D

 31 32  0  0  1  0  0  0  0  0999 V2000
   11.6683  -15.8719   18.0083 N   0  0  0  0  0  0  0  0  0  0  0  0
   11.6237  -16.1179   19.4073 C   0  0  0  0  0  0  0  0  0  0  0  0
   12.7469  -16.3155   19.9705 O   0  0  0  0  0  0  0  0  0  0  0  0
   10.3692  -16.1498   20.1933 C   0  0  0  0  0  0  0  0  0  0  0  0
   10.4110  -17.3456   21.1246 C   0  0  2  0  0  0  0  0  0  0  0  0
    9.2631  -18.1980   20.8326 N   0  0  0  0  0  0  0  0  0  0  0  0
   10.3812  -16.9230   22.5484 C   0  0  0  0  0  0  0  0  0  0  0  0
   11.2841  -16.1343   22.9288 O   0  0  0  0  0  0  0  0  0  0  0  0
    9.3920  -17.3717   23.4600 N   0  0  0  0  0  0  0  0  0  0  0  0
    9.3877  -16.9843   24.8673 C   0  0  1  0  0  0  0  0  0  0  0  0
    8.0296  -16.5572   25.3124 C   0  0  0  0  0  0  0  0  0  0  0  0
    7.6114  -15.2088   24.9042 C   0  0  0  0  0  0  0  0  0  0  0  0
    7.1543  -14.8903   23.6205 C   0  0  0  0  0  0  0  0  0  0  0  0
    6.8236  -13.6018   23.5525 N   0  0  0  0  0  0  0  0  0  0  0  0
    7.0483  -13.0392   24.7665 C   0  0  0  0  0  0  0  0  0  0  0  0
    6.8685  -11.7418   25.1976 C   0  0  0  0  0  0  0  0  0  0  0  0
    7.1713  -11.3837   26.4869 C   0  0  0  0  0  0  0  0  0  0  0  0
    7.6568  -12.3661   27.3200 C   0  0  0  0  0  0  0  0  0  0  0  0
    7.8421  -13.6669   26.9051 C   0  0  0  0  0  0  0  0  0  0  0  0
    7.5414  -14.0408   25.6137 C   0  0  0  0  0  0  0  0  0  0  0  0
   10.0787  -17.9256   25.7478 C   0  0  0  0  0  0  0  0  0  0  0  0
    9.6467  -19.0978   25.8826 O   0  0  0  0  0  0  0  0  0  0  0  0
   13.0308  -20.2724   29.1090 N   0  0  0  0  0  0  0  0  0  0  0  0
   13.8160  -19.1606   28.7331 C   0  0  0  0  0  0  0  0  0  0  0  0
   14.9697  -19.0442   29.1825 O   0  0  0  0  0  0  0  0  0  0  0  0
   13.2646  -18.1530   27.8164 C   0  0  0  0  0  0  0  0  0  0  0  0
   11.8785  -18.5135   27.4026 C   0  0  2  0  0  0  0  0  0  0  0  0
   11.2516  -17.5930   26.4909 N   0  0  0  0  0  0  0  0  0  0  0  0
   11.0281  -18.5983   28.6323 C   0  0  0  0  0  0  0  0  0  0  0  0
   10.9894  -19.7417   29.4299 O   0  0  0  0  0  0  0  0  0  0  0  0
   10.3045  -17.6347   29.0045 O   0  0  0  0  0  0  0  0  0  0  0  0
  2  1  1  0
  2  3  2  0
  4  2  1  0
  5  4  1  0
  5  6  1  6
  7  5  1  0
  7  8  2  0
  9  7  1  0
 10  9  1  0
 10 11  1  1
 12 11  1  0
 12 13  2  0
 14 13  1  0
 15 20  2  0
 15 14  1  0
 16 15  1  0
 17 16  2  0
 18 17  1  0
 18 19  2  0
 19 20  1  0
 20 12  1  0
 21 28  1  0
 21 10  1  0
 22 21  2  0
 23 24  1  0
 24 26  1  0
 25 24  2  0
 27 26  1  1
 27 28  1  0
 27 29  1  0
 29 31  2  0
 29 30  1  0
M  END
$$$$
