NWN.pdb
     RDKit          3D

 31 32  0  0  1  0  0  0  0  0999 V2000
   11.0118  -16.6134   15.6378 N   0  0  0  0  0  0  0  0  0  0  0  0
    9.7981  -16.4281   16.3534 C   0  0  0  0  0  0  0  0  0  0  0  0
    8.7477  -16.8646   15.7840 O   0  0  0  0  0  0  0  0  0  0  0  0
    9.7213  -15.7736   17.6794 C   0  0  0  0  0  0  0  0  0  0  0  0
    9.5201  -16.8420   18.7363 C   0  0  2  0  0  0  0  0  0  0  0  0
    8.2500  -17.5128   18.4782 N   0  0  0  0  0  0  0  0  0  0  0  0
    9.5178  -16.2576   20.1020 C   0  0  0  0  0  0  0  0  0  0  0  0
   10.5921  -15.7411   20.5036 O   0  0  0  0  0  0  0  0  0  0  0  0
    8.3719  -16.2666   20.9372 N   0  0  0  0  0  0  0  0  0  0  0  0
    8.4058  -15.8059   22.3218 C   0  0  1  0  0  0  0  0  0  0  0  0
    7.0425  -15.4545   22.8145 C   0  0  0  0  0  0  0  0  0  0  0  0
    6.9586  -14.9973   24.2086 C   0  0  0  0  0  0  0  0  0  0  0  0
    6.7865  -15.8552   25.3007 C   0  0  0  0  0  0  0  0  0  0  0  0
    6.7728  -15.1615   26.4377 N   0  0  0  0  0  0  0  0  0  0  0  0
    6.9319  -13.8479   26.1377 C   0  0  0  0  0  0  0  0  0  0  0  0
    6.9801  -12.7425   26.9607 C   0  0  0  0  0  0  0  0  0  0  0  0
    7.1442  -11.4855   26.4363 C   0  0  0  0  0  0  0  0  0  0  0  0
    7.2570  -11.3791   25.0685 C   0  0  0  0  0  0  0  0  0  0  0  0
    7.2112  -12.4734   24.2324 C   0  0  0  0  0  0  0  0  0  0  0  0
    7.0478  -13.7416   24.7451 C   0  0  0  0  0  0  0  0  0  0  0  0
    9.2063  -16.6468   23.2114 C   0  0  0  0  0  0  0  0  0  0  0  0
    9.1589  -17.8983   23.1093 O   0  0  0  0  0  0  0  0  0  0  0  0
   13.9226  -18.2638   24.2937 N   0  0  0  0  0  0  0  0  0  0  0  0
   13.7026  -16.9244   24.6835 C   0  0  0  0  0  0  0  0  0  0  0  0
   14.4959  -16.3757   25.4684 O   0  0  0  0  0  0  0  0  0  0  0  0
   12.5409  -16.1924   24.1598 C   0  0  0  0  0  0  0  0  0  0  0  0
   11.2682  -16.8006   24.6424 C   0  0  2  0  0  0  0  0  0  0  0  0
   10.0682  -16.1256   24.2232 N   0  0  0  0  0  0  0  0  0  0  0  0
   11.2923  -16.8148   26.1396 C   0  0  0  0  0  0  0  0  0  0  0  0
   10.2985  -16.2030   26.9032 O   0  0  0  0  0  0  0  0  0  0  0  0
   12.2172  -17.3834   26.7814 O   0  0  0  0  0  0  0  0  0  0  0  0
  2  1  1  0
  2  3  2  0
  4  2  1  0
  5  4  1  0
  5  6  1  6
  7  5  1  0
  7  8  2  0
  9  7  1  0
 10  9  1  0
 10 11  1  1
 12 11  1  0
 12 13  2  0
 14 13  1  0
 15 20  2  0
 15 14  1  0
 16 15  1  0
 17 16  2  0
 18 17  1  0
 18 19  2  0
 19 20  1  0
 20 12  1  0
 21 28  1  0
 21 10  1  0
 22 21  2  0
 23 24  1  0
 24 26  1  0
 25 24  2  0
 27 26  1  1
 27 28  1  0
 27 29  1  0
 29 31  2  0
 29 30  1  0
M  END
$$$$
