NWN.pdb
     RDKit          3D

 31 32  0  0  1  0  0  0  0  0999 V2000
    6.7785  -12.6357   18.3860 N   0  0  0  0  0  0  0  0  0  0  0  0
    7.8123  -13.5137   18.8102 C   0  0  0  0  0  0  0  0  0  0  0  0
    8.2298  -14.3396   17.9375 O   0  0  0  0  0  0  0  0  0  0  0  0
    8.3919  -13.4978   20.1726 C   0  0  0  0  0  0  0  0  0  0  0  0
    8.7681  -14.9158   20.5558 C   0  0  2  0  0  0  0  0  0  0  0  0
    7.5563  -15.7288   20.5622 N   0  0  0  0  0  0  0  0  0  0  0  0
    9.4172  -14.9606   21.8912 C   0  0  0  0  0  0  0  0  0  0  0  0
   10.4713  -14.2898   22.0364 O   0  0  0  0  0  0  0  0  0  0  0  0
    8.8950  -15.7159   22.9718 N   0  0  0  0  0  0  0  0  0  0  0  0
    9.5730  -15.8149   24.2606 C   0  0  1  0  0  0  0  0  0  0  0  0
    8.6151  -16.1319   25.3592 C   0  0  0  0  0  0  0  0  0  0  0  0
    7.5312  -15.1620   25.5696 C   0  0  0  0  0  0  0  0  0  0  0  0
    6.1742  -15.5031   25.5919 C   0  0  0  0  0  0  0  0  0  0  0  0
    5.4288  -14.4247   25.8273 N   0  0  0  0  0  0  0  0  0  0  0  0
    6.2548  -13.3571   25.9649 C   0  0  0  0  0  0  0  0  0  0  0  0
    5.9681  -12.0310   26.2113 C   0  0  0  0  0  0  0  0  0  0  0  0
    6.9740  -11.1031   26.3072 C   0  0  0  0  0  0  0  0  0  0  0  0
    8.2662  -11.5503   26.1481 C   0  0  0  0  0  0  0  0  0  0  0  0
    8.5694  -12.8716   25.9017 C   0  0  0  0  0  0  0  0  0  0  0  0
    7.5697  -13.8144   25.8039 C   0  0  0  0  0  0  0  0  0  0  0  0
   10.7957  -16.6169   24.2320 C   0  0  0  0  0  0  0  0  0  0  0  0
   11.0338  -17.4383   25.1525 O   0  0  0  0  0  0  0  0  0  0  0  0
   15.0447  -19.3624   21.8314 N   0  0  0  0  0  0  0  0  0  0  0  0
   15.0462  -17.9733   22.0853 C   0  0  0  0  0  0  0  0  0  0  0  0
   16.1039  -17.4122   22.4216 O   0  0  0  0  0  0  0  0  0  0  0  0
   13.8011  -17.2044   21.9502 C   0  0  0  0  0  0  0  0  0  0  0  0
   12.9513  -17.3521   23.1661 C   0  0  2  0  0  0  0  0  0  0  0  0
   11.7718  -16.5278   23.1939 N   0  0  0  0  0  0  0  0  0  0  0  0
   13.7822  -17.0114   24.3644 C   0  0  0  0  0  0  0  0  0  0  0  0
   13.4063  -16.0196   25.2700 O   0  0  0  0  0  0  0  0  0  0  0  0
   14.8654  -17.6087   24.6104 O   0  0  0  0  0  0  0  0  0  0  0  0
  2  1  1  0
  2  3  2  0
  4  2  1  0
  5  4  1  0
  5  6  1  1
  7  5  1  0
  7  8  2  0
  9  7  1  0
 10  9  1  0
 10 11  1  1
 12 11  1  0
 12 13  2  0
 14 13  1  0
 15 20  2  0
 15 14  1  0
 16 15  1  0
 17 16  2  0
 18 17  1  0
 18 19  2  0
 19 20  1  0
 20 12  1  0
 21 28  1  0
 21 10  1  0
 22 21  2  0
 23 24  1  0
 24 26  1  0
 25 24  2  0
 27 26  1  6
 27 28  1  0
 27 29  1  0
 29 31  2  0
 29 30  1  0
M  END
$$$$
