NWN.pdb
     RDKit          3D

 31 32  0  0  1  0  0  0  0  0999 V2000
    8.5600  -21.0793   18.1036 N   0  0  0  0  0  0  0  0  0  0  0  0
    8.0334  -19.9306   18.7537 C   0  0  0  0  0  0  0  0  0  0  0  0
    7.0260  -19.3914   18.1947 O   0  0  0  0  0  0  0  0  0  0  0  0
    8.5941  -19.3680   20.0033 C   0  0  0  0  0  0  0  0  0  0  0  0
    8.9076  -17.9019   19.7768 C   0  0  2  0  0  0  0  0  0  0  0  0
   10.0034  -17.8073   18.8177 N   0  0  0  0  0  0  0  0  0  0  0  0
    9.2834  -17.2273   21.0458 C   0  0  0  0  0  0  0  0  0  0  0  0
   10.4124  -17.5036   21.5266 O   0  0  0  0  0  0  0  0  0  0  0  0
    8.4292  -16.3088   21.7072 N   0  0  0  0  0  0  0  0  0  0  0  0
    8.7320  -15.7658   23.0278 C   0  0  1  0  0  0  0  0  0  0  0  0
    7.8596  -14.6004   23.3528 C   0  0  0  0  0  0  0  0  0  0  0  0
    7.9081  -14.1264   24.7430 C   0  0  0  0  0  0  0  0  0  0  0  0
    8.6380  -14.7579   25.7563 C   0  0  0  0  0  0  0  0  0  0  0  0
    8.5143  -14.0900   26.9020 N   0  0  0  0  0  0  0  0  0  0  0  0
    7.7133  -13.0165   26.6856 C   0  0  0  0  0  0  0  0  0  0  0  0
    7.2844  -12.0322   27.5508 C   0  0  0  0  0  0  0  0  0  0  0  0
    6.4587  -11.0273   27.1146 C   0  0  0  0  0  0  0  0  0  0  0  0
    6.0824  -11.0460   25.7906 C   0  0  0  0  0  0  0  0  0  0  0  0
    6.5021  -12.0220   24.9132 C   0  0  0  0  0  0  0  0  0  0  0  0
    7.3321  -13.0365   25.3371 C   0  0  0  0  0  0  0  0  0  0  0  0
    8.8568  -16.7785   24.0755 C   0  0  0  0  0  0  0  0  0  0  0  0
    7.9609  -17.6469   24.2243 O   0  0  0  0  0  0  0  0  0  0  0  0
   11.4196  -21.1448   25.2235 N   0  0  0  0  0  0  0  0  0  0  0  0
   12.0414  -19.9198   25.5502 C   0  0  0  0  0  0  0  0  0  0  0  0
   12.9385  -19.8975   26.4111 O   0  0  0  0  0  0  0  0  0  0  0  0
   11.6241  -18.6847   24.8718 C   0  0  0  0  0  0  0  0  0  0  0  0
   10.4270  -18.0932   25.5348 C   0  0  2  0  0  0  0  0  0  0  0  0
    9.9653  -16.8514   24.9724 N   0  0  0  0  0  0  0  0  0  0  0  0
   10.7579  -17.8540   26.9755 C   0  0  0  0  0  0  0  0  0  0  0  0
   11.4579  -16.7241   27.3980 O   0  0  0  0  0  0  0  0  0  0  0  0
   10.4171  -18.6676   27.8769 O   0  0  0  0  0  0  0  0  0  0  0  0
  2  1  1  0
  2  3  2  0
  4  2  1  0
  5  4  1  0
  5  6  1  6
  7  5  1  0
  7  8  2  0
  9  7  1  0
 10  9  1  0
 10 11  1  1
 12 11  1  0
 12 13  2  0
 14 13  1  0
 15 20  2  0
 15 14  1  0
 16 15  1  0
 17 16  2  0
 18 17  1  0
 18 19  2  0
 19 20  1  0
 20 12  1  0
 21 28  1  0
 21 10  1  0
 22 21  2  0
 23 24  1  0
 24 26  1  0
 25 24  2  0
 27 26  1  6
 27 28  1  0
 27 29  1  0
 29 31  2  0
 29 30  1  0
M  END
$$$$
