NWN.pdb
     RDKit          3D

 31 32  0  0  1  0  0  0  0  0999 V2000
    6.3582  -13.7565   19.3482 N   0  0  0  0  0  0  0  0  0  0  0  0
    7.6474  -14.2328   19.7098 C   0  0  0  0  0  0  0  0  0  0  0  0
    8.3486  -14.7069   18.7603 O   0  0  0  0  0  0  0  0  0  0  0  0
    8.1754  -14.1962   21.0927 C   0  0  0  0  0  0  0  0  0  0  0  0
    8.7648  -15.5537   21.4225 C   0  0  2  0  0  0  0  0  0  0  0  0
    7.6839  -16.5339   21.4405 N   0  0  0  0  0  0  0  0  0  0  0  0
    9.4579  -15.5372   22.7363 C   0  0  0  0  0  0  0  0  0  0  0  0
   10.3575  -14.6729   22.8963 O   0  0  0  0  0  0  0  0  0  0  0  0
    9.1407  -16.4419   23.7811 N   0  0  0  0  0  0  0  0  0  0  0  0
    9.8356  -16.4339   25.0647 C   0  0  1  0  0  0  0  0  0  0  0  0
    8.8832  -16.2701   26.2008 C   0  0  0  0  0  0  0  0  0  0  0  0
    7.8068  -15.2891   26.0038 C   0  0  0  0  0  0  0  0  0  0  0  0
    6.5071  -15.6272   25.6106 C   0  0  0  0  0  0  0  0  0  0  0  0
    5.7457  -14.5367   25.5393 N   0  0  0  0  0  0  0  0  0  0  0  0
    6.5047  -13.4638   25.8765 C   0  0  0  0  0  0  0  0  0  0  0  0
    6.1792  -12.1258   25.9487 C   0  0  0  0  0  0  0  0  0  0  0  0
    7.1194  -11.1948   26.3111 C   0  0  0  0  0  0  0  0  0  0  0  0
    8.3866  -11.6513   26.5956 C   0  0  0  0  0  0  0  0  0  0  0  0
    8.7279  -12.9846   26.5284 C   0  0  0  0  0  0  0  0  0  0  0  0
    7.7938  -13.9305   26.1669 C   0  0  0  0  0  0  0  0  0  0  0  0
   10.8262  -17.4994   25.2139 C   0  0  0  0  0  0  0  0  0  0  0  0
   11.2022  -17.8563   26.3585 O   0  0  0  0  0  0  0  0  0  0  0  0
   15.6054  -17.4689   22.2270 N   0  0  0  0  0  0  0  0  0  0  0  0
   14.2165  -17.2153   22.1957 C   0  0  0  0  0  0  0  0  0  0  0  0
   13.6242  -17.1773   21.1028 O   0  0  0  0  0  0  0  0  0  0  0  0
   13.4848  -16.9988   23.4516 C   0  0  0  0  0  0  0  0  0  0  0  0
   12.8403  -18.2607   23.9150 C   0  0  2  0  0  0  0  0  0  0  0  0
   11.4163  -18.1864   24.1101 N   0  0  0  0  0  0  0  0  0  0  0  0
   13.4657  -18.6571   25.2166 C   0  0  0  0  0  0  0  0  0  0  0  0
   13.5059  -17.7959   26.3129 O   0  0  0  0  0  0  0  0  0  0  0  0
   13.9872  -19.7935   25.3815 O   0  0  0  0  0  0  0  0  0  0  0  0
  2  1  1  0
  2  3  2  0
  4  2  1  0
  5  4  1  0
  5  6  1  1
  7  5  1  0
  7  8  2  0
  9  7  1  0
 10  9  1  0
 10 11  1  1
 12 11  1  0
 12 13  2  0
 14 13  1  0
 15 20  2  0
 15 14  1  0
 16 15  1  0
 17 16  2  0
 18 17  1  0
 18 19  2  0
 19 20  1  0
 20 12  1  0
 21 28  1  0
 21 10  1  0
 22 21  2  0
 23 24  1  0
 24 26  1  0
 25 24  2  0
 27 26  1  1
 27 28  1  0
 27 29  1  0
 29 31  2  0
 29 30  1  0
M  END
$$$$
