NWN.pdb
     RDKit          3D

 31 32  0  0  1  0  0  0  0  0999 V2000
   12.7335  -15.5153   18.8929 N   0  0  0  0  0  0  0  0  0  0  0  0
   11.4562  -15.9256   19.3619 C   0  0  0  0  0  0  0  0  0  0  0  0
   10.7773  -16.6441   18.5613 O   0  0  0  0  0  0  0  0  0  0  0  0
   10.9161  -15.5603   20.6912 C   0  0  0  0  0  0  0  0  0  0  0  0
   10.8287  -16.8136   21.5400 C   0  0  2  0  0  0  0  0  0  0  0  0
    9.6523  -17.5708   21.1248 N   0  0  0  0  0  0  0  0  0  0  0  0
   10.7358  -16.4823   22.9851 C   0  0  0  0  0  0  0  0  0  0  0  0
   11.6654  -15.7893   23.4727 O   0  0  0  0  0  0  0  0  0  0  0  0
    9.6601  -16.9134   23.8023 N   0  0  0  0  0  0  0  0  0  0  0  0
    9.5784  -16.5962   25.2247 C   0  0  1  0  0  0  0  0  0  0  0  0
    8.2021  -16.1711   25.6118 C   0  0  0  0  0  0  0  0  0  0  0  0
    7.7036  -14.9433   24.9763 C   0  0  0  0  0  0  0  0  0  0  0  0
    7.4265  -14.8310   23.6093 C   0  0  0  0  0  0  0  0  0  0  0  0
    6.9657  -13.6134   23.3281 N   0  0  0  0  0  0  0  0  0  0  0  0
    6.9252  -12.8964   24.4792 C   0  0  0  0  0  0  0  0  0  0  0  0
    6.5305  -11.5951   24.7084 C   0  0  0  0  0  0  0  0  0  0  0  0
    6.5778  -11.0610   25.9712 C   0  0  0  0  0  0  0  0  0  0  0  0
    7.0317  -11.8727   26.9861 C   0  0  0  0  0  0  0  0  0  0  0  0
    7.4295  -13.1747   26.7739 C   0  0  0  0  0  0  0  0  0  0  0  0
    7.3864  -13.7245   25.5114 C   0  0  0  0  0  0  0  0  0  0  0  0
   10.2053  -17.5905   26.0950 C   0  0  0  0  0  0  0  0  0  0  0  0
   10.4407  -17.3173   27.2987 O   0  0  0  0  0  0  0  0  0  0  0  0
   14.0724  -21.1622   26.3991 N   0  0  0  0  0  0  0  0  0  0  0  0
   14.1644  -19.7538   26.3536 C   0  0  0  0  0  0  0  0  0  0  0  0
   15.1901  -19.1920   26.7765 O   0  0  0  0  0  0  0  0  0  0  0  0
   13.0501  -18.9659   25.8084 C   0  0  0  0  0  0  0  0  0  0  0  0
   11.7400  -19.5812   26.1656 C   0  0  2  0  0  0  0  0  0  0  0  0
   10.5814  -18.8960   25.6561 N   0  0  0  0  0  0  0  0  0  0  0  0
   11.6328  -19.6245   27.6586 C   0  0  0  0  0  0  0  0  0  0  0  0
   10.5477  -19.0742   28.3406 O   0  0  0  0  0  0  0  0  0  0  0  0
   12.5233  -20.1632   28.3709 O   0  0  0  0  0  0  0  0  0  0  0  0
  2  1  1  0
  2  3  2  0
  4  2  1  0
  5  4  1  0
  5  6  1  6
  7  5  1  0
  7  8  2  0
  9  7  1  0
 10  9  1  0
 10 11  1  1
 12 11  1  0
 12 13  2  0
 14 13  1  0
 15 20  2  0
 15 14  1  0
 16 15  1  0
 17 16  2  0
 18 17  1  0
 18 19  2  0
 19 20  1  0
 20 12  1  0
 21 28  1  0
 21 10  1  0
 22 21  2  0
 23 24  1  0
 24 26  1  0
 25 24  2  0
 27 26  1  1
 27 28  1  0
 27 29  1  0
 29 31  2  0
 29 30  1  0
M  END
$$$$
