NWN.pdb
     RDKit          3D

 31 32  0  0  1  0  0  0  0  0999 V2000
   13.3288  -17.5935   17.1541 N   0  0  0  0  0  0  0  0  0  0  0  0
   12.3180  -18.0975   18.0167 C   0  0  0  0  0  0  0  0  0  0  0  0
   11.5782  -19.0099   17.5285 O   0  0  0  0  0  0  0  0  0  0  0  0
   12.1088  -17.6165   19.4013 C   0  0  0  0  0  0  0  0  0  0  0  0
   10.6634  -17.1835   19.5508 C   0  0  2  0  0  0  0  0  0  0  0  0
   10.3436  -16.2613   18.4659 N   0  0  0  0  0  0  0  0  0  0  0  0
   10.4290  -16.5261   20.8621 C   0  0  0  0  0  0  0  0  0  0  0  0
   11.4189  -16.4156   21.6303 O   0  0  0  0  0  0  0  0  0  0  0  0
    9.1585  -16.0355   21.2569 N   0  0  0  0  0  0  0  0  0  0  0  0
    8.8323  -15.7284   22.6460 C   0  0  1  0  0  0  0  0  0  0  0  0
    7.4694  -15.1350   22.7692 C   0  0  0  0  0  0  0  0  0  0  0  0
    7.0591  -14.7372   24.1231 C   0  0  0  0  0  0  0  0  0  0  0  0
    6.3693  -15.5758   25.0059 C   0  0  0  0  0  0  0  0  0  0  0  0
    6.1565  -14.9546   26.1647 N   0  0  0  0  0  0  0  0  0  0  0  0
    6.6887  -13.7091   26.0850 C   0  0  0  0  0  0  0  0  0  0  0  0
    6.7224  -12.6902   27.0136 C   0  0  0  0  0  0  0  0  0  0  0  0
    7.3165  -11.4902   26.7154 C   0  0  0  0  0  0  0  0  0  0  0  0
    7.8705  -11.3511   25.4629 C   0  0  0  0  0  0  0  0  0  0  0  0
    7.8455  -12.3592   24.5240 C   0  0  0  0  0  0  0  0  0  0  0  0
    7.2532  -13.5697   24.8099 C   0  0  0  0  0  0  0  0  0  0  0  0
    9.1439  -16.8058   23.5847 C   0  0  0  0  0  0  0  0  0  0  0  0
    9.0252  -18.0056   23.2308 O   0  0  0  0  0  0  0  0  0  0  0  0
   12.2003  -19.0373   27.0051 N   0  0  0  0  0  0  0  0  0  0  0  0
   12.7194  -18.4291   25.8412 C   0  0  0  0  0  0  0  0  0  0  0  0
   13.8944  -18.6555   25.5025 O   0  0  0  0  0  0  0  0  0  0  0  0
   11.8689  -17.5360   25.0421 C   0  0  0  0  0  0  0  0  0  0  0  0
   10.4882  -17.4768   25.6011 C   0  0  2  0  0  0  0  0  0  0  0  0
    9.5895  -16.5807   24.9223 N   0  0  0  0  0  0  0  0  0  0  0  0
   10.5788  -17.0451   27.0321 C   0  0  0  0  0  0  0  0  0  0  0  0
   11.1087  -17.8704   28.0237 O   0  0  0  0  0  0  0  0  0  0  0  0
   10.1780  -15.9098   27.4078 O   0  0  0  0  0  0  0  0  0  0  0  0
  2  1  1  0
  2  3  2  0
  4  2  1  0
  5  4  1  0
  5  6  1  6
  7  5  1  0
  7  8  2  0
  9  7  1  0
 10  9  1  0
 10 11  1  6
 12 11  1  0
 12 13  2  0
 14 13  1  0
 15 20  2  0
 15 14  1  0
 16 15  1  0
 17 16  2  0
 18 17  1  0
 18 19  2  0
 19 20  1  0
 20 12  1  0
 21 28  1  0
 21 10  1  0
 22 21  2  0
 23 24  1  0
 24 26  1  0
 25 24  2  0
 27 26  1  6
 27 28  1  0
 27 29  1  0
 29 31  2  0
 29 30  1  0
M  END
$$$$
