QVC.pdb
     RDKit          3D

 23 22  0  0  1  0  0  0  0  0999 V2000
    8.7258  -21.1544   17.0650 N   0  0  0  0  0  0  0  0  0  0  0  0
    7.3985  -20.8463   16.6398 C   0  0  0  0  0  0  0  0  0  0  0  0
    6.8064  -21.7205   15.9796 O   0  0  0  0  0  0  0  0  0  0  0  0
    6.8304  -19.5311   17.0089 C   0  0  0  0  0  0  0  0  0  0  0  0
    7.7041  -18.7250   17.9270 C   0  0  0  0  0  0  0  0  0  0  0  0
    7.8661  -17.2972   17.4629 C   0  0  2  0  0  0  0  0  0  0  0  0
    8.7536  -17.3505   16.2925 N   0  0  0  0  0  0  0  0  0  0  0  0
    8.5013  -16.5038   18.5510 C   0  0  0  0  0  0  0  0  0  0  0  0
    9.7208  -16.5958   18.8307 O   0  0  0  0  0  0  0  0  0  0  0  0
    7.5191  -12.6790   19.4986 C   0  0  0  0  0  0  0  0  0  0  0  0
    7.4663  -13.5919   20.7081 C   0  0  2  0  0  0  0  0  0  0  0  0
    8.0555  -12.9030   21.9131 C   0  0  0  0  0  0  0  0  0  0  0  0
    8.2302  -14.8765   20.4456 C   0  0  2  0  0  0  0  0  0  0  0  0
    7.7270  -15.5978   19.3227 N   0  0  0  0  0  0  0  0  0  0  0  0
    8.3628  -15.6891   21.6688 C   0  0  0  0  0  0  0  0  0  0  0  0
    7.3390  -16.1871   22.1805 O   0  0  0  0  0  0  0  0  0  0  0  0
    9.6436  -15.8858   22.2340 N   0  0  0  0  0  0  0  0  0  0  0  0
    9.8458  -16.6187   23.4751 C   0  0  1  0  0  0  0  0  0  0  0  0
   10.0240  -18.0957   23.2449 C   0  0  0  0  0  0  0  0  0  0  0  0
   11.4120  -18.2723   22.0616 S   0  0  0  0  0  0  0  0  0  0  0  0
   10.9546  -16.0132   24.2170 C   0  0  0  0  0  0  0  0  0  0  0  0
   11.7004  -15.1628   23.6815 O   0  0  0  0  0  0  0  0  0  0  0  0
   11.2225  -16.3560   25.5385 O   0  0  0  0  0  0  0  0  0  0  0  0
  2  3  2  0
  2  1  1  0
  4  2  1  0
  5  4  1  0
  6  5  1  0
  6  7  1  6
  8  6  1  0
  8  9  2  0
 11 10  1  6
 11 13  1  0
 12 11  1  0
 13 14  1  6
 14  8  1  0
 15 13  1  0
 16 15  2  0
 17 15  1  0
 18 17  1  0
 18 21  1  0
 18 19  1  6
 20 19  1  0
 21 23  1  0
 22 21  2  0
M  END
$$$$
