QVC.pdb
     RDKit          3D

 23 22  0  0  1  0  0  0  0  0999 V2000
    8.2880  -20.7633   19.8532 N   0  0  0  0  0  0  0  0  0  0  0  0
    7.2291  -20.6806   18.8998 C   0  0  0  0  0  0  0  0  0  0  0  0
    6.2192  -21.3735   19.1251 O   0  0  0  0  0  0  0  0  0  0  0  0
    7.4044  -19.7909   17.7308 C   0  0  0  0  0  0  0  0  0  0  0  0
    8.6954  -19.0231   17.7367 C   0  0  0  0  0  0  0  0  0  0  0  0
    8.5230  -17.6010   17.2594 C   0  0  2  0  0  0  0  0  0  0  0  0
    9.3376  -17.4814   16.0417 N   0  0  0  0  0  0  0  0  0  0  0  0
    9.0308  -16.6737   18.3078 C   0  0  0  0  0  0  0  0  0  0  0  0
   10.2545  -16.4683   18.4929 O   0  0  0  0  0  0  0  0  0  0  0  0
    7.0989  -13.1978   19.3500 C   0  0  0  0  0  0  0  0  0  0  0  0
    7.4377  -14.0771   20.5379 C   0  0  2  0  0  0  0  0  0  0  0  0
    7.9039  -13.2357   21.6991 C   0  0  0  0  0  0  0  0  0  0  0  0
    8.5240  -15.0732   20.1766 C   0  0  2  0  0  0  0  0  0  0  0  0
    8.1234  -15.9779   19.1493 N   0  0  0  0  0  0  0  0  0  0  0  0
    9.0755  -15.7334   21.3743 C   0  0  0  0  0  0  0  0  0  0  0  0
    8.4033  -16.6177   21.9435 O   0  0  0  0  0  0  0  0  0  0  0  0
   10.3506  -15.3511   21.8504 N   0  0  0  0  0  0  0  0  0  0  0  0
   11.0191  -16.0476   22.9394 C   0  0  1  0  0  0  0  0  0  0  0  0
   12.4191  -15.5434   23.1674 C   0  0  0  0  0  0  0  0  0  0  0  0
   13.1247  -16.5639   24.5159 S   0  0  0  0  0  0  0  0  0  0  0  0
   10.1808  -15.9829   24.1393 C   0  0  0  0  0  0  0  0  0  0  0  0
    9.6369  -14.9113   24.4887 O   0  0  0  0  0  0  0  0  0  0  0  0
    9.9562  -17.1022   24.9346 O   0  0  0  0  0  0  0  0  0  0  0  0
  2  3  2  0
  2  1  1  0
  4  2  1  0
  5  4  1  0
  6  5  1  0
  6  7  1  6
  8  6  1  0
  8  9  2  0
 11 10  1  6
 11 13  1  0
 12 11  1  0
 13 14  1  6
 14  8  1  0
 15 13  1  0
 16 15  2  0
 17 15  1  0
 18 17  1  0
 18 21  1  0
 18 19  1  1
 20 19  1  0
 21 23  1  0
 22 21  2  0
M  END
$$$$
