QVC.pdb
     RDKit          3D

 23 22  0  0  1  0  0  0  0  0999 V2000
    8.7341  -21.1287   17.6412 N   0  0  0  0  0  0  0  0  0  0  0  0
    9.9278  -20.5499   17.1144 C   0  0  0  0  0  0  0  0  0  0  0  0
   10.8886  -21.3207   16.9315 O   0  0  0  0  0  0  0  0  0  0  0  0
    9.9372  -19.0987   16.8273 C   0  0  0  0  0  0  0  0  0  0  0  0
    8.5916  -18.4430   16.9535 C   0  0  0  0  0  0  0  0  0  0  0  0
    8.6441  -16.9601   16.6740 C   0  0  2  0  0  0  0  0  0  0  0  0
    9.5790  -16.7927   15.5522 N   0  0  0  0  0  0  0  0  0  0  0  0
    9.1617  -16.2581   17.8807 C   0  0  0  0  0  0  0  0  0  0  0  0
   10.3851  -16.1912   18.1506 O   0  0  0  0  0  0  0  0  0  0  0  0
    6.9608  -13.1433   19.5726 C   0  0  0  0  0  0  0  0  0  0  0  0
    7.5506  -14.1156   20.5755 C   0  0  2  0  0  0  0  0  0  0  0  0
    8.0798  -13.3748   21.7776 C   0  0  0  0  0  0  0  0  0  0  0  0
    8.6765  -14.9170   19.9488 C   0  0  2  0  0  0  0  0  0  0  0  0
    8.2646  -15.6285   18.7832 N   0  0  0  0  0  0  0  0  0  0  0  0
    9.3692  -15.7526   20.9469 C   0  0  0  0  0  0  0  0  0  0  0  0
    8.8619  -16.8424   21.2831 O   0  0  0  0  0  0  0  0  0  0  0  0
   10.5898  -15.3021   21.4998 N   0  0  0  0  0  0  0  0  0  0  0  0
   11.3258  -16.0667   22.4957 C   0  0  1  0  0  0  0  0  0  0  0  0
   12.6971  -15.5012   22.7528 C   0  0  0  0  0  0  0  0  0  0  0  0
   13.4803  -16.5883   24.0029 S   0  0  0  0  0  0  0  0  0  0  0  0
   10.5140  -16.1840   23.7097 C   0  0  0  0  0  0  0  0  0  0  0  0
    9.8917  -15.1991   24.1668 O   0  0  0  0  0  0  0  0  0  0  0  0
   10.4020  -17.3868   24.4000 O   0  0  0  0  0  0  0  0  0  0  0  0
  2  3  2  0
  2  1  1  0
  4  2  1  0
  5  4  1  0
  6  5  1  0
  6  7  1  6
  8  6  1  0
  8  9  2  0
 11 10  1  6
 11 13  1  0
 12 11  1  0
 13 14  1  6
 14  8  1  0
 15 13  1  0
 16 15  2  0
 17 15  1  0
 18 17  1  0
 18 21  1  0
 18 19  1  1
 20 19  1  0
 21 23  1  0
 22 21  2  0
M  END
$$$$
