QVC.pdb
     RDKit          3D

 23 22  0  0  1  0  0  0  0  0999 V2000
    8.3844  -20.5131   20.3120 N   0  0  0  0  0  0  0  0  0  0  0  0
    8.9415  -20.8790   19.0499 C   0  0  0  0  0  0  0  0  0  0  0  0
    9.5656  -21.9557   19.0058 O   0  0  0  0  0  0  0  0  0  0  0  0
    8.7399  -19.9672   17.9024 C   0  0  0  0  0  0  0  0  0  0  0  0
    7.8900  -18.7692   18.2170 C   0  0  0  0  0  0  0  0  0  0  0  0
    8.4296  -17.5010   17.6001 C   0  0  2  0  0  0  0  0  0  0  0  0
    9.5143  -17.9187   16.7003 N   0  0  0  0  0  0  0  0  0  0  0  0
    8.9679  -16.6285   18.6798 C   0  0  0  0  0  0  0  0  0  0  0  0
   10.1629  -16.6809   19.0581 O   0  0  0  0  0  0  0  0  0  0  0  0
    7.6270  -12.8411   19.4365 C   0  0  0  0  0  0  0  0  0  0  0  0
    7.6447  -13.7027   20.6841 C   0  0  2  0  0  0  0  0  0  0  0  0
    8.1752  -12.9183   21.8575 C   0  0  0  0  0  0  0  0  0  0  0  0
    8.5088  -14.9326   20.4754 C   0  0  2  0  0  0  0  0  0  0  0  0
    8.1243  -15.6887   19.3287 N   0  0  0  0  0  0  0  0  0  0  0  0
    8.6224  -15.7321   21.7093 C   0  0  0  0  0  0  0  0  0  0  0  0
    7.6351  -16.3878   22.1006 O   0  0  0  0  0  0  0  0  0  0  0  0
    9.8443  -15.7382   22.4203 N   0  0  0  0  0  0  0  0  0  0  0  0
   10.0369  -16.5146   23.6361 C   0  0  1  0  0  0  0  0  0  0  0  0
    9.9483  -17.9969   23.3885 C   0  0  0  0  0  0  0  0  0  0  0  0
   11.3547  -18.4248   22.2945 S   0  0  0  0  0  0  0  0  0  0  0  0
   11.2936  -16.1107   24.2717 C   0  0  0  0  0  0  0  0  0  0  0  0
   12.1163  -15.3846   23.6698 O   0  0  0  0  0  0  0  0  0  0  0  0
   11.6223  -16.5146   25.5619 O   0  0  0  0  0  0  0  0  0  0  0  0
  2  3  2  0
  2  1  1  0
  4  2  1  0
  5  4  1  0
  6  5  1  0
  6  7  1  6
  8  6  1  0
  8  9  2  0
 11 10  1  6
 11 13  1  0
 12 11  1  0
 13 14  1  6
 14  8  1  0
 15 13  1  0
 16 15  2  0
 17 15  1  0
 18 17  1  0
 18 21  1  0
 18 19  1  6
 20 19  1  0
 21 23  1  0
 22 21  2  0
M  END
$$$$
