QVC.pdb
     RDKit          3D

 23 22  0  0  1  0  0  0  0  0999 V2000
    5.7168  -20.3681   18.4150 N   0  0  0  0  0  0  0  0  0  0  0  0
    7.1060  -20.5493   18.6878 C   0  0  0  0  0  0  0  0  0  0  0  0
    7.4324  -21.6174   19.2386 O   0  0  0  0  0  0  0  0  0  0  0  0
    8.0438  -19.4720   18.3022 C   0  0  0  0  0  0  0  0  0  0  0  0
    7.3750  -18.2626   17.7137 C   0  0  0  0  0  0  0  0  0  0  0  0
    8.3630  -17.1889   17.3249 C   0  0  2  0  0  0  0  0  0  0  0  0
    9.4704  -17.8828   16.6521 N   0  0  0  0  0  0  0  0  0  0  0  0
    8.8552  -16.5148   18.5578 C   0  0  0  0  0  0  0  0  0  0  0  0
    9.9917  -16.7360   19.0409 O   0  0  0  0  0  0  0  0  0  0  0  0
    7.5500  -12.7355   19.5013 C   0  0  0  0  0  0  0  0  0  0  0  0
    7.5691  -13.6648   20.6993 C   0  0  2  0  0  0  0  0  0  0  0  0
    8.1054  -12.9479   21.9126 C   0  0  0  0  0  0  0  0  0  0  0  0
    8.4290  -14.8836   20.4202 C   0  0  2  0  0  0  0  0  0  0  0  0
    8.0332  -15.5792   19.2395 N   0  0  0  0  0  0  0  0  0  0  0  0
    8.5519  -15.7455   21.6103 C   0  0  0  0  0  0  0  0  0  0  0  0
    7.6664  -16.5952   21.8382 O   0  0  0  0  0  0  0  0  0  0  0  0
    9.6673  -15.5909   22.4650 N   0  0  0  0  0  0  0  0  0  0  0  0
    9.9023  -16.4607   23.6080 C   0  0  1  0  0  0  0  0  0  0  0  0
   10.0669  -17.9021   23.2059 C   0  0  0  0  0  0  0  0  0  0  0  0
   11.6037  -17.9907   22.2118 S   0  0  0  0  0  0  0  0  0  0  0  0
   11.0350  -15.9451   24.3810 C   0  0  0  0  0  0  0  0  0  0  0  0
   11.7702  -15.0417   23.9231 O   0  0  0  0  0  0  0  0  0  0  0  0
   11.3383  -16.4349   25.6474 O   0  0  0  0  0  0  0  0  0  0  0  0
  2  3  2  0
  2  1  1  0
  4  2  1  0
  5  4  1  0
  6  5  1  0
  6  7  1  1
  8  6  1  0
  8  9  2  0
 11 10  1  6
 11 13  1  0
 12 11  1  0
 13 14  1  6
 14  8  1  0
 15 13  1  0
 16 15  2  0
 17 15  1  0
 18 17  1  0
 18 21  1  0
 18 19  1  6
 20 19  1  0
 21 23  1  0
 22 21  2  0
M  END
$$$$
