QVC.pdb
     RDKit          3D

 23 22  0  0  1  0  0  0  0  0999 V2000
    8.9656  -18.7411   20.4619 N   0  0  0  0  0  0  0  0  0  0  0  0
    8.3284  -18.5909   21.7303 C   0  0  0  0  0  0  0  0  0  0  0  0
    8.1646  -19.6283   22.3993 O   0  0  0  0  0  0  0  0  0  0  0  0
    7.9155  -17.2345   22.1525 C   0  0  0  0  0  0  0  0  0  0  0  0
    8.2031  -16.1655   21.1373 C   0  0  0  0  0  0  0  0  0  0  0  0
    7.6480  -14.8209   21.5423 C   0  0  2  0  0  0  0  0  0  0  0  0
    8.0303  -13.8869   20.4736 N   0  0  0  0  0  0  0  0  0  0  0  0
    8.2711  -14.4079   22.8299 C   0  0  0  0  0  0  0  0  0  0  0  0
    9.5033  -14.2047   22.9497 O   0  0  0  0  0  0  0  0  0  0  0  0
    6.4959  -11.9304   25.5513 C   0  0  0  0  0  0  0  0  0  0  0  0
    6.9738  -13.2288   26.1716 C   0  0  2  0  0  0  0  0  0  0  0  0
    7.5950  -12.9697   27.5209 C   0  0  0  0  0  0  0  0  0  0  0  0
    7.9930  -13.9088   25.2763 C   0  0  2  0  0  0  0  0  0  0  0  0
    7.4700  -14.2276   23.9881 N   0  0  0  0  0  0  0  0  0  0  0  0
    8.6417  -15.0446   25.9571 C   0  0  0  0  0  0  0  0  0  0  0  0
    8.0545  -16.1454   25.9944 O   0  0  0  0  0  0  0  0  0  0  0  0
    9.9115  -14.8623   26.5512 N   0  0  0  0  0  0  0  0  0  0  0  0
   10.6047  -15.9300   27.2565 C   0  0  1  0  0  0  0  0  0  0  0  0
   12.0361  -16.0737   26.8130 C   0  0  0  0  0  0  0  0  0  0  0  0
   12.7847  -17.3575   27.8850 S   0  0  0  0  0  0  0  0  0  0  0  0
   10.4669  -15.7224   28.7003 C   0  0  0  0  0  0  0  0  0  0  0  0
   10.5241  -14.5742   29.1949 O   0  0  0  0  0  0  0  0  0  0  0  0
   10.2681  -16.7857   29.5753 O   0  0  0  0  0  0  0  0  0  0  0  0
  2  3  2  0
  2  1  1  0
  4  2  1  0
  5  4  1  0
  6  5  1  0
  6  7  1  6
  8  6  1  0
  8  9  2  0
 11 10  1  6
 11 13  1  0
 12 11  1  0
 13 14  1  6
 14  8  1  0
 15 13  1  0
 16 15  2  0
 17 15  1  0
 18 17  1  0
 18 21  1  0
 18 19  1  1
 20 19  1  0
 21 23  1  0
 22 21  2  0
M  END
$$$$
