QVC.pdb
     RDKit          3D

 23 22  0  0  1  0  0  0  0  0999 V2000
    7.0969  -19.2631   22.1471 N   0  0  0  0  0  0  0  0  0  0  0  0
    7.8873  -19.6776   21.0333 C   0  0  0  0  0  0  0  0  0  0  0  0
    7.3442  -20.4472   20.2186 O   0  0  0  0  0  0  0  0  0  0  0  0
    9.2731  -19.1707   20.9280 C   0  0  0  0  0  0  0  0  0  0  0  0
    9.6489  -18.1938   22.0054 C   0  0  0  0  0  0  0  0  0  0  0  0
    9.3156  -16.7687   21.6337 C   0  0  2  0  0  0  0  0  0  0  0  0
   10.2781  -16.3871   20.5904 N   0  0  0  0  0  0  0  0  0  0  0  0
    9.4899  -15.9026   22.8322 C   0  0  0  0  0  0  0  0  0  0  0  0
   10.5948  -15.3979   23.1461 O   0  0  0  0  0  0  0  0  0  0  0  0
    6.6964  -13.2675   24.2921 C   0  0  0  0  0  0  0  0  0  0  0  0
    7.1699  -14.2699   25.3265 C   0  0  2  0  0  0  0  0  0  0  0  0
    7.3489  -13.5996   26.6653 C   0  0  0  0  0  0  0  0  0  0  0  0
    8.4853  -14.8974   24.9038 C   0  0  2  0  0  0  0  0  0  0  0  0
    8.3844  -15.6154   23.6754 N   0  0  0  0  0  0  0  0  0  0  0  0
    9.0954  -15.6708   26.0010 C   0  0  0  0  0  0  0  0  0  0  0  0
    8.8640  -16.8946   26.0826 O   0  0  0  0  0  0  0  0  0  0  0  0
    9.9271  -15.0107   26.9344 N   0  0  0  0  0  0  0  0  0  0  0  0
   10.7972  -15.7312   27.8520 C   0  0  1  0  0  0  0  0  0  0  0  0
   11.5519  -14.8068   28.7698 C   0  0  0  0  0  0  0  0  0  0  0  0
   10.2996  -13.7356   29.5711 S   0  0  0  0  0  0  0  0  0  0  0  0
   10.0125  -16.7401   28.5681 C   0  0  0  0  0  0  0  0  0  0  0  0
    8.7620  -16.6928   28.5835 O   0  0  0  0  0  0  0  0  0  0  0  0
   10.6207  -17.7853   29.2561 O   0  0  0  0  0  0  0  0  0  0  0  0
  2  3  2  0
  2  1  1  0
  4  2  1  0
  5  4  1  0
  6  5  1  0
  6  7  1  6
  8  6  1  0
  8  9  2  0
 11 10  1  6
 11 13  1  0
 12 11  1  0
 13 14  1  6
 14  8  1  0
 15 13  1  0
 16 15  2  0
 17 15  1  0
 18 17  1  0
 18 21  1  0
 18 19  1  1
 20 19  1  0
 21 23  1  0
 22 21  2  0
M  END
$$$$
