QVC.pdb
     RDKit          3D

 23 22  0  0  1  0  0  0  0  0999 V2000
    6.9711  -20.8690   18.9342 N   0  0  0  0  0  0  0  0  0  0  0  0
    8.0323  -21.1256   18.0148 C   0  0  0  0  0  0  0  0  0  0  0  0
    7.9069  -22.1244   17.2817 O   0  0  0  0  0  0  0  0  0  0  0  0
    9.1867  -20.2006   17.9988 C   0  0  0  0  0  0  0  0  0  0  0  0
    9.0309  -19.0147   18.9075 C   0  0  0  0  0  0  0  0  0  0  0  0
    9.3979  -17.7163   18.2296 C   0  0  2  0  0  0  0  0  0  0  0  0
   10.6586  -17.9733   17.5189 N   0  0  0  0  0  0  0  0  0  0  0  0
    9.6002  -16.6685   19.2679 C   0  0  0  0  0  0  0  0  0  0  0  0
   10.7115  -16.4624   19.8121 O   0  0  0  0  0  0  0  0  0  0  0  0
    7.9091  -13.0101   19.2614 C   0  0  0  0  0  0  0  0  0  0  0  0
    7.6325  -13.7402   20.5612 C   0  0  2  0  0  0  0  0  0  0  0  0
    7.7667  -12.7991   21.7318 C   0  0  0  0  0  0  0  0  0  0  0  0
    8.5947  -14.8997   20.7415 C   0  0  2  0  0  0  0  0  0  0  0  0
    8.5152  -15.8521   19.6826 N   0  0  0  0  0  0  0  0  0  0  0  0
    8.4864  -15.4909   22.0880 C   0  0  0  0  0  0  0  0  0  0  0  0
    7.4716  -16.1572   22.3784 O   0  0  0  0  0  0  0  0  0  0  0  0
    9.5318  -15.2906   23.0183 N   0  0  0  0  0  0  0  0  0  0  0  0
    9.5234  -15.8905   24.3442 C   0  0  1  0  0  0  0  0  0  0  0  0
   10.8642  -15.7982   25.0226 C   0  0  0  0  0  0  0  0  0  0  0  0
   12.0662  -16.6186   23.9091 S   0  0  0  0  0  0  0  0  0  0  0  0
    8.4373  -15.3025   25.1323 C   0  0  0  0  0  0  0  0  0  0  0  0
    8.0046  -14.1557   24.8789 O   0  0  0  0  0  0  0  0  0  0  0  0
    7.8458  -15.9896   26.1876 O   0  0  0  0  0  0  0  0  0  0  0  0
  2  3  2  0
  2  1  1  0
  4  2  1  0
  5  4  1  0
  6  5  1  0
  6  7  1  1
  8  6  1  0
  8  9  2  0
 11 10  1  6
 11 13  1  0
 12 11  1  0
 13 14  1  6
 14  8  1  0
 15 13  1  0
 16 15  2  0
 17 15  1  0
 18 17  1  0
 18 21  1  0
 18 19  1  1
 20 19  1  0
 21 23  1  0
 22 21  2  0
M  END
$$$$
