QVC.pdb
     RDKit          3D

 23 22  0  0  1  0  0  0  0  0999 V2000
    9.8605  -20.9210   20.1706 N   0  0  0  0  0  0  0  0  0  0  0  0
    9.1217  -21.1886   18.9791 C   0  0  0  0  0  0  0  0  0  0  0  0
    8.7903  -22.3726   18.7815 O   0  0  0  0  0  0  0  0  0  0  0  0
    8.8072  -20.0576   18.0788 C   0  0  0  0  0  0  0  0  0  0  0  0
    9.2225  -18.7173   18.6149 C   0  0  0  0  0  0  0  0  0  0  0  0
    8.8525  -17.5850   17.6869 C   0  0  2  0  0  0  0  0  0  0  0  0
    9.5890  -17.8282   16.4384 N   0  0  0  0  0  0  0  0  0  0  0  0
    9.2884  -16.2981   18.2958 C   0  0  0  0  0  0  0  0  0  0  0  0
   10.4314  -15.8156   18.1097 O   0  0  0  0  0  0  0  0  0  0  0  0
    7.0208  -12.9041   18.7274 C   0  0  0  0  0  0  0  0  0  0  0  0
    7.5625  -13.4457   20.0359 C   0  0  2  0  0  0  0  0  0  0  0  0
    7.9775  -12.3139   20.9419 C   0  0  0  0  0  0  0  0  0  0  0  0
    8.7558  -14.3502   19.7902 C   0  0  2  0  0  0  0  0  0  0  0  0
    8.4021  -15.5614   19.1250 N   0  0  0  0  0  0  0  0  0  0  0  0
    9.5474  -14.5506   21.0181 C   0  0  0  0  0  0  0  0  0  0  0  0
    9.9232  -13.5530   21.6673 O   0  0  0  0  0  0  0  0  0  0  0  0
    9.8624  -15.8651   21.4320 N   0  0  0  0  0  0  0  0  0  0  0  0
   10.3975  -16.1613   22.7527 C   0  0  1  0  0  0  0  0  0  0  0  0
    9.4501  -15.7693   23.8550 C   0  0  0  0  0  0  0  0  0  0  0  0
   10.3096  -16.1344   25.4316 S   0  0  0  0  0  0  0  0  0  0  0  0
   10.7934  -17.5708   22.8072 C   0  0  0  0  0  0  0  0  0  0  0  0
   10.0199  -18.4733   22.4153 O   0  0  0  0  0  0  0  0  0  0  0  0
   12.0369  -17.9618   23.2934 O   0  0  0  0  0  0  0  0  0  0  0  0
  2  3  2  0
  2  1  1  0
  4  2  1  0
  5  4  1  0
  6  5  1  0
  6  7  1  6
  8  6  1  0
  8  9  2  0
 11 10  1  6
 11 13  1  0
 12 11  1  0
 13 14  1  1
 14  8  1  0
 15 13  1  0
 16 15  2  0
 17 15  1  0
 18 17  1  0
 18 21  1  0
 18 19  1  1
 20 19  1  0
 21 23  1  0
 22 21  2  0
M  END
$$$$
