QVC.pdb
     RDKit          3D

 23 22  0  0  1  0  0  0  0  0999 V2000
   10.3187  -20.4898   23.6946 N   0  0  0  0  0  0  0  0  0  0  0  0
   10.4747  -20.9935   22.3682 C   0  0  0  0  0  0  0  0  0  0  0  0
   10.7330  -22.2067   22.2583 O   0  0  0  0  0  0  0  0  0  0  0  0
   10.3200  -20.0527   21.2370 C   0  0  0  0  0  0  0  0  0  0  0  0
    9.9185  -18.6649   21.6482 C   0  0  0  0  0  0  0  0  0  0  0  0
    9.7167  -17.7484   20.4653 C   0  0  2  0  0  0  0  0  0  0  0  0
   10.8922  -17.9362   19.6030 N   0  0  0  0  0  0  0  0  0  0  0  0
    9.6558  -16.3412   20.9480 C   0  0  0  0  0  0  0  0  0  0  0  0
   10.6840  -15.6523   21.1534 O   0  0  0  0  0  0  0  0  0  0  0  0
    7.8692  -13.4058   19.5057 C   0  0  0  0  0  0  0  0  0  0  0  0
    7.3512  -13.5241   20.9258 C   0  0  2  0  0  0  0  0  0  0  0  0
    7.2732  -12.1640   21.5722 C   0  0  0  0  0  0  0  0  0  0  0  0
    8.2546  -14.4184   21.7545 C   0  0  2  0  0  0  0  0  0  0  0  0
    8.4022  -15.7227   21.1962 N   0  0  0  0  0  0  0  0  0  0  0  0
    7.8642  -14.4165   23.1765 C   0  0  0  0  0  0  0  0  0  0  0  0
    6.9486  -15.1754   23.5555 O   0  0  0  0  0  0  0  0  0  0  0  0
    8.5340  -13.5570   24.0772 N   0  0  0  0  0  0  0  0  0  0  0  0
    8.0700  -13.3376   25.4391 C   0  0  1  0  0  0  0  0  0  0  0  0
    6.6334  -12.8905   25.4892 C   0  0  0  0  0  0  0  0  0  0  0  0
    6.1958  -12.7494   27.2630 S   0  0  0  0  0  0  0  0  0  0  0  0
    8.3273  -14.5401   26.2355 C   0  0  0  0  0  0  0  0  0  0  0  0
    8.8163  -14.4598   27.3848 O   0  0  0  0  0  0  0  0  0  0  0  0
    8.0408  -15.8123   25.7506 O   0  0  0  0  0  0  0  0  0  0  0  0
  2  3  2  0
  2  1  1  0
  4  2  1  0
  5  4  1  0
  6  5  1  0
  6  7  1  6
  8  6  1  0
  8  9  2  0
 11 10  1  6
 11 13  1  0
 12 11  1  0
 13 14  1  6
 14  8  1  0
 15 13  1  0
 16 15  2  0
 17 15  1  0
 18 17  1  0
 18 21  1  0
 18 19  1  6
 20 19  1  0
 21 23  1  0
 22 21  2  0
M  END
$$$$
