QVC.pdb
     RDKit          3D

 23 22  0  0  1  0  0  0  0  0999 V2000
    5.6233  -17.8105   14.0495 N   0  0  0  0  0  0  0  0  0  0  0  0
    6.8080  -18.1772   14.7560 C   0  0  0  0  0  0  0  0  0  0  0  0
    6.6593  -18.9022   15.7575 O   0  0  0  0  0  0  0  0  0  0  0  0
    8.1074  -17.6778   14.2551 C   0  0  0  0  0  0  0  0  0  0  0  0
    8.8939  -16.8985   15.2701 C   0  0  0  0  0  0  0  0  0  0  0  0
    8.5409  -15.4304   15.2702 C   0  0  2  0  0  0  0  0  0  0  0  0
    9.0893  -14.8826   14.0213 N   0  0  0  0  0  0  0  0  0  0  0  0
    9.1864  -14.7774   16.4423 C   0  0  0  0  0  0  0  0  0  0  0  0
    9.5922  -13.5906   16.4158 O   0  0  0  0  0  0  0  0  0  0  0  0
    8.1740  -12.9139   18.0672 C   0  0  0  0  0  0  0  0  0  0  0  0
    8.2891  -13.9218   19.1941 C   0  0  2  0  0  0  0  0  0  0  0  0
    8.5157  -13.2180   20.5082 C   0  0  0  0  0  0  0  0  0  0  0  0
    9.4351  -14.8834   18.9398 C   0  0  2  0  0  0  0  0  0  0  0  0
    9.3662  -15.4959   17.6535 N   0  0  0  0  0  0  0  0  0  0  0  0
    9.5982  -15.8397   20.0504 C   0  0  0  0  0  0  0  0  0  0  0  0
    9.0337  -16.9508   19.9823 O   0  0  0  0  0  0  0  0  0  0  0  0
   10.3884  -15.4777   21.1654 N   0  0  0  0  0  0  0  0  0  0  0  0
   11.7965  -15.8296   21.2722 C   0  0  1  0  0  0  0  0  0  0  0  0
   12.6028  -15.3245   20.1055 C   0  0  0  0  0  0  0  0  0  0  0  0
   12.8896  -16.7656   19.0107 S   0  0  0  0  0  0  0  0  0  0  0  0
   12.3098  -15.3754   22.5671 C   0  0  0  0  0  0  0  0  0  0  0  0
   11.7090  -14.4979   23.2269 O   0  0  0  0  0  0  0  0  0  0  0  0
   13.4783  -15.8970   23.1132 O   0  0  0  0  0  0  0  0  0  0  0  0
  2  3  2  0
  2  1  1  0
  4  2  1  0
  5  4  1  0
  6  5  1  0
  6  7  1  6
  8  6  1  0
  8  9  2  0
 11 10  1  6
 11 13  1  0
 12 11  1  0
 13 14  1  6
 14  8  1  0
 15 13  1  0
 16 15  2  0
 17 15  1  0
 18 17  1  0
 18 21  1  0
 18 19  1  6
 20 19  1  0
 21 23  1  0
 22 21  2  0
M  END
$$$$
