QVC.pdb
     RDKit          3D

 23 22  0  0  1  0  0  0  0  0999 V2000
    6.2696  -20.0622   15.9850 N   0  0  0  0  0  0  0  0  0  0  0  0
    7.5202  -20.5859   16.4311 C   0  0  0  0  0  0  0  0  0  0  0  0
    7.8217  -21.7269   16.0336 O   0  0  0  0  0  0  0  0  0  0  0  0
    8.3556  -19.7482   17.3194 C   0  0  0  0  0  0  0  0  0  0  0  0
    7.6840  -18.4844   17.7754 C   0  0  0  0  0  0  0  0  0  0  0  0
    8.3749  -17.2452   17.2588 C   0  0  2  0  0  0  0  0  0  0  0  0
    9.4811  -17.7206   16.4156 N   0  0  0  0  0  0  0  0  0  0  0  0
    8.9079  -16.4711   18.4136 C   0  0  0  0  0  0  0  0  0  0  0  0
   10.1156  -16.5072   18.7514 O   0  0  0  0  0  0  0  0  0  0  0  0
    7.5211  -12.7740   19.6747 C   0  0  0  0  0  0  0  0  0  0  0  0
    7.5124  -13.8407   20.7522 C   0  0  2  0  0  0  0  0  0  0  0  0
    7.9470  -13.2575   22.0731 C   0  0  0  0  0  0  0  0  0  0  0  0
    8.4390  -14.9844   20.3836 C   0  0  2  0  0  0  0  0  0  0  0  0
    8.0444  -15.6497   19.1851 N   0  0  0  0  0  0  0  0  0  0  0  0
    8.6641  -15.8904   21.5250 C   0  0  0  0  0  0  0  0  0  0  0  0
    7.7672  -16.6970   21.8457 O   0  0  0  0  0  0  0  0  0  0  0  0
    9.8882  -15.8257   22.2295 N   0  0  0  0  0  0  0  0  0  0  0  0
   10.2339  -16.7682   23.2832 C   0  0  1  0  0  0  0  0  0  0  0  0
   11.5637  -17.4319   23.0436 C   0  0  0  0  0  0  0  0  0  0  0  0
   12.8189  -16.0969   23.0538 S   0  0  0  0  0  0  0  0  0  0  0  0
   10.1529  -16.0918   24.5802 C   0  0  0  0  0  0  0  0  0  0  0  0
   10.3166  -16.7236   25.6482 O   0  0  0  0  0  0  0  0  0  0  0  0
    9.8926  -14.7285   24.6780 O   0  0  0  0  0  0  0  0  0  0  0  0
  2  3  2  0
  2  1  1  0
  4  2  1  0
  5  4  1  0
  6  5  1  0
  6  7  1  6
  8  6  1  0
  8  9  2  0
 11 10  1  6
 11 13  1  0
 12 11  1  0
 13 14  1  6
 14  8  1  0
 15 13  1  0
 16 15  2  0
 17 15  1  0
 18 17  1  0
 18 21  1  0
 18 19  1  6
 20 19  1  0
 21 23  1  0
 22 21  2  0
M  END
$$$$
