QMH.pdb
     RDKit          3D

 28 28  0  0  1  0  0  0  0  0999 V2000
    7.9067  -12.8180   18.0749 N   0  0  0  0  0  0  0  0  0  0  0  0
    8.1036  -14.1007   17.4380 C   0  0  0  0  0  0  0  0  0  0  0  0
    7.5831  -14.2210   16.3049 O   0  0  0  0  0  0  0  0  0  0  0  0
    8.8698  -15.1406   18.1364 C   0  0  0  0  0  0  0  0  0  0  0  0
    9.3236  -14.8457   19.5081 C   0  0  0  0  0  0  0  0  0  0  0  0
    9.1743  -15.9403   20.5066 C   0  0  2  0  0  0  0  0  0  0  0  0
    7.9542  -16.6851   20.3947 N   0  0  0  0  0  0  0  0  0  0  0  0
    9.2340  -15.3739   21.8977 C   0  0  0  0  0  0  0  0  0  0  0  0
   10.2096  -14.6615   22.2172 O   0  0  0  0  0  0  0  0  0  0  0  0
    6.3452  -11.3607   26.4953 C   0  0  0  0  0  0  0  0  0  0  0  0
    7.6215  -12.6471   26.4384 S   0  0  0  0  0  0  0  0  0  0  0  0
    6.8526  -14.2885   26.1370 C   0  0  0  0  0  0  0  0  0  0  0  0
    7.0019  -14.5898   24.6763 C   0  0  0  0  0  0  0  0  0  0  0  0
    8.3024  -15.1924   24.2570 C   0  0  2  0  0  0  0  0  0  0  0  0
    8.2232  -15.6228   22.8503 N   0  0  0  0  0  0  0  0  0  0  0  0
    8.7991  -16.2999   25.0884 C   0  0  0  0  0  0  0  0  0  0  0  0
    8.0528  -17.3352   25.2106 O   0  0  0  0  0  0  0  0  0  0  0  0
   10.0216  -16.3616   25.7754 N   0  0  0  0  0  0  0  0  0  0  0  0
   10.3808  -17.5800   26.5711 C   0  0  1  0  0  0  0  0  0  0  0  0
   11.8320  -17.7851   26.2748 C   0  0  0  0  0  0  0  0  0  0  0  0
   12.1348  -18.2472   24.9093 C   0  0  0  0  0  0  0  0  0  0  0  0
   11.3846  -19.1385   24.1408 C   0  0  0  0  0  0  0  0  0  0  0  0
   12.0022  -19.2853   22.9772 N   0  0  0  0  0  0  0  0  0  0  0  0
   13.1002  -18.5333   22.9752 C   0  0  0  0  0  0  0  0  0  0  0  0
   13.1746  -17.9096   24.1434 N   0  0  0  0  0  0  0  0  0  0  0  0
   10.1089  -17.3118   27.9871 C   0  0  0  0  0  0  0  0  0  0  0  0
   10.2932  -18.2877   28.9430 O   0  0  0  0  0  0  0  0  0  0  0  0
    9.7054  -16.2014   28.3689 O   0  0  0  0  0  0  0  0  0  0  0  0
  2  1  1  0
  2  3  2  0
  4  2  1  0
  5  4  1  0
  5  6  1  0
  6  7  1  6
  8  6  1  0
  8  9  2  0
 10 11  1  0
 11 12  1  0
 14 13  1  1
 13 12  1  0
 14 15  1  0
 15  8  1  0
 16 14  1  0
 17 16  2  0
 18 16  1  0
 19 18  1  0
 19 20  1  1
 20 21  1  0
 21 25  1  0
 21 22  2  0
 22 23  1  0
 24 23  1  0
 25 24  2  0
 26 19  1  0
 27 26  1  0
 28 26  2  0
M  END
$$$$
