QMH.pdb
     RDKit          3D

 28 28  0  0  1  0  0  0  0  0999 V2000
    9.0557  -14.3518   12.9639 N   0  0  0  0  0  0  0  0  0  0  0  0
    8.3703  -15.3480   13.7560 C   0  0  0  0  0  0  0  0  0  0  0  0
    7.1803  -15.5649   13.4301 O   0  0  0  0  0  0  0  0  0  0  0  0
    9.0865  -16.0136   14.8516 C   0  0  0  0  0  0  0  0  0  0  0  0
   10.4735  -15.5879   15.1153 C   0  0  0  0  0  0  0  0  0  0  0  0
   11.1784  -16.2765   16.2318 C   0  0  2  0  0  0  0  0  0  0  0  0
   10.8133  -17.6518   16.4075 N   0  0  0  0  0  0  0  0  0  0  0  0
   10.9014  -15.5647   17.5264 C   0  0  0  0  0  0  0  0  0  0  0  0
   11.2342  -14.3654   17.6383 O   0  0  0  0  0  0  0  0  0  0  0  0
    6.8383  -11.5812   19.9508 C   0  0  0  0  0  0  0  0  0  0  0  0
    7.7281  -12.9713   20.7012 S   0  0  0  0  0  0  0  0  0  0  0  0
    7.8561  -14.3603   19.5053 C   0  0  0  0  0  0  0  0  0  0  0  0
    8.5849  -15.4753   20.1926 C   0  0  0  0  0  0  0  0  0  0  0  0
   10.0508  -15.5696   19.9230 C   0  0  2  0  0  0  0  0  0  0  0  0
   10.2782  -16.2098   18.6158 N   0  0  0  0  0  0  0  0  0  0  0  0
   10.8550  -16.2446   20.9536 C   0  0  0  0  0  0  0  0  0  0  0  0
   10.7783  -17.5223   21.0282 O   0  0  0  0  0  0  0  0  0  0  0  0
   11.7189  -15.6439   21.8827 N   0  0  0  0  0  0  0  0  0  0  0  0
   12.4535  -16.4831   22.8841 C   0  0  1  0  0  0  0  0  0  0  0  0
   13.6551  -15.6612   23.2258 C   0  0  0  0  0  0  0  0  0  0  0  0
   14.6275  -15.4862   22.1332 C   0  0  0  0  0  0  0  0  0  0  0  0
   14.6975  -16.2205   20.9485 C   0  0  0  0  0  0  0  0  0  0  0  0
   15.7123  -15.7457   20.2401 N   0  0  0  0  0  0  0  0  0  0  0  0
   16.2825  -14.7525   20.9179 C   0  0  0  0  0  0  0  0  0  0  0  0
   15.6236  -14.6008   22.0591 N   0  0  0  0  0  0  0  0  0  0  0  0
   11.5705  -16.7260   24.0297 C   0  0  0  0  0  0  0  0  0  0  0  0
   10.3122  -16.1661   24.0877 O   0  0  0  0  0  0  0  0  0  0  0  0
   11.9267  -17.4408   24.9803 O   0  0  0  0  0  0  0  0  0  0  0  0
  2  1  1  0
  2  3  2  0
  4  2  1  0
  5  4  1  0
  5  6  1  0
  6  7  1  1
  8  6  1  0
  8  9  2  0
 10 11  1  0
 11 12  1  0
 14 13  1  1
 13 12  1  0
 14 15  1  0
 15  8  1  0
 16 14  1  0
 17 16  2  0
 18 16  1  0
 19 18  1  0
 19 20  1  1
 20 21  1  0
 21 25  1  0
 21 22  2  0
 22 23  1  0
 24 23  1  0
 25 24  2  0
 26 19  1  0
 27 26  1  0
 28 26  2  0
M  END
$$$$
