QMH.pdb
     RDKit          3D

 28 28  0  0  1  0  0  0  0  0999 V2000
    7.8526  -12.4968   17.5289 N   0  0  0  0  0  0  0  0  0  0  0  0
    8.0071  -13.9281   17.3976 C   0  0  0  0  0  0  0  0  0  0  0  0
    7.3112  -14.4615   16.5028 O   0  0  0  0  0  0  0  0  0  0  0  0
    8.9331  -14.6366   18.2902 C   0  0  0  0  0  0  0  0  0  0  0  0
    8.7545  -14.4508   19.7421 C   0  0  0  0  0  0  0  0  0  0  0  0
    9.0914  -15.6154   20.6069 C   0  0  2  0  0  0  0  0  0  0  0  0
    8.1360  -16.6837   20.5646 N   0  0  0  0  0  0  0  0  0  0  0  0
    9.2117  -15.1708   22.0377 C   0  0  0  0  0  0  0  0  0  0  0  0
   10.1249  -14.3761   22.3473 O   0  0  0  0  0  0  0  0  0  0  0  0
    6.4949  -11.8050   27.2917 C   0  0  0  0  0  0  0  0  0  0  0  0
    7.7643  -12.3093   26.0994 S   0  0  0  0  0  0  0  0  0  0  0  0
    6.9942  -13.2231   24.7037 C   0  0  0  0  0  0  0  0  0  0  0  0
    7.1881  -14.6859   24.9668 C   0  0  0  0  0  0  0  0  0  0  0  0
    8.4618  -15.2828   24.4651 C   0  0  2  0  0  0  0  0  0  0  0  0
    8.3258  -15.6237   23.0383 N   0  0  0  0  0  0  0  0  0  0  0  0
    8.9660  -16.4479   25.2086 C   0  0  0  0  0  0  0  0  0  0  0  0
    8.4976  -17.6008   24.9000 O   0  0  0  0  0  0  0  0  0  0  0  0
    9.9234  -16.4487   26.2351 N   0  0  0  0  0  0  0  0  0  0  0  0
   10.3424  -17.7367   26.8770 C   0  0  1  0  0  0  0  0  0  0  0  0
   11.7162  -17.9747   26.3365 C   0  0  0  0  0  0  0  0  0  0  0  0
   11.7680  -18.4802   24.9539 C   0  0  0  0  0  0  0  0  0  0  0  0
   10.6822  -18.7622   24.1237 C   0  0  0  0  0  0  0  0  0  0  0  0
   11.1622  -19.1936   22.9659 N   0  0  0  0  0  0  0  0  0  0  0  0
   12.4916  -19.1972   23.0260 C   0  0  0  0  0  0  0  0  0  0  0  0
   12.8510  -18.7658   24.2277 N   0  0  0  0  0  0  0  0  0  0  0  0
   10.3123  -17.5660   28.3334 C   0  0  0  0  0  0  0  0  0  0  0  0
   10.4897  -18.6407   29.1782 O   0  0  0  0  0  0  0  0  0  0  0  0
   10.1265  -16.4525   28.8500 O   0  0  0  0  0  0  0  0  0  0  0  0
  2  1  1  0
  2  3  2  0
  4  2  1  0
  5  4  1  0
  5  6  1  0
  6  7  1  1
  8  6  1  0
  8  9  2  0
 10 11  1  0
 11 12  1  0
 14 13  1  1
 13 12  1  0
 14 15  1  0
 15  8  1  0
 16 14  1  0
 17 16  2  0
 18 16  1  0
 19 18  1  0
 19 20  1  6
 20 21  1  0
 21 25  1  0
 21 22  2  0
 22 23  1  0
 24 23  1  0
 25 24  2  0
 26 19  1  0
 27 26  1  0
 28 26  2  0
M  END
$$$$
