QMH.pdb
     RDKit          3D

 28 28  0  0  1  0  0  0  0  0999 V2000
    8.8259  -12.1977   17.3958 N   0  0  0  0  0  0  0  0  0  0  0  0
    8.2261  -13.4969   17.6004 C   0  0  0  0  0  0  0  0  0  0  0  0
    7.9186  -14.1149   16.5549 O   0  0  0  0  0  0  0  0  0  0  0  0
    8.0217  -13.9874   18.9693 C   0  0  0  0  0  0  0  0  0  0  0  0
    9.1681  -14.6269   19.6411 C   0  0  0  0  0  0  0  0  0  0  0  0
    8.8528  -15.7468   20.5706 C   0  0  2  0  0  0  0  0  0  0  0  0
    7.4844  -16.1741   20.5443 N   0  0  0  0  0  0  0  0  0  0  0  0
    9.1754  -15.3446   21.9825 C   0  0  0  0  0  0  0  0  0  0  0  0
   10.3335  -14.9592   22.2499 O   0  0  0  0  0  0  0  0  0  0  0  0
    7.0948  -10.8559   26.8995 C   0  0  0  0  0  0  0  0  0  0  0  0
    6.2308  -12.4263   26.6265 S   0  0  0  0  0  0  0  0  0  0  0  0
    7.4457  -13.7821   26.3784 C   0  0  0  0  0  0  0  0  0  0  0  0
    7.3257  -14.2340   24.9542 C   0  0  0  0  0  0  0  0  0  0  0  0
    8.4848  -14.9994   24.4055 C   0  0  2  0  0  0  0  0  0  0  0  0
    8.2109  -15.3896   23.0116 N   0  0  0  0  0  0  0  0  0  0  0  0
    8.9044  -16.1787   25.1785 C   0  0  0  0  0  0  0  0  0  0  0  0
    8.1398  -17.2077   25.1588 O   0  0  0  0  0  0  0  0  0  0  0  0
   10.0699  -16.3166   25.9485 N   0  0  0  0  0  0  0  0  0  0  0  0
   10.3640  -17.6080   26.6501 C   0  0  1  0  0  0  0  0  0  0  0  0
   11.7278  -17.9777   26.1608 C   0  0  0  0  0  0  0  0  0  0  0  0
   11.7589  -18.7154   24.8861 C   0  0  0  0  0  0  0  0  0  0  0  0
   10.6607  -19.1540   24.1450 C   0  0  0  0  0  0  0  0  0  0  0  0
   11.1233  -19.7732   23.0681 N   0  0  0  0  0  0  0  0  0  0  0  0
   12.4535  -19.7461   23.0946 C   0  0  0  0  0  0  0  0  0  0  0  0
   12.8309  -19.1067   24.1938 N   0  0  0  0  0  0  0  0  0  0  0  0
   10.3082  -17.3783   28.0975 C   0  0  0  0  0  0  0  0  0  0  0  0
   10.0743  -16.1196   28.6083 O   0  0  0  0  0  0  0  0  0  0  0  0
   10.4695  -18.3066   28.9061 O   0  0  0  0  0  0  0  0  0  0  0  0
  2  1  1  0
  2  3  2  0
  4  2  1  0
  5  4  1  0
  5  6  1  0
  6  7  1  1
  8  6  1  0
  8  9  2  0
 10 11  1  0
 11 12  1  0
 14 13  1  1
 13 12  1  0
 14 15  1  0
 15  8  1  0
 16 14  1  0
 17 16  2  0
 18 16  1  0
 19 18  1  0
 19 20  1  1
 20 21  1  0
 21 25  1  0
 21 22  2  0
 22 23  1  0
 24 23  1  0
 25 24  2  0
 26 19  1  0
 27 26  1  0
 28 26  2  0
M  END
$$$$
