QMH.pdb
     RDKit          3D

 28 28  0  0  1  0  0  0  0  0999 V2000
    6.3419  -19.0730   18.8885 N   0  0  0  0  0  0  0  0  0  0  0  0
    7.1728  -19.6933   19.8957 C   0  0  0  0  0  0  0  0  0  0  0  0
    7.3196  -20.9320   19.7797 O   0  0  0  0  0  0  0  0  0  0  0  0
    7.7659  -18.8619   20.9509 C   0  0  0  0  0  0  0  0  0  0  0  0
    7.4769  -17.4162   20.9210 C   0  0  0  0  0  0  0  0  0  0  0  0
    8.6242  -16.5159   20.6196 C   0  0  2  0  0  0  0  0  0  0  0  0
    9.7469  -17.1668   20.0102 N   0  0  0  0  0  0  0  0  0  0  0  0
    9.1089  -15.8657   21.8852 C   0  0  0  0  0  0  0  0  0  0  0  0
   10.3380  -15.7171   22.0542 O   0  0  0  0  0  0  0  0  0  0  0  0
    6.4393  -11.3085   27.8645 C   0  0  0  0  0  0  0  0  0  0  0  0
    6.1721  -12.3863   26.4314 S   0  0  0  0  0  0  0  0  0  0  0  0
    7.7608  -13.1442   25.9046 C   0  0  0  0  0  0  0  0  0  0  0  0
    7.4881  -13.9323   24.6590 C   0  0  0  0  0  0  0  0  0  0  0  0
    8.6442  -14.6875   24.0904 C   0  0  2  0  0  0  0  0  0  0  0  0
    8.2186  -15.4194   22.8849 N   0  0  0  0  0  0  0  0  0  0  0  0
    9.3326  -15.6050   25.0118 C   0  0  0  0  0  0  0  0  0  0  0  0
    9.8288  -15.1106   26.0857 O   0  0  0  0  0  0  0  0  0  0  0  0
    9.5109  -16.9883   24.8543 N   0  0  0  0  0  0  0  0  0  0  0  0
   10.1507  -17.7967   25.9424 C   0  0  1  0  0  0  0  0  0  0  0  0
   11.5872  -17.8715   25.5341 C   0  0  0  0  0  0  0  0  0  0  0  0
   11.8439  -18.5774   24.2669 C   0  0  0  0  0  0  0  0  0  0  0  0
   10.8916  -19.1125   23.3982 C   0  0  0  0  0  0  0  0  0  0  0  0
   11.5389  -19.6598   22.3792 N   0  0  0  0  0  0  0  0  0  0  0  0
   12.8468  -19.4965   22.5629 C   0  0  0  0  0  0  0  0  0  0  0  0
   13.0244  -18.8428   23.7033 N   0  0  0  0  0  0  0  0  0  0  0  0
    9.9448  -17.1079   27.2207 C   0  0  0  0  0  0  0  0  0  0  0  0
    9.7478  -17.8172   28.3860 O   0  0  0  0  0  0  0  0  0  0  0  0
    9.9411  -15.8684   27.2939 O   0  0  0  0  0  0  0  0  0  0  0  0
  2  1  1  0
  2  3  2  0
  4  2  1  0
  5  4  1  0
  5  6  1  0
  6  7  1  1
  8  6  1  0
  8  9  2  0
 10 11  1  0
 11 12  1  0
 14 13  1  1
 13 12  1  0
 14 15  1  0
 15  8  1  0
 16 14  1  0
 17 16  2  0
 18 16  1  0
 19 18  1  0
 19 20  1  6
 20 21  1  0
 21 25  1  0
 21 22  2  0
 22 23  1  0
 24 23  1  0
 25 24  2  0
 26 19  1  0
 27 26  1  0
 28 26  2  0
M  END
$$$$
