QMH.pdb
     RDKit          3D

 28 28  0  0  1  0  0  0  0  0999 V2000
    8.5850  -12.3060   17.4355 N   0  0  0  0  0  0  0  0  0  0  0  0
    8.0453  -13.5680   16.9821 C   0  0  0  0  0  0  0  0  0  0  0  0
    7.6028  -13.5707   15.8101 O   0  0  0  0  0  0  0  0  0  0  0  0
    8.0485  -14.7203   17.8923 C   0  0  0  0  0  0  0  0  0  0  0  0
    8.5416  -14.5019   19.2648 C   0  0  0  0  0  0  0  0  0  0  0  0
    8.5134  -15.6796   20.1757 C   0  0  2  0  0  0  0  0  0  0  0  0
    7.2552  -16.3655   20.2223 N   0  0  0  0  0  0  0  0  0  0  0  0
    8.8476  -15.2494   21.5767 C   0  0  0  0  0  0  0  0  0  0  0  0
    9.9403  -14.6813   21.7884 O   0  0  0  0  0  0  0  0  0  0  0  0
    6.8629  -11.6055   27.8619 C   0  0  0  0  0  0  0  0  0  0  0  0
    6.7535  -12.1654   26.1410 S   0  0  0  0  0  0  0  0  0  0  0  0
    7.0792  -13.9709   26.0411 C   0  0  0  0  0  0  0  0  0  0  0  0
    7.0151  -14.3567   24.5940 C   0  0  0  0  0  0  0  0  0  0  0  0
    8.2320  -15.0160   24.0330 C   0  0  2  0  0  0  0  0  0  0  0  0
    7.9657  -15.4678   22.6563 N   0  0  0  0  0  0  0  0  0  0  0  0
    8.7867  -16.1269   24.8221 C   0  0  0  0  0  0  0  0  0  0  0  0
    8.0432  -17.1543   25.0105 O   0  0  0  0  0  0  0  0  0  0  0  0
   10.0627  -16.1998   25.4025 N   0  0  0  0  0  0  0  0  0  0  0  0
   10.4353  -17.3680   26.2646 C   0  0  1  0  0  0  0  0  0  0  0  0
   11.8657  -17.6280   25.9147 C   0  0  0  0  0  0  0  0  0  0  0  0
   12.0855  -18.2727   24.6086 C   0  0  0  0  0  0  0  0  0  0  0  0
   11.1401  -18.9549   23.8414 C   0  0  0  0  0  0  0  0  0  0  0  0
   11.7451  -19.3791   22.7409 N   0  0  0  0  0  0  0  0  0  0  0  0
   13.0199  -18.9990   22.7773 C   0  0  0  0  0  0  0  0  0  0  0  0
   13.2191  -18.3320   23.9064 N   0  0  0  0  0  0  0  0  0  0  0  0
   10.2389  -16.9953   27.6694 C   0  0  0  0  0  0  0  0  0  0  0  0
   10.3897  -17.9227   28.6779 O   0  0  0  0  0  0  0  0  0  0  0  0
    9.9316  -15.8370   27.9940 O   0  0  0  0  0  0  0  0  0  0  0  0
  2  1  1  0
  2  3  2  0
  4  2  1  0
  5  4  1  0
  5  6  1  0
  6  7  1  1
  8  6  1  0
  8  9  2  0
 10 11  1  0
 11 12  1  0
 14 13  1  1
 13 12  1  0
 14 15  1  0
 15  8  1  0
 16 14  1  0
 17 16  2  0
 18 16  1  0
 19 18  1  0
 19 20  1  1
 20 21  1  0
 21 25  1  0
 21 22  2  0
 22 23  1  0
 24 23  1  0
 25 24  2  0
 26 19  1  0
 27 26  1  0
 28 26  2  0
M  END
$$$$
