QMH.pdb
     RDKit          3D

 28 28  0  0  1  0  0  0  0  0999 V2000
    7.8692  -19.5996   21.1070 N   0  0  0  0  0  0  0  0  0  0  0  0
    8.4724  -19.0826   19.8993 C   0  0  0  0  0  0  0  0  0  0  0  0
    9.1567  -19.9056   19.2483 O   0  0  0  0  0  0  0  0  0  0  0  0
    8.2536  -17.6783   19.5301 C   0  0  0  0  0  0  0  0  0  0  0  0
    7.4313  -16.8565   20.4372 C   0  0  0  0  0  0  0  0  0  0  0  0
    7.8610  -15.4432   20.6258 C   0  0  2  0  0  0  0  0  0  0  0  0
    8.9067  -15.0167   19.7425 N   0  0  0  0  0  0  0  0  0  0  0  0
    8.3461  -15.2408   22.0340 C   0  0  0  0  0  0  0  0  0  0  0  0
    9.5766  -15.2103   22.2493 O   0  0  0  0  0  0  0  0  0  0  0  0
    7.1129  -10.2774   26.3157 C   0  0  0  0  0  0  0  0  0  0  0  0
    7.4486  -12.0554   26.4302 S   0  0  0  0  0  0  0  0  0  0  0  0
    6.4478  -12.9694   25.1897 C   0  0  0  0  0  0  0  0  0  0  0  0
    6.7623  -14.4264   25.3483 C   0  0  0  0  0  0  0  0  0  0  0  0
    7.8873  -14.9521   24.5186 C   0  0  2  0  0  0  0  0  0  0  0  0
    7.4546  -15.0847   23.1167 N   0  0  0  0  0  0  0  0  0  0  0  0
    8.4908  -16.2143   24.9740 C   0  0  0  0  0  0  0  0  0  0  0  0
    7.8071  -17.2890   24.8284 O   0  0  0  0  0  0  0  0  0  0  0  0
    9.7558  -16.3867   25.5575 N   0  0  0  0  0  0  0  0  0  0  0  0
   10.2079  -17.7477   25.9934 C   0  0  1  0  0  0  0  0  0  0  0  0
   11.4969  -17.9469   25.2620 C   0  0  0  0  0  0  0  0  0  0  0  0
   12.2533  -19.1531   25.6400 C   0  0  0  0  0  0  0  0  0  0  0  0
   11.7678  -20.2641   26.3311 C   0  0  0  0  0  0  0  0  0  0  0  0
   12.7684  -21.1231   26.4658 N   0  0  0  0  0  0  0  0  0  0  0  0
   13.8557  -20.6095   25.8959 C   0  0  0  0  0  0  0  0  0  0  0  0
   13.5386  -19.4210   25.3995 N   0  0  0  0  0  0  0  0  0  0  0  0
   10.3614  -17.7457   27.4519 C   0  0  0  0  0  0  0  0  0  0  0  0
   10.6321  -18.9094   28.1392 O   0  0  0  0  0  0  0  0  0  0  0  0
   10.2527  -16.6997   28.1119 O   0  0  0  0  0  0  0  0  0  0  0  0
  2  1  1  0
  2  3  2  0
  4  2  1  0
  5  4  1  0
  5  6  1  0
  6  7  1  6
  8  6  1  0
  8  9  2  0
 10 11  1  0
 11 12  1  0
 14 13  1  1
 13 12  1  0
 14 15  1  0
 15  8  1  0
 16 14  1  0
 17 16  2  0
 18 16  1  0
 19 18  1  0
 19 20  1  6
 20 21  1  0
 21 25  1  0
 21 22  2  0
 22 23  1  0
 24 23  1  0
 25 24  2  0
 26 19  1  0
 27 26  1  0
 28 26  2  0
M  END
$$$$
