QMH.pdb
     RDKit          3D

 28 28  0  0  1  0  0  0  0  0999 V2000
    8.7674  -12.7495   17.2423 N   0  0  0  0  0  0  0  0  0  0  0  0
    8.0407  -13.9533   16.9072 C   0  0  0  0  0  0  0  0  0  0  0  0
    7.9312  -14.1886   15.6816 O   0  0  0  0  0  0  0  0  0  0  0  0
    7.4964  -14.7887   17.9853 C   0  0  0  0  0  0  0  0  0  0  0  0
    7.7823  -14.3800   19.3730 C   0  0  0  0  0  0  0  0  0  0  0  0
    8.2448  -15.4510   20.2986 C   0  0  2  0  0  0  0  0  0  0  0  0
    7.2686  -16.4655   20.5694 N   0  0  0  0  0  0  0  0  0  0  0  0
    8.6497  -14.8483   21.6148 C   0  0  0  0  0  0  0  0  0  0  0  0
    9.6136  -14.0535   21.6429 O   0  0  0  0  0  0  0  0  0  0  0  0
    6.0668  -11.0692   27.7536 C   0  0  0  0  0  0  0  0  0  0  0  0
    5.8478  -12.0752   26.2612 S   0  0  0  0  0  0  0  0  0  0  0  0
    7.3554  -13.0772   25.9466 C   0  0  0  0  0  0  0  0  0  0  0  0
    7.1353  -13.8251   24.6664 C   0  0  0  0  0  0  0  0  0  0  0  0
    8.3164  -14.5569   24.1190 C   0  0  2  0  0  0  0  0  0  0  0  0
    7.9747  -15.1531   22.8159 N   0  0  0  0  0  0  0  0  0  0  0  0
    8.9044  -15.5818   24.9956 C   0  0  0  0  0  0  0  0  0  0  0  0
    8.9404  -15.3407   26.2543 O   0  0  0  0  0  0  0  0  0  0  0  0
    9.4384  -16.8215   24.6105 N   0  0  0  0  0  0  0  0  0  0  0  0
    9.9499  -17.7783   25.6446 C   0  0  1  0  0  0  0  0  0  0  0  0
    9.5542  -19.1201   25.1165 C   0  0  0  0  0  0  0  0  0  0  0  0
    8.1030  -19.3525   25.0166 C   0  0  0  0  0  0  0  0  0  0  0  0
    7.0897  -18.5797   25.5855 C   0  0  0  0  0  0  0  0  0  0  0  0
    5.9301  -19.1306   25.2558 N   0  0  0  0  0  0  0  0  0  0  0  0
    6.1625  -20.2082   24.5102 C   0  0  0  0  0  0  0  0  0  0  0  0
    7.4751  -20.3367   24.3695 N   0  0  0  0  0  0  0  0  0  0  0  0
   11.4014  -17.6060   25.7652 C   0  0  0  0  0  0  0  0  0  0  0  0
   12.1035  -18.1958   26.7944 O   0  0  0  0  0  0  0  0  0  0  0  0
   12.0418  -16.9259   24.9473 O   0  0  0  0  0  0  0  0  0  0  0  0
  2  1  1  0
  2  3  2  0
  4  2  1  0
  5  4  1  0
  5  6  1  0
  6  7  1  1
  8  6  1  0
  8  9  2  0
 10 11  1  0
 11 12  1  0
 14 13  1  1
 13 12  1  0
 14 15  1  0
 15  8  1  0
 16 14  1  0
 17 16  2  0
 18 16  1  0
 19 18  1  0
 19 20  1  6
 20 21  1  0
 21 25  1  0
 21 22  2  0
 22 23  1  0
 24 23  1  0
 25 24  2  0
 26 19  1  0
 27 26  1  0
 28 26  2  0
M  END
$$$$
