QMH.pdb
     RDKit          3D

 28 28  0  0  1  0  0  0  0  0999 V2000
    9.6830  -17.8752   16.7752 N   0  0  0  0  0  0  0  0  0  0  0  0
    8.4875  -17.1253   16.4620 C   0  0  0  0  0  0  0  0  0  0  0  0
    7.9674  -17.3863   15.3526 O   0  0  0  0  0  0  0  0  0  0  0  0
    7.9817  -16.1416   17.4278 C   0  0  0  0  0  0  0  0  0  0  0  0
    8.7281  -15.9807   18.6893 C   0  0  0  0  0  0  0  0  0  0  0  0
    8.0772  -16.5128   19.9184 C   0  0  2  0  0  0  0  0  0  0  0  0
    6.6524  -16.3563   19.9521 N   0  0  0  0  0  0  0  0  0  0  0  0
    8.6379  -15.8249   21.1316 C   0  0  0  0  0  0  0  0  0  0  0  0
    9.8677  -15.6112   21.1890 O   0  0  0  0  0  0  0  0  0  0  0  0
    6.5734  -11.5012   27.4960 C   0  0  0  0  0  0  0  0  0  0  0  0
    6.2150  -12.3120   25.9144 S   0  0  0  0  0  0  0  0  0  0  0  0
    7.6467  -13.3374   25.3902 C   0  0  0  0  0  0  0  0  0  0  0  0
    7.3037  -13.9360   24.0595 C   0  0  0  0  0  0  0  0  0  0  0  0
    8.3373  -14.8254   23.4506 C   0  0  2  0  0  0  0  0  0  0  0  0
    7.8180  -15.4146   22.2043 N   0  0  0  0  0  0  0  0  0  0  0  0
    8.8681  -15.8878   24.3191 C   0  0  0  0  0  0  0  0  0  0  0  0
    8.0968  -16.8742   24.5943 O   0  0  0  0  0  0  0  0  0  0  0  0
   10.1482  -15.9540   24.8913 N   0  0  0  0  0  0  0  0  0  0  0  0
   10.5731  -17.1725   25.6538 C   0  0  1  0  0  0  0  0  0  0  0  0
   12.0338  -17.2889   25.3556 C   0  0  0  0  0  0  0  0  0  0  0  0
   12.7538  -18.3120   26.1332 C   0  0  0  0  0  0  0  0  0  0  0  0
   12.2335  -19.1080   27.1547 C   0  0  0  0  0  0  0  0  0  0  0  0
   13.2086  -19.8940   27.5888 N   0  0  0  0  0  0  0  0  0  0  0  0
   14.3130  -19.6329   26.8937 C   0  0  0  0  0  0  0  0  0  0  0  0
   14.0322  -18.6778   26.0172 N   0  0  0  0  0  0  0  0  0  0  0  0
   10.2852  -16.9595   27.0760 C   0  0  0  0  0  0  0  0  0  0  0  0
   10.3968  -17.9894   27.9852 O   0  0  0  0  0  0  0  0  0  0  0  0
    9.9331  -15.8488   27.5049 O   0  0  0  0  0  0  0  0  0  0  0  0
  2  1  1  0
  2  3  2  0
  4  2  1  0
  5  4  1  0
  5  6  1  0
  6  7  1  6
  8  6  1  0
  8  9  2  0
 10 11  1  0
 11 12  1  0
 14 13  1  1
 13 12  1  0
 14 15  1  0
 15  8  1  0
 16 14  1  0
 17 16  2  0
 18 16  1  0
 19 18  1  0
 19 20  1  1
 20 21  1  0
 21 25  1  0
 21 22  2  0
 22 23  1  0
 24 23  1  0
 25 24  2  0
 26 19  1  0
 27 26  1  0
 28 26  2  0
M  END
$$$$
