QMH.pdb
     RDKit          3D

 28 28  0  0  1  0  0  0  0  0999 V2000
    8.5651  -12.5999   17.5596 N   0  0  0  0  0  0  0  0  0  0  0  0
    8.3987  -14.0335   17.6415 C   0  0  0  0  0  0  0  0  0  0  0  0
    7.2497  -14.4550   17.3737 O   0  0  0  0  0  0  0  0  0  0  0  0
    9.5440  -14.8702   18.0217 C   0  0  0  0  0  0  0  0  0  0  0  0
   10.0253  -14.7735   19.4122 C   0  0  0  0  0  0  0  0  0  0  0  0
    9.5257  -15.8069   20.3610 C   0  0  2  0  0  0  0  0  0  0  0  0
    8.1400  -16.1392   20.2029 N   0  0  0  0  0  0  0  0  0  0  0  0
    9.7212  -15.3380   21.7757 C   0  0  0  0  0  0  0  0  0  0  0  0
   10.8783  -15.0801   22.1709 O   0  0  0  0  0  0  0  0  0  0  0  0
    6.2664  -11.3305   27.6076 C   0  0  0  0  0  0  0  0  0  0  0  0
    6.3047  -12.0542   25.9457 S   0  0  0  0  0  0  0  0  0  0  0  0
    7.6642  -13.2841   25.8224 C   0  0  0  0  0  0  0  0  0  0  0  0
    7.6822  -13.7895   24.4113 C   0  0  0  0  0  0  0  0  0  0  0  0
    8.7886  -14.7298   24.0620 C   0  0  2  0  0  0  0  0  0  0  0  0
    8.6391  -15.1812   22.6677 N   0  0  0  0  0  0  0  0  0  0  0  0
    8.9503  -15.8942   24.9467 C   0  0  0  0  0  0  0  0  0  0  0  0
    8.0461  -16.8024   24.9085 O   0  0  0  0  0  0  0  0  0  0  0  0
   10.0018  -16.1371   25.8442 N   0  0  0  0  0  0  0  0  0  0  0  0
   10.0929  -17.4483   26.5648 C   0  0  1  0  0  0  0  0  0  0  0  0
   11.2427  -18.1395   25.9045 C   0  0  0  0  0  0  0  0  0  0  0  0
   11.6208  -19.4343   26.4964 C   0  0  0  0  0  0  0  0  0  0  0  0
   10.9099  -20.1562   27.4563 C   0  0  0  0  0  0  0  0  0  0  0  0
   11.5928  -21.2623   27.7155 N   0  0  0  0  0  0  0  0  0  0  0  0
   12.6945  -21.2723   26.9690 C   0  0  0  0  0  0  0  0  0  0  0  0
   12.7056  -20.1671   26.2358 N   0  0  0  0  0  0  0  0  0  0  0  0
   10.3140  -17.1850   27.9906 C   0  0  0  0  0  0  0  0  0  0  0  0
   10.3998  -15.8954   28.4697 O   0  0  0  0  0  0  0  0  0  0  0  0
   10.4306  -18.1117   28.8086 O   0  0  0  0  0  0  0  0  0  0  0  0
  2  1  1  0
  2  3  2  0
  4  2  1  0
  5  4  1  0
  5  6  1  0
  6  7  1  6
  8  6  1  0
  8  9  2  0
 10 11  1  0
 11 12  1  0
 14 13  1  1
 13 12  1  0
 14 15  1  0
 15  8  1  0
 16 14  1  0
 17 16  2  0
 18 16  1  0
 19 18  1  0
 19 20  1  6
 20 21  1  0
 21 25  1  0
 21 22  2  0
 22 23  1  0
 24 23  1  0
 25 24  2  0
 26 19  1  0
 27 26  1  0
 28 26  2  0
M  END
$$$$
