QMH.pdb
     RDKit          3D

 28 28  0  0  1  0  0  0  0  0999 V2000
    6.6146  -19.7968   20.4393 N   0  0  0  0  0  0  0  0  0  0  0  0
    8.0298  -19.7387   20.7281 C   0  0  0  0  0  0  0  0  0  0  0  0
    8.5715  -20.8412   20.9742 O   0  0  0  0  0  0  0  0  0  0  0  0
    8.7136  -18.4392   20.7170 C   0  0  0  0  0  0  0  0  0  0  0  0
    7.9161  -17.2539   20.3513 C   0  0  0  0  0  0  0  0  0  0  0  0
    8.6144  -15.9400   20.4099 C   0  0  2  0  0  0  0  0  0  0  0  0
    9.8864  -15.9125   19.7488 N   0  0  0  0  0  0  0  0  0  0  0  0
    8.8392  -15.5448   21.8426 C   0  0  0  0  0  0  0  0  0  0  0  0
    9.9792  -15.6846   22.3348 O   0  0  0  0  0  0  0  0  0  0  0  0
    6.5980  -10.8048   27.6121 C   0  0  0  0  0  0  0  0  0  0  0  0
    6.5578  -11.4233   25.9083 S   0  0  0  0  0  0  0  0  0  0  0  0
    6.9070  -13.2269   25.8813 C   0  0  0  0  0  0  0  0  0  0  0  0
    6.9129  -13.6591   24.4461 C   0  0  0  0  0  0  0  0  0  0  0  0
    7.9809  -14.6262   24.0531 C   0  0  2  0  0  0  0  0  0  0  0  0
    7.8031  -15.0221   22.6454 N   0  0  0  0  0  0  0  0  0  0  0  0
    8.1071  -15.8263   24.8948 C   0  0  0  0  0  0  0  0  0  0  0  0
    7.3563  -16.8287   24.6207 O   0  0  0  0  0  0  0  0  0  0  0  0
    8.9739  -16.0105   25.9835 N   0  0  0  0  0  0  0  0  0  0  0  0
    9.4081  -17.3895   26.3790 C   0  0  1  0  0  0  0  0  0  0  0  0
   10.1492  -17.8881   25.1798 C   0  0  0  0  0  0  0  0  0  0  0  0
   10.7101  -19.2442   25.3074 C   0  0  0  0  0  0  0  0  0  0  0  0
   10.5602  -20.1146   26.3880 C   0  0  0  0  0  0  0  0  0  0  0  0
   11.2198  -21.2283   26.1023 N   0  0  0  0  0  0  0  0  0  0  0  0
   11.7755  -21.1025   24.8996 C   0  0  0  0  0  0  0  0  0  0  0  0
   11.4644  -19.9035   24.4253 N   0  0  0  0  0  0  0  0  0  0  0  0
   10.2444  -17.2911   27.5798 C   0  0  0  0  0  0  0  0  0  0  0  0
   10.5282  -16.0684   28.1493 O   0  0  0  0  0  0  0  0  0  0  0  0
   10.7219  -18.3021   28.1197 O   0  0  0  0  0  0  0  0  0  0  0  0
  2  1  1  0
  2  3  2  0
  4  2  1  0
  5  4  1  0
  5  6  1  0
  6  7  1  6
  8  6  1  0
  8  9  2  0
 10 11  1  0
 11 12  1  0
 14 13  1  1
 13 12  1  0
 14 15  1  0
 15  8  1  0
 16 14  1  0
 17 16  2  0
 18 16  1  0
 19 18  1  0
 19 20  1  6
 20 21  1  0
 21 25  1  0
 21 22  2  0
 22 23  1  0
 24 23  1  0
 25 24  2  0
 26 19  1  0
 27 26  1  0
 28 26  2  0
M  END
$$$$
