QMH.pdb
     RDKit          3D

 28 28  0  0  1  0  0  0  0  0999 V2000
    8.1278  -11.9065   17.8869 N   0  0  0  0  0  0  0  0  0  0  0  0
    7.7238  -13.2434   17.5139 C   0  0  0  0  0  0  0  0  0  0  0  0
    7.6121  -13.4447   16.2825 O   0  0  0  0  0  0  0  0  0  0  0  0
    7.4773  -14.2398   18.5641 C   0  0  0  0  0  0  0  0  0  0  0  0
    8.6128  -14.6131   19.4277 C   0  0  0  0  0  0  0  0  0  0  0  0
    8.3653  -15.6973   20.4180 C   0  0  2  0  0  0  0  0  0  0  0  0
    6.9972  -16.1156   20.5126 N   0  0  0  0  0  0  0  0  0  0  0  0
    8.7978  -15.2478   21.7856 C   0  0  0  0  0  0  0  0  0  0  0  0
    9.9289  -14.7344   21.9219 O   0  0  0  0  0  0  0  0  0  0  0  0
    6.9423  -10.9534   26.9919 C   0  0  0  0  0  0  0  0  0  0  0  0
    6.1896  -12.5882   26.7730 S   0  0  0  0  0  0  0  0  0  0  0  0
    7.4798  -13.8282   26.3565 C   0  0  0  0  0  0  0  0  0  0  0  0
    7.2423  -14.2616   24.9414 C   0  0  0  0  0  0  0  0  0  0  0  0
    8.3640  -14.9911   24.2782 C   0  0  2  0  0  0  0  0  0  0  0  0
    7.9658  -15.3884   22.9167 N   0  0  0  0  0  0  0  0  0  0  0  0
    8.8930  -16.1578   25.0018 C   0  0  0  0  0  0  0  0  0  0  0  0
    8.1176  -17.1676   25.1533 O   0  0  0  0  0  0  0  0  0  0  0  0
   10.1752  -16.3025   25.5543 N   0  0  0  0  0  0  0  0  0  0  0  0
   10.5142  -17.5128   26.3709 C   0  0  1  0  0  0  0  0  0  0  0  0
   11.9082  -17.8501   25.9477 C   0  0  0  0  0  0  0  0  0  0  0  0
   12.0223  -18.5265   24.6441 C   0  0  0  0  0  0  0  0  0  0  0  0
   10.9746  -18.9715   23.8366 C   0  0  0  0  0  0  0  0  0  0  0  0
   11.5064  -19.5223   22.7546 N   0  0  0  0  0  0  0  0  0  0  0  0
   12.8322  -19.4463   22.8407 C   0  0  0  0  0  0  0  0  0  0  0  0
   13.1372  -18.8446   23.9827 N   0  0  0  0  0  0  0  0  0  0  0  0
   10.4062  -17.1649   27.7915 C   0  0  0  0  0  0  0  0  0  0  0  0
   10.1416  -15.8715   28.1878 O   0  0  0  0  0  0  0  0  0  0  0  0
   10.5491  -18.0209   28.6794 O   0  0  0  0  0  0  0  0  0  0  0  0
  2  1  1  0
  2  3  2  0
  4  2  1  0
  5  4  1  0
  5  6  1  0
  6  7  1  1
  8  6  1  0
  8  9  2  0
 10 11  1  0
 11 12  1  0
 14 13  1  1
 13 12  1  0
 14 15  1  0
 15  8  1  0
 16 14  1  0
 17 16  2  0
 18 16  1  0
 19 18  1  0
 19 20  1  1
 20 21  1  0
 21 25  1  0
 21 22  2  0
 22 23  1  0
 24 23  1  0
 25 24  2  0
 26 19  1  0
 27 26  1  0
 28 26  2  0
M  END
$$$$
