QMH.pdb
     RDKit          3D

 28 28  0  0  1  0  0  0  0  0999 V2000
    9.0267  -12.8213   17.5396 N   0  0  0  0  0  0  0  0  0  0  0  0
    7.7713  -13.5192   17.7023 C   0  0  0  0  0  0  0  0  0  0  0  0
    7.0119  -13.4936   16.7063 O   0  0  0  0  0  0  0  0  0  0  0  0
    7.4785  -14.1852   18.9779 C   0  0  0  0  0  0  0  0  0  0  0  0
    8.4968  -14.0970   20.0409 C   0  0  0  0  0  0  0  0  0  0  0  0
    8.8063  -15.3581   20.7699 C   0  0  2  0  0  0  0  0  0  0  0  0
    7.7746  -16.3514   20.7047 N   0  0  0  0  0  0  0  0  0  0  0  0
    9.0578  -15.0598   22.2216 C   0  0  0  0  0  0  0  0  0  0  0  0
    9.9550  -14.2439   22.5228 O   0  0  0  0  0  0  0  0  0  0  0  0
    6.5407  -10.8306   26.4395 C   0  0  0  0  0  0  0  0  0  0  0  0
    6.8063  -12.6071   26.6863 S   0  0  0  0  0  0  0  0  0  0  0  0
    7.1881  -13.4186   25.0826 C   0  0  0  0  0  0  0  0  0  0  0  0
    7.4213  -14.8725   25.3625 C   0  0  0  0  0  0  0  0  0  0  0  0
    8.5982  -15.4938   24.6848 C   0  0  2  0  0  0  0  0  0  0  0  0
    8.3121  -15.6728   23.2508 N   0  0  0  0  0  0  0  0  0  0  0  0
    9.0790  -16.7608   25.2577 C   0  0  0  0  0  0  0  0  0  0  0  0
    8.2928  -17.7726   25.2115 O   0  0  0  0  0  0  0  0  0  0  0  0
   10.3249  -17.0007   25.8580 N   0  0  0  0  0  0  0  0  0  0  0  0
   10.6416  -18.3500   26.4288 C   0  0  1  0  0  0  0  0  0  0  0  0
   12.0730  -18.5686   26.0556 C   0  0  0  0  0  0  0  0  0  0  0  0
   12.3302  -18.7159   24.6127 C   0  0  0  0  0  0  0  0  0  0  0  0
   11.3968  -19.0265   23.6228 C   0  0  0  0  0  0  0  0  0  0  0  0
   12.0373  -19.0627   22.4628 N   0  0  0  0  0  0  0  0  0  0  0  0
   13.3231  -18.7914   22.6729 C   0  0  0  0  0  0  0  0  0  0  0  0
   13.4935  -18.5831   23.9717 N   0  0  0  0  0  0  0  0  0  0  0  0
   10.4182  -18.3100   27.8778 C   0  0  0  0  0  0  0  0  0  0  0  0
   10.0292  -17.1455   28.5045 O   0  0  0  0  0  0  0  0  0  0  0  0
   10.5719  -19.3197   28.5837 O   0  0  0  0  0  0  0  0  0  0  0  0
  2  1  1  0
  2  3  2  0
  4  2  1  0
  5  4  1  0
  5  6  1  0
  6  7  1  1
  8  6  1  0
  8  9  2  0
 10 11  1  0
 11 12  1  0
 14 13  1  1
 13 12  1  0
 14 15  1  0
 15  8  1  0
 16 14  1  0
 17 16  2  0
 18 16  1  0
 19 18  1  0
 19 20  1  1
 20 21  1  0
 21 25  1  0
 21 22  2  0
 22 23  1  0
 24 23  1  0
 25 24  2  0
 26 19  1  0
 27 26  1  0
 28 26  2  0
M  END
$$$$
