QMH.pdb
     RDKit          3D

 28 28  0  0  1  0  0  0  0  0999 V2000
    8.6470  -12.5578   17.5907 N   0  0  0  0  0  0  0  0  0  0  0  0
    8.2627  -13.8068   16.9727 C   0  0  0  0  0  0  0  0  0  0  0  0
    7.7160  -13.7026   15.8503 O   0  0  0  0  0  0  0  0  0  0  0  0
    8.5261  -15.0685   17.6762 C   0  0  0  0  0  0  0  0  0  0  0  0
    9.2361  -14.9927   18.9665 C   0  0  0  0  0  0  0  0  0  0  0  0
    8.7484  -15.8942   20.0467 C   0  0  2  0  0  0  0  0  0  0  0  0
    7.3355  -16.1371   20.0259 N   0  0  0  0  0  0  0  0  0  0  0  0
    9.0889  -15.3120   21.3900 C   0  0  0  0  0  0  0  0  0  0  0  0
   10.2795  -15.0256   21.6387 O   0  0  0  0  0  0  0  0  0  0  0  0
    6.0481  -11.2221   27.4010 C   0  0  0  0  0  0  0  0  0  0  0  0
    5.9202  -12.3129   25.9585 S   0  0  0  0  0  0  0  0  0  0  0  0
    7.5960  -12.7872   25.3732 C   0  0  0  0  0  0  0  0  0  0  0  0
    7.4328  -13.4403   24.0340 C   0  0  0  0  0  0  0  0  0  0  0  0
    8.4003  -14.5309   23.7101 C   0  0  2  0  0  0  0  0  0  0  0  0
    8.1057  -15.0801   22.3753 N   0  0  0  0  0  0  0  0  0  0  0  0
    8.4913  -15.6255   24.6889 C   0  0  0  0  0  0  0  0  0  0  0  0
    7.5555  -16.5018   24.6924 O   0  0  0  0  0  0  0  0  0  0  0  0
    9.5052  -15.8321   25.6375 N   0  0  0  0  0  0  0  0  0  0  0  0
    9.9772  -17.2202   25.9491 C   0  0  1  0  0  0  0  0  0  0  0  0
   10.7895  -17.5983   24.7519 C   0  0  0  0  0  0  0  0  0  0  0  0
   11.4081  -18.9339   24.8092 C   0  0  0  0  0  0  0  0  0  0  0  0
   11.3551  -19.8368   25.8721 C   0  0  0  0  0  0  0  0  0  0  0  0
   12.0386  -20.9159   25.5180 N   0  0  0  0  0  0  0  0  0  0  0  0
   12.5175  -20.7375   24.2892 C   0  0  0  0  0  0  0  0  0  0  0  0
   12.1338  -19.5401   23.8671 N   0  0  0  0  0  0  0  0  0  0  0  0
   10.7557  -17.1825   27.1915 C   0  0  0  0  0  0  0  0  0  0  0  0
   10.9848  -15.9936   27.8503 O   0  0  0  0  0  0  0  0  0  0  0  0
   11.2318  -18.2163   27.6877 O   0  0  0  0  0  0  0  0  0  0  0  0
  2  1  1  0
  2  3  2  0
  4  2  1  0
  5  4  1  0
  5  6  1  0
  6  7  1  1
  8  6  1  0
  8  9  2  0
 10 11  1  0
 11 12  1  0
 14 13  1  1
 13 12  1  0
 14 15  1  0
 15  8  1  0
 16 14  1  0
 17 16  2  0
 18 16  1  0
 19 18  1  0
 19 20  1  6
 20 21  1  0
 21 25  1  0
 21 22  2  0
 22 23  1  0
 24 23  1  0
 25 24  2  0
 26 19  1  0
 27 26  1  0
 28 26  2  0
M  END
$$$$
