KKQ.pdb
     RDKit          3D

 28 27  0  0  1  0  0  0  0  0999 V2000
   18.6882  -14.1911  -18.1815 N   0  0  0  0  0  0  0  0  0  0  0  0
   19.1845  -12.9558  -18.7534 C   0  0  1  0  0  0  0  0  0  0  0  0
   18.0644  -12.1632  -19.3419 C   0  0  0  0  0  0  0  0  0  0  0  0
   16.6958  -12.7470  -19.0975 C   0  0  0  0  0  0  0  0  0  0  0  0
   16.1192  -13.2502  -20.3862 C   0  0  0  0  0  0  0  0  0  0  0  0
   14.7200  -13.7708  -20.2411 C   0  0  0  0  0  0  0  0  0  0  0  0
   13.7691  -12.7351  -19.9172 N   0  0  0  0  0  0  0  0  0  0  0  0
   19.8512  -12.1035  -17.7388 C   0  0  0  0  0  0  0  0  0  0  0  0
   19.1767  -11.7264  -16.7592 O   0  0  0  0  0  0  0  0  0  0  0  0
   21.2048  -11.7085  -17.8400 N   0  0  0  0  0  0  0  0  0  0  0  0
   21.8645  -10.9324  -16.8177 C   0  0  1  0  0  0  0  0  0  0  0  0
   23.3237  -11.2480  -16.8163 C   0  0  0  0  0  0  0  0  0  0  0  0
   23.5770  -12.5948  -16.2298 C   0  0  0  0  0  0  0  0  0  0  0  0
   25.0239  -12.9679  -16.2714 C   0  0  0  0  0  0  0  0  0  0  0  0
   25.2328  -14.4118  -15.8053 C   0  0  0  0  0  0  0  0  0  0  0  0
   26.6104  -14.7973  -15.8392 N   0  0  0  0  0  0  0  0  0  0  0  0
   21.6334   -9.4788  -17.1709 C   0  0  0  0  0  0  0  0  0  0  0  0
   21.4065   -9.1030  -18.3468 O   0  0  0  0  0  0  0  0  0  0  0  0
   17.1034   -4.8780  -17.5653 N   0  0  0  0  0  0  0  0  0  0  0  0
   18.2782   -5.5354  -18.0070 C   0  0  0  0  0  0  0  0  0  0  0  0
   18.2340   -6.1145  -19.1219 O   0  0  0  0  0  0  0  0  0  0  0  0
   19.5072   -5.5314  -17.1727 C   0  0  0  0  0  0  0  0  0  0  0  0
   19.8577   -6.9711  -16.8618 C   0  0  0  0  0  0  0  0  0  0  0  0
   21.3245   -7.1097  -16.4853 C   0  0  2  0  0  0  0  0  0  0  0  0
   21.6656   -8.4749  -16.1703 N   0  0  0  0  0  0  0  0  0  0  0  0
   21.5154   -6.2843  -15.2731 C   0  0  0  0  0  0  0  0  0  0  0  0
   21.8165   -6.7609  -14.1469 O   0  0  0  0  0  0  0  0  0  0  0  0
   21.3570   -4.9153  -15.3713 O   0  0  0  0  0  0  0  0  0  0  0  0
  2  1  1  1
  3  2  1  0
  4  3  1  0
  4  5  1  0
  5  6  1  0
  6  7  1  0
  8  9  2  0
  8  2  1  0
 10  8  1  0
 11 10  1  0
 11 12  1  6
 13 12  1  0
 14 13  1  0
 15 14  1  0
 16 15  1  0
 17 11  1  0
 18 17  2  0
 19 20  1  0
 20 21  2  0
 22 20  1  0
 22 23  1  0
 24 23  1  1
 24 25  1  0
 24 26  1  0
 25 17  1  0
 26 28  1  0
 27 26  2  0
M  END
$$$$
