KKQ.pdb
     RDKit          3D

 28 27  0  0  1  0  0  0  0  0999 V2000
   24.5009  -21.3402  -17.8245 N   0  0  0  0  0  0  0  0  0  0  0  0
   24.9473  -22.2221  -16.7651 C   0  0  1  0  0  0  0  0  0  0  0  0
   23.9839  -22.2014  -15.6248 C   0  0  0  0  0  0  0  0  0  0  0  0
   23.4588  -20.8304  -15.2809 C   0  0  0  0  0  0  0  0  0  0  0  0
   22.7028  -20.8842  -13.9878 C   0  0  0  0  0  0  0  0  0  0  0  0
   22.0980  -19.5661  -13.6046 C   0  0  0  0  0  0  0  0  0  0  0  0
   21.3495  -19.6317  -12.3728 N   0  0  0  0  0  0  0  0  0  0  0  0
   25.0651  -23.6271  -17.2261 C   0  0  0  0  0  0  0  0  0  0  0  0
   24.1860  -24.0644  -17.9960 O   0  0  0  0  0  0  0  0  0  0  0  0
   26.1231  -24.4771  -16.8302 N   0  0  0  0  0  0  0  0  0  0  0  0
   26.2804  -25.8136  -17.3513 C   0  0  1  0  0  0  0  0  0  0  0  0
   27.6985  -26.2498  -17.1846 C   0  0  0  0  0  0  0  0  0  0  0  0
   27.8905  -27.6408  -17.6853 C   0  0  0  0  0  0  0  0  0  0  0  0
   29.2774  -28.1433  -17.4439 C   0  0  0  0  0  0  0  0  0  0  0  0
   29.4816  -29.5208  -18.0816 C   0  0  0  0  0  0  0  0  0  0  0  0
   30.8003  -30.0298  -17.8594 N   0  0  0  0  0  0  0  0  0  0  0  0
   25.3523  -26.6970  -16.5455 C   0  0  0  0  0  0  0  0  0  0  0  0
   25.1889  -26.5463  -15.3101 O   0  0  0  0  0  0  0  0  0  0  0  0
   19.1777  -27.2476  -14.8206 N   0  0  0  0  0  0  0  0  0  0  0  0
   20.5596  -27.3324  -14.5196 C   0  0  0  0  0  0  0  0  0  0  0  0
   21.0112  -26.5512  -13.6444 O   0  0  0  0  0  0  0  0  0  0  0  0
   21.4283  -28.3125  -15.2204 C   0  0  0  0  0  0  0  0  0  0  0  0
   22.5145  -27.5370  -15.9353 C   0  0  0  0  0  0  0  0  0  0  0  0
   23.6078  -28.4644  -16.4422 C   0  0  2  0  0  0  0  0  0  0  0  0
   24.6235  -27.7419  -17.1674 N   0  0  0  0  0  0  0  0  0  0  0  0
   22.9465  -29.4072  -17.3702 C   0  0  0  0  0  0  0  0  0  0  0  0
   22.5598  -29.0899  -18.5261 O   0  0  0  0  0  0  0  0  0  0  0  0
   22.7371  -30.7085  -16.9559 O   0  0  0  0  0  0  0  0  0  0  0  0
  2  1  1  6
  3  2  1  0
  4  3  1  0
  4  5  1  0
  5  6  1  0
  6  7  1  0
  8  9  2  0
  8  2  1  0
 10  8  1  0
 11 10  1  0
 11 12  1  1
 13 12  1  0
 14 13  1  0
 15 14  1  0
 16 15  1  0
 17 11  1  0
 18 17  2  0
 19 20  1  0
 20 21  2  0
 22 20  1  0
 22 23  1  0
 24 23  1  6
 24 25  1  0
 24 26  1  0
 25 17  1  0
 26 28  1  0
 27 26  2  0
M  END
$$$$
