KKQ.pdb
     RDKit          3D

 28 27  0  0  1  0  0  0  0  0999 V2000
   28.3509  -22.6126  -17.2968 N   0  0  0  0  0  0  0  0  0  0  0  0
   28.3944  -21.4171  -16.4792 C   0  0  1  0  0  0  0  0  0  0  0  0
   28.1708  -20.2011  -17.3161 C   0  0  0  0  0  0  0  0  0  0  0  0
   27.7962  -20.4931  -18.7472 C   0  0  0  0  0  0  0  0  0  0  0  0
   29.0045  -20.3693  -19.6254 C   0  0  0  0  0  0  0  0  0  0  0  0
   28.6761  -20.4171  -21.0881 C   0  0  0  0  0  0  0  0  0  0  0  0
   27.9901  -21.6284  -21.4675 N   0  0  0  0  0  0  0  0  0  0  0  0
   27.3542  -21.4303  -15.4219 C   0  0  0  0  0  0  0  0  0  0  0  0
   26.2800  -22.0157  -15.6672 O   0  0  0  0  0  0  0  0  0  0  0  0
   27.5333  -20.8121  -14.1632 N   0  0  0  0  0  0  0  0  0  0  0  0
   26.5468  -20.8916  -13.1129 C   0  0  1  0  0  0  0  0  0  0  0  0
   27.1330  -20.3797  -11.8388 C   0  0  0  0  0  0  0  0  0  0  0  0
   26.0627  -20.0397  -10.8585 C   0  0  0  0  0  0  0  0  0  0  0  0
   25.4465  -21.2568  -10.2476 C   0  0  0  0  0  0  0  0  0  0  0  0
   24.3009  -20.8783   -9.3042 C   0  0  0  0  0  0  0  0  0  0  0  0
   23.6717  -22.0275   -8.7288 N   0  0  0  0  0  0  0  0  0  0  0  0
   25.3863  -20.0249  -13.5522 C   0  0  0  0  0  0  0  0  0  0  0  0
   25.5534  -18.8963  -14.0754 O   0  0  0  0  0  0  0  0  0  0  0  0
   21.6304  -19.4298  -17.7414 N   0  0  0  0  0  0  0  0  0  0  0  0
   21.7913  -20.7452  -17.2400 C   0  0  0  0  0  0  0  0  0  0  0  0
   21.4408  -21.6959  -17.9840 O   0  0  0  0  0  0  0  0  0  0  0  0
   22.3543  -20.9753  -15.8849 C   0  0  0  0  0  0  0  0  0  0  0  0
   22.8486  -19.6442  -15.3592 C   0  0  0  0  0  0  0  0  0  0  0  0
   22.9454  -19.6554  -13.8416 C   0  0  2  0  0  0  0  0  0  0  0  0
   24.0487  -20.4643  -13.3856 N   0  0  0  0  0  0  0  0  0  0  0  0
   21.6858  -20.2591  -13.3559 C   0  0  0  0  0  0  0  0  0  0  0  0
   21.6240  -21.3871  -12.7991 O   0  0  0  0  0  0  0  0  0  0  0  0
   20.5077  -19.5554  -13.5170 O   0  0  0  0  0  0  0  0  0  0  0  0
  2  1  1  6
  3  2  1  0
  4  3  1  0
  4  5  1  0
  5  6  1  0
  6  7  1  0
  8  9  2  0
  8  2  1  0
 10  8  1  0
 11 10  1  0
 11 12  1  1
 13 12  1  0
 14 13  1  0
 15 14  1  0
 16 15  1  0
 17 11  1  0
 18 17  2  0
 19 20  1  0
 20 21  2  0
 22 20  1  0
 22 23  1  0
 24 23  1  6
 24 25  1  0
 24 26  1  0
 25 17  1  0
 26 28  1  0
 27 26  2  0
M  END
$$$$
