KKQ.pdb
     RDKit          3D

 28 27  0  0  1  0  0  0  0  0999 V2000
   16.0750  -13.2042  -17.2354 N   0  0  0  0  0  0  0  0  0  0  0  0
   16.6688  -12.5052  -16.1136 C   0  0  1  0  0  0  0  0  0  0  0  0
   18.1586  -12.5759  -16.1808 C   0  0  0  0  0  0  0  0  0  0  0  0
   18.6961  -13.9020  -16.6563 C   0  0  0  0  0  0  0  0  0  0  0  0
   18.6204  -14.9089  -15.5487 C   0  0  0  0  0  0  0  0  0  0  0  0
   19.0633  -16.2792  -15.9680 C   0  0  0  0  0  0  0  0  0  0  0  0
   18.8544  -17.2724  -14.9423 N   0  0  0  0  0  0  0  0  0  0  0  0
   16.2892  -11.0715  -16.0898 C   0  0  0  0  0  0  0  0  0  0  0  0
   16.8051  -10.3170  -16.9392 O   0  0  0  0  0  0  0  0  0  0  0  0
   15.3764  -10.5361  -15.1524 N   0  0  0  0  0  0  0  0  0  0  0  0
   14.9725   -9.1507  -15.1677 C   0  0  1  0  0  0  0  0  0  0  0  0
   13.7328   -8.9840  -14.3526 C   0  0  0  0  0  0  0  0  0  0  0  0
   12.6359   -8.3875  -15.1669 C   0  0  0  0  0  0  0  0  0  0  0  0
   11.3834   -8.1933  -14.3746 C   0  0  0  0  0  0  0  0  0  0  0  0
   10.3082   -7.4913  -15.2093 C   0  0  0  0  0  0  0  0  0  0  0  0
    9.0658   -7.3800  -14.5082 N   0  0  0  0  0  0  0  0  0  0  0  0
   16.1176   -8.3666  -14.5636 C   0  0  0  0  0  0  0  0  0  0  0  0
   16.6135   -8.6571  -13.4477 O   0  0  0  0  0  0  0  0  0  0  0  0
   21.5052   -8.2758  -15.3325 N   0  0  0  0  0  0  0  0  0  0  0  0
   21.5115   -7.0221  -14.6725 C   0  0  0  0  0  0  0  0  0  0  0  0
   22.6264   -6.5528  -14.3304 O   0  0  0  0  0  0  0  0  0  0  0  0
   20.2406   -6.3023  -14.4024 C   0  0  0  0  0  0  0  0  0  0  0  0
   19.1052   -7.1658  -14.9099 C   0  0  0  0  0  0  0  0  0  0  0  0
   17.7591   -6.5028  -14.6633 C   0  0  2  0  0  0  0  0  0  0  0  0
   16.6793   -7.2590  -15.2477 N   0  0  0  0  0  0  0  0  0  0  0  0
   17.8249   -5.1836  -15.3286 C   0  0  0  0  0  0  0  0  0  0  0  0
   17.3530   -4.9577  -16.4743 O   0  0  0  0  0  0  0  0  0  0  0  0
   18.4351   -4.1362  -14.6657 O   0  0  0  0  0  0  0  0  0  0  0  0
  2  1  1  6
  3  2  1  0
  4  3  1  0
  4  5  1  0
  5  6  1  0
  6  7  1  0
  8  9  2  0
  8  2  1  0
 10  8  1  0
 11 10  1  0
 11 12  1  1
 13 12  1  0
 14 13  1  0
 15 14  1  0
 16 15  1  0
 17 11  1  0
 18 17  2  0
 19 20  1  0
 20 21  2  0
 22 20  1  0
 22 23  1  0
 24 23  1  6
 24 25  1  0
 24 26  1  0
 25 17  1  0
 26 28  1  0
 27 26  2  0
M  END
$$$$
