KKQ.pdb
     RDKit          3D

 28 27  0  0  1  0  0  0  0  0999 V2000
   28.6987  -23.5016  -17.1036 N   0  0  0  0  0  0  0  0  0  0  0  0
   27.5234  -22.7748  -17.5395 C   0  0  1  0  0  0  0  0  0  0  0  0
   26.8479  -23.4937  -18.6601 C   0  0  0  0  0  0  0  0  0  0  0  0
   27.6953  -23.6499  -19.8975 C   0  0  0  0  0  0  0  0  0  0  0  0
   27.9321  -25.1041  -20.1724 C   0  0  0  0  0  0  0  0  0  0  0  0
   28.7595  -25.3436  -21.4003 C   0  0  0  0  0  0  0  0  0  0  0  0
   28.9810  -26.7456  -21.6603 N   0  0  0  0  0  0  0  0  0  0  0  0
   26.5325  -22.6167  -16.4471 C   0  0  0  0  0  0  0  0  0  0  0  0
   25.8156  -23.5977  -16.1629 O   0  0  0  0  0  0  0  0  0  0  0  0
   26.3729  -21.4113  -15.7259 N   0  0  0  0  0  0  0  0  0  0  0  0
   25.5261  -21.3105  -14.5617 C   0  0  1  0  0  0  0  0  0  0  0  0
   26.0795  -20.2833  -13.6303 C   0  0  0  0  0  0  0  0  0  0  0  0
   25.2025  -20.1192  -12.4361 C   0  0  0  0  0  0  0  0  0  0  0  0
   25.6736  -20.9297  -11.2717 C   0  0  0  0  0  0  0  0  0  0  0  0
   24.7080  -20.8059  -10.0894 C   0  0  0  0  0  0  0  0  0  0  0  0
   25.2228  -21.4198   -8.9038 N   0  0  0  0  0  0  0  0  0  0  0  0
   24.1599  -20.8949  -15.0635 C   0  0  0  0  0  0  0  0  0  0  0  0
   24.0031  -19.9502  -15.8750 O   0  0  0  0  0  0  0  0  0  0  0  0
   18.7297  -23.7923  -13.7146 N   0  0  0  0  0  0  0  0  0  0  0  0
   18.4778  -23.1504  -14.9523 C   0  0  0  0  0  0  0  0  0  0  0  0
   17.3958  -23.4172  -15.5339 O   0  0  0  0  0  0  0  0  0  0  0  0
   19.4648  -22.2010  -15.5274 C   0  0  0  0  0  0  0  0  0  0  0  0
   20.5880  -22.0404  -14.5248 C   0  0  0  0  0  0  0  0  0  0  0  0
   21.6867  -21.1422  -15.0710 C   0  0  2  0  0  0  0  0  0  0  0  0
   22.9910  -21.5686  -14.6279 N   0  0  0  0  0  0  0  0  0  0  0  0
   21.4211  -19.7934  -14.5256 C   0  0  0  0  0  0  0  0  0  0  0  0
   21.8014  -19.4164  -13.3856 O   0  0  0  0  0  0  0  0  0  0  0  0
   20.7187  -18.8910  -15.3008 O   0  0  0  0  0  0  0  0  0  0  0  0
  2  1  1  1
  3  2  1  0
  4  3  1  0
  4  5  1  0
  5  6  1  0
  6  7  1  0
  8  9  2  0
  8  2  1  0
 10  8  1  0
 11 10  1  0
 11 12  1  1
 13 12  1  0
 14 13  1  0
 15 14  1  0
 16 15  1  0
 17 11  1  0
 18 17  2  0
 19 20  1  0
 20 21  2  0
 22 20  1  0
 22 23  1  0
 24 23  1  1
 24 25  1  0
 24 26  1  0
 25 17  1  0
 26 28  1  0
 27 26  2  0
M  END
$$$$
