KKQ.pdb
     RDKit          3D

 28 27  0  0  1  0  0  0  0  0999 V2000
   17.0926  -17.0120  -17.0789 N   0  0  0  0  0  0  0  0  0  0  0  0
   16.2201  -16.6239  -18.1686 C   0  0  1  0  0  0  0  0  0  0  0  0
   15.7858  -17.8229  -18.9451 C   0  0  0  0  0  0  0  0  0  0  0  0
   16.5888  -19.0680  -18.6648 C   0  0  0  0  0  0  0  0  0  0  0  0
   15.9914  -20.2339  -19.3929 C   0  0  0  0  0  0  0  0  0  0  0  0
   16.6822  -21.5312  -19.0934 C   0  0  0  0  0  0  0  0  0  0  0  0
   16.0552  -22.6600  -19.7375 N   0  0  0  0  0  0  0  0  0  0  0  0
   14.9977  -15.9383  -17.6829 C   0  0  0  0  0  0  0  0  0  0  0  0
   14.1356  -15.6158  -18.5253 O   0  0  0  0  0  0  0  0  0  0  0  0
   14.7770  -15.6409  -16.3186 N   0  0  0  0  0  0  0  0  0  0  0  0
   13.5214  -15.1228  -15.8312 C   0  0  1  0  0  0  0  0  0  0  0  0
   13.2547  -15.6651  -14.4660 C   0  0  0  0  0  0  0  0  0  0  0  0
   12.7049  -17.0486  -14.5403 C   0  0  0  0  0  0  0  0  0  0  0  0
   12.4979  -17.6494  -13.1873 C   0  0  0  0  0  0  0  0  0  0  0  0
   11.8956  -19.0535  -13.2956 C   0  0  0  0  0  0  0  0  0  0  0  0
   11.8921  -19.7391  -12.0397 N   0  0  0  0  0  0  0  0  0  0  0  0
   13.6701  -13.6171  -15.7875 C   0  0  0  0  0  0  0  0  0  0  0  0
   14.7854  -13.0578  -15.6498 O   0  0  0  0  0  0  0  0  0  0  0  0
    9.1084   -9.3673  -16.8926 N   0  0  0  0  0  0  0  0  0  0  0  0
   10.2431   -8.5447  -16.6847 C   0  0  0  0  0  0  0  0  0  0  0  0
   10.0887   -7.3030  -16.8052 O   0  0  0  0  0  0  0  0  0  0  0  0
   11.5581   -9.1422  -16.3380 C   0  0  0  0  0  0  0  0  0  0  0  0
   11.3804  -10.6446  -16.2793 C   0  0  0  0  0  0  0  0  0  0  0  0
   12.6876  -11.3384  -15.9295 C   0  0  2  0  0  0  0  0  0  0  0  0
   12.5374  -12.7724  -15.9023 N   0  0  0  0  0  0  0  0  0  0  0  0
   13.0452  -10.8760  -14.5711 C   0  0  0  0  0  0  0  0  0  0  0  0
   12.7157  -11.4853  -13.5192 O   0  0  0  0  0  0  0  0  0  0  0  0
   13.7805   -9.7139  -14.4383 O   0  0  0  0  0  0  0  0  0  0  0  0
  2  1  1  1
  3  2  1  0
  4  3  1  0
  4  5  1  0
  5  6  1  0
  6  7  1  0
  8  9  2  0
  8  2  1  0
 10  8  1  0
 11 10  1  0
 11 12  1  1
 13 12  1  0
 14 13  1  0
 15 14  1  0
 16 15  1  0
 17 11  1  0
 18 17  2  0
 19 20  1  0
 20 21  2  0
 22 20  1  0
 22 23  1  0
 24 23  1  1
 24 25  1  0
 24 26  1  0
 25 17  1  0
 26 28  1  0
 27 26  2  0
M  END
$$$$
