KKQ.pdb
     RDKit          3D

 28 27  0  0  1  0  0  0  0  0999 V2000
   29.9335  -26.7893  -17.7824 N   0  0  0  0  0  0  0  0  0  0  0  0
   29.7076  -27.5283  -19.0080 C   0  0  1  0  0  0  0  0  0  0  0  0
   30.9984  -28.0380  -19.5585 C   0  0  0  0  0  0  0  0  0  0  0  0
   32.0129  -26.9634  -19.8577 C   0  0  0  0  0  0  0  0  0  0  0  0
   33.0870  -26.9718  -18.8123 C   0  0  0  0  0  0  0  0  0  0  0  0
   34.2004  -26.0103  -19.1051 C   0  0  0  0  0  0  0  0  0  0  0  0
   35.1975  -25.9757  -18.0627 N   0  0  0  0  0  0  0  0  0  0  0  0
   28.8192  -28.6969  -18.7951 C   0  0  0  0  0  0  0  0  0  0  0  0
   28.6339  -29.4719  -19.7553 O   0  0  0  0  0  0  0  0  0  0  0  0
   28.1832  -28.9609  -17.5604 N   0  0  0  0  0  0  0  0  0  0  0  0
   27.4076  -30.1554  -17.3275 C   0  0  1  0  0  0  0  0  0  0  0  0
   28.1381  -31.0469  -16.3785 C   0  0  0  0  0  0  0  0  0  0  0  0
   27.3380  -32.2662  -16.0698 C   0  0  0  0  0  0  0  0  0  0  0  0
   28.0738  -33.2166  -15.1811 C   0  0  0  0  0  0  0  0  0  0  0  0
   27.2464  -34.4790  -14.9216 C   0  0  0  0  0  0  0  0  0  0  0  0
   27.9735  -35.4581  -14.1732 N   0  0  0  0  0  0  0  0  0  0  0  0
   26.0943  -29.7002  -16.7283 C   0  0  0  0  0  0  0  0  0  0  0  0
   26.0391  -29.0094  -15.6817 O   0  0  0  0  0  0  0  0  0  0  0  0
   20.8171  -28.7400  -19.7784 N   0  0  0  0  0  0  0  0  0  0  0  0
   21.9163  -27.8535  -19.6628 C   0  0  0  0  0  0  0  0  0  0  0  0
   21.9962  -26.9173  -20.4978 O   0  0  0  0  0  0  0  0  0  0  0  0
   22.9274  -28.0370  -18.5902 C   0  0  0  0  0  0  0  0  0  0  0  0
   22.5785  -29.3052  -17.8402 C   0  0  0  0  0  0  0  0  0  0  0  0
   23.6107  -29.6087  -16.7656 C   0  0  2  0  0  0  0  0  0  0  0  0
   24.8610  -30.0435  -17.3375 N   0  0  0  0  0  0  0  0  0  0  0  0
   23.0500  -30.7156  -15.9609 C   0  0  0  0  0  0  0  0  0  0  0  0
   22.6025  -30.5695  -14.7927 O   0  0  0  0  0  0  0  0  0  0  0  0
   23.0106  -31.9821  -16.5116 O   0  0  0  0  0  0  0  0  0  0  0  0
  2  1  1  1
  3  2  1  0
  4  3  1  0
  4  5  1  0
  5  6  1  0
  6  7  1  0
  8  9  2  0
  8  2  1  0
 10  8  1  0
 11 10  1  0
 11 12  1  1
 13 12  1  0
 14 13  1  0
 15 14  1  0
 16 15  1  0
 17 11  1  0
 18 17  2  0
 19 20  1  0
 20 21  2  0
 22 20  1  0
 22 23  1  0
 24 23  1  6
 24 25  1  0
 24 26  1  0
 25 17  1  0
 26 28  1  0
 27 26  2  0
M  END
$$$$
