KKQ.pdb
     RDKit          3D

 28 27  0  0  1  0  0  0  0  0999 V2000
   28.5422  -21.8561  -17.6542 N   0  0  0  0  0  0  0  0  0  0  0  0
   27.8552  -20.7516  -17.0157 C   0  0  1  0  0  0  0  0  0  0  0  0
   27.0343  -19.9993  -18.0103 C   0  0  0  0  0  0  0  0  0  0  0  0
   27.4373  -20.2256  -19.4455 C   0  0  0  0  0  0  0  0  0  0  0  0
   28.6974  -19.4715  -19.7457 C   0  0  0  0  0  0  0  0  0  0  0  0
   29.0725  -19.5069  -21.1975 C   0  0  0  0  0  0  0  0  0  0  0  0
   30.3857  -18.9642  -21.4488 N   0  0  0  0  0  0  0  0  0  0  0  0
   26.9436  -21.2129  -15.9403 C   0  0  0  0  0  0  0  0  0  0  0  0
   25.9581  -21.9046  -16.2674 O   0  0  0  0  0  0  0  0  0  0  0  0
   27.1482  -20.9016  -14.5766 N   0  0  0  0  0  0  0  0  0  0  0  0
   26.2251  -21.3032  -13.5426 C   0  0  1  0  0  0  0  0  0  0  0  0
   26.8601  -21.1102  -12.2052 C   0  0  0  0  0  0  0  0  0  0  0  0
   25.9394  -21.5340  -11.1121 C   0  0  0  0  0  0  0  0  0  0  0  0
   25.8001  -20.4895  -10.0519 C   0  0  0  0  0  0  0  0  0  0  0  0
   24.9744  -21.0107   -8.8719 C   0  0  0  0  0  0  0  0  0  0  0  0
   24.8511  -20.0406   -7.8274 N   0  0  0  0  0  0  0  0  0  0  0  0
   25.0087  -20.4143  -13.6889 C   0  0  0  0  0  0  0  0  0  0  0  0
   25.1017  -19.1858  -13.9292 O   0  0  0  0  0  0  0  0  0  0  0  0
   21.9998  -19.4114  -17.8462 N   0  0  0  0  0  0  0  0  0  0  0  0
   21.4479  -20.6078  -17.3253 C   0  0  0  0  0  0  0  0  0  0  0  0
   20.9465  -21.4194  -18.1439 O   0  0  0  0  0  0  0  0  0  0  0  0
   21.4687  -20.8780  -15.8648 C   0  0  0  0  0  0  0  0  0  0  0  0
   22.3003  -19.7967  -15.2080 C   0  0  0  0  0  0  0  0  0  0  0  0
   22.5428  -20.1071  -13.7392 C   0  0  2  0  0  0  0  0  0  0  0  0
   23.7012  -20.9464  -13.5576 N   0  0  0  0  0  0  0  0  0  0  0  0
   21.3483  -20.8451  -13.2746 C   0  0  0  0  0  0  0  0  0  0  0  0
   20.1906  -20.3497  -13.2487 O   0  0  0  0  0  0  0  0  0  0  0  0
   21.5003  -22.1489  -12.8438 O   0  0  0  0  0  0  0  0  0  0  0  0
  2  1  1  6
  3  2  1  0
  4  3  1  0
  4  5  1  0
  5  6  1  0
  6  7  1  0
  8  9  2  0
  8  2  1  0
 10  8  1  0
 11 10  1  0
 11 12  1  1
 13 12  1  0
 14 13  1  0
 15 14  1  0
 16 15  1  0
 17 11  1  0
 18 17  2  0
 19 20  1  0
 20 21  2  0
 22 20  1  0
 22 23  1  0
 24 23  1  6
 24 25  1  0
 24 26  1  0
 25 17  1  0
 26 28  1  0
 27 26  2  0
M  END
$$$$
