KKQ.pdb
     RDKit          3D

 28 27  0  0  1  0  0  0  0  0999 V2000
   18.0773  -15.5966  -17.4047 N   0  0  0  0  0  0  0  0  0  0  0  0
   19.2831  -14.7939  -17.4392 C   0  0  1  0  0  0  0  0  0  0  0  0
   20.0501  -15.0534  -18.6935 C   0  0  0  0  0  0  0  0  0  0  0  0
   20.9282  -16.2781  -18.6419 C   0  0  0  0  0  0  0  0  0  0  0  0
   20.4025  -17.3215  -19.5807 C   0  0  0  0  0  0  0  0  0  0  0  0
   21.2452  -18.5620  -19.6131 C   0  0  0  0  0  0  0  0  0  0  0  0
   20.8003  -19.5142  -20.6017 N   0  0  0  0  0  0  0  0  0  0  0  0
   18.9841  -13.3419  -17.3895 C   0  0  0  0  0  0  0  0  0  0  0  0
   18.7628  -12.7543  -18.4678 O   0  0  0  0  0  0  0  0  0  0  0  0
   18.9414  -12.6094  -16.1811 N   0  0  0  0  0  0  0  0  0  0  0  0
   18.5319  -11.2266  -16.1266 C   0  0  1  0  0  0  0  0  0  0  0  0
   17.3296  -11.0971  -15.2510 C   0  0  0  0  0  0  0  0  0  0  0  0
   16.1472  -11.7636  -15.8675 C   0  0  0  0  0  0  0  0  0  0  0  0
   14.9472  -11.7255  -14.9770 C   0  0  0  0  0  0  0  0  0  0  0  0
   13.7635  -12.4558  -15.6182 C   0  0  0  0  0  0  0  0  0  0  0  0
   12.6668  -12.6086  -14.7120 N   0  0  0  0  0  0  0  0  0  0  0  0
   19.7000  -10.4591  -15.5458 C   0  0  0  0  0  0  0  0  0  0  0  0
   20.4174  -10.9248  -14.6271 O   0  0  0  0  0  0  0  0  0  0  0  0
   23.7653   -7.1521  -19.4092 N   0  0  0  0  0  0  0  0  0  0  0  0
   22.5576   -7.2360  -18.6731 C   0  0  0  0  0  0  0  0  0  0  0  0
   21.6067   -6.4968  -19.0332 O   0  0  0  0  0  0  0  0  0  0  0  0
   22.4357   -8.1669  -17.5220 C   0  0  0  0  0  0  0  0  0  0  0  0
   21.7190   -7.4320  -16.4090 C   0  0  0  0  0  0  0  0  0  0  0  0
   21.0951   -8.4057  -15.4216 C   0  0  2  0  0  0  0  0  0  0  0  0
   20.0302   -9.1668  -16.0266 N   0  0  0  0  0  0  0  0  0  0  0  0
   20.5255   -7.5785  -14.3360 C   0  0  0  0  0  0  0  0  0  0  0  0
   19.2891   -7.4554  -14.1304 O   0  0  0  0  0  0  0  0  0  0  0  0
   21.3883   -6.9002  -13.4967 O   0  0  0  0  0  0  0  0  0  0  0  0
  2  1  1  6
  3  2  1  0
  4  3  1  0
  4  5  1  0
  5  6  1  0
  6  7  1  0
  8  9  2  0
  8  2  1  0
 10  8  1  0
 11 10  1  0
 11 12  1  1
 13 12  1  0
 14 13  1  0
 15 14  1  0
 16 15  1  0
 17 11  1  0
 18 17  2  0
 19 20  1  0
 20 21  2  0
 22 20  1  0
 22 23  1  0
 24 23  1  6
 24 25  1  0
 24 26  1  0
 25 17  1  0
 26 28  1  0
 27 26  2  0
M  END
$$$$
