KKQ.pdb
     RDKit          3D

 28 27  0  0  1  0  0  0  0  0999 V2000
   21.7234  -27.3572  -13.5899 N   0  0  0  0  0  0  0  0  0  0  0  0
   20.3609  -27.8336  -13.7163 C   0  0  1  0  0  0  0  0  0  0  0  0
   20.1463  -28.4599  -15.0544 C   0  0  0  0  0  0  0  0  0  0  0  0
   20.4274  -27.5454  -16.2199 C   0  0  0  0  0  0  0  0  0  0  0  0
   21.3793  -28.2081  -17.1693 C   0  0  0  0  0  0  0  0  0  0  0  0
   21.8034  -27.3144  -18.2967 C   0  0  0  0  0  0  0  0  0  0  0  0
   23.1651  -26.8558  -18.1644 N   0  0  0  0  0  0  0  0  0  0  0  0
   20.0315  -28.8506  -12.6880 C   0  0  0  0  0  0  0  0  0  0  0  0
   18.9544  -29.4698  -12.8035 O   0  0  0  0  0  0  0  0  0  0  0  0
   20.8822  -29.1399  -11.5965 N   0  0  0  0  0  0  0  0  0  0  0  0
   20.6074  -30.2028  -10.6598 C   0  0  1  0  0  0  0  0  0  0  0  0
   21.8829  -30.8875  -10.2948 C   0  0  0  0  0  0  0  0  0  0  0  0
   22.3777  -31.7284  -11.4219 C   0  0  0  0  0  0  0  0  0  0  0  0
   23.6936  -32.3682  -11.1163 C   0  0  0  0  0  0  0  0  0  0  0  0
   24.1070  -33.3344  -12.2304 C   0  0  0  0  0  0  0  0  0  0  0  0
   25.3971  -33.9079  -11.9980 N   0  0  0  0  0  0  0  0  0  0  0  0
   19.9861  -29.5491   -9.4442 C   0  0  0  0  0  0  0  0  0  0  0  0
   20.4706  -28.5183   -8.9167 O   0  0  0  0  0  0  0  0  0  0  0  0
   19.0167  -25.7886   -7.1310 N   0  0  0  0  0  0  0  0  0  0  0  0
   17.9217  -26.2165   -6.3403 C   0  0  0  0  0  0  0  0  0  0  0  0
   17.6187  -25.5154   -5.3419 O   0  0  0  0  0  0  0  0  0  0  0  0
   17.1704  -27.4489   -6.6911 C   0  0  0  0  0  0  0  0  0  0  0  0
   17.8188  -28.0495   -7.9205 C   0  0  0  0  0  0  0  0  0  0  0  0
   18.2488  -29.4860   -7.6677 C   0  0  2  0  0  0  0  0  0  0  0  0
   18.8167  -30.0865   -8.8494 N   0  0  0  0  0  0  0  0  0  0  0  0
   17.0186  -30.2240   -7.3085 C   0  0  0  0  0  0  0  0  0  0  0  0
   16.3586  -30.0072   -6.2580 O   0  0  0  0  0  0  0  0  0  0  0  0
   16.5605  -31.2064   -8.1653 O   0  0  0  0  0  0  0  0  0  0  0  0
  2  1  1  6
  3  2  1  0
  4  3  1  0
  4  5  1  0
  5  6  1  0
  6  7  1  0
  8  9  2  0
  8  2  1  0
 10  8  1  0
 11 10  1  0
 11 12  1  1
 13 12  1  0
 14 13  1  0
 15 14  1  0
 16 15  1  0
 17 11  1  0
 18 17  2  0
 19 20  1  0
 20 21  2  0
 22 20  1  0
 22 23  1  0
 24 23  1  6
 24 25  1  0
 24 26  1  0
 25 17  1  0
 26 28  1  0
 27 26  2  0
M  END
$$$$
