KKQ.pdb
     RDKit          3D

 28 27  0  0  1  0  0  0  0  0999 V2000
   25.1408  -21.7525  -15.1195 N   0  0  0  0  0  0  0  0  0  0  0  0
   24.1580  -20.8776  -14.5126 C   0  0  1  0  0  0  0  0  0  0  0  0
   23.9376  -19.6686  -15.3604 C   0  0  0  0  0  0  0  0  0  0  0  0
   25.1827  -19.1455  -16.0308 C   0  0  0  0  0  0  0  0  0  0  0  0
   26.0607  -18.4718  -15.0200 C   0  0  0  0  0  0  0  0  0  0  0  0
   27.2807  -17.8437  -15.6258 C   0  0  0  0  0  0  0  0  0  0  0  0
   28.2414  -18.8176  -16.0845 N   0  0  0  0  0  0  0  0  0  0  0  0
   22.8469  -21.5502  -14.3424 C   0  0  0  0  0  0  0  0  0  0  0  0
   22.3820  -22.1772  -15.3157 O   0  0  0  0  0  0  0  0  0  0  0  0
   22.1150  -21.5070  -13.1337 N   0  0  0  0  0  0  0  0  0  0  0  0
   20.8743  -22.2216  -12.9526 C   0  0  1  0  0  0  0  0  0  0  0  0
   20.7068  -22.5719  -11.5110 C   0  0  0  0  0  0  0  0  0  0  0  0
   19.4922  -23.4110  -11.3042 C   0  0  0  0  0  0  0  0  0  0  0  0
   19.2058  -23.6460   -9.8561 C   0  0  0  0  0  0  0  0  0  0  0  0
   17.9390  -24.4877   -9.6758 C   0  0  0  0  0  0  0  0  0  0  0  0
   17.6722  -24.7759   -8.2999 N   0  0  0  0  0  0  0  0  0  0  0  0
   19.7740  -21.2862  -13.4057 C   0  0  0  0  0  0  0  0  0  0  0  0
   19.7654  -20.0673  -13.1063 O   0  0  0  0  0  0  0  0  0  0  0  0
   16.7311  -21.5981  -18.7137 N   0  0  0  0  0  0  0  0  0  0  0  0
   16.0458  -20.5254  -18.0914 C   0  0  0  0  0  0  0  0  0  0  0  0
   15.1859  -19.9131  -18.7740 O   0  0  0  0  0  0  0  0  0  0  0  0
   16.3437  -20.1510  -16.6852 C   0  0  0  0  0  0  0  0  0  0  0  0
   17.4145  -21.0919  -16.1747 C   0  0  0  0  0  0  0  0  0  0  0  0
   17.6963  -20.8537  -14.6995 C   0  0  2  0  0  0  0  0  0  0  0  0
   18.6975  -21.7614  -14.1965 N   0  0  0  0  0  0  0  0  0  0  0  0
   16.4241  -21.1161  -13.9925 C   0  0  0  0  0  0  0  0  0  0  0  0
   16.1569  -22.2069  -13.4224 O   0  0  0  0  0  0  0  0  0  0  0  0
   15.4709  -20.1169  -13.9496 O   0  0  0  0  0  0  0  0  0  0  0  0
  2  1  1  6
  3  2  1  0
  4  3  1  0
  4  5  1  0
  5  6  1  0
  6  7  1  0
  8  9  2  0
  8  2  1  0
 10  8  1  0
 11 10  1  0
 11 12  1  1
 13 12  1  0
 14 13  1  0
 15 14  1  0
 16 15  1  0
 17 11  1  0
 18 17  2  0
 19 20  1  0
 20 21  2  0
 22 20  1  0
 22 23  1  0
 24 23  1  6
 24 25  1  0
 24 26  1  0
 25 17  1  0
 26 28  1  0
 27 26  2  0
M  END
$$$$
