GPS.pdb
     RDKit          3D

 18 18  0  0  1  0  0  0  0  0999 V2000
    8.7961  -15.7293   15.0873 N   0  0  0  0  0  0  0  0  0  0  0  0
    8.2611  -15.2263   16.3052 C   0  0  0  0  0  0  0  0  0  0  0  0
    9.2137  -14.7806   17.3163 C   0  0  0  0  0  0  0  0  0  0  0  0
   10.3852  -15.2716   17.2651 O   0  0  0  0  0  0  0  0  0  0  0  0
    8.9624  -13.8506   18.3563 N   0  0  0  0  0  0  0  0  0  0  0  0
    7.7312  -13.0895   18.4480 C   0  0  0  0  0  0  0  0  0  0  0  0
    8.1772  -11.9220   19.3448 C   0  0  0  0  0  0  0  0  0  0  0  0
    8.9243  -12.7084   20.3887 C   0  0  0  0  0  0  0  0  0  0  0  0
    9.8552  -13.5203   19.4738 C   0  0  1  0  0  0  0  0  0  0  0  0
   10.3292  -14.7062   20.1850 C   0  0  0  0  0  0  0  0  0  0  0  0
    9.5668  -15.6785   20.3937 O   0  0  0  0  0  0  0  0  0  0  0  0
   13.5839  -16.4603   19.4081 O   0  0  0  0  0  0  0  0  0  0  0  0
   12.5875  -16.9938   20.1965 C   0  0  0  0  0  0  0  0  0  0  0  0
   12.1857  -16.0084   21.2819 C   0  0  2  0  0  0  0  0  0  0  0  0
   11.6570  -14.8053   20.6632 N   0  0  0  0  0  0  0  0  0  0  0  0
   13.3551  -15.6619   22.1542 C   0  0  0  0  0  0  0  0  0  0  0  0
   13.9927  -16.6010   22.9309 O   0  0  0  0  0  0  0  0  0  0  0  0
   13.7782  -14.4733   22.1862 O   0  0  0  0  0  0  0  0  0  0  0  0
  1  2  1  0
  3  2  1  0
  3  4  2  0
  5  6  1  0
  5  3  1  0
  7  6  1  0
  8  7  1  0
  8  9  1  0
  9  5  1  0
  9 10  1  1
 10 11  2  0
 12 13  1  0
 14 13  1  6
 14 15  1  0
 15 10  1  0
 16 17  1  0
 16 14  1  0
 18 16  2  0
M  END
$$$$
