GPS.pdb
     RDKit          3D

 18 18  0  0  1  0  0  0  0  0999 V2000
    8.8223  -15.9818   15.4757 N   0  0  0  0  0  0  0  0  0  0  0  0
    8.1915  -15.5035   16.6572 C   0  0  0  0  0  0  0  0  0  0  0  0
    9.0595  -15.1049   17.7599 C   0  0  0  0  0  0  0  0  0  0  0  0
   10.1294  -15.7714   17.9253 O   0  0  0  0  0  0  0  0  0  0  0  0
    8.8278  -14.0438   18.6710 N   0  0  0  0  0  0  0  0  0  0  0  0
    7.7309  -13.1068   18.5220 C   0  0  0  0  0  0  0  0  0  0  0  0
    8.2379  -11.9284   19.3707 C   0  0  0  0  0  0  0  0  0  0  0  0
    8.7121  -12.7002   20.5732 C   0  0  0  0  0  0  0  0  0  0  0  0
    9.6119  -13.7306   19.8720 C   0  0  1  0  0  0  0  0  0  0  0  0
    9.7979  -14.8910   20.7412 C   0  0  0  0  0  0  0  0  0  0  0  0
    8.8257  -15.6089   21.0725 O   0  0  0  0  0  0  0  0  0  0  0  0
   12.6837  -17.4109   20.4680 O   0  0  0  0  0  0  0  0  0  0  0  0
   11.5719  -17.6206   21.2545 C   0  0  0  0  0  0  0  0  0  0  0  0
   11.2870  -16.3950   22.1073 C   0  0  2  0  0  0  0  0  0  0  0  0
   11.0722  -15.2493   21.2407 N   0  0  0  0  0  0  0  0  0  0  0  0
   12.4217  -16.1178   23.0476 C   0  0  0  0  0  0  0  0  0  0  0  0
   12.7734  -16.9930   24.0486 O   0  0  0  0  0  0  0  0  0  0  0  0
   13.0839  -15.0502   22.9277 O   0  0  0  0  0  0  0  0  0  0  0  0
  1  2  1  0
  3  2  1  0
  3  4  2  0
  5  6  1  0
  5  3  1  0
  7  6  1  0
  8  7  1  0
  8  9  1  0
  9  5  1  0
  9 10  1  1
 10 11  2  0
 12 13  1  0
 14 13  1  6
 14 15  1  0
 15 10  1  0
 16 17  1  0
 16 14  1  0
 18 16  2  0
M  END
$$$$
