GPS.pdb
     RDKit          3D

 18 18  0  0  1  0  0  0  0  0999 V2000
    5.7757  -18.1052   18.8722 N   0  0  0  0  0  0  0  0  0  0  0  0
    5.7741  -16.8397   19.5211 C   0  0  0  0  0  0  0  0  0  0  0  0
    7.0530  -16.3471   20.0214 C   0  0  0  0  0  0  0  0  0  0  0  0
    7.9193  -17.2167   20.3527 O   0  0  0  0  0  0  0  0  0  0  0  0
    7.4282  -14.9890   20.1770 N   0  0  0  0  0  0  0  0  0  0  0  0
    6.5966  -13.8887   19.7284 C   0  0  0  0  0  0  0  0  0  0  0  0
    7.6375  -12.7608   19.6251 C   0  0  0  0  0  0  0  0  0  0  0  0
    8.3468  -12.9840   20.9341 C   0  0  0  0  0  0  0  0  0  0  0  0
    8.6579  -14.4833   20.7993 C   0  0  1  0  0  0  0  0  0  0  0  0
    8.8951  -15.0557   22.1233 C   0  0  0  0  0  0  0  0  0  0  0  0
    7.9886  -15.0730   22.9883 O   0  0  0  0  0  0  0  0  0  0  0  0
   10.5152  -18.3278   22.8497 O   0  0  0  0  0  0  0  0  0  0  0  0
    9.9476  -17.5886   23.8647 C   0  0  0  0  0  0  0  0  0  0  0  0
   10.4248  -16.1468   23.8011 C   0  0  2  0  0  0  0  0  0  0  0  0
   10.1471  -15.6093   22.4806 N   0  0  0  0  0  0  0  0  0  0  0  0
   11.8927  -16.0521   24.0922 C   0  0  0  0  0  0  0  0  0  0  0  0
   12.4279  -16.4519   25.2943 O   0  0  0  0  0  0  0  0  0  0  0  0
   12.6738  -15.5924   23.2140 O   0  0  0  0  0  0  0  0  0  0  0  0
  1  2  1  0
  3  2  1  0
  3  4  2  0
  5  6  1  0
  5  3  1  0
  7  6  1  0
  8  7  1  0
  8  9  1  0
  9  5  1  0
  9 10  1  1
 10 11  2  0
 12 13  1  0
 14 13  1  6
 14 15  1  0
 15 10  1  0
 16 17  1  0
 16 14  1  0
 18 16  2  0
M  END
$$$$
