GPS.pdb
     RDKit          3D

 18 18  0  0  1  0  0  0  0  0999 V2000
    8.4687  -16.6714   16.2285 N   0  0  0  0  0  0  0  0  0  0  0  0
    7.7929  -16.0346   17.3057 C   0  0  0  0  0  0  0  0  0  0  0  0
    8.6096  -15.5710   18.4221 C   0  0  0  0  0  0  0  0  0  0  0  0
    9.6461  -16.2513   18.7036 O   0  0  0  0  0  0  0  0  0  0  0  0
    8.3616  -14.4324   19.2294 N   0  0  0  0  0  0  0  0  0  0  0  0
    7.3453  -13.4488   18.9081 C   0  0  0  0  0  0  0  0  0  0  0  0
    7.8444  -12.2399   19.7178 C   0  0  0  0  0  0  0  0  0  0  0  0
    8.1538  -12.9438   21.0121 C   0  0  0  0  0  0  0  0  0  0  0  0
    9.0480  -14.0737   20.4766 C   0  0  1  0  0  0  0  0  0  0  0  0
    9.0775  -15.1734   21.4391 C   0  0  0  0  0  0  0  0  0  0  0  0
    8.0494  -15.8502   21.6741 O   0  0  0  0  0  0  0  0  0  0  0  0
   11.7163  -17.8686   21.4706 O   0  0  0  0  0  0  0  0  0  0  0  0
   10.5283  -17.9250   22.1667 C   0  0  0  0  0  0  0  0  0  0  0  0
   10.3494  -16.6746   23.0121 C   0  0  2  0  0  0  0  0  0  0  0  0
   10.2577  -15.5169   22.1397 N   0  0  0  0  0  0  0  0  0  0  0  0
   11.4915  -16.5034   23.9686 C   0  0  0  0  0  0  0  0  0  0  0  0
   11.7861  -17.4397   24.9320 O   0  0  0  0  0  0  0  0  0  0  0  0
   12.2140  -15.4710   23.8982 O   0  0  0  0  0  0  0  0  0  0  0  0
  1  2  1  0
  3  2  1  0
  3  4  2  0
  5  6  1  0
  5  3  1  0
  7  6  1  0
  8  7  1  0
  8  9  1  0
  9  5  1  0
  9 10  1  1
 10 11  2  0
 12 13  1  0
 14 13  1  6
 14 15  1  0
 15 10  1  0
 16 17  1  0
 16 14  1  0
 18 16  2  0
M  END
$$$$
