GPS.pdb
     RDKit          3D

 18 18  0  0  1  0  0  0  0  0999 V2000
    6.8216  -13.9877   21.3564 N   0  0  0  0  0  0  0  0  0  0  0  0
    6.3582  -14.0944   22.6967 C   0  0  0  0  0  0  0  0  0  0  0  0
    7.3530  -13.9684   23.7565 C   0  0  0  0  0  0  0  0  0  0  0  0
    8.4645  -14.5601   23.5812 O   0  0  0  0  0  0  0  0  0  0  0  0
    7.2033  -13.2492   24.9689 N   0  0  0  0  0  0  0  0  0  0  0  0
    6.0472  -12.4205   25.2523 C   0  0  0  0  0  0  0  0  0  0  0  0
    6.6110  -11.4999   26.3481 C   0  0  0  0  0  0  0  0  0  0  0  0
    7.3014  -12.5410   27.1883 C   0  0  0  0  0  0  0  0  0  0  0  0
    8.1404  -13.2278   26.0987 C   0  0  1  0  0  0  0  0  0  0  0  0
    8.5174  -14.5686   26.5427 C   0  0  0  0  0  0  0  0  0  0  0  0
    7.6842  -15.5046   26.5411 O   0  0  0  0  0  0  0  0  0  0  0  0
   11.8852  -17.8617   27.0513 O   0  0  0  0  0  0  0  0  0  0  0  0
   11.4344  -16.6369   26.6091 C   0  0  0  0  0  0  0  0  0  0  0  0
   10.2334  -16.1877   27.4254 C   0  0  2  0  0  0  0  0  0  0  0  0
    9.8272  -14.8633   26.9889 N   0  0  0  0  0  0  0  0  0  0  0  0
   10.5555  -16.1659   28.8897 C   0  0  0  0  0  0  0  0  0  0  0  0
   10.7759  -17.3178   29.6081 O   0  0  0  0  0  0  0  0  0  0  0  0
   10.6299  -15.0610   29.4951 O   0  0  0  0  0  0  0  0  0  0  0  0
  1  2  1  0
  3  2  1  0
  3  4  2  0
  5  6  1  0
  5  3  1  0
  7  6  1  0
  8  7  1  0
  8  9  1  0
  9  5  1  0
  9 10  1  1
 10 11  2  0
 12 13  1  0
 14 13  1  6
 14 15  1  0
 15 10  1  0
 16 17  1  0
 16 14  1  0
 18 16  2  0
M  END
$$$$
