GPS.pdb
     RDKit          3D

 18 18  0  0  1  0  0  0  0  0999 V2000
    8.3231  -16.7662   16.4536 N   0  0  0  0  0  0  0  0  0  0  0  0
    7.6781  -16.3577   17.6535 C   0  0  0  0  0  0  0  0  0  0  0  0
    8.5269  -15.8442   18.7233 C   0  0  0  0  0  0  0  0  0  0  0  0
    9.6494  -16.4151   18.8969 O   0  0  0  0  0  0  0  0  0  0  0  0
    8.2233  -14.7674   19.5939 N   0  0  0  0  0  0  0  0  0  0  0  0
    7.0829  -13.8938   19.3937 C   0  0  0  0  0  0  0  0  0  0  0  0
    7.5121  -12.6636   20.2113 C   0  0  0  0  0  0  0  0  0  0  0  0
    8.0014  -13.3701   21.4473 C   0  0  0  0  0  0  0  0  0  0  0  0
    8.9664  -14.3748   20.7975 C   0  0  1  0  0  0  0  0  0  0  0  0
    9.1945  -15.4950   21.7085 C   0  0  0  0  0  0  0  0  0  0  0  0
    8.3179  -16.3740   21.8791 O   0  0  0  0  0  0  0  0  0  0  0  0
   13.0224  -16.4403   23.0703 O   0  0  0  0  0  0  0  0  0  0  0  0
   12.0140  -17.3704   22.9402 C   0  0  0  0  0  0  0  0  0  0  0  0
   10.6744  -16.7552   23.3108 C   0  0  2  0  0  0  0  0  0  0  0  0
   10.4039  -15.6327   22.4296 N   0  0  0  0  0  0  0  0  0  0  0  0
   10.6693  -16.2961   24.7383 C   0  0  0  0  0  0  0  0  0  0  0  0
   10.8138  -17.1713   25.7893 O   0  0  0  0  0  0  0  0  0  0  0  0
   10.5285  -15.0690   24.9978 O   0  0  0  0  0  0  0  0  0  0  0  0
  1  2  1  0
  3  2  1  0
  3  4  2  0
  5  6  1  0
  5  3  1  0
  7  6  1  0
  8  7  1  0
  8  9  1  0
  9  5  1  0
  9 10  1  1
 10 11  2  0
 12 13  1  0
 14 13  1  6
 14 15  1  0
 15 10  1  0
 16 17  1  0
 16 14  1  0
 18 16  2  0
M  END
$$$$
