GPS.pdb
     RDKit          3D

 18 18  0  0  1  0  0  0  0  0999 V2000
    9.0644  -15.7672   15.5623 N   0  0  0  0  0  0  0  0  0  0  0  0
    8.2577  -15.5304   16.7094 C   0  0  0  0  0  0  0  0  0  0  0  0
    8.9481  -15.2007   17.9516 C   0  0  0  0  0  0  0  0  0  0  0  0
    9.9917  -15.8713   18.2301 O   0  0  0  0  0  0  0  0  0  0  0  0
    8.5695  -14.2029   18.8847 N   0  0  0  0  0  0  0  0  0  0  0  0
    7.5049  -13.2519   18.6282 C   0  0  0  0  0  0  0  0  0  0  0  0
    7.8648  -12.1369   19.6248 C   0  0  0  0  0  0  0  0  0  0  0  0
    8.1469  -12.9915   20.8317 C   0  0  0  0  0  0  0  0  0  0  0  0
    9.1518  -13.9766   20.2132 C   0  0  1  0  0  0  0  0  0  0  0  0
    9.2042  -15.1945   21.0197 C   0  0  0  0  0  0  0  0  0  0  0  0
    8.2365  -15.9902   21.0466 O   0  0  0  0  0  0  0  0  0  0  0  0
   12.4925  -17.3263   21.6641 O   0  0  0  0  0  0  0  0  0  0  0  0
   11.2165  -17.7792   21.9201 C   0  0  0  0  0  0  0  0  0  0  0  0
   10.4073  -16.7086   22.6339 C   0  0  2  0  0  0  0  0  0  0  0  0
   10.3396  -15.5234   21.7971 N   0  0  0  0  0  0  0  0  0  0  0  0
   11.0203  -16.3639   23.9583 C   0  0  0  0  0  0  0  0  0  0  0  0
   11.1532  -17.2897   24.9666 O   0  0  0  0  0  0  0  0  0  0  0  0
   11.4318  -15.1893   24.1678 O   0  0  0  0  0  0  0  0  0  0  0  0
  1  2  1  0
  3  2  1  0
  3  4  2  0
  5  6  1  0
  5  3  1  0
  7  6  1  0
  8  7  1  0
  8  9  1  0
  9  5  1  0
  9 10  1  1
 10 11  2  0
 12 13  1  0
 14 13  1  6
 14 15  1  0
 15 10  1  0
 16 17  1  0
 16 14  1  0
 18 16  2  0
M  END
$$$$
