GPS.pdb
     RDKit          3D

 18 18  0  0  1  0  0  0  0  0999 V2000
   -2.7283  -26.0630   24.5867 N   0  0  0  0  0  0  0  0  0  0  0  0
   -3.6993  -25.0455   24.3763 C   0  0  0  0  0  0  0  0  0  0  0  0
   -4.1555  -24.3085   25.5498 C   0  0  0  0  0  0  0  0  0  0  0  0
   -4.4454  -24.9881   26.5843 O   0  0  0  0  0  0  0  0  0  0  0  0
   -4.3096  -22.9030   25.6524 N   0  0  0  0  0  0  0  0  0  0  0  0
   -3.8996  -21.9898   24.6029 C   0  0  0  0  0  0  0  0  0  0  0  0
   -3.7700  -20.6770   25.3941 C   0  0  0  0  0  0  0  0  0  0  0  0
   -5.0517  -20.7564   26.1799 C   0  0  0  0  0  0  0  0  0  0  0  0
   -4.8933  -22.1634   26.7782 C   0  0  1  0  0  0  0  0  0  0  0  0
   -6.2032  -22.6790   27.1718 C   0  0  0  0  0  0  0  0  0  0  0  0
   -6.9526  -23.2363   26.3362 O   0  0  0  0  0  0  0  0  0  0  0  0
   -7.0312  -24.5248   30.4792 O   0  0  0  0  0  0  0  0  0  0  0  0
   -7.9061  -24.4478   29.4174 C   0  0  0  0  0  0  0  0  0  0  0  0
   -7.9967  -23.0186   28.9077 C   0  0  2  0  0  0  0  0  0  0  0  0
   -6.6760  -22.5716   28.5009 N   0  0  0  0  0  0  0  0  0  0  0  0
   -8.5421  -22.1041   29.9636 C   0  0  0  0  0  0  0  0  0  0  0  0
   -9.8444  -22.1828   30.3988 O   0  0  0  0  0  0  0  0  0  0  0  0
   -7.7923  -21.2289   30.4780 O   0  0  0  0  0  0  0  0  0  0  0  0
  1  2  1  0
  3  2  1  0
  3  4  2  0
  5  6  1  0
  5  3  1  0
  7  6  1  0
  8  7  1  0
  8  9  1  0
  9  5  1  0
  9 10  1  6
 10 11  2  0
 12 13  1  0
 14 13  1  1
 14 15  1  0
 15 10  1  0
 16 17  1  0
 16 14  1  0
 18 16  2  0
M  END
$$$$
