GPS.pdb
     RDKit          3D

 18 18  0  0  1  0  0  0  0  0999 V2000
    6.8493  -17.9838   17.6800 N   0  0  0  0  0  0  0  0  0  0  0  0
    6.5809  -16.8418   18.4839 C   0  0  0  0  0  0  0  0  0  0  0  0
    7.7118  -16.2380   19.1804 C   0  0  0  0  0  0  0  0  0  0  0  0
    8.6991  -16.9935   19.4460 O   0  0  0  0  0  0  0  0  0  0  0  0
    7.8202  -14.8863   19.5937 N   0  0  0  0  0  0  0  0  0  0  0  0
    6.8597  -13.8692   19.2111 C   0  0  0  0  0  0  0  0  0  0  0  0
    7.6883  -12.5912   19.4264 C   0  0  0  0  0  0  0  0  0  0  0  0
    8.2798  -12.9261   20.7697 C   0  0  0  0  0  0  0  0  0  0  0  0
    8.8655  -14.3106   20.4487 C   0  0  1  0  0  0  0  0  0  0  0  0
    9.0558  -15.0617   21.6882 C   0  0  0  0  0  0  0  0  0  0  0  0
    8.0738  -15.4346   22.3715 O   0  0  0  0  0  0  0  0  0  0  0  0
   10.7943  -18.1498   22.1054 O   0  0  0  0  0  0  0  0  0  0  0  0
   10.1175  -17.5906   23.1675 C   0  0  0  0  0  0  0  0  0  0  0  0
   10.5647  -16.1541   23.3839 C   0  0  2  0  0  0  0  0  0  0  0  0
   10.3453  -15.3964   22.1643 N   0  0  0  0  0  0  0  0  0  0  0  0
   12.0126  -16.0932   23.7690 C   0  0  0  0  0  0  0  0  0  0  0  0
   12.4724  -16.5839   24.9687 O   0  0  0  0  0  0  0  0  0  0  0  0
   12.8475  -15.5774   22.9754 O   0  0  0  0  0  0  0  0  0  0  0  0
  1  2  1  0
  3  2  1  0
  3  4  2  0
  5  6  1  0
  5  3  1  0
  7  6  1  0
  8  7  1  0
  8  9  1  0
  9  5  1  0
  9 10  1  1
 10 11  2  0
 12 13  1  0
 14 13  1  6
 14 15  1  0
 15 10  1  0
 16 17  1  0
 16 14  1  0
 18 16  2  0
M  END
$$$$
