GPS.pdb
     RDKit          3D

 18 18  0  0  1  0  0  0  0  0999 V2000
    7.3960  -17.5643   17.0849 N   0  0  0  0  0  0  0  0  0  0  0  0
    6.9633  -16.6102   18.0468 C   0  0  0  0  0  0  0  0  0  0  0  0
    7.9766  -16.0606   18.9410 C   0  0  0  0  0  0  0  0  0  0  0  0
    8.9578  -16.8129   19.2368 O   0  0  0  0  0  0  0  0  0  0  0  0
    7.9762  -14.7653   19.5169 N   0  0  0  0  0  0  0  0  0  0  0  0
    7.0100  -13.7459   19.1554 C   0  0  0  0  0  0  0  0  0  0  0  0
    7.7488  -12.4732   19.6034 C   0  0  0  0  0  0  0  0  0  0  0  0
    8.2182  -12.9449   20.9537 C   0  0  0  0  0  0  0  0  0  0  0  0
    8.9007  -14.2581   20.5384 C   0  0  1  0  0  0  0  0  0  0  0  0
    9.0023  -15.1452   21.6957 C   0  0  0  0  0  0  0  0  0  0  0  0
    7.9751  -15.5454   22.2915 O   0  0  0  0  0  0  0  0  0  0  0  0
   11.1860  -18.1915   21.9305 O   0  0  0  0  0  0  0  0  0  0  0  0
   10.2559  -17.9002   22.9046 C   0  0  0  0  0  0  0  0  0  0  0  0
   10.3864  -16.4516   23.3460 C   0  0  2  0  0  0  0  0  0  0  0  0
   10.2537  -15.5853   22.1877 N   0  0  0  0  0  0  0  0  0  0  0  0
   11.7061  -16.2096   24.0156 C   0  0  0  0  0  0  0  0  0  0  0  0
   12.0316  -16.7852   25.2215 O   0  0  0  0  0  0  0  0  0  0  0  0
   12.5551  -15.4550   23.4654 O   0  0  0  0  0  0  0  0  0  0  0  0
  1  2  1  0
  3  2  1  0
  3  4  2  0
  5  6  1  0
  5  3  1  0
  7  6  1  0
  8  7  1  0
  8  9  1  0
  9  5  1  0
  9 10  1  1
 10 11  2  0
 12 13  1  0
 14 13  1  6
 14 15  1  0
 15 10  1  0
 16 17  1  0
 16 14  1  0
 18 16  2  0
M  END
$$$$
