HWR.pdb
     RDKit          3D

 36 38  0  0  1  0  0  0  0  0999 V2000
    8.9862  -15.4434   19.7823 N   0  0  0  0  0  0  0  0  0  0  0  0
    8.7420  -16.6639   20.5307 C   0  0  1  0  0  0  0  0  0  0  0  0
    9.2494  -17.8388   19.7868 C   0  0  0  0  0  0  0  0  0  0  0  0
    8.5232  -17.9017   18.4805 C   0  0  0  0  0  0  0  0  0  0  0  0
    8.5339  -16.9293   17.5018 C   0  0  0  0  0  0  0  0  0  0  0  0
    7.7632  -17.3328   16.4602 N   0  0  0  0  0  0  0  0  0  0  0  0
    7.2739  -18.5441   16.7803 C   0  0  0  0  0  0  0  0  0  0  0  0
    7.7348  -18.8769   17.9930 N   0  0  0  0  0  0  0  0  0  0  0  0
    9.2228  -16.4884   21.8891 C   0  0  0  0  0  0  0  0  0  0  0  0
   10.4209  -16.0894   22.0425 O   0  0  0  0  0  0  0  0  0  0  0  0
    8.4859  -16.7190   23.0734 N   0  0  0  0  0  0  0  0  0  0  0  0
    9.0401  -16.5630   24.3802 C   0  0  1  0  0  0  0  0  0  0  0  0
    7.9815  -16.4741   25.4593 C   0  0  0  0  0  0  0  0  0  0  0  0
    7.0701  -15.3177   25.2417 C   0  0  0  0  0  0  0  0  0  0  0  0
    5.8682  -15.2255   24.6123 C   0  0  0  0  0  0  0  0  0  0  0  0
    5.4426  -13.9582   24.6829 N   0  0  0  0  0  0  0  0  0  0  0  0
    6.3350  -13.1865   25.3498 C   0  0  0  0  0  0  0  0  0  0  0  0
    6.3689  -11.8549   25.6850 C   0  0  0  0  0  0  0  0  0  0  0  0
    7.4150  -11.3212   26.3791 C   0  0  0  0  0  0  0  0  0  0  0  0
    8.4516  -12.1524   26.7434 C   0  0  0  0  0  0  0  0  0  0  0  0
    8.4152  -13.4784   26.4082 C   0  0  0  0  0  0  0  0  0  0  0  0
    7.3565  -14.0355   25.7016 C   0  0  0  0  0  0  0  0  0  0  0  0
    9.9579  -17.6753   24.7507 C   0  0  0  0  0  0  0  0  0  0  0  0
   10.2643  -18.5437   23.8960 O   0  0  0  0  0  0  0  0  0  0  0  0
   17.0173  -17.7293   22.4329 N   0  0  0  0  0  0  0  0  0  0  0  0
   16.5725  -16.6811   23.2975 C   0  0  0  0  0  0  0  0  0  0  0  0
   17.4131  -15.7745   23.6442 N   0  0  0  0  0  0  0  0  0  0  0  0
   15.2471  -16.6177   23.7747 N   0  0  0  0  0  0  0  0  0  0  0  0
   14.3337  -17.7172   23.6149 C   0  0  0  0  0  0  0  0  0  0  0  0
   13.9285  -18.3079   24.9489 C   0  0  0  0  0  0  0  0  0  0  0  0
   12.9128  -17.4368   25.6588 C   0  0  0  0  0  0  0  0  0  0  0  0
   11.8501  -18.3164   26.2949 C   0  0  2  0  0  0  0  0  0  0  0  0
   10.5223  -17.8159   26.0480 N   0  0  0  0  0  0  0  0  0  0  0  0
   12.0404  -18.4371   27.7517 C   0  0  0  0  0  0  0  0  0  0  0  0
   11.2006  -17.9396   28.5322 O   0  0  0  0  0  0  0  0  0  0  0  0
   13.1316  -19.0910   28.2826 O   0  0  0  0  0  0  0  0  0  0  0  0
  2  3  1  0
  2  1  1  6
  4  8  1  0
  4  3  1  0
  5  4  2  0
  6  5  1  0
  6  7  1  0
  7  8  2  0
  9  2  1  0
 10  9  2  0
 11  9  1  0
 12 11  1  0
 12 13  1  1
 13 14  1  0
 14 15  2  0
 15 16  1  0
 17 18  2  0
 17 16  1  0
 19 18  1  0
 20 19  2  0
 21 20  1  0
 21 22  2  0
 22 14  1  0
 22 17  1  0
 23 24  2  0
 23 12  1  0
 25 26  1  0
 26 28  1  0
 26 27  2  0
 28 29  1  0
 30 29  1  0
 30 31  1  0
 32 31  1  1
 32 33  1  0
 33 23  1  0
 34 32  1  0
 35 34  2  0
 36 34  1  0
M  END
$$$$
