HWR.pdb
     RDKit          3D

 36 38  0  0  1  0  0  0  0  0999 V2000
    7.7206  -17.2060   20.4982 N   0  0  0  0  0  0  0  0  0  0  0  0
    8.6010  -16.0509   20.4929 C   0  0  1  0  0  0  0  0  0  0  0  0
    7.9561  -14.9105   19.8038 C   0  0  0  0  0  0  0  0  0  0  0  0
    7.7641  -15.2915   18.3701 C   0  0  0  0  0  0  0  0  0  0  0  0
    8.7408  -15.7761   17.5246 C   0  0  0  0  0  0  0  0  0  0  0  0
    8.1997  -16.0113   16.3024 N   0  0  0  0  0  0  0  0  0  0  0  0
    6.8986  -15.6786   16.3788 C   0  0  0  0  0  0  0  0  0  0  0  0
    6.6468  -15.2482   17.6219 N   0  0  0  0  0  0  0  0  0  0  0  0
    9.0804  -15.8170   21.8430 C   0  0  0  0  0  0  0  0  0  0  0  0
    9.8396  -14.8141   22.0326 O   0  0  0  0  0  0  0  0  0  0  0  0
    8.7859  -16.6004   22.9824 N   0  0  0  0  0  0  0  0  0  0  0  0
    9.4887  -16.4743   24.2191 C   0  0  1  0  0  0  0  0  0  0  0  0
    8.5842  -16.6180   25.4249 C   0  0  0  0  0  0  0  0  0  0  0  0
    7.4931  -15.6059   25.4177 C   0  0  0  0  0  0  0  0  0  0  0  0
    6.1841  -15.6967   25.0605 C   0  0  0  0  0  0  0  0  0  0  0  0
    5.6082  -14.5004   25.2319 N   0  0  0  0  0  0  0  0  0  0  0  0
    6.5035  -13.5970   25.6999 C   0  0  0  0  0  0  0  0  0  0  0  0
    6.4190  -12.2670   26.0322 C   0  0  0  0  0  0  0  0  0  0  0  0
    7.5024  -11.5770   26.4917 C   0  0  0  0  0  0  0  0  0  0  0  0
    8.6999  -12.2466   26.6186 C   0  0  0  0  0  0  0  0  0  0  0  0
    8.7812  -13.5715   26.2867 C   0  0  0  0  0  0  0  0  0  0  0  0
    7.6862  -14.2866   25.8176 C   0  0  0  0  0  0  0  0  0  0  0  0
   10.5810  -17.4760   24.3628 C   0  0  0  0  0  0  0  0  0  0  0  0
   10.3065  -18.7019   24.3799 O   0  0  0  0  0  0  0  0  0  0  0  0
   15.5027  -13.5924   19.4926 N   0  0  0  0  0  0  0  0  0  0  0  0
   15.7375  -14.8465   20.1376 C   0  0  0  0  0  0  0  0  0  0  0  0
   16.8529  -15.4460   19.9246 N   0  0  0  0  0  0  0  0  0  0  0  0
   14.7849  -15.4366   20.9938 N   0  0  0  0  0  0  0  0  0  0  0  0
   14.9608  -16.7646   21.5176 C   0  0  0  0  0  0  0  0  0  0  0  0
   13.7876  -17.1886   22.3758 C   0  0  0  0  0  0  0  0  0  0  0  0
   14.2353  -17.6275   23.7546 C   0  0  0  0  0  0  0  0  0  0  0  0
   13.0266  -18.0725   24.5602 C   0  0  2  0  0  0  0  0  0  0  0  0
   11.9513  -17.1172   24.4847 N   0  0  0  0  0  0  0  0  0  0  0  0
   13.3637  -18.2854   25.9794 C   0  0  0  0  0  0  0  0  0  0  0  0
   12.9272  -17.4990   26.8472 O   0  0  0  0  0  0  0  0  0  0  0  0
   14.1560  -19.3398   26.3800 O   0  0  0  0  0  0  0  0  0  0  0  0
  2  3  1  0
  2  1  1  1
  4  8  1  0
  4  3  1  0
  5  4  2  0
  6  5  1  0
  6  7  1  0
  7  8  2  0
  9  2  1  0
 10  9  2  0
 11  9  1  0
 12 11  1  0
 12 13  1  1
 13 14  1  0
 14 15  2  0
 15 16  1  0
 17 18  2  0
 17 16  1  0
 19 18  1  0
 20 19  2  0
 21 20  1  0
 21 22  2  0
 22 14  1  0
 22 17  1  0
 23 24  2  0
 23 12  1  0
 25 26  1  0
 26 28  1  0
 26 27  2  0
 28 29  1  0
 30 29  1  0
 30 31  1  0
 32 31  1  6
 32 33  1  0
 33 23  1  0
 34 32  1  0
 35 34  2  0
 36 34  1  0
M  END
$$$$
