HWR.pdb
     RDKit          3D

 36 38  0  0  1  0  0  0  0  0999 V2000
    8.7474  -16.7031   20.5018 N   0  0  0  0  0  0  0  0  0  0  0  0
    8.7445  -17.7743   21.4828 C   0  0  1  0  0  0  0  0  0  0  0  0
    9.3757  -18.9910   20.9238 C   0  0  0  0  0  0  0  0  0  0  0  0
    8.6298  -19.3641   19.6820 C   0  0  0  0  0  0  0  0  0  0  0  0
    8.3317  -18.5187   18.6332 C   0  0  0  0  0  0  0  0  0  0  0  0
    7.6471  -19.2058   17.6839 N   0  0  0  0  0  0  0  0  0  0  0  0
    7.5165  -20.4678   18.1306 C   0  0  0  0  0  0  0  0  0  0  0  0
    8.1086  -20.5532   19.3291 N   0  0  0  0  0  0  0  0  0  0  0  0
    9.2825  -17.2701   22.7332 C   0  0  0  0  0  0  0  0  0  0  0  0
   10.3130  -16.5267   22.6735 O   0  0  0  0  0  0  0  0  0  0  0  0
    8.7715  -17.5248   24.0265 N   0  0  0  0  0  0  0  0  0  0  0  0
    9.3567  -16.9928   25.2156 C   0  0  1  0  0  0  0  0  0  0  0  0
    8.3291  -16.6607   26.2770 C   0  0  0  0  0  0  0  0  0  0  0  0
    7.3330  -15.6693   25.7869 C   0  0  0  0  0  0  0  0  0  0  0  0
    6.1638  -15.8276   25.1109 C   0  0  0  0  0  0  0  0  0  0  0  0
    5.6255  -14.6209   24.8956 N   0  0  0  0  0  0  0  0  0  0  0  0
    6.4090  -13.6441   25.4137 C   0  0  0  0  0  0  0  0  0  0  0  0
    6.3077  -12.2751   25.4590 C   0  0  0  0  0  0  0  0  0  0  0  0
    7.2635  -11.5092   26.0597 C   0  0  0  0  0  0  0  0  0  0  0  0
    8.3476  -12.1414   26.6283 C   0  0  0  0  0  0  0  0  0  0  0  0
    8.4460  -13.5053   26.5816 C   0  0  0  0  0  0  0  0  0  0  0  0
    7.4804  -14.2977   25.9733 C   0  0  0  0  0  0  0  0  0  0  0  0
   10.3464  -17.9190   25.8317 C   0  0  0  0  0  0  0  0  0  0  0  0
   10.1137  -19.1533   25.8605 O   0  0  0  0  0  0  0  0  0  0  0  0
   18.9424  -18.3109   27.0280 N   0  0  0  0  0  0  0  0  0  0  0  0
   18.4515  -19.1430   28.0819 C   0  0  0  0  0  0  0  0  0  0  0  0
   19.2360  -20.0298   28.5786 N   0  0  0  0  0  0  0  0  0  0  0  0
   17.1403  -19.0161   28.5852 N   0  0  0  0  0  0  0  0  0  0  0  0
   16.2101  -18.0656   28.0375 C   0  0  0  0  0  0  0  0  0  0  0  0
   14.8252  -18.6592   27.8873 C   0  0  0  0  0  0  0  0  0  0  0  0
   13.8936  -17.7209   27.1484 C   0  0  0  0  0  0  0  0  0  0  0  0
   12.5149  -18.3512   27.0511 C   0  0  2  0  0  0  0  0  0  0  0  0
   11.5706  -17.4772   26.4040 N   0  0  0  0  0  0  0  0  0  0  0  0
   11.9839  -18.7122   28.3781 C   0  0  0  0  0  0  0  0  0  0  0  0
   12.3941  -19.7434   28.9528 O   0  0  0  0  0  0  0  0  0  0  0  0
   11.0367  -17.9348   29.0094 O   0  0  0  0  0  0  0  0  0  0  0  0
  2  3  1  0
  2  1  1  6
  4  8  1  0
  4  3  1  0
  5  4  2  0
  6  5  1  0
  6  7  1  0
  7  8  2  0
  9  2  1  0
 10  9  2  0
 11  9  1  0
 12 11  1  0
 12 13  1  1
 13 14  1  0
 14 15  2  0
 15 16  1  0
 17 18  2  0
 17 16  1  0
 19 18  1  0
 20 19  2  0
 21 20  1  0
 21 22  2  0
 22 14  1  0
 22 17  1  0
 23 24  2  0
 23 12  1  0
 25 26  1  0
 26 28  1  0
 26 27  2  0
 28 29  1  0
 30 29  1  0
 30 31  1  0
 32 31  1  1
 32 33  1  0
 33 23  1  0
 34 32  1  0
 35 34  2  0
 36 34  1  0
M  END
$$$$
