HWR.pdb
     RDKit          3D

 36 38  0  0  1  0  0  0  0  0999 V2000
    8.1005  -13.0068   18.0194 N   0  0  0  0  0  0  0  0  0  0  0  0
    8.1351  -14.3882   18.4669 C   0  0  1  0  0  0  0  0  0  0  0  0
    9.1054  -15.1685   17.6664 C   0  0  0  0  0  0  0  0  0  0  0  0
    8.6392  -15.1581   16.2451 C   0  0  0  0  0  0  0  0  0  0  0  0
    7.5640  -15.8611   15.7417 C   0  0  0  0  0  0  0  0  0  0  0  0
    7.4433  -15.6064   14.4142 N   0  0  0  0  0  0  0  0  0  0  0  0
    8.4307  -14.7536   14.0870 C   0  0  0  0  0  0  0  0  0  0  0  0
    9.1423  -14.4906   15.1908 N   0  0  0  0  0  0  0  0  0  0  0  0
    8.3021  -14.4130   19.9086 C   0  0  0  0  0  0  0  0  0  0  0  0
    9.4165  -14.0190   20.3790 O   0  0  0  0  0  0  0  0  0  0  0  0
    7.3405  -14.8359   20.8548 N   0  0  0  0  0  0  0  0  0  0  0  0
    7.6076  -14.9191   22.2552 C   0  0  1  0  0  0  0  0  0  0  0  0
    6.3545  -15.1260   23.0798 C   0  0  0  0  0  0  0  0  0  0  0  0
    6.6309  -15.0132   24.5379 C   0  0  0  0  0  0  0  0  0  0  0  0
    6.9001  -15.9580   25.4782 C   0  0  0  0  0  0  0  0  0  0  0  0
    7.0762  -15.3512   26.6584 N   0  0  0  0  0  0  0  0  0  0  0  0
    6.9313  -14.0092   26.5369 C   0  0  0  0  0  0  0  0  0  0  0  0
    7.0113  -12.9652   27.4258 C   0  0  0  0  0  0  0  0  0  0  0  0
    6.8176  -11.6746   27.0286 C   0  0  0  0  0  0  0  0  0  0  0  0
    6.5363  -11.4328   25.7017 C   0  0  0  0  0  0  0  0  0  0  0  0
    6.4572  -12.4746   24.8184 C   0  0  0  0  0  0  0  0  0  0  0  0
    6.6521  -13.7937   25.2088 C   0  0  0  0  0  0  0  0  0  0  0  0
    8.5486  -16.0218   22.5951 C   0  0  0  0  0  0  0  0  0  0  0  0
    8.4137  -17.1476   22.0541 O   0  0  0  0  0  0  0  0  0  0  0  0
   16.7988  -18.4875   22.8232 N   0  0  0  0  0  0  0  0  0  0  0  0
   15.9224  -18.9248   21.7818 C   0  0  0  0  0  0  0  0  0  0  0  0
   16.2873  -19.9137   21.0485 N   0  0  0  0  0  0  0  0  0  0  0  0
   14.6791  -18.3043   21.5413 N   0  0  0  0  0  0  0  0  0  0  0  0
   14.2437  -17.1655   22.3044 C   0  0  0  0  0  0  0  0  0  0  0  0
   13.0030  -17.4751   23.1152 C   0  0  0  0  0  0  0  0  0  0  0  0
   11.9126  -16.4506   22.8792 C   0  0  0  0  0  0  0  0  0  0  0  0
   10.6797  -16.8314   23.6808 C   0  0  2  0  0  0  0  0  0  0  0  0
    9.6182  -15.8714   23.5196 N   0  0  0  0  0  0  0  0  0  0  0  0
   10.9801  -16.9587   25.1184 C   0  0  0  0  0  0  0  0  0  0  0  0
   11.8623  -17.7570   25.5013 O   0  0  0  0  0  0  0  0  0  0  0  0
   10.3073  -16.2131   26.0625 O   0  0  0  0  0  0  0  0  0  0  0  0
  2  3  1  0
  2  1  1  6
  4  8  1  0
  4  3  1  0
  5  4  2  0
  6  5  1  0
  6  7  1  0
  7  8  2  0
  9  2  1  0
 10  9  2  0
 11  9  1  0
 12 11  1  0
 12 13  1  1
 13 14  1  0
 14 15  2  0
 15 16  1  0
 17 18  2  0
 17 16  1  0
 19 18  1  0
 20 19  2  0
 21 20  1  0
 21 22  2  0
 22 14  1  0
 22 17  1  0
 23 24  2  0
 23 12  1  0
 25 26  1  0
 26 28  1  0
 26 27  2  0
 28 29  1  0
 30 29  1  0
 30 31  1  0
 32 31  1  6
 32 33  1  0
 33 23  1  0
 34 32  1  0
 35 34  2  0
 36 34  1  0
M  END
$$$$
