HWR.pdb
     RDKit          3D

 36 38  0  0  1  0  0  0  0  0999 V2000
    7.4843  -13.6718   19.6025 N   0  0  0  0  0  0  0  0  0  0  0  0
    8.1324  -14.9284   19.9352 C   0  0  1  0  0  0  0  0  0  0  0  0
    9.0349  -15.3520   18.8409 C   0  0  0  0  0  0  0  0  0  0  0  0
    8.1938  -15.6278   17.6351 C   0  0  0  0  0  0  0  0  0  0  0  0
    6.9742  -16.2731   17.6304 C   0  0  0  0  0  0  0  0  0  0  0  0
    6.5075  -16.3408   16.3579 N   0  0  0  0  0  0  0  0  0  0  0  0
    7.4225  -15.7452   15.5721 C   0  0  0  0  0  0  0  0  0  0  0  0
    8.4297  -15.3211   16.3465 N   0  0  0  0  0  0  0  0  0  0  0  0
    8.7124  -14.8233   21.2617 C   0  0  0  0  0  0  0  0  0  0  0  0
    9.6317  -13.9614   21.4357 O   0  0  0  0  0  0  0  0  0  0  0  0
    8.3552  -15.5911   22.3938 N   0  0  0  0  0  0  0  0  0  0  0  0
    9.1662  -15.6770   23.5660 C   0  0  1  0  0  0  0  0  0  0  0  0
    8.3978  -16.1645   24.7763 C   0  0  0  0  0  0  0  0  0  0  0  0
    7.2412  -15.2805   25.0860 C   0  0  0  0  0  0  0  0  0  0  0  0
    5.9026  -15.4625   24.9301 C   0  0  0  0  0  0  0  0  0  0  0  0
    5.2671  -14.3654   25.3598 N   0  0  0  0  0  0  0  0  0  0  0  0
    6.1510  -13.4398   25.8054 C   0  0  0  0  0  0  0  0  0  0  0  0
    6.0143  -12.1795   26.3341 C   0  0  0  0  0  0  0  0  0  0  0  0
    7.0991  -11.4434   26.7113 C   0  0  0  0  0  0  0  0  0  0  0  0
    8.3520  -11.9936   26.5507 C   0  0  0  0  0  0  0  0  0  0  0  0
    8.4852  -13.2492   26.0239 C   0  0  0  0  0  0  0  0  0  0  0  0
    7.3895  -14.0101   25.6354 C   0  0  0  0  0  0  0  0  0  0  0  0
   10.3354  -16.5820   23.3896 C   0  0  0  0  0  0  0  0  0  0  0  0
   10.2133  -17.6373   22.7189 O   0  0  0  0  0  0  0  0  0  0  0  0
   17.6390  -14.0446   19.7668 N   0  0  0  0  0  0  0  0  0  0  0  0
   16.3568  -14.4987   19.3266 C   0  0  0  0  0  0  0  0  0  0  0  0
   15.9205  -14.0934   18.1890 N   0  0  0  0  0  0  0  0  0  0  0  0
   15.5664  -15.3720   20.1020 N   0  0  0  0  0  0  0  0  0  0  0  0
   15.8398  -15.6013   21.4954 C   0  0  0  0  0  0  0  0  0  0  0  0
   14.8813  -16.6075   22.0965 C   0  0  0  0  0  0  0  0  0  0  0  0
   13.5964  -15.9488   22.5544 C   0  0  0  0  0  0  0  0  0  0  0  0
   12.8393  -16.8987   23.4668 C   0  0  2  0  0  0  0  0  0  0  0  0
   11.6145  -16.3151   23.9500 N   0  0  0  0  0  0  0  0  0  0  0  0
   13.6521  -17.3065   24.6269 C   0  0  0  0  0  0  0  0  0  0  0  0
   14.4701  -18.2448   24.5145 O   0  0  0  0  0  0  0  0  0  0  0  0
   13.5334  -16.6743   25.8461 O   0  0  0  0  0  0  0  0  0  0  0  0
  2  3  1  0
  2  1  1  6
  4  8  1  0
  4  3  1  0
  5  4  2  0
  6  5  1  0
  6  7  1  0
  7  8  2  0
  9  2  1  0
 10  9  2  0
 11  9  1  0
 12 11  1  0
 12 13  1  1
 13 14  1  0
 14 15  2  0
 15 16  1  0
 17 18  2  0
 17 16  1  0
 19 18  1  0
 20 19  2  0
 21 20  1  0
 21 22  2  0
 22 14  1  0
 22 17  1  0
 23 24  2  0
 23 12  1  0
 25 26  1  0
 26 28  1  0
 26 27  2  0
 28 29  1  0
 30 29  1  0
 30 31  1  0
 32 31  1  1
 32 33  1  0
 33 23  1  0
 34 32  1  0
 35 34  2  0
 36 34  1  0
M  END
$$$$
