HWR.pdb
     RDKit          3D

 36 38  0  0  1  0  0  0  0  0999 V2000
   10.0121  -16.6340   19.9212 N   0  0  0  0  0  0  0  0  0  0  0  0
    9.1032  -16.8471   21.0339 C   0  0  1  0  0  0  0  0  0  0  0  0
    8.3490  -18.1079   20.8532 C   0  0  0  0  0  0  0  0  0  0  0  0
    7.5755  -17.9995   19.5774 C   0  0  0  0  0  0  0  0  0  0  0  0
    6.7579  -16.9491   19.2143 C   0  0  0  0  0  0  0  0  0  0  0  0
    6.2240  -17.1981   17.9917 N   0  0  0  0  0  0  0  0  0  0  0  0
    6.7002  -18.3906   17.5911 C   0  0  0  0  0  0  0  0  0  0  0  0
    7.5094  -18.8634   18.5481 N   0  0  0  0  0  0  0  0  0  0  0  0
    9.8356  -16.6919   22.2775 C   0  0  0  0  0  0  0  0  0  0  0  0
   11.0390  -17.1033   22.3073 O   0  0  0  0  0  0  0  0  0  0  0  0
    9.3413  -16.1232   23.4737 N   0  0  0  0  0  0  0  0  0  0  0  0
   10.0189  -16.2289   24.7263 C   0  0  1  0  0  0  0  0  0  0  0  0
    9.6966  -15.0859   25.6656 C   0  0  0  0  0  0  0  0  0  0  0  0
    8.2374  -14.7941   25.6964 C   0  0  0  0  0  0  0  0  0  0  0  0
    7.1562  -15.5893   25.4777 C   0  0  0  0  0  0  0  0  0  0  0  0
    6.0465  -14.8545   25.6221 N   0  0  0  0  0  0  0  0  0  0  0  0
    6.3546  -13.5725   25.9354 C   0  0  0  0  0  0  0  0  0  0  0  0
    5.5997  -12.4518   26.1816 C   0  0  0  0  0  0  0  0  0  0  0  0
    6.1794  -11.2542   26.4827 C   0  0  0  0  0  0  0  0  0  0  0  0
    7.5545  -11.1871   26.5365 C   0  0  0  0  0  0  0  0  0  0  0  0
    8.3040  -12.3050   26.2907 C   0  0  0  0  0  0  0  0  0  0  0  0
    7.7272  -13.5310   25.9829 C   0  0  0  0  0  0  0  0  0  0  0  0
    9.7033  -17.4946   25.4442 C   0  0  0  0  0  0  0  0  0  0  0  0
    8.5824  -17.6392   25.9928 O   0  0  0  0  0  0  0  0  0  0  0  0
   17.1517  -20.0761   24.4344 N   0  0  0  0  0  0  0  0  0  0  0  0
   15.9645  -20.2592   23.6591 C   0  0  0  0  0  0  0  0  0  0  0  0
   15.9690  -19.8800   22.4324 N   0  0  0  0  0  0  0  0  0  0  0  0
   14.7996  -20.8401   24.2017 N   0  0  0  0  0  0  0  0  0  0  0  0
   14.3273  -20.4976   25.5164 C   0  0  0  0  0  0  0  0  0  0  0  0
   12.8550  -20.1443   25.5086 C   0  0  0  0  0  0  0  0  0  0  0  0
   12.3954  -19.6405   26.8611 C   0  0  0  0  0  0  0  0  0  0  0  0
   10.9295  -19.2497   26.7830 C   0  0  2  0  0  0  0  0  0  0  0  0
   10.6195  -18.5768   25.5478 N   0  0  0  0  0  0  0  0  0  0  0  0
   10.5364  -18.3753   27.9027 C   0  0  0  0  0  0  0  0  0  0  0  0
    9.6053  -18.7182   28.6626 O   0  0  0  0  0  0  0  0  0  0  0  0
   11.1747  -17.1763   28.1373 O   0  0  0  0  0  0  0  0  0  0  0  0
  2  3  1  0
  2  1  1  6
  4  8  1  0
  4  3  1  0
  5  4  2  0
  6  5  1  0
  6  7  1  0
  7  8  2  0
  9  2  1  0
 10  9  2  0
 11  9  1  0
 12 11  1  0
 12 13  1  1
 13 14  1  0
 14 15  2  0
 15 16  1  0
 17 18  2  0
 17 16  1  0
 19 18  1  0
 20 19  2  0
 21 20  1  0
 21 22  2  0
 22 14  1  0
 22 17  1  0
 23 24  2  0
 23 12  1  0
 25 26  1  0
 26 28  1  0
 26 27  2  0
 28 29  1  0
 30 29  1  0
 30 31  1  0
 32 31  1  6
 32 33  1  0
 33 23  1  0
 34 32  1  0
 35 34  2  0
 36 34  1  0
M  END
$$$$
