HWR.pdb
     RDKit          3D

 36 38  0  0  1  0  0  0  0  0999 V2000
   10.7187  -16.8810   19.7063 N   0  0  0  0  0  0  0  0  0  0  0  0
    9.7466  -17.2726   20.7119 C   0  0  1  0  0  0  0  0  0  0  0  0
    9.2303  -18.6315   20.4324 C   0  0  0  0  0  0  0  0  0  0  0  0
    8.9031  -18.7058   18.9747 C   0  0  0  0  0  0  0  0  0  0  0  0
    9.5276  -17.9976   17.9687 C   0  0  0  0  0  0  0  0  0  0  0  0
    8.9658  -18.3216   16.7766 N   0  0  0  0  0  0  0  0  0  0  0  0
    7.9998  -19.2226   17.0301 C   0  0  0  0  0  0  0  0  0  0  0  0
    7.9696  -19.4467   18.3503 N   0  0  0  0  0  0  0  0  0  0  0  0
   10.3116  -17.0424   22.0290 C   0  0  0  0  0  0  0  0  0  0  0  0
   11.1897  -17.8636   22.4447 O   0  0  0  0  0  0  0  0  0  0  0  0
    9.9809  -15.9854   22.9077 N   0  0  0  0  0  0  0  0  0  0  0  0
    9.2247  -16.1730   24.1045 C   0  0  1  0  0  0  0  0  0  0  0  0
    7.7322  -16.0519   23.8801 C   0  0  0  0  0  0  0  0  0  0  0  0
    7.3034  -14.6295   23.7891 C   0  0  0  0  0  0  0  0  0  0  0  0
    7.0113  -13.8448   22.7176 C   0  0  0  0  0  0  0  0  0  0  0  0
    6.6735  -12.6263   23.1572 N   0  0  0  0  0  0  0  0  0  0  0  0
    6.7309  -12.5687   24.5100 C   0  0  0  0  0  0  0  0  0  0  0  0
    6.4857  -11.5745   25.4253 C   0  0  0  0  0  0  0  0  0  0  0  0
    6.6230  -11.7898   26.7653 C   0  0  0  0  0  0  0  0  0  0  0  0
    7.0174  -13.0394   27.1910 C   0  0  0  0  0  0  0  0  0  0  0  0
    7.2611  -14.0280   26.2770 C   0  0  0  0  0  0  0  0  0  0  0  0
    7.1254  -13.8229   24.9095 C   0  0  0  0  0  0  0  0  0  0  0  0
    9.4715  -17.4981   24.7370 C   0  0  0  0  0  0  0  0  0  0  0  0
    9.5643  -18.5255   24.0199 O   0  0  0  0  0  0  0  0  0  0  0  0
   16.6064  -17.8543   23.5019 N   0  0  0  0  0  0  0  0  0  0  0  0
   15.7687  -18.9522   23.1318 C   0  0  0  0  0  0  0  0  0  0  0  0
   16.1407  -19.7074   22.1623 N   0  0  0  0  0  0  0  0  0  0  0  0
   14.5559  -19.2247   23.7979 N   0  0  0  0  0  0  0  0  0  0  0  0
   13.9713  -18.2847   24.7162 C   0  0  0  0  0  0  0  0  0  0  0  0
   12.6358  -18.7693   25.2399 C   0  0  0  0  0  0  0  0  0  0  0  0
   12.0565  -17.8117   26.2606 C   0  0  0  0  0  0  0  0  0  0  0  0
   10.7249  -18.3482   26.7575 C   0  0  2  0  0  0  0  0  0  0  0  0
    9.6118  -17.6735   26.1410 N   0  0  0  0  0  0  0  0  0  0  0  0
   10.5961  -18.2212   28.2205 C   0  0  0  0  0  0  0  0  0  0  0  0
   10.4262  -17.0948   28.7346 O   0  0  0  0  0  0  0  0  0  0  0  0
   10.6584  -19.3232   29.0462 O   0  0  0  0  0  0  0  0  0  0  0  0
  2  3  1  0
  2  1  1  6
  4  8  1  0
  4  3  1  0
  5  4  2  0
  6  5  1  0
  6  7  1  0
  7  8  2  0
  9  2  1  0
 10  9  2  0
 11  9  1  0
 12 11  1  0
 12 13  1  6
 13 14  1  0
 14 15  2  0
 15 16  1  0
 17 18  2  0
 17 16  1  0
 19 18  1  0
 20 19  2  0
 21 20  1  0
 21 22  2  0
 22 14  1  0
 22 17  1  0
 23 24  2  0
 23 12  1  0
 25 26  1  0
 26 28  1  0
 26 27  2  0
 28 29  1  0
 30 29  1  0
 30 31  1  0
 32 31  1  6
 32 33  1  0
 33 23  1  0
 34 32  1  0
 35 34  2  0
 36 34  1  0
M  END
$$$$
