HWR.pdb
     RDKit          3D

 36 38  0  0  1  0  0  0  0  0999 V2000
   10.2017  -14.6109   20.9994 N   0  0  0  0  0  0  0  0  0  0  0  0
    8.9422  -15.0557   21.5697 C   0  0  1  0  0  0  0  0  0  0  0  0
    8.2587  -15.9929   20.6499 C   0  0  0  0  0  0  0  0  0  0  0  0
    8.0672  -15.2924   19.3422 C   0  0  0  0  0  0  0  0  0  0  0  0
    8.5864  -14.0604   19.0012 C   0  0  0  0  0  0  0  0  0  0  0  0
    8.2046  -13.7470   17.7372 N   0  0  0  0  0  0  0  0  0  0  0  0
    7.4545  -14.7696   17.2890 C   0  0  0  0  0  0  0  0  0  0  0  0
    7.3777  -15.6912   18.2579 N   0  0  0  0  0  0  0  0  0  0  0  0
    9.1757  -15.5187   22.9255 C   0  0  0  0  0  0  0  0  0  0  0  0
   10.3809  -15.5763   23.3285 O   0  0  0  0  0  0  0  0  0  0  0  0
    8.1877  -15.9172   23.8549 N   0  0  0  0  0  0  0  0  0  0  0  0
    8.4902  -16.3184   25.1917 C   0  0  1  0  0  0  0  0  0  0  0  0
    7.3298  -16.1127   26.1424 C   0  0  0  0  0  0  0  0  0  0  0  0
    6.6793  -14.7897   25.9382 C   0  0  0  0  0  0  0  0  0  0  0  0
    5.5155  -14.4444   25.3255 C   0  0  0  0  0  0  0  0  0  0  0  0
    5.3671  -13.1162   25.4029 N   0  0  0  0  0  0  0  0  0  0  0  0
    6.4107  -12.5519   26.0580 C   0  0  0  0  0  0  0  0  0  0  0  0
    6.7284  -11.2585   26.3937 C   0  0  0  0  0  0  0  0  0  0  0  0
    7.8725  -10.9593   27.0737 C   0  0  0  0  0  0  0  0  0  0  0  0
    8.7158  -11.9913   27.4231 C   0  0  0  0  0  0  0  0  0  0  0  0
    8.3968  -13.2787   27.0875 C   0  0  0  0  0  0  0  0  0  0  0  0
    7.2353  -13.5981   26.3951 C   0  0  0  0  0  0  0  0  0  0  0  0
    8.8906  -17.7495   25.2844 C   0  0  0  0  0  0  0  0  0  0  0  0
    8.2555  -18.6193   24.6376 O   0  0  0  0  0  0  0  0  0  0  0  0
   14.5124  -21.4205   21.2359 N   0  0  0  0  0  0  0  0  0  0  0  0
   14.0609  -20.0858   20.9932 C   0  0  0  0  0  0  0  0  0  0  0  0
   13.9868  -19.6751   19.7789 N   0  0  0  0  0  0  0  0  0  0  0  0
   13.6981  -19.2169   22.0431 N   0  0  0  0  0  0  0  0  0  0  0  0
   13.7898  -19.6185   23.4211 C   0  0  0  0  0  0  0  0  0  0  0  0
   12.4534  -20.0843   23.9594 C   0  0  0  0  0  0  0  0  0  0  0  0
   11.5811  -18.9168   24.3721 C   0  0  0  0  0  0  0  0  0  0  0  0
   10.8865  -19.2440   25.6829 C   0  0  2  0  0  0  0  0  0  0  0  0
    9.9773  -18.2008   26.0824 N   0  0  0  0  0  0  0  0  0  0  0  0
   11.8532  -19.4642   26.7738 C   0  0  0  0  0  0  0  0  0  0  0  0
   12.3042  -20.6108   26.9833 O   0  0  0  0  0  0  0  0  0  0  0  0
   12.2782  -18.4285   27.5780 O   0  0  0  0  0  0  0  0  0  0  0  0
  2  3  1  0
  2  1  1  6
  4  8  1  0
  4  3  1  0
  5  4  2  0
  6  5  1  0
  6  7  1  0
  7  8  2  0
  9  2  1  0
 10  9  2  0
 11  9  1  0
 12 11  1  0
 12 13  1  1
 13 14  1  0
 14 15  2  0
 15 16  1  0
 17 18  2  0
 17 16  1  0
 19 18  1  0
 20 19  2  0
 21 20  1  0
 21 22  2  0
 22 14  1  0
 22 17  1  0
 23 24  2  0
 23 12  1  0
 25 26  1  0
 26 28  1  0
 26 27  2  0
 28 29  1  0
 30 29  1  0
 30 31  1  0
 32 31  1  6
 32 33  1  0
 33 23  1  0
 34 32  1  0
 35 34  2  0
 36 34  1  0
M  END
$$$$
