HWR.pdb
     RDKit          3D

 36 38  0  0  1  0  0  0  0  0999 V2000
   10.2015  -16.5433   18.6810 N   0  0  0  0  0  0  0  0  0  0  0  0
   10.0530  -17.7188   19.5210 C   0  0  1  0  0  0  0  0  0  0  0  0
   11.1525  -18.6777   19.2701 C   0  0  0  0  0  0  0  0  0  0  0  0
   11.1442  -19.0121   17.8121 C   0  0  0  0  0  0  0  0  0  0  0  0
   10.2383  -19.8364   17.1769 C   0  0  0  0  0  0  0  0  0  0  0  0
   10.5429  -19.9040   15.8561 N   0  0  0  0  0  0  0  0  0  0  0  0
   11.6271  -19.1316   15.6634 C   0  0  0  0  0  0  0  0  0  0  0  0
   11.9804  -18.6012   16.8415 N   0  0  0  0  0  0  0  0  0  0  0  0
    9.8515  -17.2947   20.8945 C   0  0  0  0  0  0  0  0  0  0  0  0
   10.8762  -16.9299   21.5543 O   0  0  0  0  0  0  0  0  0  0  0  0
    8.6172  -17.2456   21.5821 N   0  0  0  0  0  0  0  0  0  0  0  0
    8.5028  -16.8672   22.9544 C   0  0  1  0  0  0  0  0  0  0  0  0
    7.1647  -16.2374   23.2793 C   0  0  0  0  0  0  0  0  0  0  0  0
    7.2334  -14.7510   23.2443 C   0  0  0  0  0  0  0  0  0  0  0  0
    7.5913  -13.8901   22.2545 C   0  0  0  0  0  0  0  0  0  0  0  0
    7.4894  -12.6379   22.7169 N   0  0  0  0  0  0  0  0  0  0  0  0
    7.0681  -12.6324   24.0050 C   0  0  0  0  0  0  0  0  0  0  0  0
    6.8106  -11.6331   24.9113 C   0  0  0  0  0  0  0  0  0  0  0  0
    6.3850  -11.9114   26.1772 C   0  0  0  0  0  0  0  0  0  0  0  0
    6.2154  -13.2307   26.5360 C   0  0  0  0  0  0  0  0  0  0  0  0
    6.4726  -14.2242   25.6312 C   0  0  0  0  0  0  0  0  0  0  0  0
    6.9066  -13.9555   24.3389 C   0  0  0  0  0  0  0  0  0  0  0  0
    8.6892  -18.0156   23.8835 C   0  0  0  0  0  0  0  0  0  0  0  0
    8.0620  -19.0864   23.6874 O   0  0  0  0  0  0  0  0  0  0  0  0
    9.5770  -14.9765   28.9690 N   0  0  0  0  0  0  0  0  0  0  0  0
   10.9948  -15.0559   29.1353 C   0  0  0  0  0  0  0  0  0  0  0  0
   11.6233  -14.0134   29.5437 N   0  0  0  0  0  0  0  0  0  0  0  0
   11.7141  -16.2384   28.8650 N   0  0  0  0  0  0  0  0  0  0  0  0
   11.1634  -17.5374   29.1442 C   0  0  0  0  0  0  0  0  0  0  0  0
   10.1438  -17.9496   28.1033 C   0  0  0  0  0  0  0  0  0  0  0  0
   10.7803  -18.7491   26.9853 C   0  0  0  0  0  0  0  0  0  0  0  0
    9.7337  -19.0631   25.9299 C   0  0  2  0  0  0  0  0  0  0  0  0
    9.5575  -17.9703   25.0084 N   0  0  0  0  0  0  0  0  0  0  0  0
    8.4269  -19.3807   26.5334 C   0  0  0  0  0  0  0  0  0  0  0  0
    7.5108  -18.5307   26.5167 O   0  0  0  0  0  0  0  0  0  0  0  0
    8.1848  -20.6033   27.1223 O   0  0  0  0  0  0  0  0  0  0  0  0
  2  3  1  0
  2  1  1  6
  4  8  1  0
  4  3  1  0
  5  4  2  0
  6  5  1  0
  6  7  1  0
  7  8  2  0
  9  2  1  0
 10  9  2  0
 11  9  1  0
 12 11  1  0
 12 13  1  6
 13 14  1  0
 14 15  2  0
 15 16  1  0
 17 18  2  0
 17 16  1  0
 19 18  1  0
 20 19  2  0
 21 20  1  0
 21 22  2  0
 22 14  1  0
 22 17  1  0
 23 24  2  0
 23 12  1  0
 25 26  1  0
 26 28  1  0
 26 27  2  0
 28 29  1  0
 30 29  1  0
 30 31  1  0
 32 31  1  1
 32 33  1  0
 33 23  1  0
 34 32  1  0
 35 34  2  0
 36 34  1  0
M  END
$$$$
