HWR.pdb
     RDKit          3D

 36 38  0  0  1  0  0  0  0  0999 V2000
    8.4602  -16.1951   20.1946 N   0  0  0  0  0  0  0  0  0  0  0  0
    8.8248  -14.8428   20.5791 C   0  0  1  0  0  0  0  0  0  0  0  0
    7.7893  -13.8812   20.1382 C   0  0  0  0  0  0  0  0  0  0  0  0
    7.6992  -13.9577   18.6470 C   0  0  0  0  0  0  0  0  0  0  0  0
    8.3811  -13.1574   17.7537 C   0  0  0  0  0  0  0  0  0  0  0  0
    8.0501  -13.5156   16.4873 N   0  0  0  0  0  0  0  0  0  0  0  0
    7.1707  -14.5288   16.5834 C   0  0  0  0  0  0  0  0  0  0  0  0
    6.9664  -14.7868   17.8817 N   0  0  0  0  0  0  0  0  0  0  0  0
    9.1753  -14.8312   21.9877 C   0  0  0  0  0  0  0  0  0  0  0  0
    9.9248  -13.8897   22.4001 O   0  0  0  0  0  0  0  0  0  0  0  0
    8.7634  -15.7715   22.9597 N   0  0  0  0  0  0  0  0  0  0  0  0
    9.2837  -15.7985   24.2893 C   0  0  1  0  0  0  0  0  0  0  0  0
    8.2435  -16.1883   25.3183 C   0  0  0  0  0  0  0  0  0  0  0  0
    7.1153  -15.2183   25.3545 C   0  0  0  0  0  0  0  0  0  0  0  0
    5.8136  -15.3379   24.9796 C   0  0  0  0  0  0  0  0  0  0  0  0
    5.1919  -14.1748   25.2094 N   0  0  0  0  0  0  0  0  0  0  0  0
    6.0489  -13.2656   25.7343 C   0  0  0  0  0  0  0  0  0  0  0  0
    5.9119  -11.9596   26.1369 C   0  0  0  0  0  0  0  0  0  0  0  0
    6.9649  -11.2560   26.6438 C   0  0  0  0  0  0  0  0  0  0  0  0
    8.1855  -11.8867   26.7466 C   0  0  0  0  0  0  0  0  0  0  0  0
    8.3191  -13.1877   26.3448 C   0  0  0  0  0  0  0  0  0  0  0  0
    7.2556  -13.9163   25.8267 C   0  0  0  0  0  0  0  0  0  0  0  0
   10.4284  -16.7390   24.4383 C   0  0  0  0  0  0  0  0  0  0  0  0
   10.2356  -17.9772   24.3495 O   0  0  0  0  0  0  0  0  0  0  0  0
   18.8394  -16.8747   22.3293 N   0  0  0  0  0  0  0  0  0  0  0  0
   18.6650  -17.9563   23.2478 C   0  0  0  0  0  0  0  0  0  0  0  0
   19.5711  -18.8643   23.3046 N   0  0  0  0  0  0  0  0  0  0  0  0
   17.5343  -18.0508   24.0853 N   0  0  0  0  0  0  0  0  0  0  0  0
   16.4783  -17.0753   24.0407 C   0  0  0  0  0  0  0  0  0  0  0  0
   15.3432  -17.4348   24.9762 C   0  0  0  0  0  0  0  0  0  0  0  0
   14.2009  -16.4455   24.8729 C   0  0  0  0  0  0  0  0  0  0  0  0
   12.8844  -17.2000   24.8013 C   0  0  2  0  0  0  0  0  0  0  0  0
   11.7609  -16.3067   24.6815 N   0  0  0  0  0  0  0  0  0  0  0  0
   12.6784  -18.0536   25.9853 C   0  0  0  0  0  0  0  0  0  0  0  0
   12.2862  -17.5457   27.0578 O   0  0  0  0  0  0  0  0  0  0  0  0
   12.9090  -19.4119   25.9415 O   0  0  0  0  0  0  0  0  0  0  0  0
  2  3  1  0
  2  1  1  1
  4  8  1  0
  4  3  1  0
  5  4  2  0
  6  5  1  0
  6  7  1  0
  7  8  2  0
  9  2  1  0
 10  9  2  0
 11  9  1  0
 12 11  1  0
 12 13  1  1
 13 14  1  0
 14 15  2  0
 15 16  1  0
 17 18  2  0
 17 16  1  0
 19 18  1  0
 20 19  2  0
 21 20  1  0
 21 22  2  0
 22 14  1  0
 22 17  1  0
 23 24  2  0
 23 12  1  0
 25 26  1  0
 26 28  1  0
 26 27  2  0
 28 29  1  0
 30 29  1  0
 30 31  1  0
 32 31  1  1
 32 33  1  0
 33 23  1  0
 34 32  1  0
 35 34  2  0
 36 34  1  0
M  END
$$$$
