HWR.pdb
     RDKit          3D

 36 38  0  0  1  0  0  0  0  0999 V2000
    9.6050  -18.0123   20.9537 N   0  0  0  0  0  0  0  0  0  0  0  0
   10.5907  -17.0894   21.4887 C   0  0  1  0  0  0  0  0  0  0  0  0
   10.8487  -15.9924   20.5287 C   0  0  0  0  0  0  0  0  0  0  0  0
   10.8379  -16.5773   19.1520 C   0  0  0  0  0  0  0  0  0  0  0  0
   11.6310  -17.6155   18.7083 C   0  0  0  0  0  0  0  0  0  0  0  0
   11.3447  -17.8743   17.4073 N   0  0  0  0  0  0  0  0  0  0  0  0
   10.3833  -17.0093   17.0375 C   0  0  0  0  0  0  0  0  0  0  0  0
   10.0860  -16.2358   18.0898 N   0  0  0  0  0  0  0  0  0  0  0  0
   10.1984  -16.7075   22.8331 C   0  0  0  0  0  0  0  0  0  0  0  0
   10.9150  -15.8439   23.4324 O   0  0  0  0  0  0  0  0  0  0  0  0
    9.0877  -17.2039   23.5530 N   0  0  0  0  0  0  0  0  0  0  0  0
    8.7910  -16.8165   24.8951 C   0  0  1  0  0  0  0  0  0  0  0  0
    7.3766  -16.3009   25.0575 C   0  0  0  0  0  0  0  0  0  0  0  0
    7.2526  -14.8859   24.6128 C   0  0  0  0  0  0  0  0  0  0  0  0
    7.2924  -14.3254   23.3745 C   0  0  0  0  0  0  0  0  0  0  0  0
    7.1327  -13.0019   23.4970 N   0  0  0  0  0  0  0  0  0  0  0  0
    6.9851  -12.6524   24.7981 C   0  0  0  0  0  0  0  0  0  0  0  0
    6.7959  -11.4526   25.4392 C   0  0  0  0  0  0  0  0  0  0  0  0
    6.6746  -11.3811   26.7961 C   0  0  0  0  0  0  0  0  0  0  0  0
    6.7459  -12.5495   27.5227 C   0  0  0  0  0  0  0  0  0  0  0  0
    6.9344  -13.7433   26.8814 C   0  0  0  0  0  0  0  0  0  0  0  0
    7.0596  -13.8311   25.5004 C   0  0  0  0  0  0  0  0  0  0  0  0
    8.9707  -17.9304   25.8667 C   0  0  0  0  0  0  0  0  0  0  0  0
    8.5483  -19.0796   25.5852 O   0  0  0  0  0  0  0  0  0  0  0  0
   14.1927  -21.7892   21.9473 N   0  0  0  0  0  0  0  0  0  0  0  0
   14.1734  -20.7379   22.9160 C   0  0  0  0  0  0  0  0  0  0  0  0
   15.1596  -19.9162   22.9484 N   0  0  0  0  0  0  0  0  0  0  0  0
   13.1094  -20.5815   23.8282 N   0  0  0  0  0  0  0  0  0  0  0  0
   13.1168  -19.5457   24.8262 C   0  0  0  0  0  0  0  0  0  0  0  0
   11.8796  -19.5981   25.6975 C   0  0  0  0  0  0  0  0  0  0  0  0
   11.9102  -18.5327   26.7738 C   0  0  0  0  0  0  0  0  0  0  0  0
   10.6505  -18.6305   27.6172 C   0  0  2  0  0  0  0  0  0  0  0  0
    9.6087  -17.7654   27.1265 N   0  0  0  0  0  0  0  0  0  0  0  0
   10.9103  -18.2949   29.0288 C   0  0  0  0  0  0  0  0  0  0  0  0
   11.3266  -17.1559   29.3310 O   0  0  0  0  0  0  0  0  0  0  0  0
   10.7042  -19.2132   30.0360 O   0  0  0  0  0  0  0  0  0  0  0  0
  2  3  1  0
  2  1  1  6
  4  8  1  0
  4  3  1  0
  5  4  2  0
  6  5  1  0
  6  7  1  0
  7  8  2  0
  9  2  1  0
 10  9  2  0
 11  9  1  0
 12 11  1  0
 12 13  1  6
 13 14  1  0
 14 15  2  0
 15 16  1  0
 17 18  2  0
 17 16  1  0
 19 18  1  0
 20 19  2  0
 21 20  1  0
 21 22  2  0
 22 14  1  0
 22 17  1  0
 23 24  2  0
 23 12  1  0
 25 26  1  0
 26 28  1  0
 26 27  2  0
 28 29  1  0
 30 29  1  0
 30 31  1  0
 32 31  1  6
 32 33  1  0
 33 23  1  0
 34 32  1  0
 35 34  2  0
 36 34  1  0
M  END
$$$$
