HWR.pdb
     RDKit          3D

 36 38  0  0  1  0  0  0  0  0999 V2000
    9.3800  -16.6810   20.1734 N   0  0  0  0  0  0  0  0  0  0  0  0
    9.4713  -17.8490   21.0319 C   0  0  1  0  0  0  0  0  0  0  0  0
   10.4745  -18.8021   20.5059 C   0  0  0  0  0  0  0  0  0  0  0  0
   10.0882  -19.1444   19.1019 C   0  0  0  0  0  0  0  0  0  0  0  0
    8.9066  -19.7397   18.7107 C   0  0  0  0  0  0  0  0  0  0  0  0
    8.9073  -19.8949   17.3625 N   0  0  0  0  0  0  0  0  0  0  0  0
   10.0753  -19.4031   16.9116 C   0  0  0  0  0  0  0  0  0  0  0  0
   10.7765  -18.9555   17.9614 N   0  0  0  0  0  0  0  0  0  0  0  0
    9.6371  -17.4124   22.4063 C   0  0  0  0  0  0  0  0  0  0  0  0
   10.7818  -16.9783   22.7520 O   0  0  0  0  0  0  0  0  0  0  0  0
    8.6437  -17.4209   23.4121 N   0  0  0  0  0  0  0  0  0  0  0  0
    8.9191  -17.1336   24.7836 C   0  0  1  0  0  0  0  0  0  0  0  0
    7.7597  -16.4582   25.4854 C   0  0  0  0  0  0  0  0  0  0  0  0
    7.4109  -15.1600   24.8466 C   0  0  0  0  0  0  0  0  0  0  0  0
    7.1343  -14.8388   23.5546 C   0  0  0  0  0  0  0  0  0  0  0  0
    6.8796  -13.5264   23.4835 N   0  0  0  0  0  0  0  0  0  0  0  0
    6.9783  -12.9492   24.7057 C   0  0  0  0  0  0  0  0  0  0  0  0
    6.8165  -11.6632   25.1598 C   0  0  0  0  0  0  0  0  0  0  0  0
    6.9790  -11.3467   26.4768 C   0  0  0  0  0  0  0  0  0  0  0  0
    7.3129  -12.3535   27.3560 C   0  0  0  0  0  0  0  0  0  0  0  0
    7.4735  -13.6338   26.9009 C   0  0  0  0  0  0  0  0  0  0  0  0
    7.3113  -13.9704   25.5627 C   0  0  0  0  0  0  0  0  0  0  0  0
    9.2622  -18.3522   25.5672 C   0  0  0  0  0  0  0  0  0  0  0  0
    8.4858  -19.3399   25.5588 O   0  0  0  0  0  0  0  0  0  0  0  0
   14.9910  -17.8776   30.1115 N   0  0  0  0  0  0  0  0  0  0  0  0
   15.8436  -18.7194   29.3314 C   0  0  0  0  0  0  0  0  0  0  0  0
   17.1146  -18.5708   29.4371 N   0  0  0  0  0  0  0  0  0  0  0  0
   15.3297  -19.6994   28.4572 N   0  0  0  0  0  0  0  0  0  0  0  0
   14.5894  -19.3441   27.2764 C   0  0  0  0  0  0  0  0  0  0  0  0
   13.1389  -19.0463   27.5925 C   0  0  0  0  0  0  0  0  0  0  0  0
   12.2100  -20.0578   26.9536 C   0  0  0  0  0  0  0  0  0  0  0  0
   10.7699  -19.6158   27.1503 C   0  0  2  0  0  0  0  0  0  0  0  0
   10.4474  -18.4666   26.3442 N   0  0  0  0  0  0  0  0  0  0  0  0
   10.4850  -19.2925   28.5600 C   0  0  0  0  0  0  0  0  0  0  0  0
   10.1778  -18.1242   28.8805 O   0  0  0  0  0  0  0  0  0  0  0  0
   10.5489  -20.2542   29.5455 O   0  0  0  0  0  0  0  0  0  0  0  0
  2  3  1  0
  2  1  1  6
  4  8  1  0
  4  3  1  0
  5  4  2  0
  6  5  1  0
  6  7  1  0
  7  8  2  0
  9  2  1  0
 10  9  2  0
 11  9  1  0
 12 11  1  0
 12 13  1  1
 13 14  1  0
 14 15  2  0
 15 16  1  0
 17 18  2  0
 17 16  1  0
 19 18  1  0
 20 19  2  0
 21 20  1  0
 21 22  2  0
 22 14  1  0
 22 17  1  0
 23 24  2  0
 23 12  1  0
 25 26  1  0
 26 28  1  0
 26 27  2  0
 28 29  1  0
 30 29  1  0
 30 31  1  0
 32 31  1  1
 32 33  1  0
 33 23  1  0
 34 32  1  0
 35 34  2  0
 36 34  1  0
M  END
$$$$
