HWR.pdb
     RDKit          3D

 36 38  0  0  1  0  0  0  0  0999 V2000
   11.0666  -17.0321   19.0422 N   0  0  0  0  0  0  0  0  0  0  0  0
    9.8962  -16.8663   19.8863 C   0  0  1  0  0  0  0  0  0  0  0  0
    8.8865  -17.9053   19.5825 C   0  0  0  0  0  0  0  0  0  0  0  0
    8.3947  -17.6719   18.1892 C   0  0  0  0  0  0  0  0  0  0  0  0
    8.8391  -16.6890   17.3290 C   0  0  0  0  0  0  0  0  0  0  0  0
    8.1659  -16.7829   16.1544 N   0  0  0  0  0  0  0  0  0  0  0  0
    7.3086  -17.8124   16.2748 C   0  0  0  0  0  0  0  0  0  0  0  0
    7.4529  -18.3391   17.4978 N   0  0  0  0  0  0  0  0  0  0  0  0
   10.3241  -16.7500   21.2685 C   0  0  0  0  0  0  0  0  0  0  0  0
   11.4943  -17.1559   21.5585 O   0  0  0  0  0  0  0  0  0  0  0  0
    9.5631  -16.2254   22.3382 N   0  0  0  0  0  0  0  0  0  0  0  0
   10.0389  -16.1756   23.6837 C   0  0  1  0  0  0  0  0  0  0  0  0
    9.6253  -14.9104   24.4055 C   0  0  0  0  0  0  0  0  0  0  0  0
    8.2273  -14.5208   24.0751 C   0  0  0  0  0  0  0  0  0  0  0  0
    7.0592  -14.7065   24.7462 C   0  0  0  0  0  0  0  0  0  0  0  0
    6.0629  -14.1711   24.0301 N   0  0  0  0  0  0  0  0  0  0  0  0
    6.5335  -13.6241   22.8829 C   0  0  0  0  0  0  0  0  0  0  0  0
    5.9368  -12.9690   21.8335 C   0  0  0  0  0  0  0  0  0  0  0  0
    6.6638  -12.5081   20.7752 C   0  0  0  0  0  0  0  0  0  0  0  0
    8.0261  -12.7138   20.7771 C   0  0  0  0  0  0  0  0  0  0  0  0
    8.6178  -13.3667   21.8237 C   0  0  0  0  0  0  0  0  0  0  0  0
    7.8900  -13.8415   22.9078 C   0  0  0  0  0  0  0  0  0  0  0  0
    9.5672  -17.3267   24.5019 C   0  0  0  0  0  0  0  0  0  0  0  0
    8.4572  -17.8589   24.2506 O   0  0  0  0  0  0  0  0  0  0  0  0
   15.4180  -22.0922   22.8148 N   0  0  0  0  0  0  0  0  0  0  0  0
   14.8329  -21.0993   21.9687 C   0  0  0  0  0  0  0  0  0  0  0  0
   15.5892  -20.4816   21.1350 N   0  0  0  0  0  0  0  0  0  0  0  0
   13.4596  -20.7837   22.0257 N   0  0  0  0  0  0  0  0  0  0  0  0
   12.6285  -21.2234   23.1141 C   0  0  0  0  0  0  0  0  0  0  0  0
   12.8432  -20.3858   24.3571 C   0  0  0  0  0  0  0  0  0  0  0  0
   12.0182  -19.1160   24.3231 C   0  0  0  0  0  0  0  0  0  0  0  0
   11.0541  -19.1085   25.4971 C   0  0  2  0  0  0  0  0  0  0  0  0
   10.3185  -17.8729   25.5783 N   0  0  0  0  0  0  0  0  0  0  0  0
   11.7512  -19.3223   26.7782 C   0  0  0  0  0  0  0  0  0  0  0  0
   11.6726  -20.4299   27.3519 O   0  0  0  0  0  0  0  0  0  0  0  0
   12.4956  -18.3229   27.3675 O   0  0  0  0  0  0  0  0  0  0  0  0
  2  3  1  0
  2  1  1  6
  4  8  1  0
  4  3  1  0
  5  4  2  0
  6  5  1  0
  6  7  1  0
  7  8  2  0
  9  2  1  0
 10  9  2  0
 11  9  1  0
 12 11  1  0
 12 13  1  1
 13 14  1  0
 14 15  2  0
 15 16  1  0
 17 18  2  0
 17 16  1  0
 19 18  1  0
 20 19  2  0
 21 20  1  0
 21 22  2  0
 22 14  1  0
 22 17  1  0
 23 24  2  0
 23 12  1  0
 25 26  1  0
 26 28  1  0
 26 27  2  0
 28 29  1  0
 30 29  1  0
 30 31  1  0
 32 31  1  6
 32 33  1  0
 33 23  1  0
 34 32  1  0
 35 34  2  0
 36 34  1  0
M  END
$$$$
