HWR.pdb
     RDKit          3D

 36 38  0  0  1  0  0  0  0  0999 V2000
    8.4325  -16.3665   20.3219 N   0  0  0  0  0  0  0  0  0  0  0  0
    8.5484  -17.5133   21.2058 C   0  0  1  0  0  0  0  0  0  0  0  0
    9.2766  -18.6136   20.5347 C   0  0  0  0  0  0  0  0  0  0  0  0
    8.4304  -19.0969   19.3998 C   0  0  0  0  0  0  0  0  0  0  0  0
    7.0842  -18.8465   19.2312 C   0  0  0  0  0  0  0  0  0  0  0  0
    6.6563  -19.4435   18.0900 N   0  0  0  0  0  0  0  0  0  0  0  0
    7.7207  -20.0618   17.5479 C   0  0  0  0  0  0  0  0  0  0  0  0
    8.7796  -19.8486   18.3400 N   0  0  0  0  0  0  0  0  0  0  0  0
    9.0641  -17.0701   22.4882 C   0  0  0  0  0  0  0  0  0  0  0  0
   10.1680  -16.4378   22.4922 O   0  0  0  0  0  0  0  0  0  0  0  0
    8.4570  -17.2724   23.7489 N   0  0  0  0  0  0  0  0  0  0  0  0
    9.0950  -16.9452   24.9839 C   0  0  1  0  0  0  0  0  0  0  0  0
    8.1149  -16.5090   26.0525 C   0  0  0  0  0  0  0  0  0  0  0  0
    7.2344  -15.4081   25.5750 C   0  0  0  0  0  0  0  0  0  0  0  0
    6.1810  -15.4074   24.7150 C   0  0  0  0  0  0  0  0  0  0  0  0
    5.7155  -14.1569   24.6073 N   0  0  0  0  0  0  0  0  0  0  0  0
    6.4346  -13.3066   25.3795 C   0  0  0  0  0  0  0  0  0  0  0  0
    6.3643  -11.9555   25.6166 C   0  0  0  0  0  0  0  0  0  0  0  0
    7.2350  -11.3343   26.4633 C   0  0  0  0  0  0  0  0  0  0  0  0
    8.1999  -12.0961   27.0854 C   0  0  0  0  0  0  0  0  0  0  0  0
    8.2677  -13.4417   26.8473 C   0  0  0  0  0  0  0  0  0  0  0  0
    7.3877  -14.0875   25.9877 C   0  0  0  0  0  0  0  0  0  0  0  0
    9.8820  -18.0796   25.5411 C   0  0  0  0  0  0  0  0  0  0  0  0
    9.3223  -19.1841   25.7532 O   0  0  0  0  0  0  0  0  0  0  0  0
   16.8145  -19.6824   21.6485 N   0  0  0  0  0  0  0  0  0  0  0  0
   16.3883  -19.6786   23.0132 C   0  0  0  0  0  0  0  0  0  0  0  0
   16.3591  -20.7935   23.6493 N   0  0  0  0  0  0  0  0  0  0  0  0
   16.0027  -18.4931   23.6725 N   0  0  0  0  0  0  0  0  0  0  0  0
   15.5143  -18.5063   25.0253 C   0  0  0  0  0  0  0  0  0  0  0  0
   14.0175  -18.7282   25.0787 C   0  0  0  0  0  0  0  0  0  0  0  0
   13.5058  -18.7379   26.5043 C   0  0  0  0  0  0  0  0  0  0  0  0
   12.0148  -19.0287   26.5037 C   0  0  2  0  0  0  0  0  0  0  0  0
   11.2654  -17.9836   25.8552 N   0  0  0  0  0  0  0  0  0  0  0  0
   11.4907  -19.2001   27.8708 C   0  0  0  0  0  0  0  0  0  0  0  0
   11.5156  -20.3274   28.4098 O   0  0  0  0  0  0  0  0  0  0  0  0
   10.9680  -18.1392   28.5789 O   0  0  0  0  0  0  0  0  0  0  0  0
  2  3  1  0
  2  1  1  6
  4  8  1  0
  4  3  1  0
  5  4  2  0
  6  5  1  0
  6  7  1  0
  7  8  2  0
  9  2  1  0
 10  9  2  0
 11  9  1  0
 12 11  1  0
 12 13  1  1
 13 14  1  0
 14 15  2  0
 15 16  1  0
 17 18  2  0
 17 16  1  0
 19 18  1  0
 20 19  2  0
 21 20  1  0
 21 22  2  0
 22 14  1  0
 22 17  1  0
 23 24  2  0
 23 12  1  0
 25 26  1  0
 26 28  1  0
 26 27  2  0
 28 29  1  0
 30 29  1  0
 30 31  1  0
 32 31  1  1
 32 33  1  0
 33 23  1  0
 34 32  1  0
 35 34  2  0
 36 34  1  0
M  END
$$$$
