HWR.pdb
     RDKit          3D

 36 38  0  0  1  0  0  0  0  0999 V2000
    8.1666  -16.3699   18.6244 N   0  0  0  0  0  0  0  0  0  0  0  0
    9.5513  -16.2571   19.0482 C   0  0  1  0  0  0  0  0  0  0  0  0
   10.3346  -15.4819   18.0599 C   0  0  0  0  0  0  0  0  0  0  0  0
    9.4366  -15.1751   16.9036 C   0  0  0  0  0  0  0  0  0  0  0  0
    8.2533  -14.4681   16.9641 C   0  0  0  0  0  0  0  0  0  0  0  0
    7.7144  -14.3883   15.7212 N   0  0  0  0  0  0  0  0  0  0  0  0
    8.5488  -15.0372   14.8893 C   0  0  0  0  0  0  0  0  0  0  0  0
    9.5782  -15.5054   15.6070 N   0  0  0  0  0  0  0  0  0  0  0  0
    9.5874  -15.7949   20.4237 C   0  0  0  0  0  0  0  0  0  0  0  0
   10.7289  -15.5839   20.9441 O   0  0  0  0  0  0  0  0  0  0  0  0
    8.4692  -15.5526   21.2542 N   0  0  0  0  0  0  0  0  0  0  0  0
    8.5834  -15.1193   22.6101 C   0  0  1  0  0  0  0  0  0  0  0  0
    7.5714  -14.0527   22.9720 C   0  0  0  0  0  0  0  0  0  0  0  0
    7.1702  -14.1380   24.4027 C   0  0  0  0  0  0  0  0  0  0  0  0
    6.8242  -15.2000   25.1782 C   0  0  0  0  0  0  0  0  0  0  0  0
    6.5425  -14.7585   26.4102 N   0  0  0  0  0  0  0  0  0  0  0  0
    6.6911  -13.4135   26.4860 C   0  0  0  0  0  0  0  0  0  0  0  0
    6.5292  -12.5000   27.4988 C   0  0  0  0  0  0  0  0  0  0  0  0
    6.7516  -11.1688   27.3000 C   0  0  0  0  0  0  0  0  0  0  0  0
    7.1471  -10.7505   26.0483 C   0  0  0  0  0  0  0  0  0  0  0  0
    7.3076  -11.6627   25.0413 C   0  0  0  0  0  0  0  0  0  0  0  0
    7.0846  -13.0212   25.2293 C   0  0  0  0  0  0  0  0  0  0  0  0
    8.4200  -16.2336   23.5840 C   0  0  0  0  0  0  0  0  0  0  0  0
    7.4978  -17.0719   23.4257 O   0  0  0  0  0  0  0  0  0  0  0  0
   14.6686  -17.3357   21.2713 N   0  0  0  0  0  0  0  0  0  0  0  0
   14.2442  -18.4903   21.9998 C   0  0  0  0  0  0  0  0  0  0  0  0
   15.1381  -19.3011   22.4383 N   0  0  0  0  0  0  0  0  0  0  0  0
   12.8821  -18.7592   22.2469 N   0  0  0  0  0  0  0  0  0  0  0  0
   12.4691  -19.8331   23.1099 C   0  0  0  0  0  0  0  0  0  0  0  0
   11.5892  -19.3385   24.2386 C   0  0  0  0  0  0  0  0  0  0  0  0
   10.8992  -18.0389   23.8791 C   0  0  0  0  0  0  0  0  0  0  0  0
    9.9660  -17.6338   25.0072 C   0  0  2  0  0  0  0  0  0  0  0  0
    9.2682  -16.4090   24.7115 N   0  0  0  0  0  0  0  0  0  0  0  0
   10.6891  -17.4639   26.2805 C   0  0  0  0  0  0  0  0  0  0  0  0
   10.8090  -16.3247   26.7806 O   0  0  0  0  0  0  0  0  0  0  0  0
   11.2428  -18.5389   26.9421 O   0  0  0  0  0  0  0  0  0  0  0  0
  2  3  1  0
  2  1  1  6
  4  8  1  0
  4  3  1  0
  5  4  2  0
  6  5  1  0
  6  7  1  0
  7  8  2  0
  9  2  1  0
 10  9  2  0
 11  9  1  0
 12 11  1  0
 12 13  1  1
 13 14  1  0
 14 15  2  0
 15 16  1  0
 17 18  2  0
 17 16  1  0
 19 18  1  0
 20 19  2  0
 21 20  1  0
 21 22  2  0
 22 14  1  0
 22 17  1  0
 23 24  2  0
 23 12  1  0
 25 26  1  0
 26 28  1  0
 26 27  2  0
 28 29  1  0
 30 29  1  0
 30 31  1  0
 32 31  1  6
 32 33  1  0
 33 23  1  0
 34 32  1  0
 35 34  2  0
 36 34  1  0
M  END
$$$$
