AMH.pdb
     RDKit          3D

 24 24  0  0  1  0  0  0  0  0999 V2000
   27.7497  -18.3501  -16.5444 C   0  0  0  0  0  0  0  0  0  0  0  0
   28.3405  -19.4835  -15.7553 C   0  0  2  0  0  0  0  0  0  0  0  0
   28.9058  -20.4311  -16.6929 N   0  0  0  0  0  0  0  0  0  0  0  0
   27.2761  -20.1340  -14.9155 C   0  0  0  0  0  0  0  0  0  0  0  0
   26.4060  -20.8009  -15.5221 O   0  0  0  0  0  0  0  0  0  0  0  0
   24.5181  -21.5119   -7.6305 C   0  0  0  0  0  0  0  0  0  0  0  0
   25.7809  -20.6793   -8.6272 S   0  0  0  0  0  0  0  0  0  0  0  0
   25.4959  -20.9120  -10.3964 C   0  0  0  0  0  0  0  0  0  0  0  0
   26.6199  -20.2991  -11.2259 C   0  0  0  0  0  0  0  0  0  0  0  0
   26.2194  -20.4894  -12.6746 C   0  0  2  0  0  0  0  0  0  0  0  0
   27.2638  -19.9966  -13.5170 N   0  0  0  0  0  0  0  0  0  0  0  0
   24.9401  -19.8800  -13.0320 C   0  0  0  0  0  0  0  0  0  0  0  0
   24.9036  -18.6975  -13.4301 O   0  0  0  0  0  0  0  0  0  0  0  0
   23.6801  -20.5943  -12.9472 N   0  0  0  0  0  0  0  0  0  0  0  0
   22.5860  -20.2606  -13.8169 C   0  0  1  0  0  0  0  0  0  0  0  0
   22.9691  -20.5261  -15.2439 C   0  0  0  0  0  0  0  0  0  0  0  0
   21.8666  -20.0870  -16.1333 C   0  0  0  0  0  0  0  0  0  0  0  0
   20.6741  -19.4717  -15.7497 C   0  0  0  0  0  0  0  0  0  0  0  0
   19.9544  -19.2414  -16.8588 N   0  0  0  0  0  0  0  0  0  0  0  0
   20.6559  -19.6904  -17.9110 C   0  0  0  0  0  0  0  0  0  0  0  0
   21.8217  -20.2060  -17.4694 N   0  0  0  0  0  0  0  0  0  0  0  0
   21.3787  -21.1101  -13.5175 C   0  0  0  0  0  0  0  0  0  0  0  0
   21.5113  -22.4762  -13.3423 O   0  0  0  0  0  0  0  0  0  0  0  0
   20.2280  -20.6219  -13.4174 O   0  0  0  0  0  0  0  0  0  0  0  0
  2  1  1  6
  3  2  1  0
  4  2  1  0
  5  4  2  0
  6  7  1  0
  8  7  1  0
  9  8  1  0
 10 11  1  0
 10  9  1  1
 11  4  1  0
 12 10  1  0
 13 12  2  0
 14 12  1  0
 15 16  1  6
 15 14  1  0
 16 17  1  0
 17 21  1  0
 18 17  2  0
 18 19  1  0
 19 20  1  0
 21 20  2  0
 22 23  1  0
 22 15  1  0
 24 22  2  0
M  END
$$$$
