AMH.pdb
     RDKit          3D

 24 24  0  0  1  0  0  0  0  0999 V2000
   26.8402  -23.2086  -16.2018 C   0  0  0  0  0  0  0  0  0  0  0  0
   26.8948  -21.8937  -15.4776 C   0  0  2  0  0  0  0  0  0  0  0  0
   28.2848  -21.5935  -15.2049 N   0  0  0  0  0  0  0  0  0  0  0  0
   26.1066  -21.9783  -14.1998 C   0  0  0  0  0  0  0  0  0  0  0  0
   25.1015  -22.7265  -14.2036 O   0  0  0  0  0  0  0  0  0  0  0  0
   26.6085  -20.2783   -6.6961 C   0  0  0  0  0  0  0  0  0  0  0  0
   26.8043  -19.5185   -8.3288 S   0  0  0  0  0  0  0  0  0  0  0  0
   25.7998  -20.3523   -9.5782 C   0  0  0  0  0  0  0  0  0  0  0  0
   26.6670  -20.9404  -10.6869 C   0  0  0  0  0  0  0  0  0  0  0  0
   25.7305  -21.2176  -11.8451 C   0  0  2  0  0  0  0  0  0  0  0  0
   26.4849  -21.2503  -13.0588 N   0  0  0  0  0  0  0  0  0  0  0  0
   24.6159  -20.2792  -11.9577 C   0  0  0  0  0  0  0  0  0  0  0  0
   24.8393  -19.0710  -12.1782 O   0  0  0  0  0  0  0  0  0  0  0  0
   23.2301  -20.6876  -11.8242 N   0  0  0  0  0  0  0  0  0  0  0  0
   22.2095  -20.1064  -12.6522 C   0  0  1  0  0  0  0  0  0  0  0  0
   22.4368  -20.4883  -14.0861 C   0  0  0  0  0  0  0  0  0  0  0  0
   21.4179  -19.8235  -14.9339 C   0  0  0  0  0  0  0  0  0  0  0  0
   20.3960  -18.9743  -14.5068 C   0  0  0  0  0  0  0  0  0  0  0  0
   19.6989  -18.5926  -15.5883 N   0  0  0  0  0  0  0  0  0  0  0  0
   20.2505  -19.1728  -16.6653 C   0  0  0  0  0  0  0  0  0  0  0  0
   21.2984  -19.9233  -16.2671 N   0  0  0  0  0  0  0  0  0  0  0  0
   20.8457  -20.6181  -12.2688 C   0  0  0  0  0  0  0  0  0  0  0  0
   19.7064  -19.9597  -12.6968 O   0  0  0  0  0  0  0  0  0  0  0  0
   20.6922  -21.6412  -11.5602 O   0  0  0  0  0  0  0  0  0  0  0  0
  2  1  1  1
  3  2  1  0
  4  2  1  0
  5  4  2  0
  6  7  1  0
  8  7  1  0
  9  8  1  0
 10 11  1  0
 10  9  1  1
 11  4  1  0
 12 10  1  0
 13 12  2  0
 14 12  1  0
 15 16  1  6
 15 14  1  0
 16 17  1  0
 17 21  1  0
 18 17  2  0
 18 19  1  0
 19 20  1  0
 21 20  2  0
 22 23  1  0
 22 15  1  0
 24 22  2  0
M  END
$$$$
