AMH.pdb
     RDKit          3D

 24 24  0  0  1  0  0  0  0  0999 V2000
   21.8853  -14.5234  -17.5975 C   0  0  0  0  0  0  0  0  0  0  0  0
   21.8657  -13.1781  -18.2657 C   0  0  2  0  0  0  0  0  0  0  0  0
   22.8210  -13.2079  -19.3534 N   0  0  0  0  0  0  0  0  0  0  0  0
   22.2211  -12.1064  -17.2725 C   0  0  0  0  0  0  0  0  0  0  0  0
   21.4867  -12.0053  -16.2624 O   0  0  0  0  0  0  0  0  0  0  0  0
   28.0658  -12.6504  -14.6659 C   0  0  0  0  0  0  0  0  0  0  0  0
   27.4702  -11.2519  -15.6513 S   0  0  0  0  0  0  0  0  0  0  0  0
   25.6696  -11.2606  -15.8031 C   0  0  0  0  0  0  0  0  0  0  0  0
   25.1692  -10.0313  -16.5550 C   0  0  0  0  0  0  0  0  0  0  0  0
   23.6616  -10.1670  -16.6180 C   0  0  2  0  0  0  0  0  0  0  0  0
   23.3260  -11.2617  -17.4738 N   0  0  0  0  0  0  0  0  0  0  0  0
   22.9635   -8.9537  -17.0377 C   0  0  0  0  0  0  0  0  0  0  0  0
   22.7625   -8.7394  -18.2510 O   0  0  0  0  0  0  0  0  0  0  0  0
   22.4796   -7.9616  -16.0962 N   0  0  0  0  0  0  0  0  0  0  0  0
   21.6272   -6.8896  -16.5312 C   0  0  1  0  0  0  0  0  0  0  0  0
   20.3520   -7.4476  -17.0935 C   0  0  0  0  0  0  0  0  0  0  0  0
   19.5307   -6.3366  -17.6322 C   0  0  0  0  0  0  0  0  0  0  0  0
   19.9067   -4.9980  -17.7536 C   0  0  0  0  0  0  0  0  0  0  0  0
   18.8735   -4.3267  -18.2853 N   0  0  0  0  0  0  0  0  0  0  0  0
   17.8752   -5.1983  -18.4966 C   0  0  0  0  0  0  0  0  0  0  0  0
   18.2752   -6.4237  -18.0986 N   0  0  0  0  0  0  0  0  0  0  0  0
   21.2491   -5.9973  -15.3781 C   0  0  0  0  0  0  0  0  0  0  0  0
   20.6168   -4.7882  -15.6079 O   0  0  0  0  0  0  0  0  0  0  0  0
   21.4881   -6.3092  -14.1872 O   0  0  0  0  0  0  0  0  0  0  0  0
  2  1  1  1
  3  2  1  0
  4  2  1  0
  5  4  2  0
  6  7  1  0
  8  7  1  0
  9  8  1  0
 10 11  1  0
 10  9  1  6
 11  4  1  0
 12 10  1  0
 13 12  2  0
 14 12  1  0
 15 16  1  1
 15 14  1  0
 16 17  1  0
 17 21  1  0
 18 17  2  0
 18 19  1  0
 19 20  1  0
 21 20  2  0
 22 23  1  0
 22 15  1  0
 24 22  2  0
M  END
$$$$
