AMH.pdb
     RDKit          3D

 24 24  0  0  1  0  0  0  0  0999 V2000
   19.5344  -13.7826  -18.0009 C   0  0  0  0  0  0  0  0  0  0  0  0
   21.0203  -13.9978  -18.0502 C   0  0  2  0  0  0  0  0  0  0  0  0
   21.2803  -15.3833  -17.7195 N   0  0  0  0  0  0  0  0  0  0  0  0
   21.7046  -13.0791  -17.0760 C   0  0  0  0  0  0  0  0  0  0  0  0
   21.1850  -12.9694  -15.9412 O   0  0  0  0  0  0  0  0  0  0  0  0
   27.9238  -12.7636  -14.9495 C   0  0  0  0  0  0  0  0  0  0  0  0
   27.5153  -11.1222  -15.5978 S   0  0  0  0  0  0  0  0  0  0  0  0
   25.7298  -10.8485  -15.6458 C   0  0  0  0  0  0  0  0  0  0  0  0
   25.0619  -11.7209  -16.7041 C   0  0  0  0  0  0  0  0  0  0  0  0
   23.5716  -11.4981  -16.5472 C   0  0  2  0  0  0  0  0  0  0  0  0
   22.8717  -12.3798  -17.4281 N   0  0  0  0  0  0  0  0  0  0  0  0
   23.1428  -10.1166  -16.7552 C   0  0  0  0  0  0  0  0  0  0  0  0
   23.1733   -9.6212  -17.9005 O   0  0  0  0  0  0  0  0  0  0  0  0
   22.6716   -9.2704  -15.6749 N   0  0  0  0  0  0  0  0  0  0  0  0
   22.1607   -7.9541  -15.9417 C   0  0  1  0  0  0  0  0  0  0  0  0
   20.9597   -8.0447  -16.8378 C   0  0  0  0  0  0  0  0  0  0  0  0
   19.8701   -8.7505  -16.1209 C   0  0  0  0  0  0  0  0  0  0  0  0
   19.6049  -10.1206  -16.1381 C   0  0  0  0  0  0  0  0  0  0  0  0
   18.5343  -10.3425  -15.3598 N   0  0  0  0  0  0  0  0  0  0  0  0
   18.1289   -9.1635  -14.8635 C   0  0  0  0  0  0  0  0  0  0  0  0
   18.9428   -8.1925  -15.3271 N   0  0  0  0  0  0  0  0  0  0  0  0
   21.7147   -7.2793  -14.6710 C   0  0  0  0  0  0  0  0  0  0  0  0
   21.7910   -7.9466  -13.4612 O   0  0  0  0  0  0  0  0  0  0  0  0
   21.2653   -6.1087  -14.6598 O   0  0  0  0  0  0  0  0  0  0  0  0
  2  1  1  1
  3  2  1  0
  4  2  1  0
  5  4  2  0
  6  7  1  0
  8  7  1  0
  9  8  1  0
 10 11  1  0
 10  9  1  6
 11  4  1  0
 12 10  1  0
 13 12  2  0
 14 12  1  0
 15 16  1  6
 15 14  1  0
 16 17  1  0
 17 21  1  0
 18 17  2  0
 18 19  1  0
 19 20  1  0
 21 20  2  0
 22 23  1  0
 22 15  1  0
 24 22  2  0
M  END
$$$$
