AMH.pdb
     RDKit          3D

 24 24  0  0  1  0  0  0  0  0999 V2000
   21.0600  -19.2565  -10.2443 C   0  0  0  0  0  0  0  0  0  0  0  0
   21.7686  -20.4963  -10.7104 C   0  0  2  0  0  0  0  0  0  0  0  0
   21.6716  -21.4862   -9.6581 N   0  0  0  0  0  0  0  0  0  0  0  0
   23.2069  -20.1814  -11.0159 C   0  0  0  0  0  0  0  0  0  0  0  0
   23.4229  -19.3644  -11.9409 O   0  0  0  0  0  0  0  0  0  0  0  0
   27.6727  -19.0511   -6.5250 C   0  0  0  0  0  0  0  0  0  0  0  0
   26.1866  -20.0868   -6.5246 S   0  0  0  0  0  0  0  0  0  0  0  0
   25.4083  -20.1386   -8.1546 C   0  0  0  0  0  0  0  0  0  0  0  0
   26.3949  -20.5882   -9.2277 C   0  0  0  0  0  0  0  0  0  0  0  0
   25.6398  -20.5263  -10.5397 C   0  0  2  0  0  0  0  0  0  0  0  0
   24.2544  -20.7786  -10.2941 N   0  0  0  0  0  0  0  0  0  0  0  0
   26.1506  -21.4247  -11.5729 C   0  0  0  0  0  0  0  0  0  0  0  0
   26.1564  -22.6577  -11.3783 O   0  0  0  0  0  0  0  0  0  0  0  0
   26.6631  -20.9477  -12.8437 N   0  0  0  0  0  0  0  0  0  0  0  0
   25.9282  -21.1622  -14.0598 C   0  0  1  0  0  0  0  0  0  0  0  0
   24.5493  -20.5828  -13.9317 C   0  0  0  0  0  0  0  0  0  0  0  0
   23.7754  -20.8932  -15.1580 C   0  0  0  0  0  0  0  0  0  0  0  0
   23.8701  -22.0450  -15.9404 C   0  0  0  0  0  0  0  0  0  0  0  0
   22.9997  -21.9263  -16.9550 N   0  0  0  0  0  0  0  0  0  0  0  0
   22.3721  -20.7468  -16.8292 C   0  0  0  0  0  0  0  0  0  0  0  0
   22.8445  -20.1165  -15.7339 N   0  0  0  0  0  0  0  0  0  0  0  0
   26.5922  -20.4714  -15.2219 C   0  0  0  0  0  0  0  0  0  0  0  0
   26.8281  -21.1568  -16.4005 O   0  0  0  0  0  0  0  0  0  0  0  0
   26.9506  -19.2709  -15.1680 O   0  0  0  0  0  0  0  0  0  0  0  0
  2  1  1  1
  3  2  1  0
  4  2  1  0
  5  4  2  0
  6  7  1  0
  8  7  1  0
  9  8  1  0
 10 11  1  0
 10  9  1  1
 11  4  1  0
 12 10  1  0
 13 12  2  0
 14 12  1  0
 15 16  1  1
 15 14  1  0
 16 17  1  0
 17 21  1  0
 18 17  2  0
 18 19  1  0
 19 20  1  0
 21 20  2  0
 22 23  1  0
 22 15  1  0
 24 22  2  0
M  END
$$$$
