AMH.pdb
     RDKit          3D

 24 24  0  0  1  0  0  0  0  0999 V2000
   13.9733  -11.7276    5.3964 C   0  0  0  0  0  0  0  0  0  0  0  0
   15.1550  -11.3349    4.5563 C   0  0  2  0  0  0  0  0  0  0  0  0
   14.8193  -11.5878    3.1707 N   0  0  0  0  0  0  0  0  0  0  0  0
   16.3635  -12.1303    4.9664 C   0  0  0  0  0  0  0  0  0  0  0  0
   16.6944  -13.0813    4.2208 O   0  0  0  0  0  0  0  0  0  0  0  0
   22.9081  -12.3963    9.3318 C   0  0  0  0  0  0  0  0  0  0  0  0
   21.4717  -11.4256    8.8068 S   0  0  0  0  0  0  0  0  0  0  0  0
   20.3320  -12.4074    7.8057 C   0  0  0  0  0  0  0  0  0  0  0  0
   19.1382  -11.5762    7.3461 C   0  0  0  0  0  0  0  0  0  0  0  0
   18.2479  -12.5221    6.5665 C   0  0  2  0  0  0  0  0  0  0  0  0
   17.0831  -11.8165    6.1320 N   0  0  0  0  0  0  0  0  0  0  0  0
   17.8737  -13.7343    7.2919 C   0  0  0  0  0  0  0  0  0  0  0  0
   16.9640  -13.6929    8.1457 O   0  0  0  0  0  0  0  0  0  0  0  0
   18.5187  -15.0141    7.0662 N   0  0  0  0  0  0  0  0  0  0  0  0
   18.0816  -16.1910    7.7654 C   0  0  1  0  0  0  0  0  0  0  0  0
   18.2376  -17.3960    6.8838 C   0  0  0  0  0  0  0  0  0  0  0  0
   16.8982  -17.8456    6.4332 C   0  0  0  0  0  0  0  0  0  0  0  0
   15.6743  -17.2282    6.6950 C   0  0  0  0  0  0  0  0  0  0  0  0
   14.7120  -17.9562    6.1075 N   0  0  0  0  0  0  0  0  0  0  0  0
   15.2941  -18.9981    5.4939 C   0  0  0  0  0  0  0  0  0  0  0  0
   16.6269  -18.9313    5.6921 N   0  0  0  0  0  0  0  0  0  0  0  0
   18.9177  -16.4312    8.9951 C   0  0  0  0  0  0  0  0  0  0  0  0
   18.3175  -16.7883   10.1896 O   0  0  0  0  0  0  0  0  0  0  0  0
   20.1666  -16.3190    8.9848 O   0  0  0  0  0  0  0  0  0  0  0  0
  2  1  1  1
  3  2  1  0
  4  2  1  0
  5  4  2  0
  6  7  1  0
  8  7  1  0
  9  8  1  0
 10 11  1  0
 10  9  1  1
 11  4  1  0
 12 10  1  0
 13 12  2  0
 14 12  1  0
 15 16  1  6
 15 14  1  0
 16 17  1  0
 17 21  1  0
 18 17  2  0
 18 19  1  0
 19 20  1  0
 21 20  2  0
 22 23  1  0
 22 15  1  0
 24 22  2  0
M  END
$$$$
