AMH.pdb
     RDKit          3D

 24 24  0  0  1  0  0  0  0  0999 V2000
   35.7315  -27.3254  -18.3387 C   0  0  0  0  0  0  0  0  0  0  0  0
   35.5014  -27.6816  -16.8976 C   0  0  2  0  0  0  0  0  0  0  0  0
   35.3593  -29.1200  -16.8123 N   0  0  0  0  0  0  0  0  0  0  0  0
   34.2653  -26.9922  -16.3894 C   0  0  0  0  0  0  0  0  0  0  0  0
   33.1676  -27.5418  -16.6399 O   0  0  0  0  0  0  0  0  0  0  0  0
   34.0476  -23.1232  -10.9963 C   0  0  0  0  0  0  0  0  0  0  0  0
   32.7461  -22.4624  -12.0691 S   0  0  0  0  0  0  0  0  0  0  0  0
   32.3798  -23.5802  -13.4408 C   0  0  0  0  0  0  0  0  0  0  0  0
   33.6508  -24.2184  -13.9925 C   0  0  0  0  0  0  0  0  0  0  0  0
   33.2099  -25.0912  -15.1497 C   0  0  2  0  0  0  0  0  0  0  0  0
   34.3448  -25.7886  -15.6683 N   0  0  0  0  0  0  0  0  0  0  0  0
   32.5161  -24.3732  -16.2168 C   0  0  0  0  0  0  0  0  0  0  0  0
   33.0429  -24.2727  -17.3440 O   0  0  0  0  0  0  0  0  0  0  0  0
   31.2158  -23.7569  -16.0310 N   0  0  0  0  0  0  0  0  0  0  0  0
   30.3359  -23.5463  -17.1475 C   0  0  1  0  0  0  0  0  0  0  0  0
   30.0100  -24.8607  -17.7953 C   0  0  0  0  0  0  0  0  0  0  0  0
   29.1034  -24.6248  -18.9449 C   0  0  0  0  0  0  0  0  0  0  0  0
   28.9490  -23.4371  -19.6613 C   0  0  0  0  0  0  0  0  0  0  0  0
   28.0318  -23.6495  -20.6178 N   0  0  0  0  0  0  0  0  0  0  0  0
   27.6146  -24.9211  -20.5195 C   0  0  0  0  0  0  0  0  0  0  0  0
   28.2674  -25.5163  -19.4999 N   0  0  0  0  0  0  0  0  0  0  0  0
   29.0324  -22.9376  -16.7013 C   0  0  0  0  0  0  0  0  0  0  0  0
   28.7825  -22.7286  -15.3565 O   0  0  0  0  0  0  0  0  0  0  0  0
   28.1394  -22.6029  -17.5155 O   0  0  0  0  0  0  0  0  0  0  0  0
  2  1  1  6
  3  2  1  0
  4  2  1  0
  5  4  2  0
  6  7  1  0
  8  7  1  0
  9  8  1  0
 10 11  1  0
 10  9  1  1
 11  4  1  0
 12 10  1  0
 13 12  2  0
 14 12  1  0
 15 16  1  1
 15 14  1  0
 16 17  1  0
 17 21  1  0
 18 17  2  0
 18 19  1  0
 19 20  1  0
 21 20  2  0
 22 23  1  0
 22 15  1  0
 24 22  2  0
M  END
$$$$
