AMH.pdb
     RDKit          3D

 24 24  0  0  1  0  0  0  0  0999 V2000
   26.2795   -9.9255  -19.6611 C   0  0  0  0  0  0  0  0  0  0  0  0
   26.8024   -9.8100  -18.2576 C   0  0  2  0  0  0  0  0  0  0  0  0
   25.8189   -9.0918  -17.4743 N   0  0  0  0  0  0  0  0  0  0  0  0
   28.1186   -9.0828  -18.2584 C   0  0  0  0  0  0  0  0  0  0  0  0
   28.0731   -7.8308  -18.2763 O   0  0  0  0  0  0  0  0  0  0  0  0
   35.6943   -9.3050  -16.2798 C   0  0  0  0  0  0  0  0  0  0  0  0
   34.1955  -10.2753  -16.5855 S   0  0  0  0  0  0  0  0  0  0  0  0
   32.8744   -9.2607  -17.2859 C   0  0  0  0  0  0  0  0  0  0  0  0
   31.5863  -10.0612  -17.4501 C   0  0  0  0  0  0  0  0  0  0  0  0
   30.6193   -9.1492  -18.1772 C   0  0  2  0  0  0  0  0  0  0  0  0
   29.3383   -9.7805  -18.2397 N   0  0  0  0  0  0  0  0  0  0  0  0
   31.0585   -8.7445  -19.5110 C   0  0  0  0  0  0  0  0  0  0  0  0
   30.7080   -9.4069  -20.5093 O   0  0  0  0  0  0  0  0  0  0  0  0
   31.8999   -7.5853  -19.7417 N   0  0  0  0  0  0  0  0  0  0  0  0
   32.2882   -7.2123  -21.0740 C   0  0  1  0  0  0  0  0  0  0  0  0
   31.0895   -6.7309  -21.8389 C   0  0  0  0  0  0  0  0  0  0  0  0
   30.6963   -7.7640  -22.8274 C   0  0  0  0  0  0  0  0  0  0  0  0
   31.3279   -8.9868  -23.0589 C   0  0  0  0  0  0  0  0  0  0  0  0
   30.6564   -9.6189  -24.0340 N   0  0  0  0  0  0  0  0  0  0  0  0
   29.6358   -8.8343  -24.4129 C   0  0  0  0  0  0  0  0  0  0  0  0
   29.6596   -7.7033  -23.6777 N   0  0  0  0  0  0  0  0  0  0  0  0
   33.2820   -6.0807  -21.0508 C   0  0  0  0  0  0  0  0  0  0  0  0
   33.6186   -5.4703  -19.8555 O   0  0  0  0  0  0  0  0  0  0  0  0
   33.8329   -5.6554  -22.0940 O   0  0  0  0  0  0  0  0  0  0  0  0
  2  1  1  6
  3  2  1  0
  4  2  1  0
  5  4  2  0
  6  7  1  0
  8  7  1  0
  9  8  1  0
 10 11  1  0
 10  9  1  6
 11  4  1  0
 12 10  1  0
 13 12  2  0
 14 12  1  0
 15 16  1  6
 15 14  1  0
 16 17  1  0
 17 21  1  0
 18 17  2  0
 18 19  1  0
 19 20  1  0
 21 20  2  0
 22 23  1  0
 22 15  1  0
 24 22  2  0
M  END
$$$$
