AMH.pdb
     RDKit          3D

 24 24  0  0  1  0  0  0  0  0999 V2000
   27.4232  -20.7891  -16.9109 C   0  0  0  0  0  0  0  0  0  0  0  0
   27.9346  -20.9130  -15.5039 C   0  0  2  0  0  0  0  0  0  0  0  0
   28.9589  -21.9363  -15.4914 N   0  0  0  0  0  0  0  0  0  0  0  0
   26.8067  -21.2758  -14.5778 C   0  0  0  0  0  0  0  0  0  0  0  0
   25.9391  -22.0620  -15.0239 O   0  0  0  0  0  0  0  0  0  0  0  0
   27.1157  -20.3446   -7.9990 C   0  0  0  0  0  0  0  0  0  0  0  0
   25.3381  -20.4789   -8.3202 S   0  0  0  0  0  0  0  0  0  0  0  0
   25.0041  -21.0167  -10.0128 C   0  0  0  0  0  0  0  0  0  0  0  0
   26.1286  -20.6066  -10.9584 C   0  0  0  0  0  0  0  0  0  0  0  0
   25.7168  -21.0960  -12.3318 C   0  0  2  0  0  0  0  0  0  0  0  0
   26.7352  -20.7541  -13.2749 N   0  0  0  0  0  0  0  0  0  0  0  0
   24.4150  -20.6070  -12.7813 C   0  0  0  0  0  0  0  0  0  0  0  0
   24.2468  -19.3881  -12.9919 O   0  0  0  0  0  0  0  0  0  0  0  0
   23.2808  -21.4845  -13.0016 N   0  0  0  0  0  0  0  0  0  0  0  0
   22.0230  -20.9597  -13.4569 C   0  0  1  0  0  0  0  0  0  0  0  0
   21.5425  -21.7436  -14.6436 C   0  0  0  0  0  0  0  0  0  0  0  0
   20.3083  -21.1155  -15.1741 C   0  0  0  0  0  0  0  0  0  0  0  0
   19.9398  -19.7733  -15.0721 C   0  0  0  0  0  0  0  0  0  0  0  0
   18.7540  -19.6243  -15.6828 N   0  0  0  0  0  0  0  0  0  0  0  0
   18.3768  -20.8216  -16.1573 C   0  0  0  0  0  0  0  0  0  0  0  0
   19.3239  -21.7311  -15.8475 N   0  0  0  0  0  0  0  0  0  0  0  0
   20.9676  -21.0820  -12.3892 C   0  0  0  0  0  0  0  0  0  0  0  0
   21.1660  -21.9152  -11.3024 O   0  0  0  0  0  0  0  0  0  0  0  0
   19.8884  -20.4456  -12.4422 O   0  0  0  0  0  0  0  0  0  0  0  0
  2  1  1  6
  3  2  1  0
  4  2  1  0
  5  4  2  0
  6  7  1  0
  8  7  1  0
  9  8  1  0
 10 11  1  0
 10  9  1  1
 11  4  1  0
 12 10  1  0
 13 12  2  0
 14 12  1  0
 15 16  1  6
 15 14  1  0
 16 17  1  0
 17 21  1  0
 18 17  2  0
 18 19  1  0
 19 20  1  0
 21 20  2  0
 22 23  1  0
 22 15  1  0
 24 22  2  0
M  END
$$$$
