AMH.pdb
     RDKit          3D

 24 24  0  0  1  0  0  0  0  0999 V2000
   23.7608  -11.8070  -21.7177 C   0  0  0  0  0  0  0  0  0  0  0  0
   24.7895  -12.2629  -20.7225 C   0  0  2  0  0  0  0  0  0  0  0  0
   24.3714  -13.5505  -20.2090 N   0  0  0  0  0  0  0  0  0  0  0  0
   24.9084  -11.2579  -19.6102 C   0  0  0  0  0  0  0  0  0  0  0  0
   23.8755  -11.0340  -18.9373 O   0  0  0  0  0  0  0  0  0  0  0  0
   27.7364  -13.6506  -14.9254 C   0  0  0  0  0  0  0  0  0  0  0  0
   28.2724  -12.0994  -15.6920 S   0  0  0  0  0  0  0  0  0  0  0  0
   26.9716  -11.3768  -16.7172 C   0  0  0  0  0  0  0  0  0  0  0  0
   27.4513  -10.1045  -17.4088 C   0  0  0  0  0  0  0  0  0  0  0  0
   26.3057   -9.6535  -18.2918 C   0  0  2  0  0  0  0  0  0  0  0  0
   26.1236  -10.6045  -19.3434 N   0  0  0  0  0  0  0  0  0  0  0  0
   26.4587   -8.3065  -18.8376 C   0  0  0  0  0  0  0  0  0  0  0  0
   27.1075   -8.1312  -19.8895 O   0  0  0  0  0  0  0  0  0  0  0  0
   25.8817   -7.1343  -18.2067 N   0  0  0  0  0  0  0  0  0  0  0  0
   26.0745   -5.8265  -18.7700 C   0  0  1  0  0  0  0  0  0  0  0  0
   25.0680   -4.8709  -18.1978 C   0  0  0  0  0  0  0  0  0  0  0  0
   25.1960   -3.5619  -18.8827 C   0  0  0  0  0  0  0  0  0  0  0  0
   26.0515   -3.2486  -19.9399 C   0  0  0  0  0  0  0  0  0  0  0  0
   25.8538   -1.9607  -20.2617 N   0  0  0  0  0  0  0  0  0  0  0  0
   24.9104   -1.4675  -19.4447 C   0  0  0  0  0  0  0  0  0  0  0  0
   24.5089   -2.4431  -18.6037 N   0  0  0  0  0  0  0  0  0  0  0  0
   27.4394   -5.2873  -18.4306 C   0  0  0  0  0  0  0  0  0  0  0  0
   28.2901   -6.0054  -17.6088 O   0  0  0  0  0  0  0  0  0  0  0  0
   27.8504   -4.1875  -18.8708 O   0  0  0  0  0  0  0  0  0  0  0  0
  2  1  1  6
  3  2  1  0
  4  2  1  0
  5  4  2  0
  6  7  1  0
  8  7  1  0
  9  8  1  0
 10 11  1  0
 10  9  1  6
 11  4  1  0
 12 10  1  0
 13 12  2  0
 14 12  1  0
 15 16  1  1
 15 14  1  0
 16 17  1  0
 17 21  1  0
 18 17  2  0
 18 19  1  0
 19 20  1  0
 21 20  2  0
 22 23  1  0
 22 15  1  0
 24 22  2  0
M  END
$$$$
