KTA.pdb
     RDKit          3D

 22 21  0  0  1  0  0  0  0  0999 V2000
    9.7281  -18.0863   16.2698 N   0  0  0  0  0  0  0  0  0  0  0  0
    8.6282  -17.7074   17.1231 C   0  0  1  0  0  0  0  0  0  0  0  0
    7.9784  -18.8559   17.7964 C   0  0  0  0  0  0  0  0  0  0  0  0
    7.5898  -20.0032   16.9552 C   0  0  0  0  0  0  0  0  0  0  0  0
    6.9591  -21.1429   17.6976 C   0  0  0  0  0  0  0  0  0  0  0  0
    6.5221  -22.2425   16.7140 C   0  0  0  0  0  0  0  0  0  0  0  0
    6.1081  -23.3700   17.5288 N   0  0  0  0  0  0  0  0  0  0  0  0
    9.1744  -16.7190   18.1229 C   0  0  0  0  0  0  0  0  0  0  0  0
   10.4016  -16.6509   18.3553 O   0  0  0  0  0  0  0  0  0  0  0  0
    8.2258  -12.6442   20.8319 C   0  0  0  0  0  0  0  0  0  0  0  0
    7.9486  -13.6938   19.8237 C   0  0  1  0  0  0  0  0  0  0  0  0
    8.0206  -13.0639   18.5547 O   0  0  0  0  0  0  0  0  0  0  0  0
    8.8486  -14.9042   19.8535 C   0  0  2  0  0  0  0  0  0  0  0  0
    8.3295  -15.8377   18.8313 N   0  0  0  0  0  0  0  0  0  0  0  0
    8.9706  -15.5678   21.1481 C   0  0  0  0  0  0  0  0  0  0  0  0
    7.9597  -16.2231   21.5881 O   0  0  0  0  0  0  0  0  0  0  0  0
   11.5044  -16.5482   23.7547 C   0  0  0  0  0  0  0  0  0  0  0  0
   10.1045  -16.2665   23.2561 C   0  0  2  0  0  0  0  0  0  0  0  0
   10.1084  -15.5690   21.9906 N   0  0  0  0  0  0  0  0  0  0  0  0
    9.4193  -15.4790   24.3096 C   0  0  0  0  0  0  0  0  0  0  0  0
    9.1179  -14.2807   24.0839 O   0  0  0  0  0  0  0  0  0  0  0  0
    9.0871  -16.0001   25.5508 O   0  0  0  0  0  0  0  0  0  0  0  0
  2  1  1  1
  2  8  1  0
  3  2  1  0
  4  3  1  0
  5  6  1  0
  5  4  1  0
  6  7  1  0
  8 14  1  0
  8  9  2  0
 11 10  1  1
 12 11  1  0
 13 11  1  0
 13 15  1  0
 13 14  1  6
 15 16  2  0
 18 17  1  1
 19 18  1  0
 19 15  1  0
 20 18  1  0
 20 22  1  0
 21 20  2  0
M  END
$$$$
