KTA.pdb
     RDKit          3D

 22 21  0  0  1  0  0  0  0  0999 V2000
    7.9875  -17.8076   17.1632 N   0  0  0  0  0  0  0  0  0  0  0  0
    7.4073  -17.7523   18.4828 C   0  0  1  0  0  0  0  0  0  0  0  0
    7.3303  -19.0721   19.1514 C   0  0  0  0  0  0  0  0  0  0  0  0
    7.3331  -20.2692   18.2902 C   0  0  0  0  0  0  0  0  0  0  0  0
    7.1502  -21.5678   19.0168 C   0  0  0  0  0  0  0  0  0  0  0  0
    7.2892  -22.7487   18.0404 C   0  0  0  0  0  0  0  0  0  0  0  0
    7.1643  -23.9515   18.8430 N   0  0  0  0  0  0  0  0  0  0  0  0
    8.2357  -16.7771   19.2813 C   0  0  0  0  0  0  0  0  0  0  0  0
    9.4447  -16.5939   19.0179 O   0  0  0  0  0  0  0  0  0  0  0  0
    7.4588  -13.1936   19.6256 C   0  0  0  0  0  0  0  0  0  0  0  0
    7.6786  -13.7314   20.9885 C   0  0  1  0  0  0  0  0  0  0  0  0
    6.3950  -13.9011   21.5677 O   0  0  0  0  0  0  0  0  0  0  0  0
    8.4636  -15.0163   21.0819 C   0  0  2  0  0  0  0  0  0  0  0  0
    7.6846  -16.0375   20.3498 N   0  0  0  0  0  0  0  0  0  0  0  0
    8.7722  -15.4701   22.4347 C   0  0  0  0  0  0  0  0  0  0  0  0
    8.1238  -16.4757   22.8966 O   0  0  0  0  0  0  0  0  0  0  0  0
    8.5635  -15.5945   25.3597 C   0  0  0  0  0  0  0  0  0  0  0  0
    9.8917  -15.4041   24.6617 C   0  0  2  0  0  0  0  0  0  0  0  0
    9.7312  -14.9107   23.3131 N   0  0  0  0  0  0  0  0  0  0  0  0
   10.5844  -16.7153   24.6828 C   0  0  0  0  0  0  0  0  0  0  0  0
   10.8891  -17.2325   25.7861 O   0  0  0  0  0  0  0  0  0  0  0  0
   10.9202  -17.4143   23.5334 O   0  0  0  0  0  0  0  0  0  0  0  0
  2  1  1  6
  2  8  1  0
  3  2  1  0
  4  3  1  0
  5  6  1  0
  5  4  1  0
  6  7  1  0
  8 14  1  0
  8  9  2  0
 11 10  1  6
 12 11  1  0
 13 11  1  0
 13 15  1  0
 13 14  1  1
 15 16  2  0
 18 17  1  6
 19 18  1  0
 19 15  1  0
 20 18  1  0
 20 22  1  0
 21 20  2  0
M  END
$$$$
