KTA.pdb
     RDKit          3D

 22 21  0  0  1  0  0  0  0  0999 V2000
   11.1042  -16.6658   20.4381 N   0  0  0  0  0  0  0  0  0  0  0  0
   11.3546  -17.3238   21.6973 C   0  0  1  0  0  0  0  0  0  0  0  0
   12.7806  -17.3105   22.0989 C   0  0  0  0  0  0  0  0  0  0  0  0
   13.6758  -18.2882   21.4527 C   0  0  0  0  0  0  0  0  0  0  0  0
   13.5277  -18.3894   19.9642 C   0  0  0  0  0  0  0  0  0  0  0  0
   14.6335  -19.2847   19.3785 C   0  0  0  0  0  0  0  0  0  0  0  0
   14.4783  -19.2249   17.9367 N   0  0  0  0  0  0  0  0  0  0  0  0
   10.4861  -16.6416   22.7244 C   0  0  0  0  0  0  0  0  0  0  0  0
   10.1757  -15.4358   22.6052 O   0  0  0  0  0  0  0  0  0  0  0  0
    7.0516  -17.3651   26.2094 C   0  0  0  0  0  0  0  0  0  0  0  0
    8.0232  -17.7312   25.1525 C   0  0  1  0  0  0  0  0  0  0  0  0
    7.2633  -18.0472   23.9972 O   0  0  0  0  0  0  0  0  0  0  0  0
    9.0692  -16.6967   24.8182 C   0  0  2  0  0  0  0  0  0  0  0  0
    9.9922  -17.3308   23.8529 N   0  0  0  0  0  0  0  0  0  0  0  0
    9.8030  -16.1510   25.9562 C   0  0  0  0  0  0  0  0  0  0  0  0
   10.8096  -16.8115   26.3983 O   0  0  0  0  0  0  0  0  0  0  0  0
   10.0067  -13.1329   28.2226 C   0  0  0  0  0  0  0  0  0  0  0  0
   10.2328  -14.5797   27.8440 C   0  0  2  0  0  0  0  0  0  0  0  0
    9.5205  -14.9444   26.6409 N   0  0  0  0  0  0  0  0  0  0  0  0
    9.8042  -15.4026   29.0010 C   0  0  0  0  0  0  0  0  0  0  0  0
    8.7175  -16.0298   28.9410 O   0  0  0  0  0  0  0  0  0  0  0  0
   10.5482  -15.5206   30.1650 O   0  0  0  0  0  0  0  0  0  0  0  0
  2  1  1  6
  2  8  1  0
  3  2  1  0
  4  3  1  0
  5  6  1  0
  5  4  1  0
  6  7  1  0
  8 14  1  0
  8  9  2  0
 11 10  1  1
 12 11  1  0
 13 11  1  0
 13 15  1  0
 13 14  1  6
 15 16  2  0
 18 17  1  1
 19 18  1  0
 19 15  1  0
 20 18  1  0
 20 22  1  0
 21 20  2  0
M  END
$$$$
