KTA.pdb
     RDKit          3D

 22 21  0  0  1  0  0  0  0  0999 V2000
    4.6833  -19.3080   19.9518 N   0  0  0  0  0  0  0  0  0  0  0  0
    4.4326  -18.0408   20.5940 C   0  0  1  0  0  0  0  0  0  0  0  0
    3.6213  -18.1530   21.8285 C   0  0  0  0  0  0  0  0  0  0  0  0
    2.8026  -19.3686   21.9931 C   0  0  0  0  0  0  0  0  0  0  0  0
    1.4260  -19.1312   22.5375 C   0  0  0  0  0  0  0  0  0  0  0  0
    0.6611  -20.4616   22.6501 C   0  0  0  0  0  0  0  0  0  0  0  0
   -0.6058  -20.1450   23.2835 N   0  0  0  0  0  0  0  0  0  0  0  0
    5.7791  -17.4214   20.8735 C   0  0  0  0  0  0  0  0  0  0  0  0
    6.7781  -18.1351   21.1126 O   0  0  0  0  0  0  0  0  0  0  0  0
    8.4051  -13.1545   20.7331 C   0  0  0  0  0  0  0  0  0  0  0  0
    7.2278  -14.0241   20.5033 C   0  0  1  0  0  0  0  0  0  0  0  0
    7.0574  -14.1101   19.0977 O   0  0  0  0  0  0  0  0  0  0  0  0
    7.2900  -15.4067   21.1037 C   0  0  2  0  0  0  0  0  0  0  0  0
    5.9651  -16.0221   20.8767 N   0  0  0  0  0  0  0  0  0  0  0  0
    7.6543  -15.4652   22.5162 C   0  0  0  0  0  0  0  0  0  0  0  0
    6.8512  -14.9427   23.3688 O   0  0  0  0  0  0  0  0  0  0  0  0
    8.7060  -17.1875   25.2322 C   0  0  0  0  0  0  0  0  0  0  0  0
    9.1243  -15.9492   24.4712 C   0  0  2  0  0  0  0  0  0  0  0  0
    8.8226  -16.0498   23.0616 N   0  0  0  0  0  0  0  0  0  0  0  0
   10.5773  -15.7667   24.7052 C   0  0  0  0  0  0  0  0  0  0  0  0
   10.9953  -15.5983   25.8777 O   0  0  0  0  0  0  0  0  0  0  0  0
   11.5164  -15.7715   23.6851 O   0  0  0  0  0  0  0  0  0  0  0  0
  2  1  1  1
  2  8  1  0
  3  2  1  0
  4  3  1  0
  5  6  1  0
  5  4  1  0
  6  7  1  0
  8 14  1  0
  8  9  2  0
 11 10  1  6
 12 11  1  0
 13 11  1  0
 13 15  1  0
 13 14  1  1
 15 16  2  0
 18 17  1  1
 19 18  1  0
 19 15  1  0
 20 18  1  0
 20 22  1  0
 21 20  2  0
M  END
$$$$
