KTA.pdb
     RDKit          3D

 22 21  0  0  1  0  0  0  0  0999 V2000
    7.7667  -16.1227   20.4522 N   0  0  0  0  0  0  0  0  0  0  0  0
    8.1854  -14.9227   21.1348 C   0  0  1  0  0  0  0  0  0  0  0  0
    7.6370  -13.6815   20.5402 C   0  0  0  0  0  0  0  0  0  0  0  0
    8.2230  -13.2240   19.2665 C   0  0  0  0  0  0  0  0  0  0  0  0
    7.6431  -13.8642   18.0410 C   0  0  0  0  0  0  0  0  0  0  0  0
    8.4410  -13.4462   16.7935 C   0  0  0  0  0  0  0  0  0  0  0  0
    7.8898  -14.2094   15.6889 N   0  0  0  0  0  0  0  0  0  0  0  0
    7.7682  -15.0746   22.5762 C   0  0  0  0  0  0  0  0  0  0  0  0
    6.6981  -14.5778   22.9917 O   0  0  0  0  0  0  0  0  0  0  0  0
    6.6772  -17.9568   24.1145 C   0  0  0  0  0  0  0  0  0  0  0  0
    7.7732  -17.4819   24.9910 C   0  0  1  0  0  0  0  0  0  0  0  0
    8.9103  -18.2705   24.6793 O   0  0  0  0  0  0  0  0  0  0  0  0
    8.1172  -16.0161   24.8971 C   0  0  2  0  0  0  0  0  0  0  0  0
    8.5621  -15.7782   23.5074 N   0  0  0  0  0  0  0  0  0  0  0  0
    9.1154  -15.5400   25.8502 C   0  0  0  0  0  0  0  0  0  0  0  0
   10.3536  -15.6635   25.5397 O   0  0  0  0  0  0  0  0  0  0  0  0
    9.5410  -13.4611   28.9425 C   0  0  0  0  0  0  0  0  0  0  0  0
    9.9412  -14.5682   27.9929 C   0  0  2  0  0  0  0  0  0  0  0  0
    8.8616  -14.9421   27.1082 N   0  0  0  0  0  0  0  0  0  0  0  0
   10.3849  -15.7132   28.8244 C   0  0  0  0  0  0  0  0  0  0  0  0
   11.3640  -15.5689   29.5979 O   0  0  0  0  0  0  0  0  0  0  0  0
    9.7692  -16.9552   28.7955 O   0  0  0  0  0  0  0  0  0  0  0  0
  2  1  1  6
  2  8  1  0
  3  2  1  0
  4  3  1  0
  5  6  1  0
  5  4  1  0
  6  7  1  0
  8 14  1  0
  8  9  2  0
 11 10  1  6
 12 11  1  0
 13 11  1  0
 13 15  1  0
 13 14  1  6
 15 16  2  0
 18 17  1  1
 19 18  1  0
 19 15  1  0
 20 18  1  0
 20 22  1  0
 21 20  2  0
M  END
$$$$
