KTA.pdb
     RDKit          3D

 22 21  0  0  1  0  0  0  0  0999 V2000
   11.0560  -18.4634   21.8672 N   0  0  0  0  0  0  0  0  0  0  0  0
   11.8490  -17.2588   21.8281 C   0  0  1  0  0  0  0  0  0  0  0  0
   12.6356  -17.1082   20.5819 C   0  0  0  0  0  0  0  0  0  0  0  0
   13.0271  -18.3415   19.8743 C   0  0  0  0  0  0  0  0  0  0  0  0
   12.1102  -18.7452   18.7589 C   0  0  0  0  0  0  0  0  0  0  0  0
   12.7679  -18.4568   17.3981 C   0  0  0  0  0  0  0  0  0  0  0  0
   13.0569  -19.7511   16.8085 N   0  0  0  0  0  0  0  0  0  0  0  0
   10.8969  -16.1053   22.0221 C   0  0  0  0  0  0  0  0  0  0  0  0
   11.2793  -14.9237   21.8729 O   0  0  0  0  0  0  0  0  0  0  0  0
    6.1427  -14.6941   22.2305 C   0  0  0  0  0  0  0  0  0  0  0  0
    7.2610  -15.6571   22.1000 C   0  0  1  0  0  0  0  0  0  0  0  0
    7.3326  -16.0095   20.7279 O   0  0  0  0  0  0  0  0  0  0  0  0
    8.6094  -15.1860   22.5855 C   0  0  2  0  0  0  0  0  0  0  0  0
    9.5462  -16.3107   22.3771 N   0  0  0  0  0  0  0  0  0  0  0  0
    8.6551  -14.7222   23.9689 C   0  0  0  0  0  0  0  0  0  0  0  0
    9.0368  -15.5502   24.8710 O   0  0  0  0  0  0  0  0  0  0  0  0
    7.8135  -11.7179   26.1203 C   0  0  0  0  0  0  0  0  0  0  0  0
    8.3273  -13.1137   25.8459 C   0  0  2  0  0  0  0  0  0  0  0  0
    8.3179  -13.4288   24.4357 N   0  0  0  0  0  0  0  0  0  0  0  0
    7.4744  -14.0492   26.6183 C   0  0  0  0  0  0  0  0  0  0  0  0
    6.4788  -14.5760   26.0624 O   0  0  0  0  0  0  0  0  0  0  0  0
    7.7183  -14.3807   27.9424 O   0  0  0  0  0  0  0  0  0  0  0  0
  2  1  1  6
  2  8  1  0
  3  2  1  0
  4  3  1  0
  5  6  1  0
  5  4  1  0
  6  7  1  0
  8 14  1  0
  8  9  2  0
 11 10  1  6
 12 11  1  0
 13 11  1  0
 13 15  1  0
 13 14  1  1
 15 16  2  0
 18 17  1  6
 19 18  1  0
 19 15  1  0
 20 18  1  0
 20 22  1  0
 21 20  2  0
M  END
$$$$
