KTA.pdb
     RDKit          3D

 22 21  0  0  1  0  0  0  0  0999 V2000
    8.9798  -15.4065   14.7633 N   0  0  0  0  0  0  0  0  0  0  0  0
    8.4090  -16.0337   15.9304 C   0  0  1  0  0  0  0  0  0  0  0  0
    8.5319  -17.5100   15.9289 C   0  0  0  0  0  0  0  0  0  0  0  0
    7.5734  -18.2690   15.1041 C   0  0  0  0  0  0  0  0  0  0  0  0
    6.1846  -18.3458   15.6635 C   0  0  0  0  0  0  0  0  0  0  0  0
    5.2728  -19.1462   14.7171 C   0  0  0  0  0  0  0  0  0  0  0  0
    5.6243  -20.5418   14.9044 N   0  0  0  0  0  0  0  0  0  0  0  0
    9.0925  -15.4247   17.1290 C   0  0  0  0  0  0  0  0  0  0  0  0
   10.3097  -15.1381   17.0985 O   0  0  0  0  0  0  0  0  0  0  0  0
    7.6035  -12.4737   19.3243 C   0  0  0  0  0  0  0  0  0  0  0  0
    8.0374  -13.6340   20.1370 C   0  0  1  0  0  0  0  0  0  0  0  0
    6.8629  -14.3575   20.4674 O   0  0  0  0  0  0  0  0  0  0  0  0
    9.0514  -14.5533   19.5026 C   0  0  2  0  0  0  0  0  0  0  0  0
    8.3918  -15.1556   18.3245 N   0  0  0  0  0  0  0  0  0  0  0  0
    9.5990  -15.5872   20.3758 C   0  0  0  0  0  0  0  0  0  0  0  0
    9.0562  -16.7489   20.3498 O   0  0  0  0  0  0  0  0  0  0  0  0
   12.6724  -16.4915   22.2648 C   0  0  0  0  0  0  0  0  0  0  0  0
   11.1790  -16.5670   22.0374 C   0  0  2  0  0  0  0  0  0  0  0  0
   10.6891  -15.4462   21.2681 N   0  0  0  0  0  0  0  0  0  0  0  0
   10.5397  -16.6308   23.3740 C   0  0  0  0  0  0  0  0  0  0  0  0
    9.7961  -15.6893   23.7459 O   0  0  0  0  0  0  0  0  0  0  0  0
   10.7197  -17.6894   24.2512 O   0  0  0  0  0  0  0  0  0  0  0  0
  2  1  1  6
  2  8  1  0
  3  2  1  0
  4  3  1  0
  5  6  1  0
  5  4  1  0
  6  7  1  0
  8 14  1  0
  8  9  2  0
 11 10  1  6
 12 11  1  0
 13 11  1  0
 13 15  1  0
 13 14  1  6
 15 16  2  0
 18 17  1  1
 19 18  1  0
 19 15  1  0
 20 18  1  0
 20 22  1  0
 21 20  2  0
M  END
$$$$
