KTA.pdb
     RDKit          3D

 22 21  0  0  1  0  0  0  0  0999 V2000
    9.3146  -15.8835   20.7530 N   0  0  0  0  0  0  0  0  0  0  0  0
    8.7023  -14.6701   21.2367 C   0  0  1  0  0  0  0  0  0  0  0  0
    7.6799  -14.1164   20.3186 C   0  0  0  0  0  0  0  0  0  0  0  0
    7.9335  -14.2359   18.8707 C   0  0  0  0  0  0  0  0  0  0  0  0
    7.6668  -12.9902   18.0801 C   0  0  0  0  0  0  0  0  0  0  0  0
    8.2210  -13.1367   16.6523 C   0  0  0  0  0  0  0  0  0  0  0  0
    7.7025  -14.3944   16.1464 N   0  0  0  0  0  0  0  0  0  0  0  0
    8.1146  -14.9889   22.5886 C   0  0  0  0  0  0  0  0  0  0  0  0
    7.3086  -14.2072   23.1400 O   0  0  0  0  0  0  0  0  0  0  0  0
    7.4635  -18.4210   26.1412 C   0  0  0  0  0  0  0  0  0  0  0  0
    7.7944  -17.9117   24.7899 C   0  0  1  0  0  0  0  0  0  0  0  0
    6.7437  -18.3282   23.9328 O   0  0  0  0  0  0  0  0  0  0  0  0
    8.0029  -16.4225   24.6688 C   0  0  2  0  0  0  0  0  0  0  0  0
    8.4476  -16.1730   23.2810 N   0  0  0  0  0  0  0  0  0  0  0  0
    8.9363  -15.8364   25.6261 C   0  0  0  0  0  0  0  0  0  0  0  0
   10.1881  -15.8744   25.3494 O   0  0  0  0  0  0  0  0  0  0  0  0
    9.0421  -13.4190   28.4675 C   0  0  0  0  0  0  0  0  0  0  0  0
    9.6112  -14.5665   27.6632 C   0  0  2  0  0  0  0  0  0  0  0  0
    8.6046  -15.2149   26.8542 N   0  0  0  0  0  0  0  0  0  0  0  0
   10.2248  -15.5103   28.6286 C   0  0  0  0  0  0  0  0  0  0  0  0
    9.7245  -16.6532   28.7744 O   0  0  0  0  0  0  0  0  0  0  0  0
   11.3388  -15.1967   29.3923 O   0  0  0  0  0  0  0  0  0  0  0  0
  2  1  1  6
  2  8  1  0
  3  2  1  0
  4  3  1  0
  5  6  1  0
  5  4  1  0
  6  7  1  0
  8 14  1  0
  8  9  2  0
 11 10  1  1
 12 11  1  0
 13 11  1  0
 13 15  1  0
 13 14  1  6
 15 16  2  0
 18 17  1  1
 19 18  1  0
 19 15  1  0
 20 18  1  0
 20 22  1  0
 21 20  2  0
M  END
$$$$
