KTA.pdb
     RDKit          3D

 22 21  0  0  1  0  0  0  0  0999 V2000
    8.1728  -17.2034   15.9355 N   0  0  0  0  0  0  0  0  0  0  0  0
    7.3938  -16.7865   17.0760 C   0  0  1  0  0  0  0  0  0  0  0  0
    6.5969  -17.8796   17.6799 C   0  0  0  0  0  0  0  0  0  0  0  0
    7.1726  -19.2369   17.6452 C   0  0  0  0  0  0  0  0  0  0  0  0
    6.2553  -20.3221   18.1235 C   0  0  0  0  0  0  0  0  0  0  0  0
    6.9093  -21.7001   17.9208 C   0  0  0  0  0  0  0  0  0  0  0  0
    5.9915  -22.6689   18.4913 N   0  0  0  0  0  0  0  0  0  0  0  0
    8.3613  -16.1951   18.0704 C   0  0  0  0  0  0  0  0  0  0  0  0
    9.5875  -16.4300   17.9925 O   0  0  0  0  0  0  0  0  0  0  0  0
    7.9953  -12.4394   19.4183 C   0  0  0  0  0  0  0  0  0  0  0  0
    8.2488  -13.4260   20.4940 C   0  0  1  0  0  0  0  0  0  0  0  0
    7.0017  -13.6628   21.1270 O   0  0  0  0  0  0  0  0  0  0  0  0
    8.8714  -14.7330   20.0697 C   0  0  2  0  0  0  0  0  0  0  0  0
    7.9258  -15.3591   19.1211 N   0  0  0  0  0  0  0  0  0  0  0  0
    9.2060  -15.6533   21.1524 C   0  0  0  0  0  0  0  0  0  0  0  0
    8.3414  -16.5433   21.4770 O   0  0  0  0  0  0  0  0  0  0  0  0
   10.8583  -18.0484   22.3189 C   0  0  0  0  0  0  0  0  0  0  0  0
   10.6441  -16.6748   22.9147 C   0  0  2  0  0  0  0  0  0  0  0  0
   10.4079  -15.6732   21.9003 N   0  0  0  0  0  0  0  0  0  0  0  0
   11.8481  -16.3595   23.7211 C   0  0  0  0  0  0  0  0  0  0  0  0
   12.5850  -15.4019   23.3780 O   0  0  0  0  0  0  0  0  0  0  0  0
   12.2124  -17.0746   24.8519 O   0  0  0  0  0  0  0  0  0  0  0  0
  2  1  1  6
  2  8  1  0
  3  2  1  0
  4  3  1  0
  5  6  1  0
  5  4  1  0
  6  7  1  0
  8 14  1  0
  8  9  2  0
 11 10  1  6
 12 11  1  0
 13 11  1  0
 13 15  1  0
 13 14  1  6
 15 16  2  0
 18 17  1  6
 19 18  1  0
 19 15  1  0
 20 18  1  0
 20 22  1  0
 21 20  2  0
M  END
$$$$
