KTA.pdb
     RDKit          3D

 22 21  0  0  1  0  0  0  0  0999 V2000
    8.2943  -14.5896   14.0880 N   0  0  0  0  0  0  0  0  0  0  0  0
    8.3314  -15.4738   15.2273 C   0  0  1  0  0  0  0  0  0  0  0  0
    8.9678  -16.7808   14.9419 C   0  0  0  0  0  0  0  0  0  0  0  0
    8.6475  -17.4235   13.6538 C   0  0  0  0  0  0  0  0  0  0  0  0
    9.7304  -18.3015   13.1020 C   0  0  0  0  0  0  0  0  0  0  0  0
    9.9730  -19.4993   14.0369 C   0  0  0  0  0  0  0  0  0  0  0  0
   10.9499  -20.3396   13.3690 N   0  0  0  0  0  0  0  0  0  0  0  0
    9.0548  -14.7365   16.3263 C   0  0  0  0  0  0  0  0  0  0  0  0
    9.8889  -13.8431   16.0603 O   0  0  0  0  0  0  0  0  0  0  0  0
    7.4715  -12.6891   18.9101 C   0  0  0  0  0  0  0  0  0  0  0  0
    8.3536  -13.6597   19.5992 C   0  0  1  0  0  0  0  0  0  0  0  0
    7.5125  -14.6884   20.0955 O   0  0  0  0  0  0  0  0  0  0  0  0
    9.4680  -14.2539   18.7740 C   0  0  2  0  0  0  0  0  0  0  0  0
    8.8218  -15.0224   17.6888 N   0  0  0  0  0  0  0  0  0  0  0  0
   10.4189  -15.0865   19.5045 C   0  0  0  0  0  0  0  0  0  0  0  0
   10.2035  -16.3500   19.5511 O   0  0  0  0  0  0  0  0  0  0  0  0
   13.8325  -14.9784   21.0960 C   0  0  0  0  0  0  0  0  0  0  0  0
   12.4662  -15.5752   20.8414 C   0  0  2  0  0  0  0  0  0  0  0  0
   11.5805  -14.6433   20.1818 N   0  0  0  0  0  0  0  0  0  0  0  0
   11.9275  -16.0011   22.1558 C   0  0  0  0  0  0  0  0  0  0  0  0
   10.8967  -15.4436   22.6081 O   0  0  0  0  0  0  0  0  0  0  0  0
   12.5074  -16.9970   22.9267 O   0  0  0  0  0  0  0  0  0  0  0  0
  2  1  1  6
  2  8  1  0
  3  2  1  0
  4  3  1  0
  5  6  1  0
  5  4  1  0
  6  7  1  0
  8 14  1  0
  8  9  2  0
 11 10  1  6
 12 11  1  0
 13 11  1  0
 13 15  1  0
 13 14  1  6
 15 16  2  0
 18 17  1  1
 19 18  1  0
 19 15  1  0
 20 18  1  0
 20 22  1  0
 21 20  2  0
M  END
$$$$
