KTA.pdb
     RDKit          3D

 22 21  0  0  1  0  0  0  0  0999 V2000
    6.0885  -20.3331   20.1675 N   0  0  0  0  0  0  0  0  0  0  0  0
    5.9540  -19.6438   21.4277 C   0  0  1  0  0  0  0  0  0  0  0  0
    5.4102  -20.4939   22.5124 C   0  0  0  0  0  0  0  0  0  0  0  0
    4.0139  -20.9497   22.3806 C   0  0  0  0  0  0  0  0  0  0  0  0
    3.8423  -22.4369   22.2986 C   0  0  0  0  0  0  0  0  0  0  0  0
    2.3496  -22.7959   22.1955 C   0  0  0  0  0  0  0  0  0  0  0  0
    2.2889  -24.2435   22.1108 N   0  0  0  0  0  0  0  0  0  0  0  0
    7.3200  -19.1092   21.7785 C   0  0  0  0  0  0  0  0  0  0  0  0
    8.3561  -19.7343   21.4617 O   0  0  0  0  0  0  0  0  0  0  0  0
    9.9281  -15.1000   23.1302 C   0  0  0  0  0  0  0  0  0  0  0  0
    8.7372  -15.8650   22.6929 C   0  0  1  0  0  0  0  0  0  0  0  0
    8.5059  -15.5128   21.3384 O   0  0  0  0  0  0  0  0  0  0  0  0
    8.8175  -17.3650   22.8322 C   0  0  2  0  0  0  0  0  0  0  0  0
    7.4833  -17.8912   22.4731 N   0  0  0  0  0  0  0  0  0  0  0  0
    9.2332  -17.8554   24.1429 C   0  0  0  0  0  0  0  0  0  0  0  0
    8.3367  -17.9861   25.0507 O   0  0  0  0  0  0  0  0  0  0  0  0
   10.2240  -20.1311   26.0256 C   0  0  0  0  0  0  0  0  0  0  0  0
   10.8211  -18.7536   25.8428 C   0  0  2  0  0  0  0  0  0  0  0  0
   10.5471  -18.2122   24.5313 N   0  0  0  0  0  0  0  0  0  0  0  0
   12.2786  -18.8769   26.0871 C   0  0  0  0  0  0  0  0  0  0  0  0
   12.6822  -19.3121   27.1941 O   0  0  0  0  0  0  0  0  0  0  0  0
   13.2373  -18.5331   25.1462 O   0  0  0  0  0  0  0  0  0  0  0  0
  2  1  1  6
  2  8  1  0
  3  2  1  0
  4  3  1  0
  5  6  1  0
  5  4  1  0
  6  7  1  0
  8 14  1  0
  8  9  2  0
 11 10  1  6
 12 11  1  0
 13 11  1  0
 13 15  1  0
 13 14  1  1
 15 16  2  0
 18 17  1  6
 19 18  1  0
 19 15  1  0
 20 18  1  0
 20 22  1  0
 21 20  2  0
M  END
$$$$
