KTA.pdb
     RDKit          3D

 22 21  0  0  1  0  0  0  0  0999 V2000
   10.1008  -16.5612   14.6600 N   0  0  0  0  0  0  0  0  0  0  0  0
   10.2655  -17.9063   15.1550 C   0  0  1  0  0  0  0  0  0  0  0  0
   11.6405  -18.4331   14.9912 C   0  0  0  0  0  0  0  0  0  0  0  0
   12.7485  -17.6064   15.5047 C   0  0  0  0  0  0  0  0  0  0  0  0
   14.1191  -18.1414   15.2162 C   0  0  0  0  0  0  0  0  0  0  0  0
   15.1856  -17.2750   15.9084 C   0  0  0  0  0  0  0  0  0  0  0  0
   16.4585  -17.9246   15.6548 N   0  0  0  0  0  0  0  0  0  0  0  0
    9.8505  -17.8896   16.6049 C   0  0  0  0  0  0  0  0  0  0  0  0
   10.1238  -16.9157   17.3408 O   0  0  0  0  0  0  0  0  0  0  0  0
    6.3378  -19.2103   17.8791 C   0  0  0  0  0  0  0  0  0  0  0  0
    7.4560  -19.7276   18.7018 C   0  0  1  0  0  0  0  0  0  0  0  0
    7.6507  -21.0784   18.3152 O   0  0  0  0  0  0  0  0  0  0  0  0
    8.7577  -18.9701   18.6132 C   0  0  2  0  0  0  0  0  0  0  0  0
    9.1425  -18.9638   17.1857 N   0  0  0  0  0  0  0  0  0  0  0  0
    9.8444  -19.4843   19.4413 C   0  0  0  0  0  0  0  0  0  0  0  0
   10.9707  -19.7262   18.8773 O   0  0  0  0  0  0  0  0  0  0  0  0
   11.7940  -18.5380   21.5656 C   0  0  0  0  0  0  0  0  0  0  0  0
   10.9950  -19.8207   21.6278 C   0  0  2  0  0  0  0  0  0  0  0  0
    9.7917  -19.7506   20.8308 N   0  0  0  0  0  0  0  0  0  0  0  0
   10.6877  -20.0711   23.0568 C   0  0  0  0  0  0  0  0  0  0  0  0
   11.6206  -20.3676   23.8440 O   0  0  0  0  0  0  0  0  0  0  0  0
    9.4066  -19.9950   23.5819 O   0  0  0  0  0  0  0  0  0  0  0  0
  2  1  1  1
  2  8  1  0
  3  2  1  0
  4  3  1  0
  5  6  1  0
  5  4  1  0
  6  7  1  0
  8 14  1  0
  8  9  2  0
 11 10  1  6
 12 11  1  0
 13 11  1  0
 13 15  1  0
 13 14  1  6
 15 16  2  0
 18 17  1  1
 19 18  1  0
 19 15  1  0
 20 18  1  0
 20 22  1  0
 21 20  2  0
M  END
$$$$
