KTA.pdb
     RDKit          3D

 22 21  0  0  1  0  0  0  0  0999 V2000
    7.9910  -16.8042   16.1706 N   0  0  0  0  0  0  0  0  0  0  0  0
    7.3498  -16.8907   17.4600 C   0  0  1  0  0  0  0  0  0  0  0  0
    6.9734  -18.2715   17.8426 C   0  0  0  0  0  0  0  0  0  0  0  0
    6.3549  -19.1174   16.8049 C   0  0  0  0  0  0  0  0  0  0  0  0
    7.2373  -19.4202   15.6313 C   0  0  0  0  0  0  0  0  0  0  0  0
    6.5394  -20.4093   14.6814 C   0  0  0  0  0  0  0  0  0  0  0  0
    7.3980  -20.5225   13.5167 N   0  0  0  0  0  0  0  0  0  0  0  0
    8.3004  -16.2811   18.4598 C   0  0  0  0  0  0  0  0  0  0  0  0
    9.5139  -16.1413   18.1909 O   0  0  0  0  0  0  0  0  0  0  0  0
    7.4843  -12.9711   20.4019 C   0  0  0  0  0  0  0  0  0  0  0  0
    7.9463  -14.0494   21.3067 C   0  0  1  0  0  0  0  0  0  0  0  0
    6.7853  -14.5909   21.9157 O   0  0  0  0  0  0  0  0  0  0  0  0
    8.7614  -15.1500   20.6741 C   0  0  2  0  0  0  0  0  0  0  0  0
    7.8626  -15.8472   19.7297 N   0  0  0  0  0  0  0  0  0  0  0  0
    9.3726  -16.0960   21.6029 C   0  0  0  0  0  0  0  0  0  0  0  0
    8.8140  -17.2407   21.7536 O   0  0  0  0  0  0  0  0  0  0  0  0
   11.4559  -18.1594   22.4781 C   0  0  0  0  0  0  0  0  0  0  0  0
   11.0639  -16.9144   23.2422 C   0  0  2  0  0  0  0  0  0  0  0  0
   10.5419  -15.8850   22.3729 N   0  0  0  0  0  0  0  0  0  0  0  0
   12.2720  -16.4529   23.9681 C   0  0  0  0  0  0  0  0  0  0  0  0
   12.8036  -15.3613   23.6463 O   0  0  0  0  0  0  0  0  0  0  0  0
   12.8577  -17.1709   24.9996 O   0  0  0  0  0  0  0  0  0  0  0  0
  2  1  1  6
  2  8  1  0
  3  2  1  0
  4  3  1  0
  5  6  1  0
  5  4  1  0
  6  7  1  0
  8 14  1  0
  8  9  2  0
 11 10  1  6
 12 11  1  0
 13 11  1  0
 13 15  1  0
 13 14  1  6
 15 16  2  0
 18 17  1  6
 19 18  1  0
 19 15  1  0
 20 18  1  0
 20 22  1  0
 21 20  2  0
M  END
$$$$
