KTA.pdb
     RDKit          3D

 22 21  0  0  1  0  0  0  0  0999 V2000
    8.1685  -18.2345   16.4087 N   0  0  0  0  0  0  0  0  0  0  0  0
    7.4388  -18.0079   17.6324 C   0  0  1  0  0  0  0  0  0  0  0  0
    7.1481  -19.2493   18.3869 C   0  0  0  0  0  0  0  0  0  0  0  0
    7.0832  -20.5080   17.6213 C   0  0  0  0  0  0  0  0  0  0  0  0
    5.7157  -20.8749   17.1280 C   0  0  0  0  0  0  0  0  0  0  0  0
    5.7508  -22.2468   16.4322 C   0  0  0  0  0  0  0  0  0  0  0  0
    4.3838  -22.5328   16.0372 N   0  0  0  0  0  0  0  0  0  0  0  0
    8.2563  -17.0423   18.4534 C   0  0  0  0  0  0  0  0  0  0  0  0
    9.4859  -17.2111   18.6089 O   0  0  0  0  0  0  0  0  0  0  0  0
    8.2901  -12.6125   20.7812 C   0  0  0  0  0  0  0  0  0  0  0  0
    7.6932  -13.6982   19.9688 C   0  0  1  0  0  0  0  0  0  0  0  0
    7.5463  -13.1853   18.6545 O   0  0  0  0  0  0  0  0  0  0  0  0
    8.4512  -15.0021   19.9349 C   0  0  2  0  0  0  0  0  0  0  0  0
    7.6717  -15.9178   19.0748 N   0  0  0  0  0  0  0  0  0  0  0  0
    8.7169  -15.6114   21.2347 C   0  0  0  0  0  0  0  0  0  0  0  0
    7.7173  -15.8714   21.9951 O   0  0  0  0  0  0  0  0  0  0  0  0
   10.3292  -17.9523   23.1449 C   0  0  0  0  0  0  0  0  0  0  0  0
   10.1289  -16.4536   23.1094 C   0  0  2  0  0  0  0  0  0  0  0  0
    9.9854  -15.9563   21.7603 N   0  0  0  0  0  0  0  0  0  0  0  0
   11.2951  -15.8440   23.7932 C   0  0  0  0  0  0  0  0  0  0  0  0
   11.4798  -16.0707   25.0148 O   0  0  0  0  0  0  0  0  0  0  0  0
   12.2088  -15.0239   23.1489 O   0  0  0  0  0  0  0  0  0  0  0  0
  2  1  1  6
  2  8  1  0
  3  2  1  0
  4  3  1  0
  5  6  1  0
  5  4  1  0
  6  7  1  0
  8 14  1  0
  8  9  2  0
 11 10  1  1
 12 11  1  0
 13 11  1  0
 13 15  1  0
 13 14  1  6
 15 16  2  0
 18 17  1  6
 19 18  1  0
 19 15  1  0
 20 18  1  0
 20 22  1  0
 21 20  2  0
M  END
$$$$
