KTA.pdb
     RDKit          3D

 22 21  0  0  1  0  0  0  0  0999 V2000
    7.7010  -12.8172   15.9697 N   0  0  0  0  0  0  0  0  0  0  0  0
    7.6344  -14.0537   16.7100 C   0  0  1  0  0  0  0  0  0  0  0  0
    8.0571  -15.2370   15.9252 C   0  0  0  0  0  0  0  0  0  0  0  0
    9.0230  -15.0158   14.8329 C   0  0  0  0  0  0  0  0  0  0  0  0
    9.3789  -16.2435   14.0493 C   0  0  0  0  0  0  0  0  0  0  0  0
   10.4878  -15.9231   13.0319 C   0  0  0  0  0  0  0  0  0  0  0  0
   10.7415  -17.1571   12.3112 N   0  0  0  0  0  0  0  0  0  0  0  0
    8.4910  -13.8717   17.9379 C   0  0  0  0  0  0  0  0  0  0  0  0
    9.4388  -13.0555   17.9456 O   0  0  0  0  0  0  0  0  0  0  0  0
    8.9705  -14.9452   22.8066 C   0  0  0  0  0  0  0  0  0  0  0  0
    8.2963  -14.9497   21.4873 C   0  0  1  0  0  0  0  0  0  0  0  0
    7.1266  -14.1599   21.6287 O   0  0  0  0  0  0  0  0  0  0  0  0
    9.1134  -14.4613   20.3170 C   0  0  2  0  0  0  0  0  0  0  0  0
    8.2598  -14.6093   19.1190 N   0  0  0  0  0  0  0  0  0  0  0  0
   10.3987  -15.1261   20.1237 C   0  0  0  0  0  0  0  0  0  0  0  0
   10.3935  -16.3635   19.7861 O   0  0  0  0  0  0  0  0  0  0  0  0
   13.9814  -14.4476   19.4246 C   0  0  0  0  0  0  0  0  0  0  0  0
   12.8839  -15.3012   20.0199 C   0  0  2  0  0  0  0  0  0  0  0  0
   11.6800  -14.5420   20.2698 N   0  0  0  0  0  0  0  0  0  0  0  0
   13.4235  -15.8926   21.2682 C   0  0  0  0  0  0  0  0  0  0  0  0
   14.4442  -16.6225   21.2121 O   0  0  0  0  0  0  0  0  0  0  0  0
   12.8551  -15.6814   22.5152 O   0  0  0  0  0  0  0  0  0  0  0  0
  2  1  1  6
  2  8  1  0
  3  2  1  0
  4  3  1  0
  5  6  1  0
  5  4  1  0
  6  7  1  0
  8 14  1  0
  8  9  2  0
 11 10  1  1
 12 11  1  0
 13 11  1  0
 13 15  1  0
 13 14  1  6
 15 16  2  0
 18 17  1  1
 19 18  1  0
 19 15  1  0
 20 18  1  0
 20 22  1  0
 21 20  2  0
M  END
$$$$
