GPI.pdb
     RDKit          3D

 20 20  0  0  1  0  0  0  0  0999 V2000
   24.7480  -13.8848  -19.1913 N   0  0  0  0  0  0  0  0  0  0  0  0
   25.6685  -12.7586  -18.8686 C   0  0  0  0  0  0  0  0  0  0  0  0
   25.0626  -11.9295  -17.8336 C   0  0  0  0  0  0  0  0  0  0  0  0
   23.7626  -11.8570  -17.9012 O   0  0  0  0  0  0  0  0  0  0  0  0
   25.6355  -11.2071  -16.7912 N   0  0  0  0  0  0  0  0  0  0  0  0
   26.6702  -11.8693  -15.9102 C   0  0  0  0  0  0  0  0  0  0  0  0
   27.7719  -10.8251  -16.0178 C   0  0  0  0  0  0  0  0  0  0  0  0
   27.0731   -9.5071  -16.3704 C   0  0  0  0  0  0  0  0  0  0  0  0
   25.5964   -9.9222  -16.1910 C   0  0  1  0  0  0  0  0  0  0  0  0
   24.6882   -8.9008  -16.6222 C   0  0  0  0  0  0  0  0  0  0  0  0
   24.8721   -8.1292  -17.5537 O   0  0  0  0  0  0  0  0  0  0  0  0
   19.2723   -8.4276  -18.4270 C   0  0  0  0  0  0  0  0  0  0  0  0
   20.3372   -7.6103  -17.7178 C   0  0  0  0  0  0  0  0  0  0  0  0
   21.3437   -8.5898  -17.1494 C   0  0  2  0  0  0  0  0  0  0  0  0
   20.5961   -9.4183  -16.1246 C   0  0  0  0  0  0  0  0  0  0  0  0
   22.4558   -7.8630  -16.4099 C   0  0  2  0  0  0  0  0  0  0  0  0
   23.4409   -8.7589  -15.9013 N   0  0  0  0  0  0  0  0  0  0  0  0
   21.8244   -7.1424  -15.2906 C   0  0  0  0  0  0  0  0  0  0  0  0
   21.2577   -5.9097  -15.4998 O   0  0  0  0  0  0  0  0  0  0  0  0
   21.8043   -7.6506  -14.1555 O   0  0  0  0  0  0  0  0  0  0  0  0
  2  1  1  0
  3  2  1  0
  4  3  2  0
  5  6  1  0
  5  3  1  0
  7  6  1  0
  8  9  1  0
  8  7  1  0
  9 10  1  6
  9  5  1  0
 10 17  1  0
 11 10  2  0
 12 13  1  0
 13 14  1  0
 14 15  1  1
 16 18  1  0
 16 14  1  0
 16 17  1  1
 18 19  1  0
 20 18  2  0
M  END
$$$$
