GPI.pdb
     RDKit          3D

 20 20  0  0  1  0  0  0  0  0999 V2000
   17.9883  -11.4148  -18.0465 N   0  0  0  0  0  0  0  0  0  0  0  0
   18.8504  -10.2848  -18.4933 C   0  0  0  0  0  0  0  0  0  0  0  0
   19.5883   -9.7665  -17.3476 C   0  0  0  0  0  0  0  0  0  0  0  0
   19.0014   -9.9657  -16.2005 O   0  0  0  0  0  0  0  0  0  0  0  0
   20.8072   -9.0992  -17.2730 N   0  0  0  0  0  0  0  0  0  0  0  0
   22.0147   -9.6787  -17.9740 C   0  0  0  0  0  0  0  0  0  0  0  0
   22.4356   -8.4509  -18.7685 C   0  0  0  0  0  0  0  0  0  0  0  0
   21.8787   -7.2427  -18.0071 C   0  0  0  0  0  0  0  0  0  0  0  0
   21.3910   -7.9330  -16.7146 C   0  0  1  0  0  0  0  0  0  0  0  0
   20.6601   -7.0406  -15.8640 C   0  0  0  0  0  0  0  0  0  0  0  0
   19.5365   -6.6078  -16.0810 O   0  0  0  0  0  0  0  0  0  0  0  0
   19.1168   -6.2378  -10.2815 C   0  0  0  0  0  0  0  0  0  0  0  0
   19.4546   -5.4665  -11.5448 C   0  0  0  0  0  0  0  0  0  0  0  0
   20.2397   -6.4030  -12.4405 C   0  0  2  0  0  0  0  0  0  0  0  0
   21.5521   -6.6666  -11.7309 C   0  0  0  0  0  0  0  0  0  0  0  0
   20.5751   -5.7378  -13.7661 C   0  0  2  0  0  0  0  0  0  0  0  0
   21.2952   -6.6054  -14.6381 N   0  0  0  0  0  0  0  0  0  0  0  0
   21.4022   -4.5590  -13.4550 C   0  0  0  0  0  0  0  0  0  0  0  0
   22.7637   -4.6116  -13.6227 O   0  0  0  0  0  0  0  0  0  0  0  0
   20.8675   -3.5153  -13.0402 O   0  0  0  0  0  0  0  0  0  0  0  0
  2  1  1  0
  3  2  1  0
  4  3  2  0
  5  6  1  0
  5  3  1  0
  7  6  1  0
  8  9  1  0
  8  7  1  0
  9 10  1  6
  9  5  1  0
 10 17  1  0
 11 10  2  0
 12 13  1  0
 13 14  1  0
 14 15  1  1
 16 18  1  0
 16 14  1  0
 16 17  1  6
 18 19  1  0
 20 18  2  0
M  END
$$$$
