GPI.pdb
     RDKit          3D

 20 20  0  0  1  0  0  0  0  0999 V2000
   22.5469  -20.6448  -12.2484 N   0  0  0  0  0  0  0  0  0  0  0  0
   23.9806  -20.2431  -12.3002 C   0  0  0  0  0  0  0  0  0  0  0  0
   24.6111  -20.5615  -11.0246 C   0  0  0  0  0  0  0  0  0  0  0  0
   23.8760  -20.2878   -9.9832 O   0  0  0  0  0  0  0  0  0  0  0  0
   25.8583  -21.1060  -10.7337 N   0  0  0  0  0  0  0  0  0  0  0  0
   26.3860  -22.2444  -11.5768 C   0  0  0  0  0  0  0  0  0  0  0  0
   27.7451  -21.6605  -11.9340 C   0  0  0  0  0  0  0  0  0  0  0  0
   28.0758  -20.6510  -10.8289 C   0  0  0  0  0  0  0  0  0  0  0  0
   26.9401  -20.9568   -9.8281 C   0  0  1  0  0  0  0  0  0  0  0  0
   26.9078  -20.0239   -8.7406 C   0  0  0  0  0  0  0  0  0  0  0  0
   26.6326  -18.8349   -8.8281 O   0  0  0  0  0  0  0  0  0  0  0  0
   27.8571  -19.9094   -2.6305 C   0  0  0  0  0  0  0  0  0  0  0  0
   27.6358  -19.1465   -3.9244 C   0  0  0  0  0  0  0  0  0  0  0  0
   27.3353  -20.1718   -4.9987 C   0  0  2  0  0  0  0  0  0  0  0  0
   28.3769  -21.2617   -4.8471 C   0  0  0  0  0  0  0  0  0  0  0  0
   27.5115  -19.5765   -6.3867 C   0  0  2  0  0  0  0  0  0  0  0  0
   27.2264  -20.5183   -7.4179 N   0  0  0  0  0  0  0  0  0  0  0  0
   28.9165  -19.1458   -6.4913 C   0  0  0  0  0  0  0  0  0  0  0  0
   29.3152  -17.9597   -5.9266 O   0  0  0  0  0  0  0  0  0  0  0  0
   29.7424  -19.8564   -7.0912 O   0  0  0  0  0  0  0  0  0  0  0  0
  2  1  1  0
  3  2  1  0
  4  3  2  0
  5  6  1  0
  5  3  1  0
  7  6  1  0
  8  9  1  0
  8  7  1  0
  9 10  1  1
  9  5  1  0
 10 17  1  0
 11 10  2  0
 12 13  1  0
 13 14  1  0
 14 15  1  1
 16 18  1  0
 16 14  1  0
 16 17  1  6
 18 19  1  0
 20 18  2  0
M  END
$$$$
