GPI.pdb
     RDKit          3D

 20 20  0  0  1  0  0  0  0  0999 V2000
   24.9070  -17.7278  -14.9056 N   0  0  0  0  0  0  0  0  0  0  0  0
   26.1638  -17.9770  -14.1455 C   0  0  0  0  0  0  0  0  0  0  0  0
   25.9954  -19.1697  -13.3240 C   0  0  0  0  0  0  0  0  0  0  0  0
   24.9939  -19.1071  -12.4915 O   0  0  0  0  0  0  0  0  0  0  0  0
   26.7194  -20.3573  -13.2798 N   0  0  0  0  0  0  0  0  0  0  0  0
   26.9028  -21.1622  -14.5462 C   0  0  0  0  0  0  0  0  0  0  0  0
   28.4171  -21.3099  -14.5123 C   0  0  0  0  0  0  0  0  0  0  0  0
   28.8240  -21.1622  -13.0418 C   0  0  0  0  0  0  0  0  0  0  0  0
   27.4341  -21.1772  -12.3689 C   0  0  1  0  0  0  0  0  0  0  0  0
   27.5053  -20.8864  -10.9673 C   0  0  0  0  0  0  0  0  0  0  0  0
   28.5331  -20.7338  -10.3215 O   0  0  0  0  0  0  0  0  0  0  0  0
   27.8604  -19.2811   -5.8679 C   0  0  0  0  0  0  0  0  0  0  0  0
   26.9912  -20.3131   -6.5640 C   0  0  0  0  0  0  0  0  0  0  0  0
   27.0622  -20.0242   -8.0497 C   0  0  2  0  0  0  0  0  0  0  0  0
   26.4032  -18.6748   -8.2506 C   0  0  0  0  0  0  0  0  0  0  0  0
   26.2530  -21.0383   -8.8426 C   0  0  2  0  0  0  0  0  0  0  0  0
   26.2598  -20.7596  -10.2405 N   0  0  0  0  0  0  0  0  0  0  0  0
   24.8710  -20.9715   -8.3364 C   0  0  0  0  0  0  0  0  0  0  0  0
   24.5817  -21.4125   -7.0690 O   0  0  0  0  0  0  0  0  0  0  0  0
   23.9655  -20.5155   -9.0571 O   0  0  0  0  0  0  0  0  0  0  0  0
  2  1  1  0
  3  2  1  0
  4  3  2  0
  5  6  1  0
  5  3  1  0
  7  6  1  0
  8  9  1  0
  8  7  1  0
  9 10  1  1
  9  5  1  0
 10 17  1  0
 11 10  2  0
 12 13  1  0
 13 14  1  0
 14 15  1  1
 16 18  1  0
 16 14  1  0
 16 17  1  6
 18 19  1  0
 20 18  2  0
M  END
$$$$
