GPI.pdb
     RDKit          3D

 20 20  0  0  1  0  0  0  0  0999 V2000
   23.3371  -19.5644  -16.9110 N   0  0  0  0  0  0  0  0  0  0  0  0
   24.7232  -19.3374  -16.4140 C   0  0  0  0  0  0  0  0  0  0  0  0
   24.8757  -19.9834  -15.1159 C   0  0  0  0  0  0  0  0  0  0  0  0
   23.8138  -19.9231  -14.3619 O   0  0  0  0  0  0  0  0  0  0  0  0
   25.9580  -20.6503  -14.5498 N   0  0  0  0  0  0  0  0  0  0  0  0
   26.7065  -21.6782  -15.3674 C   0  0  0  0  0  0  0  0  0  0  0  0
   28.1182  -21.1404  -15.1837 C   0  0  0  0  0  0  0  0  0  0  0  0
   28.0991  -20.3387  -13.8773 C   0  0  0  0  0  0  0  0  0  0  0  0
   26.7005  -20.7171  -13.3428 C   0  0  1  0  0  0  0  0  0  0  0  0
   26.3414  -19.9635  -12.1778 C   0  0  0  0  0  0  0  0  0  0  0  0
   26.3151  -18.7429  -12.0976 O   0  0  0  0  0  0  0  0  0  0  0  0
   22.7189  -21.3590   -7.9019 C   0  0  0  0  0  0  0  0  0  0  0  0
   24.1830  -21.2535   -8.2897 C   0  0  0  0  0  0  0  0  0  0  0  0
   24.2948  -20.1307   -9.3009 C   0  0  2  0  0  0  0  0  0  0  0  0
   23.4666  -20.5540  -10.4969 C   0  0  0  0  0  0  0  0  0  0  0  0
   25.7276  -19.9715   -9.7843 C   0  0  2  0  0  0  0  0  0  0  0  0
   25.9757  -20.6981  -10.9853 N   0  0  0  0  0  0  0  0  0  0  0  0
   26.5991  -20.4840   -8.7127 C   0  0  0  0  0  0  0  0  0  0  0  0
   27.3016  -21.6489   -8.8969 O   0  0  0  0  0  0  0  0  0  0  0  0
   26.6989  -19.8616   -7.6404 O   0  0  0  0  0  0  0  0  0  0  0  0
  2  1  1  0
  3  2  1  0
  4  3  2  0
  5  6  1  0
  5  3  1  0
  7  6  1  0
  8  9  1  0
  8  7  1  0
  9 10  1  1
  9  5  1  0
 10 17  1  0
 11 10  2  0
 12 13  1  0
 13 14  1  0
 14 15  1  6
 16 18  1  0
 16 14  1  0
 16 17  1  6
 18 19  1  0
 20 18  2  0
M  END
$$$$
