GPI.pdb
     RDKit          3D

 20 20  0  0  1  0  0  0  0  0999 V2000
   17.0794  -20.0054  -16.3273 N   0  0  0  0  0  0  0  0  0  0  0  0
   17.8960  -19.7867  -15.1005 C   0  0  0  0  0  0  0  0  0  0  0  0
   18.7139  -20.9686  -14.8556 C   0  0  0  0  0  0  0  0  0  0  0  0
   18.1684  -22.0857  -15.2485 O   0  0  0  0  0  0  0  0  0  0  0  0
   19.9722  -21.1038  -14.2768 N   0  0  0  0  0  0  0  0  0  0  0  0
   21.0522  -20.0984  -14.6053 C   0  0  0  0  0  0  0  0  0  0  0  0
   21.4535  -19.7148  -13.1884 C   0  0  0  0  0  0  0  0  0  0  0  0
   21.0644  -20.9031  -12.3018 C   0  0  0  0  0  0  0  0  0  0  0  0
   20.6877  -21.9405  -13.3820 C   0  0  1  0  0  0  0  0  0  0  0  0
   20.1169  -23.1287  -12.8193 C   0  0  0  0  0  0  0  0  0  0  0  0
   20.4541  -24.2753  -13.0806 O   0  0  0  0  0  0  0  0  0  0  0  0
   19.0369  -24.5571   -7.2384 C   0  0  0  0  0  0  0  0  0  0  0  0
   18.8004  -24.9893   -8.6745 C   0  0  0  0  0  0  0  0  0  0  0  0
   19.1207  -23.7986   -9.5551 C   0  0  2  0  0  0  0  0  0  0  0  0
   18.2466  -22.6623   -9.0650 C   0  0  0  0  0  0  0  0  0  0  0  0
   18.7331  -24.0682  -11.0004 C   0  0  2  0  0  0  0  0  0  0  0  0
   19.0472  -22.9726  -11.8565 N   0  0  0  0  0  0  0  0  0  0  0  0
   17.2784  -24.3008  -11.0161 C   0  0  0  0  0  0  0  0  0  0  0  0
   16.7845  -25.5727  -10.8650 O   0  0  0  0  0  0  0  0  0  0  0  0
   16.4967  -23.3450  -11.1661 O   0  0  0  0  0  0  0  0  0  0  0  0
  2  1  1  0
  3  2  1  0
  4  3  2  0
  5  6  1  0
  5  3  1  0
  7  6  1  0
  8  9  1  0
  8  7  1  0
  9 10  1  1
  9  5  1  0
 10 17  1  0
 11 10  2  0
 12 13  1  0
 13 14  1  0
 14 15  1  1
 16 18  1  0
 16 14  1  0
 16 17  1  6
 18 19  1  0
 20 18  2  0
M  END
$$$$
