GPI.pdb
     RDKit          3D

 20 20  0  0  1  0  0  0  0  0999 V2000
   16.7969  -12.4519  -17.7369 N   0  0  0  0  0  0  0  0  0  0  0  0
   16.1718  -11.1021  -17.8188 C   0  0  0  0  0  0  0  0  0  0  0  0
   17.1980  -10.0881  -17.6079 C   0  0  0  0  0  0  0  0  0  0  0  0
   18.2176  -10.4988  -16.9067 O   0  0  0  0  0  0  0  0  0  0  0  0
   17.2720   -8.7633  -18.0274 N   0  0  0  0  0  0  0  0  0  0  0  0
   16.9575   -8.4217  -19.4660 C   0  0  0  0  0  0  0  0  0  0  0  0
   15.9275   -7.3274  -19.2268 C   0  0  0  0  0  0  0  0  0  0  0  0
   16.2249   -6.7635  -17.8328 C   0  0  0  0  0  0  0  0  0  0  0  0
   17.5664   -7.4669  -17.5320 C   0  0  1  0  0  0  0  0  0  0  0  0
   18.0095   -7.2410  -16.1879 C   0  0  0  0  0  0  0  0  0  0  0  0
   17.3736   -7.4966  -15.1744 O   0  0  0  0  0  0  0  0  0  0  0  0
   22.8542   -5.1596  -15.1302 C   0  0  0  0  0  0  0  0  0  0  0  0
   22.0940   -6.3771  -15.6252 C   0  0  0  0  0  0  0  0  0  0  0  0
   21.2281   -6.8567  -14.4781 C   0  0  2  0  0  0  0  0  0  0  0  0
   21.2547   -8.3706  -14.5317 C   0  0  0  0  0  0  0  0  0  0  0  0
   19.7816   -6.4289  -14.6695 C   0  0  2  0  0  0  0  0  0  0  0  0
   19.3219   -6.6603  -15.9987 N   0  0  0  0  0  0  0  0  0  0  0  0
   19.7203   -4.9868  -14.3740 C   0  0  0  0  0  0  0  0  0  0  0  0
   19.5190   -4.0855  -15.3897 O   0  0  0  0  0  0  0  0  0  0  0  0
   19.8508   -4.5850  -13.2041 O   0  0  0  0  0  0  0  0  0  0  0  0
  2  1  1  0
  3  2  1  0
  4  3  2  0
  5  6  1  0
  5  3  1  0
  7  6  1  0
  8  9  1  0
  8  7  1  0
  9 10  1  1
  9  5  1  0
 10 17  1  0
 11 10  2  0
 12 13  1  0
 13 14  1  0
 14 15  1  6
 16 18  1  0
 16 14  1  0
 16 17  1  6
 18 19  1  0
 20 18  2  0
M  END
$$$$
