GPI.pdb
     RDKit          3D

 20 20  0  0  1  0  0  0  0  0999 V2000
   28.5751  -23.2588  -16.2697 N   0  0  0  0  0  0  0  0  0  0  0  0
   28.3185  -21.8892  -16.7969 C   0  0  0  0  0  0  0  0  0  0  0  0
   27.2490  -21.2725  -16.0211 C   0  0  0  0  0  0  0  0  0  0  0  0
   26.3023  -22.0967  -15.6685 O   0  0  0  0  0  0  0  0  0  0  0  0
   27.0703  -19.9597  -15.5957 N   0  0  0  0  0  0  0  0  0  0  0  0
   28.2559  -19.1808  -15.0734 C   0  0  0  0  0  0  0  0  0  0  0  0
   28.1283  -17.9440  -15.9509 C   0  0  0  0  0  0  0  0  0  0  0  0
   26.6546  -17.8699  -16.3661 C   0  0  0  0  0  0  0  0  0  0  0  0
   26.0590  -18.9734  -15.4647 C   0  0  1  0  0  0  0  0  0  0  0  0
   24.6835  -19.2392  -15.7674 C   0  0  0  0  0  0  0  0  0  0  0  0
   24.2162  -19.3936  -16.8876 O   0  0  0  0  0  0  0  0  0  0  0  0
   20.3185  -22.6421  -13.6009 C   0  0  0  0  0  0  0  0  0  0  0  0
   20.5987  -21.3923  -14.4161 C   0  0  0  0  0  0  0  0  0  0  0  0
   22.0268  -20.9807  -14.1214 C   0  0  2  0  0  0  0  0  0  0  0  0
   22.0604  -20.5858  -12.6590 C   0  0  0  0  0  0  0  0  0  0  0  0
   22.4176  -19.7503  -14.9248 C   0  0  2  0  0  0  0  0  0  0  0  0
   23.7556  -19.3361  -14.6605 N   0  0  0  0  0  0  0  0  0  0  0  0
   21.4867  -18.6754  -14.5393 C   0  0  0  0  0  0  0  0  0  0  0  0
   20.3095  -18.5074  -15.2252 O   0  0  0  0  0  0  0  0  0  0  0  0
   21.7668  -17.9194  -13.5921 O   0  0  0  0  0  0  0  0  0  0  0  0
  2  1  1  0
  3  2  1  0
  4  3  2  0
  5  6  1  0
  5  3  1  0
  7  6  1  0
  8  9  1  0
  8  7  1  0
  9 10  1  6
  9  5  1  0
 10 17  1  0
 11 10  2  0
 12 13  1  0
 13 14  1  0
 14 15  1  1
 16 18  1  0
 16 14  1  0
 16 17  1  1
 18 19  1  0
 20 18  2  0
M  END
$$$$
