GPI.pdb
     RDKit          3D

 20 20  0  0  1  0  0  0  0  0999 V2000
   19.2680  -15.7471  -18.0159 N   0  0  0  0  0  0  0  0  0  0  0  0
   18.7646  -14.3479  -18.1089 C   0  0  0  0  0  0  0  0  0  0  0  0
   19.8994  -13.4325  -18.1135 C   0  0  0  0  0  0  0  0  0  0  0  0
   20.9608  -13.8956  -17.5143 O   0  0  0  0  0  0  0  0  0  0  0  0
   20.0395  -12.1551  -18.6474 N   0  0  0  0  0  0  0  0  0  0  0  0
   19.6092  -11.8953  -20.0731 C   0  0  0  0  0  0  0  0  0  0  0  0
   18.7029  -10.6974  -19.8294 C   0  0  0  0  0  0  0  0  0  0  0  0
   19.1865  -10.0598  -18.5220 C   0  0  0  0  0  0  0  0  0  0  0  0
   20.4890  -10.8572  -18.2924 C   0  0  1  0  0  0  0  0  0  0  0  0
   21.0839  -10.5721  -17.0200 C   0  0  0  0  0  0  0  0  0  0  0  0
   20.5893  -10.8212  -15.9290 O   0  0  0  0  0  0  0  0  0  0  0  0
   26.4083  -11.2206  -16.3479 C   0  0  0  0  0  0  0  0  0  0  0  0
   24.8978  -11.2059  -16.1952 C   0  0  0  0  0  0  0  0  0  0  0  0
   24.5049   -9.7968  -15.8005 C   0  0  2  0  0  0  0  0  0  0  0  0
   25.0147   -9.5950  -14.3881 C   0  0  0  0  0  0  0  0  0  0  0  0
   22.9928   -9.6437  -15.7552 C   0  0  2  0  0  0  0  0  0  0  0  0
   22.3832   -9.9340  -17.0105 N   0  0  0  0  0  0  0  0  0  0  0  0
   22.7163   -8.2438  -15.3884 C   0  0  0  0  0  0  0  0  0  0  0  0
   22.5704   -7.8956  -14.0686 O   0  0  0  0  0  0  0  0  0  0  0  0
   22.6149   -7.3766  -16.2742 O   0  0  0  0  0  0  0  0  0  0  0  0
  2  1  1  0
  3  2  1  0
  4  3  2  0
  5  6  1  0
  5  3  1  0
  7  6  1  0
  8  9  1  0
  8  7  1  0
  9 10  1  1
  9  5  1  0
 10 17  1  0
 11 10  2  0
 12 13  1  0
 13 14  1  0
 14 15  1  1
 16 18  1  0
 16 14  1  0
 16 17  1  6
 18 19  1  0
 20 18  2  0
M  END
$$$$
