GPI.pdb
     RDKit          3D

 20 20  0  0  1  0  0  0  0  0999 V2000
   22.1995  -20.8450  -12.7344 N   0  0  0  0  0  0  0  0  0  0  0  0
   23.6444  -20.4998  -12.8465 C   0  0  0  0  0  0  0  0  0  0  0  0
   24.3144  -20.8416  -11.5975 C   0  0  0  0  0  0  0  0  0  0  0  0
   23.5389  -20.8089  -10.5499 O   0  0  0  0  0  0  0  0  0  0  0  0
   25.6348  -21.1956  -11.3371 N   0  0  0  0  0  0  0  0  0  0  0  0
   26.3280  -22.1910  -12.2391 C   0  0  0  0  0  0  0  0  0  0  0  0
   27.5740  -21.3813  -12.5673 C   0  0  0  0  0  0  0  0  0  0  0  0
   27.7513  -20.3902  -11.4115 C   0  0  0  0  0  0  0  0  0  0  0  0
   26.6880  -20.9232  -10.4265 C   0  0  1  0  0  0  0  0  0  0  0  0
   26.5189  -20.0643   -9.2917 C   0  0  0  0  0  0  0  0  0  0  0  0
   26.0407  -18.9384   -9.3138 O   0  0  0  0  0  0  0  0  0  0  0  0
   28.7048  -21.4838   -4.0448 C   0  0  0  0  0  0  0  0  0  0  0  0
   28.5503  -20.9520   -5.4584 C   0  0  0  0  0  0  0  0  0  0  0  0
   27.1496  -20.3850   -5.5691 C   0  0  2  0  0  0  0  0  0  0  0  0
   26.2104  -21.5739   -5.5694 C   0  0  0  0  0  0  0  0  0  0  0  0
   26.9555  -19.6628   -6.8930 C   0  0  2  0  0  0  0  0  0  0  0  0
   26.9470  -20.5599   -8.0007 N   0  0  0  0  0  0  0  0  0  0  0  0
   28.0794  -18.7207   -7.0341 C   0  0  0  0  0  0  0  0  0  0  0  0
   28.1410  -17.6014   -6.2417 O   0  0  0  0  0  0  0  0  0  0  0  0
   28.9731  -18.9388   -7.8712 O   0  0  0  0  0  0  0  0  0  0  0  0
  2  1  1  0
  3  2  1  0
  4  3  2  0
  5  6  1  0
  5  3  1  0
  7  6  1  0
  8  9  1  0
  8  7  1  0
  9 10  1  1
  9  5  1  0
 10 17  1  0
 11 10  2  0
 12 13  1  0
 13 14  1  0
 14 15  1  6
 16 18  1  0
 16 14  1  0
 16 17  1  6
 18 19  1  0
 20 18  2  0
M  END
$$$$
