GPI.pdb
     RDKit          3D

 20 20  0  0  1  0  0  0  0  0999 V2000
   18.3898  -15.9887  -17.0947 N   0  0  0  0  0  0  0  0  0  0  0  0
   17.8642  -14.6132  -17.3211 C   0  0  0  0  0  0  0  0  0  0  0  0
   18.9572  -13.6575  -17.1882 C   0  0  0  0  0  0  0  0  0  0  0  0
   19.8210  -13.9606  -16.2598 O   0  0  0  0  0  0  0  0  0  0  0  0
   19.2323  -12.4831  -17.8822 N   0  0  0  0  0  0  0  0  0  0  0  0
   18.9578  -12.4170  -19.3673 C   0  0  0  0  0  0  0  0  0  0  0  0
   18.1143  -11.1507  -19.3932 C   0  0  0  0  0  0  0  0  0  0  0  0
   18.5128  -10.3510  -18.1476 C   0  0  0  0  0  0  0  0  0  0  0  0
   19.7314  -11.1718  -17.6721 C   0  0  1  0  0  0  0  0  0  0  0  0
   20.2204  -10.7314  -16.3989 C   0  0  0  0  0  0  0  0  0  0  0  0
   19.6150  -10.8034  -15.3381 O   0  0  0  0  0  0  0  0  0  0  0  0
   25.5073  -11.2116  -15.1059 C   0  0  0  0  0  0  0  0  0  0  0  0
   23.9892  -11.2158  -15.0958 C   0  0  0  0  0  0  0  0  0  0  0  0
   23.5417   -9.7723  -14.9878 C   0  0  2  0  0  0  0  0  0  0  0  0
   23.9176   -9.3157  -13.5929 C   0  0  0  0  0  0  0  0  0  0  0  0
   22.0297   -9.6591  -15.1019 C   0  0  2  0  0  0  0  0  0  0  0  0
   21.5446  -10.1486  -16.3496 N   0  0  0  0  0  0  0  0  0  0  0  0
   21.6978   -8.2293  -14.9741 C   0  0  0  0  0  0  0  0  0  0  0  0
   21.2865   -7.7250  -13.7654 O   0  0  0  0  0  0  0  0  0  0  0  0
   21.7901   -7.4782  -15.9612 O   0  0  0  0  0  0  0  0  0  0  0  0
  2  1  1  0
  3  2  1  0
  4  3  2  0
  5  6  1  0
  5  3  1  0
  7  6  1  0
  8  9  1  0
  8  7  1  0
  9 10  1  1
  9  5  1  0
 10 17  1  0
 11 10  2  0
 12 13  1  0
 13 14  1  0
 14 15  1  1
 16 18  1  0
 16 14  1  0
 16 17  1  6
 18 19  1  0
 20 18  2  0
M  END
$$$$
