GPI.pdb
     RDKit          3D

 20 20  0  0  1  0  0  0  0  0999 V2000
   25.1151  -19.3352  -16.2956 N   0  0  0  0  0  0  0  0  0  0  0  0
   26.3310  -19.2317  -15.4409 C   0  0  0  0  0  0  0  0  0  0  0  0
   26.1371  -20.0318  -14.2375 C   0  0  0  0  0  0  0  0  0  0  0  0
   24.9053  -20.0647  -13.8116 O   0  0  0  0  0  0  0  0  0  0  0  0
   27.0406  -20.7626  -13.4719 N   0  0  0  0  0  0  0  0  0  0  0  0
   27.9308  -21.7816  -14.1460 C   0  0  0  0  0  0  0  0  0  0  0  0
   29.2751  -21.3055  -13.6151 C   0  0  0  0  0  0  0  0  0  0  0  0
   28.9748  -20.5608  -12.3093 C   0  0  0  0  0  0  0  0  0  0  0  0
   27.4809  -20.9092  -12.1313 C   0  0  1  0  0  0  0  0  0  0  0  0
   26.8815  -20.1936  -11.0437 C   0  0  0  0  0  0  0  0  0  0  0  0
   26.6789  -18.9875  -11.0085 O   0  0  0  0  0  0  0  0  0  0  0  0
   22.5881  -21.6859   -7.9622 C   0  0  0  0  0  0  0  0  0  0  0  0
   23.6066  -20.8621   -8.7297 C   0  0  0  0  0  0  0  0  0  0  0  0
   24.9231  -20.9812   -7.9891 C   0  0  2  0  0  0  0  0  0  0  0  0
   24.7270  -20.2787   -6.6612 C   0  0  0  0  0  0  0  0  0  0  0  0
   26.0319  -20.2447   -8.7240 C   0  0  2  0  0  0  0  0  0  0  0  0
   26.4758  -20.9518   -9.8792 N   0  0  0  0  0  0  0  0  0  0  0  0
   27.1510  -20.1026   -7.7764 C   0  0  0  0  0  0  0  0  0  0  0  0
   27.2412  -18.9864   -6.9824 O   0  0  0  0  0  0  0  0  0  0  0  0
   28.0147  -20.9939   -7.6951 O   0  0  0  0  0  0  0  0  0  0  0  0
  2  1  1  0
  3  2  1  0
  4  3  2  0
  5  6  1  0
  5  3  1  0
  7  6  1  0
  8  9  1  0
  8  7  1  0
  9 10  1  1
  9  5  1  0
 10 17  1  0
 11 10  2  0
 12 13  1  0
 13 14  1  0
 14 15  1  1
 16 18  1  0
 16 14  1  0
 16 17  1  6
 18 19  1  0
 20 18  2  0
M  END
$$$$
