GPI.pdb
     RDKit          3D

 20 20  0  0  1  0  0  0  0  0999 V2000
   27.7429  -23.1342  -17.1229 N   0  0  0  0  0  0  0  0  0  0  0  0
   27.1220  -21.8203  -16.7945 C   0  0  0  0  0  0  0  0  0  0  0  0
   27.3805  -21.5078  -15.3940 C   0  0  0  0  0  0  0  0  0  0  0  0
   27.6277  -22.5507  -14.6516 O   0  0  0  0  0  0  0  0  0  0  0  0
   27.4081  -20.2904  -14.7205 N   0  0  0  0  0  0  0  0  0  0  0  0
   28.1306  -19.1158  -15.3398 C   0  0  0  0  0  0  0  0  0  0  0  0
   27.0122  -18.0867  -15.2640 C   0  0  0  0  0  0  0  0  0  0  0  0
   26.0926  -18.5440  -14.1261 C   0  0  0  0  0  0  0  0  0  0  0  0
   26.9443  -19.6834  -13.5250 C   0  0  1  0  0  0  0  0  0  0  0  0
   26.2380  -20.4161  -12.5159 C   0  0  0  0  0  0  0  0  0  0  0  0
   25.2761  -21.1476  -12.7068 O   0  0  0  0  0  0  0  0  0  0  0  0
   27.2935  -19.5434   -6.8668 C   0  0  0  0  0  0  0  0  0  0  0  0
   26.5285  -19.5633   -8.1780 C   0  0  0  0  0  0  0  0  0  0  0  0
   26.7288  -20.9356   -8.7884 C   0  0  2  0  0  0  0  0  0  0  0  0
   28.2154  -21.0709   -9.0474 C   0  0  0  0  0  0  0  0  0  0  0  0
   26.0299  -21.0420  -10.1346 C   0  0  2  0  0  0  0  0  0  0  0  0
   26.6920  -20.2884  -11.1472 N   0  0  0  0  0  0  0  0  0  0  0  0
   24.6646  -20.5202   -9.9493 C   0  0  0  0  0  0  0  0  0  0  0  0
   23.7320  -21.2628   -9.2686 O   0  0  0  0  0  0  0  0  0  0  0  0
   24.3561  -19.4066  -10.4094 O   0  0  0  0  0  0  0  0  0  0  0  0
  2  1  1  0
  3  2  1  0
  4  3  2  0
  5  6  1  0
  5  3  1  0
  7  6  1  0
  8  9  1  0
  8  7  1  0
  9 10  1  6
  9  5  1  0
 10 17  1  0
 11 10  2  0
 12 13  1  0
 13 14  1  0
 14 15  1  6
 16 18  1  0
 16 14  1  0
 16 17  1  6
 18 19  1  0
 20 18  2  0
M  END
$$$$
