RVI.pdb
     RDKit          3D

 27 26  0  0  1  0  0  0  0  0999 V2000
   18.5289  -20.2486  -13.5518 N   0  0  0  0  0  0  0  0  0  0  0  0
   19.1512  -19.0262  -13.9346 C   0  0  0  0  0  0  0  0  0  0  0  0
   18.4756  -18.0671  -14.4995 N   0  0  0  0  0  0  0  0  0  0  0  0
   20.5297  -18.7796  -13.7182 N   0  0  0  0  0  0  0  0  0  0  0  0
   21.4976  -19.8391  -13.6404 C   0  0  0  0  0  0  0  0  0  0  0  0
   21.3949  -20.7188  -12.4574 C   0  0  0  0  0  0  0  0  0  0  0  0
   22.6084  -21.1824  -11.7724 C   0  0  0  0  0  0  0  0  0  0  0  0
   23.9290  -21.0585  -12.4141 C   0  0  2  0  0  0  0  0  0  0  0  0
   23.9856  -21.7148  -13.7004 N   0  0  0  0  0  0  0  0  0  0  0  0
   24.9579  -21.6994  -11.5128 C   0  0  0  0  0  0  0  0  0  0  0  0
   25.1045  -22.9255  -11.4353 O   0  0  0  0  0  0  0  0  0  0  0  0
   19.0009  -17.2182  -14.7752 C   0  0  0  0  0  0  0  0  0  0  0  0
   28.2470  -19.4672  -11.2987 C   0  0  1  0  0  0  0  0  0  0  0  0
   28.1089  -20.9352  -10.9949 C   0  0  0  0  0  0  0  0  0  0  0  0
   28.0769  -21.7783  -12.2435 C   0  0  1  0  0  0  0  0  0  0  0  0
   26.9902  -21.2634  -10.0384 N   0  0  0  0  0  0  0  0  0  0  0  0
   25.7719  -20.8742  -10.7407 C   0  0  0  0  0  0  0  0  0  0  0  0
   27.0166  -20.5082   -8.7718 O   0  0  0  0  0  0  0  0  0  0  0  0
   26.1314  -19.5928   -8.6494 C   0  0  0  0  0  0  0  0  0  0  0  0
   28.4712  -22.5120   -3.7881 C   0  0  0  0  0  0  0  0  0  0  0  0
   27.7850  -21.7500   -4.8611 C   0  0  2  0  0  0  0  0  0  0  0  0
   28.4070  -20.5099   -5.3641 C   0  0  0  0  0  0  0  0  0  0  0  0
   28.6077  -19.5847   -4.1619 C   0  0  2  0  0  0  0  0  0  0  0  0
   27.7753  -19.8499   -6.5009 N   0  0  0  0  0  0  0  0  0  0  0  0
   27.9090  -20.7019   -7.7147 C   0  0  0  0  0  0  0  0  0  0  0  0
   28.1265  -18.4753   -6.8711 O   0  0  0  0  0  0  0  0  0  0  0  0
   29.1219  -18.3106   -7.6743 O   0  0  0  0  0  0  0  0  0  0  0  0
  2  1  1  0
  3  2  2  0
  4  2  1  0
  5  6  1  0
  5  4  1  0
  7  6  1  0
  8  9  1  6
  8  7  1  0
 10  8  1  0
 11 10  2  0
 13 12  1  1
 13 14  1  0
 15 13  1  0
 15 16  1  6
 16 10  1  0
 17 15  1  0
 18 17  2  0
 20 19  1  0
 20 21  1  0
 21 23  1  0
 21 22  1  6
 23 24  1  1
 24 17  1  0
 25 23  1  0
 25 27  1  0
 26 25  2  0
M  END
$$$$
