RVI.pdb
     RDKit          3D

 27 26  0  0  1  0  0  0  0  0999 V2000
   20.4037  -23.3997   -8.2625 N   0  0  0  0  0  0  0  0  0  0  0  0
   19.5798  -23.3005   -9.4198 C   0  0  0  0  0  0  0  0  0  0  0  0
   18.3645  -23.7676   -9.4312 N   0  0  0  0  0  0  0  0  0  0  0  0
   20.0268  -22.6855  -10.6155 N   0  0  0  0  0  0  0  0  0  0  0  0
   21.3590  -22.1666  -10.7621 C   0  0  0  0  0  0  0  0  0  0  0  0
   21.5641  -20.7793  -10.2962 C   0  0  0  0  0  0  0  0  0  0  0  0
   22.8970  -20.1662  -10.3613 C   0  0  0  0  0  0  0  0  0  0  0  0
   24.1120  -20.9960  -10.2810 C   0  0  2  0  0  0  0  0  0  0  0  0
   24.5393  -21.2254   -8.9197 N   0  0  0  0  0  0  0  0  0  0  0  0
   25.2253  -20.2812  -11.0099 C   0  0  0  0  0  0  0  0  0  0  0  0
   25.9476  -19.4393  -10.4619 O   0  0  0  0  0  0  0  0  0  0  0  0
   17.8209  -23.6489  -10.3047 C   0  0  0  0  0  0  0  0  0  0  0  0
   28.5169  -20.9447  -14.4466 C   0  0  1  0  0  0  0  0  0  0  0  0
   27.2683  -21.2668  -13.6697 C   0  0  0  0  0  0  0  0  0  0  0  0
   26.3958  -22.2711  -14.3777 C   0  0  2  0  0  0  0  0  0  0  0  0
   26.5037  -20.0539  -13.2027 N   0  0  0  0  0  0  0  0  0  0  0  0
   25.4443  -20.5848  -12.3514 C   0  0  0  0  0  0  0  0  0  0  0  0
   25.8478  -19.2839  -14.2761 O   0  0  0  0  0  0  0  0  0  0  0  0
   24.6570  -19.6445  -14.5738 C   0  0  0  0  0  0  0  0  0  0  0  0
   24.4336  -13.7885  -16.0219 C   0  0  0  0  0  0  0  0  0  0  0  0
   24.6748  -15.1881  -16.4532 C   0  0  2  0  0  0  0  0  0  0  0  0
   25.3904  -16.1016  -15.5415 C   0  0  0  0  0  0  0  0  0  0  0  0
   26.7095  -15.4233  -15.1651 C   0  0  2  0  0  0  0  0  0  0  0  0
   25.5546  -17.4875  -15.9651 N   0  0  0  0  0  0  0  0  0  0  0  0
   26.4048  -18.2157  -14.9833 C   0  0  0  0  0  0  0  0  0  0  0  0
   26.0328  -17.8175  -17.3113 O   0  0  0  0  0  0  0  0  0  0  0  0
   27.2843  -18.0979  -17.4468 O   0  0  0  0  0  0  0  0  0  0  0  0
  2  1  1  0
  3  2  2  0
  4  2  1  0
  5  6  1  0
  5  4  1  0
  7  6  1  0
  8  9  1  1
  8  7  1  0
 10  8  1  0
 11 10  2  0
 13 12  1  1
 13 14  1  0
 15 13  1  0
 15 16  1  6
 16 10  1  0
 17 15  1  0
 18 17  2  0
 20 19  1  0
 20 21  1  0
 21 23  1  0
 21 22  1  1
 23 24  1  6
 24 17  1  0
 25 23  1  0
 25 27  1  0
 26 25  2  0
M  END
$$$$
