RVI.pdb
     RDKit          3D

 27 26  0  0  1  0  0  0  0  0999 V2000
   14.9215  -20.9915  -12.5798 N   0  0  0  0  0  0  0  0  0  0  0  0
   16.1365  -21.0581  -11.8399 C   0  0  0  0  0  0  0  0  0  0  0  0
   16.1881  -21.6210  -10.6669 N   0  0  0  0  0  0  0  0  0  0  0  0
   17.3533  -20.5272  -12.3351 N   0  0  0  0  0  0  0  0  0  0  0  0
   17.4316  -19.8172  -13.5822 C   0  0  0  0  0  0  0  0  0  0  0  0
   18.2823  -20.4338  -14.6214 C   0  0  0  0  0  0  0  0  0  0  0  0
   19.7218  -20.6106  -14.3904 C   0  0  0  0  0  0  0  0  0  0  0  0
   20.6184  -21.0026  -15.4921 C   0  0  2  0  0  0  0  0  0  0  0  0
   19.9447  -21.7800  -16.5070 N   0  0  0  0  0  0  0  0  0  0  0  0
   21.7359  -21.8426  -14.9200 C   0  0  0  0  0  0  0  0  0  0  0  0
   21.5351  -22.9299  -14.3649 O   0  0  0  0  0  0  0  0  0  0  0  0
   17.1239  -21.7334  -10.2377 C   0  0  0  0  0  0  0  0  0  0  0  0
   24.3573  -23.2631  -16.8718 C   0  0  1  0  0  0  0  0  0  0  0  0
   25.0098  -22.2874  -15.9291 C   0  0  0  0  0  0  0  0  0  0  0  0
   26.4704  -22.5889  -15.7128 C   0  0  2  0  0  0  0  0  0  0  0  0
   24.2575  -22.0811  -14.6386 N   0  0  0  0  0  0  0  0  0  0  0  0
   23.0424  -21.3712  -15.0238 C   0  0  0  0  0  0  0  0  0  0  0  0
   24.9507  -21.2399  -13.6451 O   0  0  0  0  0  0  0  0  0  0  0  0
   24.8914  -19.9776  -13.8443 C   0  0  0  0  0  0  0  0  0  0  0  0
   24.4603  -20.9872   -8.4078 C   0  0  0  0  0  0  0  0  0  0  0  0
   24.7694  -20.7597   -9.8415 C   0  0  2  0  0  0  0  0  0  0  0  0
   26.1624  -20.9148  -10.3036 C   0  0  0  0  0  0  0  0  0  0  0  0
   27.0398  -20.0541   -9.3920 C   0  0  2  0  0  0  0  0  0  0  0  0
   26.4304  -20.7107  -11.7226 N   0  0  0  0  0  0  0  0  0  0  0  0
   25.6543  -21.6942  -12.5272 C   0  0  0  0  0  0  0  0  0  0  0  0
   27.8024  -20.6846  -12.2392 O   0  0  0  0  0  0  0  0  0  0  0  0
   28.3491  -21.8145  -12.5351 O   0  0  0  0  0  0  0  0  0  0  0  0
  2  1  1  0
  3  2  2  0
  4  2  1  0
  5  6  1  0
  5  4  1  0
  7  6  1  0
  8  9  1  6
  8  7  1  0
 10  8  1  0
 11 10  2  0
 13 12  1  6
 13 14  1  0
 15 13  1  0
 15 16  1  1
 16 10  1  0
 17 15  1  0
 18 17  2  0
 20 19  1  0
 20 21  1  0
 21 23  1  0
 21 22  1  6
 23 24  1  6
 24 17  1  0
 25 23  1  0
 25 27  1  0
 26 25  2  0
M  END
$$$$
