RVI.pdb
     RDKit          3D

 27 26  0  0  1  0  0  0  0  0999 V2000
   17.6810  -25.5380  -13.7555 N   0  0  0  0  0  0  0  0  0  0  0  0
   18.8173  -25.7250  -14.5934 C   0  0  0  0  0  0  0  0  0  0  0  0
   18.9076  -26.7438  -15.3991 N   0  0  0  0  0  0  0  0  0  0  0  0
   19.9048  -24.8167  -14.6061 N   0  0  0  0  0  0  0  0  0  0  0  0
   19.9747  -23.6881  -13.7191 C   0  0  0  0  0  0  0  0  0  0  0  0
   20.0405  -22.3623  -14.3687 C   0  0  0  0  0  0  0  0  0  0  0  0
   21.1442  -21.4428  -14.0637 C   0  0  0  0  0  0  0  0  0  0  0  0
   21.4345  -21.0502  -12.6735 C   0  0  2  0  0  0  0  0  0  0  0  0
   20.3802  -20.2526  -12.0896 N   0  0  0  0  0  0  0  0  0  0  0  0
   22.7038  -20.2312  -12.6655 C   0  0  0  0  0  0  0  0  0  0  0  0
   22.6997  -18.9967  -12.5847 O   0  0  0  0  0  0  0  0  0  0  0  0
   19.7597  -26.8094  -15.9841 C   0  0  0  0  0  0  0  0  0  0  0  0
   25.8229  -21.5525  -10.5725 C   0  0  2  0  0  0  0  0  0  0  0  0
   26.1196  -21.3357  -12.0324 C   0  0  0  0  0  0  0  0  0  0  0  0
   27.5885  -21.1227  -12.2932 C   0  0  2  0  0  0  0  0  0  0  0  0
   25.2514  -20.2921  -12.6888 N   0  0  0  0  0  0  0  0  0  0  0  0
   23.9246  -20.8959  -12.7524 C   0  0  0  0  0  0  0  0  0  0  0  0
   25.6341  -19.9478  -14.0709 O   0  0  0  0  0  0  0  0  0  0  0  0
   25.2552  -20.7689  -14.9758 C   0  0  0  0  0  0  0  0  0  0  0  0
   25.7154  -15.2441  -17.8357 C   0  0  0  0  0  0  0  0  0  0  0  0
   26.1843  -16.6216  -17.5430 C   0  0  2  0  0  0  0  0  0  0  0  0
   26.0782  -17.1323  -16.1625 C   0  0  0  0  0  0  0  0  0  0  0  0
   26.8020  -16.1357  -15.2545 C   0  0  2  0  0  0  0  0  0  0  0  0
   26.4656  -18.5178  -15.9228 N   0  0  0  0  0  0  0  0  0  0  0  0
   26.3623  -18.8242  -14.4694 C   0  0  0  0  0  0  0  0  0  0  0  0
   27.7468  -19.0416  -16.4064 O   0  0  0  0  0  0  0  0  0  0  0  0
   27.8505  -19.2911  -17.6674 O   0  0  0  0  0  0  0  0  0  0  0  0
  2  1  1  0
  3  2  2  0
  4  2  1  0
  5  6  1  0
  5  4  1  0
  7  6  1  0
  8  9  1  6
  8  7  1  0
 10  8  1  0
 11 10  2  0
 13 12  1  6
 13 14  1  0
 15 13  1  0
 15 16  1  1
 16 10  1  0
 17 15  1  0
 18 17  2  0
 20 19  1  0
 20 21  1  0
 21 23  1  0
 21 22  1  1
 23 24  1  6
 24 17  1  0
 25 23  1  0
 25 27  1  0
 26 25  2  0
M  END
$$$$
