RVI.pdb
     RDKit          3D

 27 26  0  0  1  0  0  0  0  0999 V2000
   14.1606  -21.9208   -1.8049 N   0  0  0  0  0  0  0  0  0  0  0  0
   13.1026  -21.6464   -2.7178 C   0  0  0  0  0  0  0  0  0  0  0  0
   12.4923  -20.4962   -2.7253 N   0  0  0  0  0  0  0  0  0  0  0  0
   12.6598  -22.5978   -3.6698 N   0  0  0  0  0  0  0  0  0  0  0  0
   13.5437  -23.5670   -4.2571 C   0  0  0  0  0  0  0  0  0  0  0  0
   13.8979  -23.3397   -5.6737 C   0  0  0  0  0  0  0  0  0  0  0  0
   14.7061  -24.3263   -6.4019 C   0  0  0  0  0  0  0  0  0  0  0  0
   16.0985  -24.5992   -6.0049 C   0  0  2  0  0  0  0  0  0  0  0  0
   16.9302  -24.9823   -7.1229 N   0  0  0  0  0  0  0  0  0  0  0  0
   16.0955  -25.7353   -5.0093 C   0  0  0  0  0  0  0  0  0  0  0  0
   15.5956  -26.8390   -5.2594 O   0  0  0  0  0  0  0  0  0  0  0  0
   11.7470  -20.3615   -3.4316 C   0  0  0  0  0  0  0  0  0  0  0  0
   18.8952  -27.5384   -3.8583 C   0  0  1  0  0  0  0  0  0  0  0  0
   18.3679  -26.7592   -2.6831 C   0  0  0  0  0  0  0  0  0  0  0  0
   18.8430  -27.3168   -1.3661 C   0  0  2  0  0  0  0  0  0  0  0  0
   16.8784  -26.5267   -2.7169 N   0  0  0  0  0  0  0  0  0  0  0  0
   16.6797  -25.5281   -3.7621 C   0  0  0  0  0  0  0  0  0  0  0  0
   16.3101  -25.9689   -1.4755 O   0  0  0  0  0  0  0  0  0  0  0  0
   16.6288  -24.7587   -1.2104 C   0  0  0  0  0  0  0  0  0  0  0  0
   11.2956  -25.5489   -0.0351 C   0  0  0  0  0  0  0  0  0  0  0  0
   12.7678  -25.3991   -0.1490 C   0  0  2  0  0  0  0  0  0  0  0  0
   13.6301  -26.0451    0.8595 C   0  0  0  0  0  0  0  0  0  0  0  0
   13.1583  -25.5635    2.2333 C   0  0  2  0  0  0  0  0  0  0  0  0
   15.0738  -25.9458    0.6778 N   0  0  0  0  0  0  0  0  0  0  0  0
   15.4706  -26.6362   -0.5803 C   0  0  0  0  0  0  0  0  0  0  0  0
   16.0015  -26.3608    1.7346 O   0  0  0  0  0  0  0  0  0  0  0  0
   16.4625  -27.5642    1.6839 O   0  0  0  0  0  0  0  0  0  0  0  0
  2  1  1  0
  3  2  2  0
  4  2  1  0
  5  6  1  0
  5  4  1  0
  7  6  1  0
  8  9  1  6
  8  7  1  0
 10  8  1  0
 11 10  2  0
 13 12  1  6
 13 14  1  0
 15 13  1  0
 15 16  1  1
 16 10  1  0
 17 15  1  0
 18 17  2  0
 20 19  1  0
 20 21  1  0
 21 23  1  0
 21 22  1  6
 23 24  1  6
 24 17  1  0
 25 23  1  0
 25 27  1  0
 26 25  2  0
M  END
$$$$
