RVI.pdb
     RDKit          3D

 27 26  0  0  1  0  0  0  0  0999 V2000
   23.8724  -25.1736  -14.2613 N   0  0  0  0  0  0  0  0  0  0  0  0
   23.4709  -26.1406  -15.2266 C   0  0  0  0  0  0  0  0  0  0  0  0
   22.5410  -27.0143  -14.9674 N   0  0  0  0  0  0  0  0  0  0  0  0
   24.0490  -26.2040  -16.5186 N   0  0  0  0  0  0  0  0  0  0  0  0
   24.9081  -25.1708  -17.0285 C   0  0  0  0  0  0  0  0  0  0  0  0
   26.3589  -25.4083  -16.8791 C   0  0  0  0  0  0  0  0  0  0  0  0
   27.2107  -24.4022  -16.2317 C   0  0  0  0  0  0  0  0  0  0  0  0
   27.2214  -23.0073  -16.7060 C   0  0  2  0  0  0  0  0  0  0  0  0
   28.0858  -22.8152  -17.8481 N   0  0  0  0  0  0  0  0  0  0  0  0
   27.7205  -22.1271  -15.5844 C   0  0  0  0  0  0  0  0  0  0  0  0
   28.9246  -21.9428  -15.3675 O   0  0  0  0  0  0  0  0  0  0  0  0
   22.3308  -27.7127  -15.7028 C   0  0  0  0  0  0  0  0  0  0  0  0
   26.6642  -17.9826  -13.5011 C   0  0  1  0  0  0  0  0  0  0  0  0
   26.4579  -19.2085  -14.3502 C   0  0  0  0  0  0  0  0  0  0  0  0
   25.0204  -19.3807  -14.7684 C   0  0  2  0  0  0  0  0  0  0  0  0
   27.0533  -20.4666  -13.7701 N   0  0  0  0  0  0  0  0  0  0  0  0
   26.7854  -21.5000  -14.7647 C   0  0  0  0  0  0  0  0  0  0  0  0
   26.4402  -20.9165  -12.5064 O   0  0  0  0  0  0  0  0  0  0  0  0
   25.5218  -21.8003  -12.6154 C   0  0  0  0  0  0  0  0  0  0  0  0
   29.0479  -21.0690   -7.6614 C   0  0  0  0  0  0  0  0  0  0  0  0
   28.1352  -21.4525   -8.7672 C   0  0  2  0  0  0  0  0  0  0  0  0
   26.8018  -20.8245   -8.8412 C   0  0  0  0  0  0  0  0  0  0  0  0
   26.0449  -21.2189   -7.5711 C   0  0  2  0  0  0  0  0  0  0  0  0
   26.0269  -21.0252  -10.0603 N   0  0  0  0  0  0  0  0  0  0  0  0
   26.7689  -20.4681  -11.2248 C   0  0  0  0  0  0  0  0  0  0  0  0
   24.6334  -20.5791  -10.1553 O   0  0  0  0  0  0  0  0  0  0  0  0
   24.4219  -19.3578  -10.5115 O   0  0  0  0  0  0  0  0  0  0  0  0
  2  1  1  0
  3  2  2  0
  4  2  1  0
  5  6  1  0
  5  4  1  0
  7  6  1  0
  8  9  1  6
  8  7  1  0
 10  8  1  0
 11 10  2  0
 13 12  1  6
 13 14  1  0
 15 13  1  0
 15 16  1  1
 16 10  1  0
 17 15  1  0
 18 17  2  0
 20 19  1  0
 20 21  1  0
 21 23  1  0
 21 22  1  6
 23 24  1  6
 24 17  1  0
 25 23  1  0
 25 27  1  0
 26 25  2  0
M  END
$$$$
