RVI.pdb
     RDKit          3D

 27 26  0  0  1  0  0  0  0  0999 V2000
   19.1155  -23.6384  -13.5559 N   0  0  0  0  0  0  0  0  0  0  0  0
   18.5358  -22.5260  -12.8817 C   0  0  0  0  0  0  0  0  0  0  0  0
   17.2674  -22.4939  -12.5893 N   0  0  0  0  0  0  0  0  0  0  0  0
   19.2999  -21.4006  -12.4849 N   0  0  0  0  0  0  0  0  0  0  0  0
   20.6814  -21.2423  -12.8478 C   0  0  0  0  0  0  0  0  0  0  0  0
   20.9694  -21.2366  -14.2973 C   0  0  0  0  0  0  0  0  0  0  0  0
   22.3549  -21.1474  -14.7761 C   0  0  0  0  0  0  0  0  0  0  0  0
   23.3353  -20.2889  -14.0884 C   0  0  2  0  0  0  0  0  0  0  0  0
   23.7588  -19.1697  -14.8985 N   0  0  0  0  0  0  0  0  0  0  0  0
   24.5525  -21.1225  -13.7637 C   0  0  0  0  0  0  0  0  0  0  0  0
   24.5977  -22.3424  -13.9651 O   0  0  0  0  0  0  0  0  0  0  0  0
   16.9040  -21.6255  -12.1575 C   0  0  0  0  0  0  0  0  0  0  0  0
   27.9660  -18.8461  -12.5788 C   0  0  1  0  0  0  0  0  0  0  0  0
   28.0007  -20.2115  -13.2121 C   0  0  0  0  0  0  0  0  0  0  0  0
   28.1258  -20.1443  -14.7124 C   0  0  1  0  0  0  0  0  0  0  0  0
   26.8939  -21.1292  -12.7577 N   0  0  0  0  0  0  0  0  0  0  0  0
   25.6656  -20.4891  -13.2166 C   0  0  0  0  0  0  0  0  0  0  0  0
   26.7782  -21.2836  -11.2955 O   0  0  0  0  0  0  0  0  0  0  0  0
   27.4817  -22.2171  -10.7756 C   0  0  0  0  0  0  0  0  0  0  0  0
   28.3733  -18.8372   -7.2623 C   0  0  0  0  0  0  0  0  0  0  0  0
   27.7679  -19.8591   -8.1524 C   0  0  2  0  0  0  0  0  0  0  0  0
   26.3095  -20.0778   -8.0978 C   0  0  0  0  0  0  0  0  0  0  0  0
   25.9565  -20.4141   -6.6473 C   0  0  2  0  0  0  0  0  0  0  0  0
   25.7285  -21.0044   -9.0626 N   0  0  0  0  0  0  0  0  0  0  0  0
   25.9807  -20.5136  -10.4455 C   0  0  0  0  0  0  0  0  0  0  0  0
   24.3216  -21.4078   -8.9743 O   0  0  0  0  0  0  0  0  0  0  0  0
   23.4788  -20.8010   -9.7390 O   0  0  0  0  0  0  0  0  0  0  0  0
  2  1  1  0
  3  2  2  0
  4  2  1  0
  5  6  1  0
  5  4  1  0
  7  6  1  0
  8  9  1  6
  8  7  1  0
 10  8  1  0
 11 10  2  0
 13 12  1  1
 13 14  1  0
 15 13  1  0
 15 16  1  6
 16 10  1  0
 17 15  1  0
 18 17  2  0
 20 19  1  0
 20 21  1  0
 21 23  1  0
 21 22  1  6
 23 24  1  1
 24 17  1  0
 25 23  1  0
 25 27  1  0
 26 25  2  0
M  END
$$$$
