RVI.pdb
     RDKit          3D

 27 26  0  0  1  0  0  0  0  0999 V2000
   19.2938  -18.1100  -14.7475 N   0  0  0  0  0  0  0  0  0  0  0  0
   18.8291  -18.8658  -13.6336 C   0  0  0  0  0  0  0  0  0  0  0  0
   17.6208  -19.3497  -13.5969 N   0  0  0  0  0  0  0  0  0  0  0  0
   19.6495  -19.1409  -12.5116 N   0  0  0  0  0  0  0  0  0  0  0  0
   21.0626  -19.3741  -12.6307 C   0  0  0  0  0  0  0  0  0  0  0  0
   21.4714  -20.7865  -12.7783 C   0  0  0  0  0  0  0  0  0  0  0  0
   22.6435  -21.2971  -12.0555 C   0  0  0  0  0  0  0  0  0  0  0  0
   24.0015  -21.1091  -12.5954 C   0  0  2  0  0  0  0  0  0  0  0  0
   24.1828  -21.7486  -13.8786 N   0  0  0  0  0  0  0  0  0  0  0  0
   24.9876  -21.7143  -11.6242 C   0  0  0  0  0  0  0  0  0  0  0  0
   25.0607  -22.9326  -11.4213 O   0  0  0  0  0  0  0  0  0  0  0  0
   17.3581  -19.9016  -12.7609 C   0  0  0  0  0  0  0  0  0  0  0  0
   28.2891  -19.3625  -11.3085 C   0  0  1  0  0  0  0  0  0  0  0  0
   28.1946  -20.8447  -11.0628 C   0  0  0  0  0  0  0  0  0  0  0  0
   28.2677  -21.6430  -12.3390 C   0  0  1  0  0  0  0  0  0  0  0  0
   27.0383  -21.2506  -10.1841 N   0  0  0  0  0  0  0  0  0  0  0  0
   25.8467  -20.8641  -10.9323 C   0  0  0  0  0  0  0  0  0  0  0  0
   26.9743  -20.5562   -8.8845 O   0  0  0  0  0  0  0  0  0  0  0  0
   26.0446  -19.6861   -8.7620 C   0  0  0  0  0  0  0  0  0  0  0  0
   28.4999  -22.4666   -3.8241 C   0  0  0  0  0  0  0  0  0  0  0  0
   27.7359  -21.7098   -4.8471 C   0  0  2  0  0  0  0  0  0  0  0  0
   28.3515  -20.5154   -5.4573 C   0  0  0  0  0  0  0  0  0  0  0  0
   28.6451  -19.5292   -4.3246 C   0  0  2  0  0  0  0  0  0  0  0  0
   27.6647  -19.9050   -6.5900 N   0  0  0  0  0  0  0  0  0  0  0  0
   27.8263  -20.7620   -7.7968 C   0  0  0  0  0  0  0  0  0  0  0  0
   27.9316  -18.5172   -6.9805 O   0  0  0  0  0  0  0  0  0  0  0  0
   27.2291  -17.5942   -6.4171 O   0  0  0  0  0  0  0  0  0  0  0  0
  2  1  1  0
  3  2  2  0
  4  2  1  0
  5  6  1  0
  5  4  1  0
  7  6  1  0
  8  9  1  6
  8  7  1  0
 10  8  1  0
 11 10  2  0
 13 12  1  1
 13 14  1  0
 15 13  1  0
 15 16  1  6
 16 10  1  0
 17 15  1  0
 18 17  2  0
 20 19  1  0
 20 21  1  0
 21 23  1  0
 21 22  1  6
 23 24  1  1
 24 17  1  0
 25 23  1  0
 25 27  1  0
 26 25  2  0
M  END
$$$$
