RVI.pdb
     RDKit          3D

 27 26  0  0  1  0  0  0  0  0999 V2000
   21.9574  -19.2534  -16.4449 N   0  0  0  0  0  0  0  0  0  0  0  0
   20.6921  -19.2574  -15.7913 C   0  0  0  0  0  0  0  0  0  0  0  0
   19.6406  -19.7854  -16.3489 N   0  0  0  0  0  0  0  0  0  0  0  0
   20.5052  -18.6988  -14.5026 N   0  0  0  0  0  0  0  0  0  0  0  0
   19.6600  -19.3106  -13.5143 C   0  0  0  0  0  0  0  0  0  0  0  0
   20.2598  -19.4881  -12.1754 C   0  0  0  0  0  0  0  0  0  0  0  0
   21.3370  -20.4651  -11.9707 C   0  0  0  0  0  0  0  0  0  0  0  0
   22.7500  -20.0535  -12.0420 C   0  0  2  0  0  0  0  0  0  0  0  0
   23.2379  -19.9741  -13.4000 N   0  0  0  0  0  0  0  0  0  0  0  0
   23.5811  -21.0752  -11.3022 C   0  0  0  0  0  0  0  0  0  0  0  0
   23.4401  -22.2934  -11.4658 O   0  0  0  0  0  0  0  0  0  0  0  0
   18.7679  -19.8010  -15.7915 C   0  0  0  0  0  0  0  0  0  0  0  0
   27.3085  -20.7110  -11.6062 C   0  0  1  0  0  0  0  0  0  0  0  0
   26.4706  -21.8182  -11.0244 C   0  0  0  0  0  0  0  0  0  0  0  0
   25.6679  -22.5419  -12.0747 C   0  0  1  0  0  0  0  0  0  0  0  0
   25.6400  -21.4025   -9.8365 N   0  0  0  0  0  0  0  0  0  0  0  0
   24.5429  -20.6240  -10.4016 C   0  0  0  0  0  0  0  0  0  0  0  0
   26.3335  -20.5302   -8.8704 O   0  0  0  0  0  0  0  0  0  0  0  0
   26.0918  -19.2784   -8.9753 C   0  0  0  0  0  0  0  0  0  0  0  0
   26.1925  -20.5330   -3.6060 C   0  0  0  0  0  0  0  0  0  0  0  0
   26.3914  -20.1185   -5.0172 C   0  0  2  0  0  0  0  0  0  0  0  0
   27.7318  -20.2571   -5.6186 C   0  0  0  0  0  0  0  0  0  0  0  0
   28.7148  -19.5175   -4.7084 C   0  0  2  0  0  0  0  0  0  0  0  0
   27.8792  -19.9120   -7.0280 N   0  0  0  0  0  0  0  0  0  0  0  0
   27.2162  -20.9453   -7.8704 C   0  0  0  0  0  0  0  0  0  0  0  0
   29.1971  -19.6327   -7.6067 O   0  0  0  0  0  0  0  0  0  0  0  0
   29.7926  -18.5500   -7.2374 O   0  0  0  0  0  0  0  0  0  0  0  0
  2  1  1  0
  3  2  2  0
  4  2  1  0
  5  6  1  0
  5  4  1  0
  7  6  1  0
  8  9  1  6
  8  7  1  0
 10  8  1  0
 11 10  2  0
 13 12  1  6
 13 14  1  0
 15 13  1  0
 15 16  1  6
 16 10  1  0
 17 15  1  0
 18 17  2  0
 20 19  1  0
 20 21  1  0
 21 23  1  0
 21 22  1  6
 23 24  1  6
 24 17  1  0
 25 23  1  0
 25 27  1  0
 26 25  2  0
M  END
$$$$
