RVI.pdb
     RDKit          3D

 27 26  0  0  1  0  0  0  0  0999 V2000
   19.9021  -20.7695  -15.2115 N   0  0  0  0  0  0  0  0  0  0  0  0
   19.2401  -20.0870  -14.1513 C   0  0  0  0  0  0  0  0  0  0  0  0
   17.9439  -19.9671  -14.1247 N   0  0  0  0  0  0  0  0  0  0  0  0
   19.9461  -19.5094  -13.0670 N   0  0  0  0  0  0  0  0  0  0  0  0
   21.3716  -19.6270  -12.9273 C   0  0  0  0  0  0  0  0  0  0  0  0
   21.8734  -20.9663  -12.5555 C   0  0  0  0  0  0  0  0  0  0  0  0
   23.0034  -21.1018  -11.6273 C   0  0  0  0  0  0  0  0  0  0  0  0
   24.3915  -21.0067  -12.1123 C   0  0  2  0  0  0  0  0  0  0  0  0
   24.5732  -21.6306  -13.4030 N   0  0  0  0  0  0  0  0  0  0  0  0
   25.2910  -21.7060  -11.1205 C   0  0  0  0  0  0  0  0  0  0  0  0
   25.0467  -22.8365  -10.6813 O   0  0  0  0  0  0  0  0  0  0  0  0
   17.5339  -19.4455  -13.3294 C   0  0  0  0  0  0  0  0  0  0  0  0
   29.9221  -22.1182   -9.8523 C   0  0  1  0  0  0  0  0  0  0  0  0
   28.7447  -21.4944  -10.5530 C   0  0  0  0  0  0  0  0  0  0  0  0
   29.0437  -20.1024  -11.0473 C   0  0  2  0  0  0  0  0  0  0  0  0
   27.4535  -21.5756   -9.7785 N   0  0  0  0  0  0  0  0  0  0  0  0
   26.4396  -21.0489  -10.6861 C   0  0  0  0  0  0  0  0  0  0  0  0
   27.4100  -20.7483   -8.5582 O   0  0  0  0  0  0  0  0  0  0  0  0
   26.5422  -19.8085   -8.5519 C   0  0  0  0  0  0  0  0  0  0  0  0
   28.4730  -22.5115   -3.3721 C   0  0  0  0  0  0  0  0  0  0  0  0
   27.8659  -21.7936   -4.5206 C   0  0  2  0  0  0  0  0  0  0  0  0
   28.5524  -20.6045   -5.0613 C   0  0  0  0  0  0  0  0  0  0  0  0
   28.7201  -19.6148   -3.9063 C   0  0  2  0  0  0  0  0  0  0  0  0
   28.0018  -19.9960   -6.2670 N   0  0  0  0  0  0  0  0  0  0  0  0
   28.2206  -20.8990   -7.4305 C   0  0  0  0  0  0  0  0  0  0  0  0
   28.3777  -18.6375   -6.6706 O   0  0  0  0  0  0  0  0  0  0  0  0
   29.4543  -18.4995   -7.3672 O   0  0  0  0  0  0  0  0  0  0  0  0
  2  1  1  0
  3  2  2  0
  4  2  1  0
  5  6  1  0
  5  4  1  0
  7  6  1  0
  8  9  1  6
  8  7  1  0
 10  8  1  0
 11 10  2  0
 13 12  1  6
 13 14  1  0
 15 13  1  0
 15 16  1  1
 16 10  1  0
 17 15  1  0
 18 17  2  0
 20 19  1  0
 20 21  1  0
 21 23  1  0
 21 22  1  6
 23 24  1  6
 24 17  1  0
 25 23  1  0
 25 27  1  0
 26 25  2  0
M  END
$$$$
