RVI.pdb
     RDKit          3D

 27 26  0  0  1  0  0  0  0  0999 V2000
   27.7344  -26.0273  -15.8400 N   0  0  0  0  0  0  0  0  0  0  0  0
   28.4225  -25.7850  -17.0631 C   0  0  0  0  0  0  0  0  0  0  0  0
   28.8913  -26.7624  -17.7845 N   0  0  0  0  0  0  0  0  0  0  0  0
   28.6293  -24.4773  -17.5678 N   0  0  0  0  0  0  0  0  0  0  0  0
   28.1180  -23.3080  -16.9070 C   0  0  0  0  0  0  0  0  0  0  0  0
   29.0275  -22.6702  -15.9324 C   0  0  0  0  0  0  0  0  0  0  0  0
   28.6255  -21.4384  -15.2411 C   0  0  0  0  0  0  0  0  0  0  0  0
   27.2540  -20.9157  -15.3711 C   0  0  2  0  0  0  0  0  0  0  0  0
   27.0940  -20.0551  -16.5210 N   0  0  0  0  0  0  0  0  0  0  0  0
   26.9317  -20.1122  -14.1333 C   0  0  0  0  0  0  0  0  0  0  0  0
   27.4279  -19.0005  -13.9127 O   0  0  0  0  0  0  0  0  0  0  0  0
   29.3285  -26.5137  -18.6898 C   0  0  0  0  0  0  0  0  0  0  0  0
   23.2589  -21.3177  -12.5573 C   0  0  1  0  0  0  0  0  0  0  0  0
   23.8818  -19.9475  -12.5894 C   0  0  0  0  0  0  0  0  0  0  0  0
   23.6443  -19.2406  -13.8990 C   0  0  1  0  0  0  0  0  0  0  0  0
   25.3277  -19.9184  -12.1625 N   0  0  0  0  0  0  0  0  0  0  0  0
   26.0403  -20.6472  -13.2065 C   0  0  0  0  0  0  0  0  0  0  0  0
   25.6114  -20.6048  -10.8883 O   0  0  0  0  0  0  0  0  0  0  0  0
   25.8093  -21.8663  -10.9661 C   0  0  0  0  0  0  0  0  0  0  0  0
   28.7794  -19.0723   -6.8452 C   0  0  0  0  0  0  0  0  0  0  0  0
   27.9720  -19.8913   -7.7835 C   0  0  2  0  0  0  0  0  0  0  0  0
   26.5905  -20.2503   -7.4088 C   0  0  0  0  0  0  0  0  0  0  0  0
   26.6684  -21.0499   -6.1065 C   0  0  2  0  0  0  0  0  0  0  0  0
   25.7573  -20.8826   -8.4251 N   0  0  0  0  0  0  0  0  0  0  0  0
   25.6799  -20.0076   -9.6273 C   0  0  0  0  0  0  0  0  0  0  0  0
   24.4015  -21.3458   -8.1137 O   0  0  0  0  0  0  0  0  0  0  0  0
   23.4242  -20.5454   -8.3733 O   0  0  0  0  0  0  0  0  0  0  0  0
  2  1  1  0
  3  2  2  0
  4  2  1  0
  5  6  1  0
  5  4  1  0
  7  6  1  0
  8  9  1  6
  8  7  1  0
 10  8  1  0
 11 10  2  0
 13 12  1  1
 13 14  1  0
 15 13  1  0
 15 16  1  6
 16 10  1  0
 17 15  1  0
 18 17  2  0
 20 19  1  0
 20 21  1  0
 21 23  1  0
 21 22  1  6
 23 24  1  6
 24 17  1  0
 25 23  1  0
 25 27  1  0
 26 25  2  0
M  END
$$$$
