RVI.pdb
     RDKit          3D

 27 26  0  0  1  0  0  0  0  0999 V2000
   16.4451  -24.8338   -7.8260 N   0  0  0  0  0  0  0  0  0  0  0  0
   16.3136  -23.7338   -6.9311 C   0  0  0  0  0  0  0  0  0  0  0  0
   15.8371  -23.8884   -5.7293 N   0  0  0  0  0  0  0  0  0  0  0  0
   16.6975  -22.4178   -7.2894 N   0  0  0  0  0  0  0  0  0  0  0  0
   18.0472  -22.0820   -7.6515 C   0  0  0  0  0  0  0  0  0  0  0  0
   19.0952  -22.5214   -6.7068 C   0  0  0  0  0  0  0  0  0  0  0  0
   20.5068  -22.2156   -6.9729 C   0  0  0  0  0  0  0  0  0  0  0  0
   21.1401  -22.6253   -8.2386 C   0  0  2  0  0  0  0  0  0  0  0  0
   20.8581  -24.0005   -8.5816 N   0  0  0  0  0  0  0  0  0  0  0  0
   22.6360  -22.4736   -8.0931 C   0  0  0  0  0  0  0  0  0  0  0  0
   23.2834  -23.0622   -7.2183 O   0  0  0  0  0  0  0  0  0  0  0  0
   15.7380  -23.0375   -5.1473 C   0  0  0  0  0  0  0  0  0  0  0  0
   24.2434  -22.2141  -11.6525 C   0  0  1  0  0  0  0  0  0  0  0  0
   24.8652  -21.2314  -10.6964 C   0  0  0  0  0  0  0  0  0  0  0  0
   26.2735  -20.8642  -11.0873 C   0  0  2  0  0  0  0  0  0  0  0  0
   24.7440  -21.6235   -9.2453 N   0  0  0  0  0  0  0  0  0  0  0  0
   23.3092  -21.6378   -8.9807 C   0  0  0  0  0  0  0  0  0  0  0  0
   25.3475  -20.6716   -8.2940 O   0  0  0  0  0  0  0  0  0  0  0  0
   24.6923  -19.5911   -8.0944 C   0  0  0  0  0  0  0  0  0  0  0  0
   28.2046  -21.5919   -3.6747 C   0  0  0  0  0  0  0  0  0  0  0  0
   27.3505  -21.0299   -4.7506 C   0  0  2  0  0  0  0  0  0  0  0  0
   27.9713  -20.1719   -5.7783 C   0  0  0  0  0  0  0  0  0  0  0  0
   28.7129  -19.0521   -5.0452 C   0  0  2  0  0  0  0  0  0  0  0  0
   27.1199  -19.6886   -6.8595 N   0  0  0  0  0  0  0  0  0  0  0  0
   26.5510  -20.8443   -7.6061 C   0  0  0  0  0  0  0  0  0  0  0  0
   27.6159  -18.7164   -7.8385 O   0  0  0  0  0  0  0  0  0  0  0  0
   28.3111  -19.1676   -8.8266 O   0  0  0  0  0  0  0  0  0  0  0  0
  2  1  1  0
  3  2  2  0
  4  2  1  0
  5  6  1  0
  5  4  1  0
  7  6  1  0
  8  9  1  1
  8  7  1  0
 10  8  1  0
 11 10  2  0
 13 12  1  6
 13 14  1  0
 15 13  1  0
 15 16  1  1
 16 10  1  0
 17 15  1  0
 18 17  2  0
 20 19  1  0
 20 21  1  0
 21 23  1  0
 21 22  1  6
 23 24  1  1
 24 17  1  0
 25 23  1  0
 25 27  1  0
 26 25  2  0
M  END
$$$$
