RVI.pdb
     RDKit          3D

 27 26  0  0  1  0  0  0  0  0999 V2000
   28.6224  -28.7534  -17.1838 N   0  0  0  0  0  0  0  0  0  0  0  0
   27.5431  -28.5106  -18.0805 C   0  0  0  0  0  0  0  0  0  0  0  0
   26.8008  -29.4815  -18.5295 N   0  0  0  0  0  0  0  0  0  0  0  0
   27.2103  -27.2079  -18.5277 N   0  0  0  0  0  0  0  0  0  0  0  0
   27.8650  -26.0314  -18.0250 C   0  0  0  0  0  0  0  0  0  0  0  0
   27.7361  -25.7945  -16.5720 C   0  0  0  0  0  0  0  0  0  0  0  0
   28.3148  -24.5892  -15.9645 C   0  0  0  0  0  0  0  0  0  0  0  0
   28.3791  -23.3238  -16.7167 C   0  0  2  0  0  0  0  0  0  0  0  0
   29.5385  -23.2463  -17.5758 N   0  0  0  0  0  0  0  0  0  0  0  0
   28.4496  -22.1850  -15.7268 C   0  0  0  0  0  0  0  0  0  0  0  0
   29.5055  -21.8402  -15.1819 O   0  0  0  0  0  0  0  0  0  0  0  0
   26.0715  -29.2368  -19.2231 C   0  0  0  0  0  0  0  0  0  0  0  0
   25.2977  -19.4958  -16.0174 C   0  0  1  0  0  0  0  0  0  0  0  0
   26.6453  -19.2336  -15.3997 C   0  0  0  0  0  0  0  0  0  0  0  0
   27.6631  -18.7821  -16.4153 C   0  0  1  0  0  0  0  0  0  0  0  0
   27.1494  -20.3528  -14.5238 N   0  0  0  0  0  0  0  0  0  0  0  0
   27.2777  -21.4985  -15.4183 C   0  0  0  0  0  0  0  0  0  0  0  0
   26.2317  -20.7532  -13.4409 O   0  0  0  0  0  0  0  0  0  0  0  0
   25.6634  -21.8905  -13.5829 C   0  0  0  0  0  0  0  0  0  0  0  0
   25.4021  -20.5419   -7.3998 C   0  0  0  0  0  0  0  0  0  0  0  0
   24.9399  -20.9230   -8.7578 C   0  0  2  0  0  0  0  0  0  0  0  0
   25.6595  -20.3906   -9.9311 C   0  0  0  0  0  0  0  0  0  0  0  0
   25.9465  -18.9133   -9.6537 C   0  0  2  0  0  0  0  0  0  0  0  0
   25.0761  -20.6278  -11.2466 N   0  0  0  0  0  0  0  0  0  0  0  0
   25.9342  -20.0109  -12.2955 C   0  0  0  0  0  0  0  0  0  0  0  0
   23.6830  -20.2723  -11.5338 O   0  0  0  0  0  0  0  0  0  0  0  0
   23.4699  -19.1895  -12.2010 O   0  0  0  0  0  0  0  0  0  0  0  0
  2  1  1  0
  3  2  2  0
  4  2  1  0
  5  6  1  0
  5  4  1  0
  7  6  1  0
  8  9  1  6
  8  7  1  0
 10  8  1  0
 11 10  2  0
 13 12  1  1
 13 14  1  0
 15 13  1  0
 15 16  1  6
 16 10  1  0
 17 15  1  0
 18 17  2  0
 20 19  1  0
 20 21  1  0
 21 23  1  0
 21 22  1  6
 23 24  1  6
 24 17  1  0
 25 23  1  0
 25 27  1  0
 26 25  2  0
M  END
$$$$
