RVI.pdb
     RDKit          3D

 27 26  0  0  1  0  0  0  0  0999 V2000
   26.9128  -18.3806  -19.9765 N   0  0  0  0  0  0  0  0  0  0  0  0
   25.5360  -18.0535  -19.8165 C   0  0  0  0  0  0  0  0  0  0  0  0
   24.6729  -18.2607  -20.7691 N   0  0  0  0  0  0  0  0  0  0  0  0
   25.0261  -17.4949  -18.6183 N   0  0  0  0  0  0  0  0  0  0  0  0
   25.8289  -17.3483  -17.4353 C   0  0  0  0  0  0  0  0  0  0  0  0
   26.4462  -18.5878  -16.9189 C   0  0  0  0  0  0  0  0  0  0  0  0
   27.2205  -18.5647  -15.6712 C   0  0  0  0  0  0  0  0  0  0  0  0
   27.9684  -19.7541  -15.2274 C   0  0  2  0  0  0  0  0  0  0  0  0
   28.3792  -20.5950  -16.3284 N   0  0  0  0  0  0  0  0  0  0  0  0
   27.0743  -20.5677  -14.3216 C   0  0  0  0  0  0  0  0  0  0  0  0
   26.3075  -21.4390  -14.7500 O   0  0  0  0  0  0  0  0  0  0  0  0
   23.6892  -17.9972  -20.5808 C   0  0  0  0  0  0  0  0  0  0  0  0
   28.5613  -21.4375  -10.6950 C   0  0  1  0  0  0  0  0  0  0  0  0
   27.1837  -20.8315  -10.6556 C   0  0  0  0  0  0  0  0  0  0  0  0
   26.4259  -21.2116   -9.4097 C   0  0  2  0  0  0  0  0  0  0  0  0
   26.3821  -21.0421  -11.9153 N   0  0  0  0  0  0  0  0  0  0  0  0
   27.1181  -20.3246  -12.9509 C   0  0  0  0  0  0  0  0  0  0  0  0
   25.0204  -20.4765  -11.8849 O   0  0  0  0  0  0  0  0  0  0  0  0
   24.9465  -19.1993  -11.8859 C   0  0  0  0  0  0  0  0  0  0  0  0
   20.1438  -19.8035  -14.8619 C   0  0  0  0  0  0  0  0  0  0  0  0
   20.7002  -19.8239  -13.4861 C   0  0  2  0  0  0  0  0  0  0  0  0
   21.9874  -20.5052  -13.2479 C   0  0  0  0  0  0  0  0  0  0  0  0
   21.8556  -21.9268  -13.7985 C   0  0  2  0  0  0  0  0  0  0  0  0
   22.5374  -20.4582  -11.8979 N   0  0  0  0  0  0  0  0  0  0  0  0
   23.8267  -21.2015  -11.8543 C   0  0  0  0  0  0  0  0  0  0  0  0
   21.7385  -20.8680  -10.7388 O   0  0  0  0  0  0  0  0  0  0  0  0
   20.6866  -20.1741  -10.4649 O   0  0  0  0  0  0  0  0  0  0  0  0
  2  1  1  0
  3  2  2  0
  4  2  1  0
  5  6  1  0
  5  4  1  0
  7  6  1  0
  8  9  1  6
  8  7  1  0
 10  8  1  0
 11 10  2  0
 13 12  1  1
 13 14  1  0
 15 13  1  0
 15 16  1  6
 16 10  1  0
 17 15  1  0
 18 17  2  0
 20 19  1  0
 20 21  1  0
 21 23  1  0
 21 22  1  6
 23 24  1  1
 24 17  1  0
 25 23  1  0
 25 27  1  0
 26 25  2  0
M  END
$$$$
