RVI.pdb
     RDKit          3D

 27 26  0  0  1  0  0  0  0  0999 V2000
   26.7183  -22.1594  -12.4179 N   0  0  0  0  0  0  0  0  0  0  0  0
   27.0422  -21.9798  -13.7930 C   0  0  0  0  0  0  0  0  0  0  0  0
   27.8141  -22.8170  -14.4245 N   0  0  0  0  0  0  0  0  0  0  0  0
   26.5417  -20.8930  -14.5519 N   0  0  0  0  0  0  0  0  0  0  0  0
   25.6006  -19.9488  -14.0150 C   0  0  0  0  0  0  0  0  0  0  0  0
   24.4720  -19.5914  -14.8995 C   0  0  0  0  0  0  0  0  0  0  0  0
   23.5995  -20.6387  -15.4458 C   0  0  0  0  0  0  0  0  0  0  0  0
   22.4626  -20.2927  -16.3170 C   0  0  2  0  0  0  0  0  0  0  0  0
   22.7441  -19.1656  -17.1766 N   0  0  0  0  0  0  0  0  0  0  0  0
   21.2844  -19.9348  -15.4420 C   0  0  0  0  0  0  0  0  0  0  0  0
   21.0229  -18.7691  -15.1207 O   0  0  0  0  0  0  0  0  0  0  0  0
   28.0137  -22.6162  -15.4207 C   0  0  0  0  0  0  0  0  0  0  0  0
   18.0122  -22.6604  -15.3633 C   0  0  1  0  0  0  0  0  0  0  0  0
   18.1241  -21.1844  -15.0885 C   0  0  0  0  0  0  0  0  0  0  0  0
   18.1032  -20.3632  -16.3519 C   0  0  1  0  0  0  0  0  0  0  0  0
   19.2597  -20.8138  -14.1683 N   0  0  0  0  0  0  0  0  0  0  0  0
   20.4624  -20.9604  -14.9812 C   0  0  0  0  0  0  0  0  0  0  0  0
   19.4215  -21.6961  -12.9976 O   0  0  0  0  0  0  0  0  0  0  0  0
   20.0881  -22.7698  -13.1959 C   0  0  0  0  0  0  0  0  0  0  0  0
   21.8736  -20.3113   -8.7617 C   0  0  0  0  0  0  0  0  0  0  0  0
   21.1879  -21.0618   -9.8432 C   0  0  2  0  0  0  0  0  0  0  0  0
   19.9169  -21.7474   -9.5397 C   0  0  0  0  0  0  0  0  0  0  0  0
   20.1645  -22.6415   -8.3228 C   0  0  2  0  0  0  0  0  0  0  0  0
   19.2425  -22.4363  -10.6341 N   0  0  0  0  0  0  0  0  0  0  0  0
   18.9179  -21.4652  -11.7152 C   0  0  0  0  0  0  0  0  0  0  0  0
   18.0541  -23.2607  -10.3936 O   0  0  0  0  0  0  0  0  0  0  0  0
   16.9025  -22.6880  -10.4892 O   0  0  0  0  0  0  0  0  0  0  0  0
  2  1  1  0
  3  2  2  0
  4  2  1  0
  5  6  1  0
  5  4  1  0
  7  6  1  0
  8  9  1  1
  8  7  1  0
 10  8  1  0
 11 10  2  0
 13 12  1  1
 13 14  1  0
 15 13  1  0
 15 16  1  6
 16 10  1  0
 17 15  1  0
 18 17  2  0
 20 19  1  0
 20 21  1  0
 21 23  1  0
 21 22  1  1
 23 24  1  6
 24 17  1  0
 25 23  1  0
 25 27  1  0
 26 25  2  0
M  END
$$$$
