GAT.pdb
     RDKit          3D

 17 16  0  0  1  0  0  0  0  0999 V2000
   18.1647  -13.9373  -15.5721 N   0  0  0  0  0  0  0  0  0  0  0  0
   16.9243  -13.3495  -15.1753 C   0  0  0  0  0  0  0  0  0  0  0  0
   16.7426  -11.9751  -15.7188 C   0  0  0  0  0  0  0  0  0  0  0  0
   16.9152  -11.6857  -16.9292 O   0  0  0  0  0  0  0  0  0  0  0  0
   14.9613   -8.9613  -14.3722 C   0  0  0  0  0  0  0  0  0  0  0  0
   15.9565   -9.6211  -15.3378 C   0  0  2  0  0  0  0  0  0  0  0  0
   16.3535  -10.9255  -14.8335 N   0  0  0  0  0  0  0  0  0  0  0  0
   17.1495   -8.7371  -15.3511 C   0  0  0  0  0  0  0  0  0  0  0  0
   18.0435   -8.9145  -14.5061 O   0  0  0  0  0  0  0  0  0  0  0  0
   19.5571   -7.8870  -18.3685 C   0  0  0  0  0  0  0  0  0  0  0  0
   19.0137   -6.6392  -17.7109 C   0  0  1  0  0  0  0  0  0  0  0  0
   18.0367   -6.0921  -18.5196 O   0  0  0  0  0  0  0  0  0  0  0  0
   18.5220   -6.9375  -16.3097 C   0  0  2  0  0  0  0  0  0  0  0  0
   17.3053   -7.6889  -16.3023 N   0  0  0  0  0  0  0  0  0  0  0  0
   18.3446   -5.6737  -15.5865 C   0  0  0  0  0  0  0  0  0  0  0  0
   17.2201   -5.2484  -15.1965 O   0  0  0  0  0  0  0  0  0  0  0  0
   19.4584   -4.8933  -15.3083 O   0  0  0  0  0  0  0  0  0  0  0  0
  1  2  1  0
  2  3  1  0
  3  4  2  0
  6  5  1  1
  7  6  1  0
  7  3  1  0
  8  9  2  0
  8  6  1  0
 11 10  1  6
 11 13  1  0
 12 11  1  0
 13 15  1  0
 13 14  1  6
 14  8  1  0
 15 17  1  0
 16 15  2  0
M  END
$$$$
