GAT.pdb
     RDKit          3D

 17 16  0  0  1  0  0  0  0  0999 V2000
   19.3133  -12.2514  -17.6515 N   0  0  0  0  0  0  0  0  0  0  0  0
   20.0187  -11.0156  -17.7810 C   0  0  0  0  0  0  0  0  0  0  0  0
   20.3214  -10.3890  -16.4645 C   0  0  0  0  0  0  0  0  0  0  0  0
   19.4494  -10.1839  -15.5835 O   0  0  0  0  0  0  0  0  0  0  0  0
   23.4213   -9.6942  -14.4947 C   0  0  0  0  0  0  0  0  0  0  0  0
   22.0000   -9.3161  -14.9362 C   0  0  2  0  0  0  0  0  0  0  0  0
   21.6629   -9.9971  -16.1756 N   0  0  0  0  0  0  0  0  0  0  0  0
   22.0354   -7.8544  -15.1953 C   0  0  0  0  0  0  0  0  0  0  0  0
   22.5506   -7.4386  -16.2472 O   0  0  0  0  0  0  0  0  0  0  0  0
   19.4979   -5.3476  -15.9760 C   0  0  0  0  0  0  0  0  0  0  0  0
   20.1992   -4.8785  -14.7219 C   0  0  1  0  0  0  0  0  0  0  0  0
   19.3878   -5.1262  -13.6320 O   0  0  0  0  0  0  0  0  0  0  0  0
   21.5672   -5.5168  -14.5971 C   0  0  2  0  0  0  0  0  0  0  0  0
   21.4972   -6.9088  -14.2767 N   0  0  0  0  0  0  0  0  0  0  0  0
   22.3388   -4.7976  -13.5779 C   0  0  0  0  0  0  0  0  0  0  0  0
   22.7505   -5.3350  -12.5106 O   0  0  0  0  0  0  0  0  0  0  0  0
   22.6407   -3.4579  -13.7806 O   0  0  0  0  0  0  0  0  0  0  0  0
  1  2  1  0
  2  3  1  0
  3  4  2  0
  6  5  1  6
  7  6  1  0
  7  3  1  0
  8  9  2  0
  8  6  1  0
 11 10  1  6
 11 13  1  0
 12 11  1  0
 13 15  1  0
 13 14  1  1
 14  8  1  0
 15 17  1  0
 16 15  2  0
M  END
$$$$
