GAT.pdb
     RDKit          3D

 17 16  0  0  1  0  0  0  0  0999 V2000
   19.3364  -12.2624  -17.5454 N   0  0  0  0  0  0  0  0  0  0  0  0
   20.0781  -11.0536  -17.7197 C   0  0  0  0  0  0  0  0  0  0  0  0
   20.2423  -10.2948  -16.4490 C   0  0  0  0  0  0  0  0  0  0  0  0
   19.2772   -9.9652  -15.7151 O   0  0  0  0  0  0  0  0  0  0  0  0
   23.0938   -9.6857  -14.1390 C   0  0  0  0  0  0  0  0  0  0  0  0
   21.7749   -9.2222  -14.7742 C   0  0  2  0  0  0  0  0  0  0  0  0
   21.5537   -9.9167  -16.0320 N   0  0  0  0  0  0  0  0  0  0  0  0
   21.9526   -7.7756  -15.0587 C   0  0  0  0  0  0  0  0  0  0  0  0
   22.6652   -7.4304  -16.0166 O   0  0  0  0  0  0  0  0  0  0  0  0
   19.5541   -5.1963  -16.1842 C   0  0  0  0  0  0  0  0  0  0  0  0
   20.1830   -4.6972  -14.9037 C   0  0  1  0  0  0  0  0  0  0  0  0
   19.2792   -4.8455  -13.8697 O   0  0  0  0  0  0  0  0  0  0  0  0
   21.5010   -5.3959  -14.6411 C   0  0  2  0  0  0  0  0  0  0  0  0
   21.3321   -6.7663  -14.2687 N   0  0  0  0  0  0  0  0  0  0  0  0
   22.2267   -4.6692  -13.5939 C   0  0  0  0  0  0  0  0  0  0  0  0
   22.5100   -5.1710  -12.4690 O   0  0  0  0  0  0  0  0  0  0  0  0
   22.6299   -3.3629  -13.8345 O   0  0  0  0  0  0  0  0  0  0  0  0
  1  2  1  0
  2  3  1  0
  3  4  2  0
  6  5  1  6
  7  6  1  0
  7  3  1  0
  8  9  2  0
  8  6  1  0
 11 10  1  6
 11 13  1  0
 12 11  1  0
 13 15  1  0
 13 14  1  1
 14  8  1  0
 15 17  1  0
 16 15  2  0
M  END
$$$$
