GAT.pdb
     RDKit          3D

 17 16  0  0  1  0  0  0  0  0999 V2000
   17.2081  -14.6704  -15.3220 N   0  0  0  0  0  0  0  0  0  0  0  0
   16.6150  -13.3845  -15.5121 C   0  0  0  0  0  0  0  0  0  0  0  0
   17.5976  -12.3631  -15.9689 C   0  0  0  0  0  0  0  0  0  0  0  0
   18.8339  -12.5780  -16.0326 O   0  0  0  0  0  0  0  0  0  0  0  0
   17.1883   -9.0409  -17.7262 C   0  0  0  0  0  0  0  0  0  0  0  0
   18.0106  -10.1032  -16.9824 C   0  0  2  0  0  0  0  0  0  0  0  0
   17.1267  -11.0727  -16.3562 N   0  0  0  0  0  0  0  0  0  0  0  0
   18.7405   -9.3721  -15.9158 C   0  0  0  0  0  0  0  0  0  0  0  0
   18.1760   -9.1667  -14.8278 O   0  0  0  0  0  0  0  0  0  0  0  0
   22.4641  -10.0564  -14.6478 C   0  0  0  0  0  0  0  0  0  0  0  0
   22.2252   -8.5988  -14.9688 C   0  0  1  0  0  0  0  0  0  0  0  0
   22.8598   -8.2886  -16.1558 O   0  0  0  0  0  0  0  0  0  0  0  0
   20.7432   -8.2868  -14.9923 C   0  0  2  0  0  0  0  0  0  0  0  0
   20.0704   -8.8963  -16.0973 N   0  0  0  0  0  0  0  0  0  0  0  0
   20.5618   -6.8317  -15.0251 C   0  0  0  0  0  0  0  0  0  0  0  0
   20.0517   -6.2172  -16.0048 O   0  0  0  0  0  0  0  0  0  0  0  0
   20.9656   -6.0763  -13.9327 O   0  0  0  0  0  0  0  0  0  0  0  0
  1  2  1  0
  2  3  1  0
  3  4  2  0
  6  5  1  1
  7  6  1  0
  7  3  1  0
  8  9  2  0
  8  6  1  0
 11 10  1  6
 11 13  1  0
 12 11  1  0
 13 15  1  0
 13 14  1  6
 14  8  1  0
 15 17  1  0
 16 15  2  0
M  END
$$$$
