GAT.pdb
     RDKit          3D

 17 16  0  0  1  0  0  0  0  0999 V2000
   15.1430  -14.5569  -13.6757 N   0  0  0  0  0  0  0  0  0  0  0  0
   16.1838  -13.7704  -13.0929 C   0  0  0  0  0  0  0  0  0  0  0  0
   15.8454  -12.3212  -13.0412 C   0  0  0  0  0  0  0  0  0  0  0  0
   15.1278  -11.7513  -13.9009 O   0  0  0  0  0  0  0  0  0  0  0  0
   16.3332   -9.6124  -10.4400 C   0  0  0  0  0  0  0  0  0  0  0  0
   16.0397  -10.1131  -11.8617 C   0  0  2  0  0  0  0  0  0  0  0  0
   16.3536  -11.5285  -11.9688 N   0  0  0  0  0  0  0  0  0  0  0  0
   16.9578   -9.3575  -12.7512 C   0  0  0  0  0  0  0  0  0  0  0  0
   18.1715   -9.6249  -12.7359 O   0  0  0  0  0  0  0  0  0  0  0  0
   16.9970   -8.9791  -16.6092 C   0  0  0  0  0  0  0  0  0  0  0  0
   16.9141   -7.6294  -15.9340 C   0  0  1  0  0  0  0  0  0  0  0  0
   15.6167   -7.1627  -16.0165 O   0  0  0  0  0  0  0  0  0  0  0  0
   17.4251   -7.7055  -14.5101 C   0  0  2  0  0  0  0  0  0  0  0  0
   16.4938   -8.3330  -13.6246 N   0  0  0  0  0  0  0  0  0  0  0  0
   17.7396   -6.3513  -14.0424 C   0  0  0  0  0  0  0  0  0  0  0  0
   17.0626   -5.7450  -13.1640 O   0  0  0  0  0  0  0  0  0  0  0  0
   18.8332   -5.6880  -14.5819 O   0  0  0  0  0  0  0  0  0  0  0  0
  1  2  1  0
  2  3  1  0
  3  4  2  0
  6  5  1  1
  7  6  1  0
  7  3  1  0
  8  9  2  0
  8  6  1  0
 11 10  1  1
 11 13  1  0
 12 11  1  0
 13 15  1  0
 13 14  1  1
 14  8  1  0
 15 17  1  0
 16 15  2  0
M  END
$$$$
