GAT.pdb
     RDKit          3D

 17 16  0  0  1  0  0  0  0  0999 V2000
   16.3315  -14.3151  -15.5320 N   0  0  0  0  0  0  0  0  0  0  0  0
   15.9208  -13.0140  -15.1081 C   0  0  0  0  0  0  0  0  0  0  0  0
   16.7501  -11.9299  -15.7034 C   0  0  0  0  0  0  0  0  0  0  0  0
   17.7570  -12.1499  -16.4221 O   0  0  0  0  0  0  0  0  0  0  0  0
   16.2897   -8.1965  -16.0576 C   0  0  0  0  0  0  0  0  0  0  0  0
   17.1414   -9.4742  -16.0516 C   0  0  2  0  0  0  0  0  0  0  0  0
   16.3959  -10.5700  -15.4542 N   0  0  0  0  0  0  0  0  0  0  0  0
   18.3112   -9.1731  -15.1881 C   0  0  0  0  0  0  0  0  0  0  0  0
   18.1875   -9.2480  -13.9537 O   0  0  0  0  0  0  0  0  0  0  0  0
   22.1172  -10.4427  -15.6375 C   0  0  0  0  0  0  0  0  0  0  0  0
   22.0052   -8.9473  -15.4476 C   0  0  1  0  0  0  0  0  0  0  0  0
   22.2334   -8.3209  -16.6573 O   0  0  0  0  0  0  0  0  0  0  0  0
   20.6700   -8.5793  -14.8344 C   0  0  2  0  0  0  0  0  0  0  0  0
   19.5752   -8.8000  -15.7276 N   0  0  0  0  0  0  0  0  0  0  0  0
   20.7087   -7.1747  -14.4134 C   0  0  0  0  0  0  0  0  0  0  0  0
   19.9951   -6.2725  -14.9372 O   0  0  0  0  0  0  0  0  0  0  0  0
   21.5672   -6.8007  -13.3887 O   0  0  0  0  0  0  0  0  0  0  0  0
  1  2  1  0
  2  3  1  0
  3  4  2  0
  6  5  1  1
  7  6  1  0
  7  3  1  0
  8  9  2  0
  8  6  1  0
 11 10  1  6
 11 13  1  0
 12 11  1  0
 13 15  1  0
 13 14  1  6
 14  8  1  0
 15 17  1  0
 16 15  2  0
M  END
$$$$
