GAT.pdb
     RDKit          3D

 17 16  0  0  1  0  0  0  0  0999 V2000
   19.1042  -12.5704  -17.0356 N   0  0  0  0  0  0  0  0  0  0  0  0
   19.2754  -11.8771  -15.7981 C   0  0  0  0  0  0  0  0  0  0  0  0
   19.4274  -10.4072  -15.9818 C   0  0  0  0  0  0  0  0  0  0  0  0
   20.2398   -9.8957  -16.7924 O   0  0  0  0  0  0  0  0  0  0  0  0
   17.3675   -7.4504  -14.8253 C   0  0  0  0  0  0  0  0  0  0  0  0
   18.6141   -8.0915  -15.4521 C   0  0  2  0  0  0  0  0  0  0  0  0
   18.6174   -9.5243  -15.2064 N   0  0  0  0  0  0  0  0  0  0  0  0
   19.7735   -7.4890  -14.7466 C   0  0  0  0  0  0  0  0  0  0  0  0
   20.0570   -7.8829  -13.6025 O   0  0  0  0  0  0  0  0  0  0  0  0
   23.4293   -7.3677  -15.9485 C   0  0  0  0  0  0  0  0  0  0  0  0
   22.9638   -5.9791  -15.5745 C   0  0  1  0  0  0  0  0  0  0  0  0
   22.7279   -5.2567  -16.7279 O   0  0  0  0  0  0  0  0  0  0  0  0
   21.7583   -6.0417  -14.6596 C   0  0  2  0  0  0  0  0  0  0  0  0
   20.5749   -6.4713  -15.3381 N   0  0  0  0  0  0  0  0  0  0  0  0
   21.5482   -4.7219  -14.0552 C   0  0  0  0  0  0  0  0  0  0  0  0
   20.5264   -4.0115  -14.2757 O   0  0  0  0  0  0  0  0  0  0  0  0
   22.5112   -4.2126  -13.1948 O   0  0  0  0  0  0  0  0  0  0  0  0
  1  2  1  0
  2  3  1  0
  3  4  2  0
  6  5  1  1
  7  6  1  0
  7  3  1  0
  8  9  2  0
  8  6  1  0
 11 10  1  6
 11 13  1  0
 12 11  1  0
 13 15  1  0
 13 14  1  6
 14  8  1  0
 15 17  1  0
 16 15  2  0
M  END
$$$$
