GAT.pdb
     RDKit          3D

 17 16  0  0  1  0  0  0  0  0999 V2000
   16.3105  -13.6231  -15.7782 N   0  0  0  0  0  0  0  0  0  0  0  0
   16.1292  -12.2945  -16.2717 C   0  0  0  0  0  0  0  0  0  0  0  0
   17.4187  -11.5763  -16.4687 C   0  0  0  0  0  0  0  0  0  0  0  0
   18.4609  -11.8432  -15.8195 O   0  0  0  0  0  0  0  0  0  0  0  0
   18.6406   -9.0451  -19.0112 C   0  0  0  0  0  0  0  0  0  0  0  0
   18.7279   -9.8113  -17.6832 C   0  0  2  0  0  0  0  0  0  0  0  0
   17.4892  -10.5318  -17.4386 N   0  0  0  0  0  0  0  0  0  0  0  0
   18.8869   -8.7752  -16.6314 C   0  0  0  0  0  0  0  0  0  0  0  0
   17.8732   -8.2405  -16.1505 O   0  0  0  0  0  0  0  0  0  0  0  0
   20.4476   -9.0167  -13.2000 C   0  0  0  0  0  0  0  0  0  0  0  0
   21.1044   -7.8766  -13.9439 C   0  0  1  0  0  0  0  0  0  0  0  0
   22.3670   -8.2678  -14.3449 O   0  0  0  0  0  0  0  0  0  0  0  0
   20.2366   -7.4117  -15.0950 C   0  0  2  0  0  0  0  0  0  0  0  0
   20.1659   -8.3715  -16.1528 N   0  0  0  0  0  0  0  0  0  0  0  0
   20.7550   -6.1355  -15.5990 C   0  0  0  0  0  0  0  0  0  0  0  0
   21.1937   -5.9792  -16.7739 O   0  0  0  0  0  0  0  0  0  0  0  0
   20.7715   -5.0333  -14.7552 O   0  0  0  0  0  0  0  0  0  0  0  0
  1  2  1  0
  2  3  1  0
  3  4  2  0
  6  5  1  6
  7  6  1  0
  7  3  1  0
  8  9  2  0
  8  6  1  0
 11 10  1  6
 11 13  1  0
 12 11  1  0
 13 15  1  0
 13 14  1  6
 14  8  1  0
 15 17  1  0
 16 15  2  0
M  END
$$$$
