GAT.pdb
     RDKit          3D

 17 16  0  0  1  0  0  0  0  0999 V2000
   21.9926  -14.3151  -18.9267 N   0  0  0  0  0  0  0  0  0  0  0  0
   22.4833  -12.9736  -18.8907 C   0  0  0  0  0  0  0  0  0  0  0  0
   22.1449  -12.2745  -17.6203 C   0  0  0  0  0  0  0  0  0  0  0  0
   20.9690  -12.1504  -17.1955 O   0  0  0  0  0  0  0  0  0  0  0  0
   24.2297  -10.8385  -14.7925 C   0  0  0  0  0  0  0  0  0  0  0  0
   22.9245  -11.0445  -15.5748 C   0  0  2  0  0  0  0  0  0  0  0  0
   23.1972  -11.7129  -16.8366 N   0  0  0  0  0  0  0  0  0  0  0  0
   22.4101   -9.6819  -15.8639 C   0  0  0  0  0  0  0  0  0  0  0  0
   22.9517   -9.0074  -16.7564 O   0  0  0  0  0  0  0  0  0  0  0  0
   19.1144   -8.7548  -17.1877 C   0  0  0  0  0  0  0  0  0  0  0  0
   19.3200   -7.9303  -15.9377 C   0  0  1  0  0  0  0  0  0  0  0  0
   18.5386   -8.4474  -14.9229 O   0  0  0  0  0  0  0  0  0  0  0  0
   20.7885   -7.8577  -15.5740 C   0  0  2  0  0  0  0  0  0  0  0  0
   21.3133   -9.1191  -15.1512 N   0  0  0  0  0  0  0  0  0  0  0  0
   20.9710   -6.8517  -14.5222 C   0  0  0  0  0  0  0  0  0  0  0  0
   20.8194   -5.6116  -14.7133 O   0  0  0  0  0  0  0  0  0  0  0  0
   21.3284   -7.2663  -13.2465 O   0  0  0  0  0  0  0  0  0  0  0  0
  1  2  1  0
  2  3  1  0
  3  4  2  0
  6  5  1  1
  7  6  1  0
  7  3  1  0
  8  9  2  0
  8  6  1  0
 11 10  1  6
 11 13  1  0
 12 11  1  0
 13 15  1  0
 13 14  1  1
 14  8  1  0
 15 17  1  0
 16 15  2  0
M  END
$$$$
