GAT.pdb
     RDKit          3D

 17 16  0  0  1  0  0  0  0  0999 V2000
   14.1444   -9.2241   -8.8332 N   0  0  0  0  0  0  0  0  0  0  0  0
   15.0610   -8.1840   -8.4874 C   0  0  0  0  0  0  0  0  0  0  0  0
   15.7191   -7.5815   -9.6795 C   0  0  0  0  0  0  0  0  0  0  0  0
   15.6184   -8.0609  -10.8366 O   0  0  0  0  0  0  0  0  0  0  0  0
   16.6384   -4.1335  -10.4342 C   0  0  0  0  0  0  0  0  0  0  0  0
   16.9439   -5.6213  -10.6603 C   0  0  2  0  0  0  0  0  0  0  0  0
   16.5057   -6.4021   -9.5150 N   0  0  0  0  0  0  0  0  0  0  0  0
   18.4224   -5.7173  -10.7591 C   0  0  0  0  0  0  0  0  0  0  0  0
   19.1032   -5.6606   -9.7208 O   0  0  0  0  0  0  0  0  0  0  0  0
   20.8844   -8.3156  -11.5808 C   0  0  0  0  0  0  0  0  0  0  0  0
   21.0770   -7.1907  -12.5718 C   0  0  1  0  0  0  0  0  0  0  0  0
   20.5165   -7.5540  -13.7809 O   0  0  0  0  0  0  0  0  0  0  0  0
   20.5196   -5.8912  -12.0290 C   0  0  2  0  0  0  0  0  0  0  0  0
   19.0899   -5.8726  -12.0074 N   0  0  0  0  0  0  0  0  0  0  0  0
   21.0314   -4.7780  -12.8356 C   0  0  0  0  0  0  0  0  0  0  0  0
   20.2976   -4.0584  -13.5712 O   0  0  0  0  0  0  0  0  0  0  0  0
   22.3882   -4.4869  -12.8004 O   0  0  0  0  0  0  0  0  0  0  0  0
  1  2  1  0
  2  3  1  0
  3  4  2  0
  6  5  1  1
  7  6  1  0
  7  3  1  0
  8  9  2  0
  8  6  1  0
 11 10  1  1
 11 13  1  0
 12 11  1  0
 13 15  1  0
 13 14  1  6
 14  8  1  0
 15 17  1  0
 16 15  2  0
M  END
$$$$
