GAT.pdb
     RDKit          3D

 17 16  0  0  1  0  0  0  0  0999 V2000
   20.4486  -12.6166  -18.1827 N   0  0  0  0  0  0  0  0  0  0  0  0
   21.2541  -11.4370  -18.1501 C   0  0  0  0  0  0  0  0  0  0  0  0
   21.1728  -10.7244  -16.8451 C   0  0  0  0  0  0  0  0  0  0  0  0
   20.0872  -10.3682  -16.3224 O   0  0  0  0  0  0  0  0  0  0  0  0
   23.6430  -10.0058  -14.0848 C   0  0  0  0  0  0  0  0  0  0  0  0
   22.3562   -9.7187  -14.8721 C   0  0  2  0  0  0  0  0  0  0  0  0
   22.3784  -10.4250  -16.1426 N   0  0  0  0  0  0  0  0  0  0  0  0
   22.3685   -8.2589  -15.1434 C   0  0  0  0  0  0  0  0  0  0  0  0
   23.1357   -7.8114  -16.0129 O   0  0  0  0  0  0  0  0  0  0  0  0
   19.5959   -6.0729  -16.4099 C   0  0  0  0  0  0  0  0  0  0  0  0
   20.1257   -5.4641  -15.1319 C   0  0  1  0  0  0  0  0  0  0  0  0
   19.2283   -5.7075  -14.1105 O   0  0  0  0  0  0  0  0  0  0  0  0
   21.5192   -5.9740  -14.8280 C   0  0  2  0  0  0  0  0  0  0  0  0
   21.5285   -7.3502  -14.4390 N   0  0  0  0  0  0  0  0  0  0  0  0
   22.1129   -5.1431  -13.7751 C   0  0  0  0  0  0  0  0  0  0  0  0
   22.4672   -5.5961  -12.6496 O   0  0  0  0  0  0  0  0  0  0  0  0
   22.3020   -3.7882  -14.0107 O   0  0  0  0  0  0  0  0  0  0  0  0
  1  2  1  0
  2  3  1  0
  3  4  2  0
  6  5  1  1
  7  6  1  0
  7  3  1  0
  8  9  2  0
  8  6  1  0
 11 10  1  6
 11 13  1  0
 12 11  1  0
 13 15  1  0
 13 14  1  1
 14  8  1  0
 15 17  1  0
 16 15  2  0
M  END
$$$$
