GAT.pdb
     RDKit          3D

 17 16  0  0  1  0  0  0  0  0999 V2000
   18.5008  -11.9790  -16.5002 N   0  0  0  0  0  0  0  0  0  0  0  0
   19.1643  -10.7765  -16.8943 C   0  0  0  0  0  0  0  0  0  0  0  0
   19.5424   -9.9245  -15.7331 C   0  0  0  0  0  0  0  0  0  0  0  0
   18.7030   -9.3090  -15.0294 O   0  0  0  0  0  0  0  0  0  0  0  0
   22.7474   -9.3761  -13.8090 C   0  0  0  0  0  0  0  0  0  0  0  0
   21.3460   -8.9585  -14.2776 C   0  0  2  0  0  0  0  0  0  0  0  0
   20.9215   -9.7913  -15.3911 N   0  0  0  0  0  0  0  0  0  0  0  0
   21.4835   -7.5606  -14.7593 C   0  0  0  0  0  0  0  0  0  0  0  0
   22.0476   -7.3478  -15.8462 O   0  0  0  0  0  0  0  0  0  0  0  0
   18.8096   -4.8803  -15.4329 C   0  0  0  0  0  0  0  0  0  0  0  0
   19.8488   -4.3327  -14.4818 C   0  0  1  0  0  0  0  0  0  0  0  0
   19.3168   -4.2912  -13.2078 O   0  0  0  0  0  0  0  0  0  0  0  0
   21.1303   -5.1363  -14.5609 C   0  0  2  0  0  0  0  0  0  0  0  0
   20.9894   -6.4510  -14.0161 N   0  0  0  0  0  0  0  0  0  0  0  0
   22.1951   -4.4074  -13.8637 C   0  0  0  0  0  0  0  0  0  0  0  0
   22.7811   -4.8497  -12.8348 O   0  0  0  0  0  0  0  0  0  0  0  0
   22.5913   -3.1673  -14.3454 O   0  0  0  0  0  0  0  0  0  0  0  0
  1  2  1  0
  2  3  1  0
  3  4  2  0
  6  5  1  6
  7  6  1  0
  7  3  1  0
  8  9  2  0
  8  6  1  0
 11 10  1  6
 11 13  1  0
 12 11  1  0
 13 15  1  0
 13 14  1  1
 14  8  1  0
 15 17  1  0
 16 15  2  0
M  END
$$$$
