GAT.pdb
     RDKit          3D

 17 16  0  0  1  0  0  0  0  0999 V2000
   18.0767  -11.8478  -16.6258 N   0  0  0  0  0  0  0  0  0  0  0  0
   19.2713  -11.1192  -16.9146 C   0  0  0  0  0  0  0  0  0  0  0  0
   19.7252  -10.2862  -15.7668 C   0  0  0  0  0  0  0  0  0  0  0  0
   18.9335   -9.6969  -14.9890 O   0  0  0  0  0  0  0  0  0  0  0  0
   23.0520   -9.7985  -14.0510 C   0  0  0  0  0  0  0  0  0  0  0  0
   21.6202   -9.3669  -14.4000 C   0  0  2  0  0  0  0  0  0  0  0  0
   21.1244  -10.1411  -15.5261 N   0  0  0  0  0  0  0  0  0  0  0  0
   21.7189   -7.9439  -14.8124 C   0  0  0  0  0  0  0  0  0  0  0  0
   22.2390   -7.6656  -15.9064 O   0  0  0  0  0  0  0  0  0  0  0  0
   19.0537   -5.5549  -15.6370 C   0  0  0  0  0  0  0  0  0  0  0  0
   19.9005   -4.9090  -14.5646 C   0  0  1  0  0  0  0  0  0  0  0  0
   19.2252   -4.9667  -13.3610 O   0  0  0  0  0  0  0  0  0  0  0  0
   21.2731   -5.5466  -14.5030 C   0  0  2  0  0  0  0  0  0  0  0  0
   21.2363   -6.8828  -13.9946 N   0  0  0  0  0  0  0  0  0  0  0  0
   22.1513   -4.7113  -13.6769 C   0  0  0  0  0  0  0  0  0  0  0  0
   22.5980   -5.0739  -12.5516 O   0  0  0  0  0  0  0  0  0  0  0  0
   22.5200   -3.4557  -14.1402 O   0  0  0  0  0  0  0  0  0  0  0  0
  1  2  1  0
  2  3  1  0
  3  4  2  0
  6  5  1  6
  7  6  1  0
  7  3  1  0
  8  9  2  0
  8  6  1  0
 11 10  1  6
 11 13  1  0
 12 11  1  0
 13 15  1  0
 13 14  1  1
 14  8  1  0
 15 17  1  0
 16 15  2  0
M  END
$$$$
