GAT.pdb
     RDKit          3D

 17 16  0  0  1  0  0  0  0  0999 V2000
   17.3710  -11.0661  -16.7184 N   0  0  0  0  0  0  0  0  0  0  0  0
   18.4816  -10.2319  -17.0531 C   0  0  0  0  0  0  0  0  0  0  0  0
   19.0472   -9.5294  -15.8681 C   0  0  0  0  0  0  0  0  0  0  0  0
   18.3413   -8.9063  -15.0361 O   0  0  0  0  0  0  0  0  0  0  0  0
   22.4627   -9.4135  -14.2510 C   0  0  0  0  0  0  0  0  0  0  0  0
   21.0669   -8.8441  -14.5430 C   0  0  2  0  0  0  0  0  0  0  0  0
   20.4580   -9.5566  -15.6543 N   0  0  0  0  0  0  0  0  0  0  0  0
   21.2857   -7.4330  -14.9503 C   0  0  0  0  0  0  0  0  0  0  0  0
   21.7298   -7.1929  -16.0860 O   0  0  0  0  0  0  0  0  0  0  0  0
   18.8862   -4.7034  -15.5057 C   0  0  0  0  0  0  0  0  0  0  0  0
   19.8984   -4.1953  -14.5048 C   0  0  1  0  0  0  0  0  0  0  0  0
   19.3257   -4.1890  -13.2479 O   0  0  0  0  0  0  0  0  0  0  0  0
   21.1753   -5.0075  -14.5681 C   0  0  2  0  0  0  0  0  0  0  0  0
   21.0034   -6.3410  -14.0810 N   0  0  0  0  0  0  0  0  0  0  0  0
   22.2193   -4.3166  -13.8038 C   0  0  0  0  0  0  0  0  0  0  0  0
   22.6955   -3.1939  -14.1359 O   0  0  0  0  0  0  0  0  0  0  0  0
   22.7207   -4.9126  -12.6547 O   0  0  0  0  0  0  0  0  0  0  0  0
  1  2  1  0
  2  3  1  0
  3  4  2  0
  6  5  1  6
  7  6  1  0
  7  3  1  0
  8  9  2  0
  8  6  1  0
 11 10  1  6
 11 13  1  0
 12 11  1  0
 13 15  1  0
 13 14  1  1
 14  8  1  0
 15 17  1  0
 16 15  2  0
M  END
$$$$
