CCA.pdb
     RDKit          3D

 18 17  0  0  1  0  0  0  0  0999 V2000
    7.7317  -13.8494   19.8438 N   0  0  0  0  0  0  0  0  0  0  0  0
    7.2031  -14.8819   20.7082 C   0  0  1  0  0  0  0  0  0  0  0  0
    7.3448  -16.2532   20.0724 C   0  0  0  0  0  0  0  0  0  0  0  0
    5.8706  -16.6050   19.0833 S   0  0  0  0  0  0  0  0  0  0  0  0
    7.9687  -14.8792   21.9706 C   0  0  0  0  0  0  0  0  0  0  0  0
    9.2168  -14.7894   21.9069 O   0  0  0  0  0  0  0  0  0  0  0  0
    7.2847  -14.9770   23.2143 N   0  0  0  0  0  0  0  0  0  0  0  0
    8.0621  -15.0767   24.4051 C   0  0  1  0  0  0  0  0  0  0  0  0
    7.1971  -14.6699   25.5775 C   0  0  0  0  0  0  0  0  0  0  0  0
    6.6829  -12.9575   25.3220 S   0  0  0  0  0  0  0  0  0  0  0  0
    8.5693  -16.4457   24.6685 C   0  0  0  0  0  0  0  0  0  0  0  0
    7.7912  -17.4158   24.8453 O   0  0  0  0  0  0  0  0  0  0  0  0
   11.9530  -17.8544   24.2093 C   0  0  0  0  0  0  0  0  0  0  0  0
   10.5839  -17.9486   24.8880 C   0  0  2  0  0  0  0  0  0  0  0  0
    9.9593  -16.6484   24.7188 N   0  0  0  0  0  0  0  0  0  0  0  0
   10.8102  -18.1636   26.3405 C   0  0  0  0  0  0  0  0  0  0  0  0
   10.4711  -17.1404   27.2227 O   0  0  0  0  0  0  0  0  0  0  0  0
   11.2880  -19.2164   26.7951 O   0  0  0  0  0  0  0  0  0  0  0  0
  2  1  1  6
  2  3  1  0
  3  4  1  0
  5  2  1  0
  5  6  2  0
  7  5  1  0
  8  7  1  0
  8  9  1  1
 10  9  1  0
 11  8  1  0
 12 11  2  0
 14 13  1  6
 14 15  1  0
 14 16  1  0
 15 11  1  0
 16 17  1  0
 18 16  2  0
M  END
$$$$
