CCA.pdb
     RDKit          3D

 18 17  0  0  1  0  0  0  0  0999 V2000
    9.2973  -15.2627   13.1931 N   0  0  0  0  0  0  0  0  0  0  0  0
    8.8909  -15.8918   14.4307 C   0  0  1  0  0  0  0  0  0  0  0  0
    9.4783  -17.2862   14.5541 C   0  0  0  0  0  0  0  0  0  0  0  0
    8.1657  -18.4459   15.0097 S   0  0  0  0  0  0  0  0  0  0  0  0
    9.3902  -15.0811   15.5591 C   0  0  0  0  0  0  0  0  0  0  0  0
   10.5838  -14.7009   15.5336 O   0  0  0  0  0  0  0  0  0  0  0  0
    8.5198  -14.7531   16.6356 N   0  0  0  0  0  0  0  0  0  0  0  0
    9.0809  -14.1378   17.7927 C   0  0  1  0  0  0  0  0  0  0  0  0
    7.9513  -13.7085   18.7026 C   0  0  0  0  0  0  0  0  0  0  0  0
    8.6784  -12.9800   20.1867 S   0  0  0  0  0  0  0  0  0  0  0  0
    9.9721  -15.0355   18.5677 C   0  0  0  0  0  0  0  0  0  0  0  0
    9.6687  -16.2334   18.7935 O   0  0  0  0  0  0  0  0  0  0  0  0
   13.4708  -14.5362   19.7366 C   0  0  0  0  0  0  0  0  0  0  0  0
   12.1417  -15.2904   19.8301 C   0  0  2  0  0  0  0  0  0  0  0  0
   11.1848  -14.5192   19.0562 N   0  0  0  0  0  0  0  0  0  0  0  0
   11.7061  -15.2700   21.2503 C   0  0  0  0  0  0  0  0  0  0  0  0
   12.4339  -16.0124   22.1774 O   0  0  0  0  0  0  0  0  0  0  0  0
   10.7223  -14.6190   21.6397 O   0  0  0  0  0  0  0  0  0  0  0  0
  2  1  1  6
  2  3  1  0
  3  4  1  0
  5  2  1  0
  5  6  2  0
  7  5  1  0
  8  7  1  0
  8  9  1  1
 10  9  1  0
 11  8  1  0
 12 11  2  0
 14 13  1  1
 14 15  1  0
 14 16  1  0
 15 11  1  0
 16 17  1  0
 18 16  2  0
M  END
$$$$
