CCA.pdb
     RDKit          3D

 18 17  0  0  1  0  0  0  0  0999 V2000
    8.6652  -14.9531   20.4638 N   0  0  0  0  0  0  0  0  0  0  0  0
    7.8114  -15.3810   21.5504 C   0  0  1  0  0  0  0  0  0  0  0  0
    7.8327  -16.8915   21.7005 C   0  0  0  0  0  0  0  0  0  0  0  0
    6.2180  -17.5585   21.2280 S   0  0  0  0  0  0  0  0  0  0  0  0
    8.3114  -14.7871   22.8062 C   0  0  0  0  0  0  0  0  0  0  0  0
    9.5503  -14.7387   22.9871 O   0  0  0  0  0  0  0  0  0  0  0  0
    7.3911  -14.2897   23.7704 N   0  0  0  0  0  0  0  0  0  0  0  0
    7.9090  -13.7840   24.9986 C   0  0  1  0  0  0  0  0  0  0  0  0
    6.8469  -12.9259   25.6494 C   0  0  0  0  0  0  0  0  0  0  0  0
    7.4864  -12.3606   27.2411 S   0  0  0  0  0  0  0  0  0  0  0  0
    8.2890  -14.8455   25.9629 C   0  0  0  0  0  0  0  0  0  0  0  0
    7.4510  -15.6747   26.3966 O   0  0  0  0  0  0  0  0  0  0  0  0
   11.6268  -16.0500   27.0189 C   0  0  0  0  0  0  0  0  0  0  0  0
   10.1303  -15.9174   27.3141 C   0  0  2  0  0  0  0  0  0  0  0  0
    9.6250  -14.9135   26.3942 N   0  0  0  0  0  0  0  0  0  0  0  0
    9.9842  -15.3896   28.6951 C   0  0  0  0  0  0  0  0  0  0  0  0
   10.3095  -16.2245   29.7615 O   0  0  0  0  0  0  0  0  0  0  0  0
    9.5849  -14.2374   28.9328 O   0  0  0  0  0  0  0  0  0  0  0  0
  2  1  1  6
  2  3  1  0
  3  4  1  0
  5  2  1  0
  5  6  2  0
  7  5  1  0
  8  7  1  0
  8  9  1  1
 10  9  1  0
 11  8  1  0
 12 11  2  0
 14 13  1  6
 14 15  1  0
 14 16  1  0
 15 11  1  0
 16 17  1  0
 18 16  2  0
M  END
$$$$
