CCA.pdb
     RDKit          3D

 18 17  0  0  1  0  0  0  0  0999 V2000
    9.9197  -16.2377   16.6005 N   0  0  0  0  0  0  0  0  0  0  0  0
    8.8483  -16.2207   17.5723 C   0  0  1  0  0  0  0  0  0  0  0  0
    8.2833  -17.6131   17.7881 C   0  0  0  0  0  0  0  0  0  0  0  0
    7.4253  -18.1457   16.2863 S   0  0  0  0  0  0  0  0  0  0  0  0
    9.3859  -15.7381   18.8600 C   0  0  0  0  0  0  0  0  0  0  0  0
   10.6077  -15.4689   18.9288 O   0  0  0  0  0  0  0  0  0  0  0  0
    8.5197  -15.5907   19.9789 N   0  0  0  0  0  0  0  0  0  0  0  0
    9.0879  -15.1891   21.2231 C   0  0  1  0  0  0  0  0  0  0  0  0
    8.0569  -14.3849   21.9835 C   0  0  0  0  0  0  0  0  0  0  0  0
    6.6545  -15.4676   22.3342 S   0  0  0  0  0  0  0  0  0  0  0  0
    9.4992  -16.3273   22.0812 C   0  0  0  0  0  0  0  0  0  0  0  0
    8.8913  -17.4262   22.0570 O   0  0  0  0  0  0  0  0  0  0  0  0
   12.6655  -17.0219   23.7604 C   0  0  0  0  0  0  0  0  0  0  0  0
   11.1464  -17.2119   23.7752 C   0  0  2  0  0  0  0  0  0  0  0  0
   10.5998  -16.1577   22.9390 N   0  0  0  0  0  0  0  0  0  0  0  0
   10.6734  -16.9868   25.1654 C   0  0  0  0  0  0  0  0  0  0  0  0
   10.9701  -17.9469   26.1300 O   0  0  0  0  0  0  0  0  0  0  0  0
   10.0266  -15.9796   25.4978 O   0  0  0  0  0  0  0  0  0  0  0  0
  2  1  1  6
  2  3  1  0
  3  4  1  0
  5  2  1  0
  5  6  2  0
  7  5  1  0
  8  7  1  0
  8  9  1  1
 10  9  1  0
 11  8  1  0
 12 11  2  0
 14 13  1  1
 14 15  1  0
 14 16  1  0
 15 11  1  0
 16 17  1  0
 18 16  2  0
M  END
$$$$
