CCA.pdb
     RDKit          3D

 18 17  0  0  1  0  0  0  0  0999 V2000
    8.2827  -14.8914   20.4727 N   0  0  0  0  0  0  0  0  0  0  0  0
    7.5362  -15.3767   21.6128 C   0  0  1  0  0  0  0  0  0  0  0  0
    7.6539  -16.8847   21.7421 C   0  0  0  0  0  0  0  0  0  0  0  0
    6.0454  -17.5683   22.2122 S   0  0  0  0  0  0  0  0  0  0  0  0
    8.0920  -14.7657   22.8365 C   0  0  0  0  0  0  0  0  0  0  0  0
    9.3378  -14.7025   22.9545 O   0  0  0  0  0  0  0  0  0  0  0  0
    7.2159  -14.2687   23.8412 N   0  0  0  0  0  0  0  0  0  0  0  0
    7.7871  -13.7822   25.0533 C   0  0  1  0  0  0  0  0  0  0  0  0
    6.7582  -12.9266   25.7585 C   0  0  0  0  0  0  0  0  0  0  0  0
    7.4734  -12.3702   27.3208 S   0  0  0  0  0  0  0  0  0  0  0  0
    8.1999  -14.8584   25.9873 C   0  0  0  0  0  0  0  0  0  0  0  0
    7.3991  -15.7503   26.3627 O   0  0  0  0  0  0  0  0  0  0  0  0
   11.5440  -16.0281   26.9726 C   0  0  0  0  0  0  0  0  0  0  0  0
   10.0647  -15.8862   27.3407 C   0  0  2  0  0  0  0  0  0  0  0  0
    9.5248  -14.8681   26.4567 N   0  0  0  0  0  0  0  0  0  0  0  0
    9.9896  -15.3722   28.7326 C   0  0  0  0  0  0  0  0  0  0  0  0
   10.3967  -16.2074   29.7703 O   0  0  0  0  0  0  0  0  0  0  0  0
    9.5796  -14.2313   29.0039 O   0  0  0  0  0  0  0  0  0  0  0  0
  2  1  1  6
  2  3  1  0
  3  4  1  0
  5  2  1  0
  5  6  2  0
  7  5  1  0
  8  7  1  0
  8  9  1  1
 10  9  1  0
 11  8  1  0
 12 11  2  0
 14 13  1  6
 14 15  1  0
 14 16  1  0
 15 11  1  0
 16 17  1  0
 18 16  2  0
M  END
$$$$
