CCA.pdb
     RDKit          3D

 18 17  0  0  1  0  0  0  0  0999 V2000
    8.2162  -12.8106   18.2474 N   0  0  0  0  0  0  0  0  0  0  0  0
    7.6323  -13.9215   18.9670 C   0  0  1  0  0  0  0  0  0  0  0  0
    7.7910  -15.2182   18.1937 C   0  0  0  0  0  0  0  0  0  0  0  0
    7.1978  -16.5929   19.2103 S   0  0  0  0  0  0  0  0  0  0  0  0
    8.3323  -14.0680   20.2587 C   0  0  0  0  0  0  0  0  0  0  0  0
    9.5771  -13.9264   20.2780 O   0  0  0  0  0  0  0  0  0  0  0  0
    7.5911  -14.3625   21.4369 N   0  0  0  0  0  0  0  0  0  0  0  0
    8.3059  -14.5302   22.6588 C   0  0  1  0  0  0  0  0  0  0  0  0
    7.4103  -14.1030   23.8005 C   0  0  0  0  0  0  0  0  0  0  0  0
    8.2970  -14.4021   25.3453 S   0  0  0  0  0  0  0  0  0  0  0  0
    8.7269  -15.9302   22.9113 C   0  0  0  0  0  0  0  0  0  0  0  0
    7.8944  -16.8683   22.9794 O   0  0  0  0  0  0  0  0  0  0  0  0
   12.0092  -17.5487   22.6174 C   0  0  0  0  0  0  0  0  0  0  0  0
   10.6404  -17.5273   23.3030 C   0  0  2  0  0  0  0  0  0  0  0  0
   10.0965  -16.1997   23.0767 N   0  0  0  0  0  0  0  0  0  0  0  0
   10.8605  -17.6904   24.7632 C   0  0  0  0  0  0  0  0  0  0  0  0
   10.5179  -16.6364   25.6069 O   0  0  0  0  0  0  0  0  0  0  0  0
   11.3363  -18.7264   25.2570 O   0  0  0  0  0  0  0  0  0  0  0  0
  2  1  1  6
  2  3  1  0
  3  4  1  0
  5  2  1  0
  5  6  2  0
  7  5  1  0
  8  7  1  0
  8  9  1  1
 10  9  1  0
 11  8  1  0
 12 11  2  0
 14 13  1  6
 14 15  1  0
 14 16  1  0
 15 11  1  0
 16 17  1  0
 18 16  2  0
M  END
$$$$
