CCA.pdb
     RDKit          3D

 18 17  0  0  1  0  0  0  0  0999 V2000
    3.9779  -20.0912   15.2007 N   0  0  0  0  0  0  0  0  0  0  0  0
    3.1344  -20.5642   16.2765 C   0  0  1  0  0  0  0  0  0  0  0  0
    3.2096  -22.0749   16.4068 C   0  0  0  0  0  0  0  0  0  0  0  0
    2.8850  -22.8275   14.7933 S   0  0  0  0  0  0  0  0  0  0  0  0
    3.6060  -19.9696   17.5430 C   0  0  0  0  0  0  0  0  0  0  0  0
    4.6189  -19.2328   17.5112 O   0  0  0  0  0  0  0  0  0  0  0  0
    2.9117  -20.2407   18.7548 N   0  0  0  0  0  0  0  0  0  0  0  0
    3.3717  -19.6144   19.9500 C   0  0  1  0  0  0  0  0  0  0  0  0
    2.1739  -19.3046   20.8203 C   0  0  0  0  0  0  0  0  0  0  0  0
    2.7757  -18.5527   22.3481 S   0  0  0  0  0  0  0  0  0  0  0  0
    4.3015  -20.4578   20.7406 C   0  0  0  0  0  0  0  0  0  0  0  0
    4.0175  -21.6412   21.0518 O   0  0  0  0  0  0  0  0  0  0  0  0
    7.7885  -19.7403   21.8913 C   0  0  0  0  0  0  0  0  0  0  0  0
    6.5525  -20.6435   21.8647 C   0  0  2  0  0  0  0  0  0  0  0  0
    5.5290  -19.9056   21.1455 N   0  0  0  0  0  0  0  0  0  0  0  0
    6.0904  -20.8231   23.2652 C   0  0  0  0  0  0  0  0  0  0  0  0
    4.9800  -20.1000   23.6945 O   0  0  0  0  0  0  0  0  0  0  0  0
    6.6544  -21.5901   24.0632 O   0  0  0  0  0  0  0  0  0  0  0  0
  2  1  1  6
  2  3  1  0
  3  4  1  0
  5  2  1  0
  5  6  2  0
  7  5  1  0
  8  7  1  0
  8  9  1  1
 10  9  1  0
 11  8  1  0
 12 11  2  0
 14 13  1  1
 14 15  1  0
 14 16  1  0
 15 11  1  0
 16 17  1  0
 18 16  2  0
M  END
$$$$
