CCA.pdb
     RDKit          3D

 18 17  0  0  1  0  0  0  0  0999 V2000
    8.2442  -14.4333   20.2103 N   0  0  0  0  0  0  0  0  0  0  0  0
    7.2106  -14.4738   21.2215 C   0  0  1  0  0  0  0  0  0  0  0  0
    6.4738  -15.8009   21.1977 C   0  0  0  0  0  0  0  0  0  0  0  0
    7.6656  -17.1462   21.4097 S   0  0  0  0  0  0  0  0  0  0  0  0
    7.8409  -14.3216   22.5479 C   0  0  0  0  0  0  0  0  0  0  0  0
    9.0358  -14.6744   22.6805 O   0  0  0  0  0  0  0  0  0  0  0  0
    7.0907  -13.7860   23.6316 N   0  0  0  0  0  0  0  0  0  0  0  0
    7.7095  -13.7240   24.9144 C   0  0  1  0  0  0  0  0  0  0  0  0
    6.7948  -12.9671   25.8517 C   0  0  0  0  0  0  0  0  0  0  0  0
    7.6579  -12.7598   27.4246 S   0  0  0  0  0  0  0  0  0  0  0  0
    7.9693  -15.0570   25.5116 C   0  0  0  0  0  0  0  0  0  0  0  0
    7.0403  -15.8713   25.7392 O   0  0  0  0  0  0  0  0  0  0  0  0
   11.0523  -17.0168   25.8123 C   0  0  0  0  0  0  0  0  0  0  0  0
    9.6827  -16.6781   26.4070 C   0  0  2  0  0  0  0  0  0  0  0  0
    9.2944  -15.4048   25.8262 N   0  0  0  0  0  0  0  0  0  0  0  0
    9.8579  -16.4813   27.8691 C   0  0  0  0  0  0  0  0  0  0  0  0
    9.6679  -15.2050   28.3935 O   0  0  0  0  0  0  0  0  0  0  0  0
   10.1658  -17.4079   28.6372 O   0  0  0  0  0  0  0  0  0  0  0  0
  2  1  1  6
  2  3  1  0
  3  4  1  0
  5  2  1  0
  5  6  2  0
  7  5  1  0
  8  7  1  0
  8  9  1  1
 10  9  1  0
 11  8  1  0
 12 11  2  0
 14 13  1  6
 14 15  1  0
 14 16  1  0
 15 11  1  0
 16 17  1  0
 18 16  2  0
M  END
$$$$
