CCA.pdb
     RDKit          3D

 18 17  0  0  1  0  0  0  0  0999 V2000
    8.3588  -15.0308   20.3735 N   0  0  0  0  0  0  0  0  0  0  0  0
    7.4118  -15.2988   21.4337 C   0  0  1  0  0  0  0  0  0  0  0  0
    7.0611  -16.7747   21.4938 C   0  0  0  0  0  0  0  0  0  0  0  0
    5.7027  -17.1100   20.3459 S   0  0  0  0  0  0  0  0  0  0  0  0
    8.0248  -14.9192   22.7221 C   0  0  0  0  0  0  0  0  0  0  0  0
    9.2019  -15.2838   22.9489 O   0  0  0  0  0  0  0  0  0  0  0  0
    7.2786  -14.1590   23.6651 N   0  0  0  0  0  0  0  0  0  0  0  0
    7.8619  -13.9079   24.9414 C   0  0  1  0  0  0  0  0  0  0  0  0
    6.9703  -12.9461   25.6951 C   0  0  0  0  0  0  0  0  0  0  0  0
    7.7367  -12.6154   27.2967 S   0  0  0  0  0  0  0  0  0  0  0  0
    8.0183  -15.1275   25.7714 C   0  0  0  0  0  0  0  0  0  0  0  0
    7.0348  -15.8424   26.0870 O   0  0  0  0  0  0  0  0  0  0  0  0
   10.7859  -17.3459   26.3551 C   0  0  0  0  0  0  0  0  0  0  0  0
    9.5950  -16.6507   27.0202 C   0  0  2  0  0  0  0  0  0  0  0  0
    9.3064  -15.4808   26.2094 N   0  0  0  0  0  0  0  0  0  0  0  0
   10.0319  -16.1834   28.3611 C   0  0  0  0  0  0  0  0  0  0  0  0
   10.3431  -17.1379   29.3266 O   0  0  0  0  0  0  0  0  0  0  0  0
   10.1296  -14.9795   28.6516 O   0  0  0  0  0  0  0  0  0  0  0  0
  2  1  1  6
  2  3  1  0
  3  4  1  0
  5  2  1  0
  5  6  2  0
  7  5  1  0
  8  7  1  0
  8  9  1  1
 10  9  1  0
 11  8  1  0
 12 11  2  0
 14 13  1  6
 14 15  1  0
 14 16  1  0
 15 11  1  0
 16 17  1  0
 18 16  2  0
M  END
$$$$
