CCA.pdb
     RDKit          3D

 18 17  0  0  1  0  0  0  0  0999 V2000
    8.5466  -15.0094   20.5286 N   0  0  0  0  0  0  0  0  0  0  0  0
    7.6199  -15.3110   21.5977 C   0  0  1  0  0  0  0  0  0  0  0  0
    7.4350  -16.8096   21.7547 C   0  0  0  0  0  0  0  0  0  0  0  0
    6.3890  -17.4234   20.4113 S   0  0  0  0  0  0  0  0  0  0  0  0
    8.1680  -14.7805   22.8618 C   0  0  0  0  0  0  0  0  0  0  0  0
    9.4016  -14.8759   23.0595 O   0  0  0  0  0  0  0  0  0  0  0  0
    7.2982  -14.1812   23.8149 N   0  0  0  0  0  0  0  0  0  0  0  0
    7.8614  -13.7013   25.0334 C   0  0  1  0  0  0  0  0  0  0  0  0
    6.8422  -12.8169   25.7169 C   0  0  0  0  0  0  0  0  0  0  0  0
    7.5334  -12.2926   27.3009 S   0  0  0  0  0  0  0  0  0  0  0  0
    8.2328  -14.7815   25.9801 C   0  0  0  0  0  0  0  0  0  0  0  0
    7.3842  -15.5988   26.4156 O   0  0  0  0  0  0  0  0  0  0  0  0
   11.5326  -16.1222   26.9481 C   0  0  0  0  0  0  0  0  0  0  0  0
   10.0647  -15.8889   27.3155 C   0  0  2  0  0  0  0  0  0  0  0  0
    9.5729  -14.8813   26.3923 N   0  0  0  0  0  0  0  0  0  0  0  0
   10.0244  -15.3150   28.6853 C   0  0  0  0  0  0  0  0  0  0  0  0
   10.3712  -16.1339   29.7573 O   0  0  0  0  0  0  0  0  0  0  0  0
    9.6948  -14.1383   28.9088 O   0  0  0  0  0  0  0  0  0  0  0  0
  2  1  1  6
  2  3  1  0
  3  4  1  0
  5  2  1  0
  5  6  2  0
  7  5  1  0
  8  7  1  0
  8  9  1  1
 10  9  1  0
 11  8  1  0
 12 11  2  0
 14 13  1  6
 14 15  1  0
 14 16  1  0
 15 11  1  0
 16 17  1  0
 18 16  2  0
M  END
$$$$
