CCA.pdb
     RDKit          3D

 18 17  0  0  1  0  0  0  0  0999 V2000
    8.8166  -17.2529   16.0219 N   0  0  0  0  0  0  0  0  0  0  0  0
    7.9738  -17.3895   17.1897 C   0  0  1  0  0  0  0  0  0  0  0  0
    7.8704  -18.8408   17.6230 C   0  0  0  0  0  0  0  0  0  0  0  0
    6.1281  -19.3293   17.6532 S   0  0  0  0  0  0  0  0  0  0  0  0
    8.5737  -16.6204   18.2981 C   0  0  0  0  0  0  0  0  0  0  0  0
    9.7881  -16.7954   18.5520 O   0  0  0  0  0  0  0  0  0  0  0  0
    7.7735  -15.7106   19.0437 N   0  0  0  0  0  0  0  0  0  0  0  0
    8.3909  -14.9794   20.1004 C   0  0  1  0  0  0  0  0  0  0  0  0
    7.4075  -13.9482   20.6080 C   0  0  0  0  0  0  0  0  0  0  0  0
    7.2805  -12.6421   19.3672 S   0  0  0  0  0  0  0  0  0  0  0  0
    8.7947  -15.8263   21.2496 C   0  0  0  0  0  0  0  0  0  0  0  0
    8.0660  -16.7585   21.6713 O   0  0  0  0  0  0  0  0  0  0  0  0
   12.0718  -16.1223   22.9697 C   0  0  0  0  0  0  0  0  0  0  0  0
   10.5577  -16.3491   22.9770 C   0  0  2  0  0  0  0  0  0  0  0  0
   10.0274  -15.5677   21.8735 N   0  0  0  0  0  0  0  0  0  0  0  0
   10.0191  -15.7833   24.2407 C   0  0  0  0  0  0  0  0  0  0  0  0
   10.2676  -16.4637   25.4304 O   0  0  0  0  0  0  0  0  0  0  0  0
    9.3590  -14.7314   24.2755 O   0  0  0  0  0  0  0  0  0  0  0  0
  2  1  1  6
  2  3  1  0
  3  4  1  0
  5  2  1  0
  5  6  2  0
  7  5  1  0
  8  7  1  0
  8  9  1  1
 10  9  1  0
 11  8  1  0
 12 11  2  0
 14 13  1  1
 14 15  1  0
 14 16  1  0
 15 11  1  0
 16 17  1  0
 18 16  2  0
M  END
$$$$
