CCA.pdb
     RDKit          3D

 18 17  0  0  1  0  0  0  0  0999 V2000
    9.4392  -17.4394   16.8495 N   0  0  0  0  0  0  0  0  0  0  0  0
    8.4874  -17.5802   17.9297 C   0  0  1  0  0  0  0  0  0  0  0  0
    8.3767  -19.0269   18.3763 C   0  0  0  0  0  0  0  0  0  0  0  0
   10.0318  -19.7557   18.4459 S   0  0  0  0  0  0  0  0  0  0  0  0
    8.9545  -16.7790   19.0785 C   0  0  0  0  0  0  0  0  0  0  0  0
   10.1638  -16.4539   19.1222 O   0  0  0  0  0  0  0  0  0  0  0  0
    8.0368  -16.3982   20.0968 N   0  0  0  0  0  0  0  0  0  0  0  0
    8.5415  -15.7000   21.2326 C   0  0  1  0  0  0  0  0  0  0  0  0
    7.3839  -15.0227   21.9322 C   0  0  0  0  0  0  0  0  0  0  0  0
    8.0355  -14.1617   23.3799 S   0  0  0  0  0  0  0  0  0  0  0  0
    9.2151  -16.5808   22.2181 C   0  0  0  0  0  0  0  0  0  0  0  0
    8.6743  -17.6322   22.6424 O   0  0  0  0  0  0  0  0  0  0  0  0
   12.7382  -16.5476   23.4108 C   0  0  0  0  0  0  0  0  0  0  0  0
   11.2964  -17.0378   23.5688 C   0  0  2  0  0  0  0  0  0  0  0  0
   10.4916  -16.2175   22.6808 N   0  0  0  0  0  0  0  0  0  0  0  0
   10.8711  -16.7572   24.9644 C   0  0  0  0  0  0  0  0  0  0  0  0
   11.3761  -17.5592   25.9851 O   0  0  0  0  0  0  0  0  0  0  0  0
   10.0859  -15.8388   25.2532 O   0  0  0  0  0  0  0  0  0  0  0  0
  2  1  1  6
  2  3  1  0
  3  4  1  0
  5  2  1  0
  5  6  2  0
  7  5  1  0
  8  7  1  0
  8  9  1  1
 10  9  1  0
 11  8  1  0
 12 11  2  0
 14 13  1  1
 14 15  1  0
 14 16  1  0
 15 11  1  0
 16 17  1  0
 18 16  2  0
M  END
$$$$
