CCA.pdb
     RDKit          3D

 18 17  0  0  1  0  0  0  0  0999 V2000
    9.2829  -15.3210   20.4410 N   0  0  0  0  0  0  0  0  0  0  0  0
    8.8265  -16.0758   21.5876 C   0  0  1  0  0  0  0  0  0  0  0  0
    9.6905  -17.3033   21.8137 C   0  0  0  0  0  0  0  0  0  0  0  0
    9.1819  -18.1134   23.3501 S   0  0  0  0  0  0  0  0  0  0  0  0
    8.9226  -15.2189   22.7861 C   0  0  0  0  0  0  0  0  0  0  0  0
    9.9611  -14.5362   22.9452 O   0  0  0  0  0  0  0  0  0  0  0  0
    7.8510  -15.1861   23.7214 N   0  0  0  0  0  0  0  0  0  0  0  0
    7.9790  -14.3430   24.8639 C   0  0  1  0  0  0  0  0  0  0  0  0
    6.5936  -14.0159   25.3757 C   0  0  0  0  0  0  0  0  0  0  0  0
    6.7634  -12.8094   26.7089 S   0  0  0  0  0  0  0  0  0  0  0  0
    8.7391  -14.9642   25.9762 C   0  0  0  0  0  0  0  0  0  0  0  0
    8.7229  -16.2043   26.1757 O   0  0  0  0  0  0  0  0  0  0  0  0
   10.6147  -13.4827   28.8237 C   0  0  0  0  0  0  0  0  0  0  0  0
   10.4303  -14.6212   27.8168 C   0  0  2  0  0  0  0  0  0  0  0  0
    9.4928  -14.1315   26.8214 N   0  0  0  0  0  0  0  0  0  0  0  0
    9.7920  -15.7585   28.5282 C   0  0  0  0  0  0  0  0  0  0  0  0
   10.5749  -16.5263   29.3871 O   0  0  0  0  0  0  0  0  0  0  0  0
    8.5924  -16.0488   28.3862 O   0  0  0  0  0  0  0  0  0  0  0  0
  2  1  1  6
  2  3  1  0
  3  4  1  0
  5  2  1  0
  5  6  2  0
  7  5  1  0
  8  7  1  0
  8  9  1  1
 10  9  1  0
 11  8  1  0
 12 11  2  0
 14 13  1  1
 14 15  1  0
 14 16  1  0
 15 11  1  0
 16 17  1  0
 18 16  2  0
M  END
$$$$
