CCA.pdb
     RDKit          3D

 18 17  0  0  1  0  0  0  0  0999 V2000
    8.4507  -14.5957   20.6143 N   0  0  0  0  0  0  0  0  0  0  0  0
    7.8582  -15.3396   21.7044 C   0  0  1  0  0  0  0  0  0  0  0  0
    8.3523  -16.7749   21.7195 C   0  0  0  0  0  0  0  0  0  0  0  0
    7.3541  -17.7592   20.5748 S   0  0  0  0  0  0  0  0  0  0  0  0
    8.2509  -14.7048   22.9782 C   0  0  0  0  0  0  0  0  0  0  0  0
    9.4078  -14.2330   23.0736 O   0  0  0  0  0  0  0  0  0  0  0  0
    7.3227  -14.6424   24.0546 N   0  0  0  0  0  0  0  0  0  0  0  0
    7.7528  -14.0604   25.2828 C   0  0  1  0  0  0  0  0  0  0  0  0
    6.5375  -13.8197   26.1506 C   0  0  0  0  0  0  0  0  0  0  0  0
    5.7418  -12.3002   25.5850 S   0  0  0  0  0  0  0  0  0  0  0  0
    8.6937  -14.9163   26.0464 C   0  0  0  0  0  0  0  0  0  0  0  0
    8.7308  -16.1619   25.8878 O   0  0  0  0  0  0  0  0  0  0  0  0
   11.1035  -14.0062   28.7624 C   0  0  0  0  0  0  0  0  0  0  0  0
   10.5198  -15.0286   27.7837 C   0  0  2  0  0  0  0  0  0  0  0  0
    9.5608  -14.3044   26.9680 N   0  0  0  0  0  0  0  0  0  0  0  0
    9.7762  -16.0426   28.5750 C   0  0  0  0  0  0  0  0  0  0  0  0
   10.4943  -17.0812   29.1631 O   0  0  0  0  0  0  0  0  0  0  0  0
    8.5445  -15.9988   28.7308 O   0  0  0  0  0  0  0  0  0  0  0  0
  2  1  1  6
  2  3  1  0
  3  4  1  0
  5  2  1  0
  5  6  2  0
  7  5  1  0
  8  7  1  0
  8  9  1  1
 10  9  1  0
 11  8  1  0
 12 11  2  0
 14 13  1  1
 14 15  1  0
 14 16  1  0
 15 11  1  0
 16 17  1  0
 18 16  2  0
M  END
$$$$
