CCA.pdb
     RDKit          3D

 18 17  0  0  1  0  0  0  0  0999 V2000
   10.9764  -16.7167   13.9825 N   0  0  0  0  0  0  0  0  0  0  0  0
   10.0980  -16.9572   15.1064 C   0  0  1  0  0  0  0  0  0  0  0  0
    9.7202  -18.4245   15.2012 C   0  0  0  0  0  0  0  0  0  0  0  0
    8.4547  -18.7937   13.9612 S   0  0  0  0  0  0  0  0  0  0  0  0
   10.8052  -16.5835   16.3474 C   0  0  0  0  0  0  0  0  0  0  0  0
   12.0146  -16.2657   16.2680 O   0  0  0  0  0  0  0  0  0  0  0  0
   10.1102  -16.5915   17.5888 N   0  0  0  0  0  0  0  0  0  0  0  0
   10.8132  -16.1768   18.7576 C   0  0  1  0  0  0  0  0  0  0  0  0
    9.8192  -15.5763   19.7269 C   0  0  0  0  0  0  0  0  0  0  0  0
    8.6670  -16.8769   20.2196 S   0  0  0  0  0  0  0  0  0  0  0  0
   11.5124  -17.2852   19.4528 C   0  0  0  0  0  0  0  0  0  0  0  0
   10.9396  -18.3753   19.7005 O   0  0  0  0  0  0  0  0  0  0  0  0
   14.9230  -18.2582   19.6217 C   0  0  0  0  0  0  0  0  0  0  0  0
   13.6618  -18.1183   20.4783 C   0  0  2  0  0  0  0  0  0  0  0  0
   12.8509  -17.0972   19.8387 N   0  0  0  0  0  0  0  0  0  0  0  0
   14.0723  -17.6096   21.8124 C   0  0  0  0  0  0  0  0  0  0  0  0
   14.6965  -18.4893   22.6937 O   0  0  0  0  0  0  0  0  0  0  0  0
   13.8805  -16.4352   22.1692 O   0  0  0  0  0  0  0  0  0  0  0  0
  2  1  1  6
  2  3  1  0
  3  4  1  0
  5  2  1  0
  5  6  2  0
  7  5  1  0
  8  7  1  0
  8  9  1  1
 10  9  1  0
 11  8  1  0
 12 11  2  0
 14 13  1  6
 14 15  1  0
 14 16  1  0
 15 11  1  0
 16 17  1  0
 18 16  2  0
M  END
$$$$
