MGR.pdb
     RDKit          3D

 24 23  0  0  1  0  0  0  0  0999 V2000
   26.5700  -19.2968   -5.7567 C   0  0  0  0  0  0  0  0  0  0  0  0
   28.2830  -19.7120   -6.1855 S   0  0  0  0  0  0  0  0  0  0  0  0
   28.3107  -20.8421   -7.5967 C   0  0  0  0  0  0  0  0  0  0  0  0
   27.1658  -20.4864   -8.5235 C   0  0  0  0  0  0  0  0  0  0  0  0
   27.1622  -21.4107   -9.7341 C   0  0  2  0  0  0  0  0  0  0  0  0
   28.4780  -21.5938  -10.2674 N   0  0  0  0  0  0  0  0  0  0  0  0
   26.2939  -20.8012  -10.8057 C   0  0  0  0  0  0  0  0  0  0  0  0
   25.1214  -20.4334  -10.6096 O   0  0  0  0  0  0  0  0  0  0  0  0
   26.8335  -20.6262  -12.1405 N   0  0  0  0  0  0  0  0  0  0  0  0
   26.0573  -19.9924  -13.1626 C   0  0  0  0  0  0  0  0  0  0  0  0
   24.9496  -20.8164  -13.6275 C   0  0  0  0  0  0  0  0  0  0  0  0
   25.2736  -21.7939  -14.3998 O   0  0  0  0  0  0  0  0  0  0  0  0
   19.5481  -24.6904   -9.9200 N   0  0  0  0  0  0  0  0  0  0  0  0
   18.8767  -23.4352  -10.1079 C   0  0  0  0  0  0  0  0  0  0  0  0
   17.8753  -23.0750   -9.4133 N   0  0  0  0  0  0  0  0  0  0  0  0
   19.3685  -22.5574  -11.1277 N   0  0  0  0  0  0  0  0  0  0  0  0
   19.5248  -22.9511  -12.4827 C   0  0  0  0  0  0  0  0  0  0  0  0
   20.0698  -21.9573  -13.4524 C   0  0  0  0  0  0  0  0  0  0  0  0
   21.2963  -21.2178  -13.0877 C   0  0  0  0  0  0  0  0  0  0  0  0
   22.5560  -21.5752  -13.7574 C   0  0  2  0  0  0  0  0  0  0  0  0
   23.5980  -20.6219  -13.2972 N   0  0  0  0  0  0  0  0  0  0  0  0
   22.4726  -21.4701  -15.2373 C   0  0  0  0  0  0  0  0  0  0  0  0
   22.4717  -20.3992  -15.8882 O   0  0  0  0  0  0  0  0  0  0  0  0
   22.3822  -22.6569  -15.9809 O   0  0  0  0  0  0  0  0  0  0  0  0
  1  2  1  0
  3  2  1  0
  4  3  1  0
  5  4  1  0
  5  6  1  6
  7  5  1  0
  8  7  2  0
  9  7  1  0
 10  9  1  0
 11 21  1  0
 11 10  1  0
 12 11  2  0
 14 13  1  0
 15 14  2  0
 16 14  1  0
 17 16  1  0
 18 17  1  0
 20 19  1  1
 19 18  1  0
 20 21  1  0
 22 20  1  0
 23 22  2  0
 24 22  1  0
M  END
$$$$
