MGR.pdb
     RDKit          3D

 24 23  0  0  1  0  0  0  0  0999 V2000
   27.8660  -16.0757  -15.5713 C   0  0  0  0  0  0  0  0  0  0  0  0
   26.4001  -15.3328  -16.3392 S   0  0  0  0  0  0  0  0  0  0  0  0
   25.1915  -16.6177  -16.7360 C   0  0  0  0  0  0  0  0  0  0  0  0
   25.8510  -17.9712  -16.5651 C   0  0  0  0  0  0  0  0  0  0  0  0
   24.8357  -19.0837  -16.7920 C   0  0  2  0  0  0  0  0  0  0  0  0
   24.0304  -18.8407  -17.9502 N   0  0  0  0  0  0  0  0  0  0  0  0
   23.9294  -19.1642  -15.5895 C   0  0  0  0  0  0  0  0  0  0  0  0
   24.3310  -19.4544  -14.4479 O   0  0  0  0  0  0  0  0  0  0  0  0
   22.5135  -18.8938  -15.7498 N   0  0  0  0  0  0  0  0  0  0  0  0
   21.6592  -18.7827  -14.6068 C   0  0  0  0  0  0  0  0  0  0  0  0
   20.9118  -20.0034  -14.3358 C   0  0  0  0  0  0  0  0  0  0  0  0
   20.8149  -20.8233  -15.3234 O   0  0  0  0  0  0  0  0  0  0  0  0
   18.9011  -24.5474   -7.0545 N   0  0  0  0  0  0  0  0  0  0  0  0
   18.4525  -25.3807   -8.1343 C   0  0  0  0  0  0  0  0  0  0  0  0
   18.1874  -26.6154   -7.9920 N   0  0  0  0  0  0  0  0  0  0  0  0
   18.2999  -24.7804   -9.4262 N   0  0  0  0  0  0  0  0  0  0  0  0
   18.6746  -23.4408   -9.7096 C   0  0  0  0  0  0  0  0  0  0  0  0
   18.4380  -22.9132  -11.0846 C   0  0  0  0  0  0  0  0  0  0  0  0
   19.1941  -21.7206  -11.5206 C   0  0  0  0  0  0  0  0  0  0  0  0
   19.6029  -21.6262  -12.9303 C   0  0  2  0  0  0  0  0  0  0  0  0
   20.3129  -20.3338  -13.1086 N   0  0  0  0  0  0  0  0  0  0  0  0
   18.4498  -21.6387  -13.8674 C   0  0  0  0  0  0  0  0  0  0  0  0
   17.7182  -20.6552  -14.1285 O   0  0  0  0  0  0  0  0  0  0  0  0
   18.1384  -22.8428  -14.5174 O   0  0  0  0  0  0  0  0  0  0  0  0
  1  2  1  0
  3  2  1  0
  4  3  1  0
  5  4  1  0
  5  6  1  6
  7  5  1  0
  8  7  2  0
  9  7  1  0
 10  9  1  0
 11 21  1  0
 11 10  1  0
 12 11  2  0
 14 13  1  0
 15 14  2  0
 16 14  1  0
 17 16  1  0
 18 17  1  0
 20 19  1  1
 19 18  1  0
 20 21  1  0
 22 20  1  0
 23 22  2  0
 24 22  1  0
M  END
$$$$
