MGR.pdb
     RDKit          3D

 24 23  0  0  1  0  0  0  0  0999 V2000
   29.4818  -18.3481  -23.8997 C   0  0  0  0  0  0  0  0  0  0  0  0
   28.8135  -19.8011  -23.0437 S   0  0  0  0  0  0  0  0  0  0  0  0
   28.5405  -19.4189  -21.2977 C   0  0  0  0  0  0  0  0  0  0  0  0
   28.0553  -17.9877  -21.1861 C   0  0  0  0  0  0  0  0  0  0  0  0
   28.6272  -17.3343  -19.9347 C   0  0  2  0  0  0  0  0  0  0  0  0
   29.4323  -18.2456  -19.1794 N   0  0  0  0  0  0  0  0  0  0  0  0
   27.4853  -16.8731  -19.0646 C   0  0  0  0  0  0  0  0  0  0  0  0
   26.6096  -16.0772  -19.4496 O   0  0  0  0  0  0  0  0  0  0  0  0
   27.3840  -17.3702  -17.7059 N   0  0  0  0  0  0  0  0  0  0  0  0
   26.3179  -16.9431  -16.8516 C   0  0  0  0  0  0  0  0  0  0  0  0
   25.2243  -17.9031  -16.7850 C   0  0  0  0  0  0  0  0  0  0  0  0
   24.6877  -18.2091  -17.9144 O   0  0  0  0  0  0  0  0  0  0  0  0
   25.9767  -21.3183  -10.6041 N   0  0  0  0  0  0  0  0  0  0  0  0
   27.0881  -20.9055  -11.4140 C   0  0  0  0  0  0  0  0  0  0  0  0
   28.2405  -21.4344  -11.3294 N   0  0  0  0  0  0  0  0  0  0  0  0
   26.8748  -19.8486  -12.3573 N   0  0  0  0  0  0  0  0  0  0  0  0
   25.5958  -19.5172  -12.8767 C   0  0  0  0  0  0  0  0  0  0  0  0
   24.8512  -20.5556  -13.6462 C   0  0  0  0  0  0  0  0  0  0  0  0
   23.6014  -20.1633  -14.3305 C   0  0  0  0  0  0  0  0  0  0  0  0
   23.6945  -19.5557  -15.6667 C   0  0  2  0  0  0  0  0  0  0  0  0
   24.7358  -18.4980  -15.6098 N   0  0  0  0  0  0  0  0  0  0  0  0
   22.4255  -18.9145  -16.0985 C   0  0  0  0  0  0  0  0  0  0  0  0
   21.4313  -19.5183  -16.5649 O   0  0  0  0  0  0  0  0  0  0  0  0
   22.3171  -17.5199  -15.9860 O   0  0  0  0  0  0  0  0  0  0  0  0
  1  2  1  0
  3  2  1  0
  4  3  1  0
  5  4  1  0
  5  6  1  1
  7  5  1  0
  8  7  2  0
  9  7  1  0
 10  9  1  0
 11 21  1  0
 11 10  1  0
 12 11  2  0
 14 13  1  0
 15 14  2  0
 16 14  1  0
 17 16  1  0
 18 17  1  0
 20 19  1  1
 19 18  1  0
 20 21  1  0
 22 20  1  0
 23 22  2  0
 24 22  1  0
M  END
$$$$
