MGR.pdb
     RDKit          3D

 24 23  0  0  1  0  0  0  0  0999 V2000
   27.7754  -18.0409  -14.8289 C   0  0  0  0  0  0  0  0  0  0  0  0
   28.9207  -19.4281  -14.5960 S   0  0  0  0  0  0  0  0  0  0  0  0
   28.1594  -20.6893  -13.5476 C   0  0  0  0  0  0  0  0  0  0  0  0
   26.8174  -20.1741  -13.0684 C   0  0  0  0  0  0  0  0  0  0  0  0
   26.1448  -21.2088  -12.1757 C   0  0  2  0  0  0  0  0  0  0  0  0
   25.8970  -22.4334  -12.8743 N   0  0  0  0  0  0  0  0  0  0  0  0
   24.8247  -20.6545  -11.7023 C   0  0  0  0  0  0  0  0  0  0  0  0
   24.7209  -19.6082  -11.0367 O   0  0  0  0  0  0  0  0  0  0  0  0
   23.6013  -21.3620  -12.0281 N   0  0  0  0  0  0  0  0  0  0  0  0
   22.3275  -20.7330  -11.8533 C   0  0  0  0  0  0  0  0  0  0  0  0
   21.2193  -21.5557  -12.3193 C   0  0  0  0  0  0  0  0  0  0  0  0
   21.4627  -22.2732  -13.3600 O   0  0  0  0  0  0  0  0  0  0  0  0
   16.3828  -24.6235   -7.4328 N   0  0  0  0  0  0  0  0  0  0  0  0
   17.7257  -25.1304   -7.3979 C   0  0  0  0  0  0  0  0  0  0  0  0
   18.0151  -26.2960   -6.9823 N   0  0  0  0  0  0  0  0  0  0  0  0
   18.7784  -24.2735   -7.8561 N   0  0  0  0  0  0  0  0  0  0  0  0
   18.5945  -23.2844   -8.8578 C   0  0  0  0  0  0  0  0  0  0  0  0
   18.0750  -23.7106  -10.1894 C   0  0  0  0  0  0  0  0  0  0  0  0
   17.8689  -22.6790  -11.2275 C   0  0  0  0  0  0  0  0  0  0  0  0
   18.8960  -22.5157  -12.2675 C   0  0  2  0  0  0  0  0  0  0  0  0
   19.9472  -21.6167  -11.7262 N   0  0  0  0  0  0  0  0  0  0  0  0
   18.3667  -21.8926  -13.5083 C   0  0  0  0  0  0  0  0  0  0  0  0
   18.3202  -20.6613  -13.7372 O   0  0  0  0  0  0  0  0  0  0  0  0
   17.8705  -22.7372  -14.5131 O   0  0  0  0  0  0  0  0  0  0  0  0
  1  2  1  0
  3  2  1  0
  4  3  1  0
  5  4  1  0
  5  6  1  6
  7  5  1  0
  8  7  2  0
  9  7  1  0
 10  9  1  0
 11 21  1  0
 11 10  1  0
 12 11  2  0
 14 13  1  0
 15 14  2  0
 16 14  1  0
 17 16  1  0
 18 17  1  0
 20 19  1  1
 19 18  1  0
 20 21  1  0
 22 20  1  0
 23 22  2  0
 24 22  1  0
M  END
$$$$
