MGR.pdb
     RDKit          3D

 24 23  0  0  1  0  0  0  0  0999 V2000
   19.1037  -27.3789   -6.3441 C   0  0  0  0  0  0  0  0  0  0  0  0
   17.5340  -26.8325   -5.6177 S   0  0  0  0  0  0  0  0  0  0  0  0
   16.9525  -25.3385   -6.4539 C   0  0  0  0  0  0  0  0  0  0  0  0
   17.6855  -25.2066   -7.7735 C   0  0  0  0  0  0  0  0  0  0  0  0
   17.2266  -23.9533   -8.5074 C   0  0  2  0  0  0  0  0  0  0  0  0
   15.8781  -24.0730   -8.9725 N   0  0  0  0  0  0  0  0  0  0  0  0
   18.1243  -23.7343   -9.6991 C   0  0  0  0  0  0  0  0  0  0  0  0
   19.3593  -23.6089   -9.6118 O   0  0  0  0  0  0  0  0  0  0  0  0
   17.5384  -23.6624  -11.0239 N   0  0  0  0  0  0  0  0  0  0  0  0
   18.3712  -23.5816  -12.1852 C   0  0  0  0  0  0  0  0  0  0  0  0
   18.7404  -22.2141  -12.5252 C   0  0  0  0  0  0  0  0  0  0  0  0
   18.1085  -21.2948  -11.8828 O   0  0  0  0  0  0  0  0  0  0  0  0
   25.6958  -20.3881  -14.0875 N   0  0  0  0  0  0  0  0  0  0  0  0
   25.4867  -21.2921  -12.9918 C   0  0  0  0  0  0  0  0  0  0  0  0
   26.3806  -22.0938  -12.5755 N   0  0  0  0  0  0  0  0  0  0  0  0
   24.2078  -21.2794  -12.3462 N   0  0  0  0  0  0  0  0  0  0  0  0
   23.0923  -20.5573  -12.8460 C   0  0  0  0  0  0  0  0  0  0  0  0
   22.3930  -21.0792  -14.0557 C   0  0  0  0  0  0  0  0  0  0  0  0
   21.2137  -20.3442  -14.5588 C   0  0  0  0  0  0  0  0  0  0  0  0
   19.9617  -20.4170  -13.7905 C   0  0  2  0  0  0  0  0  0  0  0  0
   19.7092  -21.8461  -13.4738 N   0  0  0  0  0  0  0  0  0  0  0  0
   18.7888  -19.9106  -14.5494 C   0  0  0  0  0  0  0  0  0  0  0  0
   18.0373  -20.6075  -15.2706 O   0  0  0  0  0  0  0  0  0  0  0  0
   18.4873  -18.5426  -14.4662 O   0  0  0  0  0  0  0  0  0  0  0  0
  1  2  1  0
  3  2  1  0
  4  3  1  0
  5  4  1  0
  5  6  1  6
  7  5  1  0
  8  7  2  0
  9  7  1  0
 10  9  1  0
 11 21  1  0
 11 10  1  0
 12 11  2  0
 14 13  1  0
 15 14  2  0
 16 14  1  0
 17 16  1  0
 18 17  1  0
 20 19  1  6
 19 18  1  0
 20 21  1  0
 22 20  1  0
 23 22  2  0
 24 22  1  0
M  END
$$$$
