MGR.pdb
     RDKit          3D

 24 23  0  0  1  0  0  0  0  0999 V2000
   22.4402  -20.3703  -10.9325 C   0  0  0  0  0  0  0  0  0  0  0  0
   23.2249  -20.8614   -9.3725 S   0  0  0  0  0  0  0  0  0  0  0  0
   25.0240  -20.7792   -9.5326 C   0  0  0  0  0  0  0  0  0  0  0  0
   25.3990  -21.1274  -10.9589 C   0  0  0  0  0  0  0  0  0  0  0  0
   26.9015  -20.9786  -11.1593 C   0  0  2  0  0  0  0  0  0  0  0  0
   27.4400  -19.9115  -10.3715 N   0  0  0  0  0  0  0  0  0  0  0  0
   27.1686  -20.6798  -12.6130 C   0  0  0  0  0  0  0  0  0  0  0  0
   26.9490  -21.4917  -13.5302 O   0  0  0  0  0  0  0  0  0  0  0  0
   27.7096  -19.3860  -12.9828 N   0  0  0  0  0  0  0  0  0  0  0  0
   27.9896  -19.0779  -14.3522 C   0  0  0  0  0  0  0  0  0  0  0  0
   26.8348  -19.2567  -15.2220 C   0  0  0  0  0  0  0  0  0  0  0  0
   26.0958  -20.2769  -14.9573 O   0  0  0  0  0  0  0  0  0  0  0  0
   20.1097  -14.9635  -15.6105 N   0  0  0  0  0  0  0  0  0  0  0  0
   19.6021  -16.1148  -16.3021 C   0  0  0  0  0  0  0  0  0  0  0  0
   18.3775  -16.2515  -16.6130 N   0  0  0  0  0  0  0  0  0  0  0  0
   20.5290  -17.1493  -16.6531 N   0  0  0  0  0  0  0  0  0  0  0  0
   21.8541  -17.2097  -16.1471 C   0  0  0  0  0  0  0  0  0  0  0  0
   22.7247  -18.3444  -16.5707 C   0  0  0  0  0  0  0  0  0  0  0  0
   24.1104  -18.3970  -16.0598 C   0  0  0  0  0  0  0  0  0  0  0  0
   25.2049  -18.6014  -17.0209 C   0  0  2  0  0  0  0  0  0  0  0  0
   26.4858  -18.4159  -16.2921 N   0  0  0  0  0  0  0  0  0  0  0  0
   25.1793  -17.6248  -18.1406 C   0  0  0  0  0  0  0  0  0  0  0  0
   24.4554  -17.7109  -19.1600 O   0  0  0  0  0  0  0  0  0  0  0  0
   26.0323  -16.5128  -18.0683 O   0  0  0  0  0  0  0  0  0  0  0  0
  1  2  1  0
  3  2  1  0
  4  3  1  0
  5  4  1  0
  5  6  1  1
  7  5  1  0
  8  7  2  0
  9  7  1  0
 10  9  1  0
 11 21  1  0
 11 10  1  0
 12 11  2  0
 14 13  1  0
 15 14  2  0
 16 14  1  0
 17 16  1  0
 18 17  1  0
 20 19  1  1
 19 18  1  0
 20 21  1  0
 22 20  1  0
 23 22  2  0
 24 22  1  0
M  END
$$$$
