MGR.pdb
     RDKit          3D

 24 23  0  0  1  0  0  0  0  0999 V2000
   29.0131  -18.3896   -3.1257 C   0  0  0  0  0  0  0  0  0  0  0  0
   29.2714  -19.2117   -4.7219 S   0  0  0  0  0  0  0  0  0  0  0  0
   27.6916  -19.4080   -5.5793 C   0  0  0  0  0  0  0  0  0  0  0  0
   27.9544  -20.0073   -6.9460 C   0  0  0  0  0  0  0  0  0  0  0  0
   26.6722  -20.0255   -7.7679 C   0  0  2  0  0  0  0  0  0  0  0  0
   25.6303  -20.7559   -7.1121 N   0  0  0  0  0  0  0  0  0  0  0  0
   26.9563  -20.6864   -9.0932 C   0  0  0  0  0  0  0  0  0  0  0  0
   28.0592  -21.1811   -9.3888 O   0  0  0  0  0  0  0  0  0  0  0  0
   25.9041  -20.7593  -10.0888 N   0  0  0  0  0  0  0  0  0  0  0  0
   26.1386  -21.3911  -11.3515 C   0  0  0  0  0  0  0  0  0  0  0  0
   25.0622  -21.1671  -12.3071 C   0  0  0  0  0  0  0  0  0  0  0  0
   23.8823  -21.0784  -11.8002 O   0  0  0  0  0  0  0  0  0  0  0  0
   20.5653  -18.2136  -17.4958 N   0  0  0  0  0  0  0  0  0  0  0  0
   21.4154  -17.1990  -16.9394 C   0  0  0  0  0  0  0  0  0  0  0  0
   21.0407  -15.9959  -16.7743 N   0  0  0  0  0  0  0  0  0  0  0  0
   22.7441  -17.5730  -16.5559 N   0  0  0  0  0  0  0  0  0  0  0  0
   23.5512  -18.4602  -17.3154 C   0  0  0  0  0  0  0  0  0  0  0  0
   23.6042  -19.8948  -16.9102 C   0  0  0  0  0  0  0  0  0  0  0  0
   24.5733  -20.2967  -15.8693 C   0  0  0  0  0  0  0  0  0  0  0  0
   24.0570  -20.7772  -14.5786 C   0  0  2  0  0  0  0  0  0  0  0  0
   25.2227  -21.0435  -13.6973 N   0  0  0  0  0  0  0  0  0  0  0  0
   23.2870  -22.0422  -14.7001 C   0  0  0  0  0  0  0  0  0  0  0  0
   22.0522  -22.1221  -14.8989 O   0  0  0  0  0  0  0  0  0  0  0  0
   23.9833  -23.2547  -14.5801 O   0  0  0  0  0  0  0  0  0  0  0  0
  1  2  1  0
  3  2  1  0
  4  3  1  0
  5  4  1  0
  5  6  1  1
  7  5  1  0
  8  7  2  0
  9  7  1  0
 10  9  1  0
 11 21  1  0
 11 10  1  0
 12 11  2  0
 14 13  1  0
 15 14  2  0
 16 14  1  0
 17 16  1  0
 18 17  1  0
 20 19  1  6
 19 18  1  0
 20 21  1  0
 22 20  1  0
 23 22  2  0
 24 22  1  0
M  END
$$$$
