MGR.pdb
     RDKit          3D

 24 23  0  0  1  0  0  0  0  0999 V2000
   26.7363  -18.8992   -6.6021 C   0  0  0  0  0  0  0  0  0  0  0  0
   27.4793  -20.5515   -6.6919 S   0  0  0  0  0  0  0  0  0  0  0  0
   27.1105  -21.3093   -8.2916 C   0  0  0  0  0  0  0  0  0  0  0  0
   26.1231  -20.4271   -9.0284 C   0  0  0  0  0  0  0  0  0  0  0  0
   25.7795  -21.0375  -10.3809 C   0  0  2  0  0  0  0  0  0  0  0  0
   26.8950  -21.7308  -10.9503 N   0  0  0  0  0  0  0  0  0  0  0  0
   25.3748  -19.9311  -11.3223 C   0  0  0  0  0  0  0  0  0  0  0  0
   25.5802  -18.7258  -11.0904 O   0  0  0  0  0  0  0  0  0  0  0  0
   24.7104  -20.2673  -12.5668 N   0  0  0  0  0  0  0  0  0  0  0  0
   24.5197  -21.6346  -12.9446 C   0  0  0  0  0  0  0  0  0  0  0  0
   23.1151  -22.0150  -13.0104 C   0  0  0  0  0  0  0  0  0  0  0  0
   22.8376  -22.9657  -13.8328 O   0  0  0  0  0  0  0  0  0  0  0  0
   17.1095  -24.0329   -7.6088 N   0  0  0  0  0  0  0  0  0  0  0  0
   18.4315  -24.2103   -7.0772 C   0  0  0  0  0  0  0  0  0  0  0  0
   18.6679  -24.8640   -6.0133 N   0  0  0  0  0  0  0  0  0  0  0  0
   19.5255  -23.6192   -7.7886 N   0  0  0  0  0  0  0  0  0  0  0  0
   19.3549  -22.6374   -8.7998 C   0  0  0  0  0  0  0  0  0  0  0  0
   20.0954  -22.8047  -10.0838 C   0  0  0  0  0  0  0  0  0  0  0  0
   20.0217  -21.7203  -11.0851 C   0  0  0  0  0  0  0  0  0  0  0  0
   20.6818  -21.9194  -12.3843 C   0  0  2  0  0  0  0  0  0  0  0  0
   22.0799  -21.4338  -12.2591 N   0  0  0  0  0  0  0  0  0  0  0  0
   20.0367  -21.1539  -13.4825 C   0  0  0  0  0  0  0  0  0  0  0  0
   19.1359  -21.5898  -14.2369 O   0  0  0  0  0  0  0  0  0  0  0  0
   20.4626  -19.8362  -13.7095 O   0  0  0  0  0  0  0  0  0  0  0  0
  1  2  1  0
  3  2  1  0
  4  3  1  0
  5  4  1  0
  5  6  1  6
  7  5  1  0
  8  7  2  0
  9  7  1  0
 10  9  1  0
 11 21  1  0
 11 10  1  0
 12 11  2  0
 14 13  1  0
 15 14  2  0
 16 14  1  0
 17 16  1  0
 18 17  1  0
 20 19  1  1
 19 18  1  0
 20 21  1  0
 22 20  1  0
 23 22  2  0
 24 22  1  0
M  END
$$$$
