MGR.pdb
     RDKit          3D

 24 23  0  0  1  0  0  0  0  0999 V2000
   25.6032  -18.0007  -16.6192 C   0  0  0  0  0  0  0  0  0  0  0  0
   23.8628  -18.5119  -16.6155 S   0  0  0  0  0  0  0  0  0  0  0  0
   23.5889  -19.7646  -15.3408 C   0  0  0  0  0  0  0  0  0  0  0  0
   22.1270  -20.1626  -15.3601 C   0  0  0  0  0  0  0  0  0  0  0  0
   21.4707  -19.8201  -14.0290 C   0  0  2  0  0  0  0  0  0  0  0  0
   21.7951  -20.7765  -13.0144 N   0  0  0  0  0  0  0  0  0  0  0  0
   19.9744  -19.8116  -14.2152 C   0  0  0  0  0  0  0  0  0  0  0  0
   19.4003  -19.1717  -15.1150 O   0  0  0  0  0  0  0  0  0  0  0  0
   19.1431  -20.5813  -13.3097 N   0  0  0  0  0  0  0  0  0  0  0  0
   19.6099  -21.8216  -12.7688 C   0  0  0  0  0  0  0  0  0  0  0  0
   18.6839  -22.4067  -11.8085 C   0  0  0  0  0  0  0  0  0  0  0  0
   17.5686  -21.7805  -11.6637 O   0  0  0  0  0  0  0  0  0  0  0  0
   16.0233  -27.4922   -6.0390 N   0  0  0  0  0  0  0  0  0  0  0  0
   16.5225  -26.4978   -5.1316 C   0  0  0  0  0  0  0  0  0  0  0  0
   16.1368  -26.4065   -3.9241 N   0  0  0  0  0  0  0  0  0  0  0  0
   17.5005  -25.5728   -5.6217 N   0  0  0  0  0  0  0  0  0  0  0  0
   17.9169  -25.5286   -6.9783 C   0  0  0  0  0  0  0  0  0  0  0  0
   18.8681  -24.4576   -7.3943 C   0  0  0  0  0  0  0  0  0  0  0  0
   19.2277  -24.3521   -8.8239 C   0  0  0  0  0  0  0  0  0  0  0  0
   18.2390  -23.7890   -9.7559 C   0  0  2  0  0  0  0  0  0  0  0  0
   18.9196  -23.5707  -11.0580 N   0  0  0  0  0  0  0  0  0  0  0  0
   17.7011  -22.4794   -9.3046 C   0  0  0  0  0  0  0  0  0  0  0  0
   18.3506  -21.4089   -9.2530 O   0  0  0  0  0  0  0  0  0  0  0  0
   16.3601  -22.4206   -8.8952 O   0  0  0  0  0  0  0  0  0  0  0  0
  1  2  1  0
  3  2  1  0
  4  3  1  0
  5  4  1  0
  5  6  1  1
  7  5  1  0
  8  7  2  0
  9  7  1  0
 10  9  1  0
 11 21  1  0
 11 10  1  0
 12 11  2  0
 14 13  1  0
 15 14  2  0
 16 14  1  0
 17 16  1  0
 18 17  1  0
 20 19  1  1
 19 18  1  0
 20 21  1  0
 22 20  1  0
 23 22  2  0
 24 22  1  0
M  END
$$$$
