MGR.pdb
     RDKit          3D

 24 23  0  0  1  0  0  0  0  0999 V2000
   16.3949  -20.8229  -18.5588 C   0  0  0  0  0  0  0  0  0  0  0  0
   16.1741  -19.0282  -18.7023 S   0  0  0  0  0  0  0  0  0  0  0  0
   17.6266  -18.1722  -18.0491 C   0  0  0  0  0  0  0  0  0  0  0  0
   18.6188  -19.2078  -17.5600 C   0  0  0  0  0  0  0  0  0  0  0  0
   19.8599  -18.5245  -17.0007 C   0  0  2  0  0  0  0  0  0  0  0  0
   20.4564  -17.6406  -17.9557 N   0  0  0  0  0  0  0  0  0  0  0  0
   20.8704  -19.5818  -16.6336 C   0  0  0  0  0  0  0  0  0  0  0  0
   20.6823  -20.4277  -15.7404 O   0  0  0  0  0  0  0  0  0  0  0  0
   22.1331  -19.6328  -17.3452 N   0  0  0  0  0  0  0  0  0  0  0  0
   23.0583  -20.6997  -17.1116 C   0  0  0  0  0  0  0  0  0  0  0  0
   24.1888  -20.3000  -16.2844 C   0  0  0  0  0  0  0  0  0  0  0  0
   24.5796  -19.0825  -16.4329 O   0  0  0  0  0  0  0  0  0  0  0  0
   23.2497  -20.2609   -9.4657 N   0  0  0  0  0  0  0  0  0  0  0  0
   24.3804  -21.0353   -9.0376 C   0  0  0  0  0  0  0  0  0  0  0  0
   24.5252  -21.4477   -7.8443 N   0  0  0  0  0  0  0  0  0  0  0  0
   25.3839  -21.3517  -10.0099 N   0  0  0  0  0  0  0  0  0  0  0  0
   25.6325  -20.5539  -11.1576 C   0  0  0  0  0  0  0  0  0  0  0  0
   26.6571  -21.0188  -12.1369 C   0  0  0  0  0  0  0  0  0  0  0  0
   26.1978  -21.5498  -13.4374 C   0  0  0  0  0  0  0  0  0  0  0  0
   25.9757  -20.6042  -14.5419 C   0  0  2  0  0  0  0  0  0  0  0  0
   24.8555  -21.1272  -15.3652 N   0  0  0  0  0  0  0  0  0  0  0  0
   27.1594  -20.4657  -15.4295 C   0  0  0  0  0  0  0  0  0  0  0  0
   27.5209  -21.3018  -16.2901 O   0  0  0  0  0  0  0  0  0  0  0  0
   27.9497  -19.3129  -15.3032 O   0  0  0  0  0  0  0  0  0  0  0  0
  1  2  1  0
  3  2  1  0
  4  3  1  0
  5  4  1  0
  5  6  1  6
  7  5  1  0
  8  7  2  0
  9  7  1  0
 10  9  1  0
 11 21  1  0
 11 10  1  0
 12 11  2  0
 14 13  1  0
 15 14  2  0
 16 14  1  0
 17 16  1  0
 18 17  1  0
 20 19  1  1
 19 18  1  0
 20 21  1  0
 22 20  1  0
 23 22  2  0
 24 22  1  0
M  END
$$$$
