MGR.pdb
     RDKit          3D

 24 23  0  0  1  0  0  0  0  0999 V2000
   26.6941  -23.2239  -15.7940 C   0  0  0  0  0  0  0  0  0  0  0  0
   26.2465  -24.9125  -16.2827 S   0  0  0  0  0  0  0  0  0  0  0  0
   27.4947  -25.5825  -17.4062 C   0  0  0  0  0  0  0  0  0  0  0  0
   27.1052  -27.0006  -17.7714 C   0  0  0  0  0  0  0  0  0  0  0  0
   27.7800  -27.9904  -16.8307 C   0  0  2  0  0  0  0  0  0  0  0  0
   29.1966  -28.0342  -17.0318 N   0  0  0  0  0  0  0  0  0  0  0  0
   27.2188  -29.3655  -17.0916 C   0  0  0  0  0  0  0  0  0  0  0  0
   26.0193  -29.6567  -16.9329 O   0  0  0  0  0  0  0  0  0  0  0  0
   28.1054  -30.4174  -17.5509 N   0  0  0  0  0  0  0  0  0  0  0  0
   27.5977  -31.7248  -17.8369 C   0  0  0  0  0  0  0  0  0  0  0  0
   27.4656  -32.5553  -16.6474 C   0  0  0  0  0  0  0  0  0  0  0  0
   28.1466  -32.1697  -15.6253 O   0  0  0  0  0  0  0  0  0  0  0  0
   23.2177  -31.7700  -10.1461 N   0  0  0  0  0  0  0  0  0  0  0  0
   23.7583  -33.0408   -9.7531 C   0  0  0  0  0  0  0  0  0  0  0  0
   23.6049  -33.5284   -8.5896 N   0  0  0  0  0  0  0  0  0  0  0  0
   24.5019  -33.7836  -10.7267 N   0  0  0  0  0  0  0  0  0  0  0  0
   24.9619  -33.2223  -11.9469 C   0  0  0  0  0  0  0  0  0  0  0  0
   25.5695  -34.1310  -12.9618 C   0  0  0  0  0  0  0  0  0  0  0  0
   25.9421  -33.5685  -14.2766 C   0  0  0  0  0  0  0  0  0  0  0  0
   26.5707  -34.4564  -15.2665 C   0  0  2  0  0  0  0  0  0  0  0  0
   26.6690  -33.7080  -16.5458 N   0  0  0  0  0  0  0  0  0  0  0  0
   25.7772  -35.6859  -15.5248 C   0  0  0  0  0  0  0  0  0  0  0  0
   25.0004  -35.8563  -16.4934 O   0  0  0  0  0  0  0  0  0  0  0  0
   25.8921  -36.7503  -14.6174 O   0  0  0  0  0  0  0  0  0  0  0  0
  1  2  1  0
  3  2  1  0
  4  3  1  0
  5  4  1  0
  5  6  1  6
  7  5  1  0
  8  7  2  0
  9  7  1  0
 10  9  1  0
 11 21  1  0
 11 10  1  0
 12 11  2  0
 14 13  1  0
 15 14  2  0
 16 14  1  0
 17 16  1  0
 18 17  1  0
 20 19  1  1
 19 18  1  0
 20 21  1  0
 22 20  1  0
 23 22  2  0
 24 22  1  0
M  END
$$$$
