MGR.pdb
     RDKit          3D

 24 23  0  0  1  0  0  0  0  0999 V2000
   28.4884  -23.4082  -16.3195 C   0  0  0  0  0  0  0  0  0  0  0  0
   28.3340  -23.7282  -18.0983 S   0  0  0  0  0  0  0  0  0  0  0  0
   28.3115  -22.1658  -19.0081 C   0  0  0  0  0  0  0  0  0  0  0  0
   28.0546  -21.0392  -18.0279 C   0  0  0  0  0  0  0  0  0  0  0  0
   26.6276  -20.5278  -18.1763 C   0  0  2  0  0  0  0  0  0  0  0  0
   26.4479  -19.7986  -19.3949 N   0  0  0  0  0  0  0  0  0  0  0  0
   26.3203  -19.6087  -17.0210 C   0  0  0  0  0  0  0  0  0  0  0  0
   27.0173  -18.6200  -16.7289 O   0  0  0  0  0  0  0  0  0  0  0  0
   25.1579  -19.8729  -16.1950 N   0  0  0  0  0  0  0  0  0  0  0  0
   24.9650  -19.1704  -14.9629 C   0  0  0  0  0  0  0  0  0  0  0  0
   25.3031  -19.9710  -13.7938 C   0  0  0  0  0  0  0  0  0  0  0  0
   25.4039  -21.2375  -14.0012 O   0  0  0  0  0  0  0  0  0  0  0  0
   28.6127  -18.3373   -5.7190 N   0  0  0  0  0  0  0  0  0  0  0  0
   28.0276  -19.6330   -5.5184 C   0  0  0  0  0  0  0  0  0  0  0  0
   28.2059  -20.3171   -4.4623 N   0  0  0  0  0  0  0  0  0  0  0  0
   27.2066  -20.1676   -6.5637 N   0  0  0  0  0  0  0  0  0  0  0  0
   27.0015  -19.5087   -7.8043 C   0  0  0  0  0  0  0  0  0  0  0  0
   26.2547  -20.2292   -8.8758 C   0  0  0  0  0  0  0  0  0  0  0  0
   26.0713  -19.5575  -10.1794 C   0  0  0  0  0  0  0  0  0  0  0  0
   25.7736  -20.3844  -11.3587 C   0  0  2  0  0  0  0  0  0  0  0  0
   25.5213  -19.4682  -12.5002 N   0  0  0  0  0  0  0  0  0  0  0  0
   24.5621  -21.2265  -11.1818 C   0  0  0  0  0  0  0  0  0  0  0  0
   23.3902  -20.7956  -11.0740 O   0  0  0  0  0  0  0  0  0  0  0  0
   24.7268  -22.6189  -11.1242 O   0  0  0  0  0  0  0  0  0  0  0  0
  1  2  1  0
  3  2  1  0
  4  3  1  0
  5  4  1  0
  5  6  1  6
  7  5  1  0
  8  7  2  0
  9  7  1  0
 10  9  1  0
 11 21  1  0
 11 10  1  0
 12 11  2  0
 14 13  1  0
 15 14  2  0
 16 14  1  0
 17 16  1  0
 18 17  1  0
 20 19  1  1
 19 18  1  0
 20 21  1  0
 22 20  1  0
 23 22  2  0
 24 22  1  0
M  END
$$$$
