MGR.pdb
     RDKit          3D

 24 23  0  0  1  0  0  0  0  0999 V2000
   18.1510  -24.4832   -5.7675 C   0  0  0  0  0  0  0  0  0  0  0  0
   17.7200  -25.9322   -6.7701 S   0  0  0  0  0  0  0  0  0  0  0  0
   17.7065  -25.4893   -8.5232 C   0  0  0  0  0  0  0  0  0  0  0  0
   18.4442  -24.1770   -8.6960 C   0  0  0  0  0  0  0  0  0  0  0  0
   18.4608  -23.7722  -10.1643 C   0  0  2  0  0  0  0  0  0  0  0  0
   19.1881  -24.7089  -10.9661 N   0  0  0  0  0  0  0  0  0  0  0  0
   19.1242  -22.4236  -10.2869 C   0  0  0  0  0  0  0  0  0  0  0  0
   18.6069  -21.3670   -9.8813 O   0  0  0  0  0  0  0  0  0  0  0  0
   20.4321  -22.3309  -10.9068 N   0  0  0  0  0  0  0  0  0  0  0  0
   21.0118  -21.0548  -11.1970 C   0  0  0  0  0  0  0  0  0  0  0  0
   20.8779  -20.6755  -12.5971 C   0  0  0  0  0  0  0  0  0  0  0  0
   19.6706  -20.5110  -13.0124 O   0  0  0  0  0  0  0  0  0  0  0  0
   25.9675  -22.1871  -16.9324 N   0  0  0  0  0  0  0  0  0  0  0  0
   26.7085  -21.6076  -15.8477 C   0  0  0  0  0  0  0  0  0  0  0  0
   27.6445  -22.2195  -15.2438 N   0  0  0  0  0  0  0  0  0  0  0  0
   26.3681  -20.2778  -15.4375 N   0  0  0  0  0  0  0  0  0  0  0  0
   25.3470  -19.5110  -16.0576 C   0  0  0  0  0  0  0  0  0  0  0  0
   24.0398  -19.3681  -15.3535 C   0  0  0  0  0  0  0  0  0  0  0  0
   22.9746  -20.3515  -15.6406 C   0  0  0  0  0  0  0  0  0  0  0  0
   21.6918  -20.2227  -14.9326 C   0  0  2  0  0  0  0  0  0  0  0  0
   21.9436  -20.4819  -13.4919 N   0  0  0  0  0  0  0  0  0  0  0  0
   20.6764  -21.2040  -15.3952 C   0  0  0  0  0  0  0  0  0  0  0  0
   19.8206  -20.9948  -16.2864 O   0  0  0  0  0  0  0  0  0  0  0  0
   20.6580  -22.4710  -14.7921 O   0  0  0  0  0  0  0  0  0  0  0  0
  1  2  1  0
  3  2  1  0
  4  3  1  0
  5  4  1  0
  5  6  1  6
  7  5  1  0
  8  7  2  0
  9  7  1  0
 10  9  1  0
 11 21  1  0
 11 10  1  0
 12 11  2  0
 14 13  1  0
 15 14  2  0
 16 14  1  0
 17 16  1  0
 18 17  1  0
 20 19  1  6
 19 18  1  0
 20 21  1  0
 22 20  1  0
 23 22  2  0
 24 22  1  0
M  END
$$$$
