DVY.pdb
     RDKit          3D

 28 28  0  0  1  0  0  0  0  0999 V2000
   19.4756  -12.8363  -16.8244 N   0  0  0  0  0  0  0  0  0  0  0  0
   18.5336  -12.2101  -15.9170 C   0  0  1  0  0  0  0  0  0  0  0  0
   18.1224  -13.2652  -14.9096 C   0  0  0  0  0  0  0  0  0  0  0  0
   17.3324  -14.2845  -15.6518 C   0  0  0  0  0  0  0  0  0  0  0  0
   16.3908  -13.9263  -16.4031 O   0  0  0  0  0  0  0  0  0  0  0  0
   19.1542  -11.0288  -15.2451 C   0  0  0  0  0  0  0  0  0  0  0  0
   18.5905  -10.4144  -14.3273 O   0  0  0  0  0  0  0  0  0  0  0  0
   17.5855  -15.6492  -15.5575 O   0  0  0  0  0  0  0  0  0  0  0  0
   23.0622  -10.8986  -14.2773 C   0  0  0  0  0  0  0  0  0  0  0  0
   22.6108   -9.8478  -15.2285 C   0  0  2  0  0  0  0  0  0  0  0  0
   23.4012   -8.5634  -15.1133 C   0  0  0  0  0  0  0  0  0  0  0  0
   21.1338   -9.4676  -15.0707 C   0  0  2  0  0  0  0  0  0  0  0  0
   20.4237  -10.6056  -15.6758 N   0  0  0  0  0  0  0  0  0  0  0  0
   20.8008   -8.2830  -15.9343 C   0  0  0  0  0  0  0  0  0  0  0  0
   20.7280   -8.3899  -17.2082 O   0  0  0  0  0  0  0  0  0  0  0  0
   16.4103   -2.4268  -20.2450 O   0  0  0  0  0  0  0  0  0  0  0  0
   17.0334   -3.3902  -19.4262 C   0  0  0  0  0  0  0  0  0  0  0  0
   18.2200   -3.9799  -19.8086 C   0  0  0  0  0  0  0  0  0  0  0  0
   18.8334   -4.9366  -18.9893 C   0  0  0  0  0  0  0  0  0  0  0  0
   18.2621   -5.3014  -17.7929 C   0  0  0  0  0  0  0  0  0  0  0  0
   18.8573   -6.3054  -16.8978 C   0  0  0  0  0  0  0  0  0  0  0  0
   20.1614   -5.9069  -16.2791 C   0  0  2  0  0  0  0  0  0  0  0  0
   20.5505   -6.9950  -15.3957 N   0  0  0  0  0  0  0  0  0  0  0  0
   20.0103   -4.6592  -15.5230 C   0  0  0  0  0  0  0  0  0  0  0  0
   19.5390   -4.6635  -14.3351 O   0  0  0  0  0  0  0  0  0  0  0  0
   17.0793   -4.7011  -17.4316 C   0  0  0  0  0  0  0  0  0  0  0  0
   16.4654   -3.7571  -18.2303 C   0  0  0  0  0  0  0  0  0  0  0  0
   20.3558   -3.4116  -16.0175 O   0  0  0  0  0  0  0  0  0  0  0  0
  2  1  1  6
  2  6  1  0
  3  2  1  0
  4  3  1  0
  4  5  2  0
  6 13  1  0
  6  7  2  0
  8  4  1  0
 10  9  1  1
 10 11  1  0
 12 10  1  0
 12 13  1  6
 14 12  1  0
 14 23  1  0
 15 14  2  0
 16 17  1  0
 17 18  2  0
 18 19  1  0
 20 19  2  0
 20 21  1  0
 22 21  1  1
 22 23  1  0
 22 24  1  0
 24 28  1  0
 25 24  2  0
 26 20  1  0
 27 17  1  0
 27 26  2  0
M  END
$$$$
