DVY.pdb
     RDKit          3D

 28 28  0  0  1  0  0  0  0  0999 V2000
   23.2060  -14.9014  -18.1198 N   0  0  0  0  0  0  0  0  0  0  0  0
   22.9754  -13.9380  -17.0608 C   0  0  1  0  0  0  0  0  0  0  0  0
   24.3304  -13.3908  -16.6587 C   0  0  0  0  0  0  0  0  0  0  0  0
   25.0751  -14.5102  -16.0213 C   0  0  0  0  0  0  0  0  0  0  0  0
   24.5631  -15.6567  -15.9679 O   0  0  0  0  0  0  0  0  0  0  0  0
   22.0654  -12.8490  -17.5275 C   0  0  0  0  0  0  0  0  0  0  0  0
   22.1185  -12.3855  -18.6765 O   0  0  0  0  0  0  0  0  0  0  0  0
   26.3409  -14.3535  -15.4661 O   0  0  0  0  0  0  0  0  0  0  0  0
   18.6939  -12.3808  -15.2583 C   0  0  0  0  0  0  0  0  0  0  0  0
   18.8058  -11.8762  -16.6532 C   0  0  2  0  0  0  0  0  0  0  0  0
   18.5518  -12.9446  -17.6933 C   0  0  0  0  0  0  0  0  0  0  0  0
   20.1737  -11.2654  -16.9792 C   0  0  2  0  0  0  0  0  0  0  0  0
   21.1175  -12.3372  -16.6243 N   0  0  0  0  0  0  0  0  0  0  0  0
   20.4815  -10.1334  -16.0391 C   0  0  0  0  0  0  0  0  0  0  0  0
   21.5286  -10.1487  -15.3023 O   0  0  0  0  0  0  0  0  0  0  0  0
   22.4480   -1.9474  -14.4704 O   0  0  0  0  0  0  0  0  0  0  0  0
   22.1725   -3.3116  -14.6935 C   0  0  0  0  0  0  0  0  0  0  0  0
   21.9246   -4.1631  -13.6373 C   0  0  0  0  0  0  0  0  0  0  0  0
   21.6513   -5.5179  -13.8670 C   0  0  0  0  0  0  0  0  0  0  0  0
   21.6264   -6.0182  -15.1475 C   0  0  0  0  0  0  0  0  0  0  0  0
   21.3535   -7.4322  -15.4465 C   0  0  0  0  0  0  0  0  0  0  0  0
   20.0096   -7.9238  -15.0052 C   0  0  2  0  0  0  0  0  0  0  0  0
   19.6418   -8.9971  -15.9155 N   0  0  0  0  0  0  0  0  0  0  0  0
   19.0231   -6.8400  -15.0622 C   0  0  0  0  0  0  0  0  0  0  0  0
   18.4545   -6.5259  -16.1628 O   0  0  0  0  0  0  0  0  0  0  0  0
   21.8765   -5.1518  -16.1852 C   0  0  0  0  0  0  0  0  0  0  0  0
   22.1468   -3.8149  -15.9715 C   0  0  0  0  0  0  0  0  0  0  0  0
   18.6369   -6.0907  -13.9622 O   0  0  0  0  0  0  0  0  0  0  0  0
  2  1  1  6
  2  6  1  0
  3  2  1  0
  4  3  1  0
  4  5  2  0
  6 13  1  0
  6  7  2  0
  8  4  1  0
 10  9  1  1
 10 11  1  0
 12 10  1  0
 12 13  1  1
 14 12  1  0
 14 23  1  0
 15 14  2  0
 16 17  1  0
 17 18  2  0
 18 19  1  0
 20 19  2  0
 20 21  1  0
 22 21  1  6
 22 23  1  0
 22 24  1  0
 24 28  1  0
 25 24  2  0
 26 20  1  0
 27 17  1  0
 27 26  2  0
M  END
$$$$
