DVY.pdb
     RDKit          3D

 28 28  0  0  1  0  0  0  0  0999 V2000
   28.2976  -21.4783  -18.5078 N   0  0  0  0  0  0  0  0  0  0  0  0
   28.8786  -22.2950  -17.4599 C   0  0  1  0  0  0  0  0  0  0  0  0
   30.3703  -22.3541  -17.7216 C   0  0  0  0  0  0  0  0  0  0  0  0
   30.5545  -23.0963  -18.9980 C   0  0  0  0  0  0  0  0  0  0  0  0
   29.5532  -23.4566  -19.6665 O   0  0  0  0  0  0  0  0  0  0  0  0
   28.5846  -21.7149  -16.1149 C   0  0  0  0  0  0  0  0  0  0  0  0
   29.1021  -22.1508  -15.0758 O   0  0  0  0  0  0  0  0  0  0  0  0
   31.8079  -23.4219  -19.5060 O   0  0  0  0  0  0  0  0  0  0  0  0
   25.6521  -18.2848  -15.5991 C   0  0  0  0  0  0  0  0  0  0  0  0
   27.0119  -18.5894  -15.0784 C   0  0  2  0  0  0  0  0  0  0  0  0
   28.1160  -18.1900  -16.0319 C   0  0  0  0  0  0  0  0  0  0  0  0
   27.2293  -20.0721  -14.7543 C   0  0  2  0  0  0  0  0  0  0  0  0
   27.6873  -20.6358  -16.0342 N   0  0  0  0  0  0  0  0  0  0  0  0
   25.9163  -20.7455  -14.4672 C   0  0  0  0  0  0  0  0  0  0  0  0
   25.4732  -21.6831  -15.2181 O   0  0  0  0  0  0  0  0  0  0  0  0
   26.8228  -19.6213   -7.3142 O   0  0  0  0  0  0  0  0  0  0  0  0
   26.2679  -20.2518   -8.4461 C   0  0  0  0  0  0  0  0  0  0  0  0
   24.9045  -20.2566   -8.6534 C   0  0  0  0  0  0  0  0  0  0  0  0
   24.3604  -20.8853   -9.7811 C   0  0  0  0  0  0  0  0  0  0  0  0
   25.1768  -21.5062  -10.6969 C   0  0  0  0  0  0  0  0  0  0  0  0
   24.6601  -22.1883  -11.8931 C   0  0  0  0  0  0  0  0  0  0  0  0
   24.0486  -21.2865  -12.9205 C   0  0  2  0  0  0  0  0  0  0  0  0
   25.1028  -20.3869  -13.3621 N   0  0  0  0  0  0  0  0  0  0  0  0
   22.9351  -20.5287  -12.3399 C   0  0  0  0  0  0  0  0  0  0  0  0
   21.8616  -21.1160  -11.9714 O   0  0  0  0  0  0  0  0  0  0  0  0
   26.5327  -21.4894  -10.4703 C   0  0  0  0  0  0  0  0  0  0  0  0
   27.0806  -20.8732   -9.3631 C   0  0  0  0  0  0  0  0  0  0  0  0
   22.9541  -19.1563  -12.1479 O   0  0  0  0  0  0  0  0  0  0  0  0
  2  1  1  6
  2  6  1  0
  3  2  1  0
  4  3  1  0
  4  5  2  0
  6 13  1  0
  6  7  2  0
  8  4  1  0
 10  9  1  6
 10 11  1  0
 12 10  1  0
 12 13  1  6
 14 12  1  0
 14 23  1  0
 15 14  2  0
 16 17  1  0
 17 18  2  0
 18 19  1  0
 20 19  2  0
 20 21  1  0
 22 21  1  1
 22 23  1  0
 22 24  1  0
 24 28  1  0
 25 24  2  0
 26 20  1  0
 27 17  1  0
 27 26  2  0
M  END
$$$$
