DVY.pdb
     RDKit          3D

 28 28  0  0  1  0  0  0  0  0999 V2000
   25.9734   -8.0712  -19.8554 N   0  0  0  0  0  0  0  0  0  0  0  0
   25.7219   -7.4893  -18.5512 C   0  0  1  0  0  0  0  0  0  0  0  0
   26.0086   -6.0055  -18.6667 C   0  0  0  0  0  0  0  0  0  0  0  0
   27.4873   -5.8570  -18.7398 C   0  0  0  0  0  0  0  0  0  0  0  0
   28.2192   -6.8759  -18.8126 O   0  0  0  0  0  0  0  0  0  0  0  0
   24.3121   -7.7396  -18.1250 C   0  0  0  0  0  0  0  0  0  0  0  0
   23.3421   -7.2287  -18.7045 O   0  0  0  0  0  0  0  0  0  0  0  0
   28.1215   -4.6189  -18.7319 O   0  0  0  0  0  0  0  0  0  0  0  0
   23.9338  -10.9850  -15.6510 C   0  0  0  0  0  0  0  0  0  0  0  0
   22.7980  -10.4802  -16.4683 C   0  0  2  0  0  0  0  0  0  0  0  0
   22.8122  -10.9990  -17.8890 C   0  0  0  0  0  0  0  0  0  0  0  0
   22.7385   -8.9510  -16.5620 C   0  0  2  0  0  0  0  0  0  0  0  0
   24.0866   -8.5865  -17.0258 N   0  0  0  0  0  0  0  0  0  0  0  0
   22.6088   -8.3450  -15.1924 C   0  0  0  0  0  0  0  0  0  0  0  0
   23.6210   -8.2383  -14.4154 O   0  0  0  0  0  0  0  0  0  0  0  0
   19.8528   -1.8664  -16.4401 O   0  0  0  0  0  0  0  0  0  0  0  0
   20.4277   -2.9093  -15.6859 C   0  0  0  0  0  0  0  0  0  0  0  0
   21.4785   -3.6473  -16.1888 C   0  0  0  0  0  0  0  0  0  0  0  0
   22.0446   -4.6823  -15.4331 C   0  0  0  0  0  0  0  0  0  0  0  0
   21.5616   -4.9773  -14.1799 C   0  0  0  0  0  0  0  0  0  0  0  0
   22.1116   -6.0572  -13.3466 C   0  0  0  0  0  0  0  0  0  0  0  0
   21.3088   -7.3213  -13.3389 C   0  0  2  0  0  0  0  0  0  0  0  0
   21.3746   -7.8620  -14.6877 N   0  0  0  0  0  0  0  0  0  0  0  0
   19.9185   -7.0434  -12.9632 C   0  0  0  0  0  0  0  0  0  0  0  0
   19.6262   -6.6168  -11.7945 O   0  0  0  0  0  0  0  0  0  0  0  0
   20.5136   -4.2290  -13.6984 C   0  0  0  0  0  0  0  0  0  0  0  0
   19.9474   -3.2068  -14.4336 C   0  0  0  0  0  0  0  0  0  0  0  0
   18.8405   -7.2141  -13.8172 O   0  0  0  0  0  0  0  0  0  0  0  0
  2  1  1  6
  2  6  1  0
  3  2  1  0
  4  3  1  0
  4  5  2  0
  6 13  1  0
  6  7  2  0
  8  4  1  0
 10  9  1  6
 10 11  1  0
 12 10  1  0
 12 13  1  1
 14 12  1  0
 14 23  1  0
 15 14  2  0
 16 17  1  0
 17 18  2  0
 18 19  1  0
 20 19  2  0
 20 21  1  0
 22 21  1  6
 22 23  1  0
 22 24  1  0
 24 28  1  0
 25 24  2  0
 26 20  1  0
 27 17  1  0
 27 26  2  0
M  END
$$$$
