DVY.pdb
     RDKit          3D

 28 28  0  0  1  0  0  0  0  0999 V2000
   22.1028  -14.3494  -16.3765 N   0  0  0  0  0  0  0  0  0  0  0  0
   22.0396  -13.0067  -16.9206 C   0  0  1  0  0  0  0  0  0  0  0  0
   20.5732  -12.6790  -17.1193 C   0  0  0  0  0  0  0  0  0  0  0  0
   20.0798  -13.5584  -18.2135 C   0  0  0  0  0  0  0  0  0  0  0  0
   20.7519  -13.6888  -19.2673 O   0  0  0  0  0  0  0  0  0  0  0  0
   22.6948  -12.0321  -15.9972 C   0  0  0  0  0  0  0  0  0  0  0  0
   22.4922  -12.0365  -14.7739 O   0  0  0  0  0  0  0  0  0  0  0  0
   18.8832  -14.2631  -18.1321 O   0  0  0  0  0  0  0  0  0  0  0  0
   26.4373  -11.2977  -15.8832 C   0  0  0  0  0  0  0  0  0  0  0  0
   25.6828  -10.0708  -16.2551 C   0  0  2  0  0  0  0  0  0  0  0  0
   26.3374   -8.7992  -15.7630 C   0  0  0  0  0  0  0  0  0  0  0  0
   24.2419  -10.0516  -15.7314 C   0  0  2  0  0  0  0  0  0  0  0  0
   23.5714  -11.0789  -16.5441 N   0  0  0  0  0  0  0  0  0  0  0  0
   23.5696   -8.7556  -16.0899 C   0  0  0  0  0  0  0  0  0  0  0  0
   23.4370   -8.3923  -17.3105 O   0  0  0  0  0  0  0  0  0  0  0  0
   17.4172   -9.9061  -17.8650 O   0  0  0  0  0  0  0  0  0  0  0  0
   18.3203   -9.1048  -17.1378 C   0  0  0  0  0  0  0  0  0  0  0  0
   18.8222   -9.5297  -15.9256 C   0  0  0  0  0  0  0  0  0  0  0  0
   19.7197   -8.7275  -15.2086 C   0  0  0  0  0  0  0  0  0  0  0  0
   20.1130   -7.5059  -15.7024 C   0  0  0  0  0  0  0  0  0  0  0  0
   21.0452   -6.6197  -14.9891 C   0  0  0  0  0  0  0  0  0  0  0  0
   22.4448   -6.6143  -15.5215 C   0  0  2  0  0  0  0  0  0  0  0  0
   23.0492   -7.8719  -15.1103 N   0  0  0  0  0  0  0  0  0  0  0  0
   23.1967   -5.4793  -14.9757 C   0  0  0  0  0  0  0  0  0  0  0  0
   24.1649   -5.6626  -14.1620 O   0  0  0  0  0  0  0  0  0  0  0  0
   19.6001   -7.1022  -16.9123 C   0  0  0  0  0  0  0  0  0  0  0  0
   18.7153   -7.8837  -17.6280 C   0  0  0  0  0  0  0  0  0  0  0  0
   22.9289   -4.1559  -15.2877 O   0  0  0  0  0  0  0  0  0  0  0  0
  2  1  1  1
  2  6  1  0
  3  2  1  0
  4  3  1  0
  4  5  2  0
  6 13  1  0
  6  7  2  0
  8  4  1  0
 10  9  1  1
 10 11  1  0
 12 10  1  0
 12 13  1  6
 14 12  1  0
 14 23  1  0
 15 14  2  0
 16 17  1  0
 17 18  2  0
 18 19  1  0
 20 19  2  0
 20 21  1  0
 22 21  1  1
 22 23  1  0
 22 24  1  0
 24 28  1  0
 25 24  2  0
 26 20  1  0
 27 17  1  0
 27 26  2  0
M  END
$$$$
