DVY.pdb
     RDKit          3D

 28 28  0  0  1  0  0  0  0  0999 V2000
   24.3647  -21.2742  -20.2030 N   0  0  0  0  0  0  0  0  0  0  0  0
   23.0353  -20.8049  -19.8636 C   0  0  1  0  0  0  0  0  0  0  0  0
   22.2415  -22.0145  -19.4121 C   0  0  0  0  0  0  0  0  0  0  0  0
   21.8705  -22.7689  -20.6398 C   0  0  0  0  0  0  0  0  0  0  0  0
   21.1756  -23.8122  -20.5513 O   0  0  0  0  0  0  0  0  0  0  0  0
   23.1004  -19.7657  -18.7922 C   0  0  0  0  0  0  0  0  0  0  0  0
   24.1486  -19.5034  -18.1839 O   0  0  0  0  0  0  0  0  0  0  0  0
   22.2609  -22.3722  -21.9147 O   0  0  0  0  0  0  0  0  0  0  0  0
   21.6841  -16.1255  -19.0500 C   0  0  0  0  0  0  0  0  0  0  0  0
   20.9893  -16.9477  -18.0233 C   0  0  2  0  0  0  0  0  0  0  0  0
   20.4552  -16.1292  -16.8690 C   0  0  0  0  0  0  0  0  0  0  0  0
   21.8709  -18.0428  -17.4115 C   0  0  2  0  0  0  0  0  0  0  0  0
   21.9255  -19.0650  -18.4686 N   0  0  0  0  0  0  0  0  0  0  0  0
   21.1681  -18.6990  -16.2559 C   0  0  0  0  0  0  0  0  0  0  0  0
   20.0427  -19.2894  -16.4123 O   0  0  0  0  0  0  0  0  0  0  0  0
   19.5755  -21.2867   -7.8565 O   0  0  0  0  0  0  0  0  0  0  0  0
   20.1483  -20.8378   -9.0636 C   0  0  0  0  0  0  0  0  0  0  0  0
   20.5263  -21.7339  -10.0412 C   0  0  0  0  0  0  0  0  0  0  0  0
   21.0950  -21.2800  -11.2385 C   0  0  0  0  0  0  0  0  0  0  0  0
   21.2844  -19.9356  -11.4564 C   0  0  0  0  0  0  0  0  0  0  0  0
   21.8838  -19.4039  -12.6898 C   0  0  0  0  0  0  0  0  0  0  0  0
   20.9524  -19.3182  -13.8593 C   0  0  2  0  0  0  0  0  0  0  0  0
   21.7034  -18.7030  -14.9426 N   0  0  0  0  0  0  0  0  0  0  0  0
   19.7783  -18.5067  -13.5214 C   0  0  0  0  0  0  0  0  0  0  0  0
   18.6675  -19.0559  -13.2089 O   0  0  0  0  0  0  0  0  0  0  0  0
   20.9006  -19.0602  -10.4684 C   0  0  0  0  0  0  0  0  0  0  0  0
   20.3391  -19.4953   -9.2845 C   0  0  0  0  0  0  0  0  0  0  0  0
   19.7760  -17.1209  -13.5121 O   0  0  0  0  0  0  0  0  0  0  0  0
  2  1  1  1
  2  6  1  0
  3  2  1  0
  4  3  1  0
  4  5  2  0
  6 13  1  0
  6  7  2  0
  8  4  1  0
 10  9  1  6
 10 11  1  0
 12 10  1  0
 12 13  1  6
 14 12  1  0
 14 23  1  0
 15 14  2  0
 16 17  1  0
 17 18  2  0
 18 19  1  0
 20 19  2  0
 20 21  1  0
 22 21  1  1
 22 23  1  0
 22 24  1  0
 24 28  1  0
 25 24  2  0
 26 20  1  0
 27 17  1  0
 27 26  2  0
M  END
$$$$
