DVY.pdb
     RDKit          3D

 28 28  0  0  1  0  0  0  0  0999 V2000
   17.6693  -11.6662  -15.7970 N   0  0  0  0  0  0  0  0  0  0  0  0
   19.0223  -11.7374  -16.3140 C   0  0  1  0  0  0  0  0  0  0  0  0
   18.9798  -12.6236  -17.5428 C   0  0  0  0  0  0  0  0  0  0  0  0
   18.7224  -14.0093  -17.0657 C   0  0  0  0  0  0  0  0  0  0  0  0
   19.6620  -14.6964  -16.5922 O   0  0  0  0  0  0  0  0  0  0  0  0
   19.5331  -10.3729  -16.6445 C   0  0  0  0  0  0  0  0  0  0  0  0
   20.6820  -10.1782  -17.0685 O   0  0  0  0  0  0  0  0  0  0  0  0
   17.4650  -14.6022  -17.1162 O   0  0  0  0  0  0  0  0  0  0  0  0
   17.8500   -5.6856  -16.9769 C   0  0  0  0  0  0  0  0  0  0  0  0
   17.7274   -7.1674  -16.9332 C   0  0  2  0  0  0  0  0  0  0  0  0
   16.8354   -7.6567  -15.8140 C   0  0  0  0  0  0  0  0  0  0  0  0
   19.0689   -7.8919  -16.7713 C   0  0  2  0  0  0  0  0  0  0  0  0
   18.6728   -9.2757  -16.4651 N   0  0  0  0  0  0  0  0  0  0  0  0
   19.7872   -7.4005  -15.5455 C   0  0  0  0  0  0  0  0  0  0  0  0
   19.3485   -7.6595  -14.3708 O   0  0  0  0  0  0  0  0  0  0  0  0
   25.8657   -6.1163  -19.3008 O   0  0  0  0  0  0  0  0  0  0  0  0
   25.1535   -6.3506  -18.1072 C   0  0  0  0  0  0  0  0  0  0  0  0
   24.4356   -7.5148  -17.9311 C   0  0  0  0  0  0  0  0  0  0  0  0
   23.7303   -7.7406  -16.7418 C   0  0  0  0  0  0  0  0  0  0  0  0
   23.7433   -6.8057  -15.7335 C   0  0  0  0  0  0  0  0  0  0  0  0
   23.0150   -6.9863  -14.4685 C   0  0  0  0  0  0  0  0  0  0  0  0
   21.6906   -6.2912  -14.3967 C   0  0  2  0  0  0  0  0  0  0  0  0
   20.9771   -6.6322  -15.6175 N   0  0  0  0  0  0  0  0  0  0  0  0
   21.8779   -4.8398  -14.2984 C   0  0  0  0  0  0  0  0  0  0  0  0
   22.4468   -4.3179  -13.2800 O   0  0  0  0  0  0  0  0  0  0  0  0
   24.4652   -5.6524  -15.9305 C   0  0  0  0  0  0  0  0  0  0  0  0
   25.1642   -5.4187  -17.0979 C   0  0  0  0  0  0  0  0  0  0  0  0
   21.4675   -3.9421  -15.2712 O   0  0  0  0  0  0  0  0  0  0  0  0
  2  1  1  6
  2  6  1  0
  3  2  1  0
  4  3  1  0
  4  5  2  0
  6 13  1  0
  6  7  2  0
  8  4  1  0
 10  9  1  1
 10 11  1  0
 12 10  1  0
 12 13  1  1
 14 12  1  0
 14 23  1  0
 15 14  2  0
 16 17  1  0
 17 18  2  0
 18 19  1  0
 20 19  2  0
 20 21  1  0
 22 21  1  6
 22 23  1  0
 22 24  1  0
 24 28  1  0
 25 24  2  0
 26 20  1  0
 27 17  1  0
 27 26  2  0
M  END
$$$$
