DVY.pdb
     RDKit          3D

 28 28  0  0  1  0  0  0  0  0999 V2000
   26.5035  -18.4933  -17.4965 N   0  0  0  0  0  0  0  0  0  0  0  0
   25.2302  -19.1552  -17.7050 C   0  0  1  0  0  0  0  0  0  0  0  0
   25.5228  -20.6328  -17.8731 C   0  0  0  0  0  0  0  0  0  0  0  0
   26.1799  -20.7936  -19.1984 C   0  0  0  0  0  0  0  0  0  0  0  0
   26.4482  -19.7823  -19.8945 O   0  0  0  0  0  0  0  0  0  0  0  0
   24.3131  -18.9099  -16.5514 C   0  0  0  0  0  0  0  0  0  0  0  0
   24.7281  -18.5708  -15.4332 O   0  0  0  0  0  0  0  0  0  0  0  0
   26.5228  -22.0353  -19.7236 O   0  0  0  0  0  0  0  0  0  0  0  0
   19.5495  -18.0843  -15.5353 C   0  0  0  0  0  0  0  0  0  0  0  0
   20.7551  -18.2376  -16.3931 C   0  0  2  0  0  0  0  0  0  0  0  0
   20.4986  -19.0597  -17.6365 C   0  0  0  0  0  0  0  0  0  0  0  0
   21.9427  -18.8897  -15.6753 C   0  0  2  0  0  0  0  0  0  0  0  0
   22.9310  -19.0717  -16.7504 N   0  0  0  0  0  0  0  0  0  0  0  0
   21.5850  -20.2774  -15.2212 C   0  0  0  0  0  0  0  0  0  0  0  0
   21.3307  -21.2067  -16.0645 O   0  0  0  0  0  0  0  0  0  0  0  0
   26.6599  -23.8022  -16.1907 O   0  0  0  0  0  0  0  0  0  0  0  0
   25.5612  -23.5241  -15.3526 C   0  0  0  0  0  0  0  0  0  0  0  0
   24.4751  -24.3729  -15.3084 C   0  0  0  0  0  0  0  0  0  0  0  0
   23.3869  -24.0898  -14.4727 C   0  0  0  0  0  0  0  0  0  0  0  0
   23.3854  -22.9627  -13.6850 C   0  0  0  0  0  0  0  0  0  0  0  0
   22.2674  -22.6120  -12.7960 C   0  0  0  0  0  0  0  0  0  0  0  0
   21.0942  -21.9766  -13.4761 C   0  0  2  0  0  0  0  0  0  0  0  0
   21.5097  -20.6338  -13.8505 N   0  0  0  0  0  0  0  0  0  0  0  0
   19.9423  -21.9248  -12.5696 C   0  0  0  0  0  0  0  0  0  0  0  0
   19.5721  -20.8225  -12.0395 O   0  0  0  0  0  0  0  0  0  0  0  0
   24.4781  -22.1306  -13.7451 C   0  0  0  0  0  0  0  0  0  0  0  0
   25.5564  -22.3989  -14.5645 C   0  0  0  0  0  0  0  0  0  0  0  0
   19.1830  -23.0315  -12.2242 O   0  0  0  0  0  0  0  0  0  0  0  0
  2  1  1  1
  2  6  1  0
  3  2  1  0
  4  3  1  0
  4  5  2  0
  6 13  1  0
  6  7  2  0
  8  4  1  0
 10  9  1  1
 10 11  1  0
 12 10  1  0
 12 13  1  6
 14 12  1  0
 14 23  1  0
 15 14  2  0
 16 17  1  0
 17 18  2  0
 18 19  1  0
 20 19  2  0
 20 21  1  0
 22 21  1  1
 22 23  1  0
 22 24  1  0
 24 28  1  0
 25 24  2  0
 26 20  1  0
 27 17  1  0
 27 26  2  0
M  END
$$$$
