DVY.pdb
     RDKit          3D

 28 28  0  0  1  0  0  0  0  0999 V2000
   29.2555  -22.1341  -16.7259 N   0  0  0  0  0  0  0  0  0  0  0  0
   27.8743  -21.7260  -16.8949 C   0  0  1  0  0  0  0  0  0  0  0  0
   27.0270  -22.9778  -16.7843 C   0  0  0  0  0  0  0  0  0  0  0  0
   27.5482  -23.9410  -17.7916 C   0  0  0  0  0  0  0  0  0  0  0  0
   27.7111  -23.5782  -18.9837 O   0  0  0  0  0  0  0  0  0  0  0  0
   27.4922  -20.7171  -15.8614 C   0  0  0  0  0  0  0  0  0  0  0  0
   28.0093  -20.6917  -14.7346 O   0  0  0  0  0  0  0  0  0  0  0  0
   27.8740  -25.2565  -17.4780 O   0  0  0  0  0  0  0  0  0  0  0  0
   25.6869  -17.3229  -17.2738 C   0  0  0  0  0  0  0  0  0  0  0  0
   26.2968  -17.4331  -15.9215 C   0  0  2  0  0  0  0  0  0  0  0  0
   27.7997  -17.2632  -15.9324 C   0  0  0  0  0  0  0  0  0  0  0  0
   26.0131  -18.7693  -15.2251 C   0  0  2  0  0  0  0  0  0  0  0  0
   26.5098  -19.7659  -16.1871 N   0  0  0  0  0  0  0  0  0  0  0  0
   24.5320  -19.0083  -15.1296 C   0  0  0  0  0  0  0  0  0  0  0  0
   23.6957  -18.0453  -15.2429 O   0  0  0  0  0  0  0  0  0  0  0  0
   16.4188  -19.8394  -12.9639 O   0  0  0  0  0  0  0  0  0  0  0  0
   17.8110  -19.7610  -13.1699 C   0  0  0  0  0  0  0  0  0  0  0  0
   18.3686  -18.6779  -13.8163 C   0  0  0  0  0  0  0  0  0  0  0  0
   19.7533  -18.6072  -14.0173 C   0  0  0  0  0  0  0  0  0  0  0  0
   20.5762  -19.6154  -13.5734 C   0  0  0  0  0  0  0  0  0  0  0  0
   22.0344  -19.5975  -13.7642 C   0  0  0  0  0  0  0  0  0  0  0  0
   22.5376  -20.4680  -14.8739 C   0  0  2  0  0  0  0  0  0  0  0  0
   23.9817  -20.2972  -14.9121 N   0  0  0  0  0  0  0  0  0  0  0  0
   21.9382  -20.0680  -16.1514 C   0  0  0  0  0  0  0  0  0  0  0  0
   20.6784  -20.1614  -16.3442 O   0  0  0  0  0  0  0  0  0  0  0  0
   19.9991  -20.6856  -12.9318 C   0  0  0  0  0  0  0  0  0  0  0  0
   18.6361  -20.7666  -12.7278 C   0  0  0  0  0  0  0  0  0  0  0  0
   22.6649  -19.5705  -17.2215 O   0  0  0  0  0  0  0  0  0  0  0  0
  2  1  1  1
  2  6  1  0
  3  2  1  0
  4  3  1  0
  4  5  2  0
  6 13  1  0
  6  7  2  0
  8  4  1  0
 10  9  1  6
 10 11  1  0
 12 10  1  0
 12 13  1  6
 14 12  1  0
 14 23  1  0
 15 14  2  0
 16 17  1  0
 17 18  2  0
 18 19  1  0
 20 19  2  0
 20 21  1  0
 22 21  1  1
 22 23  1  0
 22 24  1  0
 24 28  1  0
 25 24  2  0
 26 20  1  0
 27 17  1  0
 27 26  2  0
M  END
$$$$
