DVY.pdb
     RDKit          3D

 28 28  0  0  1  0  0  0  0  0999 V2000
   29.1771  -23.3157  -17.1284 N   0  0  0  0  0  0  0  0  0  0  0  0
   27.9751  -22.6287  -17.5596 C   0  0  1  0  0  0  0  0  0  0  0  0
   26.8525  -23.6467  -17.5380 C   0  0  0  0  0  0  0  0  0  0  0  0
   27.1937  -24.6855  -18.5473 C   0  0  0  0  0  0  0  0  0  0  0  0
   28.2332  -24.5687  -19.2437 O   0  0  0  0  0  0  0  0  0  0  0  0
   27.6780  -21.4719  -16.6621 C   0  0  0  0  0  0  0  0  0  0  0  0
   28.5214  -20.6019  -16.3984 O   0  0  0  0  0  0  0  0  0  0  0  0
   26.4041  -25.8093  -18.7684 O   0  0  0  0  0  0  0  0  0  0  0  0
   24.8488  -19.6000  -17.8202 C   0  0  0  0  0  0  0  0  0  0  0  0
   25.8250  -19.1883  -16.7760 C   0  0  2  0  0  0  0  0  0  0  0  0
   27.2455  -19.1090  -17.2894 C   0  0  0  0  0  0  0  0  0  0  0  0
   25.8521  -20.1183  -15.5573 C   0  0  2  0  0  0  0  0  0  0  0  0
   26.3930  -21.3744  -16.1006 N   0  0  0  0  0  0  0  0  0  0  0  0
   24.4532  -20.4438  -15.1132 C   0  0  0  0  0  0  0  0  0  0  0  0
   23.6939  -21.2008  -15.8132 O   0  0  0  0  0  0  0  0  0  0  0  0
   17.0748  -20.5640  -10.1256 O   0  0  0  0  0  0  0  0  0  0  0  0
   18.3761  -20.3644  -10.6292 C   0  0  0  0  0  0  0  0  0  0  0  0
   18.7314  -19.1654  -11.2105 C   0  0  0  0  0  0  0  0  0  0  0  0
   20.0269  -18.9746  -11.7087 C   0  0  0  0  0  0  0  0  0  0  0  0
   20.9624  -19.9789  -11.6254 C   0  0  0  0  0  0  0  0  0  0  0  0
   22.3334  -19.8368  -12.1387 C   0  0  0  0  0  0  0  0  0  0  0  0
   22.5164  -20.2331  -13.5711 C   0  0  2  0  0  0  0  0  0  0  0  0
   23.9003  -19.9387  -13.9088 N   0  0  0  0  0  0  0  0  0  0  0  0
   21.6038  -19.4751  -14.4335 C   0  0  0  0  0  0  0  0  0  0  0  0
   20.5211  -19.9985  -14.8658 O   0  0  0  0  0  0  0  0  0  0  0  0
   20.5866  -21.1658  -11.0422 C   0  0  0  0  0  0  0  0  0  0  0  0
   19.3132  -21.3657  -10.5477 C   0  0  0  0  0  0  0  0  0  0  0  0
   21.8319  -18.1692  -14.8378 O   0  0  0  0  0  0  0  0  0  0  0  0
  2  1  1  1
  2  6  1  0
  3  2  1  0
  4  3  1  0
  4  5  2  0
  6 13  1  0
  6  7  2  0
  8  4  1  0
 10  9  1  6
 10 11  1  0
 12 10  1  0
 12 13  1  6
 14 12  1  0
 14 23  1  0
 15 14  2  0
 16 17  1  0
 17 18  2  0
 18 19  1  0
 20 19  2  0
 20 21  1  0
 22 21  1  1
 22 23  1  0
 22 24  1  0
 24 28  1  0
 25 24  2  0
 26 20  1  0
 27 17  1  0
 27 26  2  0
M  END
$$$$
