QAL.pdb
     RDKit          3D

 23 22  0  0  1  0  0  0  0  0999 V2000
   29.8918  -21.0371  -19.3834 N   0  0  0  0  0  0  0  0  0  0  0  0
   30.2542  -22.2692  -19.9650 C   0  0  0  0  0  0  0  0  0  0  0  0
   31.1089  -22.2867  -20.8728 O   0  0  0  0  0  0  0  0  0  0  0  0
   29.6170  -23.5079  -19.4875 C   0  0  0  0  0  0  0  0  0  0  0  0
   28.6256  -23.3341  -18.3854 C   0  0  0  0  0  0  0  0  0  0  0  0
   29.2052  -22.8467  -17.0850 C   0  0  2  0  0  0  0  0  0  0  0  0
   29.7777  -24.0282  -16.4340 N   0  0  0  0  0  0  0  0  0  0  0  0
   28.1605  -22.3149  -16.1784 C   0  0  0  0  0  0  0  0  0  0  0  0
   27.4012  -23.1128  -15.5867 O   0  0  0  0  0  0  0  0  0  0  0  0
   27.1580  -18.8428  -15.1412 C   0  0  0  0  0  0  0  0  0  0  0  0
   26.9743  -20.3627  -15.0806 C   0  0  2  0  0  0  0  0  0  0  0  0
   27.9734  -20.9299  -15.9427 N   0  0  0  0  0  0  0  0  0  0  0  0
   25.5965  -20.6392  -15.5325 C   0  0  0  0  0  0  0  0  0  0  0  0
   25.2463  -20.7633  -16.7326 O   0  0  0  0  0  0  0  0  0  0  0  0
   20.8554  -23.6462  -13.5613 C   0  0  0  0  0  0  0  0  0  0  0  0
   21.3093  -22.6788  -14.6543 C   0  0  2  0  0  0  0  0  0  0  0  0
   20.9104  -23.1669  -15.9820 C   0  0  0  0  0  0  0  0  0  0  0  0
   22.6947  -22.2689  -14.3956 C   0  0  0  0  0  0  0  0  0  0  0  0
   23.1669  -20.9696  -14.9026 C   0  0  2  0  0  0  0  0  0  0  0  0
   24.5906  -20.7757  -14.5435 N   0  0  0  0  0  0  0  0  0  0  0  0
   22.4402  -19.7835  -14.4822 C   0  0  0  0  0  0  0  0  0  0  0  0
   22.8199  -19.0026  -13.4177 O   0  0  0  0  0  0  0  0  0  0  0  0
   21.3876  -19.4094  -15.0961 O   0  0  0  0  0  0  0  0  0  0  0  0
  1  2  1  0
  2  3  2  0
  4  5  1  0
  4  2  1  0
  5  6  1  0
  6  8  1  0
  6  7  1  1
  8  9  2  0
 11 10  1  6
 11 13  1  0
 12 11  1  0
 12  8  1  0
 13 14  2  0
 13 20  1  0
 16 15  1  1
 16 17  1  0
 18 16  1  0
 19 18  1  1
 19 21  1  0
 20 19  1  0
 21 23  2  0
 21 22  1  0
M  END
$$$$
