QAL.pdb
     RDKit          3D

 23 22  0  0  1  0  0  0  0  0999 V2000
   17.3803  -15.7700  -16.4934 N   0  0  0  0  0  0  0  0  0  0  0  0
   16.3548  -15.1570  -15.7449 C   0  0  0  0  0  0  0  0  0  0  0  0
   15.3901  -15.8445  -15.3556 O   0  0  0  0  0  0  0  0  0  0  0  0
   16.4456  -13.7196  -15.4382 C   0  0  0  0  0  0  0  0  0  0  0  0
   17.6649  -13.0306  -15.9543 C   0  0  0  0  0  0  0  0  0  0  0  0
   17.4508  -12.2173  -17.2020 C   0  0  2  0  0  0  0  0  0  0  0  0
   17.9774  -13.0276  -18.3036 N   0  0  0  0  0  0  0  0  0  0  0  0
   18.2285  -10.9560  -17.1805 C   0  0  0  0  0  0  0  0  0  0  0  0
   19.4684  -11.0001  -17.3354 O   0  0  0  0  0  0  0  0  0  0  0  0
   17.2972   -7.3540  -16.6405 C   0  0  0  0  0  0  0  0  0  0  0  0
   18.3444   -8.4380  -16.9159 C   0  0  2  0  0  0  0  0  0  0  0  0
   17.6332   -9.6837  -16.9910 N   0  0  0  0  0  0  0  0  0  0  0  0
   19.3067   -8.3884  -15.7976 C   0  0  0  0  0  0  0  0  0  0  0  0
   19.2733   -9.1362  -14.7886 O   0  0  0  0  0  0  0  0  0  0  0  0
   23.5640   -9.7640  -13.6468 C   0  0  0  0  0  0  0  0  0  0  0  0
   23.6716   -9.0195  -14.9775 C   0  0  2  0  0  0  0  0  0  0  0  0
   24.6505   -7.9268  -14.8866 C   0  0  0  0  0  0  0  0  0  0  0  0
   22.3249   -8.7722  -15.5061 C   0  0  0  0  0  0  0  0  0  0  0  0
   21.5902   -7.5729  -15.0702 C   0  0  2  0  0  0  0  0  0  0  0  0
   20.3469   -7.4280  -15.8618 N   0  0  0  0  0  0  0  0  0  0  0  0
   22.2946   -6.3027  -15.1184 C   0  0  0  0  0  0  0  0  0  0  0  0
   22.9670   -5.7707  -14.0451 O   0  0  0  0  0  0  0  0  0  0  0  0
   22.3148   -5.6059  -16.1856 O   0  0  0  0  0  0  0  0  0  0  0  0
  1  2  1  0
  2  3  2  0
  4  5  1  0
  4  2  1  0
  5  6  1  0
  6  8  1  0
  6  7  1  6
  8  9  2  0
 11 10  1  1
 11 13  1  0
 12 11  1  0
 12  8  1  0
 13 14  2  0
 13 20  1  0
 16 15  1  1
 16 17  1  0
 18 16  1  0
 19 18  1  6
 19 21  1  0
 20 19  1  0
 21 23  2  0
 21 22  1  0
M  END
$$$$
