QAL.pdb
     RDKit          3D

 23 22  0  0  1  0  0  0  0  0999 V2000
   24.3712  -24.5469  -13.8868 N   0  0  0  0  0  0  0  0  0  0  0  0
   23.4273  -23.5722  -14.2695 C   0  0  0  0  0  0  0  0  0  0  0  0
   22.6757  -23.7989  -15.2383 O   0  0  0  0  0  0  0  0  0  0  0  0
   23.3486  -22.3089  -13.5169 C   0  0  0  0  0  0  0  0  0  0  0  0
   24.3415  -22.1587  -12.4127 C   0  0  0  0  0  0  0  0  0  0  0  0
   25.6044  -21.4342  -12.7926 C   0  0  2  0  0  0  0  0  0  0  0  0
   26.4560  -21.4615  -11.6002 N   0  0  0  0  0  0  0  0  0  0  0  0
   25.3503  -20.0096  -13.1121 C   0  0  0  0  0  0  0  0  0  0  0  0
   24.7831  -19.2854  -12.2654 O   0  0  0  0  0  0  0  0  0  0  0  0
   26.9039  -17.5594  -15.2498 C   0  0  0  0  0  0  0  0  0  0  0  0
   25.5620  -18.0273  -14.6771 C   0  0  2  0  0  0  0  0  0  0  0  0
   25.7215  -19.4155  -14.3442 N   0  0  0  0  0  0  0  0  0  0  0  0
   24.5518  -17.7974  -15.7284 C   0  0  0  0  0  0  0  0  0  0  0  0
   24.2126  -18.6418  -16.5946 O   0  0  0  0  0  0  0  0  0  0  0  0
   20.1350  -16.4411  -16.0535 C   0  0  0  0  0  0  0  0  0  0  0  0
   20.9743  -15.2888  -15.5020 C   0  0  2  0  0  0  0  0  0  0  0  0
   20.1151  -14.1778  -15.0688 C   0  0  0  0  0  0  0  0  0  0  0  0
   22.1132  -15.0461  -16.3956 C   0  0  0  0  0  0  0  0  0  0  0  0
   22.9419  -16.1834  -16.8294 C   0  0  2  0  0  0  0  0  0  0  0  0
   23.9143  -16.5322  -15.7682 N   0  0  0  0  0  0  0  0  0  0  0  0
   23.6793  -16.0376  -18.0731 C   0  0  0  0  0  0  0  0  0  0  0  0
   23.1992  -16.4579  -19.2897 O   0  0  0  0  0  0  0  0  0  0  0  0
   24.8369  -15.5042  -18.0886 O   0  0  0  0  0  0  0  0  0  0  0  0
  1  2  1  0
  2  3  2  0
  4  5  1  0
  4  2  1  0
  5  6  1  0
  6  8  1  0
  6  7  1  1
  8  9  2  0
 11 10  1  6
 11 13  1  0
 12 11  1  0
 12  8  1  0
 13 14  2  0
 13 20  1  0
 16 15  1  6
 16 17  1  0
 18 16  1  0
 19 18  1  1
 19 21  1  0
 20 19  1  0
 21 23  2  0
 21 22  1  0
M  END
$$$$
