QAL.pdb
     RDKit          3D

 23 22  0  0  1  0  0  0  0  0999 V2000
   26.5840  -21.6245  -10.9504 N   0  0  0  0  0  0  0  0  0  0  0  0
   26.1351  -22.7935  -11.5981 C   0  0  0  0  0  0  0  0  0  0  0  0
   26.5521  -23.9031  -11.2111 O   0  0  0  0  0  0  0  0  0  0  0  0
   25.1833  -22.6791  -12.7159 C   0  0  0  0  0  0  0  0  0  0  0  0
   24.7824  -21.2871  -13.0755 C   0  0  0  0  0  0  0  0  0  0  0  0
   25.2409  -20.8281  -14.4332 C   0  0  2  0  0  0  0  0  0  0  0  0
   26.7034  -20.7676  -14.3627 N   0  0  0  0  0  0  0  0  0  0  0  0
   24.7642  -19.4600  -14.7448 C   0  0  0  0  0  0  0  0  0  0  0  0
   25.0185  -18.5287  -13.9503 O   0  0  0  0  0  0  0  0  0  0  0  0
   23.7389  -17.6619  -17.7507 C   0  0  0  0  0  0  0  0  0  0  0  0
   23.5138  -17.8459  -16.2463 C   0  0  2  0  0  0  0  0  0  0  0  0
   24.0248  -19.1461  -15.9126 N   0  0  0  0  0  0  0  0  0  0  0  0
   22.0607  -17.7201  -16.0190 C   0  0  0  0  0  0  0  0  0  0  0  0
   21.2366  -18.6644  -16.1052 O   0  0  0  0  0  0  0  0  0  0  0  0
   18.5105  -12.9890  -14.3169 C   0  0  0  0  0  0  0  0  0  0  0  0
   18.5403  -14.5146  -14.4083 C   0  0  2  0  0  0  0  0  0  0  0  0
   17.7913  -15.1188  -13.2973 C   0  0  0  0  0  0  0  0  0  0  0  0
   19.9060  -14.9564  -14.7145 C   0  0  0  0  0  0  0  0  0  0  0  0
   20.1063  -16.2129  -15.4556 C   0  0  2  0  0  0  0  0  0  0  0  0
   21.5525  -16.4418  -15.6782 N   0  0  0  0  0  0  0  0  0  0  0  0
   19.4356  -16.3475  -16.7376 C   0  0  0  0  0  0  0  0  0  0  0  0
   19.8479  -15.7007  -17.8774 O   0  0  0  0  0  0  0  0  0  0  0  0
   18.4048  -17.0868  -16.8623 O   0  0  0  0  0  0  0  0  0  0  0  0
  1  2  1  0
  2  3  2  0
  4  5  1  0
  4  2  1  0
  5  6  1  0
  6  8  1  0
  6  7  1  1
  8  9  2  0
 11 10  1  6
 11 13  1  0
 12 11  1  0
 12  8  1  0
 13 14  2  0
 13 20  1  0
 16 15  1  1
 16 17  1  0
 18 16  1  0
 19 18  1  6
 19 21  1  0
 20 19  1  0
 21 23  2  0
 21 22  1  0
M  END
$$$$
