QAL.pdb
     RDKit          3D

 23 22  0  0  1  0  0  0  0  0999 V2000
   23.8968  -24.9995  -17.1976 N   0  0  0  0  0  0  0  0  0  0  0  0
   24.4199  -26.2007  -17.7183 C   0  0  0  0  0  0  0  0  0  0  0  0
   23.7336  -26.8687  -18.5168 O   0  0  0  0  0  0  0  0  0  0  0  0
   25.7647  -26.6396  -17.3091 C   0  0  0  0  0  0  0  0  0  0  0  0
   26.4708  -25.7345  -16.3552 C   0  0  0  0  0  0  0  0  0  0  0  0
   26.9925  -24.4601  -16.9617 C   0  0  2  0  0  0  0  0  0  0  0  0
   28.4507  -24.6015  -16.9980 N   0  0  0  0  0  0  0  0  0  0  0  0
   26.6916  -23.2811  -16.1158 C   0  0  0  0  0  0  0  0  0  0  0  0
   27.2666  -23.1580  -15.0125 O   0  0  0  0  0  0  0  0  0  0  0  0
   24.6343  -20.1855  -16.6297 C   0  0  0  0  0  0  0  0  0  0  0  0
   25.4503  -21.1075  -15.7179 C   0  0  2  0  0  0  0  0  0  0  0  0
   25.7734  -22.2706  -16.4964 N   0  0  0  0  0  0  0  0  0  0  0  0
   24.5967  -21.4109  -14.5524 C   0  0  0  0  0  0  0  0  0  0  0  0
   23.7443  -22.3328  -14.5079 O   0  0  0  0  0  0  0  0  0  0  0  0
   25.4277  -22.1431  -10.1260 C   0  0  0  0  0  0  0  0  0  0  0  0
   25.6621  -20.6583  -10.4037 C   0  0  2  0  0  0  0  0  0  0  0  0
   26.2656  -19.9981   -9.2374 C   0  0  0  0  0  0  0  0  0  0  0  0
   24.4722  -20.0910  -11.0491 C   0  0  0  0  0  0  0  0  0  0  0  0
   23.8819  -20.7848  -12.2060 C   0  0  2  0  0  0  0  0  0  0  0  0
   24.7457  -20.6059  -13.3956 N   0  0  0  0  0  0  0  0  0  0  0  0
   22.5274  -20.4196  -12.5851 C   0  0  0  0  0  0  0  0  0  0  0  0
   21.4110  -21.0709  -12.1197 O   0  0  0  0  0  0  0  0  0  0  0  0
   22.3110  -19.4569  -13.3921 O   0  0  0  0  0  0  0  0  0  0  0  0
  1  2  1  0
  2  3  2  0
  4  5  1  0
  4  2  1  0
  5  6  1  0
  6  8  1  0
  6  7  1  1
  8  9  2  0
 11 10  1  6
 11 13  1  0
 12 11  1  0
 12  8  1  0
 13 14  2  0
 13 20  1  0
 16 15  1  1
 16 17  1  0
 18 16  1  0
 19 18  1  1
 19 21  1  0
 20 19  1  0
 21 23  2  0
 21 22  1  0
M  END
$$$$
