QAL.pdb
     RDKit          3D

 23 22  0  0  1  0  0  0  0  0999 V2000
   15.4642  -17.1507  -16.6995 N   0  0  0  0  0  0  0  0  0  0  0  0
   16.3917  -16.3178  -16.0411 C   0  0  0  0  0  0  0  0  0  0  0  0
   15.9817  -15.4967  -15.1970 O   0  0  0  0  0  0  0  0  0  0  0  0
   17.8237  -16.4362  -16.3634 C   0  0  0  0  0  0  0  0  0  0  0  0
   18.5547  -15.1438  -16.5150 C   0  0  0  0  0  0  0  0  0  0  0  0
   18.1729  -14.3404  -17.7286 C   0  0  2  0  0  0  0  0  0  0  0  0
   18.7925  -15.0197  -18.8698 N   0  0  0  0  0  0  0  0  0  0  0  0
   18.7331  -12.9691  -17.6832 C   0  0  0  0  0  0  0  0  0  0  0  0
   19.9509  -12.7989  -17.9096 O   0  0  0  0  0  0  0  0  0  0  0  0
   17.2376   -9.5818  -17.0333 C   0  0  0  0  0  0  0  0  0  0  0  0
   18.4500  -10.4799  -17.2997 C   0  0  2  0  0  0  0  0  0  0  0  0
   17.9508  -11.8235  -17.3927 N   0  0  0  0  0  0  0  0  0  0  0  0
   19.3763  -10.2846  -16.1670 C   0  0  0  0  0  0  0  0  0  0  0  0
   19.2816  -10.8614  -15.0550 O   0  0  0  0  0  0  0  0  0  0  0  0
   25.1249   -9.8544  -15.5432 C   0  0  0  0  0  0  0  0  0  0  0  0
   23.8517   -9.7719  -14.7014 C   0  0  2  0  0  0  0  0  0  0  0  0
   23.9808  -10.5784  -13.4794 C   0  0  0  0  0  0  0  0  0  0  0  0
   22.6815   -9.9227  -15.5743 C   0  0  0  0  0  0  0  0  0  0  0  0
   21.4604   -9.1545  -15.2792 C   0  0  2  0  0  0  0  0  0  0  0  0
   20.4536   -9.3805  -16.3417 N   0  0  0  0  0  0  0  0  0  0  0  0
   21.5998   -7.7190  -15.1014 C   0  0  0  0  0  0  0  0  0  0  0  0
   21.5227   -6.8187  -16.1361 O   0  0  0  0  0  0  0  0  0  0  0  0
   21.8109   -7.2202  -13.9476 O   0  0  0  0  0  0  0  0  0  0  0  0
  1  2  1  0
  2  3  2  0
  4  5  1  0
  4  2  1  0
  5  6  1  0
  6  8  1  0
  6  7  1  6
  8  9  2  0
 11 10  1  1
 11 13  1  0
 12 11  1  0
 12  8  1  0
 13 14  2  0
 13 20  1  0
 16 15  1  6
 16 17  1  0
 18 16  1  0
 19 18  1  6
 19 21  1  0
 20 19  1  0
 21 23  2  0
 21 22  1  0
M  END
$$$$
