QAL.pdb
     RDKit          3D

 23 22  0  0  1  0  0  0  0  0999 V2000
   27.1515  -24.3293  -15.4052 N   0  0  0  0  0  0  0  0  0  0  0  0
   27.3211  -23.1269  -16.1215 C   0  0  0  0  0  0  0  0  0  0  0  0
   26.5637  -22.8763  -17.0799 O   0  0  0  0  0  0  0  0  0  0  0  0
   28.3874  -22.1931  -15.7221 C   0  0  0  0  0  0  0  0  0  0  0  0
   28.0875  -21.3530  -14.5254 C   0  0  0  0  0  0  0  0  0  0  0  0
   26.7263  -20.7117  -14.5284 C   0  0  2  0  0  0  0  0  0  0  0  0
   26.8172  -19.5835  -15.4592 N   0  0  0  0  0  0  0  0  0  0  0  0
   26.3750  -20.1528  -13.2017 C   0  0  0  0  0  0  0  0  0  0  0  0
   27.0688  -19.2283  -12.7251 O   0  0  0  0  0  0  0  0  0  0  0  0
   23.4228  -20.4528  -10.9520 C   0  0  0  0  0  0  0  0  0  0  0  0
   24.9085  -20.1258  -11.1347 C   0  0  2  0  0  0  0  0  0  0  0  0
   25.2784  -20.6169  -12.4329 N   0  0  0  0  0  0  0  0  0  0  0  0
   25.6269  -20.7999  -10.0355 C   0  0  0  0  0  0  0  0  0  0  0  0
   25.8725  -22.0311   -9.9874 O   0  0  0  0  0  0  0  0  0  0  0  0
   28.3782  -18.6501   -4.9460 C   0  0  0  0  0  0  0  0  0  0  0  0
   27.9621  -19.9337   -5.6640 C   0  0  2  0  0  0  0  0  0  0  0  0
   28.9919  -20.9719   -5.5161 C   0  0  0  0  0  0  0  0  0  0  0  0
   27.4267  -19.5977   -6.9887 C   0  0  0  0  0  0  0  0  0  0  0  0
   26.6523  -20.6080   -7.7288 C   0  0  2  0  0  0  0  0  0  0  0  0
   26.0749  -20.0041   -8.9517 N   0  0  0  0  0  0  0  0  0  0  0  0
   25.5772  -21.2794   -7.0182 C   0  0  0  0  0  0  0  0  0  0  0  0
   25.7553  -22.4327   -6.2934 O   0  0  0  0  0  0  0  0  0  0  0  0
   24.3892  -20.8178   -7.0417 O   0  0  0  0  0  0  0  0  0  0  0  0
  1  2  1  0
  2  3  2  0
  4  5  1  0
  4  2  1  0
  5  6  1  0
  6  8  1  0
  6  7  1  6
  8  9  2  0
 11 10  1  1
 11 13  1  0
 12 11  1  0
 12  8  1  0
 13 14  2  0
 13 20  1  0
 16 15  1  6
 16 17  1  0
 18 16  1  0
 19 18  1  1
 19 21  1  0
 20 19  1  0
 21 23  2  0
 21 22  1  0
M  END
$$$$
