QAL.pdb
     RDKit          3D

 23 22  0  0  1  0  0  0  0  0999 V2000
   16.9492  -13.1626  -19.0739 N   0  0  0  0  0  0  0  0  0  0  0  0
   17.0190  -14.5466  -18.8143 C   0  0  0  0  0  0  0  0  0  0  0  0
   16.4727  -15.3430  -19.6030 O   0  0  0  0  0  0  0  0  0  0  0  0
   17.7360  -15.0214  -17.6189 C   0  0  0  0  0  0  0  0  0  0  0  0
   18.3182  -13.9526  -16.7549 C   0  0  0  0  0  0  0  0  0  0  0  0
   19.4635  -13.1958  -17.3711 C   0  0  2  0  0  0  0  0  0  0  0  0
   20.5527  -14.1655  -17.5155 N   0  0  0  0  0  0  0  0  0  0  0  0
   19.9569  -12.1181  -16.4816 C   0  0  0  0  0  0  0  0  0  0  0  0
   19.1336  -11.3502  -15.9376 O   0  0  0  0  0  0  0  0  0  0  0  0
   23.3968  -10.9522  -15.5132 C   0  0  0  0  0  0  0  0  0  0  0  0
   21.8728  -10.7988  -15.4755 C   0  0  2  0  0  0  0  0  0  0  0  0
   21.3321  -11.9082  -16.2105 N   0  0  0  0  0  0  0  0  0  0  0  0
   21.5652   -9.4928  -16.0910 C   0  0  0  0  0  0  0  0  0  0  0  0
   21.5182   -9.2755  -17.3274 O   0  0  0  0  0  0  0  0  0  0  0  0
   17.4894   -6.3578  -17.3924 C   0  0  0  0  0  0  0  0  0  0  0  0
   18.8929   -5.9977  -16.9057 C   0  0  2  0  0  0  0  0  0  0  0  0
   19.5760   -5.1315  -17.8769 C   0  0  0  0  0  0  0  0  0  0  0  0
   19.5519   -7.2029  -16.3885 C   0  0  0  0  0  0  0  0  0  0  0  0
   20.8726   -7.0820  -15.7487 C   0  0  2  0  0  0  0  0  0  0  0  0
   21.3027   -8.4000  -15.2276 N   0  0  0  0  0  0  0  0  0  0  0  0
   21.0082   -6.1160  -14.6717 C   0  0  0  0  0  0  0  0  0  0  0  0
   21.0552   -6.4662  -13.3442 O   0  0  0  0  0  0  0  0  0  0  0  0
   21.0858   -4.8678  -14.9184 O   0  0  0  0  0  0  0  0  0  0  0  0
  1  2  1  0
  2  3  2  0
  4  5  1  0
  4  2  1  0
  5  6  1  0
  6  8  1  0
  6  7  1  1
  8  9  2  0
 11 10  1  6
 11 13  1  0
 12 11  1  0
 12  8  1  0
 13 14  2  0
 13 20  1  0
 16 15  1  6
 16 17  1  0
 18 16  1  0
 19 18  1  1
 19 21  1  0
 20 19  1  0
 21 23  2  0
 21 22  1  0
M  END
$$$$
