QAL.pdb
     RDKit          3D

 23 22  0  0  1  0  0  0  0  0999 V2000
   20.1979  -23.4755  -10.3376 N   0  0  0  0  0  0  0  0  0  0  0  0
   19.9098  -22.6776   -9.2115 C   0  0  0  0  0  0  0  0  0  0  0  0
   19.1413  -23.1174   -8.3334 O   0  0  0  0  0  0  0  0  0  0  0  0
   20.5229  -21.3438   -9.0961 C   0  0  0  0  0  0  0  0  0  0  0  0
   21.4057  -20.9446  -10.2315 C   0  0  0  0  0  0  0  0  0  0  0  0
   22.8696  -21.2222  -10.0217 C   0  0  2  0  0  0  0  0  0  0  0  0
   23.2127  -20.6112   -8.7346 N   0  0  0  0  0  0  0  0  0  0  0  0
   23.7103  -20.5668  -11.0512 C   0  0  0  0  0  0  0  0  0  0  0  0
   23.7263  -19.3187  -11.1228 O   0  0  0  0  0  0  0  0  0  0  0  0
   25.9908  -21.8209  -13.7570 C   0  0  0  0  0  0  0  0  0  0  0  0
   25.0038  -20.7790  -13.2203 C   0  0  2  0  0  0  0  0  0  0  0  0
   24.5087  -21.2898  -11.9724 N   0  0  0  0  0  0  0  0  0  0  0  0
   23.9497  -20.6308  -14.2431 C   0  0  0  0  0  0  0  0  0  0  0  0
   22.9184  -21.3441  -14.3192 O   0  0  0  0  0  0  0  0  0  0  0  0
   21.1374  -16.0778  -16.6096 C   0  0  0  0  0  0  0  0  0  0  0  0
   21.2337  -17.6025  -16.6618 C   0  0  2  0  0  0  0  0  0  0  0  0
   19.9122  -18.2160  -16.4676 C   0  0  0  0  0  0  0  0  0  0  0  0
   22.3851  -18.0441  -15.8659 C   0  0  0  0  0  0  0  0  0  0  0  0
   23.0526  -19.3111  -16.2084 C   0  0  2  0  0  0  0  0  0  0  0  0
   24.1080  -19.6098  -15.2132 N   0  0  0  0  0  0  0  0  0  0  0  0
   23.6488  -19.4172  -17.5294 C   0  0  0  0  0  0  0  0  0  0  0  0
   22.9759  -19.8999  -18.6254 O   0  0  0  0  0  0  0  0  0  0  0  0
   24.8562  -19.0626  -17.7325 O   0  0  0  0  0  0  0  0  0  0  0  0
  1  2  1  0
  2  3  2  0
  4  5  1  0
  4  2  1  0
  5  6  1  0
  6  8  1  0
  6  7  1  1
  8  9  2  0
 11 10  1  6
 11 13  1  0
 12 11  1  0
 12  8  1  0
 13 14  2  0
 13 20  1  0
 16 15  1  1
 16 17  1  0
 18 16  1  0
 19 18  1  1
 19 21  1  0
 20 19  1  0
 21 23  2  0
 21 22  1  0
M  END
$$$$
