QAL.pdb
     RDKit          3D

 23 22  0  0  1  0  0  0  0  0999 V2000
   27.0291  -18.6915  -17.7772 N   0  0  0  0  0  0  0  0  0  0  0  0
   28.1699  -18.1757  -17.1291 C   0  0  0  0  0  0  0  0  0  0  0  0
   28.9935  -17.5073  -17.7848 O   0  0  0  0  0  0  0  0  0  0  0  0
   28.3636  -18.4362  -15.6928 C   0  0  0  0  0  0  0  0  0  0  0  0
   27.2642  -19.1938  -15.0256 C   0  0  0  0  0  0  0  0  0  0  0  0
   27.7060  -20.4249  -14.2817 C   0  0  2  0  0  0  0  0  0  0  0  0
   28.1876  -21.3588  -15.3032 N   0  0  0  0  0  0  0  0  0  0  0  0
   26.5768  -21.0864  -13.5865 C   0  0  0  0  0  0  0  0  0  0  0  0
   25.7993  -21.8151  -14.2406 O   0  0  0  0  0  0  0  0  0  0  0  0
   25.2698  -20.8553  -10.0691 C   0  0  0  0  0  0  0  0  0  0  0  0
   25.0832  -21.2273  -11.5438 C   0  0  2  0  0  0  0  0  0  0  0  0
   26.3273  -20.9351  -12.1995 N   0  0  0  0  0  0  0  0  0  0  0  0
   23.9598  -20.4116  -12.0454 C   0  0  0  0  0  0  0  0  0  0  0  0
   24.0723  -19.2620  -12.5393 O   0  0  0  0  0  0  0  0  0  0  0  0
   19.7120  -20.9556  -15.1485 C   0  0  0  0  0  0  0  0  0  0  0  0
   21.0221  -20.1833  -15.3020 C   0  0  2  0  0  0  0  0  0  0  0  0
   21.4435  -20.1449  -16.7096 C   0  0  0  0  0  0  0  0  0  0  0  0
   21.9597  -20.6041  -14.2541 C   0  0  0  0  0  0  0  0  0  0  0  0
   21.5582  -20.4905  -12.8420 C   0  0  2  0  0  0  0  0  0  0  0  0
   22.6560  -20.9614  -11.9664 N   0  0  0  0  0  0  0  0  0  0  0  0
   20.3437  -21.1767  -12.4347 C   0  0  0  0  0  0  0  0  0  0  0  0
   19.1507  -20.5329  -12.2120 O   0  0  0  0  0  0  0  0  0  0  0  0
   20.3338  -22.4388  -12.2564 O   0  0  0  0  0  0  0  0  0  0  0  0
  1  2  1  0
  2  3  2  0
  4  5  1  0
  4  2  1  0
  5  6  1  0
  6  8  1  0
  6  7  1  6
  8  9  2  0
 11 10  1  1
 11 13  1  0
 12 11  1  0
 12  8  1  0
 13 14  2  0
 13 20  1  0
 16 15  1  6
 16 17  1  0
 18 16  1  0
 19 18  1  6
 19 21  1  0
 20 19  1  0
 21 23  2  0
 21 22  1  0
M  END
$$$$
