QAL.pdb
     RDKit          3D

 23 22  0  0  1  0  0  0  0  0999 V2000
   27.5667  -25.7680  -15.8869 N   0  0  0  0  0  0  0  0  0  0  0  0
   28.2289  -25.0043  -16.8698 C   0  0  0  0  0  0  0  0  0  0  0  0
   29.4320  -25.2293  -17.1083 O   0  0  0  0  0  0  0  0  0  0  0  0
   27.4859  -23.9591  -17.5937 C   0  0  0  0  0  0  0  0  0  0  0  0
   26.0273  -23.8816  -17.2867 C   0  0  0  0  0  0  0  0  0  0  0  0
   25.5382  -22.5173  -16.8822 C   0  0  2  0  0  0  0  0  0  0  0  0
   26.6005  -21.9404  -16.0538 N   0  0  0  0  0  0  0  0  0  0  0  0
   24.3224  -22.5931  -16.0384 C   0  0  0  0  0  0  0  0  0  0  0  0
   23.3854  -23.3458  -16.3831 O   0  0  0  0  0  0  0  0  0  0  0  0
   23.2270  -20.8156  -12.9141 C   0  0  0  0  0  0  0  0  0  0  0  0
   23.0040  -21.8782  -13.9952 C   0  0  2  0  0  0  0  0  0  0  0  0
   24.1625  -21.8470  -14.8439 N   0  0  0  0  0  0  0  0  0  0  0  0
   21.7610  -21.5082  -14.7001 C   0  0  0  0  0  0  0  0  0  0  0  0
   21.6719  -20.6101  -15.5741 O   0  0  0  0  0  0  0  0  0  0  0  0
   16.3276  -22.4443  -15.2781 C   0  0  0  0  0  0  0  0  0  0  0  0
   17.3592  -23.1771  -16.1356 C   0  0  2  0  0  0  0  0  0  0  0  0
   16.7875  -24.4063  -16.7035 C   0  0  0  0  0  0  0  0  0  0  0  0
   18.6442  -23.2103  -15.4271 C   0  0  0  0  0  0  0  0  0  0  0  0
   19.2920  -21.9420  -15.0526 C   0  0  2  0  0  0  0  0  0  0  0  0
   20.5778  -22.2151  -14.3703 N   0  0  0  0  0  0  0  0  0  0  0  0
   18.5348  -21.0255  -14.2170 C   0  0  0  0  0  0  0  0  0  0  0  0
   17.7894  -19.9862  -14.7186 O   0  0  0  0  0  0  0  0  0  0  0  0
   18.5339  -21.1460  -12.9480 O   0  0  0  0  0  0  0  0  0  0  0  0
  1  2  1  0
  2  3  2  0
  4  5  1  0
  4  2  1  0
  5  6  1  0
  6  8  1  0
  6  7  1  1
  8  9  2  0
 11 10  1  1
 11 13  1  0
 12 11  1  0
 12  8  1  0
 13 14  2  0
 13 20  1  0
 16 15  1  1
 16 17  1  0
 18 16  1  0
 19 18  1  1
 19 21  1  0
 20 19  1  0
 21 23  2  0
 21 22  1  0
M  END
$$$$
