QAL.pdb
     RDKit          3D

 23 22  0  0  1  0  0  0  0  0999 V2000
   12.0575  -10.8972  -13.8951 N   0  0  0  0  0  0  0  0  0  0  0  0
   12.3513  -12.2619  -14.0925 C   0  0  0  0  0  0  0  0  0  0  0  0
   11.6261  -13.1248  -13.5592 O   0  0  0  0  0  0  0  0  0  0  0  0
   13.5064  -12.6386  -14.9245 C   0  0  0  0  0  0  0  0  0  0  0  0
   14.3566  -11.5039  -15.3909 C   0  0  0  0  0  0  0  0  0  0  0  0
   14.8010  -11.5952  -16.8256 C   0  0  2  0  0  0  0  0  0  0  0  0
   14.9443  -13.0256  -17.1101 N   0  0  0  0  0  0  0  0  0  0  0  0
   16.1312  -10.9758  -17.0333 C   0  0  0  0  0  0  0  0  0  0  0  0
   17.1528  -11.6957  -16.9957 O   0  0  0  0  0  0  0  0  0  0  0  0
   17.2572   -7.5024  -17.9115 C   0  0  0  0  0  0  0  0  0  0  0  0
   17.5727   -8.9440  -17.4994 C   0  0  2  0  0  0  0  0  0  0  0  0
   16.3098   -9.5909  -17.2759 N   0  0  0  0  0  0  0  0  0  0  0  0
   18.4037   -8.8623  -16.2821 C   0  0  0  0  0  0  0  0  0  0  0  0
   17.9558   -8.8183  -15.1092 O   0  0  0  0  0  0  0  0  0  0  0  0
   24.0461  -10.6131  -14.9355 C   0  0  0  0  0  0  0  0  0  0  0  0
   22.8938   -9.7465  -14.4279 C   0  0  2  0  0  0  0  0  0  0  0  0
   22.5634  -10.0807  -13.0353 C   0  0  0  0  0  0  0  0  0  0  0  0
   21.8426   -9.6884  -15.4505 C   0  0  0  0  0  0  0  0  0  0  0  0
   20.7259   -8.7436  -15.2811 C   0  0  2  0  0  0  0  0  0  0  0  0
   19.8114   -8.8307  -16.4429 N   0  0  0  0  0  0  0  0  0  0  0  0
   21.0589   -7.3427  -15.0855 C   0  0  0  0  0  0  0  0  0  0  0  0
   21.2865   -6.7856  -13.8506 O   0  0  0  0  0  0  0  0  0  0  0  0
   21.1512   -6.5476  -16.0776 O   0  0  0  0  0  0  0  0  0  0  0  0
  1  2  1  0
  2  3  2  0
  4  5  1  0
  4  2  1  0
  5  6  1  0
  6  8  1  0
  6  7  1  1
  8  9  2  0
 11 10  1  1
 11 13  1  0
 12 11  1  0
 12  8  1  0
 13 14  2  0
 13 20  1  0
 16 15  1  6
 16 17  1  0
 18 16  1  0
 19 18  1  6
 19 21  1  0
 20 19  1  0
 21 23  2  0
 21 22  1  0
M  END
$$$$
