QAL.pdb
     RDKit          3D

 23 22  0  0  1  0  0  0  0  0999 V2000
   28.2000  -21.4659  -17.2568 N   0  0  0  0  0  0  0  0  0  0  0  0
   28.8092  -22.3768  -16.3699 C   0  0  0  0  0  0  0  0  0  0  0  0
   29.1227  -23.5113  -16.7815 O   0  0  0  0  0  0  0  0  0  0  0  0
   29.0631  -21.9687  -14.9779 C   0  0  0  0  0  0  0  0  0  0  0  0
   28.6377  -20.5810  -14.6299 C   0  0  0  0  0  0  0  0  0  0  0  0
   27.1669  -20.3105  -14.7963 C   0  0  2  0  0  0  0  0  0  0  0  0
   27.0691  -19.1982  -15.7454 N   0  0  0  0  0  0  0  0  0  0  0  0
   26.5409  -19.8582  -13.5315 C   0  0  0  0  0  0  0  0  0  0  0  0
   26.9898  -18.8426  -12.9567 O   0  0  0  0  0  0  0  0  0  0  0  0
   23.3165  -20.4490  -11.8672 C   0  0  0  0  0  0  0  0  0  0  0  0
   24.8069  -20.1332  -11.7037 C   0  0  2  0  0  0  0  0  0  0  0  0
   25.4446  -20.5250  -12.9297 N   0  0  0  0  0  0  0  0  0  0  0  0
   25.2757  -20.9050  -10.5360 C   0  0  0  0  0  0  0  0  0  0  0  0
   25.6192  -22.1131  -10.5653 O   0  0  0  0  0  0  0  0  0  0  0  0
   28.4483  -20.6981   -7.2389 C   0  0  0  0  0  0  0  0  0  0  0  0
   27.4628  -19.5338   -7.1399 C   0  0  2  0  0  0  0  0  0  0  0  0
   27.9644  -18.5020   -6.2211 C   0  0  0  0  0  0  0  0  0  0  0  0
   26.1006  -20.0611   -6.9971 C   0  0  0  0  0  0  0  0  0  0  0  0
   25.5723  -20.9760   -8.0229 C   0  0  2  0  0  0  0  0  0  0  0  0
   25.3454  -20.2386   -9.2871 N   0  0  0  0  0  0  0  0  0  0  0  0
   24.3521  -21.6999   -7.7090 C   0  0  0  0  0  0  0  0  0  0  0  0
   24.3235  -22.8294   -6.9275 O   0  0  0  0  0  0  0  0  0  0  0  0
   23.2258  -21.3110   -8.1619 O   0  0  0  0  0  0  0  0  0  0  0  0
  1  2  1  0
  2  3  2  0
  4  5  1  0
  4  2  1  0
  5  6  1  0
  6  8  1  0
  6  7  1  6
  8  9  2  0
 11 10  1  6
 11 13  1  0
 12 11  1  0
 12  8  1  0
 13 14  2  0
 13 20  1  0
 16 15  1  1
 16 17  1  0
 18 16  1  0
 19 18  1  1
 19 21  1  0
 20 19  1  0
 21 23  2  0
 21 22  1  0
M  END
$$$$
