KQM.pdb
     RDKit          3D

 27 26  0  0  1  0  0  0  0  0999 V2000
   20.4316  -20.0258  -13.8809 N   0  0  0  0  0  0  0  0  0  0  0  0
   20.5691  -20.9678  -12.8409 C   0  0  1  0  0  0  0  0  0  0  0  0
   19.6021  -22.1022  -12.7890 C   0  0  0  0  0  0  0  0  0  0  0  0
   18.1790  -21.8039  -13.0202 C   0  0  0  0  0  0  0  0  0  0  0  0
   17.5684  -20.6363  -12.3543 C   0  0  0  0  0  0  0  0  0  0  0  0
   16.2032  -20.8299  -11.7887 C   0  0  0  0  0  0  0  0  0  0  0  0
   15.7935  -19.6741  -11.0465 N   0  0  0  0  0  0  0  0  0  0  0  0
   21.9837  -21.4430  -12.6318 C   0  0  0  0  0  0  0  0  0  0  0  0
   22.1890  -22.1884  -11.6311 O   0  0  0  0  0  0  0  0  0  0  0  0
   25.4517  -24.5065  -15.1425 N   0  0  0  0  0  0  0  0  0  0  0  0
   26.6065  -23.7431  -14.8629 C   0  0  0  0  0  0  0  0  0  0  0  0
   27.7608  -24.2392  -14.8357 O   0  0  0  0  0  0  0  0  0  0  0  0
   26.4861  -22.2706  -14.5811 C   0  0  0  0  0  0  0  0  0  0  0  0
   25.0622  -21.8292  -14.6137 C   0  0  0  0  0  0  0  0  0  0  0  0
   24.4063  -21.7206  -13.2580 C   0  0  2  0  0  0  0  0  0  0  0  0
   23.0651  -21.1240  -13.4492 N   0  0  0  0  0  0  0  0  0  0  0  0
   25.2102  -20.8573  -12.3759 C   0  0  0  0  0  0  0  0  0  0  0  0
   25.2216  -19.5985  -12.6005 O   0  0  0  0  0  0  0  0  0  0  0  0
   26.4723  -20.9628   -6.0847 C   0  0  0  0  0  0  0  0  0  0  0  0
   28.1222  -20.5044   -6.6840 S   0  0  0  0  0  0  0  0  0  0  0  0
   28.0396  -19.9468   -8.4237 C   0  0  0  0  0  0  0  0  0  0  0  0
   27.0838  -20.7874   -9.1975 C   0  0  0  0  0  0  0  0  0  0  0  0
   26.9647  -20.3594  -10.6440 C   0  0  2  0  0  0  0  0  0  0  0  0
   25.9876  -21.2696  -11.2734 N   0  0  0  0  0  0  0  0  0  0  0  0
   28.2764  -20.5132  -11.2947 C   0  0  0  0  0  0  0  0  0  0  0  0
   28.5922  -21.6315  -11.7745 O   0  0  0  0  0  0  0  0  0  0  0  0
   29.2238  -19.5103  -11.4339 O   0  0  0  0  0  0  0  0  0  0  0  0
  2  3  1  0
  2  1  1  6
  4  5  1  0
  4  3  1  0
  6  5  1  0
  7  6  1  0
  8  9  2  0
  8  2  1  0
 10 11  1  0
 11 12  2  0
 13 14  1  0
 13 11  1  0
 15 14  1  6
 15 16  1  0
 16  8  1  0
 17 24  1  0
 17 15  1  0
 18 17  2  0
 19 20  1  0
 20 21  1  0
 21 22  1  0
 23 22  1  1
 23 24  1  0
 23 25  1  0
 25 27  1  0
 26 25  2  0
M  END
$$$$
