KQM.pdb
     RDKit          3D

 27 26  0  0  1  0  0  0  0  0999 V2000
   26.4048  -18.0748  -16.4818 N   0  0  0  0  0  0  0  0  0  0  0  0
   25.2801  -18.7255  -17.0293 C   0  0  1  0  0  0  0  0  0  0  0  0
   25.4257  -19.3748  -18.3642 C   0  0  0  0  0  0  0  0  0  0  0  0
   26.2299  -18.6798  -19.3829 C   0  0  0  0  0  0  0  0  0  0  0  0
   25.8833  -17.2937  -19.7548 C   0  0  0  0  0  0  0  0  0  0  0  0
   26.6876  -16.6753  -20.8464 C   0  0  0  0  0  0  0  0  0  0  0  0
   26.2473  -15.3357  -21.1038 N   0  0  0  0  0  0  0  0  0  0  0  0
   24.5635  -19.6261  -16.0566 C   0  0  0  0  0  0  0  0  0  0  0  0
   23.7331  -20.4438  -16.5477 O   0  0  0  0  0  0  0  0  0  0  0  0
   25.6974  -20.2335   -9.8796 N   0  0  0  0  0  0  0  0  0  0  0  0
   24.5417  -21.0354  -10.0053 C   0  0  0  0  0  0  0  0  0  0  0  0
   24.0259  -21.6438   -9.0342 O   0  0  0  0  0  0  0  0  0  0  0  0
   23.8739  -21.1898  -11.3441 C   0  0  0  0  0  0  0  0  0  0  0  0
   24.5702  -20.3876  -12.3905 C   0  0  0  0  0  0  0  0  0  0  0  0
   23.9653  -20.4931  -13.7701 C   0  0  2  0  0  0  0  0  0  0  0  0
   24.7469  -19.6218  -14.6762 N   0  0  0  0  0  0  0  0  0  0  0  0
   22.5624  -20.0450  -13.7417 C   0  0  0  0  0  0  0  0  0  0  0  0
   22.3018  -18.8873  -13.2650 O   0  0  0  0  0  0  0  0  0  0  0  0
   17.3289  -23.2838  -16.1492 C   0  0  0  0  0  0  0  0  0  0  0  0
   16.7438  -21.5681  -16.0756 S   0  0  0  0  0  0  0  0  0  0  0  0
   17.7564  -20.5958  -14.9037 C   0  0  0  0  0  0  0  0  0  0  0  0
   19.1848  -21.0122  -14.9762 C   0  0  0  0  0  0  0  0  0  0  0  0
   20.0707  -20.2363  -14.0262 C   0  0  2  0  0  0  0  0  0  0  0  0
   21.4385  -20.7639  -14.1999 N   0  0  0  0  0  0  0  0  0  0  0  0
   19.6168  -20.4798  -12.6470 C   0  0  0  0  0  0  0  0  0  0  0  0
   18.8217  -19.6651  -12.1133 O   0  0  0  0  0  0  0  0  0  0  0  0
   19.9934  -21.5563  -11.8582 O   0  0  0  0  0  0  0  0  0  0  0  0
  2  3  1  0
  2  1  1  1
  4  5  1  0
  4  3  1  0
  6  5  1  0
  7  6  1  0
  8  9  2  0
  8  2  1  0
 10 11  1  0
 11 12  2  0
 13 14  1  0
 13 11  1  0
 15 14  1  1
 15 16  1  0
 16  8  1  0
 17 24  1  0
 17 15  1  0
 18 17  2  0
 19 20  1  0
 20 21  1  0
 21 22  1  0
 23 22  1  6
 23 24  1  0
 23 25  1  0
 25 27  1  0
 26 25  2  0
M  END
$$$$
