KQM.pdb
     RDKit          3D

 27 26  0  0  1  0  0  0  0  0999 V2000
   19.0135  -20.8258  -12.4034 N   0  0  0  0  0  0  0  0  0  0  0  0
   19.8834  -20.7520  -13.5107 C   0  0  1  0  0  0  0  0  0  0  0  0
   19.3305  -20.2612  -14.8061 C   0  0  0  0  0  0  0  0  0  0  0  0
   18.4203  -21.1506  -15.5464 C   0  0  0  0  0  0  0  0  0  0  0  0
   18.9743  -22.3157  -16.2642 C   0  0  0  0  0  0  0  0  0  0  0  0
   18.0192  -23.1035  -17.0938 C   0  0  0  0  0  0  0  0  0  0  0  0
   18.6482  -24.2851  -17.6064 N   0  0  0  0  0  0  0  0  0  0  0  0
   21.2103  -20.1082  -13.2016 C   0  0  0  0  0  0  0  0  0  0  0  0
   21.1779  -18.9127  -12.7904 O   0  0  0  0  0  0  0  0  0  0  0  0
   26.4975  -23.0312  -11.7354 N   0  0  0  0  0  0  0  0  0  0  0  0
   27.0081  -21.7267  -11.9136 C   0  0  0  0  0  0  0  0  0  0  0  0
   28.2176  -21.4380  -11.7318 O   0  0  0  0  0  0  0  0  0  0  0  0
   26.0932  -20.6112  -12.3389 C   0  0  0  0  0  0  0  0  0  0  0  0
   24.6953  -21.0981  -12.5182 C   0  0  0  0  0  0  0  0  0  0  0  0
   23.7175  -20.0453  -12.9827 C   0  0  2  0  0  0  0  0  0  0  0  0
   22.4511  -20.7261  -13.3350 N   0  0  0  0  0  0  0  0  0  0  0  0
   24.2501  -19.3487  -14.1662 C   0  0  0  0  0  0  0  0  0  0  0  0
   24.0962  -19.8916  -15.3137 O   0  0  0  0  0  0  0  0  0  0  0  0
   27.3720  -12.7552  -17.3351 C   0  0  0  0  0  0  0  0  0  0  0  0
   26.8426  -13.6737  -15.8628 S   0  0  0  0  0  0  0  0  0  0  0  0
   26.4230  -15.3989  -16.3007 C   0  0  0  0  0  0  0  0  0  0  0  0
   25.9017  -16.1284  -15.1111 C   0  0  0  0  0  0  0  0  0  0  0  0
   25.4061  -17.5182  -15.4464 C   0  0  2  0  0  0  0  0  0  0  0  0
   24.9250  -18.1101  -14.1824 N   0  0  0  0  0  0  0  0  0  0  0  0
   26.5315  -18.3110  -15.9684 C   0  0  0  0  0  0  0  0  0  0  0  0
   27.3334  -18.8401  -15.1575 O   0  0  0  0  0  0  0  0  0  0  0  0
   26.7971  -18.5374  -17.3105 O   0  0  0  0  0  0  0  0  0  0  0  0
  2  3  1  0
  2  1  1  1
  4  5  1  0
  4  3  1  0
  6  5  1  0
  7  6  1  0
  8  9  2  0
  8  2  1  0
 10 11  1  0
 11 12  2  0
 13 14  1  0
 13 11  1  0
 15 14  1  6
 15 16  1  0
 16  8  1  0
 17 24  1  0
 17 15  1  0
 18 17  2  0
 19 20  1  0
 20 21  1  0
 21 22  1  0
 23 22  1  1
 23 24  1  0
 23 25  1  0
 25 27  1  0
 26 25  2  0
M  END
$$$$
