KQM.pdb
     RDKit          3D

 27 26  0  0  1  0  0  0  0  0999 V2000
   18.1331  -13.0321  -18.0959 N   0  0  0  0  0  0  0  0  0  0  0  0
   17.7589  -11.7690  -18.5985 C   0  0  1  0  0  0  0  0  0  0  0  0
   16.4413  -11.6498  -19.2873 C   0  0  0  0  0  0  0  0  0  0  0  0
   16.2437  -12.4135  -20.5304 C   0  0  0  0  0  0  0  0  0  0  0  0
   14.9794  -12.2624  -21.2777 C   0  0  0  0  0  0  0  0  0  0  0  0
   13.8284  -13.0880  -20.8144 C   0  0  0  0  0  0  0  0  0  0  0  0
   14.0639  -14.4776  -21.0755 N   0  0  0  0  0  0  0  0  0  0  0  0
   17.9736  -10.6381  -17.6260 C   0  0  0  0  0  0  0  0  0  0  0  0
   17.1325  -10.5300  -16.6879 O   0  0  0  0  0  0  0  0  0  0  0  0
   22.4653   -9.7026  -14.1725 N   0  0  0  0  0  0  0  0  0  0  0  0
   21.8069   -8.4896  -13.8733 C   0  0  0  0  0  0  0  0  0  0  0  0
   22.1401   -7.7530  -12.9112 O   0  0  0  0  0  0  0  0  0  0  0  0
   20.6535   -8.0294  -14.7219 C   0  0  0  0  0  0  0  0  0  0  0  0
   20.2923   -9.0537  -15.7435 C   0  0  0  0  0  0  0  0  0  0  0  0
   19.1830   -8.6422  -16.6817 C   0  0  2  0  0  0  0  0  0  0  0  0
   19.0161   -9.7167  -17.6861 N   0  0  0  0  0  0  0  0  0  0  0  0
   19.5360   -7.3828  -17.3592 C   0  0  0  0  0  0  0  0  0  0  0  0
   20.4066   -7.4174  -18.2953 O   0  0  0  0  0  0  0  0  0  0  0  0
   14.8659   -2.5258  -19.5636 C   0  0  0  0  0  0  0  0  0  0  0  0
   16.1143   -2.5755  -18.2482 S   0  0  0  0  0  0  0  0  0  0  0  0
   17.3408   -3.8911  -18.5787 C   0  0  0  0  0  0  0  0  0  0  0  0
   18.4565   -3.8254  -17.5938 C   0  0  0  0  0  0  0  0  0  0  0  0
   19.4915   -4.9083  -17.8072 C   0  0  2  0  0  0  0  0  0  0  0  0
   19.0037   -6.1041  -17.0920 N   0  0  0  0  0  0  0  0  0  0  0  0
   20.7685   -4.4671  -17.2222 C   0  0  0  0  0  0  0  0  0  0  0  0
   21.1013   -4.8969  -16.0885 O   0  0  0  0  0  0  0  0  0  0  0  0
   21.6665   -3.5977  -17.8226 O   0  0  0  0  0  0  0  0  0  0  0  0
  2  3  1  0
  2  1  1  1
  4  5  1  0
  4  3  1  0
  6  5  1  0
  7  6  1  0
  8  9  2  0
  8  2  1  0
 10 11  1  0
 11 12  2  0
 13 14  1  0
 13 11  1  0
 15 14  1  1
 15 16  1  0
 16  8  1  0
 17 24  1  0
 17 15  1  0
 18 17  2  0
 19 20  1  0
 20 21  1  0
 21 22  1  0
 23 22  1  1
 23 24  1  0
 23 25  1  0
 25 27  1  0
 26 25  2  0
M  END
$$$$
