KQM.pdb
     RDKit          3D

 27 26  0  0  1  0  0  0  0  0999 V2000
   21.0839  -25.7182  -17.3754 N   0  0  0  0  0  0  0  0  0  0  0  0
   21.2149  -24.9397  -16.2072 C   0  0  1  0  0  0  0  0  0  0  0  0
   21.9165  -23.6277  -16.3132 C   0  0  0  0  0  0  0  0  0  0  0  0
   23.3068  -23.6285  -16.7975 C   0  0  0  0  0  0  0  0  0  0  0  0
   24.2587  -24.6201  -16.2589 C   0  0  0  0  0  0  0  0  0  0  0  0
   25.6581  -24.5449  -16.7660 C   0  0  0  0  0  0  0  0  0  0  0  0
   26.5067  -25.4498  -16.0481 N   0  0  0  0  0  0  0  0  0  0  0  0
   19.9421  -24.8181  -15.4098 C   0  0  0  0  0  0  0  0  0  0  0  0
   18.8808  -24.6085  -16.0649 O   0  0  0  0  0  0  0  0  0  0  0  0
   19.0911  -26.1175   -9.3022 N   0  0  0  0  0  0  0  0  0  0  0  0
   17.8834  -25.4424   -9.5851 C   0  0  0  0  0  0  0  0  0  0  0  0
   16.9980  -25.2379   -8.7171 O   0  0  0  0  0  0  0  0  0  0  0  0
   17.6127  -24.9330  -10.9741 C   0  0  0  0  0  0  0  0  0  0  0  0
   18.7803  -25.1659  -11.8717 C   0  0  0  0  0  0  0  0  0  0  0  0
   18.5835  -24.6975  -13.2937 C   0  0  2  0  0  0  0  0  0  0  0  0
   19.8523  -24.9180  -14.0237 N   0  0  0  0  0  0  0  0  0  0  0  0
   18.2459  -23.2639  -13.3109 C   0  0  0  0  0  0  0  0  0  0  0  0
   19.1433  -22.4221  -12.9626 O   0  0  0  0  0  0  0  0  0  0  0  0
   15.3352  -20.5493  -17.9357 C   0  0  0  0  0  0  0  0  0  0  0  0
   15.0256  -19.1598  -16.8110 S   0  0  0  0  0  0  0  0  0  0  0  0
   15.7735  -19.4821  -15.1736 C   0  0  0  0  0  0  0  0  0  0  0  0
   16.1615  -20.9149  -15.0488 C   0  0  0  0  0  0  0  0  0  0  0  0
   16.8276  -21.2289  -13.7270 C   0  0  2  0  0  0  0  0  0  0  0  0
   17.0115  -22.6931  -13.6853 N   0  0  0  0  0  0  0  0  0  0  0  0
   15.9351  -20.8100  -12.6336 C   0  0  0  0  0  0  0  0  0  0  0  0
   15.1034  -21.6338  -12.1750 O   0  0  0  0  0  0  0  0  0  0  0  0
   15.9263  -19.5554  -12.0431 O   0  0  0  0  0  0  0  0  0  0  0  0
  2  3  1  0
  2  1  1  6
  4  5  1  0
  4  3  1  0
  6  5  1  0
  7  6  1  0
  8  9  2  0
  8  2  1  0
 10 11  1  0
 11 12  2  0
 13 14  1  0
 13 11  1  0
 15 14  1  1
 15 16  1  0
 16  8  1  0
 17 24  1  0
 17 15  1  0
 18 17  2  0
 19 20  1  0
 20 21  1  0
 21 22  1  0
 23 22  1  6
 23 24  1  0
 23 25  1  0
 25 27  1  0
 26 25  2  0
M  END
$$$$
