KQM.pdb
     RDKit          3D

 27 26  0  0  1  0  0  0  0  0999 V2000
   27.8809  -22.1002  -17.7310 N   0  0  0  0  0  0  0  0  0  0  0  0
   27.1113  -23.0068  -16.9736 C   0  0  1  0  0  0  0  0  0  0  0  0
   27.7546  -24.2796  -16.5368 C   0  0  0  0  0  0  0  0  0  0  0  0
   28.6264  -24.9748  -17.4983 C   0  0  0  0  0  0  0  0  0  0  0  0
   29.2408  -26.2618  -17.1166 C   0  0  0  0  0  0  0  0  0  0  0  0
   28.3115  -27.3375  -16.6691 C   0  0  0  0  0  0  0  0  0  0  0  0
   29.0254  -28.5576  -16.4317 N   0  0  0  0  0  0  0  0  0  0  0  0
   26.3468  -22.3634  -15.8456 C   0  0  0  0  0  0  0  0  0  0  0  0
   26.9125  -22.3469  -14.7146 O   0  0  0  0  0  0  0  0  0  0  0  0
   25.0997  -16.9486  -14.9964 N   0  0  0  0  0  0  0  0  0  0  0  0
   24.1282  -17.4676  -15.8802 C   0  0  0  0  0  0  0  0  0  0  0  0
   23.4605  -16.7430  -16.6601 O   0  0  0  0  0  0  0  0  0  0  0  0
   23.8554  -18.9463  -15.9157 C   0  0  0  0  0  0  0  0  0  0  0  0
   24.6595  -19.6685  -14.8884 C   0  0  0  0  0  0  0  0  0  0  0  0
   24.3956  -21.1533  -14.8129 C   0  0  2  0  0  0  0  0  0  0  0  0
   25.0805  -21.7948  -15.9577 N   0  0  0  0  0  0  0  0  0  0  0  0
   22.9481  -21.4135  -14.8938 C   0  0  0  0  0  0  0  0  0  0  0  0
   22.4197  -21.5654  -16.0484 O   0  0  0  0  0  0  0  0  0  0  0  0
   19.2923  -25.6449  -12.2363 C   0  0  0  0  0  0  0  0  0  0  0  0
   20.4282  -25.8123  -13.6410 S   0  0  0  0  0  0  0  0  0  0  0  0
   20.7638  -24.1788  -14.3915 C   0  0  0  0  0  0  0  0  0  0  0  0
   20.2560  -23.0863  -13.5153 C   0  0  0  0  0  0  0  0  0  0  0  0
   20.6023  -21.7084  -14.0357 C   0  0  2  0  0  0  0  0  0  0  0  0
   22.0500  -21.5252  -13.8118 N   0  0  0  0  0  0  0  0  0  0  0  0
   19.8503  -20.7057  -13.2633 C   0  0  0  0  0  0  0  0  0  0  0  0
   20.4768  -19.9282  -12.4994 O   0  0  0  0  0  0  0  0  0  0  0  0
   18.4751  -20.5317  -13.3016 O   0  0  0  0  0  0  0  0  0  0  0  0
  2  3  1  0
  2  1  1  1
  4  5  1  0
  4  3  1  0
  6  5  1  0
  7  6  1  0
  8  9  2  0
  8  2  1  0
 10 11  1  0
 11 12  2  0
 13 14  1  0
 13 11  1  0
 15 14  1  6
 15 16  1  0
 16  8  1  0
 17 24  1  0
 17 15  1  0
 18 17  2  0
 19 20  1  0
 20 21  1  0
 21 22  1  0
 23 22  1  1
 23 24  1  0
 23 25  1  0
 25 27  1  0
 26 25  2  0
M  END
$$$$
