KQM.pdb
     RDKit          3D

 27 26  0  0  1  0  0  0  0  0999 V2000
   32.1733  -24.8949  -15.1415 N   0  0  0  0  0  0  0  0  0  0  0  0
   32.3846  -25.7363  -16.2530 C   0  0  1  0  0  0  0  0  0  0  0  0
   33.7878  -26.1102  -16.5935 C   0  0  0  0  0  0  0  0  0  0  0  0
   34.7918  -25.0348  -16.6489 C   0  0  0  0  0  0  0  0  0  0  0  0
   35.7917  -25.0354  -17.7352 C   0  0  0  0  0  0  0  0  0  0  0  0
   36.7156  -23.8674  -17.7915 C   0  0  0  0  0  0  0  0  0  0  0  0
   37.6005  -23.9749  -18.9140 N   0  0  0  0  0  0  0  0  0  0  0  0
   31.4728  -26.9353  -16.2919 C   0  0  0  0  0  0  0  0  0  0  0  0
   30.9619  -27.2946  -15.1922 O   0  0  0  0  0  0  0  0  0  0  0  0
   26.2871  -26.6883  -15.8412 N   0  0  0  0  0  0  0  0  0  0  0  0
   26.6296  -27.8039  -16.6365 C   0  0  0  0  0  0  0  0  0  0  0  0
   26.3144  -28.9812  -16.3303 O   0  0  0  0  0  0  0  0  0  0  0  0
   27.4043  -27.6110  -17.9112 C   0  0  0  0  0  0  0  0  0  0  0  0
   28.8006  -27.1683  -17.6326 C   0  0  0  0  0  0  0  0  0  0  0  0
   29.8257  -28.2771  -17.6427 C   0  0  2  0  0  0  0  0  0  0  0  0
   31.1577  -27.6656  -17.4350 N   0  0  0  0  0  0  0  0  0  0  0  0
   29.7996  -28.9769  -18.9385 C   0  0  0  0  0  0  0  0  0  0  0  0
   29.9841  -28.2941  -20.0039 O   0  0  0  0  0  0  0  0  0  0  0  0
   30.7215  -35.7903  -22.8646 C   0  0  0  0  0  0  0  0  0  0  0  0
   30.3644  -34.9351  -21.3050 S   0  0  0  0  0  0  0  0  0  0  0  0
   30.0803  -33.1532  -21.6022 C   0  0  0  0  0  0  0  0  0  0  0  0
   29.9417  -32.4231  -20.3111 C   0  0  0  0  0  0  0  0  0  0  0  0
   29.6743  -30.9457  -20.4987 C   0  0  2  0  0  0  0  0  0  0  0  0
   29.5953  -30.3570  -19.1472 N   0  0  0  0  0  0  0  0  0  0  0  0
   28.3839  -30.7800  -21.1879 C   0  0  0  0  0  0  0  0  0  0  0  0
   28.3782  -30.4856  -22.4102 O   0  0  0  0  0  0  0  0  0  0  0  0
   27.1370  -30.9242  -20.5987 O   0  0  0  0  0  0  0  0  0  0  0  0
  2  3  1  0
  2  1  1  1
  4  5  1  0
  4  3  1  0
  6  5  1  0
  7  6  1  0
  8  9  2  0
  8  2  1  0
 10 11  1  0
 11 12  2  0
 13 14  1  0
 13 11  1  0
 15 14  1  6
 15 16  1  0
 16  8  1  0
 17 24  1  0
 17 15  1  0
 18 17  2  0
 19 20  1  0
 20 21  1  0
 21 22  1  0
 23 22  1  1
 23 24  1  0
 23 25  1  0
 25 27  1  0
 26 25  2  0
M  END
$$$$
