KQM.pdb
     RDKit          3D

 27 26  0  0  1  0  0  0  0  0999 V2000
   27.1544  -22.5297  -14.1803 N   0  0  0  0  0  0  0  0  0  0  0  0
   26.9726  -22.1125  -15.5148 C   0  0  1  0  0  0  0  0  0  0  0  0
   27.2402  -23.0988  -16.6012 C   0  0  0  0  0  0  0  0  0  0  0  0
   28.3929  -24.0009  -16.4425 C   0  0  0  0  0  0  0  0  0  0  0  0
   28.1574  -25.4362  -16.1898 C   0  0  0  0  0  0  0  0  0  0  0  0
   28.0980  -26.3228  -17.3862 C   0  0  0  0  0  0  0  0  0  0  0  0
   27.9165  -27.6899  -16.9955 N   0  0  0  0  0  0  0  0  0  0  0  0
   25.6814  -21.3726  -15.7516 C   0  0  0  0  0  0  0  0  0  0  0  0
   25.3071  -21.2567  -16.9540 O   0  0  0  0  0  0  0  0  0  0  0  0
   23.0600  -21.1564  -11.3016 N   0  0  0  0  0  0  0  0  0  0  0  0
   22.0688  -21.6665  -12.1686 C   0  0  0  0  0  0  0  0  0  0  0  0
   21.3225  -22.6288  -11.8586 O   0  0  0  0  0  0  0  0  0  0  0  0
   21.8706  -21.0554  -13.5286 C   0  0  0  0  0  0  0  0  0  0  0  0
   22.8481  -19.9567  -13.7745 C   0  0  0  0  0  0  0  0  0  0  0  0
   23.6307  -20.0869  -15.0593 C   0  0  2  0  0  0  0  0  0  0  0  0
   24.8833  -20.8150  -14.7559 N   0  0  0  0  0  0  0  0  0  0  0  0
   23.9516  -18.7519  -15.5925 C   0  0  0  0  0  0  0  0  0  0  0  0
   24.9568  -18.1274  -15.1078 O   0  0  0  0  0  0  0  0  0  0  0  0
   28.6431  -17.0893  -17.8047 C   0  0  0  0  0  0  0  0  0  0  0  0
   27.5099  -16.8589  -19.2026 S   0  0  0  0  0  0  0  0  0  0  0  0
   25.8800  -16.2729  -18.6160 C   0  0  0  0  0  0  0  0  0  0  0  0
   25.1886  -17.3404  -17.8403 C   0  0  0  0  0  0  0  0  0  0  0  0
   23.8575  -16.8891  -17.2798 C   0  0  2  0  0  0  0  0  0  0  0  0
   23.2618  -18.0634  -16.6123 N   0  0  0  0  0  0  0  0  0  0  0  0
   22.9941  -16.4603  -18.3925 C   0  0  0  0  0  0  0  0  0  0  0  0
   21.9757  -17.1422  -18.6727 O   0  0  0  0  0  0  0  0  0  0  0  0
   23.2035  -15.3404  -19.1831 O   0  0  0  0  0  0  0  0  0  0  0  0
  2  3  1  0
  2  1  1  1
  4  5  1  0
  4  3  1  0
  6  5  1  0
  7  6  1  0
  8  9  2  0
  8  2  1  0
 10 11  1  0
 11 12  2  0
 13 14  1  0
 13 11  1  0
 15 14  1  1
 15 16  1  0
 16  8  1  0
 17 24  1  0
 17 15  1  0
 18 17  2  0
 19 20  1  0
 20 21  1  0
 21 22  1  0
 23 22  1  6
 23 24  1  0
 23 25  1  0
 25 27  1  0
 26 25  2  0
M  END
$$$$
