KQM.pdb
     RDKit          3D

 27 26  0  0  1  0  0  0  0  0999 V2000
   26.8123  -23.6022  -18.2026 N   0  0  0  0  0  0  0  0  0  0  0  0
   27.4474  -23.7615  -16.9539 C   0  0  1  0  0  0  0  0  0  0  0  0
   28.8954  -24.1191  -16.9433 C   0  0  0  0  0  0  0  0  0  0  0  0
   29.2695  -25.4840  -17.3491 C   0  0  0  0  0  0  0  0  0  0  0  0
   28.5717  -26.6348  -16.7422 C   0  0  0  0  0  0  0  0  0  0  0  0
   28.9965  -27.9884  -17.1986 C   0  0  0  0  0  0  0  0  0  0  0  0
   28.2818  -29.0094  -16.4906 N   0  0  0  0  0  0  0  0  0  0  0  0
   27.1479  -22.6578  -15.9726 C   0  0  0  0  0  0  0  0  0  0  0  0
   27.6459  -22.7771  -14.8162 O   0  0  0  0  0  0  0  0  0  0  0  0
   26.9644  -17.2526  -14.6360 N   0  0  0  0  0  0  0  0  0  0  0  0
   27.3745  -17.5823  -15.9465 C   0  0  0  0  0  0  0  0  0  0  0  0
   28.3570  -17.0379  -16.5100 O   0  0  0  0  0  0  0  0  0  0  0  0
   26.6260  -18.6254  -16.7301 C   0  0  0  0  0  0  0  0  0  0  0  0
   25.5765  -19.2777  -15.8956 C   0  0  0  0  0  0  0  0  0  0  0  0
   26.0214  -20.5426  -15.2012 C   0  0  2  0  0  0  0  0  0  0  0  0
   26.3729  -21.5330  -16.2437 N   0  0  0  0  0  0  0  0  0  0  0  0
   24.9293  -21.0707  -14.3658 C   0  0  0  0  0  0  0  0  0  0  0  0
   24.9646  -22.3023  -14.0233 O   0  0  0  0  0  0  0  0  0  0  0  0
   26.4544  -20.3173   -9.6223 C   0  0  0  0  0  0  0  0  0  0  0  0
   24.8908  -20.8902   -8.9023 S   0  0  0  0  0  0  0  0  0  0  0  0
   23.5984  -21.0101  -10.1906 C   0  0  0  0  0  0  0  0  0  0  0  0
   24.1494  -20.6298  -11.5212 C   0  0  0  0  0  0  0  0  0  0  0  0
   23.1323  -20.7549  -12.6345 C   0  0  2  0  0  0  0  0  0  0  0  0
   23.8177  -20.3518  -13.8784 N   0  0  0  0  0  0  0  0  0  0  0  0
   22.0154  -19.8349  -12.3634 C   0  0  0  0  0  0  0  0  0  0  0  0
   21.2627  -20.0612  -11.3821 O   0  0  0  0  0  0  0  0  0  0  0  0
   21.7071  -18.7075  -13.1096 O   0  0  0  0  0  0  0  0  0  0  0  0
  2  3  1  0
  2  1  1  6
  4  5  1  0
  4  3  1  0
  6  5  1  0
  7  6  1  0
  8  9  2  0
  8  2  1  0
 10 11  1  0
 11 12  2  0
 13 14  1  0
 13 11  1  0
 15 14  1  6
 15 16  1  0
 16  8  1  0
 17 24  1  0
 17 15  1  0
 18 17  2  0
 19 20  1  0
 20 21  1  0
 21 22  1  0
 23 22  1  1
 23 24  1  0
 23 25  1  0
 25 27  1  0
 26 25  2  0
M  END
$$$$
