YAV.pdb
     RDKit          3D

 25 25  0  0  1  0  0  0  0  0999 V2000
   12.2595  -19.3189   30.8601 O   0  0  0  0  0  0  0  0  0  0  0  0
   12.1833  -18.5718   29.6805 C   0  0  0  0  0  0  0  0  0  0  0  0
   11.3189  -18.8925   28.6634 C   0  0  0  0  0  0  0  0  0  0  0  0
   11.2765  -18.1175   27.5019 C   0  0  0  0  0  0  0  0  0  0  0  0
   12.0880  -17.0174   27.3332 C   0  0  0  0  0  0  0  0  0  0  0  0
   12.0709  -16.1831   26.1190 C   0  0  0  0  0  0  0  0  0  0  0  0
   11.8441  -16.9541   24.8394 C   0  0  2  0  0  0  0  0  0  0  0  0
   13.1528  -17.0760   24.2125 N   0  0  0  0  0  0  0  0  0  0  0  0
   10.8974  -16.2089   23.9935 C   0  0  0  0  0  0  0  0  0  0  0  0
   11.1929  -15.0582   23.5818 O   0  0  0  0  0  0  0  0  0  0  0  0
   12.9541  -16.7192   28.3851 C   0  0  0  0  0  0  0  0  0  0  0  0
   13.0000  -17.4808   29.5337 C   0  0  0  0  0  0  0  0  0  0  0  0
    7.4395  -16.5408   22.4960 C   0  0  0  0  0  0  0  0  0  0  0  0
    8.5775  -15.8304   23.1955 C   0  0  2  0  0  0  0  0  0  0  0  0
    9.6266  -16.7116   23.5923 N   0  0  0  0  0  0  0  0  0  0  0  0
    7.9960  -15.0568   24.3141 C   0  0  0  0  0  0  0  0  0  0  0  0
    8.1032  -15.5571   25.4684 O   0  0  0  0  0  0  0  0  0  0  0  0
    5.4347  -11.1904   26.1354 C   0  0  0  0  0  0  0  0  0  0  0  0
    6.1273  -11.8288   24.9392 C   0  0  1  0  0  0  0  0  0  0  0  0
    7.2222  -10.9229   24.4544 C   0  0  0  0  0  0  0  0  0  0  0  0
    6.6428  -13.2131   25.2845 C   0  0  2  0  0  0  0  0  0  0  0  0
    7.3402  -13.8136   24.1663 N   0  0  0  0  0  0  0  0  0  0  0  0
    5.4540  -14.0338   25.6312 C   0  0  0  0  0  0  0  0  0  0  0  0
    4.9456  -14.0825   26.9256 O   0  0  0  0  0  0  0  0  0  0  0  0
    4.9099  -14.6944   24.7087 O   0  0  0  0  0  0  0  0  0  0  0  0
  2  1  1  0
  3  2  2  0
  4  5  2  0
  4  3  1  0
  5 11  1  0
  6  5  1  0
  7  9  1  0
  7  6  1  0
  7  8  1  6
  9 10  2  0
 11 12  2  0
 12  2  1  0
 14 13  1  1
 15 14  1  0
 15  9  1  0
 16 22  1  0
 16 14  1  0
 17 16  2  0
 19 18  1  1
 19 20  1  0
 21 19  1  0
 21 22  1  6
 23 21  1  0
 23 24  1  0
 25 23  2  0
M  END
$$$$
