YAV.pdb
     RDKit          3D

 25 25  0  0  1  0  0  0  0  0999 V2000
    8.4616  -12.5738   16.6779 O   0  0  0  0  0  0  0  0  0  0  0  0
    8.0705  -13.0975   17.9140 C   0  0  0  0  0  0  0  0  0  0  0  0
    6.8616  -12.7951   18.4897 C   0  0  0  0  0  0  0  0  0  0  0  0
    6.5120  -13.3415   19.7270 C   0  0  0  0  0  0  0  0  0  0  0  0
    7.3537  -14.1925   20.4085 C   0  0  0  0  0  0  0  0  0  0  0  0
    7.0170  -14.7810   21.7165 C   0  0  0  0  0  0  0  0  0  0  0  0
    7.0412  -16.2916   21.7421 C   0  0  2  0  0  0  0  0  0  0  0  0
    5.8484  -16.7196   21.0247 N   0  0  0  0  0  0  0  0  0  0  0  0
    7.0327  -16.7464   23.1421 C   0  0  0  0  0  0  0  0  0  0  0  0
    6.0869  -16.4204   23.9037 O   0  0  0  0  0  0  0  0  0  0  0  0
    8.5738  -14.4792   19.7962 C   0  0  0  0  0  0  0  0  0  0  0  0
    8.9236  -13.9426   18.5750 C   0  0  0  0  0  0  0  0  0  0  0  0
    8.3038  -19.2501   25.4753 C   0  0  0  0  0  0  0  0  0  0  0  0
    8.0981  -17.7927   25.1251 C   0  0  2  0  0  0  0  0  0  0  0  0
    8.0519  -17.5570   23.7191 N   0  0  0  0  0  0  0  0  0  0  0  0
    9.1458  -17.0169   25.8238 C   0  0  0  0  0  0  0  0  0  0  0  0
   10.2299  -16.8361   25.2022 O   0  0  0  0  0  0  0  0  0  0  0  0
   10.5507  -13.5836   29.0261 C   0  0  0  0  0  0  0  0  0  0  0  0
    9.4550  -14.4305   28.3934 C   0  0  1  0  0  0  0  0  0  0  0  0
    8.6356  -13.5770   27.4689 C   0  0  0  0  0  0  0  0  0  0  0  0
   10.0410  -15.6378   27.6863 C   0  0  2  0  0  0  0  0  0  0  0  0
    9.0044  -16.4773   27.1223 N   0  0  0  0  0  0  0  0  0  0  0  0
   10.8006  -16.4011   28.7098 C   0  0  0  0  0  0  0  0  0  0  0  0
   12.0948  -16.0486   29.0803 O   0  0  0  0  0  0  0  0  0  0  0  0
   10.2340  -17.3908   29.2416 O   0  0  0  0  0  0  0  0  0  0  0  0
  2  1  1  0
  3  2  2  0
  4  5  2  0
  4  3  1  0
  5 11  1  0
  6  5  1  0
  7  9  1  0
  7  6  1  0
  7  8  1  6
  9 10  2  0
 11 12  2  0
 12  2  1  0
 14 13  1  6
 15 14  1  0
 15  9  1  0
 16 22  1  0
 16 14  1  0
 17 16  2  0
 19 18  1  6
 19 20  1  0
 21 19  1  0
 21 22  1  1
 23 21  1  0
 23 24  1  0
 25 23  2  0
M  END
$$$$
