YAV.pdb
     RDKit          3D

 25 25  0  0  1  0  0  0  0  0999 V2000
    7.7502  -12.7611   16.0770 O   0  0  0  0  0  0  0  0  0  0  0  0
    7.5930  -13.2049   17.3936 C   0  0  0  0  0  0  0  0  0  0  0  0
    6.6726  -14.1626   17.7402 C   0  0  0  0  0  0  0  0  0  0  0  0
    6.5499  -14.5762   19.0689 C   0  0  0  0  0  0  0  0  0  0  0  0
    7.3353  -14.0475   20.0692 C   0  0  0  0  0  0  0  0  0  0  0  0
    7.2269  -14.4584   21.4799 C   0  0  0  0  0  0  0  0  0  0  0  0
    8.4774  -15.0974   22.0380 C   0  0  2  0  0  0  0  0  0  0  0  0
    8.8300  -16.1592   21.1059 N   0  0  0  0  0  0  0  0  0  0  0  0
    8.1874  -15.6212   23.3828 C   0  0  0  0  0  0  0  0  0  0  0  0
    7.7830  -14.8458   24.2862 O   0  0  0  0  0  0  0  0  0  0  0  0
    8.2600  -13.0770   19.6835 C   0  0  0  0  0  0  0  0  0  0  0  0
    8.3853  -12.6653   18.3734 C   0  0  0  0  0  0  0  0  0  0  0  0
    8.1898  -18.9079   25.2708 C   0  0  0  0  0  0  0  0  0  0  0  0
    8.2185  -17.4038   25.1101 C   0  0  2  0  0  0  0  0  0  0  0  0
    8.3360  -16.9892   23.7503 N   0  0  0  0  0  0  0  0  0  0  0  0
    9.2928  -16.8851   25.9846 C   0  0  0  0  0  0  0  0  0  0  0  0
   10.3243  -16.4346   25.4127 O   0  0  0  0  0  0  0  0  0  0  0  0
   10.7264  -14.1093   29.5240 C   0  0  0  0  0  0  0  0  0  0  0  0
    9.7416  -14.7784   28.5750 C   0  0  1  0  0  0  0  0  0  0  0  0
    9.5071  -13.8874   27.3894 C   0  0  0  0  0  0  0  0  0  0  0  0
   10.2302  -16.1552   28.1664 C   0  0  2  0  0  0  0  0  0  0  0  0
    9.2306  -16.8659   27.3963 N   0  0  0  0  0  0  0  0  0  0  0  0
   10.5121  -16.8951   29.4234 C   0  0  0  0  0  0  0  0  0  0  0  0
   11.7699  -16.8825   30.0184 O   0  0  0  0  0  0  0  0  0  0  0  0
    9.5684  -17.5441   29.9446 O   0  0  0  0  0  0  0  0  0  0  0  0
  2  1  1  0
  3  2  2  0
  4  5  2  0
  4  3  1  0
  5 11  1  0
  6  5  1  0
  7  9  1  0
  7  6  1  0
  7  8  1  6
  9 10  2  0
 11 12  2  0
 12  2  1  0
 14 13  1  6
 15 14  1  0
 15  9  1  0
 16 22  1  0
 16 14  1  0
 17 16  2  0
 19 18  1  1
 19 20  1  0
 21 19  1  0
 21 22  1  1
 23 21  1  0
 23 24  1  0
 25 23  2  0
M  END
$$$$
