YAV.pdb
     RDKit          3D

 25 25  0  0  1  0  0  0  0  0999 V2000
    4.5710   -9.8605   25.7942 O   0  0  0  0  0  0  0  0  0  0  0  0
    5.2935  -11.0577   25.7867 C   0  0  0  0  0  0  0  0  0  0  0  0
    4.9052  -12.1536   26.5166 C   0  0  0  0  0  0  0  0  0  0  0  0
    5.6579  -13.3299   26.4792 C   0  0  0  0  0  0  0  0  0  0  0  0
    6.8024  -13.4355   25.7202 C   0  0  0  0  0  0  0  0  0  0  0  0
    7.6205  -14.6594   25.6634 C   0  0  0  0  0  0  0  0  0  0  0  0
    7.2495  -15.6024   24.5425 C   0  0  2  0  0  0  0  0  0  0  0  0
    5.9510  -16.1547   24.9024 N   0  0  0  0  0  0  0  0  0  0  0  0
    8.2804  -16.6479   24.4361 C   0  0  0  0  0  0  0  0  0  0  0  0
    8.2480  -17.6436   25.2031 O   0  0  0  0  0  0  0  0  0  0  0  0
    7.1689  -12.3044   24.9909 C   0  0  0  0  0  0  0  0  0  0  0  0
    6.4294  -11.1409   25.0242 C   0  0  0  0  0  0  0  0  0  0  0  0
   11.5597  -17.1942   22.6045 C   0  0  0  0  0  0  0  0  0  0  0  0
   10.5696  -17.3114   23.7425 C   0  0  2  0  0  0  0  0  0  0  0  0
    9.3497  -16.6146   23.4958 N   0  0  0  0  0  0  0  0  0  0  0  0
   11.2608  -16.8809   24.9773 C   0  0  0  0  0  0  0  0  0  0  0  0
   12.2798  -16.1494   24.8336 O   0  0  0  0  0  0  0  0  0  0  0  0
   11.3973  -15.1989   29.4266 C   0  0  0  0  0  0  0  0  0  0  0  0
   10.7975  -15.5646   28.0757 C   0  0  1  0  0  0  0  0  0  0  0  0
   10.7726  -14.3488   27.1950 C   0  0  0  0  0  0  0  0  0  0  0  0
   11.5535  -16.7152   27.4388 C   0  0  2  0  0  0  0  0  0  0  0  0
   10.8527  -17.2354   26.2832 N   0  0  0  0  0  0  0  0  0  0  0  0
   11.6646  -17.7744   28.4747 C   0  0  0  0  0  0  0  0  0  0  0  0
   12.6517  -17.7443   29.4550 O   0  0  0  0  0  0  0  0  0  0  0  0
   10.8291  -18.7147   28.4418 O   0  0  0  0  0  0  0  0  0  0  0  0
  2  1  1  0
  3  2  2  0
  4  5  2  0
  4  3  1  0
  5 11  1  0
  6  5  1  0
  7  9  1  0
  7  6  1  0
  7  8  1  1
  9 10  2  0
 11 12  2  0
 12  2  1  0
 14 13  1  6
 15 14  1  0
 15  9  1  0
 16 22  1  0
 16 14  1  0
 17 16  2  0
 19 18  1  1
 19 20  1  0
 21 19  1  0
 21 22  1  6
 23 21  1  0
 23 24  1  0
 25 23  2  0
M  END
$$$$
