YAV.pdb
     RDKit          3D

 25 25  0  0  1  0  0  0  0  0999 V2000
    5.9557  -19.9298   17.2457 O   0  0  0  0  0  0  0  0  0  0  0  0
    6.4802  -19.1430   18.2758 C   0  0  0  0  0  0  0  0  0  0  0  0
    6.5752  -17.7768   18.1799 C   0  0  0  0  0  0  0  0  0  0  0  0
    7.1062  -17.0300   19.2343 C   0  0  0  0  0  0  0  0  0  0  0  0
    7.5492  -17.6255   20.3947 C   0  0  0  0  0  0  0  0  0  0  0  0
    8.1186  -16.8670   21.5221 C   0  0  0  0  0  0  0  0  0  0  0  0
    8.0615  -15.3666   21.3525 C   0  0  2  0  0  0  0  0  0  0  0  0
    9.0862  -15.0391   20.3710 N   0  0  0  0  0  0  0  0  0  0  0  0
    8.3228  -14.7281   22.6530 C   0  0  0  0  0  0  0  0  0  0  0  0
    9.5050  -14.5024   23.0167 O   0  0  0  0  0  0  0  0  0  0  0  0
    7.4385  -19.0144   20.4598 C   0  0  0  0  0  0  0  0  0  0  0  0
    6.9150  -19.7563   19.4219 C   0  0  0  0  0  0  0  0  0  0  0  0
    6.4207  -13.2651   25.5873 C   0  0  0  0  0  0  0  0  0  0  0  0
    7.6210  -13.8254   24.8562 C   0  0  2  0  0  0  0  0  0  0  0  0
    7.3003  -14.3328   23.5623 N   0  0  0  0  0  0  0  0  0  0  0  0
    8.2555  -14.8228   25.7453 C   0  0  0  0  0  0  0  0  0  0  0  0
    7.9132  -16.0275   25.5851 O   0  0  0  0  0  0  0  0  0  0  0  0
   12.1639  -14.7268   26.9548 C   0  0  0  0  0  0  0  0  0  0  0  0
   11.1865  -15.0927   28.0634 C   0  0  1  0  0  0  0  0  0  0  0  0
   11.0172  -13.9206   28.9865 C   0  0  0  0  0  0  0  0  0  0  0  0
    9.8635  -15.5623   27.4887 C   0  0  2  0  0  0  0  0  0  0  0  0
    9.2047  -14.5092   26.7444 N   0  0  0  0  0  0  0  0  0  0  0  0
    9.0183  -15.9627   28.6430 C   0  0  0  0  0  0  0  0  0  0  0  0
    9.2646  -17.1250   29.3673 O   0  0  0  0  0  0  0  0  0  0  0  0
    8.0582  -15.2110   28.9537 O   0  0  0  0  0  0  0  0  0  0  0  0
  2  1  1  0
  3  2  2  0
  4  5  2  0
  4  3  1  0
  5 11  1  0
  6  5  1  0
  7  9  1  0
  7  6  1  0
  7  8  1  6
  9 10  2  0
 11 12  2  0
 12  2  1  0
 14 13  1  1
 15 14  1  0
 15  9  1  0
 16 22  1  0
 16 14  1  0
 17 16  2  0
 19 18  1  6
 19 20  1  0
 21 19  1  0
 21 22  1  1
 23 21  1  0
 23 24  1  0
 25 23  2  0
M  END
$$$$
