YAV.pdb
     RDKit          3D

 25 25  0  0  1  0  0  0  0  0999 V2000
   11.0821  -16.5291   30.2387 O   0  0  0  0  0  0  0  0  0  0  0  0
   10.1135  -16.9106   29.3051 C   0  0  0  0  0  0  0  0  0  0  0  0
    9.3221  -15.9972   28.6539 C   0  0  0  0  0  0  0  0  0  0  0  0
    8.3665  -16.4236   27.7283 C   0  0  0  0  0  0  0  0  0  0  0  0
    8.1828  -17.7571   27.4366 C   0  0  0  0  0  0  0  0  0  0  0  0
    7.1809  -18.2391   26.4700 C   0  0  0  0  0  0  0  0  0  0  0  0
    7.7657  -18.7608   25.1781 C   0  0  2  0  0  0  0  0  0  0  0  0
    8.9582  -19.5067   25.5553 N   0  0  0  0  0  0  0  0  0  0  0  0
    8.0851  -17.6209   24.3030 C   0  0  0  0  0  0  0  0  0  0  0  0
    9.2818  -17.2760   24.1308 O   0  0  0  0  0  0  0  0  0  0  0  0
    9.0028  -18.6586   28.1154 C   0  0  0  0  0  0  0  0  0  0  0  0
    9.9476  -18.2430   29.0299 C   0  0  0  0  0  0  0  0  0  0  0  0
    6.3569  -15.2957   21.8710 C   0  0  0  0  0  0  0  0  0  0  0  0
    7.4814  -15.7669   22.7667 C   0  0  2  0  0  0  0  0  0  0  0  0
    7.1050  -16.8523   23.6122 N   0  0  0  0  0  0  0  0  0  0  0  0
    7.9857  -14.5872   23.5028 C   0  0  0  0  0  0  0  0  0  0  0  0
    7.9552  -13.4811   22.8946 O   0  0  0  0  0  0  0  0  0  0  0  0
    6.8951  -11.9845   27.0206 C   0  0  0  0  0  0  0  0  0  0  0  0
    6.9677  -13.0959   25.9824 C   0  0  1  0  0  0  0  0  0  0  0  0
    6.2170  -12.6784   24.7509 C   0  0  0  0  0  0  0  0  0  0  0  0
    8.4079  -13.4610   25.6766 C   0  0  2  0  0  0  0  0  0  0  0  0
    8.4896  -14.6277   24.8226 N   0  0  0  0  0  0  0  0  0  0  0  0
    9.0581  -13.7497   26.9809 C   0  0  0  0  0  0  0  0  0  0  0  0
    9.4441  -12.7350   27.8513 O   0  0  0  0  0  0  0  0  0  0  0  0
    9.2537  -14.9555   27.2829 O   0  0  0  0  0  0  0  0  0  0  0  0
  2  1  1  0
  3  2  2  0
  4  5  2  0
  4  3  1  0
  5 11  1  0
  6  5  1  0
  7  9  1  0
  7  6  1  0
  7  8  1  1
  9 10  2  0
 11 12  2  0
 12  2  1  0
 14 13  1  1
 15 14  1  0
 15  9  1  0
 16 22  1  0
 16 14  1  0
 17 16  2  0
 19 18  1  1
 19 20  1  0
 21 19  1  0
 21 22  1  6
 23 21  1  0
 23 24  1  0
 25 23  2  0
M  END
$$$$
