YAV.pdb
     RDKit          3D

 25 25  0  0  1  0  0  0  0  0999 V2000
    8.1459  -12.0171   17.0205 O   0  0  0  0  0  0  0  0  0  0  0  0
    8.0680  -12.7312   18.2202 C   0  0  0  0  0  0  0  0  0  0  0  0
    6.8688  -13.0865   18.7861 C   0  0  0  0  0  0  0  0  0  0  0  0
    6.8383  -13.8004   19.9865 C   0  0  0  0  0  0  0  0  0  0  0  0
    7.9926  -14.1705   20.6405 C   0  0  0  0  0  0  0  0  0  0  0  0
    7.9941  -14.9188   21.9097 C   0  0  0  0  0  0  0  0  0  0  0  0
    8.4227  -16.3619   21.7787 C   0  0  2  0  0  0  0  0  0  0  0  0
    7.3581  -17.0263   21.0399 N   0  0  0  0  0  0  0  0  0  0  0  0
    8.5963  -16.9331   23.1244 C   0  0  0  0  0  0  0  0  0  0  0  0
    7.5965  -17.1131   23.8651 O   0  0  0  0  0  0  0  0  0  0  0  0
    9.1935  -13.7941   20.0390 C   0  0  0  0  0  0  0  0  0  0  0  0
    9.2292  -13.0895   18.8542 C   0  0  0  0  0  0  0  0  0  0  0  0
   10.6665  -19.1718   25.0459 C   0  0  0  0  0  0  0  0  0  0  0  0
    9.9608  -17.8346   24.9918 C   0  0  2  0  0  0  0  0  0  0  0  0
    9.8569  -17.3107   23.6692 N   0  0  0  0  0  0  0  0  0  0  0  0
   10.6516  -16.9304   25.9368 C   0  0  0  0  0  0  0  0  0  0  0  0
   11.7213  -16.3948   25.5332 O   0  0  0  0  0  0  0  0  0  0  0  0
   10.1675  -13.6503   26.9928 C   0  0  0  0  0  0  0  0  0  0  0  0
   10.2362  -14.4282   28.2998 C   0  0  1  0  0  0  0  0  0  0  0  0
    8.8502  -14.6029   28.8502 C   0  0  0  0  0  0  0  0  0  0  0  0
   10.9448  -15.7554   28.1060 C   0  0  2  0  0  0  0  0  0  0  0  0
   10.1905  -16.6380   27.2404 N   0  0  0  0  0  0  0  0  0  0  0  0
   11.0744  -16.3674   29.4535 C   0  0  0  0  0  0  0  0  0  0  0  0
   11.9967  -15.9038   30.3867 O   0  0  0  0  0  0  0  0  0  0  0  0
   10.3159  -17.3316   29.7336 O   0  0  0  0  0  0  0  0  0  0  0  0
  2  1  1  0
  3  2  2  0
  4  5  2  0
  4  3  1  0
  5 11  1  0
  6  5  1  0
  7  9  1  0
  7  6  1  0
  7  8  1  1
  9 10  2  0
 11 12  2  0
 12  2  1  0
 14 13  1  6
 15 14  1  0
 15  9  1  0
 16 22  1  0
 16 14  1  0
 17 16  2  0
 19 18  1  6
 19 20  1  0
 21 19  1  0
 21 22  1  6
 23 21  1  0
 23 24  1  0
 25 23  2  0
M  END
$$$$
