YAV.pdb
     RDKit          3D

 25 25  0  0  1  0  0  0  0  0999 V2000
   12.0467  -19.4757   31.3458 O   0  0  0  0  0  0  0  0  0  0  0  0
   11.4426  -19.0112   30.1734 C   0  0  0  0  0  0  0  0  0  0  0  0
   10.1942  -18.4402   30.1677 C   0  0  0  0  0  0  0  0  0  0  0  0
    9.6290  -17.9898   28.9722 C   0  0  0  0  0  0  0  0  0  0  0  0
   10.2914  -18.0992   27.7696 C   0  0  0  0  0  0  0  0  0  0  0  0
    9.7210  -17.6389   26.4916 C   0  0  0  0  0  0  0  0  0  0  0  0
    9.3588  -18.7526   25.5367 C   0  0  2  0  0  0  0  0  0  0  0  0
   10.5599  -19.5646   25.4006 N   0  0  0  0  0  0  0  0  0  0  0  0
    8.9446  -18.1652   24.2520 C   0  0  0  0  0  0  0  0  0  0  0  0
    9.8117  -17.8203   23.4094 O   0  0  0  0  0  0  0  0  0  0  0  0
   11.5572  -18.6837   27.8103 C   0  0  0  0  0  0  0  0  0  0  0  0
   12.1198  -19.1298   28.9876 C   0  0  0  0  0  0  0  0  0  0  0  0
    5.8114  -17.1417   22.3930 C   0  0  0  0  0  0  0  0  0  0  0  0
    7.2410  -17.0046   22.8690 C   0  0  2  0  0  0  0  0  0  0  0  0
    7.5869  -17.9508   23.8788 N   0  0  0  0  0  0  0  0  0  0  0  0
    7.4381  -15.5975   23.2802 C   0  0  0  0  0  0  0  0  0  0  0  0
    7.3119  -14.7192   22.3821 O   0  0  0  0  0  0  0  0  0  0  0  0
    7.3067  -11.9522   26.5202 C   0  0  0  0  0  0  0  0  0  0  0  0
    7.0703  -13.4053   26.1317 C   0  0  1  0  0  0  0  0  0  0  0  0
    5.6022  -13.6307   25.9119 C   0  0  0  0  0  0  0  0  0  0  0  0
    7.8942  -13.7838   24.9155 C   0  0  2  0  0  0  0  0  0  0  0  0
    7.7535  -15.1892   24.5960 N   0  0  0  0  0  0  0  0  0  0  0  0
    9.3101  -13.4873   25.2538 C   0  0  0  0  0  0  0  0  0  0  0  0
    9.7759  -12.1835   25.3932 O   0  0  0  0  0  0  0  0  0  0  0  0
   10.0898  -14.4619   25.4136 O   0  0  0  0  0  0  0  0  0  0  0  0
  2  1  1  0
  3  2  2  0
  4  5  2  0
  4  3  1  0
  5 11  1  0
  6  5  1  0
  7  9  1  0
  7  6  1  0
  7  8  1  6
  9 10  2  0
 11 12  2  0
 12  2  1  0
 14 13  1  1
 15 14  1  0
 15  9  1  0
 16 22  1  0
 16 14  1  0
 17 16  2  0
 19 18  1  6
 19 20  1  0
 21 19  1  0
 21 22  1  1
 23 21  1  0
 23 24  1  0
 25 23  2  0
M  END
$$$$
