YAV.pdb
     RDKit          3D

 25 25  0  0  1  0  0  0  0  0999 V2000
   11.7776  -16.5550   14.5367 O   0  0  0  0  0  0  0  0  0  0  0  0
   10.8899  -16.3999   15.6059 C   0  0  0  0  0  0  0  0  0  0  0  0
    9.6350  -15.8667   15.4463 C   0  0  0  0  0  0  0  0  0  0  0  0
    8.7808  -15.7302   16.5433 C   0  0  0  0  0  0  0  0  0  0  0  0
    9.1578  -16.1191   17.8097 C   0  0  0  0  0  0  0  0  0  0  0  0
    8.2829  -15.9839   18.9873 C   0  0  0  0  0  0  0  0  0  0  0  0
    7.9238  -17.2948   19.6474 C   0  0  2  0  0  0  0  0  0  0  0  0
    6.9520  -17.9289   18.7675 N   0  0  0  0  0  0  0  0  0  0  0  0
    7.3612  -17.0209   20.9799 C   0  0  0  0  0  0  0  0  0  0  0  0
    6.1764  -16.6150   21.0912 O   0  0  0  0  0  0  0  0  0  0  0  0
   10.4386  -16.6568   17.9372 C   0  0  0  0  0  0  0  0  0  0  0  0
   11.2856  -16.7938   16.8577 C   0  0  0  0  0  0  0  0  0  0  0  0
    7.4207  -18.0787   24.3818 C   0  0  0  0  0  0  0  0  0  0  0  0
    7.4872  -16.8846   23.4553 C   0  0  2  0  0  0  0  0  0  0  0  0
    8.0843  -17.1872   22.1957 N   0  0  0  0  0  0  0  0  0  0  0  0
    8.1653  -15.7928   24.1875 C   0  0  0  0  0  0  0  0  0  0  0  0
    9.4268  -15.7739   24.1408 O   0  0  0  0  0  0  0  0  0  0  0  0
    6.1391  -12.8152   26.5804 C   0  0  0  0  0  0  0  0  0  0  0  0
    7.3693  -12.4845   25.7463 C   0  0  1  0  0  0  0  0  0  0  0  0
    8.1247  -11.3606   26.3949 C   0  0  0  0  0  0  0  0  0  0  0  0
    8.2358  -13.7131   25.5447 C   0  0  2  0  0  0  0  0  0  0  0  0
    7.4935  -14.7895   24.9221 N   0  0  0  0  0  0  0  0  0  0  0  0
    8.6923  -14.1358   26.8938 C   0  0  0  0  0  0  0  0  0  0  0  0
    9.7969  -13.5574   27.5116 O   0  0  0  0  0  0  0  0  0  0  0  0
    8.0434  -15.0452   27.4728 O   0  0  0  0  0  0  0  0  0  0  0  0
  2  1  1  0
  3  2  2  0
  4  5  2  0
  4  3  1  0
  5 11  1  0
  6  5  1  0
  7  9  1  0
  7  6  1  0
  7  8  1  6
  9 10  2  0
 11 12  2  0
 12  2  1  0
 14 13  1  1
 15 14  1  0
 15  9  1  0
 16 22  1  0
 16 14  1  0
 17 16  2  0
 19 18  1  1
 19 20  1  0
 21 19  1  0
 21 22  1  1
 23 21  1  0
 23 24  1  0
 25 23  2  0
M  END
$$$$
