YAV.pdb
     RDKit          3D

 25 25  0  0  1  0  0  0  0  0999 V2000
    8.3437  -13.0298   16.4703 O   0  0  0  0  0  0  0  0  0  0  0  0
    8.0500  -13.5193   17.7468 C   0  0  0  0  0  0  0  0  0  0  0  0
    8.5901  -14.6864   18.2273 C   0  0  0  0  0  0  0  0  0  0  0  0
    8.2686  -15.1381   19.5095 C   0  0  0  0  0  0  0  0  0  0  0  0
    7.4098  -14.4412   20.3305 C   0  0  0  0  0  0  0  0  0  0  0  0
    7.0469  -14.8931   21.6851 C   0  0  0  0  0  0  0  0  0  0  0  0
    6.9050  -16.3912   21.8223 C   0  0  2  0  0  0  0  0  0  0  0  0
    5.6129  -16.7223   21.2381 N   0  0  0  0  0  0  0  0  0  0  0  0
    6.9706  -16.7491   23.2487 C   0  0  0  0  0  0  0  0  0  0  0  0
    6.0675  -16.3666   24.0354 O   0  0  0  0  0  0  0  0  0  0  0  0
    6.8790  -13.2600   19.8122 C   0  0  0  0  0  0  0  0  0  0  0  0
    7.1931  -12.8097   18.5473 C   0  0  0  0  0  0  0  0  0  0  0  0
    8.3745  -19.1915   25.5871 C   0  0  0  0  0  0  0  0  0  0  0  0
    8.0777  -17.7512   25.2317 C   0  0  2  0  0  0  0  0  0  0  0  0
    8.0178  -17.5238   23.8248 N   0  0  0  0  0  0  0  0  0  0  0  0
    9.0740  -16.9085   25.9281 C   0  0  0  0  0  0  0  0  0  0  0  0
   10.1101  -16.5968   25.2774 O   0  0  0  0  0  0  0  0  0  0  0  0
   10.4842  -13.5891   29.2118 C   0  0  0  0  0  0  0  0  0  0  0  0
    9.4129  -14.3546   28.4473 C   0  0  1  0  0  0  0  0  0  0  0  0
    8.8220  -13.4657   27.3912 C   0  0  0  0  0  0  0  0  0  0  0  0
    9.9731  -15.6383   27.8647 C   0  0  2  0  0  0  0  0  0  0  0  0
    8.9341  -16.4419   27.2548 N   0  0  0  0  0  0  0  0  0  0  0  0
   10.5843  -16.3850   28.9943 C   0  0  0  0  0  0  0  0  0  0  0  0
   11.8712  -16.1107   29.4471 O   0  0  0  0  0  0  0  0  0  0  0  0
    9.8967  -17.2867   29.5398 O   0  0  0  0  0  0  0  0  0  0  0  0
  2  1  1  0
  3  2  2  0
  4  5  2  0
  4  3  1  0
  5 11  1  0
  6  5  1  0
  7  9  1  0
  7  6  1  0
  7  8  1  1
  9 10  2  0
 11 12  2  0
 12  2  1  0
 14 13  1  6
 15 14  1  0
 15  9  1  0
 16 22  1  0
 16 14  1  0
 17 16  2  0
 19 18  1  6
 19 20  1  0
 21 19  1  0
 21 22  1  1
 23 21  1  0
 23 24  1  0
 25 23  2  0
M  END
$$$$
