YAV.pdb
     RDKit          3D

 25 25  0  0  1  0  0  0  0  0999 V2000
    8.0185  -12.5858   16.6596 O   0  0  0  0  0  0  0  0  0  0  0  0
    8.0121  -13.1401   17.9434 C   0  0  0  0  0  0  0  0  0  0  0  0
    6.9730  -12.9492   18.8199 C   0  0  0  0  0  0  0  0  0  0  0  0
    7.0088  -13.5223   20.0934 C   0  0  0  0  0  0  0  0  0  0  0  0
    8.0721  -14.2900   20.5142 C   0  0  0  0  0  0  0  0  0  0  0  0
    8.1424  -14.9037   21.8517 C   0  0  0  0  0  0  0  0  0  0  0  0
    8.1489  -16.4147   21.8417 C   0  0  2  0  0  0  0  0  0  0  0  0
    6.8205  -16.8141   21.3987 N   0  0  0  0  0  0  0  0  0  0  0  0
    8.4441  -16.9007   23.1996 C   0  0  0  0  0  0  0  0  0  0  0  0
    7.6068  -16.7351   24.1228 O   0  0  0  0  0  0  0  0  0  0  0  0
    9.1109  -14.4644   19.5997 C   0  0  0  0  0  0  0  0  0  0  0  0
    9.0804  -13.9009   18.3415 C   0  0  0  0  0  0  0  0  0  0  0  0
   10.8048  -19.2222   24.9532 C   0  0  0  0  0  0  0  0  0  0  0  0
    9.8638  -18.0393   24.8877 C   0  0  2  0  0  0  0  0  0  0  0  0
    9.6500  -17.5683   23.5584 N   0  0  0  0  0  0  0  0  0  0  0  0
   10.3866  -17.0058   25.8078 C   0  0  0  0  0  0  0  0  0  0  0  0
   11.3455  -16.3010   25.3861 O   0  0  0  0  0  0  0  0  0  0  0  0
   10.2595  -13.7692   29.3973 C   0  0  0  0  0  0  0  0  0  0  0  0
    9.5982  -14.6975   28.3876 C   0  0  1  0  0  0  0  0  0  0  0  0
    9.1340  -13.8984   27.2042 C   0  0  0  0  0  0  0  0  0  0  0  0
   10.5359  -15.8201   27.9858 C   0  0  2  0  0  0  0  0  0  0  0  0
    9.8829  -16.7677   27.1066 N   0  0  0  0  0  0  0  0  0  0  0  0
   10.9433  -16.5019   29.2413 C   0  0  0  0  0  0  0  0  0  0  0  0
   10.4741  -17.7683   29.5767 O   0  0  0  0  0  0  0  0  0  0  0  0
   11.7367  -15.8944   30.0060 O   0  0  0  0  0  0  0  0  0  0  0  0
  2  1  1  0
  3  2  2  0
  4  5  2  0
  4  3  1  0
  5 11  1  0
  6  5  1  0
  7  9  1  0
  7  6  1  0
  7  8  1  1
  9 10  2  0
 11 12  2  0
 12  2  1  0
 14 13  1  6
 15 14  1  0
 15  9  1  0
 16 22  1  0
 16 14  1  0
 17 16  2  0
 19 18  1  1
 19 20  1  0
 21 19  1  0
 21 22  1  6
 23 21  1  0
 23 24  1  0
 25 23  2  0
M  END
$$$$
