YAV.pdb
     RDKit          3D

 25 25  0  0  1  0  0  0  0  0999 V2000
    9.1841  -12.6418   18.8762 O   0  0  0  0  0  0  0  0  0  0  0  0
    8.4449  -13.3671   19.8158 C   0  0  0  0  0  0  0  0  0  0  0  0
    7.5838  -12.7621   20.6972 C   0  0  0  0  0  0  0  0  0  0  0  0
    6.8650  -13.5265   21.6196 C   0  0  0  0  0  0  0  0  0  0  0  0
    6.9898  -14.8968   21.6807 C   0  0  0  0  0  0  0  0  0  0  0  0
    6.2503  -15.7303   22.6445 C   0  0  0  0  0  0  0  0  0  0  0  0
    6.5031  -17.2135   22.5044 C   0  0  2  0  0  0  0  0  0  0  0  0
    5.1896  -17.8423   22.5131 N   0  0  0  0  0  0  0  0  0  0  0  0
    7.3355  -17.6652   23.6314 C   0  0  0  0  0  0  0  0  0  0  0  0
    6.8156  -17.8581   24.7598 O   0  0  0  0  0  0  0  0  0  0  0  0
    7.8726  -15.4798   20.7716 C   0  0  0  0  0  0  0  0  0  0  0  0
    8.5844  -14.7299   19.8590 C   0  0  0  0  0  0  0  0  0  0  0  0
   10.7690  -19.0471   24.3000 C   0  0  0  0  0  0  0  0  0  0  0  0
    9.4894  -18.3302   24.6710 C   0  0  2  0  0  0  0  0  0  0  0  0
    8.7356  -17.9089   23.5356 N   0  0  0  0  0  0  0  0  0  0  0  0
    9.8494  -17.2270   25.5881 C   0  0  0  0  0  0  0  0  0  0  0  0
   10.6447  -17.5053   26.5284 O   0  0  0  0  0  0  0  0  0  0  0  0
    9.1334  -12.7383   27.5470 C   0  0  0  0  0  0  0  0  0  0  0  0
    8.6683  -13.8534   26.6204 C   0  0  1  0  0  0  0  0  0  0  0  0
    8.2148  -13.2624   25.3167 C   0  0  0  0  0  0  0  0  0  0  0  0
    9.7582  -14.8908   26.4284 C   0  0  2  0  0  0  0  0  0  0  0  0
    9.3628  -15.9051   25.4733 N   0  0  0  0  0  0  0  0  0  0  0  0
    9.9865  -15.5165   27.7563 C   0  0  0  0  0  0  0  0  0  0  0  0
   10.9890  -15.0758   28.6149 O   0  0  0  0  0  0  0  0  0  0  0  0
    9.2375  -16.4710   28.0899 O   0  0  0  0  0  0  0  0  0  0  0  0
  2  1  1  0
  3  2  2  0
  4  5  2  0
  4  3  1  0
  5 11  1  0
  6  5  1  0
  7  9  1  0
  7  6  1  0
  7  8  1  1
  9 10  2  0
 11 12  2  0
 12  2  1  0
 14 13  1  6
 15 14  1  0
 15  9  1  0
 16 22  1  0
 16 14  1  0
 17 16  2  0
 19 18  1  1
 19 20  1  0
 21 19  1  0
 21 22  1  6
 23 21  1  0
 23 24  1  0
 25 23  2  0
M  END
$$$$
