YAV.pdb
     RDKit          3D

 25 25  0  0  1  0  0  0  0  0999 V2000
   12.5959  -21.1390   29.8626 O   0  0  0  0  0  0  0  0  0  0  0  0
   12.1613  -20.1121   29.0188 C   0  0  0  0  0  0  0  0  0  0  0  0
   10.8310  -19.8754   28.7762 C   0  0  0  0  0  0  0  0  0  0  0  0
   10.4419  -18.8378   27.9256 C   0  0  0  0  0  0  0  0  0  0  0  0
   11.3634  -18.0232   27.3056 C   0  0  0  0  0  0  0  0  0  0  0  0
   10.9859  -16.9244   26.3996 C   0  0  0  0  0  0  0  0  0  0  0  0
   11.0928  -17.2661   24.9316 C   0  0  2  0  0  0  0  0  0  0  0  0
   12.5150  -17.2367   24.6200 N   0  0  0  0  0  0  0  0  0  0  0  0
   10.3394  -16.2697   24.1526 C   0  0  0  0  0  0  0  0  0  0  0  0
   10.8252  -15.1268   23.9558 O   0  0  0  0  0  0  0  0  0  0  0  0
   12.7060  -18.2904   27.5734 C   0  0  0  0  0  0  0  0  0  0  0  0
   13.0954  -19.3133   28.4123 C   0  0  0  0  0  0  0  0  0  0  0  0
    6.9448  -15.8563   22.5227 C   0  0  0  0  0  0  0  0  0  0  0  0
    8.1370  -15.4447   23.3584 C   0  0  2  0  0  0  0  0  0  0  0  0
    9.0557  -16.5120   23.5851 N   0  0  0  0  0  0  0  0  0  0  0  0
    7.6172  -14.8338   24.6012 C   0  0  0  0  0  0  0  0  0  0  0  0
    7.5615  -15.5768   25.6205 O   0  0  0  0  0  0  0  0  0  0  0  0
    8.4489  -11.1156   26.0346 C   0  0  0  0  0  0  0  0  0  0  0  0
    6.9658  -11.4594   26.0618 C   0  0  1  0  0  0  0  0  0  0  0  0
    6.2643  -10.7319   24.9513 C   0  0  0  0  0  0  0  0  0  0  0  0
    6.7540  -12.9595   25.9846 C   0  0  2  0  0  0  0  0  0  0  0  0
    7.1880  -13.4916   24.7095 N   0  0  0  0  0  0  0  0  0  0  0  0
    5.2961  -13.1908   26.1527 C   0  0  0  0  0  0  0  0  0  0  0  0
    4.6774  -13.1137   27.3967 O   0  0  0  0  0  0  0  0  0  0  0  0
    4.6244  -13.4627   25.1240 O   0  0  0  0  0  0  0  0  0  0  0  0
  2  1  1  0
  3  2  2  0
  4  5  2  0
  4  3  1  0
  5 11  1  0
  6  5  1  0
  7  9  1  0
  7  6  1  0
  7  8  1  6
  9 10  2  0
 11 12  2  0
 12  2  1  0
 14 13  1  1
 15 14  1  0
 15  9  1  0
 16 22  1  0
 16 14  1  0
 17 16  2  0
 19 18  1  6
 19 20  1  0
 21 19  1  0
 21 22  1  6
 23 21  1  0
 23 24  1  0
 25 23  2  0
M  END
$$$$
