YAV.pdb
     RDKit          3D

 25 25  0  0  1  0  0  0  0  0999 V2000
    7.5839  -12.4993   16.3775 O   0  0  0  0  0  0  0  0  0  0  0  0
    7.7495  -13.0985   17.6300 C   0  0  0  0  0  0  0  0  0  0  0  0
    8.9398  -13.6573   18.0244 C   0  0  0  0  0  0  0  0  0  0  0  0
    9.0602  -14.2457   19.2858 C   0  0  0  0  0  0  0  0  0  0  0  0
    8.0054  -14.2883   20.1705 C   0  0  0  0  0  0  0  0  0  0  0  0
    8.0986  -14.9055   21.5050 C   0  0  0  0  0  0  0  0  0  0  0  0
    8.3545  -16.3946   21.4836 C   0  0  2  0  0  0  0  0  0  0  0  0
    7.1471  -16.9967   20.9355 N   0  0  0  0  0  0  0  0  0  0  0  0
    8.6224  -16.8536   22.8564 C   0  0  0  0  0  0  0  0  0  0  0  0
    7.6957  -16.8710   23.7060 O   0  0  0  0  0  0  0  0  0  0  0  0
    6.8108  -13.7118   19.7389 C   0  0  0  0  0  0  0  0  0  0  0  0
    6.6867  -13.1297   18.4950 C   0  0  0  0  0  0  0  0  0  0  0  0
   11.0845  -18.8998   24.7359 C   0  0  0  0  0  0  0  0  0  0  0  0
   10.0822  -17.7704   24.6426 C   0  0  2  0  0  0  0  0  0  0  0  0
    9.8982  -17.2952   23.3103 N   0  0  0  0  0  0  0  0  0  0  0  0
   10.5070  -16.7210   25.5946 C   0  0  0  0  0  0  0  0  0  0  0  0
   11.3205  -15.8571   25.1635 O   0  0  0  0  0  0  0  0  0  0  0  0
    9.8444  -13.5989   29.1994 C   0  0  0  0  0  0  0  0  0  0  0  0
    9.3613  -14.6929   28.2571 C   0  0  1  0  0  0  0  0  0  0  0  0
    8.6200  -14.0712   27.1088 C   0  0  0  0  0  0  0  0  0  0  0  0
   10.5169  -15.5572   27.7894 C   0  0  2  0  0  0  0  0  0  0  0  0
   10.0623  -16.6330   26.9332 N   0  0  0  0  0  0  0  0  0  0  0  0
   11.1451  -16.1223   29.0114 C   0  0  0  0  0  0  0  0  0  0  0  0
   12.0649  -15.4012   29.7666 O   0  0  0  0  0  0  0  0  0  0  0  0
   10.8183  -17.2889   29.3511 O   0  0  0  0  0  0  0  0  0  0  0  0
  2  1  1  0
  3  2  2  0
  4  5  2  0
  4  3  1  0
  5 11  1  0
  6  5  1  0
  7  9  1  0
  7  6  1  0
  7  8  1  1
  9 10  2  0
 11 12  2  0
 12  2  1  0
 14 13  1  6
 15 14  1  0
 15  9  1  0
 16 22  1  0
 16 14  1  0
 17 16  2  0
 19 18  1  1
 19 20  1  0
 21 19  1  0
 21 22  1  6
 23 21  1  0
 23 24  1  0
 25 23  2  0
M  END
$$$$
