YAV.pdb
     RDKit          3D

 25 25  0  0  1  0  0  0  0  0999 V2000
    8.0227  -13.1031   15.8388 O   0  0  0  0  0  0  0  0  0  0  0  0
    8.0145  -13.5803   17.1532 C   0  0  0  0  0  0  0  0  0  0  0  0
    8.6147  -14.7627   17.5083 C   0  0  0  0  0  0  0  0  0  0  0  0
    8.5818  -15.2012   18.8343 C   0  0  0  0  0  0  0  0  0  0  0  0
    7.9553  -14.4758   19.8233 C   0  0  0  0  0  0  0  0  0  0  0  0
    7.8986  -14.9130   21.2291 C   0  0  0  0  0  0  0  0  0  0  0  0
    7.6600  -16.3941   21.4093 C   0  0  2  0  0  0  0  0  0  0  0  0
    6.2791  -16.6250   21.0088 N   0  0  0  0  0  0  0  0  0  0  0  0
    7.8890  -16.7473   22.8199 C   0  0  0  0  0  0  0  0  0  0  0  0
    7.0723  -16.3778   23.7015 O   0  0  0  0  0  0  0  0  0  0  0  0
    7.3557  -13.2796   19.4292 C   0  0  0  0  0  0  0  0  0  0  0  0
    7.3853  -12.8422   18.1217 C   0  0  0  0  0  0  0  0  0  0  0  0
   10.0136  -19.0575   24.8845 C   0  0  0  0  0  0  0  0  0  0  0  0
    9.1605  -17.8289   24.6572 C   0  0  2  0  0  0  0  0  0  0  0  0
    9.0063  -17.5032   23.2770 N   0  0  0  0  0  0  0  0  0  0  0  0
    9.7376  -16.7329   25.4657 C   0  0  0  0  0  0  0  0  0  0  0  0
   10.5769  -15.9839   24.8925 O   0  0  0  0  0  0  0  0  0  0  0  0
    9.8617  -13.3145   28.8496 C   0  0  0  0  0  0  0  0  0  0  0  0
    9.1649  -14.3165   27.9392 C   0  0  1  0  0  0  0  0  0  0  0  0
    8.6259  -13.6039   26.7325 C   0  0  0  0  0  0  0  0  0  0  0  0
   10.0996  -15.4502   27.5623 C   0  0  2  0  0  0  0  0  0  0  0  0
    9.4086  -16.4820   26.8171 N   0  0  0  0  0  0  0  0  0  0  0  0
   10.6165  -16.0145   28.8357 C   0  0  0  0  0  0  0  0  0  0  0  0
   11.7016  -15.4536   29.5023 O   0  0  0  0  0  0  0  0  0  0  0  0
   10.0380  -17.0294   29.3034 O   0  0  0  0  0  0  0  0  0  0  0  0
  2  1  1  0
  3  2  2  0
  4  5  2  0
  4  3  1  0
  5 11  1  0
  6  5  1  0
  7  9  1  0
  7  6  1  0
  7  8  1  1
  9 10  2  0
 11 12  2  0
 12  2  1  0
 14 13  1  6
 15 14  1  0
 15  9  1  0
 16 22  1  0
 16 14  1  0
 17 16  2  0
 19 18  1  1
 19 20  1  0
 21 19  1  0
 21 22  1  1
 23 21  1  0
 23 24  1  0
 25 23  2  0
M  END
$$$$
