YAV.pdb
     RDKit          3D

 25 25  0  0  1  0  0  0  0  0999 V2000
    8.7806  -12.2075   17.3692 O   0  0  0  0  0  0  0  0  0  0  0  0
    8.2707  -12.8531   18.4999 C   0  0  0  0  0  0  0  0  0  0  0  0
    6.9864  -13.3350   18.5529 C   0  0  0  0  0  0  0  0  0  0  0  0
    6.5188  -13.9738   19.7040 C   0  0  0  0  0  0  0  0  0  0  0  0
    7.3153  -14.1429   20.8148 C   0  0  0  0  0  0  0  0  0  0  0  0
    6.8507  -14.8071   22.0450 C   0  0  0  0  0  0  0  0  0  0  0  0
    6.8860  -16.3166   21.9865 C   0  0  2  0  0  0  0  0  0  0  0  0
    5.5110  -16.7368   21.7553 N   0  0  0  0  0  0  0  0  0  0  0  0
    7.4108  -16.8326   23.2614 C   0  0  0  0  0  0  0  0  0  0  0  0
    6.7323  -16.7173   24.3137 O   0  0  0  0  0  0  0  0  0  0  0  0
    8.6143  -13.6419   20.7279 C   0  0  0  0  0  0  0  0  0  0  0  0
    9.0809  -13.0107   19.5942 C   0  0  0  0  0  0  0  0  0  0  0  0
   10.1254  -19.0526   24.5893 C   0  0  0  0  0  0  0  0  0  0  0  0
    9.1542  -17.8956   24.6729 C   0  0  2  0  0  0  0  0  0  0  0  0
    8.6745  -17.4753   23.3970 N   0  0  0  0  0  0  0  0  0  0  0  0
    9.8129  -16.8191   25.4444 C   0  0  0  0  0  0  0  0  0  0  0  0
   10.6792  -16.1310   24.8358 O   0  0  0  0  0  0  0  0  0  0  0  0
   10.0896  -13.2805   28.6854 C   0  0  0  0  0  0  0  0  0  0  0  0
    9.3265  -14.3572   27.9260 C   0  0  1  0  0  0  0  0  0  0  0  0
    8.6031  -13.7333   26.7676 C   0  0  0  0  0  0  0  0  0  0  0  0
   10.2547  -15.4730   27.4852 C   0  0  2  0  0  0  0  0  0  0  0  0
    9.5326  -16.5233   26.7976 N   0  0  0  0  0  0  0  0  0  0  0  0
   10.8768  -16.0191   28.7189 C   0  0  0  0  0  0  0  0  0  0  0  0
   10.5820  -17.2952   29.1888 O   0  0  0  0  0  0  0  0  0  0  0  0
   11.6905  -15.2855   29.3378 O   0  0  0  0  0  0  0  0  0  0  0  0
  2  1  1  0
  3  2  2  0
  4  5  2  0
  4  3  1  0
  5 11  1  0
  6  5  1  0
  7  9  1  0
  7  6  1  0
  7  8  1  1
  9 10  2  0
 11 12  2  0
 12  2  1  0
 14 13  1  6
 15 14  1  0
 15  9  1  0
 16 22  1  0
 16 14  1  0
 17 16  2  0
 19 18  1  6
 19 20  1  0
 21 19  1  0
 21 22  1  1
 23 21  1  0
 23 24  1  0
 25 23  2  0
M  END
$$$$
