CYD.pdb
     RDKit          3D

 27 27  0  0  1  0  0  0  0  0999 V2000
   26.8857  -12.3580  -16.3221 N   0  0  0  0  0  0  0  0  0  0  0  0
   26.3547  -11.1599  -15.7567 C   0  0  1  0  0  0  0  0  0  0  0  0
   27.0219   -9.9089  -16.2807 C   0  0  0  0  0  0  0  0  0  0  0  0
   28.7510   -9.9123  -15.7326 S   0  0  0  0  0  0  0  0  0  0  0  0
   24.8733  -11.0682  -15.8401 C   0  0  0  0  0  0  0  0  0  0  0  0
   24.3189  -11.4523  -16.8806 O   0  0  0  0  0  0  0  0  0  0  0  0
   21.7619  -16.8367  -15.5964 O   0  0  0  0  0  0  0  0  0  0  0  0
   21.8287  -15.5128  -15.1538 C   0  0  0  0  0  0  0  0  0  0  0  0
   20.8645  -14.6064  -15.5345 C   0  0  0  0  0  0  0  0  0  0  0  0
   20.9156  -13.2979  -15.1071 C   0  0  0  0  0  0  0  0  0  0  0  0
   21.9375  -12.8331  -14.2757 C   0  0  0  0  0  0  0  0  0  0  0  0
   21.9807  -11.4291  -13.8570 C   0  0  0  0  0  0  0  0  0  0  0  0
   22.6066  -10.5230  -14.8538 C   0  0  2  0  0  0  0  0  0  0  0  0
   24.0627  -10.5632  -14.7883 N   0  0  0  0  0  0  0  0  0  0  0  0
   22.0853   -9.1633  -14.7421 C   0  0  0  0  0  0  0  0  0  0  0  0
   22.4939   -8.4340  -13.8078 O   0  0  0  0  0  0  0  0  0  0  0  0
   22.8900  -13.7588  -13.9087 C   0  0  0  0  0  0  0  0  0  0  0  0
   22.8451  -15.0709  -14.3329 C   0  0  0  0  0  0  0  0  0  0  0  0
   21.1325   -8.5942  -15.6285 N   0  0  0  0  0  0  0  0  0  0  0  0
   20.6928   -7.2067  -15.4105 C   0  0  1  0  0  0  0  0  0  0  0  0
   20.6117   -6.4642  -16.7036 C   0  0  0  0  0  0  0  0  0  0  0  0
   20.0999   -5.0844  -16.5759 C   0  0  0  0  0  0  0  0  0  0  0  0
   20.2871   -4.3640  -15.5482 O   0  0  0  0  0  0  0  0  0  0  0  0
   19.4316   -7.1733  -14.6476 C   0  0  0  0  0  0  0  0  0  0  0  0
   18.4642   -7.9428  -14.8587 O   0  0  0  0  0  0  0  0  0  0  0  0
   19.3642   -4.5143  -17.6313 O   0  0  0  0  0  0  0  0  0  0  0  0
   19.2914   -6.2434  -13.6335 O   0  0  0  0  0  0  0  0  0  0  0  0
  2  1  1  6
  2  3  1  0
  4  3  1  0
  5  2  1  0
  6  5  2  0
  8  7  1  0
  8 18  2  0
  9  8  1  0
 10  9  2  0
 10 11  1  0
 11 17  2  0
 13 12  1  1
 12 11  1  0
 13 14  1  0
 14  5  1  0
 15 13  1  0
 15 19  1  0
 16 15  2  0
 17 18  1  0
 20 24  1  0
 20 19  1  0
 20 21  1  6
 22 21  1  0
 22 23  2  0
 24 27  1  0
 25 24  2  0
 26 22  1  0
M  END
$$$$
