CYD.pdb
     RDKit          3D

 27 27  0  0  1  0  0  0  0  0999 V2000
   25.9709  -24.4163  -15.7404 N   0  0  0  0  0  0  0  0  0  0  0  0
   25.5434  -23.0635  -15.8957 C   0  0  1  0  0  0  0  0  0  0  0  0
   25.2520  -22.6934  -17.3320 C   0  0  0  0  0  0  0  0  0  0  0  0
   26.7848  -22.8628  -18.2870 S   0  0  0  0  0  0  0  0  0  0  0  0
   24.4242  -22.6856  -14.9934 C   0  0  0  0  0  0  0  0  0  0  0  0
   23.6954  -23.5870  -14.5526 O   0  0  0  0  0  0  0  0  0  0  0  0
   25.5369  -21.1214   -7.7640 O   0  0  0  0  0  0  0  0  0  0  0  0
   24.9943  -20.8085   -9.0133 C   0  0  0  0  0  0  0  0  0  0  0  0
   25.8209  -20.4746  -10.0628 C   0  0  0  0  0  0  0  0  0  0  0  0
   25.3023  -20.1635  -11.3004 C   0  0  0  0  0  0  0  0  0  0  0  0
   23.9272  -20.1719  -11.5470 C   0  0  0  0  0  0  0  0  0  0  0  0
   23.4020  -19.8118  -12.8672 C   0  0  0  0  0  0  0  0  0  0  0  0
   23.0567  -20.9803  -13.7166 C   0  0  2  0  0  0  0  0  0  0  0  0
   24.1485  -21.3453  -14.6115 N   0  0  0  0  0  0  0  0  0  0  0  0
   21.8017  -20.7685  -14.4330 C   0  0  0  0  0  0  0  0  0  0  0  0
   21.8120  -20.0786  -15.4796 O   0  0  0  0  0  0  0  0  0  0  0  0
   23.1213  -20.5090  -10.4814 C   0  0  0  0  0  0  0  0  0  0  0  0
   23.6338  -20.8217   -9.2391 C   0  0  0  0  0  0  0  0  0  0  0  0
   20.5470  -21.2950  -14.0257 N   0  0  0  0  0  0  0  0  0  0  0  0
   19.3503  -20.9912  -14.8267 C   0  0  1  0  0  0  0  0  0  0  0  0
   19.0692  -22.0874  -15.8012 C   0  0  0  0  0  0  0  0  0  0  0  0
   17.8468  -21.8816  -16.6045 C   0  0  0  0  0  0  0  0  0  0  0  0
   17.1465  -22.8346  -17.0645 O   0  0  0  0  0  0  0  0  0  0  0  0
   18.2014  -20.6888  -13.9535 C   0  0  0  0  0  0  0  0  0  0  0  0
   18.1333  -21.0186  -12.7456 O   0  0  0  0  0  0  0  0  0  0  0  0
   17.4131  -20.5736  -16.8898 O   0  0  0  0  0  0  0  0  0  0  0  0
   17.1260  -19.9993  -14.4833 O   0  0  0  0  0  0  0  0  0  0  0  0
  2  1  1  6
  2  3  1  0
  4  3  1  0
  5  2  1  0
  6  5  2  0
  8  7  1  0
  8 18  2  0
  9  8  1  0
 10  9  2  0
 10 11  1  0
 11 17  2  0
 13 12  1  6
 12 11  1  0
 13 14  1  0
 14  5  1  0
 15 13  1  0
 15 19  1  0
 16 15  2  0
 17 18  1  0
 20 24  1  0
 20 19  1  0
 20 21  1  1
 22 21  1  0
 22 23  2  0
 24 27  1  0
 25 24  2  0
 26 22  1  0
M  END
$$$$
