CYD.pdb
     RDKit          3D

 27 27  0  0  1  0  0  0  0  0999 V2000
   18.8794  -13.9573  -16.5073 N   0  0  0  0  0  0  0  0  0  0  0  0
   19.2968  -12.8157  -17.2554 C   0  0  1  0  0  0  0  0  0  0  0  0
   18.4537  -12.5707  -18.4859 C   0  0  0  0  0  0  0  0  0  0  0  0
   18.6768  -13.9702  -19.6180 S   0  0  0  0  0  0  0  0  0  0  0  0
   19.4394  -11.5853  -16.4335 C   0  0  0  0  0  0  0  0  0  0  0  0
   18.4730  -11.2230  -15.7462 O   0  0  0  0  0  0  0  0  0  0  0  0
   22.5903   -3.8204  -13.4230 O   0  0  0  0  0  0  0  0  0  0  0  0
   22.4621   -5.1340  -13.8824 C   0  0  0  0  0  0  0  0  0  0  0  0
   22.9147   -5.4755  -15.1373 C   0  0  0  0  0  0  0  0  0  0  0  0
   22.7961   -6.7656  -15.6053 C   0  0  0  0  0  0  0  0  0  0  0  0
   22.2168   -7.7783  -14.8369 C   0  0  0  0  0  0  0  0  0  0  0  0
   22.0805   -9.1367  -15.3704 C   0  0  0  0  0  0  0  0  0  0  0  0
   20.6950   -9.4884  -15.7741 C   0  0  2  0  0  0  0  0  0  0  0  0
   20.6262  -10.8051  -16.3966 N   0  0  0  0  0  0  0  0  0  0  0  0
   20.1019   -8.4491  -16.6115 C   0  0  0  0  0  0  0  0  0  0  0  0
   20.5012   -8.3238  -17.7931 O   0  0  0  0  0  0  0  0  0  0  0  0
   21.7717   -7.4118  -13.5854 C   0  0  0  0  0  0  0  0  0  0  0  0
   21.8873   -6.1217  -13.1102 C   0  0  0  0  0  0  0  0  0  0  0  0
   19.0879   -7.5530  -16.1800 N   0  0  0  0  0  0  0  0  0  0  0  0
   18.5835   -6.5385  -17.1194 C   0  0  1  0  0  0  0  0  0  0  0  0
   17.1056   -6.6627  -17.2944 C   0  0  0  0  0  0  0  0  0  0  0  0
   16.7017   -7.3867  -18.5170 C   0  0  0  0  0  0  0  0  0  0  0  0
   17.5266   -7.7885  -19.3936 O   0  0  0  0  0  0  0  0  0  0  0  0
   19.0021   -5.1878  -16.7022 C   0  0  0  0  0  0  0  0  0  0  0  0
   18.9161   -4.1710  -17.4310 O   0  0  0  0  0  0  0  0  0  0  0  0
   15.3404   -7.6584  -18.7477 O   0  0  0  0  0  0  0  0  0  0  0  0
   19.5225   -5.0146  -15.4326 O   0  0  0  0  0  0  0  0  0  0  0  0
  2  1  1  1
  2  3  1  0
  4  3  1  0
  5  2  1  0
  6  5  2  0
  8  7  1  0
  8 18  2  0
  9  8  1  0
 10  9  2  0
 10 11  1  0
 11 17  2  0
 13 12  1  6
 12 11  1  0
 13 14  1  0
 14  5  1  0
 15 13  1  0
 15 19  1  0
 16 15  2  0
 17 18  1  0
 20 24  1  0
 20 19  1  0
 20 21  1  1
 22 21  1  0
 22 23  2  0
 24 27  1  0
 25 24  2  0
 26 22  1  0
M  END
$$$$
