CYD.pdb
     RDKit          3D

 27 27  0  0  1  0  0  0  0  0999 V2000
   25.0809  -18.7387  -18.5881 N   0  0  0  0  0  0  0  0  0  0  0  0
   24.2399  -18.5953  -17.4440 C   0  0  1  0  0  0  0  0  0  0  0  0
   22.9872  -17.7969  -17.7235 C   0  0  0  0  0  0  0  0  0  0  0  0
   23.4638  -16.0715  -18.0167 S   0  0  0  0  0  0  0  0  0  0  0  0
   23.9312  -19.8823  -16.7672 C   0  0  0  0  0  0  0  0  0  0  0  0
   23.7319  -20.8832  -17.4717 O   0  0  0  0  0  0  0  0  0  0  0  0
   29.3107  -23.1993  -16.7755 O   0  0  0  0  0  0  0  0  0  0  0  0
   28.1822  -22.8262  -16.0404 C   0  0  0  0  0  0  0  0  0  0  0  0
   27.0823  -23.6534  -15.9934 C   0  0  0  0  0  0  0  0  0  0  0  0
   25.9621  -23.3006  -15.2737 C   0  0  0  0  0  0  0  0  0  0  0  0
   25.8895  -22.0992  -14.5645 C   0  0  0  0  0  0  0  0  0  0  0  0
   24.6748  -21.7379  -13.8279 C   0  0  0  0  0  0  0  0  0  0  0  0
   23.5563  -21.2881  -14.6956 C   0  0  2  0  0  0  0  0  0  0  0  0
   23.8534  -20.0223  -15.3555 N   0  0  0  0  0  0  0  0  0  0  0  0
   22.2939  -21.2465  -13.9622 C   0  0  0  0  0  0  0  0  0  0  0  0
   22.2042  -20.5059  -12.9548 O   0  0  0  0  0  0  0  0  0  0  0  0
   27.0022  -21.2889  -14.6271 C   0  0  0  0  0  0  0  0  0  0  0  0
   28.1276  -21.6359  -15.3459 C   0  0  0  0  0  0  0  0  0  0  0  0
   21.1388  -21.9959  -14.3109 N   0  0  0  0  0  0  0  0  0  0  0  0
   19.9172  -21.8426  -13.5046 C   0  0  1  0  0  0  0  0  0  0  0  0
   18.7048  -21.8081  -14.3759 C   0  0  0  0  0  0  0  0  0  0  0  0
   17.7658  -20.7125  -14.0598 C   0  0  0  0  0  0  0  0  0  0  0  0
   17.9951  -19.8314  -13.1758 O   0  0  0  0  0  0  0  0  0  0  0  0
   19.8470  -22.8824  -12.4617 C   0  0  0  0  0  0  0  0  0  0  0  0
   19.1673  -22.7785  -11.4130 O   0  0  0  0  0  0  0  0  0  0  0  0
   16.5479  -20.6160  -14.7581 O   0  0  0  0  0  0  0  0  0  0  0  0
   20.5680  -24.0497  -12.6359 O   0  0  0  0  0  0  0  0  0  0  0  0
  2  1  1  6
  2  3  1  0
  4  3  1  0
  5  2  1  0
  6  5  2  0
  8  7  1  0
  8 18  2  0
  9  8  1  0
 10  9  2  0
 10 11  1  0
 11 17  2  0
 13 12  1  1
 12 11  1  0
 13 14  1  0
 14  5  1  0
 15 13  1  0
 15 19  1  0
 16 15  2  0
 17 18  1  0
 20 24  1  0
 20 19  1  0
 20 21  1  6
 22 21  1  0
 22 23  2  0
 24 27  1  0
 25 24  2  0
 26 22  1  0
M  END
$$$$
