CYD.pdb
     RDKit          3D

 27 27  0  0  1  0  0  0  0  0999 V2000
   20.2493  -13.1392  -19.7641 N   0  0  0  0  0  0  0  0  0  0  0  0
   20.1222  -13.4992  -18.3889 C   0  0  1  0  0  0  0  0  0  0  0  0
   20.5857  -14.9082  -18.0979 C   0  0  0  0  0  0  0  0  0  0  0  0
   19.4069  -16.0633  -18.8504 S   0  0  0  0  0  0  0  0  0  0  0  0
   20.7350  -12.5161  -17.4573 C   0  0  0  0  0  0  0  0  0  0  0  0
   20.6166  -12.7097  -16.2382 O   0  0  0  0  0  0  0  0  0  0  0  0
   26.7376  -14.6377  -16.9072 O   0  0  0  0  0  0  0  0  0  0  0  0
   25.9210  -13.5082  -17.0089 C   0  0  0  0  0  0  0  0  0  0  0  0
   25.5169  -12.8419  -15.8736 C   0  0  0  0  0  0  0  0  0  0  0  0
   24.7122  -11.7270  -15.9563 C   0  0  0  0  0  0  0  0  0  0  0  0
   24.2723  -11.2246  -17.1834 C   0  0  0  0  0  0  0  0  0  0  0  0
   23.3956  -10.0513  -17.2401 C   0  0  0  0  0  0  0  0  0  0  0  0
   21.9652  -10.3558  -16.9800 C   0  0  2  0  0  0  0  0  0  0  0  0
   21.4484  -11.3677  -17.8938 N   0  0  0  0  0  0  0  0  0  0  0  0
   21.1516   -9.1429  -16.9803 C   0  0  0  0  0  0  0  0  0  0  0  0
   20.7238   -8.7023  -18.0732 O   0  0  0  0  0  0  0  0  0  0  0  0
   24.6898  -11.9085  -18.3044 C   0  0  0  0  0  0  0  0  0  0  0  0
   25.4958  -13.0257  -18.2290 C   0  0  0  0  0  0  0  0  0  0  0  0
   20.8019   -8.4113  -15.8142 N   0  0  0  0  0  0  0  0  0  0  0  0
   19.8784   -7.2718  -15.9354 C   0  0  1  0  0  0  0  0  0  0  0  0
   18.5029   -7.6516  -15.4950 C   0  0  0  0  0  0  0  0  0  0  0  0
   17.5561   -6.5196  -15.4305 C   0  0  0  0  0  0  0  0  0  0  0  0
   17.1484   -5.8929  -16.4558 O   0  0  0  0  0  0  0  0  0  0  0  0
   20.4067   -6.0946  -15.2219 C   0  0  0  0  0  0  0  0  0  0  0  0
   21.4244   -6.1173  -14.4897 O   0  0  0  0  0  0  0  0  0  0  0  0
   17.0649   -6.0930  -14.1828 O   0  0  0  0  0  0  0  0  0  0  0  0
   19.7520   -4.8841  -15.3590 O   0  0  0  0  0  0  0  0  0  0  0  0
  2  1  1  6
  2  3  1  0
  4  3  1  0
  5  2  1  0
  6  5  2  0
  8  7  1  0
  8 18  2  0
  9  8  1  0
 10  9  2  0
 10 11  1  0
 11 17  2  0
 13 12  1  6
 12 11  1  0
 13 14  1  0
 14  5  1  0
 15 13  1  0
 15 19  1  0
 16 15  2  0
 17 18  1  0
 20 24  1  0
 20 19  1  0
 20 21  1  1
 22 21  1  0
 22 23  2  0
 24 27  1  0
 25 24  2  0
 26 22  1  0
M  END
$$$$
