CYD.pdb
     RDKit          3D

 27 27  0  0  1  0  0  0  0  0999 V2000
   20.1319  -10.9823  -15.8493 N   0  0  0  0  0  0  0  0  0  0  0  0
   20.8294   -9.8676  -16.4043 C   0  0  1  0  0  0  0  0  0  0  0  0
   20.7222   -9.7891  -17.9100 C   0  0  0  0  0  0  0  0  0  0  0  0
   21.4399  -11.2995  -18.6125 S   0  0  0  0  0  0  0  0  0  0  0  0
   20.4877   -8.5717  -15.7611 C   0  0  0  0  0  0  0  0  0  0  0  0
   19.3055   -8.1979  -15.7851 O   0  0  0  0  0  0  0  0  0  0  0  0
   16.9799   -5.7222   -9.6181 O   0  0  0  0  0  0  0  0  0  0  0  0
   18.0635   -5.8960  -10.4835 C   0  0  0  0  0  0  0  0  0  0  0  0
   19.3203   -6.1426   -9.9778 C   0  0  0  0  0  0  0  0  0  0  0  0
   20.3988   -6.3163  -10.8168 C   0  0  0  0  0  0  0  0  0  0  0  0
   20.2701   -6.2511  -12.2063 C   0  0  0  0  0  0  0  0  0  0  0  0
   21.4399   -6.4145  -13.0743 C   0  0  0  0  0  0  0  0  0  0  0  0
   21.1136   -6.4544  -14.5228 C   0  0  2  0  0  0  0  0  0  0  0  0
   21.4468   -7.7415  -15.1213 N   0  0  0  0  0  0  0  0  0  0  0  0
   21.7228   -5.3369  -15.2392 C   0  0  0  0  0  0  0  0  0  0  0  0
   22.9684   -5.3153  -15.3787 O   0  0  0  0  0  0  0  0  0  0  0  0
   19.0030   -6.0033  -12.6878 C   0  0  0  0  0  0  0  0  0  0  0  0
   17.9182   -5.8283  -11.8533 C   0  0  0  0  0  0  0  0  0  0  0  0
   20.9969   -4.2526  -15.8003 N   0  0  0  0  0  0  0  0  0  0  0  0
   21.7312   -3.1893  -16.5046 C   0  0  1  0  0  0  0  0  0  0  0  0
   20.8661   -2.5345  -17.5308 C   0  0  0  0  0  0  0  0  0  0  0  0
   21.5400   -1.4639  -18.2936 C   0  0  0  0  0  0  0  0  0  0  0  0
   21.7093   -0.2891  -17.8448 O   0  0  0  0  0  0  0  0  0  0  0  0
   22.3105   -2.2319  -15.5446 C   0  0  0  0  0  0  0  0  0  0  0  0
   23.3626   -1.5817  -15.7515 O   0  0  0  0  0  0  0  0  0  0  0  0
   22.0290   -1.7316  -19.5857 O   0  0  0  0  0  0  0  0  0  0  0  0
   21.6660   -2.0264  -14.3383 O   0  0  0  0  0  0  0  0  0  0  0  0
  2  1  1  1
  2  3  1  0
  4  3  1  0
  5  2  1  0
  6  5  2  0
  8  7  1  0
  8 18  2  0
  9  8  1  0
 10  9  2  0
 10 11  1  0
 11 17  2  0
 13 12  1  1
 12 11  1  0
 13 14  1  0
 14  5  1  0
 15 13  1  0
 15 19  1  0
 16 15  2  0
 17 18  1  0
 20 24  1  0
 20 19  1  0
 20 21  1  6
 22 21  1  0
 22 23  2  0
 24 27  1  0
 25 24  2  0
 26 22  1  0
M  END
$$$$
