CYD.pdb
     RDKit          3D

 27 27  0  0  1  0  0  0  0  0999 V2000
   25.0613  -13.0252  -16.4142 N   0  0  0  0  0  0  0  0  0  0  0  0
   24.6071  -11.9449  -17.2289 C   0  0  1  0  0  0  0  0  0  0  0  0
   23.7202  -12.3919  -18.3684 C   0  0  0  0  0  0  0  0  0  0  0  0
   24.5954  -13.6772  -19.3021 S   0  0  0  0  0  0  0  0  0  0  0  0
   23.9904  -10.8350  -16.4559 C   0  0  0  0  0  0  0  0  0  0  0  0
   23.1770  -11.1211  -15.5647 O   0  0  0  0  0  0  0  0  0  0  0  0
   21.4282   -2.5402  -14.3658 O   0  0  0  0  0  0  0  0  0  0  0  0
   22.1501   -3.6646  -14.7753 C   0  0  0  0  0  0  0  0  0  0  0  0
   22.2442   -4.7642  -13.9518 C   0  0  0  0  0  0  0  0  0  0  0  0
   22.9517   -5.8804  -14.3401 C   0  0  0  0  0  0  0  0  0  0  0  0
   23.6007   -5.9492  -15.5753 C   0  0  0  0  0  0  0  0  0  0  0  0
   24.3679   -7.1401  -15.9518 C   0  0  0  0  0  0  0  0  0  0  0  0
   23.5480   -8.3738  -16.0622 C   0  0  2  0  0  0  0  0  0  0  0  0
   24.2864   -9.4648  -16.6871 N   0  0  0  0  0  0  0  0  0  0  0  0
   22.2760   -8.1125  -16.7306 C   0  0  0  0  0  0  0  0  0  0  0  0
   22.2595   -8.0099  -17.9799 O   0  0  0  0  0  0  0  0  0  0  0  0
   23.4919   -4.8367  -16.3812 C   0  0  0  0  0  0  0  0  0  0  0  0
   22.7850   -3.7154  -15.9986 C   0  0  0  0  0  0  0  0  0  0  0  0
   21.0331   -7.9632  -16.0596 N   0  0  0  0  0  0  0  0  0  0  0  0
   19.8119   -7.7563  -16.8545 C   0  0  1  0  0  0  0  0  0  0  0  0
   18.8446   -8.8747  -16.6458 C   0  0  0  0  0  0  0  0  0  0  0  0
   18.0692   -9.2343  -17.8506 C   0  0  0  0  0  0  0  0  0  0  0  0
   18.2122   -8.6543  -18.9702 O   0  0  0  0  0  0  0  0  0  0  0  0
   19.2280   -6.4311  -16.5775 C   0  0  0  0  0  0  0  0  0  0  0  0
   19.2628   -5.8703  -15.4564 O   0  0  0  0  0  0  0  0  0  0  0  0
   17.1171  -10.2682  -17.7829 O   0  0  0  0  0  0  0  0  0  0  0  0
   18.6011   -5.7517  -17.6061 O   0  0  0  0  0  0  0  0  0  0  0  0
  2  1  1  1
  2  3  1  0
  4  3  1  0
  5  2  1  0
  6  5  2  0
  8  7  1  0
  8 18  2  0
  9  8  1  0
 10  9  2  0
 10 11  1  0
 11 17  2  0
 13 12  1  6
 12 11  1  0
 13 14  1  0
 14  5  1  0
 15 13  1  0
 15 19  1  0
 16 15  2  0
 17 18  1  0
 20 24  1  0
 20 19  1  0
 20 21  1  1
 22 21  1  0
 22 23  2  0
 24 27  1  0
 25 24  2  0
 26 22  1  0
M  END
$$$$
