CYD.pdb
     RDKit          3D

 27 27  0  0  1  0  0  0  0  0999 V2000
   27.4536  -23.7058  -17.4071 N   0  0  0  0  0  0  0  0  0  0  0  0
   27.0685  -22.3967  -16.9889 C   0  0  1  0  0  0  0  0  0  0  0  0
   26.3724  -21.6070  -18.0737 C   0  0  0  0  0  0  0  0  0  0  0  0
   27.5482  -21.3402  -19.4288 S   0  0  0  0  0  0  0  0  0  0  0  0
   26.2981  -22.3806  -15.7176 C   0  0  0  0  0  0  0  0  0  0  0  0
   25.4384  -23.2566  -15.5409 O   0  0  0  0  0  0  0  0  0  0  0  0
   23.4873  -20.3246   -7.5096 O   0  0  0  0  0  0  0  0  0  0  0  0
   24.1707  -20.3676   -8.7278 C   0  0  0  0  0  0  0  0  0  0  0  0
   25.2537  -21.2035   -8.8846 C   0  0  0  0  0  0  0  0  0  0  0  0
   25.9382  -21.2580  -10.0787 C   0  0  0  0  0  0  0  0  0  0  0  0
   25.5700  -20.4757  -11.1760 C   0  0  0  0  0  0  0  0  0  0  0  0
   26.3324  -20.5354  -12.4265 C   0  0  0  0  0  0  0  0  0  0  0  0
   25.6887  -21.3545  -13.4852 C   0  0  2  0  0  0  0  0  0  0  0  0
   26.4978  -21.4130  -14.6968 N   0  0  0  0  0  0  0  0  0  0  0  0
   24.3244  -20.9067  -13.7524 C   0  0  0  0  0  0  0  0  0  0  0  0
   24.1510  -19.8781  -14.4477 O   0  0  0  0  0  0  0  0  0  0  0  0
   24.4837  -19.6477  -10.9943 C   0  0  0  0  0  0  0  0  0  0  0  0
   23.7934  -19.5881   -9.8012 C   0  0  0  0  0  0  0  0  0  0  0  0
   23.1575  -21.5608  -13.2749 N   0  0  0  0  0  0  0  0  0  0  0  0
   21.8382  -20.9919  -13.5935 C   0  0  1  0  0  0  0  0  0  0  0  0
   21.2083  -21.7155  -14.7380 C   0  0  0  0  0  0  0  0  0  0  0  0
   19.8648  -21.2190  -15.0996 C   0  0  0  0  0  0  0  0  0  0  0  0
   19.4350  -20.0707  -14.7728 O   0  0  0  0  0  0  0  0  0  0  0  0
   20.9821  -20.9567  -12.3936 C   0  0  0  0  0  0  0  0  0  0  0  0
   19.8019  -20.5330  -12.3868 O   0  0  0  0  0  0  0  0  0  0  0  0
   18.9965  -22.0391  -15.8436 O   0  0  0  0  0  0  0  0  0  0  0  0
   21.4968  -21.4163  -11.1950 O   0  0  0  0  0  0  0  0  0  0  0  0
  2  1  1  6
  2  3  1  0
  4  3  1  0
  5  2  1  0
  6  5  2  0
  8  7  1  0
  8 18  2  0
  9  8  1  0
 10  9  2  0
 10 11  1  0
 11 17  2  0
 13 12  1  1
 12 11  1  0
 13 14  1  0
 14  5  1  0
 15 13  1  0
 15 19  1  0
 16 15  2  0
 17 18  1  0
 20 24  1  0
 20 19  1  0
 20 21  1  6
 22 21  1  0
 22 23  2  0
 24 27  1  0
 25 24  2  0
 26 22  1  0
M  END
$$$$
