TED.pdb
     RDKit          3D

 25 24  0  0  1  0  0  0  0  0999 V2000
    9.7561  -13.1896   18.1361 C   0  0  0  0  0  0  0  0  0  0  0  0
    8.3802  -13.1277   18.7361 C   0  0  1  0  0  0  0  0  0  0  0  0
    7.4518  -12.6089   17.8248 O   0  0  0  0  0  0  0  0  0  0  0  0
    7.8978  -14.4259   19.3221 C   0  0  2  0  0  0  0  0  0  0  0  0
    6.6263  -14.0754   20.0025 N   0  0  0  0  0  0  0  0  0  0  0  0
    8.8353  -14.9191   20.3524 C   0  0  0  0  0  0  0  0  0  0  0  0
    8.9291  -14.2806   21.4549 O   0  0  0  0  0  0  0  0  0  0  0  0
    9.6653  -16.0655   20.2416 N   0  0  0  0  0  0  0  0  0  0  0  0
   10.6135  -16.4047   21.3023 C   0  0  1  0  0  0  0  0  0  0  0  0
   10.4168  -17.8418   21.7511 C   0  0  0  0  0  0  0  0  0  0  0  0
    9.0244  -18.1049   22.2489 C   0  0  0  0  0  0  0  0  0  0  0  0
    8.8781  -19.5537   22.5396 C   0  0  0  0  0  0  0  0  0  0  0  0
    8.9002  -20.4464   21.6500 O   0  0  0  0  0  0  0  0  0  0  0  0
   12.0279  -16.2433   20.8964 C   0  0  0  0  0  0  0  0  0  0  0  0
   12.3076  -16.2382   19.6561 O   0  0  0  0  0  0  0  0  0  0  0  0
    8.7044  -20.0036   23.8506 O   0  0  0  0  0  0  0  0  0  0  0  0
   13.1098  -16.0916   21.7880 N   0  0  0  0  0  0  0  0  0  0  0  0
   14.5086  -15.9051   21.3703 C   0  0  1  0  0  0  0  0  0  0  0  0
   14.4939  -14.6551   20.5238 C   0  0  0  0  0  0  0  0  0  0  0  0
   15.7326  -14.3903   19.7839 C   0  0  0  0  0  0  0  0  0  0  0  0
   16.5183  -15.2803   19.4254 O   0  0  0  0  0  0  0  0  0  0  0  0
   15.3919  -15.8592   22.5341 C   0  0  0  0  0  0  0  0  0  0  0  0
   14.9681  -15.9534   23.8339 O   0  0  0  0  0  0  0  0  0  0  0  0
   16.0206  -13.0538   19.4790 O   0  0  0  0  0  0  0  0  0  0  0  0
   16.6346  -15.7233   22.3574 O   0  0  0  0  0  0  0  0  0  0  0  0
  2  1  1  6
  2  4  1  0
  3  2  1  0
  4  6  1  0
  4  5  1  1
  6  8  1  0
  6  7  2  0
  8  9  1  0
  9 14  1  0
  9 10  1  6
 10 11  1  0
 12 11  1  0
 12 16  1  0
 13 12  2  0
 14 15  2  0
 17 14  1  0
 17 18  1  0
 18 19  1  1
 20 19  1  0
 20 24  1  0
 21 20  2  0
 22 18  1  0
 22 23  1  0
 25 22  2  0
M  END
$$$$
