TED.pdb
     RDKit          3D

 25 24  0  0  1  0  0  0  0  0999 V2000
    8.8392  -12.1470   20.3495 C   0  0  0  0  0  0  0  0  0  0  0  0
    7.8717  -12.7926   19.3985 C   0  0  1  0  0  0  0  0  0  0  0  0
    6.9064  -11.8784   18.9581 O   0  0  0  0  0  0  0  0  0  0  0  0
    8.5170  -13.5007   18.2395 C   0  0  2  0  0  0  0  0  0  0  0  0
    7.4057  -14.2426   17.5935 N   0  0  0  0  0  0  0  0  0  0  0  0
    9.5030  -14.4946   18.7125 C   0  0  0  0  0  0  0  0  0  0  0  0
    9.0818  -15.5441   19.3069 O   0  0  0  0  0  0  0  0  0  0  0  0
   10.9122  -14.4026   18.5677 N   0  0  0  0  0  0  0  0  0  0  0  0
   11.7847  -15.4594   19.0785 C   0  0  1  0  0  0  0  0  0  0  0  0
   13.1112  -15.4566   18.3396 C   0  0  0  0  0  0  0  0  0  0  0  0
   13.8501  -14.1573   18.4864 C   0  0  0  0  0  0  0  0  0  0  0  0
   15.1375  -14.2449   17.7515 C   0  0  0  0  0  0  0  0  0  0  0  0
   16.2322  -14.5421   18.3012 O   0  0  0  0  0  0  0  0  0  0  0  0
   12.0688  -15.3350   20.5259 C   0  0  0  0  0  0  0  0  0  0  0  0
   12.2499  -14.1742   21.0123 O   0  0  0  0  0  0  0  0  0  0  0  0
   15.1930  -13.9943   16.3784 O   0  0  0  0  0  0  0  0  0  0  0  0
   12.1564  -16.4171   21.4258 N   0  0  0  0  0  0  0  0  0  0  0  0
   12.4823  -16.2829   22.8547 C   0  0  1  0  0  0  0  0  0  0  0  0
   11.6344  -17.3258   23.5422 C   0  0  0  0  0  0  0  0  0  0  0  0
   11.8631  -17.4613   24.9849 C   0  0  0  0  0  0  0  0  0  0  0  0
   11.6672  -18.5128   25.6124 O   0  0  0  0  0  0  0  0  0  0  0  0
   13.9227  -16.4110   23.0687 C   0  0  0  0  0  0  0  0  0  0  0  0
   14.8219  -16.7723   22.0998 O   0  0  0  0  0  0  0  0  0  0  0  0
   12.3266  -16.3288   25.6667 O   0  0  0  0  0  0  0  0  0  0  0  0
   14.3965  -16.1791   24.2159 O   0  0  0  0  0  0  0  0  0  0  0  0
  2  1  1  6
  2  4  1  0
  3  2  1  0
  4  6  1  0
  4  5  1  1
  6  8  1  0
  6  7  2  0
  8  9  1  0
  9 14  1  0
  9 10  1  6
 10 11  1  0
 12 11  1  0
 12 16  1  0
 13 12  2  0
 14 15  2  0
 17 14  1  0
 17 18  1  0
 18 19  1  1
 20 19  1  0
 20 24  1  0
 21 20  2  0
 22 18  1  0
 22 23  1  0
 25 22  2  0
M  END
$$$$
