TED.pdb
     RDKit          3D

 25 24  0  0  1  0  0  0  0  0999 V2000
    9.4588  -15.6965   16.9621 C   0  0  0  0  0  0  0  0  0  0  0  0
    8.9759  -14.2748   17.0128 C   0  0  1  0  0  0  0  0  0  0  0  0
    8.7496  -13.7693   15.7264 O   0  0  0  0  0  0  0  0  0  0  0  0
    7.7820  -14.0543   17.9001 C   0  0  2  0  0  0  0  0  0  0  0  0
    7.6181  -12.5798   17.9410 N   0  0  0  0  0  0  0  0  0  0  0  0
    8.0579  -14.5121   19.2777 C   0  0  0  0  0  0  0  0  0  0  0  0
    8.8680  -13.8375   19.9994 O   0  0  0  0  0  0  0  0  0  0  0  0
    7.4968  -15.6568   19.9022 N   0  0  0  0  0  0  0  0  0  0  0  0
    7.9306  -16.0655   21.2378 C   0  0  1  0  0  0  0  0  0  0  0  0
    7.0121  -17.1418   21.7886 C   0  0  0  0  0  0  0  0  0  0  0  0
    5.5602  -16.8335   21.5592 C   0  0  0  0  0  0  0  0  0  0  0  0
    4.7797  -18.0951   21.6236 C   0  0  0  0  0  0  0  0  0  0  0  0
    3.7680  -18.3233   20.9071 O   0  0  0  0  0  0  0  0  0  0  0  0
    9.3153  -16.5879   21.2690 C   0  0  0  0  0  0  0  0  0  0  0  0
    9.7247  -17.2837   20.2866 O   0  0  0  0  0  0  0  0  0  0  0  0
    5.1434  -19.1140   22.5071 O   0  0  0  0  0  0  0  0  0  0  0  0
   10.2341  -16.3734   22.3169 N   0  0  0  0  0  0  0  0  0  0  0  0
   11.5995  -16.9218   22.3477 C   0  0  1  0  0  0  0  0  0  0  0  0
   12.5011  -15.7127   22.2813 C   0  0  0  0  0  0  0  0  0  0  0  0
   13.9127  -16.0037   22.0076 C   0  0  0  0  0  0  0  0  0  0  0  0
   14.2985  -17.0241   21.4179 O   0  0  0  0  0  0  0  0  0  0  0  0
   11.7858  -17.7743   23.5205 C   0  0  0  0  0  0  0  0  0  0  0  0
   12.7773  -18.7115   23.6487 O   0  0  0  0  0  0  0  0  0  0  0  0
   14.8546  -15.0642   22.4461 O   0  0  0  0  0  0  0  0  0  0  0  0
   10.9920  -17.6599   24.4957 O   0  0  0  0  0  0  0  0  0  0  0  0
  2  1  1  6
  2  4  1  0
  3  2  1  0
  4  6  1  0
  4  5  1  1
  6  8  1  0
  6  7  2  0
  8  9  1  0
  9 14  1  0
  9 10  1  6
 10 11  1  0
 12 11  1  0
 12 16  1  0
 13 12  2  0
 14 15  2  0
 17 14  1  0
 17 18  1  0
 18 19  1  1
 20 19  1  0
 20 24  1  0
 21 20  2  0
 22 18  1  0
 22 23  1  0
 25 22  2  0
M  END
$$$$
