TED.pdb
     RDKit          3D

 25 24  0  0  1  0  0  0  0  0999 V2000
    7.5375  -11.8417   19.6229 C   0  0  0  0  0  0  0  0  0  0  0  0
    8.5083  -12.9621   19.8665 C   0  0  1  0  0  0  0  0  0  0  0  0
    7.9241  -13.9840   20.6254 O   0  0  0  0  0  0  0  0  0  0  0  0
    9.1511  -13.5101   18.6224 C   0  0  2  0  0  0  0  0  0  0  0  0
    8.0257  -14.0918   17.8493 N   0  0  0  0  0  0  0  0  0  0  0  0
   10.0830  -14.6088   18.9514 C   0  0  0  0  0  0  0  0  0  0  0  0
    9.6938  -15.8148   18.7890 O   0  0  0  0  0  0  0  0  0  0  0  0
   11.4069  -14.4583   19.4410 N   0  0  0  0  0  0  0  0  0  0  0  0
   12.2322  -15.6305   19.7312 C   0  0  1  0  0  0  0  0  0  0  0  0
   13.4259  -15.6849   18.7944 C   0  0  0  0  0  0  0  0  0  0  0  0
   14.0063  -14.3269   18.5208 C   0  0  0  0  0  0  0  0  0  0  0  0
   15.2023  -14.4756   17.6533 C   0  0  0  0  0  0  0  0  0  0  0  0
   15.1417  -14.5795   16.3986 O   0  0  0  0  0  0  0  0  0  0  0  0
   12.7416  -15.6580   21.1208 C   0  0  0  0  0  0  0  0  0  0  0  0
   13.0673  -14.5588   21.6707 O   0  0  0  0  0  0  0  0  0  0  0  0
   16.4846  -14.5077   18.2066 O   0  0  0  0  0  0  0  0  0  0  0  0
   12.8978  -16.8236   21.8989 N   0  0  0  0  0  0  0  0  0  0  0  0
   13.3346  -16.8301   23.3042 C   0  0  1  0  0  0  0  0  0  0  0  0
   12.8923  -18.1712   23.8383 C   0  0  0  0  0  0  0  0  0  0  0  0
   11.4398  -18.3653   23.9066 C   0  0  0  0  0  0  0  0  0  0  0  0
   10.6398  -17.4541   24.1663 O   0  0  0  0  0  0  0  0  0  0  0  0
   14.7688  -16.5639   23.3990 C   0  0  0  0  0  0  0  0  0  0  0  0
   15.6140  -16.4744   22.3241 O   0  0  0  0  0  0  0  0  0  0  0  0
   10.9564  -19.6571   23.6624 O   0  0  0  0  0  0  0  0  0  0  0  0
   15.2898  -16.4022   24.5377 O   0  0  0  0  0  0  0  0  0  0  0  0
  2  1  1  6
  2  4  1  0
  3  2  1  0
  4  6  1  0
  4  5  1  6
  6  8  1  0
  6  7  2  0
  8  9  1  0
  9 14  1  0
  9 10  1  6
 10 11  1  0
 12 11  1  0
 12 16  1  0
 13 12  2  0
 14 15  2  0
 17 14  1  0
 17 18  1  0
 18 19  1  6
 20 19  1  0
 20 24  1  0
 21 20  2  0
 22 18  1  0
 22 23  1  0
 25 22  2  0
M  END
$$$$
