TED.pdb
     RDKit          3D

 25 24  0  0  1  0  0  0  0  0999 V2000
   10.6002  -13.4646   19.2212 C   0  0  0  0  0  0  0  0  0  0  0  0
    9.1701  -13.0373   19.3929 C   0  0  1  0  0  0  0  0  0  0  0  0
    8.9382  -11.7901   18.7994 O   0  0  0  0  0  0  0  0  0  0  0  0
    8.1583  -14.0518   18.9365 C   0  0  2  0  0  0  0  0  0  0  0  0
    6.8605  -13.5292   19.4317 N   0  0  0  0  0  0  0  0  0  0  0  0
    8.3921  -15.3580   19.5868 C   0  0  0  0  0  0  0  0  0  0  0  0
    7.8837  -15.5710   20.7393 O   0  0  0  0  0  0  0  0  0  0  0  0
    9.1432  -16.4342   19.0456 N   0  0  0  0  0  0  0  0  0  0  0  0
    9.4252  -17.6242   19.8479 C   0  0  1  0  0  0  0  0  0  0  0  0
    9.6881  -18.8202   18.9502 C   0  0  0  0  0  0  0  0  0  0  0  0
   10.7427  -18.5445   17.9169 C   0  0  0  0  0  0  0  0  0  0  0  0
   10.9324  -19.7571   17.0810 C   0  0  0  0  0  0  0  0  0  0  0  0
   12.0163  -20.3979   17.0227 O   0  0  0  0  0  0  0  0  0  0  0  0
   10.5916  -17.4622   20.7449 C   0  0  0  0  0  0  0  0  0  0  0  0
   11.0318  -18.4841   21.3602 O   0  0  0  0  0  0  0  0  0  0  0  0
    9.8870  -20.2551   16.2998 O   0  0  0  0  0  0  0  0  0  0  0  0
   11.2670  -16.2463   20.9770 N   0  0  0  0  0  0  0  0  0  0  0  0
   12.4654  -16.1113   21.8204 C   0  0  1  0  0  0  0  0  0  0  0  0
   13.1800  -14.8955   21.2816 C   0  0  0  0  0  0  0  0  0  0  0  0
   13.8505  -15.0889   19.9913 C   0  0  0  0  0  0  0  0  0  0  0  0
   14.5095  -16.1006   19.7081 O   0  0  0  0  0  0  0  0  0  0  0  0
   12.0959  -16.0419   23.2330 C   0  0  0  0  0  0  0  0  0  0  0  0
   12.9869  -16.1079   24.2721 O   0  0  0  0  0  0  0  0  0  0  0  0
   13.7253  -14.0622   19.0467 O   0  0  0  0  0  0  0  0  0  0  0  0
   10.8791  -15.9131   23.5443 O   0  0  0  0  0  0  0  0  0  0  0  0
  2  1  1  6
  2  4  1  0
  3  2  1  0
  4  6  1  0
  4  5  1  1
  6  8  1  0
  6  7  2  0
  8  9  1  0
  9 14  1  0
  9 10  1  6
 10 11  1  0
 12 11  1  0
 12 16  1  0
 13 12  2  0
 14 15  2  0
 17 14  1  0
 17 18  1  0
 18 19  1  6
 20 19  1  0
 20 24  1  0
 21 20  2  0
 22 18  1  0
 22 23  1  0
 25 22  2  0
M  END
$$$$
