TED.pdb
     RDKit          3D

 25 24  0  0  1  0  0  0  0  0999 V2000
    7.3812  -11.9534   19.6058 C   0  0  0  0  0  0  0  0  0  0  0  0
    8.5530  -12.8863   19.7229 C   0  0  1  0  0  0  0  0  0  0  0  0
    8.3575  -13.8209   20.7475 O   0  0  0  0  0  0  0  0  0  0  0  0
    8.9402  -13.5637   18.4374 C   0  0  2  0  0  0  0  0  0  0  0  0
    7.8096  -14.4802   18.1466 N   0  0  0  0  0  0  0  0  0  0  0  0
   10.1506  -14.3911   18.6219 C   0  0  0  0  0  0  0  0  0  0  0  0
   10.0121  -15.6326   18.8895 O   0  0  0  0  0  0  0  0  0  0  0  0
   11.4919  -13.9360   18.5268 N   0  0  0  0  0  0  0  0  0  0  0  0
   12.6067  -14.8325   18.8314 C   0  0  1  0  0  0  0  0  0  0  0  0
   13.8623  -14.3848   18.1044 C   0  0  0  0  0  0  0  0  0  0  0  0
   15.0455  -15.2597   18.4052 C   0  0  0  0  0  0  0  0  0  0  0  0
   16.2191  -14.7702   17.6383 C   0  0  0  0  0  0  0  0  0  0  0  0
   16.2176  -14.6207   16.3867 O   0  0  0  0  0  0  0  0  0  0  0  0
   12.9189  -14.9080   20.2764 C   0  0  0  0  0  0  0  0  0  0  0  0
   13.0070  -13.8249   20.9367 O   0  0  0  0  0  0  0  0  0  0  0  0
   17.4109  -14.4446   18.2898 O   0  0  0  0  0  0  0  0  0  0  0  0
   13.1301  -16.1034   20.9938 N   0  0  0  0  0  0  0  0  0  0  0  0
   13.4530  -16.1636   22.4283 C   0  0  1  0  0  0  0  0  0  0  0  0
   12.7007  -17.3675   22.9418 C   0  0  0  0  0  0  0  0  0  0  0  0
   12.9908  -17.7361   24.3318 C   0  0  0  0  0  0  0  0  0  0  0  0
   12.5230  -17.1350   25.3104 O   0  0  0  0  0  0  0  0  0  0  0  0
   14.9004  -16.2010   22.6293 C   0  0  0  0  0  0  0  0  0  0  0  0
   15.5274  -15.9055   23.8114 O   0  0  0  0  0  0  0  0  0  0  0  0
   13.8444  -18.8275   24.5379 O   0  0  0  0  0  0  0  0  0  0  0  0
   15.6468  -16.5240   21.6635 O   0  0  0  0  0  0  0  0  0  0  0  0
  2  1  1  6
  2  4  1  0
  3  2  1  0
  4  6  1  0
  4  5  1  1
  6  8  1  0
  6  7  2  0
  8  9  1  0
  9 14  1  0
  9 10  1  6
 10 11  1  0
 12 11  1  0
 12 16  1  0
 13 12  2  0
 14 15  2  0
 17 14  1  0
 17 18  1  0
 18 19  1  6
 20 19  1  0
 20 24  1  0
 21 20  2  0
 22 18  1  0
 22 23  1  0
 25 22  2  0
M  END
$$$$
