TED.pdb
     RDKit          3D

 25 24  0  0  1  0  0  0  0  0999 V2000
    9.3093  -12.6218   20.6979 C   0  0  0  0  0  0  0  0  0  0  0  0
    8.0982  -12.8898   19.8502 C   0  0  1  0  0  0  0  0  0  0  0  0
    7.6944  -11.7381   19.1632 O   0  0  0  0  0  0  0  0  0  0  0  0
    8.2400  -14.0581   18.9141 C   0  0  2  0  0  0  0  0  0  0  0  0
    6.8753  -14.2629   18.3678 N   0  0  0  0  0  0  0  0  0  0  0  0
    8.6145  -15.2821   19.6525 C   0  0  0  0  0  0  0  0  0  0  0  0
    7.7126  -15.9044   20.3095 O   0  0  0  0  0  0  0  0  0  0  0  0
    9.9113  -15.8572   19.7066 N   0  0  0  0  0  0  0  0  0  0  0  0
   10.1407  -17.1130   20.4203 C   0  0  1  0  0  0  0  0  0  0  0  0
   10.9693  -18.0621   19.5728 C   0  0  0  0  0  0  0  0  0  0  0  0
   12.4450  -17.8989   19.7999 C   0  0  0  0  0  0  0  0  0  0  0  0
   13.1791  -18.8470   18.9240 C   0  0  0  0  0  0  0  0  0  0  0  0
   14.2490  -19.4203   19.2637 O   0  0  0  0  0  0  0  0  0  0  0  0
   10.8363  -16.9320   21.7144 C   0  0  0  0  0  0  0  0  0  0  0  0
   11.6097  -15.9325   21.8542 O   0  0  0  0  0  0  0  0  0  0  0  0
   12.7017  -19.1537   17.6476 O   0  0  0  0  0  0  0  0  0  0  0  0
   10.7094  -17.7919   22.8247 N   0  0  0  0  0  0  0  0  0  0  0  0
   11.3697  -17.5743   24.1218 C   0  0  1  0  0  0  0  0  0  0  0  0
   10.5228  -18.3312   25.1164 C   0  0  0  0  0  0  0  0  0  0  0  0
   11.0379  -18.3437   26.4899 C   0  0  0  0  0  0  0  0  0  0  0  0
   11.2528  -19.3839   27.1300 O   0  0  0  0  0  0  0  0  0  0  0  0
   12.7723  -17.9815   24.0605 C   0  0  0  0  0  0  0  0  0  0  0  0
   13.7716  -17.4395   24.8256 O   0  0  0  0  0  0  0  0  0  0  0  0
   11.2918  -17.1026   27.0876 O   0  0  0  0  0  0  0  0  0  0  0  0
   13.1130  -18.8924   23.2552 O   0  0  0  0  0  0  0  0  0  0  0  0
  2  1  1  6
  2  4  1  0
  3  2  1  0
  4  6  1  0
  4  5  1  1
  6  8  1  0
  6  7  2  0
  8  9  1  0
  9 14  1  0
  9 10  1  6
 10 11  1  0
 12 11  1  0
 12 16  1  0
 13 12  2  0
 14 15  2  0
 17 14  1  0
 17 18  1  0
 18 19  1  1
 20 19  1  0
 20 24  1  0
 21 20  2  0
 22 18  1  0
 22 23  1  0
 25 22  2  0
M  END
$$$$
