TED.pdb
     RDKit          3D

 25 24  0  0  1  0  0  0  0  0999 V2000
   11.0498  -14.3029   18.1181 C   0  0  0  0  0  0  0  0  0  0  0  0
    9.9100  -13.3425   17.9298 C   0  0  1  0  0  0  0  0  0  0  0  0
    9.9401  -12.7626   16.6553 O   0  0  0  0  0  0  0  0  0  0  0  0
    8.5542  -13.9188   18.2316 C   0  0  2  0  0  0  0  0  0  0  0  0
    7.6356  -12.7545   18.1739 N   0  0  0  0  0  0  0  0  0  0  0  0
    8.5058  -14.4591   19.6062 C   0  0  0  0  0  0  0  0  0  0  0  0
    8.3829  -13.6450   20.5831 O   0  0  0  0  0  0  0  0  0  0  0  0
    8.5809  -15.8308   19.9641 N   0  0  0  0  0  0  0  0  0  0  0  0
    8.6305  -16.2329   21.3694 C   0  0  1  0  0  0  0  0  0  0  0  0
    7.6164  -17.3290   21.6445 C   0  0  0  0  0  0  0  0  0  0  0  0
    7.8056  -18.5255   20.7566 C   0  0  0  0  0  0  0  0  0  0  0  0
    6.7998  -19.5584   21.1124 C   0  0  0  0  0  0  0  0  0  0  0  0
    5.6573  -19.6263   20.5844 O   0  0  0  0  0  0  0  0  0  0  0  0
    9.9611  -16.7269   21.7901 C   0  0  0  0  0  0  0  0  0  0  0  0
   10.6706  -17.3578   20.9443 O   0  0  0  0  0  0  0  0  0  0  0  0
    7.0846  -20.5283   22.0764 O   0  0  0  0  0  0  0  0  0  0  0  0
   10.5165  -16.5520   23.0744 N   0  0  0  0  0  0  0  0  0  0  0  0
   11.8083  -17.1121   23.5024 C   0  0  1  0  0  0  0  0  0  0  0  0
   12.8170  -16.0318   23.1943 C   0  0  0  0  0  0  0  0  0  0  0  0
   14.1925  -16.5026   22.9984 C   0  0  0  0  0  0  0  0  0  0  0  0
   14.5367  -17.6857   23.1386 O   0  0  0  0  0  0  0  0  0  0  0  0
   11.7504  -17.5295   24.9021 C   0  0  0  0  0  0  0  0  0  0  0  0
   12.5655  -18.4774   25.4634 O   0  0  0  0  0  0  0  0  0  0  0  0
   15.1488  -15.5458   22.6348 O   0  0  0  0  0  0  0  0  0  0  0  0
   10.8995  -16.9963   25.6676 O   0  0  0  0  0  0  0  0  0  0  0  0
  2  1  1  6
  2  4  1  0
  3  2  1  0
  4  6  1  0
  4  5  1  1
  6  8  1  0
  6  7  2  0
  8  9  1  0
  9 14  1  0
  9 10  1  6
 10 11  1  0
 12 11  1  0
 12 16  1  0
 13 12  2  0
 14 15  2  0
 17 14  1  0
 17 18  1  0
 18 19  1  1
 20 19  1  0
 20 24  1  0
 21 20  2  0
 22 18  1  0
 22 23  1  0
 25 22  2  0
M  END
$$$$
