TED.pdb
     RDKit          3D

 25 24  0  0  1  0  0  0  0  0999 V2000
   13.3953  -18.8222   18.2736 C   0  0  0  0  0  0  0  0  0  0  0  0
   11.9928  -18.3648   17.9895 C   0  0  1  0  0  0  0  0  0  0  0  0
   11.4922  -18.9567   16.8230 O   0  0  0  0  0  0  0  0  0  0  0  0
   11.0374  -18.5368   19.1380 C   0  0  2  0  0  0  0  0  0  0  0  0
    9.7468  -18.0104   18.6282 N   0  0  0  0  0  0  0  0  0  0  0  0
   11.4394  -17.6994   20.2873 C   0  0  0  0  0  0  0  0  0  0  0  0
   11.8808  -16.5212   20.0653 O   0  0  0  0  0  0  0  0  0  0  0  0
   11.3811  -18.0789   21.6540 N   0  0  0  0  0  0  0  0  0  0  0  0
   11.9974  -17.2456   22.6860 C   0  0  1  0  0  0  0  0  0  0  0  0
   11.4378  -17.5934   24.0540 C   0  0  0  0  0  0  0  0  0  0  0  0
   11.5200  -19.0628   24.3538 C   0  0  0  0  0  0  0  0  0  0  0  0
   10.9692  -19.3134   25.7099 C   0  0  0  0  0  0  0  0  0  0  0  0
    9.7368  -19.2934   25.9736 O   0  0  0  0  0  0  0  0  0  0  0  0
   13.4700  -17.3835   22.7473 C   0  0  0  0  0  0  0  0  0  0  0  0
   13.9819  -18.5305   22.5493 O   0  0  0  0  0  0  0  0  0  0  0  0
   11.8182  -19.5904   26.7840 O   0  0  0  0  0  0  0  0  0  0  0  0
   14.3678  -16.3288   23.0116 N   0  0  0  0  0  0  0  0  0  0  0  0
   15.8284  -16.4858   23.1001 C   0  0  1  0  0  0  0  0  0  0  0  0
   16.3814  -15.1120   22.8065 C   0  0  0  0  0  0  0  0  0  0  0  0
   16.9846  -14.9549   21.4785 C   0  0  0  0  0  0  0  0  0  0  0  0
   17.1110  -15.8871   20.6705 O   0  0  0  0  0  0  0  0  0  0  0  0
   16.2086  -17.0468   24.3953 C   0  0  0  0  0  0  0  0  0  0  0  0
   17.3686  -17.7371   24.6314 O   0  0  0  0  0  0  0  0  0  0  0  0
   17.4340  -13.6751   21.1290 O   0  0  0  0  0  0  0  0  0  0  0  0
   15.4324  -16.9000   25.3802 O   0  0  0  0  0  0  0  0  0  0  0  0
  2  1  1  1
  2  4  1  0
  3  2  1  0
  4  6  1  0
  4  5  1  6
  6  8  1  0
  6  7  2  0
  8  9  1  0
  9 14  1  0
  9 10  1  1
 10 11  1  0
 12 11  1  0
 12 16  1  0
 13 12  2  0
 14 15  2  0
 17 14  1  0
 17 18  1  0
 18 19  1  1
 20 19  1  0
 20 24  1  0
 21 20  2  0
 22 18  1  0
 22 23  1  0
 25 22  2  0
M  END
$$$$
