TED.pdb
     RDKit          3D

 25 24  0  0  1  0  0  0  0  0999 V2000
    8.9167  -15.6518   16.9493 C   0  0  0  0  0  0  0  0  0  0  0  0
    8.6887  -14.1729   17.0837 C   0  0  1  0  0  0  0  0  0  0  0  0
    8.2972  -13.6066   15.8641 O   0  0  0  0  0  0  0  0  0  0  0  0
    7.7451  -13.7866   18.1889 C   0  0  2  0  0  0  0  0  0  0  0  0
    7.7633  -12.3026   18.1899 N   0  0  0  0  0  0  0  0  0  0  0  0
    8.2547  -14.2411   19.4994 C   0  0  0  0  0  0  0  0  0  0  0  0
    9.2669  -13.6479   20.0051 O   0  0  0  0  0  0  0  0  0  0  0  0
    7.7179  -15.2987   20.2796 N   0  0  0  0  0  0  0  0  0  0  0  0
    8.3904  -15.7395   21.5013 C   0  0  1  0  0  0  0  0  0  0  0  0
    7.5979  -16.8462   22.1742 C   0  0  0  0  0  0  0  0  0  0  0  0
    8.2182  -17.2957   23.4661 C   0  0  0  0  0  0  0  0  0  0  0  0
    7.4272  -18.4250   24.0177 C   0  0  0  0  0  0  0  0  0  0  0  0
    6.9950  -18.4575   25.2013 O   0  0  0  0  0  0  0  0  0  0  0  0
    9.7632  -16.2405   21.2654 C   0  0  0  0  0  0  0  0  0  0  0  0
   10.0458  -16.7248   20.1241 O   0  0  0  0  0  0  0  0  0  0  0  0
    7.1188  -19.5332   23.2252 O   0  0  0  0  0  0  0  0  0  0  0  0
   10.8019  -16.2243   22.2188 N   0  0  0  0  0  0  0  0  0  0  0  0
   12.2333  -16.3071   21.8872 C   0  0  1  0  0  0  0  0  0  0  0  0
   12.4685  -15.1778   20.9132 C   0  0  0  0  0  0  0  0  0  0  0  0
   13.4518  -15.4581   19.8613 C   0  0  0  0  0  0  0  0  0  0  0  0
   13.7652  -16.6042   19.5062 O   0  0  0  0  0  0  0  0  0  0  0  0
   13.0467  -16.2625   23.1010 C   0  0  0  0  0  0  0  0  0  0  0  0
   12.6011  -15.8159   24.3175 O   0  0  0  0  0  0  0  0  0  0  0  0
   14.0547  -14.3563   19.2412 O   0  0  0  0  0  0  0  0  0  0  0  0
   14.2454  -16.6561   23.0522 O   0  0  0  0  0  0  0  0  0  0  0  0
  2  1  1  6
  2  4  1  0
  3  2  1  0
  4  6  1  0
  4  5  1  1
  6  8  1  0
  6  7  2  0
  8  9  1  0
  9 14  1  0
  9 10  1  6
 10 11  1  0
 12 11  1  0
 12 16  1  0
 13 12  2  0
 14 15  2  0
 17 14  1  0
 17 18  1  0
 18 19  1  6
 20 19  1  0
 20 24  1  0
 21 20  2  0
 22 18  1  0
 22 23  1  0
 25 22  2  0
M  END
$$$$
