TED.pdb
     RDKit          3D

 25 24  0  0  1  0  0  0  0  0999 V2000
    6.6001  -12.8125   18.5844 C   0  0  0  0  0  0  0  0  0  0  0  0
    7.7790  -13.7418   18.6448 C   0  0  1  0  0  0  0  0  0  0  0  0
    8.4413  -13.8024   17.4122 O   0  0  0  0  0  0  0  0  0  0  0  0
    8.7412  -13.4545   19.7641 C   0  0  2  0  0  0  0  0  0  0  0  0
    9.1733  -12.0539   19.5308 N   0  0  0  0  0  0  0  0  0  0  0  0
    9.9385  -14.3147   19.6631 C   0  0  0  0  0  0  0  0  0  0  0  0
    9.8165  -15.5671   19.8842 O   0  0  0  0  0  0  0  0  0  0  0  0
   11.2492  -13.8808   19.3330 N   0  0  0  0  0  0  0  0  0  0  0  0
   12.3693  -14.8213   19.3383 C   0  0  1  0  0  0  0  0  0  0  0  0
   13.2867  -14.5616   18.1566 C   0  0  0  0  0  0  0  0  0  0  0  0
   14.4579  -15.5010   18.1187 C   0  0  0  0  0  0  0  0  0  0  0  0
   15.2639  -15.2238   16.9027 C   0  0  0  0  0  0  0  0  0  0  0  0
   15.3204  -16.0039   15.9142 O   0  0  0  0  0  0  0  0  0  0  0  0
   13.1846  -14.7534   20.5720 C   0  0  0  0  0  0  0  0  0  0  0  0
   13.7314  -13.6473   20.8791 O   0  0  0  0  0  0  0  0  0  0  0  0
   16.0167  -14.0519   16.7983 O   0  0  0  0  0  0  0  0  0  0  0  0
   13.4085  -15.8334   21.4504 N   0  0  0  0  0  0  0  0  0  0  0  0
   14.1522  -15.7323   22.7163 C   0  0  1  0  0  0  0  0  0  0  0  0
   13.4106  -16.6360   23.6715 C   0  0  0  0  0  0  0  0  0  0  0  0
   13.3815  -18.0527   23.2918 C   0  0  0  0  0  0  0  0  0  0  0  0
   13.8520  -18.4855   22.2291 O   0  0  0  0  0  0  0  0  0  0  0  0
   15.5617  -16.0625   22.5134 C   0  0  0  0  0  0  0  0  0  0  0  0
   16.0745  -16.6002   21.3619 O   0  0  0  0  0  0  0  0  0  0  0  0
   12.7850  -18.9431   24.1937 O   0  0  0  0  0  0  0  0  0  0  0  0
   16.3837  -15.8484   23.4475 O   0  0  0  0  0  0  0  0  0  0  0  0
  2  1  1  6
  2  4  1  0
  3  2  1  0
  4  6  1  0
  4  5  1  6
  6  8  1  0
  6  7  2  0
  8  9  1  0
  9 14  1  0
  9 10  1  6
 10 11  1  0
 12 11  1  0
 12 16  1  0
 13 12  2  0
 14 15  2  0
 17 14  1  0
 17 18  1  0
 18 19  1  1
 20 19  1  0
 20 24  1  0
 21 20  2  0
 22 18  1  0
 22 23  1  0
 25 22  2  0
M  END
$$$$
