TED.pdb
     RDKit          3D

 25 24  0  0  1  0  0  0  0  0999 V2000
   10.3906  -13.8957   17.4557 C   0  0  0  0  0  0  0  0  0  0  0  0
    9.4592  -12.9237   18.1226 C   0  0  1  0  0  0  0  0  0  0  0  0
    9.2497  -11.7921   17.3245 O   0  0  0  0  0  0  0  0  0  0  0  0
    8.1538  -13.5205   18.5711 C   0  0  2  0  0  0  0  0  0  0  0  0
    7.4869  -12.4291   19.3240 N   0  0  0  0  0  0  0  0  0  0  0  0
    8.3810  -14.6382   19.5107 C   0  0  0  0  0  0  0  0  0  0  0  0
    8.6466  -14.3712   20.7315 O   0  0  0  0  0  0  0  0  0  0  0  0
    8.3301  -16.0197   19.1881 N   0  0  0  0  0  0  0  0  0  0  0  0
    8.5965  -17.0337   20.2079 C   0  0  1  0  0  0  0  0  0  0  0  0
    8.0692  -18.3863   19.7628 C   0  0  0  0  0  0  0  0  0  0  0  0
    8.3760  -19.4773   20.7483 C   0  0  0  0  0  0  0  0  0  0  0  0
    7.7993  -20.7537   20.2551 C   0  0  0  0  0  0  0  0  0  0  0  0
    8.4839  -21.6597   19.7081 O   0  0  0  0  0  0  0  0  0  0  0  0
   10.0355  -17.1857   20.5201 C   0  0  0  0  0  0  0  0  0  0  0  0
   10.8749  -17.1151   19.5676 O   0  0  0  0  0  0  0  0  0  0  0  0
    6.4324  -21.0134   20.3794 O   0  0  0  0  0  0  0  0  0  0  0  0
   10.5615  -17.4058   21.8097 N   0  0  0  0  0  0  0  0  0  0  0  0
   11.9889  -17.6183   22.0979 C   0  0  1  0  0  0  0  0  0  0  0  0
   12.3603  -16.5030   23.0452 C   0  0  0  0  0  0  0  0  0  0  0  0
   13.7725  -16.1065   23.0163 C   0  0  0  0  0  0  0  0  0  0  0  0
   14.2337  -15.1706   23.6865 O   0  0  0  0  0  0  0  0  0  0  0  0
   12.2160  -18.9697   22.6070 C   0  0  0  0  0  0  0  0  0  0  0  0
   13.3834  -19.6707   22.4532 O   0  0  0  0  0  0  0  0  0  0  0  0
   14.6240  -16.8390   22.1792 O   0  0  0  0  0  0  0  0  0  0  0  0
   11.2889  -19.5539   23.2342 O   0  0  0  0  0  0  0  0  0  0  0  0
  2  1  1  6
  2  4  1  0
  3  2  1  0
  4  6  1  0
  4  5  1  1
  6  8  1  0
  6  7  2  0
  8  9  1  0
  9 14  1  0
  9 10  1  6
 10 11  1  0
 12 11  1  0
 12 16  1  0
 13 12  2  0
 14 15  2  0
 17 14  1  0
 17 18  1  0
 18 19  1  1
 20 19  1  0
 20 24  1  0
 21 20  2  0
 22 18  1  0
 22 23  1  0
 25 22  2  0
M  END
$$$$
