TED.pdb
     RDKit          3D

 25 24  0  0  1  0  0  0  0  0999 V2000
   10.5317  -14.8309   18.3269 C   0  0  0  0  0  0  0  0  0  0  0  0
    9.6817  -13.5954   18.4166 C   0  0  1  0  0  0  0  0  0  0  0  0
    9.8191  -12.8004   17.2718 O   0  0  0  0  0  0  0  0  0  0  0  0
    8.2333  -13.8575   18.7243 C   0  0  2  0  0  0  0  0  0  0  0  0
    7.6481  -12.5090   18.9287 N   0  0  0  0  0  0  0  0  0  0  0  0
    8.0909  -14.6037   19.9918 C   0  0  0  0  0  0  0  0  0  0  0  0
    8.1420  -13.9595   21.0939 O   0  0  0  0  0  0  0  0  0  0  0  0
    7.8942  -16.0042   20.1152 N   0  0  0  0  0  0  0  0  0  0  0  0
    7.8088  -16.6317   21.4336 C   0  0  1  0  0  0  0  0  0  0  0  0
    6.9154  -17.8584   21.3813 C   0  0  0  0  0  0  0  0  0  0  0  0
    6.7678  -18.5216   22.7207 C   0  0  0  0  0  0  0  0  0  0  0  0
    5.8600  -19.6891   22.5873 C   0  0  0  0  0  0  0  0  0  0  0  0
    5.5137  -20.1764   21.4776 O   0  0  0  0  0  0  0  0  0  0  0  0
    9.1242  -17.0483   21.9697 C   0  0  0  0  0  0  0  0  0  0  0  0
    9.1681  -17.5917   23.1184 O   0  0  0  0  0  0  0  0  0  0  0  0
    5.3347  -20.3167   23.7193 O   0  0  0  0  0  0  0  0  0  0  0  0
   10.3545  -16.8897   21.2992 N   0  0  0  0  0  0  0  0  0  0  0  0
   11.6613  -17.2604   21.8655 C   0  0  1  0  0  0  0  0  0  0  0  0
   12.6183  -17.1951   20.6997 C   0  0  0  0  0  0  0  0  0  0  0  0
   12.9970  -15.8412   20.2808 C   0  0  0  0  0  0  0  0  0  0  0  0
   12.5736  -14.8125   20.8287 O   0  0  0  0  0  0  0  0  0  0  0  0
   11.9966  -16.3963   22.9959 C   0  0  0  0  0  0  0  0  0  0  0  0
   11.1873  -15.4013   23.4786 O   0  0  0  0  0  0  0  0  0  0  0  0
   13.8844  -15.7315   19.2024 O   0  0  0  0  0  0  0  0  0  0  0  0
   13.1017  -16.5564   23.5851 O   0  0  0  0  0  0  0  0  0  0  0  0
  2  1  1  6
  2  4  1  0
  3  2  1  0
  4  6  1  0
  4  5  1  1
  6  8  1  0
  6  7  2  0
  8  9  1  0
  9 14  1  0
  9 10  1  6
 10 11  1  0
 12 11  1  0
 12 16  1  0
 13 12  2  0
 14 15  2  0
 17 14  1  0
 17 18  1  0
 18 19  1  6
 20 19  1  0
 20 24  1  0
 21 20  2  0
 22 18  1  0
 22 23  1  0
 25 22  2  0
M  END
$$$$
