ARM.pdb
     RDKit          3D

 25 24  0  0  1  0  0  0  0  0999 V2000
    7.2744  -12.3835   18.5131 C   0  0  0  0  0  0  0  0  0  0  0  0
    8.4674  -12.9605   19.2268 C   0  0  2  0  0  0  0  0  0  0  0  0
    9.2800  -13.6328   18.2314 N   0  0  0  0  0  0  0  0  0  0  0  0
    8.1461  -13.9076   20.2806 C   0  0  0  0  0  0  0  0  0  0  0  0
    7.4164  -13.5585   21.2421 O   0  0  0  0  0  0  0  0  0  0  0  0
    9.6982  -22.5847   21.3180 N   0  0  0  0  0  0  0  0  0  0  0  0
    8.7622  -22.3213   22.3341 C   0  0  0  0  0  0  0  0  0  0  0  0
    8.3233  -23.2591   23.1108 N   0  0  0  0  0  0  0  0  0  0  0  0
    8.3074  -20.9792   22.4852 N   0  0  0  0  0  0  0  0  0  0  0  0
    8.7405  -19.9597   21.5525 C   0  0  0  0  0  0  0  0  0  0  0  0
    8.2505  -18.5980   22.0027 C   0  0  0  0  0  0  0  0  0  0  0  0
    8.7222  -17.6037   20.9567 C   0  0  0  0  0  0  0  0  0  0  0  0
    8.2106  -16.2036   21.3177 C   0  0  2  0  0  0  0  0  0  0  0  0
    8.6103  -15.2557   20.3137 N   0  0  0  0  0  0  0  0  0  0  0  0
    8.8585  -15.8245   22.6001 C   0  0  0  0  0  0  0  0  0  0  0  0
   10.0741  -15.5228   22.7108 O   0  0  0  0  0  0  0  0  0  0  0  0
    7.6086  -23.0823   23.8295 C   0  0  0  0  0  0  0  0  0  0  0  0
    6.5123  -10.8136   26.2517 S   0  0  0  0  0  0  0  0  0  0  0  0
    6.3719  -12.3900   27.1457 C   0  0  0  0  0  0  0  0  0  0  0  0
    7.7529  -13.4939   26.6932 C   0  0  0  0  0  0  0  0  0  0  0  0
    7.3669  -14.2541   25.4571 C   0  0  2  0  0  0  0  0  0  0  0  0
    8.5080  -15.1085   24.9701 N   0  0  0  0  0  0  0  0  0  0  0  0
    8.0340  -15.8098   23.7564 C   0  0  0  0  0  0  0  0  0  0  0  0
    8.9867  -16.0972   25.9574 O   0  0  0  0  0  0  0  0  0  0  0  0
   10.0023  -15.7584   26.8765 O   0  0  0  0  0  0  0  0  0  0  0  0
  2  1  1  6
  3  2  1  0
  4  5  2  0
  4  2  1  0
  6  7  1  0
  7  9  1  0
  8  7  2  0
  9 10  1  0
 10 11  1  0
 11 12  1  0
 13 12  1  6
 13 14  1  0
 14  4  1  0
 15 22  1  0
 15 13  1  0
 16 15  2  0
 18 17  1  0
 18 19  1  0
 19 20  1  0
 21 20  1  6
 21 22  1  0
 21 23  1  0
 23 25  2  0
 23 24  1  0
M  END
$$$$
