ARM.pdb
     RDKit          3D

 25 24  0  0  1  0  0  0  0  0999 V2000
    7.4942  -11.6068   26.2848 C   0  0  0  0  0  0  0  0  0  0  0  0
    6.5012  -12.5957   25.7355 C   0  0  2  0  0  0  0  0  0  0  0  0
    5.5692  -12.9065   26.8022 N   0  0  0  0  0  0  0  0  0  0  0  0
    7.0825  -13.8358   25.2508 C   0  0  0  0  0  0  0  0  0  0  0  0
    7.2348  -14.8089   26.0312 O   0  0  0  0  0  0  0  0  0  0  0  0
    6.7874  -13.3203   18.2640 N   0  0  0  0  0  0  0  0  0  0  0  0
    8.1276  -13.5996   18.5862 C   0  0  0  0  0  0  0  0  0  0  0  0
    9.0602  -12.7154   18.4314 N   0  0  0  0  0  0  0  0  0  0  0  0
    8.4315  -14.8964   19.0930 N   0  0  0  0  0  0  0  0  0  0  0  0
    7.4267  -15.6411   19.8230 C   0  0  0  0  0  0  0  0  0  0  0  0
    7.1837  -15.0025   21.1758 C   0  0  0  0  0  0  0  0  0  0  0  0
    8.4697  -15.1663   21.9660 C   0  0  0  0  0  0  0  0  0  0  0  0
    8.1404  -15.2603   23.4611 C   0  0  2  0  0  0  0  0  0  0  0  0
    7.5116  -14.0471   23.9072 N   0  0  0  0  0  0  0  0  0  0  0  0
    9.4328  -15.4063   24.1796 C   0  0  0  0  0  0  0  0  0  0  0  0
   10.1126  -14.4385   24.6064 O   0  0  0  0  0  0  0  0  0  0  0  0
   10.0518  -12.9336   18.5978 C   0  0  0  0  0  0  0  0  0  0  0  0
    9.6626  -13.8320   29.8247 S   0  0  0  0  0  0  0  0  0  0  0  0
    9.5225  -15.4859   29.0837 C   0  0  0  0  0  0  0  0  0  0  0  0
   10.2454  -15.4866   27.4080 C   0  0  0  0  0  0  0  0  0  0  0  0
    9.9867  -16.8261   26.7805 C   0  0  2  0  0  0  0  0  0  0  0  0
   10.8054  -17.0030   25.5284 N   0  0  0  0  0  0  0  0  0  0  0  0
    9.9079  -16.7290   24.3843 C   0  0  0  0  0  0  0  0  0  0  0  0
   11.3997  -18.3470   25.3799 O   0  0  0  0  0  0  0  0  0  0  0  0
   12.7408  -18.5825   25.7499 O   0  0  0  0  0  0  0  0  0  0  0  0
  2  1  1  1
  3  2  1  0
  4  5  2  0
  4  2  1  0
  6  7  1  0
  7  9  1  0
  8  7  2  0
  9 10  1  0
 10 11  1  0
 11 12  1  0
 13 12  1  6
 13 14  1  0
 14  4  1  0
 15 22  1  0
 15 13  1  0
 16 15  2  0
 18 17  1  0
 18 19  1  0
 19 20  1  0
 21 20  1  1
 21 22  1  0
 21 23  1  0
 23 25  2  0
 23 24  1  0
M  END
$$$$
