ARM.pdb
     RDKit          3D

 25 24  0  0  1  0  0  0  0  0999 V2000
   11.2913  -17.1646   19.7654 C   0  0  0  0  0  0  0  0  0  0  0  0
    9.8670  -17.6509   19.7461 C   0  0  2  0  0  0  0  0  0  0  0  0
    9.2591  -17.1526   18.5273 N   0  0  0  0  0  0  0  0  0  0  0  0
    9.0620  -17.2200   20.8761 C   0  0  0  0  0  0  0  0  0  0  0  0
    8.3170  -16.2133   20.7731 O   0  0  0  0  0  0  0  0  0  0  0  0
    5.1991  -23.1474   24.7043 N   0  0  0  0  0  0  0  0  0  0  0  0
    6.3626  -23.0661   23.9183 C   0  0  0  0  0  0  0  0  0  0  0  0
    7.0589  -24.1179   23.6276 N   0  0  0  0  0  0  0  0  0  0  0  0
    6.7559  -21.7801   23.4467 N   0  0  0  0  0  0  0  0  0  0  0  0
    6.0074  -20.6051   23.8419 C   0  0  0  0  0  0  0  0  0  0  0  0
    6.4963  -19.3924   23.0755 C   0  0  0  0  0  0  0  0  0  0  0  0
    7.6238  -18.7912   23.8955 C   0  0  0  0  0  0  0  0  0  0  0  0
    8.1388  -17.5242   23.2014 C   0  0  2  0  0  0  0  0  0  0  0  0
    9.0479  -17.8730   22.1439 N   0  0  0  0  0  0  0  0  0  0  0  0
    8.8883  -16.7468   24.2222 C   0  0  0  0  0  0  0  0  0  0  0  0
   10.1037  -16.9267   24.4894 O   0  0  0  0  0  0  0  0  0  0  0  0
    7.9114  -24.0662   23.0540 C   0  0  0  0  0  0  0  0  0  0  0  0
    7.1648  -10.8030   27.2453 S   0  0  0  0  0  0  0  0  0  0  0  0
    6.4823  -11.6856   25.8104 C   0  0  0  0  0  0  0  0  0  0  0  0
    7.6386  -12.9883   25.2659 C   0  0  0  0  0  0  0  0  0  0  0  0
    7.9140  -13.8949   26.4308 C   0  0  2  0  0  0  0  0  0  0  0  0
    8.8296  -15.0229   26.0325 N   0  0  0  0  0  0  0  0  0  0  0  0
    8.1661  -15.7461   24.9251 C   0  0  0  0  0  0  0  0  0  0  0  0
    9.1363  -15.9671   27.1261 O   0  0  0  0  0  0  0  0  0  0  0  0
   10.1419  -15.6685   28.0699 O   0  0  0  0  0  0  0  0  0  0  0  0
  2  1  1  1
  3  2  1  0
  4  5  2  0
  4  2  1  0
  6  7  1  0
  7  9  1  0
  8  7  2  0
  9 10  1  0
 10 11  1  0
 11 12  1  0
 13 12  1  1
 13 14  1  0
 14  4  1  0
 15 22  1  0
 15 13  1  0
 16 15  2  0
 18 17  1  0
 18 19  1  0
 19 20  1  0
 21 20  1  6
 21 22  1  0
 21 23  1  0
 23 25  2  0
 23 24  1  0
M  END
$$$$
