ARM.pdb
     RDKit          3D

 25 24  0  0  1  0  0  0  0  0999 V2000
    7.0373  -12.6942   18.7403 C   0  0  0  0  0  0  0  0  0  0  0  0
    8.2406  -13.4542   19.2301 C   0  0  2  0  0  0  0  0  0  0  0  0
    8.5847  -14.4211   18.2055 N   0  0  0  0  0  0  0  0  0  0  0  0
    8.0454  -14.1582   20.4859 C   0  0  0  0  0  0  0  0  0  0  0  0
    7.7588  -13.5197   21.5296 O   0  0  0  0  0  0  0  0  0  0  0  0
    6.1382  -19.6573   25.6562 N   0  0  0  0  0  0  0  0  0  0  0  0
    6.8746  -20.5590   24.8670 C   0  0  0  0  0  0  0  0  0  0  0  0
    7.7225  -21.3837   25.3928 N   0  0  0  0  0  0  0  0  0  0  0  0
    6.6576  -20.5380   23.4587 N   0  0  0  0  0  0  0  0  0  0  0  0
    6.5959  -19.2737   22.7554 C   0  0  0  0  0  0  0  0  0  0  0  0
    7.8546  -18.4703   23.0142 C   0  0  0  0  0  0  0  0  0  0  0  0
    8.1845  -17.7572   21.7150 C   0  0  0  0  0  0  0  0  0  0  0  0
    7.9436  -16.2521   21.8848 C   0  0  2  0  0  0  0  0  0  0  0  0
    8.1570  -15.5720   20.6364 N   0  0  0  0  0  0  0  0  0  0  0  0
    8.9508  -15.7609   22.8606 C   0  0  0  0  0  0  0  0  0  0  0  0
    9.8597  -14.9391   22.5787 O   0  0  0  0  0  0  0  0  0  0  0  0
    8.2825  -22.0292   24.8199 C   0  0  0  0  0  0  0  0  0  0  0  0
    7.5461  -10.3120   25.9393 S   0  0  0  0  0  0  0  0  0  0  0  0
    6.8083  -11.9720   26.0015 C   0  0  0  0  0  0  0  0  0  0  0  0
    8.1082  -13.2281   26.2533 C   0  0  0  0  0  0  0  0  0  0  0  0
    8.0376  -14.2163   25.1249 C   0  0  1  0  0  0  0  0  0  0  0  0
    9.0278  -15.3341   25.3233 N   0  0  0  0  0  0  0  0  0  0  0  0
    8.8606  -16.2651   24.1853 C   0  0  0  0  0  0  0  0  0  0  0  0
    8.8617  -16.0702   26.5929 O   0  0  0  0  0  0  0  0  0  0  0  0
    9.6693  -15.7654   27.7091 O   0  0  0  0  0  0  0  0  0  0  0  0
  2  1  1  6
  3  2  1  0
  4  5  2  0
  4  2  1  0
  6  7  1  0
  7  9  1  0
  8  7  2  0
  9 10  1  0
 10 11  1  0
 11 12  1  0
 13 12  1  6
 13 14  1  0
 14  4  1  0
 15 22  1  0
 15 13  1  0
 16 15  2  0
 18 17  1  0
 18 19  1  0
 19 20  1  0
 21 20  1  6
 21 22  1  0
 21 23  1  0
 23 25  2  0
 23 24  1  0
M  END
$$$$
