ARM.pdb
     RDKit          3D

 25 24  0  0  1  0  0  0  0  0999 V2000
    8.0155  -19.9535   20.3463 C   0  0  0  0  0  0  0  0  0  0  0  0
    8.5753  -19.4702   21.6572 C   0  0  2  0  0  0  0  0  0  0  0  0
    7.4888  -19.4781   22.6177 N   0  0  0  0  0  0  0  0  0  0  0  0
    9.1507  -18.1368   21.6181 C   0  0  0  0  0  0  0  0  0  0  0  0
   10.3380  -17.9724   21.2408 O   0  0  0  0  0  0  0  0  0  0  0  0
    9.6655  -13.9603   17.6401 N   0  0  0  0  0  0  0  0  0  0  0  0
    8.4347  -13.5826   17.0739 C   0  0  0  0  0  0  0  0  0  0  0  0
    8.2110  -13.6927   15.8037 N   0  0  0  0  0  0  0  0  0  0  0  0
    7.4319  -13.0708   17.9475 N   0  0  0  0  0  0  0  0  0  0  0  0
    7.5907  -13.1945   19.3816 C   0  0  0  0  0  0  0  0  0  0  0  0
    7.8698  -14.6369   19.7535 C   0  0  0  0  0  0  0  0  0  0  0  0
    7.8405  -14.7035   21.2700 C   0  0  0  0  0  0  0  0  0  0  0  0
    8.9618  -15.6277   21.7609 C   0  0  2  0  0  0  0  0  0  0  0  0
    8.4492  -16.9514   21.9880 N   0  0  0  0  0  0  0  0  0  0  0  0
    9.4335  -15.0819   23.0600 C   0  0  0  0  0  0  0  0  0  0  0  0
    9.8352  -13.9015   23.2219 O   0  0  0  0  0  0  0  0  0  0  0  0
    7.3052  -13.4413   15.3856 C   0  0  0  0  0  0  0  0  0  0  0  0
    7.0886  -11.3838   25.7779 S   0  0  0  0  0  0  0  0  0  0  0  0
    6.7682  -12.6756   27.0158 C   0  0  0  0  0  0  0  0  0  0  0  0
    8.1246  -13.8967   27.0148 C   0  0  0  0  0  0  0  0  0  0  0  0
    8.2774  -14.4346   25.6212 C   0  0  1  0  0  0  0  0  0  0  0  0
    9.4271  -15.4044   25.5397 N   0  0  0  0  0  0  0  0  0  0  0  0
    9.4206  -15.9667   24.1709 C   0  0  0  0  0  0  0  0  0  0  0  0
    9.3626  -16.5023   26.5256 O   0  0  0  0  0  0  0  0  0  0  0  0
    9.6111  -16.2539   27.8922 O   0  0  0  0  0  0  0  0  0  0  0  0
  2  1  1  6
  3  2  1  0
  4  5  2  0
  4  2  1  0
  6  7  1  0
  7  9  1  0
  8  7  2  0
  9 10  1  0
 10 11  1  0
 11 12  1  0
 13 12  1  1
 13 14  1  0
 14  4  1  0
 15 22  1  0
 15 13  1  0
 16 15  2  0
 18 17  1  0
 18 19  1  0
 19 20  1  0
 21 20  1  6
 21 22  1  0
 21 23  1  0
 23 25  2  0
 23 24  1  0
M  END
$$$$
