ARM.pdb
     RDKit          3D

 25 24  0  0  1  0  0  0  0  0999 V2000
    4.8025  -20.4998   22.2454 C   0  0  0  0  0  0  0  0  0  0  0  0
    5.0958  -19.4018   23.2322 C   0  0  2  0  0  0  0  0  0  0  0  0
    4.1954  -18.3046   22.9346 N   0  0  0  0  0  0  0  0  0  0  0  0
    6.4604  -18.9042   23.2005 C   0  0  0  0  0  0  0  0  0  0  0  0
    7.3888  -19.5744   23.7180 O   0  0  0  0  0  0  0  0  0  0  0  0
    8.2887  -11.4020   19.7899 N   0  0  0  0  0  0  0  0  0  0  0  0
    8.6682  -12.6041   19.1662 C   0  0  0  0  0  0  0  0  0  0  0  0
    9.8294  -12.7424   18.6112 N   0  0  0  0  0  0  0  0  0  0  0  0
    7.7283  -13.6753   19.1636 N   0  0  0  0  0  0  0  0  0  0  0  0
    8.1709  -15.0262   19.4398 C   0  0  0  0  0  0  0  0  0  0  0  0
    7.9141  -15.3730   20.8926 C   0  0  0  0  0  0  0  0  0  0  0  0
    8.5458  -16.7333   21.1283 C   0  0  0  0  0  0  0  0  0  0  0  0
    8.2097  -17.2121   22.5461 C   0  0  2  0  0  0  0  0  0  0  0  0
    6.8474  -17.6671   22.6057 N   0  0  0  0  0  0  0  0  0  0  0  0
    8.3473  -16.0356   23.4432 C   0  0  0  0  0  0  0  0  0  0  0  0
    7.5106  -15.0992   23.5072 O   0  0  0  0  0  0  0  0  0  0  0  0
   10.1219  -13.6252   18.1712 C   0  0  0  0  0  0  0  0  0  0  0  0
    6.0373  -12.1407   25.6438 S   0  0  0  0  0  0  0  0  0  0  0  0
    7.4497  -12.2729   26.7803 C   0  0  0  0  0  0  0  0  0  0  0  0
    7.8935  -14.0255   27.0294 C   0  0  0  0  0  0  0  0  0  0  0  0
    8.0911  -14.6606   25.6831 C   0  0  2  0  0  0  0  0  0  0  0  0
    9.3935  -15.4155   25.6281 N   0  0  0  0  0  0  0  0  0  0  0  0
    9.5024  -15.9887   24.2683 C   0  0  0  0  0  0  0  0  0  0  0  0
    9.5096  -16.4942   26.6303 O   0  0  0  0  0  0  0  0  0  0  0  0
   10.0629  -16.2345   27.9020 O   0  0  0  0  0  0  0  0  0  0  0  0
  2  1  1  6
  3  2  1  0
  4  5  2  0
  4  2  1  0
  6  7  1  0
  7  9  1  0
  8  7  2  0
  9 10  1  0
 10 11  1  0
 11 12  1  0
 13 12  1  6
 13 14  1  0
 14  4  1  0
 15 22  1  0
 15 13  1  0
 16 15  2  0
 18 17  1  0
 18 19  1  0
 19 20  1  0
 21 20  1  6
 21 22  1  0
 21 23  1  0
 23 25  2  0
 23 24  1  0
M  END
$$$$
