ARM.pdb
     RDKit          3D

 25 24  0  0  1  0  0  0  0  0999 V2000
    6.5098  -20.0828   20.3192 C   0  0  0  0  0  0  0  0  0  0  0  0
    6.5714  -19.3498   21.6324 C   0  0  2  0  0  0  0  0  0  0  0  0
    5.6935  -18.2006   21.5247 N   0  0  0  0  0  0  0  0  0  0  0  0
    7.8963  -18.8882   22.0095 C   0  0  0  0  0  0  0  0  0  0  0  0
    8.7567  -19.7067   22.4205 O   0  0  0  0  0  0  0  0  0  0  0  0
    8.4559  -12.5169   19.0961 N   0  0  0  0  0  0  0  0  0  0  0  0
    8.1575  -13.4532   18.0899 C   0  0  0  0  0  0  0  0  0  0  0  0
    7.2716  -13.2090   17.1783 N   0  0  0  0  0  0  0  0  0  0  0  0
    8.8658  -14.6897   18.1034 N   0  0  0  0  0  0  0  0  0  0  0  0
    9.7997  -14.9763   19.1724 C   0  0  0  0  0  0  0  0  0  0  0  0
    9.1670  -15.9142   20.1808 C   0  0  0  0  0  0  0  0  0  0  0  0
   10.2225  -16.1843   21.2383 C   0  0  0  0  0  0  0  0  0  0  0  0
    9.6329  -17.0896   22.3269 C   0  0  2  0  0  0  0  0  0  0  0  0
    8.3167  -17.5268   21.9487 N   0  0  0  0  0  0  0  0  0  0  0  0
    9.5139  -16.2645   23.5570 C   0  0  0  0  0  0  0  0  0  0  0  0
    9.9215  -15.0787   23.6497 O   0  0  0  0  0  0  0  0  0  0  0  0
    7.1229  -13.8400   16.3793 C   0  0  0  0  0  0  0  0  0  0  0  0
    6.9320  -11.1671   25.9813 S   0  0  0  0  0  0  0  0  0  0  0  0
    6.7265  -12.8866   26.5334 C   0  0  0  0  0  0  0  0  0  0  0  0
    7.8602  -13.9815   25.6131 C   0  0  0  0  0  0  0  0  0  0  0  0
    7.6645  -15.3870   26.1039 C   0  0  2  0  0  0  0  0  0  0  0  0
    8.9393  -16.1814   25.9892 N   0  0  0  0  0  0  0  0  0  0  0  0
    8.8991  -16.8747   24.6825 C   0  0  0  0  0  0  0  0  0  0  0  0
    9.1338  -17.1710   27.0683 O   0  0  0  0  0  0  0  0  0  0  0  0
    9.5548  -16.7597   28.3506 O   0  0  0  0  0  0  0  0  0  0  0  0
  2  1  1  6
  3  2  1  0
  4  5  2  0
  4  2  1  0
  6  7  1  0
  7  9  1  0
  8  7  2  0
  9 10  1  0
 10 11  1  0
 11 12  1  0
 13 12  1  6
 13 14  1  0
 14  4  1  0
 15 22  1  0
 15 13  1  0
 16 15  2  0
 18 17  1  0
 18 19  1  0
 19 20  1  0
 21 20  1  6
 21 22  1  0
 21 23  1  0
 23 25  2  0
 23 24  1  0
M  END
$$$$
