ARM.pdb
     RDKit          3D

 25 24  0  0  1  0  0  0  0  0999 V2000
    6.7234  -20.7960   23.0324 C   0  0  0  0  0  0  0  0  0  0  0  0
    6.1362  -19.4109   23.0810 C   0  0  2  0  0  0  0  0  0  0  0  0
    5.0709  -19.3610   22.0984 N   0  0  0  0  0  0  0  0  0  0  0  0
    7.0779  -18.3410   22.7995 C   0  0  0  0  0  0  0  0  0  0  0  0
    8.2908  -18.4721   23.1009 O   0  0  0  0  0  0  0  0  0  0  0  0
    7.7843  -13.0137   16.4120 N   0  0  0  0  0  0  0  0  0  0  0  0
    8.3062  -14.2567   16.8127 C   0  0  0  0  0  0  0  0  0  0  0  0
    8.6993  -15.1369   15.9488 N   0  0  0  0  0  0  0  0  0  0  0  0
    8.3907  -14.5210   18.2106 N   0  0  0  0  0  0  0  0  0  0  0  0
    7.9112  -13.5404   19.1621 C   0  0  0  0  0  0  0  0  0  0  0  0
    8.1606  -14.0209   20.5776 C   0  0  0  0  0  0  0  0  0  0  0  0
    7.1349  -15.1066   20.8503 C   0  0  0  0  0  0  0  0  0  0  0  0
    7.6644  -16.0450   21.9418 C   0  0  2  0  0  0  0  0  0  0  0  0
    6.7234  -17.1042   22.1842 N   0  0  0  0  0  0  0  0  0  0  0  0
    7.7867  -15.2377   23.1833 C   0  0  0  0  0  0  0  0  0  0  0  0
    7.1582  -14.1686   23.3908 O   0  0  0  0  0  0  0  0  0  0  0  0
    9.0851  -16.0469   16.2343 C   0  0  0  0  0  0  0  0  0  0  0  0
    5.9438  -10.9489   27.5824 S   0  0  0  0  0  0  0  0  0  0  0  0
    6.1998  -12.7399   27.4072 C   0  0  0  0  0  0  0  0  0  0  0  0
    7.4171  -13.0744   26.0893 C   0  0  0  0  0  0  0  0  0  0  0  0
    7.6155  -14.5597   25.9929 C   0  0  2  0  0  0  0  0  0  0  0  0
    8.9475  -14.8873   25.3702 N   0  0  0  0  0  0  0  0  0  0  0  0
    8.6732  -15.7237   24.1807 C   0  0  0  0  0  0  0  0  0  0  0  0
    9.8771  -15.5985   26.2711 O   0  0  0  0  0  0  0  0  0  0  0  0
   10.4446  -14.9384   27.3816 O   0  0  0  0  0  0  0  0  0  0  0  0
  2  1  1  6
  3  2  1  0
  4  5  2  0
  4  2  1  0
  6  7  1  0
  7  9  1  0
  8  7  2  0
  9 10  1  0
 10 11  1  0
 11 12  1  0
 13 12  1  6
 13 14  1  0
 14  4  1  0
 15 22  1  0
 15 13  1  0
 16 15  2  0
 18 17  1  0
 18 19  1  0
 19 20  1  0
 21 20  1  6
 21 22  1  0
 21 23  1  0
 23 25  2  0
 23 24  1  0
M  END
$$$$
