ARM.pdb
     RDKit          3D

 25 24  0  0  1  0  0  0  0  0999 V2000
    8.6815  -12.4259   19.5285 C   0  0  0  0  0  0  0  0  0  0  0  0
    7.9240  -13.7107   19.3262 C   0  0  2  0  0  0  0  0  0  0  0  0
    6.7109  -13.3849   18.6014 N   0  0  0  0  0  0  0  0  0  0  0  0
    7.5612  -14.4021   20.5514 C   0  0  0  0  0  0  0  0  0  0  0  0
    6.6338  -13.9599   21.2748 O   0  0  0  0  0  0  0  0  0  0  0  0
    7.8088  -22.0524   24.5048 N   0  0  0  0  0  0  0  0  0  0  0  0
    6.4499  -21.7072   24.3933 C   0  0  0  0  0  0  0  0  0  0  0  0
    5.5405  -22.2985   25.0996 N   0  0  0  0  0  0  0  0  0  0  0  0
    6.1006  -20.6779   23.4718 N   0  0  0  0  0  0  0  0  0  0  0  0
    7.1299  -20.0346   22.6820 C   0  0  0  0  0  0  0  0  0  0  0  0
    7.2752  -18.5839   23.0958 C   0  0  0  0  0  0  0  0  0  0  0  0
    7.5855  -17.8047   21.8302 C   0  0  0  0  0  0  0  0  0  0  0  0
    7.7551  -16.3198   22.1750 C   0  0  2  0  0  0  0  0  0  0  0  0
    8.1977  -15.5899   21.0185 N   0  0  0  0  0  0  0  0  0  0  0  0
    8.8156  -16.2359   23.2125 C   0  0  0  0  0  0  0  0  0  0  0  0
   10.0287  -16.4884   22.9992 O   0  0  0  0  0  0  0  0  0  0  0  0
    4.5450  -22.0495   25.0257 C   0  0  0  0  0  0  0  0  0  0  0  0
   10.5257  -12.7141   29.8793 S   0  0  0  0  0  0  0  0  0  0  0  0
    9.1669  -13.5299   28.9893 C   0  0  0  0  0  0  0  0  0  0  0  0
    9.8335  -14.7520   27.8090 C   0  0  0  0  0  0  0  0  0  0  0  0
    8.8721  -14.8770   26.6623 C   0  0  2  0  0  0  0  0  0  0  0  0
    9.4153  -15.7965   25.6000 N   0  0  0  0  0  0  0  0  0  0  0  0
    8.4092  -15.8448   24.5160 C   0  0  0  0  0  0  0  0  0  0  0  0
    9.6980  -17.1666   26.0736 O   0  0  0  0  0  0  0  0  0  0  0  0
   11.0084  -17.5434   26.4367 O   0  0  0  0  0  0  0  0  0  0  0  0
  2  1  1  1
  3  2  1  0
  4  5  2  0
  4  2  1  0
  6  7  1  0
  7  9  1  0
  8  7  2  0
  9 10  1  0
 10 11  1  0
 11 12  1  0
 13 12  1  6
 13 14  1  0
 14  4  1  0
 15 22  1  0
 15 13  1  0
 16 15  2  0
 18 17  1  0
 18 19  1  0
 19 20  1  0
 21 20  1  6
 21 22  1  0
 21 23  1  0
 23 25  2  0
 23 24  1  0
M  END
$$$$
