ARM.pdb
     RDKit          3D

 25 24  0  0  1  0  0  0  0  0999 V2000
    8.2688  -12.2282   19.3319 C   0  0  0  0  0  0  0  0  0  0  0  0
    8.4775  -13.6641   18.9316 C   0  0  2  0  0  0  0  0  0  0  0  0
    7.4979  -13.9715   17.9074 N   0  0  0  0  0  0  0  0  0  0  0  0
    8.3352  -14.6237   20.0131 C   0  0  0  0  0  0  0  0  0  0  0  0
    7.1920  -14.9739   20.3999 O   0  0  0  0  0  0  0  0  0  0  0  0
    9.1398  -19.8622   19.1651 N   0  0  0  0  0  0  0  0  0  0  0  0
   10.3311  -19.9282   18.4205 C   0  0  0  0  0  0  0  0  0  0  0  0
   10.3260  -20.2120   17.1576 N   0  0  0  0  0  0  0  0  0  0  0  0
   11.5552  -19.6707   19.1033 N   0  0  0  0  0  0  0  0  0  0  0  0
   11.5516  -18.8949   20.3261 C   0  0  0  0  0  0  0  0  0  0  0  0
   10.3341  -17.9935   20.3690 C   0  0  0  0  0  0  0  0  0  0  0  0
   10.4101  -17.2301   21.6792 C   0  0  0  0  0  0  0  0  0  0  0  0
    9.2707  -16.2050   21.7381 C   0  0  2  0  0  0  0  0  0  0  0  0
    9.4316  -15.2249   20.6990 N   0  0  0  0  0  0  0  0  0  0  0  0
    9.3782  -15.5149   23.0497 C   0  0  0  0  0  0  0  0  0  0  0  0
   10.3448  -14.7821   23.3809 O   0  0  0  0  0  0  0  0  0  0  0  0
   11.1918  -20.2470   16.6029 C   0  0  0  0  0  0  0  0  0  0  0  0
    7.3303  -11.1399   28.0526 S   0  0  0  0  0  0  0  0  0  0  0  0
    6.3978  -12.2102   26.9174 C   0  0  0  0  0  0  0  0  0  0  0  0
    7.0316  -13.9195   27.0025 C   0  0  0  0  0  0  0  0  0  0  0  0
    7.0681  -14.4816   25.6106 C   0  0  1  0  0  0  0  0  0  0  0  0
    8.4048  -15.1113   25.3173 N   0  0  0  0  0  0  0  0  0  0  0  0
    8.3122  -15.7105   23.9675 C   0  0  0  0  0  0  0  0  0  0  0  0
    8.8123  -16.1450   26.2904 O   0  0  0  0  0  0  0  0  0  0  0  0
    9.4037  -15.7800   27.5184 O   0  0  0  0  0  0  0  0  0  0  0  0
  2  1  1  1
  3  2  1  0
  4  5  2  0
  4  2  1  0
  6  7  1  0
  7  9  1  0
  8  7  2  0
  9 10  1  0
 10 11  1  0
 11 12  1  0
 13 12  1  1
 13 14  1  0
 14  4  1  0
 15 22  1  0
 15 13  1  0
 16 15  2  0
 18 17  1  0
 18 19  1  0
 19 20  1  0
 21 20  1  6
 21 22  1  0
 21 23  1  0
 23 25  2  0
 23 24  1  0
M  END
$$$$
