ARM.pdb
     RDKit          3D

 25 24  0  0  1  0  0  0  0  0999 V2000
    6.8933  -11.4757   26.7918 C   0  0  0  0  0  0  0  0  0  0  0  0
    5.9464  -12.4359   26.1233 C   0  0  2  0  0  0  0  0  0  0  0  0
    5.1547  -13.0563   27.1681 N   0  0  0  0  0  0  0  0  0  0  0  0
    6.5889  -13.4811   25.3452 C   0  0  0  0  0  0  0  0  0  0  0  0
    6.8756  -14.5811   25.8808 O   0  0  0  0  0  0  0  0  0  0  0  0
    9.0946  -14.9898   17.8048 N   0  0  0  0  0  0  0  0  0  0  0  0
    7.9797  -14.1418   17.9314 C   0  0  0  0  0  0  0  0  0  0  0  0
    7.7737  -13.1656   17.1066 N   0  0  0  0  0  0  0  0  0  0  0  0
    7.0751  -14.3912   19.0039 N   0  0  0  0  0  0  0  0  0  0  0  0
    7.2950  -15.5164   19.8885 C   0  0  0  0  0  0  0  0  0  0  0  0
    8.3027  -15.1496   20.9594 C   0  0  0  0  0  0  0  0  0  0  0  0
    7.6969  -13.9996   21.7441 C   0  0  0  0  0  0  0  0  0  0  0  0
    7.6148  -14.3824   23.2271 C   0  0  2  0  0  0  0  0  0  0  0  0
    6.9345  -13.3550   23.9673 N   0  0  0  0  0  0  0  0  0  0  0  0
    9.0109  -14.4704   23.7282 C   0  0  0  0  0  0  0  0  0  0  0  0
    9.7475  -13.4725   23.9347 O   0  0  0  0  0  0  0  0  0  0  0  0
    6.9165  -12.5976   17.1370 C   0  0  0  0  0  0  0  0  0  0  0  0
   11.5197  -14.6478   30.2361 S   0  0  0  0  0  0  0  0  0  0  0  0
   10.3152  -14.6052   28.8755 C   0  0  0  0  0  0  0  0  0  0  0  0
   10.9609  -15.5223   27.4359 C   0  0  0  0  0  0  0  0  0  0  0  0
    9.9960  -15.3579   26.2972 C   0  0  1  0  0  0  0  0  0  0  0  0
   10.5522  -15.9493   25.0283 N   0  0  0  0  0  0  0  0  0  0  0  0
    9.5214  -15.7713   23.9817 C   0  0  0  0  0  0  0  0  0  0  0  0
   10.9086  -17.3788   25.1334 O   0  0  0  0  0  0  0  0  0  0  0  0
   12.2061  -17.7667   25.5296 O   0  0  0  0  0  0  0  0  0  0  0  0
  2  1  1  1
  3  2  1  0
  4  5  2  0
  4  2  1  0
  6  7  1  0
  7  9  1  0
  8  7  2  0
  9 10  1  0
 10 11  1  0
 11 12  1  0
 13 12  1  6
 13 14  1  0
 14  4  1  0
 15 22  1  0
 15 13  1  0
 16 15  2  0
 18 17  1  0
 18 19  1  0
 19 20  1  0
 21 20  1  6
 21 22  1  0
 21 23  1  0
 23 25  2  0
 23 24  1  0
M  END
$$$$
