ARM.pdb
     RDKit          3D

 25 24  0  0  1  0  0  0  0  0999 V2000
    9.2117  -11.9541   19.5311 C   0  0  0  0  0  0  0  0  0  0  0  0
    8.7858  -13.2721   18.9421 C   0  0  2  0  0  0  0  0  0  0  0  0
    7.7205  -12.9966   17.9974 N   0  0  0  0  0  0  0  0  0  0  0  0
    8.3080  -14.2446   19.9099 C   0  0  0  0  0  0  0  0  0  0  0  0
    7.1078  -14.2276   20.2820 O   0  0  0  0  0  0  0  0  0  0  0  0
    9.2429  -20.2452   17.7348 N   0  0  0  0  0  0  0  0  0  0  0  0
    7.8976  -20.5696   17.9859 C   0  0  0  0  0  0  0  0  0  0  0  0
    7.1317  -21.0489   17.0590 N   0  0  0  0  0  0  0  0  0  0  0  0
    7.3979  -20.3535   19.3029 N   0  0  0  0  0  0  0  0  0  0  0  0
    8.2293  -19.7025   20.2939 C   0  0  0  0  0  0  0  0  0  0  0  0
    8.3082  -18.2152   20.0136 C   0  0  0  0  0  0  0  0  0  0  0  0
    9.1536  -17.6129   21.1216 C   0  0  0  0  0  0  0  0  0  0  0  0
    8.6321  -16.2095   21.4545 C   0  0  2  0  0  0  0  0  0  0  0  0
    9.1231  -15.2579   20.4955 N   0  0  0  0  0  0  0  0  0  0  0  0
    9.1794  -15.8507   22.7885 C   0  0  0  0  0  0  0  0  0  0  0  0
   10.4072  -15.7515   23.0407 O   0  0  0  0  0  0  0  0  0  0  0  0
    6.1477  -21.2917   17.2359 C   0  0  0  0  0  0  0  0  0  0  0  0
    5.8064  -11.7003   28.2149 S   0  0  0  0  0  0  0  0  0  0  0  0
    7.0403  -11.8453   26.8880 C   0  0  0  0  0  0  0  0  0  0  0  0
    7.0889  -13.5582   26.2601 C   0  0  0  0  0  0  0  0  0  0  0  0
    8.1458  -13.6436   25.1968 C   0  0  1  0  0  0  0  0  0  0  0  0
    8.7090  -15.0378   25.1060 N   0  0  0  0  0  0  0  0  0  0  0  0
    8.2387  -15.6101   23.8250 C   0  0  0  0  0  0  0  0  0  0  0  0
    8.3116  -15.9238   26.2190 O   0  0  0  0  0  0  0  0  0  0  0  0
    7.2788  -16.8699   26.0482 O   0  0  0  0  0  0  0  0  0  0  0  0
  2  1  1  1
  3  2  1  0
  4  5  2  0
  4  2  1  0
  6  7  1  0
  7  9  1  0
  8  7  2  0
  9 10  1  0
 10 11  1  0
 11 12  1  0
 13 12  1  6
 13 14  1  0
 14  4  1  0
 15 22  1  0
 15 13  1  0
 16 15  2  0
 18 17  1  0
 18 19  1  0
 19 20  1  0
 21 20  1  6
 21 22  1  0
 21 23  1  0
 23 25  2  0
 23 24  1  0
M  END
$$$$
