ARM.pdb
     RDKit          3D

 25 24  0  0  1  0  0  0  0  0999 V2000
    8.1770  -11.9966   19.9708 C   0  0  0  0  0  0  0  0  0  0  0  0
    8.2757  -13.3369   19.2930 C   0  0  2  0  0  0  0  0  0  0  0  0
    7.1833  -13.4195   18.3428 N   0  0  0  0  0  0  0  0  0  0  0  0
    8.1994  -14.4783   20.1885 C   0  0  0  0  0  0  0  0  0  0  0  0
    7.0861  -14.8659   20.6236 O   0  0  0  0  0  0  0  0  0  0  0  0
   11.0528  -18.0248   17.2384 N   0  0  0  0  0  0  0  0  0  0  0  0
   10.4965  -19.2057   17.7619 C   0  0  0  0  0  0  0  0  0  0  0  0
    9.4285  -19.7339   17.2559 N   0  0  0  0  0  0  0  0  0  0  0  0
   11.1492  -19.8093   18.8757 N   0  0  0  0  0  0  0  0  0  0  0  0
   11.2108  -19.1113   20.1430 C   0  0  0  0  0  0  0  0  0  0  0  0
   10.3875  -17.8405   20.0797 C   0  0  0  0  0  0  0  0  0  0  0  0
   10.4239  -17.2346   21.4714 C   0  0  0  0  0  0  0  0  0  0  0  0
    9.2545  -16.2551   21.6311 C   0  0  2  0  0  0  0  0  0  0  0  0
    9.3310  -15.2248   20.6317 N   0  0  0  0  0  0  0  0  0  0  0  0
    9.4024  -15.6203   22.9665 C   0  0  0  0  0  0  0  0  0  0  0  0
   10.4172  -14.9719   23.3277 O   0  0  0  0  0  0  0  0  0  0  0  0
    9.0046  -20.5866   17.6455 C   0  0  0  0  0  0  0  0  0  0  0  0
    5.5149  -11.3466   26.1975 S   0  0  0  0  0  0  0  0  0  0  0  0
    7.1188  -12.1042   26.5943 C   0  0  0  0  0  0  0  0  0  0  0  0
    6.9257  -13.9057   26.8128 C   0  0  0  0  0  0  0  0  0  0  0  0
    6.9910  -14.5570   25.4613 C   0  0  1  0  0  0  0  0  0  0  0  0
    8.3745  -15.0835   25.1819 N   0  0  0  0  0  0  0  0  0  0  0  0
    8.3183  -15.7693   23.8719 C   0  0  0  0  0  0  0  0  0  0  0  0
    8.8844  -16.0165   26.2071 O   0  0  0  0  0  0  0  0  0  0  0  0
    9.5520  -15.5296   27.3508 O   0  0  0  0  0  0  0  0  0  0  0  0
  2  1  1  1
  3  2  1  0
  4  5  2  0
  4  2  1  0
  6  7  1  0
  7  9  1  0
  8  7  2  0
  9 10  1  0
 10 11  1  0
 11 12  1  0
 13 12  1  6
 13 14  1  0
 14  4  1  0
 15 22  1  0
 15 13  1  0
 16 15  2  0
 18 17  1  0
 18 19  1  0
 19 20  1  0
 21 20  1  6
 21 22  1  0
 21 23  1  0
 23 25  2  0
 23 24  1  0
M  END
$$$$
