ARM.pdb
     RDKit          3D

 25 24  0  0  1  0  0  0  0  0999 V2000
    8.6745  -20.8809   20.2186 C   0  0  0  0  0  0  0  0  0  0  0  0
    8.4148  -20.1705   21.5199 C   0  0  2  0  0  0  0  0  0  0  0  0
    6.9887  -20.2439   21.7725 N   0  0  0  0  0  0  0  0  0  0  0  0
    8.8190  -18.7752   21.5422 C   0  0  0  0  0  0  0  0  0  0  0  0
   10.0285  -18.4661   21.3991 O   0  0  0  0  0  0  0  0  0  0  0  0
    9.6744  -12.9685   18.4374 N   0  0  0  0  0  0  0  0  0  0  0  0
    8.5291  -13.4162   17.7548 C   0  0  0  0  0  0  0  0  0  0  0  0
    8.4908  -13.4763   16.4624 N   0  0  0  0  0  0  0  0  0  0  0  0
    7.4019  -13.8054   18.5350 N   0  0  0  0  0  0  0  0  0  0  0  0
    7.2148  -13.2538   19.8608 C   0  0  0  0  0  0  0  0  0  0  0  0
    8.0419  -14.0259   20.8690 C   0  0  0  0  0  0  0  0  0  0  0  0
    7.4641  -15.4292   20.9149 C   0  0  0  0  0  0  0  0  0  0  0  0
    8.3453  -16.3140   21.8054 C   0  0  2  0  0  0  0  0  0  0  0  0
    7.9183  -17.6839   21.7205 N   0  0  0  0  0  0  0  0  0  0  0  0
    8.1489  -15.8509   23.2036 C   0  0  0  0  0  0  0  0  0  0  0  0
    7.0792  -15.9965   23.8482 O   0  0  0  0  0  0  0  0  0  0  0  0
    7.6701  -13.8366   15.9572 C   0  0  0  0  0  0  0  0  0  0  0  0
    5.7705  -12.7748   27.8038 S   0  0  0  0  0  0  0  0  0  0  0  0
    6.3853  -12.0191   26.2692 C   0  0  0  0  0  0  0  0  0  0  0  0
    8.0149  -12.7165   25.8347 C   0  0  0  0  0  0  0  0  0  0  0  0
    7.8270  -14.1551   25.4475 C   0  0  2  0  0  0  0  0  0  0  0  0
    9.1547  -14.8412   25.2582 N   0  0  0  0  0  0  0  0  0  0  0  0
    9.2505  -15.2076   23.8278 C   0  0  0  0  0  0  0  0  0  0  0  0
    9.3356  -16.0476   26.0909 O   0  0  0  0  0  0  0  0  0  0  0  0
    9.5309  -15.9344   27.4838 O   0  0  0  0  0  0  0  0  0  0  0  0
  2  1  1  6
  3  2  1  0
  4  5  2  0
  4  2  1  0
  6  7  1  0
  7  9  1  0
  8  7  2  0
  9 10  1  0
 10 11  1  0
 11 12  1  0
 13 12  1  6
 13 14  1  0
 14  4  1  0
 15 22  1  0
 15 13  1  0
 16 15  2  0
 18 17  1  0
 18 19  1  0
 19 20  1  0
 21 20  1  6
 21 22  1  0
 21 23  1  0
 23 25  2  0
 23 24  1  0
M  END
$$$$
