ARM.pdb
     RDKit          3D

 25 24  0  0  1  0  0  0  0  0999 V2000
    6.8367  -13.0761   19.0912 C   0  0  0  0  0  0  0  0  0  0  0  0
    8.0583  -13.1248   19.9691 C   0  0  2  0  0  0  0  0  0  0  0  0
    9.2090  -13.2619   19.0972 N   0  0  0  0  0  0  0  0  0  0  0  0
    8.0727  -14.2133   20.9313 C   0  0  0  0  0  0  0  0  0  0  0  0
    7.0948  -14.3886   21.7007 O   0  0  0  0  0  0  0  0  0  0  0  0
    9.0951  -19.5756   16.7807 N   0  0  0  0  0  0  0  0  0  0  0  0
    9.0470  -19.0941   18.1012 C   0  0  0  0  0  0  0  0  0  0  0  0
    8.2035  -18.1796   18.4587 N   0  0  0  0  0  0  0  0  0  0  0  0
    9.9622  -19.6478   19.0429 N   0  0  0  0  0  0  0  0  0  0  0  0
   10.0222  -19.1192   20.3897 C   0  0  0  0  0  0  0  0  0  0  0  0
   10.2089  -17.6156   20.3526 C   0  0  0  0  0  0  0  0  0  0  0  0
   10.3052  -17.1584   21.7971 C   0  0  0  0  0  0  0  0  0  0  0  0
    9.1807  -16.1575   22.0906 C   0  0  2  0  0  0  0  0  0  0  0  0
    9.1498  -15.1362   21.0794 N   0  0  0  0  0  0  0  0  0  0  0  0
    9.5029  -15.5152   23.3912 C   0  0  0  0  0  0  0  0  0  0  0  0
    9.9740  -14.3550   23.5042 O   0  0  0  0  0  0  0  0  0  0  0  0
    8.1606  -17.8242   19.4233 C   0  0  0  0  0  0  0  0  0  0  0  0
    6.1000  -12.5332   27.2111 S   0  0  0  0  0  0  0  0  0  0  0  0
    7.4447  -11.9609   26.1304 C   0  0  0  0  0  0  0  0  0  0  0  0
    8.8004  -13.1825   26.1138 C   0  0  0  0  0  0  0  0  0  0  0  0
    8.2135  -14.5386   25.8463 C   0  0  2  0  0  0  0  0  0  0  0  0
    9.2780  -15.6039   25.8800 N   0  0  0  0  0  0  0  0  0  0  0  0
    9.2549  -16.2783   24.5631 C   0  0  0  0  0  0  0  0  0  0  0  0
    9.0976  -16.6046   26.9513 O   0  0  0  0  0  0  0  0  0  0  0  0
    9.6099  -16.3701   28.2449 O   0  0  0  0  0  0  0  0  0  0  0  0
  2  1  1  6
  3  2  1  0
  4  5  2  0
  4  2  1  0
  6  7  1  0
  7  9  1  0
  8  7  2  0
  9 10  1  0
 10 11  1  0
 11 12  1  0
 13 12  1  6
 13 14  1  0
 14  4  1  0
 15 22  1  0
 15 13  1  0
 16 15  2  0
 18 17  1  0
 18 19  1  0
 19 20  1  0
 21 20  1  6
 21 22  1  0
 21 23  1  0
 23 25  2  0
 23 24  1  0
M  END
$$$$
