NVL.pdb
     RDKit          3D

 24 23  0  0  1  0  0  0  0  0999 V2000
   14.7149  -13.3725   18.7199 N   0  0  0  0  0  0  0  0  0  0  0  0
   14.1030  -14.2730   19.6144 C   0  0  0  0  0  0  0  0  0  0  0  0
   14.7804  -15.2050   20.1050 O   0  0  0  0  0  0  0  0  0  0  0  0
   12.6726  -14.0986   19.9552 C   0  0  0  0  0  0  0  0  0  0  0  0
   11.8889  -15.3640   19.6613 C   0  0  2  0  0  0  0  0  0  0  0  0
   11.6417  -15.5215   18.2443 N   0  0  0  0  0  0  0  0  0  0  0  0
   10.5644  -15.2002   20.3437 C   0  0  0  0  0  0  0  0  0  0  0  0
    9.7038  -14.3746   19.9713 O   0  0  0  0  0  0  0  0  0  0  0  0
    8.2701  -17.8068   20.4725 C   0  0  0  0  0  0  0  0  0  0  0  0
    8.4772  -17.5051   21.9316 C   0  0  2  0  0  0  0  0  0  0  0  0
    7.1914  -17.6609   22.6761 C   0  0  0  0  0  0  0  0  0  0  0  0
    9.0286  -16.0951   22.1046 C   0  0  2  0  0  0  0  0  0  0  0  0
   10.3185  -16.0456   21.4636 N   0  0  0  0  0  0  0  0  0  0  0  0
    9.1973  -15.7838   23.5418 C   0  0  0  0  0  0  0  0  0  0  0  0
   10.2642  -16.0968   24.1530 O   0  0  0  0  0  0  0  0  0  0  0  0
    8.1681  -11.7990   26.0652 C   0  0  0  0  0  0  0  0  0  0  0  0
    7.0034  -12.7704   25.8105 C   0  0  2  0  0  0  0  0  0  0  0  0
    5.7629  -12.1587   26.4291 C   0  0  0  0  0  0  0  0  0  0  0  0
    7.3346  -14.1065   26.4012 C   0  0  0  0  0  0  0  0  0  0  0  0
    8.3854  -14.8762   25.6949 C   0  0  2  0  0  0  0  0  0  0  0  0
    8.1817  -15.1245   24.3020 N   0  0  0  0  0  0  0  0  0  0  0  0
    8.4785  -16.2108   26.3717 C   0  0  0  0  0  0  0  0  0  0  0  0
    9.2581  -16.3767   27.5117 O   0  0  0  0  0  0  0  0  0  0  0  0
    7.8544  -17.1900   25.9165 O   0  0  0  0  0  0  0  0  0  0  0  0
  2  1  1  0
  2  3  2  0
  4  2  1  0
  5  4  1  0
  5  6  1  6
  7  8  2  0
  7  5  1  0
 10  9  1  6
 10 12  1  0
 11 10  1  0
 12 13  1  6
 13  7  1  0
 14 21  1  0
 14 12  1  0
 15 14  2  0
 17 16  1  1
 18 17  1  0
 20 19  1  1
 19 17  1  0
 20 22  1  0
 20 21  1  0
 22 23  1  0
 24 22  2  0
M  END
$$$$
