NVL.pdb
     RDKit          3D

 24 23  0  0  1  0  0  0  0  0999 V2000
   10.5431  -20.6642   18.7330 N   0  0  0  0  0  0  0  0  0  0  0  0
   11.4814  -20.1204   19.6326 C   0  0  0  0  0  0  0  0  0  0  0  0
   12.6553  -20.5565   19.6320 O   0  0  0  0  0  0  0  0  0  0  0  0
   11.0598  -19.0452   20.5595 C   0  0  0  0  0  0  0  0  0  0  0  0
   10.5846  -17.8258   19.7920 C   0  0  2  0  0  0  0  0  0  0  0  0
   11.5411  -17.4240   18.7833 N   0  0  0  0  0  0  0  0  0  0  0  0
   10.4820  -16.7172   20.7957 C   0  0  0  0  0  0  0  0  0  0  0  0
   11.4465  -15.9847   21.1025 O   0  0  0  0  0  0  0  0  0  0  0  0
    7.3334  -14.3393   20.9042 C   0  0  0  0  0  0  0  0  0  0  0  0
    7.5334  -15.0246   22.2283 C   0  0  2  0  0  0  0  0  0  0  0  0
    7.1626  -14.1037   23.3447 C   0  0  0  0  0  0  0  0  0  0  0  0
    8.9796  -15.4832   22.3706 C   0  0  2  0  0  0  0  0  0  0  0  0
    9.2074  -16.5264   21.4025 N   0  0  0  0  0  0  0  0  0  0  0  0
    9.2124  -16.0305   23.7261 C   0  0  0  0  0  0  0  0  0  0  0  0
    8.9637  -17.2471   23.9865 O   0  0  0  0  0  0  0  0  0  0  0  0
    9.3920  -12.9830   27.4607 C   0  0  0  0  0  0  0  0  0  0  0  0
    9.8687  -14.3375   28.0110 C   0  0  2  0  0  0  0  0  0  0  0  0
   10.5464  -14.0709   29.3397 C   0  0  0  0  0  0  0  0  0  0  0  0
   10.7911  -14.9781   27.0197 C   0  0  0  0  0  0  0  0  0  0  0  0
   10.1426  -15.8482   26.0109 C   0  0  2  0  0  0  0  0  0  0  0  0
    9.7216  -15.2277   24.7938 N   0  0  0  0  0  0  0  0  0  0  0  0
    8.9197  -16.4283   26.6560 C   0  0  0  0  0  0  0  0  0  0  0  0
    7.6486  -16.0258   26.2598 O   0  0  0  0  0  0  0  0  0  0  0  0
    9.0315  -17.2816   27.5587 O   0  0  0  0  0  0  0  0  0  0  0  0
  2  1  1  0
  2  3  2  0
  4  2  1  0
  5  4  1  0
  5  6  1  6
  7  8  2  0
  7  5  1  0
 10  9  1  6
 10 12  1  0
 11 10  1  0
 12 13  1  6
 13  7  1  0
 14 21  1  0
 14 12  1  0
 15 14  2  0
 17 16  1  6
 18 17  1  0
 20 19  1  1
 19 17  1  0
 20 22  1  0
 20 21  1  0
 22 23  1  0
 24 22  2  0
M  END
$$$$
