NVL.pdb
     RDKit          3D

 24 23  0  0  1  0  0  0  0  0999 V2000
    9.7802  -20.6260   19.3181 N   0  0  0  0  0  0  0  0  0  0  0  0
   10.3409  -20.4205   20.5943 C   0  0  0  0  0  0  0  0  0  0  0  0
   10.6497  -21.4114   21.2950 O   0  0  0  0  0  0  0  0  0  0  0  0
   10.5532  -19.0378   21.0800 C   0  0  0  0  0  0  0  0  0  0  0  0
    9.9329  -18.0303   20.1302 C   0  0  2  0  0  0  0  0  0  0  0  0
   10.6917  -17.9159   18.9035 N   0  0  0  0  0  0  0  0  0  0  0  0
    9.9912  -16.7071   20.8321 C   0  0  0  0  0  0  0  0  0  0  0  0
   11.0639  -16.1566   21.1596 O   0  0  0  0  0  0  0  0  0  0  0  0
    7.8785  -13.8136   19.6580 C   0  0  0  0  0  0  0  0  0  0  0  0
    7.5711  -13.9952   21.1193 C   0  0  2  0  0  0  0  0  0  0  0  0
    7.4266  -12.6646   21.7832 C   0  0  0  0  0  0  0  0  0  0  0  0
    8.6683  -14.8120   21.7906 C   0  0  2  0  0  0  0  0  0  0  0  0
    8.7423  -16.0851   21.1188 N   0  0  0  0  0  0  0  0  0  0  0  0
    8.3372  -15.0421   23.2148 C   0  0  0  0  0  0  0  0  0  0  0  0
    7.3394  -15.7540   23.5424 O   0  0  0  0  0  0  0  0  0  0  0  0
    7.7670  -12.0508   26.9451 C   0  0  0  0  0  0  0  0  0  0  0  0
    6.9391  -12.7638   25.8629 C   0  0  2  0  0  0  0  0  0  0  0  0
    5.4795  -12.4744   26.1485 C   0  0  0  0  0  0  0  0  0  0  0  0
    7.2450  -14.2299   25.8909 C   0  0  0  0  0  0  0  0  0  0  0  0
    8.6566  -14.5947   25.6265 C   0  0  2  0  0  0  0  0  0  0  0  0
    9.1135  -14.4822   24.2767 N   0  0  0  0  0  0  0  0  0  0  0  0
    8.8195  -16.0298   26.0290 C   0  0  0  0  0  0  0  0  0  0  0  0
   10.0276  -16.4915   26.5410 O   0  0  0  0  0  0  0  0  0  0  0  0
    7.8682  -16.8273   25.9077 O   0  0  0  0  0  0  0  0  0  0  0  0
  2  1  1  0
  2  3  2  0
  4  2  1  0
  5  4  1  0
  5  6  1  6
  7  8  2  0
  7  5  1  0
 10  9  1  6
 10 12  1  0
 11 10  1  0
 12 13  1  6
 13  7  1  0
 14 21  1  0
 14 12  1  0
 15 14  2  0
 17 16  1  1
 18 17  1  0
 20 19  1  6
 19 17  1  0
 20 22  1  0
 20 21  1  0
 22 23  1  0
 24 22  2  0
M  END
$$$$
