NVL.pdb
     RDKit          3D

 24 23  0  0  1  0  0  0  0  0999 V2000
   15.5189  -18.7795   21.1202 N   0  0  0  0  0  0  0  0  0  0  0  0
   14.8478  -17.7923   20.3717 C   0  0  0  0  0  0  0  0  0  0  0  0
   15.1997  -17.5744   19.1898 O   0  0  0  0  0  0  0  0  0  0  0  0
   13.7410  -17.0336   20.9980 C   0  0  0  0  0  0  0  0  0  0  0  0
   12.3969  -17.5198   20.4893 C   0  0  2  0  0  0  0  0  0  0  0  0
   12.1573  -17.0966   19.1264 N   0  0  0  0  0  0  0  0  0  0  0  0
   11.3637  -16.8714   21.3605 C   0  0  0  0  0  0  0  0  0  0  0  0
   11.0214  -15.6762   21.2368 O   0  0  0  0  0  0  0  0  0  0  0  0
    7.3771  -17.7826   23.9059 C   0  0  0  0  0  0  0  0  0  0  0  0
    8.5206  -18.1877   23.0163 C   0  0  2  0  0  0  0  0  0  0  0  0
    8.9480  -19.5839   23.3325 C   0  0  0  0  0  0  0  0  0  0  0  0
    9.6859  -17.2202   23.1835 C   0  0  2  0  0  0  0  0  0  0  0  0
   10.7715  -17.6933   22.3619 N   0  0  0  0  0  0  0  0  0  0  0  0
   10.1315  -17.1939   24.5947 C   0  0  0  0  0  0  0  0  0  0  0  0
   11.1561  -17.8445   24.9643 O   0  0  0  0  0  0  0  0  0  0  0  0
   11.2249  -13.7479   27.8764 C   0  0  0  0  0  0  0  0  0  0  0  0
    9.7660  -14.0197   27.4731 C   0  0  2  0  0  0  0  0  0  0  0  0
    8.9055  -12.9863   28.1711 C   0  0  0  0  0  0  0  0  0  0  0  0
    9.3986  -15.4201   27.8574 C   0  0  0  0  0  0  0  0  0  0  0  0
    9.8939  -16.4834   26.9522 C   0  0  2  0  0  0  0  0  0  0  0  0
    9.4399  -16.4451   25.5973 N   0  0  0  0  0  0  0  0  0  0  0  0
    9.4464  -17.7925   27.5303 C   0  0  0  0  0  0  0  0  0  0  0  0
   10.0965  -18.3431   28.6298 O   0  0  0  0  0  0  0  0  0  0  0  0
    8.4819  -18.4032   27.0279 O   0  0  0  0  0  0  0  0  0  0  0  0
  2  1  1  0
  2  3  2  0
  4  2  1  0
  5  4  1  0
  5  6  1  6
  7  8  2  0
  7  5  1  0
 10  9  1  1
 10 12  1  0
 11 10  1  0
 12 13  1  6
 13  7  1  0
 14 21  1  0
 14 12  1  0
 15 14  2  0
 17 16  1  1
 18 17  1  0
 20 19  1  1
 19 17  1  0
 20 22  1  0
 20 21  1  0
 22 23  1  0
 24 22  2  0
M  END
$$$$
