NVL.pdb
     RDKit          3D

 24 23  0  0  1  0  0  0  0  0999 V2000
   15.7658  -14.8212   21.2783 N   0  0  0  0  0  0  0  0  0  0  0  0
   14.6904  -14.3598   20.4934 C   0  0  0  0  0  0  0  0  0  0  0  0
   14.9183  -13.8998   19.3512 O   0  0  0  0  0  0  0  0  0  0  0  0
   13.3140  -14.4287   21.0354 C   0  0  0  0  0  0  0  0  0  0  0  0
   12.6910  -15.7838   20.7571 C   0  0  2  0  0  0  0  0  0  0  0  0
   12.0971  -15.8375   19.4387 N   0  0  0  0  0  0  0  0  0  0  0  0
   11.5925  -15.9504   21.7634 C   0  0  0  0  0  0  0  0  0  0  0  0
   10.5431  -15.2726   21.7446 O   0  0  0  0  0  0  0  0  0  0  0  0
    9.9390  -19.0049   22.0498 C   0  0  0  0  0  0  0  0  0  0  0  0
   10.4408  -18.7912   23.4517 C   0  0  2  0  0  0  0  0  0  0  0  0
    9.4301  -19.2770   24.4389 C   0  0  0  0  0  0  0  0  0  0  0  0
   10.7481  -17.3166   23.6819 C   0  0  2  0  0  0  0  0  0  0  0  0
   11.7973  -16.9384   22.7689 N   0  0  0  0  0  0  0  0  0  0  0  0
   11.2210  -17.1021   25.0680 C   0  0  0  0  0  0  0  0  0  0  0  0
   12.3803  -17.4754   25.4234 O   0  0  0  0  0  0  0  0  0  0  0  0
    9.2382  -13.3978   29.1623 C   0  0  0  0  0  0  0  0  0  0  0  0
   10.3429  -14.1226   28.3755 C   0  0  2  0  0  0  0  0  0  0  0  0
   10.3744  -13.5215   26.9851 C   0  0  0  0  0  0  0  0  0  0  0  0
   10.0531  -15.5921   28.3542 C   0  0  0  0  0  0  0  0  0  0  0  0
   10.8693  -16.3922   27.4112 C   0  0  2  0  0  0  0  0  0  0  0  0
   10.4073  -16.4729   26.0609 N   0  0  0  0  0  0  0  0  0  0  0  0
   10.9101  -17.7916   27.9478 C   0  0  0  0  0  0  0  0  0  0  0  0
   10.2452  -18.8233   27.2931 O   0  0  0  0  0  0  0  0  0  0  0  0
   11.5439  -18.0452   28.9916 O   0  0  0  0  0  0  0  0  0  0  0  0
  2  1  1  0
  2  3  2  0
  4  2  1  0
  5  4  1  0
  5  6  1  6
  7  8  2  0
  7  5  1  0
 10  9  1  6
 10 12  1  0
 11 10  1  0
 12 13  1  6
 13  7  1  0
 14 21  1  0
 14 12  1  0
 15 14  2  0
 17 16  1  1
 18 17  1  0
 20 19  1  1
 19 17  1  0
 20 22  1  0
 20 21  1  0
 22 23  1  0
 24 22  2  0
M  END
$$$$
