NVL.pdb
     RDKit          3D

 24 23  0  0  1  0  0  0  0  0999 V2000
    6.3710  -18.0544   25.4495 N   0  0  0  0  0  0  0  0  0  0  0  0
    6.6941  -18.2772   24.0963 C   0  0  0  0  0  0  0  0  0  0  0  0
    7.7756  -18.8393   23.8088 O   0  0  0  0  0  0  0  0  0  0  0  0
    5.7484  -17.8424   23.0430 C   0  0  0  0  0  0  0  0  0  0  0  0
    6.2207  -18.2929   21.6733 C   0  0  2  0  0  0  0  0  0  0  0  0
    7.0472  -19.4776   21.7569 N   0  0  0  0  0  0  0  0  0  0  0  0
    7.0679  -17.1779   21.1386 C   0  0  0  0  0  0  0  0  0  0  0  0
    7.1825  -16.9344   19.9185 O   0  0  0  0  0  0  0  0  0  0  0  0
    6.8862  -14.5858   19.8819 C   0  0  0  0  0  0  0  0  0  0  0  0
    7.3852  -14.1803   21.2418 C   0  0  2  0  0  0  0  0  0  0  0  0
    7.9489  -12.7977   21.1912 C   0  0  0  0  0  0  0  0  0  0  0  0
    8.4354  -15.1689   21.7336 C   0  0  2  0  0  0  0  0  0  0  0  0
    7.7559  -16.3855   22.1018 N   0  0  0  0  0  0  0  0  0  0  0  0
    9.1285  -14.6296   22.9251 C   0  0  0  0  0  0  0  0  0  0  0  0
    9.7938  -13.5515   22.8566 O   0  0  0  0  0  0  0  0  0  0  0  0
    5.8670  -12.5586   26.7892 C   0  0  0  0  0  0  0  0  0  0  0  0
    7.3356  -13.0088   26.7156 C   0  0  2  0  0  0  0  0  0  0  0  0
    8.1916  -11.7588   26.7355 C   0  0  0  0  0  0  0  0  0  0  0  0
    7.5430  -13.8213   25.4743 C   0  0  0  0  0  0  0  0  0  0  0  0
    8.8430  -14.5259   25.3799 C   0  0  2  0  0  0  0  0  0  0  0  0
    9.0836  -15.2868   24.1940 N   0  0  0  0  0  0  0  0  0  0  0  0
    8.9082  -15.4786   26.5359 C   0  0  0  0  0  0  0  0  0  0  0  0
    9.1180  -15.0128   27.8296 O   0  0  0  0  0  0  0  0  0  0  0  0
    8.7742  -16.7042   26.3471 O   0  0  0  0  0  0  0  0  0  0  0  0
  2  1  1  0
  2  3  2  0
  4  2  1  0
  5  4  1  0
  5  6  1  1
  7  8  2  0
  7  5  1  0
 10  9  1  6
 10 12  1  0
 11 10  1  0
 12 13  1  1
 13  7  1  0
 14 21  1  0
 14 12  1  0
 15 14  2  0
 17 16  1  6
 18 17  1  0
 20 19  1  6
 19 17  1  0
 20 22  1  0
 20 21  1  0
 22 23  1  0
 24 22  2  0
M  END
$$$$
