NVL.pdb
     RDKit          3D

 24 23  0  0  1  0  0  0  0  0999 V2000
   14.9423  -18.1445   19.6462 N   0  0  0  0  0  0  0  0  0  0  0  0
   13.9370  -17.6519   18.7908 C   0  0  0  0  0  0  0  0  0  0  0  0
   13.8775  -18.0683   17.6112 O   0  0  0  0  0  0  0  0  0  0  0  0
   12.9722  -16.6526   19.3041 C   0  0  0  0  0  0  0  0  0  0  0  0
   11.8558  -17.3276   20.0786 C   0  0  2  0  0  0  0  0  0  0  0  0
   10.8553  -17.8861   19.1948 N   0  0  0  0  0  0  0  0  0  0  0  0
   11.2025  -16.2498   20.8900 C   0  0  0  0  0  0  0  0  0  0  0  0
   11.6938  -15.1096   21.0292 O   0  0  0  0  0  0  0  0  0  0  0  0
    7.4629  -15.3407   20.6463 C   0  0  0  0  0  0  0  0  0  0  0  0
    7.7678  -15.7971   22.0469 C   0  0  2  0  0  0  0  0  0  0  0  0
    6.9561  -15.0177   23.0295 C   0  0  0  0  0  0  0  0  0  0  0  0
    9.2553  -15.6422   22.3390 C   0  0  2  0  0  0  0  0  0  0  0  0
    9.9662  -16.5855   21.5130 N   0  0  0  0  0  0  0  0  0  0  0  0
    9.5329  -15.9480   23.7603 C   0  0  0  0  0  0  0  0  0  0  0  0
    9.9578  -17.0921   24.1073 O   0  0  0  0  0  0  0  0  0  0  0  0
    9.4488  -13.4945   29.5088 C   0  0  0  0  0  0  0  0  0  0  0  0
    9.9440  -14.5895   28.5492 C   0  0  2  0  0  0  0  0  0  0  0  0
   11.4390  -14.7261   28.7543 C   0  0  0  0  0  0  0  0  0  0  0  0
    9.5944  -14.2105   27.1427 C   0  0  0  0  0  0  0  0  0  0  0  0
    9.7647  -15.2791   26.1305 C   0  0  2  0  0  0  0  0  0  0  0  0
    9.3390  -14.9839   24.7981 N   0  0  0  0  0  0  0  0  0  0  0  0
    8.9627  -16.4561   26.5990 C   0  0  0  0  0  0  0  0  0  0  0  0
    9.5699  -17.5006   27.2884 O   0  0  0  0  0  0  0  0  0  0  0  0
    7.7372  -16.5100   26.3738 O   0  0  0  0  0  0  0  0  0  0  0  0
  2  1  1  0
  2  3  2  0
  4  2  1  0
  5  4  1  0
  5  6  1  6
  7  8  2  0
  7  5  1  0
 10  9  1  6
 10 12  1  0
 11 10  1  0
 12 13  1  6
 13  7  1  0
 14 21  1  0
 14 12  1  0
 15 14  2  0
 17 16  1  1
 18 17  1  0
 20 19  1  1
 19 17  1  0
 20 22  1  0
 20 21  1  0
 22 23  1  0
 24 22  2  0
M  END
$$$$
