NVL.pdb
     RDKit          3D

 24 23  0  0  1  0  0  0  0  0999 V2000
    8.6626  -20.9676   19.9531 N   0  0  0  0  0  0  0  0  0  0  0  0
    8.7962  -20.0928   18.8566 C   0  0  0  0  0  0  0  0  0  0  0  0
    9.0241  -20.5655   17.7196 O   0  0  0  0  0  0  0  0  0  0  0  0
    8.6644  -18.6336   19.0717 C   0  0  0  0  0  0  0  0  0  0  0  0
    8.4395  -18.3220   20.5394 C   0  0  2  0  0  0  0  0  0  0  0  0
    7.0304  -18.2389   20.8575 N   0  0  0  0  0  0  0  0  0  0  0  0
    9.0445  -16.9708   20.7746 C   0  0  0  0  0  0  0  0  0  0  0  0
   10.2585  -16.7293   20.6050 O   0  0  0  0  0  0  0  0  0  0  0  0
    7.2077  -13.7679   19.6051 C   0  0  0  0  0  0  0  0  0  0  0  0
    7.5047  -13.6442   21.0746 C   0  0  2  0  0  0  0  0  0  0  0  0
    7.8824  -12.2373   21.4060 C   0  0  0  0  0  0  0  0  0  0  0  0
    8.6198  -14.6049   21.4690 C   0  0  2  0  0  0  0  0  0  0  0  0
    8.1573  -15.9453   21.2108 N   0  0  0  0  0  0  0  0  0  0  0  0
    8.9224  -14.4738   22.9120 C   0  0  0  0  0  0  0  0  0  0  0  0
    9.8540  -13.7118   23.3133 O   0  0  0  0  0  0  0  0  0  0  0  0
    8.3668  -12.1357   26.5649 C   0  0  0  0  0  0  0  0  0  0  0  0
    7.1957  -12.9099   25.9372 C   0  0  2  0  0  0  0  0  0  0  0  0
    5.9255  -12.4271   26.6074 C   0  0  0  0  0  0  0  0  0  0  0  0
    7.4158  -14.3796   26.1256 C   0  0  0  0  0  0  0  0  0  0  0  0
    8.4857  -14.9787   25.2938 C   0  0  2  0  0  0  0  0  0  0  0  0
    8.1909  -15.1887   23.9109 N   0  0  0  0  0  0  0  0  0  0  0  0
    8.8002  -16.3196   25.8863 C   0  0  0  0  0  0  0  0  0  0  0  0
    9.2683  -16.4276   27.1917 O   0  0  0  0  0  0  0  0  0  0  0  0
    8.6442  -17.3563   25.2106 O   0  0  0  0  0  0  0  0  0  0  0  0
  2  1  1  0
  2  3  2  0
  4  2  1  0
  5  4  1  0
  5  6  1  6
  7  8  2  0
  7  5  1  0
 10  9  1  6
 10 12  1  0
 11 10  1  0
 12 13  1  1
 13  7  1  0
 14 21  1  0
 14 12  1  0
 15 14  2  0
 17 16  1  1
 18 17  1  0
 20 19  1  1
 19 17  1  0
 20 22  1  0
 20 21  1  0
 22 23  1  0
 24 22  2  0
M  END
$$$$
