NVL.pdb
     RDKit          3D

 24 23  0  0  1  0  0  0  0  0999 V2000
   13.8986  -16.1287   18.6209 N   0  0  0  0  0  0  0  0  0  0  0  0
   13.3532  -16.8574   19.6964 C   0  0  0  0  0  0  0  0  0  0  0  0
   14.0040  -17.8096   20.1842 O   0  0  0  0  0  0  0  0  0  0  0  0
   12.0227  -16.4820   20.2272 C   0  0  0  0  0  0  0  0  0  0  0  0
   11.0103  -17.5836   19.9756 C   0  0  2  0  0  0  0  0  0  0  0  0
   10.7125  -17.7231   18.5665 N   0  0  0  0  0  0  0  0  0  0  0  0
    9.7525  -17.1587   20.6716 C   0  0  0  0  0  0  0  0  0  0  0  0
    8.9248  -16.3732   20.1629 O   0  0  0  0  0  0  0  0  0  0  0  0
    7.5541  -19.8006   22.1577 C   0  0  0  0  0  0  0  0  0  0  0  0
    7.8570  -18.8252   23.2622 C   0  0  2  0  0  0  0  0  0  0  0  0
    6.6578  -18.6496   24.1358 C   0  0  0  0  0  0  0  0  0  0  0  0
    8.2943  -17.4876   22.6780 C   0  0  2  0  0  0  0  0  0  0  0  0
    9.5319  -17.7002   21.9705 N   0  0  0  0  0  0  0  0  0  0  0  0
    8.5263  -16.5065   23.7618 C   0  0  0  0  0  0  0  0  0  0  0  0
    9.6110  -16.5105   24.4198 O   0  0  0  0  0  0  0  0  0  0  0  0
    5.6884  -12.0901   27.1430 C   0  0  0  0  0  0  0  0  0  0  0  0
    6.9863  -12.8211   26.7611 C   0  0  2  0  0  0  0  0  0  0  0  0
    8.0484  -11.7647   26.5336 C   0  0  0  0  0  0  0  0  0  0  0  0
    6.7439  -13.6567   25.5417 C   0  0  0  0  0  0  0  0  0  0  0  0
    7.7786  -14.6755   25.2475 C   0  0  2  0  0  0  0  0  0  0  0  0
    7.5541  -15.5199   24.1161 N   0  0  0  0  0  0  0  0  0  0  0  0
    7.8698  -15.5655   26.4507 C   0  0  0  0  0  0  0  0  0  0  0  0
    8.9503  -15.4740   27.3220 O   0  0  0  0  0  0  0  0  0  0  0  0
    6.9729  -16.4005   26.6829 O   0  0  0  0  0  0  0  0  0  0  0  0
  2  1  1  0
  2  3  2  0
  4  2  1  0
  5  4  1  0
  5  6  1  6
  7  8  2  0
  7  5  1  0
 10  9  1  6
 10 12  1  0
 11 10  1  0
 12 13  1  1
 13  7  1  0
 14 21  1  0
 14 12  1  0
 15 14  2  0
 17 16  1  6
 18 17  1  0
 20 19  1  1
 19 17  1  0
 20 22  1  0
 20 21  1  0
 22 23  1  0
 24 22  2  0
M  END
$$$$
