NVL.pdb
     RDKit          3D

 24 23  0  0  1  0  0  0  0  0999 V2000
   14.5982  -18.1862   18.9413 N   0  0  0  0  0  0  0  0  0  0  0  0
   13.1977  -18.2623   18.8070 C   0  0  0  0  0  0  0  0  0  0  0  0
   12.6907  -19.2455   18.2200 O   0  0  0  0  0  0  0  0  0  0  0  0
   12.3552  -17.1785   19.3624 C   0  0  0  0  0  0  0  0  0  0  0  0
   11.4929  -17.6934   20.4996 C   0  0  2  0  0  0  0  0  0  0  0  0
   10.4219  -18.5383   20.0168 N   0  0  0  0  0  0  0  0  0  0  0  0
   10.8744  -16.4836   21.1326 C   0  0  0  0  0  0  0  0  0  0  0  0
   11.5434  -15.5076   21.5336 O   0  0  0  0  0  0  0  0  0  0  0  0
    7.4104  -15.0519   19.8615 C   0  0  0  0  0  0  0  0  0  0  0  0
    7.3467  -15.3565   21.3333 C   0  0  2  0  0  0  0  0  0  0  0  0
    6.5291  -14.3229   22.0371 C   0  0  0  0  0  0  0  0  0  0  0  0
    8.7519  -15.4179   21.9195 C   0  0  2  0  0  0  0  0  0  0  0  0
    9.4559  -16.4904   21.2627 N   0  0  0  0  0  0  0  0  0  0  0  0
    8.6897  -15.7055   23.3702 C   0  0  0  0  0  0  0  0  0  0  0  0
    8.9053  -16.8759   23.8098 O   0  0  0  0  0  0  0  0  0  0  0  0
    6.7491  -12.6279   25.3427 C   0  0  0  0  0  0  0  0  0  0  0  0
    7.1531  -13.1161   26.7439 C   0  0  2  0  0  0  0  0  0  0  0  0
    7.2154  -11.8993   27.6446 C   0  0  0  0  0  0  0  0  0  0  0  0
    8.4672  -13.8303   26.6599 C   0  0  0  0  0  0  0  0  0  0  0  0
    8.5116  -14.9821   25.7289 C   0  0  2  0  0  0  0  0  0  0  0  0
    8.3880  -14.6938   24.3343 N   0  0  0  0  0  0  0  0  0  0  0  0
    7.3714  -15.8841   26.0955 C   0  0  0  0  0  0  0  0  0  0  0  0
    7.4666  -16.7427   27.1857 O   0  0  0  0  0  0  0  0  0  0  0  0
    6.3212  -15.8729   25.4227 O   0  0  0  0  0  0  0  0  0  0  0  0
  2  1  1  0
  2  3  2  0
  4  2  1  0
  5  4  1  0
  5  6  1  6
  7  8  2  0
  7  5  1  0
 10  9  1  6
 10 12  1  0
 11 10  1  0
 12 13  1  6
 13  7  1  0
 14 21  1  0
 14 12  1  0
 15 14  2  0
 17 16  1  6
 18 17  1  0
 20 19  1  1
 19 17  1  0
 20 22  1  0
 20 21  1  0
 22 23  1  0
 24 22  2  0
M  END
$$$$
