NVL.pdb
     RDKit          3D

 24 23  0  0  1  0  0  0  0  0999 V2000
   12.4005  -20.4344   18.8232 N   0  0  0  0  0  0  0  0  0  0  0  0
   11.1805  -19.7429   18.6864 C   0  0  0  0  0  0  0  0  0  0  0  0
   10.1734  -20.3545   18.2621 O   0  0  0  0  0  0  0  0  0  0  0  0
   11.1147  -18.3082   19.0471 C   0  0  0  0  0  0  0  0  0  0  0  0
   10.4626  -18.1216   20.4043 C   0  0  2  0  0  0  0  0  0  0  0  0
    9.1007  -18.6101   20.4136 N   0  0  0  0  0  0  0  0  0  0  0  0
   10.4224  -16.6428   20.6460 C   0  0  0  0  0  0  0  0  0  0  0  0
   11.4423  -15.9214   20.6261 O   0  0  0  0  0  0  0  0  0  0  0  0
    7.3731  -14.4674   19.4470 C   0  0  0  0  0  0  0  0  0  0  0  0
    7.5914  -14.2501   20.9195 C   0  0  2  0  0  0  0  0  0  0  0  0
    7.3892  -12.8100   21.2620 C   0  0  0  0  0  0  0  0  0  0  0  0
    8.9909  -14.7034   21.3167 C   0  0  2  0  0  0  0  0  0  0  0  0
    9.1414  -16.0768   20.9063 N   0  0  0  0  0  0  0  0  0  0  0  0
    9.1580  -14.6228   22.7852 C   0  0  0  0  0  0  0  0  0  0  0  0
   10.2510  -14.2271   23.2935 O   0  0  0  0  0  0  0  0  0  0  0  0
    5.5667  -12.5108   27.1265 C   0  0  0  0  0  0  0  0  0  0  0  0
    6.9692  -13.0340   26.7742 C   0  0  2  0  0  0  0  0  0  0  0  0
    7.9375  -11.8822   26.9511 C   0  0  0  0  0  0  0  0  0  0  0  0
    6.9630  -13.5625   25.3725 C   0  0  0  0  0  0  0  0  0  0  0  0
    8.1011  -14.4409   25.0143 C   0  0  2  0  0  0  0  0  0  0  0  0
    8.1116  -14.9815   23.6910 N   0  0  0  0  0  0  0  0  0  0  0  0
    8.0735  -15.6007   25.9642 C   0  0  0  0  0  0  0  0  0  0  0  0
    8.7545  -15.5433   27.1757 O   0  0  0  0  0  0  0  0  0  0  0  0
    7.4362  -16.6332   25.6753 O   0  0  0  0  0  0  0  0  0  0  0  0
  2  1  1  0
  2  3  2  0
  4  2  1  0
  5  4  1  0
  5  6  1  6
  7  8  2  0
  7  5  1  0
 10  9  1  6
 10 12  1  0
 11 10  1  0
 12 13  1  1
 13  7  1  0
 14 21  1  0
 14 12  1  0
 15 14  2  0
 17 16  1  6
 18 17  1  0
 20 19  1  6
 19 17  1  0
 20 22  1  0
 20 21  1  0
 22 23  1  0
 24 22  2  0
M  END
$$$$
