HDR.pdb
     RDKit          3D

 30 30  0  0  1  0  0  0  0  0999 V2000
    9.5919  -16.0080   18.5093 N   0  0  0  0  0  0  0  0  0  0  0  0
    8.4885  -15.6125   19.3247 C   0  0  1  0  0  0  0  0  0  0  0  0
    7.2060  -15.6461   18.5296 C   0  0  0  0  0  0  0  0  0  0  0  0
    7.4260  -14.9246   17.2501 C   0  0  0  0  0  0  0  0  0  0  0  0
    7.7385  -13.5603   17.1179 C   0  0  0  0  0  0  0  0  0  0  0  0
    7.8665  -13.2758   15.8132 N   0  0  0  0  0  0  0  0  0  0  0  0
    7.6509  -14.3871   15.1071 C   0  0  0  0  0  0  0  0  0  0  0  0
    7.3866  -15.3711   15.9845 N   0  0  0  0  0  0  0  0  0  0  0  0
    8.4200  -16.4580   20.5420 C   0  0  0  0  0  0  0  0  0  0  0  0
    7.5185  -16.2788   21.3669 O   0  0  0  0  0  0  0  0  0  0  0  0
    9.3777  -17.4723   20.7729 N   0  0  0  0  0  0  0  0  0  0  0  0
    9.4675  -18.2536   21.9715 C   0  0  1  0  0  0  0  0  0  0  0  0
   10.5596  -19.3181   21.8697 C   0  0  0  0  0  0  0  0  0  0  0  0
   10.5976  -20.1987   23.0531 C   0  0  0  0  0  0  0  0  0  0  0  0
   11.5940  -20.2916   23.8269 O   0  0  0  0  0  0  0  0  0  0  0  0
    9.6481  -17.4863   23.2006 C   0  0  0  0  0  0  0  0  0  0  0  0
   10.6835  -16.7942   23.3942 O   0  0  0  0  0  0  0  0  0  0  0  0
    9.4913  -20.9750   23.3471 O   0  0  0  0  0  0  0  0  0  0  0  0
    6.6822  -11.6190   27.7299 N   0  0  0  0  0  0  0  0  0  0  0  0
    6.3241  -11.4568   26.3485 C   0  0  0  0  0  0  0  0  0  0  0  0
    5.4299  -10.5910   26.0873 N   0  0  0  0  0  0  0  0  0  0  0  0
    6.9200  -12.2092   25.3133 N   0  0  0  0  0  0  0  0  0  0  0  0
    6.7160  -13.6360   25.2017 C   0  0  0  0  0  0  0  0  0  0  0  0
    7.8357  -14.4108   25.9022 C   0  0  0  0  0  0  0  0  0  0  0  0
    7.6472  -15.8967   25.7457 C   0  0  0  0  0  0  0  0  0  0  0  0
    8.8944  -16.6538   25.4672 C   0  0  2  0  0  0  0  0  0  0  0  0
    8.7078  -17.4434   24.2692 N   0  0  0  0  0  0  0  0  0  0  0  0
    9.3899  -17.4479   26.6045 C   0  0  0  0  0  0  0  0  0  0  0  0
    9.4409  -18.7157   26.5246 O   0  0  0  0  0  0  0  0  0  0  0  0
    9.8298  -16.9178   27.8134 O   0  0  0  0  0  0  0  0  0  0  0  0
  2  3  1  0
  2  1  1  6
  3  4  1  0
  4  5  2  0
  5  6  1  0
  7  6  1  0
  8  4  1  0
  8  7  2  0
  9  2  1  0
 10  9  2  0
 11  9  1  0
 12 11  1  0
 12 13  1  6
 13 14  1  0
 14 18  1  0
 15 14  2  0
 16 27  1  0
 16 12  1  0
 17 16  2  0
 20 21  2  0
 20 19  1  0
 22 20  1  0
 23 22  1  0
 24 23  1  0
 26 25  1  1
 25 24  1  0
 26 28  1  0
 26 27  1  0
 28 30  1  0
 29 28  2  0
M  END
$$$$
