HDR.pdb
     RDKit          3D

 30 30  0  0  1  0  0  0  0  0999 V2000
    8.8078  -17.7481   16.4092 N   0  0  0  0  0  0  0  0  0  0  0  0
    9.8700  -17.1734   17.1708 C   0  0  1  0  0  0  0  0  0  0  0  0
    9.3177  -16.3262   18.2912 C   0  0  0  0  0  0  0  0  0  0  0  0
    8.6271  -15.1527   17.6979 C   0  0  0  0  0  0  0  0  0  0  0  0
    7.2456  -15.0437   17.4615 C   0  0  0  0  0  0  0  0  0  0  0  0
    6.9981  -13.8408   16.9219 N   0  0  0  0  0  0  0  0  0  0  0  0
    8.1497  -13.1780   16.8011 C   0  0  0  0  0  0  0  0  0  0  0  0
    9.1214  -13.9795   17.2714 N   0  0  0  0  0  0  0  0  0  0  0  0
   10.7822  -18.2350   17.6631 C   0  0  0  0  0  0  0  0  0  0  0  0
   10.3654  -19.3889   17.8047 O   0  0  0  0  0  0  0  0  0  0  0  0
   12.1303  -17.9431   17.9744 N   0  0  0  0  0  0  0  0  0  0  0  0
   13.0762  -18.8938   18.4809 C   0  0  1  0  0  0  0  0  0  0  0  0
   14.4337  -18.7600   17.7914 C   0  0  0  0  0  0  0  0  0  0  0  0
   15.3615  -19.8457   18.1627 C   0  0  0  0  0  0  0  0  0  0  0  0
   16.6212  -19.7370   18.1214 O   0  0  0  0  0  0  0  0  0  0  0  0
   13.2612  -18.8742   19.9292 C   0  0  0  0  0  0  0  0  0  0  0  0
   13.6295  -17.8281   20.5280 O   0  0  0  0  0  0  0  0  0  0  0  0
   14.8426  -21.0581   18.5796 O   0  0  0  0  0  0  0  0  0  0  0  0
    6.8659  -22.8774   20.5307 N   0  0  0  0  0  0  0  0  0  0  0  0
    8.2988  -22.8040   20.5950 C   0  0  0  0  0  0  0  0  0  0  0  0
    8.9460  -23.5291   19.7747 N   0  0  0  0  0  0  0  0  0  0  0  0
    8.9790  -21.9766   21.5144 N   0  0  0  0  0  0  0  0  0  0  0  0
   10.4208  -21.9881   21.6191 C   0  0  0  0  0  0  0  0  0  0  0  0
   10.9116  -20.9274   22.6083 C   0  0  0  0  0  0  0  0  0  0  0  0
   12.3975  -21.0366   22.8279 C   0  0  0  0  0  0  0  0  0  0  0  0
   13.1959  -19.9403   22.2221 C   0  0  2  0  0  0  0  0  0  0  0  0
   13.0536  -19.9946   20.7832 N   0  0  0  0  0  0  0  0  0  0  0  0
   14.6026  -19.9013   22.6570 C   0  0  0  0  0  0  0  0  0  0  0  0
   15.5161  -20.3718   21.9084 O   0  0  0  0  0  0  0  0  0  0  0  0
   15.0477  -19.3720   23.8642 O   0  0  0  0  0  0  0  0  0  0  0  0
  2  3  1  0
  2  1  1  1
  3  4  1  0
  4  5  2  0
  5  6  1  0
  7  6  1  0
  8  4  1  0
  8  7  2  0
  9  2  1  0
 10  9  2  0
 11  9  1  0
 12 11  1  0
 12 13  1  6
 13 14  1  0
 14 18  1  0
 15 14  2  0
 16 27  1  0
 16 12  1  0
 17 16  2  0
 20 21  2  0
 20 19  1  0
 22 20  1  0
 23 22  1  0
 24 23  1  0
 26 25  1  1
 25 24  1  0
 26 28  1  0
 26 27  1  0
 28 30  1  0
 29 28  2  0
M  END
$$$$
