HDR.pdb
     RDKit          3D

 30 30  0  0  1  0  0  0  0  0999 V2000
    8.5736  -17.2240   17.8572 N   0  0  0  0  0  0  0  0  0  0  0  0
    9.2351  -16.2598   18.6765 C   0  0  1  0  0  0  0  0  0  0  0  0
    8.2849  -15.1511   19.0588 C   0  0  0  0  0  0  0  0  0  0  0  0
    7.9749  -14.3563   17.8429 C   0  0  0  0  0  0  0  0  0  0  0  0
    8.4740  -13.0757   17.5476 C   0  0  0  0  0  0  0  0  0  0  0  0
    7.9762  -12.6856   16.3646 N   0  0  0  0  0  0  0  0  0  0  0  0
    7.1852  -13.6501   15.8912 C   0  0  0  0  0  0  0  0  0  0  0  0
    7.1934  -14.6491   16.7911 N   0  0  0  0  0  0  0  0  0  0  0  0
    9.8387  -16.9190   19.8607 C   0  0  0  0  0  0  0  0  0  0  0  0
    9.1256  -17.5589   20.6400 O   0  0  0  0  0  0  0  0  0  0  0  0
   11.2270  -16.8248   20.1117 N   0  0  0  0  0  0  0  0  0  0  0  0
   11.8919  -17.3897   21.2493 C   0  0  1  0  0  0  0  0  0  0  0  0
   13.4075  -17.4263   21.0554 C   0  0  0  0  0  0  0  0  0  0  0  0
   14.0803  -18.2836   22.0502 C   0  0  0  0  0  0  0  0  0  0  0  0
   15.1448  -18.9262   21.8172 O   0  0  0  0  0  0  0  0  0  0  0  0
   11.5793  -16.7577   22.5280 C   0  0  0  0  0  0  0  0  0  0  0  0
   11.9565  -15.5834   22.7874 O   0  0  0  0  0  0  0  0  0  0  0  0
   13.5292  -18.4052   23.3130 O   0  0  0  0  0  0  0  0  0  0  0  0
    5.1174  -13.0236   25.5188 N   0  0  0  0  0  0  0  0  0  0  0  0
    6.4903  -12.6109   25.6060 C   0  0  0  0  0  0  0  0  0  0  0  0
    6.7264  -11.3715   25.4459 N   0  0  0  0  0  0  0  0  0  0  0  0
    7.5440  -13.5167   25.8554 N   0  0  0  0  0  0  0  0  0  0  0  0
    7.3180  -14.9436   25.9079 C   0  0  0  0  0  0  0  0  0  0  0  0
    8.6308  -15.7038   26.1161 C   0  0  0  0  0  0  0  0  0  0  0  0
    9.1112  -16.3194   24.8284 C   0  0  0  0  0  0  0  0  0  0  0  0
   10.5380  -16.7323   24.8331 C   0  0  2  0  0  0  0  0  0  0  0  0
   10.8442  -17.3808   23.5764 N   0  0  0  0  0  0  0  0  0  0  0  0
   10.9343  -17.5350   26.0028 C   0  0  0  0  0  0  0  0  0  0  0  0
   11.3336  -18.7323   25.8503 O   0  0  0  0  0  0  0  0  0  0  0  0
   10.9142  -17.0861   27.3195 O   0  0  0  0  0  0  0  0  0  0  0  0
  2  3  1  0
  2  1  1  1
  3  4  1  0
  4  5  2  0
  5  6  1  0
  7  6  1  0
  8  4  1  0
  8  7  2  0
  9  2  1  0
 10  9  2  0
 11  9  1  0
 12 11  1  0
 12 13  1  6
 13 14  1  0
 14 18  1  0
 15 14  2  0
 16 27  1  0
 16 12  1  0
 17 16  2  0
 20 21  2  0
 20 19  1  0
 22 20  1  0
 23 22  1  0
 24 23  1  0
 26 25  1  1
 25 24  1  0
 26 28  1  0
 26 27  1  0
 28 30  1  0
 29 28  2  0
M  END
$$$$
