HDR.pdb
     RDKit          3D

 30 30  0  0  1  0  0  0  0  0999 V2000
   10.7026  -15.3680   18.8415 N   0  0  0  0  0  0  0  0  0  0  0  0
    9.5506  -15.4366   19.6823 C   0  0  1  0  0  0  0  0  0  0  0  0
    8.3545  -15.9222   18.9002 C   0  0  0  0  0  0  0  0  0  0  0  0
    8.1156  -14.9836   17.7740 C   0  0  0  0  0  0  0  0  0  0  0  0
    7.0198  -15.0163   16.8940 C   0  0  0  0  0  0  0  0  0  0  0  0
    7.1477  -14.0110   16.0151 N   0  0  0  0  0  0  0  0  0  0  0  0
    8.2682  -13.3402   16.2882 C   0  0  0  0  0  0  0  0  0  0  0  0
    8.8406  -13.9367   17.3486 N   0  0  0  0  0  0  0  0  0  0  0  0
    9.8300  -16.2823   20.8689 C   0  0  0  0  0  0  0  0  0  0  0  0
    8.9255  -16.5388   21.6698 O   0  0  0  0  0  0  0  0  0  0  0  0
   11.1249  -16.8023   21.0977 N   0  0  0  0  0  0  0  0  0  0  0  0
   11.5094  -17.5581   22.2536 C   0  0  1  0  0  0  0  0  0  0  0  0
   13.0036  -17.8797   22.2451 C   0  0  0  0  0  0  0  0  0  0  0  0
   13.4120  -18.6189   21.0352 C   0  0  0  0  0  0  0  0  0  0  0  0
   14.1548  -18.1335   20.1335 O   0  0  0  0  0  0  0  0  0  0  0  0
   11.1470  -16.9597   23.5353 C   0  0  0  0  0  0  0  0  0  0  0  0
   11.6668  -15.8791   23.9235 O   0  0  0  0  0  0  0  0  0  0  0  0
   12.9655  -19.9161   20.8591 O   0  0  0  0  0  0  0  0  0  0  0  0
    5.0772  -12.3536   26.7985 N   0  0  0  0  0  0  0  0  0  0  0  0
    6.1764  -11.8627   26.0151 C   0  0  0  0  0  0  0  0  0  0  0  0
    6.1698  -10.6223   25.7344 N   0  0  0  0  0  0  0  0  0  0  0  0
    7.2242  -12.6954   25.5662 N   0  0  0  0  0  0  0  0  0  0  0  0
    7.2001  -14.1245   25.7831 C   0  0  0  0  0  0  0  0  0  0  0  0
    8.4605  -14.7897   25.2232 C   0  0  0  0  0  0  0  0  0  0  0  0
    8.4586  -16.2710   25.4952 C   0  0  0  0  0  0  0  0  0  0  0  0
    9.8057  -16.8694   25.6780 C   0  0  2  0  0  0  0  0  0  0  0  0
   10.2044  -17.5157   24.4464 N   0  0  0  0  0  0  0  0  0  0  0  0
    9.9245  -17.7514   26.8516 C   0  0  0  0  0  0  0  0  0  0  0  0
   10.0584  -19.0062   26.6968 O   0  0  0  0  0  0  0  0  0  0  0  0
    9.9053  -17.3220   28.1748 O   0  0  0  0  0  0  0  0  0  0  0  0
  2  3  1  0
  2  1  1  6
  3  4  1  0
  4  5  2  0
  5  6  1  0
  7  6  1  0
  8  4  1  0
  8  7  2  0
  9  2  1  0
 10  9  2  0
 11  9  1  0
 12 11  1  0
 12 13  1  1
 13 14  1  0
 14 18  1  0
 15 14  2  0
 16 27  1  0
 16 12  1  0
 17 16  2  0
 20 21  2  0
 20 19  1  0
 22 20  1  0
 23 22  1  0
 24 23  1  0
 26 25  1  6
 25 24  1  0
 26 28  1  0
 26 27  1  0
 28 30  1  0
 29 28  2  0
M  END
$$$$
