HDR.pdb
     RDKit          3D

 30 30  0  0  1  0  0  0  0  0999 V2000
   10.3688  -15.3273   18.4606 N   0  0  0  0  0  0  0  0  0  0  0  0
    9.2320  -15.3104   19.3245 C   0  0  1  0  0  0  0  0  0  0  0  0
    7.9900  -15.7185   18.5703 C   0  0  0  0  0  0  0  0  0  0  0  0
    7.8006  -14.7823   17.4329 C   0  0  0  0  0  0  0  0  0  0  0  0
    7.9284  -13.3834   17.4886 C   0  0  0  0  0  0  0  0  0  0  0  0
    7.6885  -12.8836   16.2671 N   0  0  0  0  0  0  0  0  0  0  0  0
    7.4136  -13.8907   15.4362 C   0  0  0  0  0  0  0  0  0  0  0  0
    7.4843  -15.0271   16.1513 N   0  0  0  0  0  0  0  0  0  0  0  0
    9.4768  -16.1645   20.5128 C   0  0  0  0  0  0  0  0  0  0  0  0
    8.6124  -16.2635   21.3892 O   0  0  0  0  0  0  0  0  0  0  0  0
   10.6930  -16.8711   20.6573 N   0  0  0  0  0  0  0  0  0  0  0  0
   11.0805  -17.5993   21.8299 C   0  0  1  0  0  0  0  0  0  0  0  0
   12.4129  -18.3211   21.6302 C   0  0  0  0  0  0  0  0  0  0  0  0
   12.7868  -19.1426   22.7975 C   0  0  0  0  0  0  0  0  0  0  0  0
   12.0520  -19.2893   23.8167 O   0  0  0  0  0  0  0  0  0  0  0  0
   11.1313  -16.8138   23.0598 C   0  0  0  0  0  0  0  0  0  0  0  0
   12.0738  -16.0074   23.2831 O   0  0  0  0  0  0  0  0  0  0  0  0
   14.0067  -19.7947   22.7956 O   0  0  0  0  0  0  0  0  0  0  0  0
    5.0555  -12.1132   26.6756 N   0  0  0  0  0  0  0  0  0  0  0  0
    6.4123  -12.0500   26.2090 C   0  0  0  0  0  0  0  0  0  0  0  0
    6.8760  -10.8937   25.9533 N   0  0  0  0  0  0  0  0  0  0  0  0
    7.2124  -13.1998   26.0340 N   0  0  0  0  0  0  0  0  0  0  0  0
    6.8102  -14.2741   25.1542 C   0  0  0  0  0  0  0  0  0  0  0  0
    7.7785  -15.4566   25.2474 C   0  0  0  0  0  0  0  0  0  0  0  0
    9.2099  -14.9900   25.2101 C   0  0  0  0  0  0  0  0  0  0  0  0
   10.2186  -16.0765   25.3007 C   0  0  2  0  0  0  0  0  0  0  0  0
   10.1574  -16.8767   24.0968 N   0  0  0  0  0  0  0  0  0  0  0  0
   10.1331  -16.8840   26.5296 C   0  0  0  0  0  0  0  0  0  0  0  0
    9.8863  -18.1292   26.4599 O   0  0  0  0  0  0  0  0  0  0  0  0
   10.3068  -16.3912   27.8191 O   0  0  0  0  0  0  0  0  0  0  0  0
  2  3  1  0
  2  1  1  6
  3  4  1  0
  4  5  2  0
  5  6  1  0
  7  6  1  0
  8  4  1  0
  8  7  2  0
  9  2  1  0
 10  9  2  0
 11  9  1  0
 12 11  1  0
 12 13  1  6
 13 14  1  0
 14 18  1  0
 15 14  2  0
 16 27  1  0
 16 12  1  0
 17 16  2  0
 20 21  2  0
 20 19  1  0
 22 20  1  0
 23 22  1  0
 24 23  1  0
 26 25  1  6
 25 24  1  0
 26 28  1  0
 26 27  1  0
 28 30  1  0
 29 28  2  0
M  END
$$$$
