HDR.pdb
     RDKit          3D

 30 30  0  0  1  0  0  0  0  0999 V2000
   11.8872  -18.7745   18.4423 N   0  0  0  0  0  0  0  0  0  0  0  0
   11.1986  -19.9612   18.8380 C   0  0  1  0  0  0  0  0  0  0  0  0
   11.3605  -21.0385   17.7934 C   0  0  0  0  0  0  0  0  0  0  0  0
   11.8462  -20.4089   16.5388 C   0  0  0  0  0  0  0  0  0  0  0  0
   11.1341  -19.4874   15.7515 C   0  0  0  0  0  0  0  0  0  0  0  0
   11.8974  -19.1407   14.7042 N   0  0  0  0  0  0  0  0  0  0  0  0
   13.0581  -19.7939   14.7825 C   0  0  0  0  0  0  0  0  0  0  0  0
   13.0132  -20.5536   15.8911 N   0  0  0  0  0  0  0  0  0  0  0  0
   11.6601  -20.4005   20.1779 C   0  0  0  0  0  0  0  0  0  0  0  0
   11.2401  -21.4579   20.6583 O   0  0  0  0  0  0  0  0  0  0  0  0
   12.5795  -19.6214   20.9176 N   0  0  0  0  0  0  0  0  0  0  0  0
   12.9963  -19.9046   22.2597 C   0  0  1  0  0  0  0  0  0  0  0  0
   14.2120  -19.0692   22.6602 C   0  0  0  0  0  0  0  0  0  0  0  0
   15.4150  -19.4187   21.8806 C   0  0  0  0  0  0  0  0  0  0  0  0
   16.1865  -18.5624   21.3592 O   0  0  0  0  0  0  0  0  0  0  0  0
   11.9555  -19.7683   23.2748 C   0  0  0  0  0  0  0  0  0  0  0  0
   11.3593  -18.6731   23.4581 O   0  0  0  0  0  0  0  0  0  0  0  0
   15.7315  -20.7527   21.6976 O   0  0  0  0  0  0  0  0  0  0  0  0
    4.4768  -22.7381   24.3477 N   0  0  0  0  0  0  0  0  0  0  0  0
    4.9542  -23.1844   25.6266 C   0  0  0  0  0  0  0  0  0  0  0  0
    4.1572  -23.8936   26.3190 N   0  0  0  0  0  0  0  0  0  0  0  0
    6.2398  -22.8646   26.1141 N   0  0  0  0  0  0  0  0  0  0  0  0
    7.1034  -21.9374   25.4182 C   0  0  0  0  0  0  0  0  0  0  0  0
    8.4783  -21.8544   26.0870 C   0  0  0  0  0  0  0  0  0  0  0  0
    9.5811  -21.8499   25.0613 C   0  0  0  0  0  0  0  0  0  0  0  0
   10.4779  -20.6673   25.1205 C   0  0  2  0  0  0  0  0  0  0  0  0
   11.5235  -20.8200   24.1321 N   0  0  0  0  0  0  0  0  0  0  0  0
   11.0004  -20.3678   26.4647 C   0  0  0  0  0  0  0  0  0  0  0  0
   12.2280  -20.5637   26.7313 O   0  0  0  0  0  0  0  0  0  0  0  0
   10.2437  -19.8656   27.5187 O   0  0  0  0  0  0  0  0  0  0  0  0
  2  3  1  0
  2  1  1  6
  3  4  1  0
  4  5  2  0
  5  6  1  0
  7  6  1  0
  8  4  1  0
  8  7  2  0
  9  2  1  0
 10  9  2  0
 11  9  1  0
 12 11  1  0
 12 13  1  1
 13 14  1  0
 14 18  1  0
 15 14  2  0
 16 27  1  0
 16 12  1  0
 17 16  2  0
 20 21  2  0
 20 19  1  0
 22 20  1  0
 23 22  1  0
 24 23  1  0
 26 25  1  1
 25 24  1  0
 26 28  1  0
 26 27  1  0
 28 30  1  0
 29 28  2  0
M  END
$$$$
