HDR.pdb
     RDKit          3D

 30 30  0  0  1  0  0  0  0  0999 V2000
   11.6717  -16.5829   16.8969 N   0  0  0  0  0  0  0  0  0  0  0  0
   10.4975  -16.2532   17.6394 C   0  0  1  0  0  0  0  0  0  0  0  0
    9.2947  -16.9632   17.0674 C   0  0  0  0  0  0  0  0  0  0  0  0
    9.0382  -16.4318   15.7043 C   0  0  0  0  0  0  0  0  0  0  0  0
    9.8964  -15.5914   14.9738 C   0  0  0  0  0  0  0  0  0  0  0  0
    9.3281  -15.3275   13.7877 N   0  0  0  0  0  0  0  0  0  0  0  0
    8.1523  -15.9548   13.7246 C   0  0  0  0  0  0  0  0  0  0  0  0
    7.9907  -16.6150   14.8848 N   0  0  0  0  0  0  0  0  0  0  0  0
   10.6982  -16.5532   19.0785 C   0  0  0  0  0  0  0  0  0  0  0  0
    9.7793  -16.3638   19.8815 O   0  0  0  0  0  0  0  0  0  0  0  0
   11.9340  -17.0560   19.5469 N   0  0  0  0  0  0  0  0  0  0  0  0
   12.2228  -17.3687   20.9159 C   0  0  1  0  0  0  0  0  0  0  0  0
   13.7262  -17.4976   21.1594 C   0  0  0  0  0  0  0  0  0  0  0  0
   14.0400  -17.8584   22.5553 C   0  0  0  0  0  0  0  0  0  0  0  0
   13.5464  -18.8606   23.1490 O   0  0  0  0  0  0  0  0  0  0  0  0
   11.6471  -16.4527   21.8966 C   0  0  0  0  0  0  0  0  0  0  0  0
   12.1134  -15.2936   22.0625 O   0  0  0  0  0  0  0  0  0  0  0  0
   14.9198  -17.0668   23.2711 O   0  0  0  0  0  0  0  0  0  0  0  0
    9.5021  -13.8888   19.0693 N   0  0  0  0  0  0  0  0  0  0  0  0
    8.4969  -13.0476   19.6565 C   0  0  0  0  0  0  0  0  0  0  0  0
    8.5302  -11.8147   19.3462 N   0  0  0  0  0  0  0  0  0  0  0  0
    7.5104  -13.5404   20.5377 N   0  0  0  0  0  0  0  0  0  0  0  0
    7.8178  -13.8627   21.9130 C   0  0  0  0  0  0  0  0  0  0  0  0
    8.2008  -15.3377   22.0627 C   0  0  0  0  0  0  0  0  0  0  0  0
    8.5605  -15.6628   23.4885 C   0  0  0  0  0  0  0  0  0  0  0  0
   10.0128  -15.8560   23.7328 C   0  0  2  0  0  0  0  0  0  0  0  0
   10.5405  -16.7637   22.7372 N   0  0  0  0  0  0  0  0  0  0  0  0
   10.3492  -16.2581   25.1093 C   0  0  0  0  0  0  0  0  0  0  0  0
   10.6728  -17.4612   25.3624 O   0  0  0  0  0  0  0  0  0  0  0  0
   10.3485  -15.4065   26.2095 O   0  0  0  0  0  0  0  0  0  0  0  0
  2  3  1  0
  2  1  1  6
  3  4  1  0
  4  5  2  0
  5  6  1  0
  7  6  1  0
  8  4  1  0
  8  7  2  0
  9  2  1  0
 10  9  2  0
 11  9  1  0
 12 11  1  0
 12 13  1  6
 13 14  1  0
 14 18  1  0
 15 14  2  0
 16 27  1  0
 16 12  1  0
 17 16  2  0
 20 21  2  0
 20 19  1  0
 22 20  1  0
 23 22  1  0
 24 23  1  0
 26 25  1  1
 25 24  1  0
 26 28  1  0
 26 27  1  0
 28 30  1  0
 29 28  2  0
M  END
$$$$
