HDR.pdb
     RDKit          3D

 30 30  0  0  1  0  0  0  0  0999 V2000
    8.0329  -16.9372   19.9418 N   0  0  0  0  0  0  0  0  0  0  0  0
    9.0008  -16.2377   20.7245 C   0  0  1  0  0  0  0  0  0  0  0  0
    8.4087  -14.9669   21.2837 C   0  0  0  0  0  0  0  0  0  0  0  0
    8.1290  -14.0416   20.1560 C   0  0  0  0  0  0  0  0  0  0  0  0
    8.3948  -14.2945   18.7989 C   0  0  0  0  0  0  0  0  0  0  0  0
    8.0023  -13.2311   18.0814 N   0  0  0  0  0  0  0  0  0  0  0  0
    7.5013  -12.3135   18.9104 C   0  0  0  0  0  0  0  0  0  0  0  0
    7.5843  -12.8145   20.1554 N   0  0  0  0  0  0  0  0  0  0  0  0
    9.5408  -17.1231   21.7855 C   0  0  0  0  0  0  0  0  0  0  0  0
    8.7684  -17.7529   22.5149 O   0  0  0  0  0  0  0  0  0  0  0  0
   10.9356  -17.2572   21.9750 N   0  0  0  0  0  0  0  0  0  0  0  0
   11.5487  -17.9355   23.0792 C   0  0  1  0  0  0  0  0  0  0  0  0
   13.0625  -18.0484   22.9010 C   0  0  0  0  0  0  0  0  0  0  0  0
   13.4303  -18.7834   21.6755 C   0  0  0  0  0  0  0  0  0  0  0  0
   12.8101  -19.8031   21.2560 O   0  0  0  0  0  0  0  0  0  0  0  0
   11.2534  -17.3735   24.3942 C   0  0  0  0  0  0  0  0  0  0  0  0
   11.4974  -16.1659   24.6599 O   0  0  0  0  0  0  0  0  0  0  0  0
   14.5126  -18.3486   20.9320 O   0  0  0  0  0  0  0  0  0  0  0  0
    5.2524  -13.2468   26.3571 N   0  0  0  0  0  0  0  0  0  0  0  0
    6.5158  -12.6517   26.6925 C   0  0  0  0  0  0  0  0  0  0  0  0
    6.5384  -11.3856   26.8107 N   0  0  0  0  0  0  0  0  0  0  0  0
    7.6891  -13.4125   26.8859 N   0  0  0  0  0  0  0  0  0  0  0  0
    7.7105  -14.8402   26.6597 C   0  0  0  0  0  0  0  0  0  0  0  0
    9.0811  -15.4329   26.9984 C   0  0  0  0  0  0  0  0  0  0  0  0
    9.0893  -16.9263   26.8042 C   0  0  0  0  0  0  0  0  0  0  0  0
   10.4412  -17.5413   26.7839 C   0  0  2  0  0  0  0  0  0  0  0  0
   10.6815  -18.1057   25.4734 N   0  0  0  0  0  0  0  0  0  0  0  0
   10.6888  -18.5003   27.8741 C   0  0  0  0  0  0  0  0  0  0  0  0
   10.9076  -19.7246   27.6107 O   0  0  0  0  0  0  0  0  0  0  0  0
   10.7091  -18.1783   29.2275 O   0  0  0  0  0  0  0  0  0  0  0  0
  2  3  1  0
  2  1  1  1
  3  4  1  0
  4  5  2  0
  5  6  1  0
  7  6  1  0
  8  4  1  0
  8  7  2  0
  9  2  1  0
 10  9  2  0
 11  9  1  0
 12 11  1  0
 12 13  1  6
 13 14  1  0
 14 18  1  0
 15 14  2  0
 16 27  1  0
 16 12  1  0
 17 16  2  0
 20 21  2  0
 20 19  1  0
 22 20  1  0
 23 22  1  0
 24 23  1  0
 26 25  1  6
 25 24  1  0
 26 28  1  0
 26 27  1  0
 28 30  1  0
 29 28  2  0
M  END
$$$$
