HDR.pdb
     RDKit          3D

 30 30  0  0  1  0  0  0  0  0999 V2000
    5.4800  -19.2937   18.8603 N   0  0  0  0  0  0  0  0  0  0  0  0
    6.6777  -18.9611   19.5629 C   0  0  1  0  0  0  0  0  0  0  0  0
    7.2304  -17.6457   19.0705 C   0  0  0  0  0  0  0  0  0  0  0  0
    7.5796  -17.7897   17.6341 C   0  0  0  0  0  0  0  0  0  0  0  0
    7.4730  -18.9685   16.8755 C   0  0  0  0  0  0  0  0  0  0  0  0
    7.8746  -18.7078   15.6224 N   0  0  0  0  0  0  0  0  0  0  0  0
    8.2325  -17.4249   15.5430 C   0  0  0  0  0  0  0  0  0  0  0  0
    8.0503  -16.8849   16.7609 N   0  0  0  0  0  0  0  0  0  0  0  0
    6.4311  -18.9574   21.0259 C   0  0  0  0  0  0  0  0  0  0  0  0
    5.4584  -18.3507   21.4854 O   0  0  0  0  0  0  0  0  0  0  0  0
    7.2988  -19.6425   21.9073 N   0  0  0  0  0  0  0  0  0  0  0  0
    7.3236  -19.4672   23.3299 C   0  0  1  0  0  0  0  0  0  0  0  0
    7.5827  -20.7871   24.0559 C   0  0  0  0  0  0  0  0  0  0  0  0
    7.5337  -20.6399   25.5232 C   0  0  0  0  0  0  0  0  0  0  0  0
    7.0746  -19.6181   26.1111 O   0  0  0  0  0  0  0  0  0  0  0  0
    8.2563  -18.4535   23.8143 C   0  0  0  0  0  0  0  0  0  0  0  0
    9.5027  -18.6043   23.7035 O   0  0  0  0  0  0  0  0  0  0  0  0
    8.0144  -21.6659   26.3166 O   0  0  0  0  0  0  0  0  0  0  0  0
    6.6577  -12.6580   20.9001 N   0  0  0  0  0  0  0  0  0  0  0  0
    7.9892  -12.9490   20.4473 C   0  0  0  0  0  0  0  0  0  0  0  0
    8.5090  -12.1239   19.6310 N   0  0  0  0  0  0  0  0  0  0  0  0
    8.7066  -14.0883   20.8720 N   0  0  0  0  0  0  0  0  0  0  0  0
    9.0621  -14.2843   22.2594 C   0  0  0  0  0  0  0  0  0  0  0  0
    7.8358  -14.6578   23.0967 C   0  0  0  0  0  0  0  0  0  0  0  0
    8.2095  -14.8746   24.5394 C   0  0  0  0  0  0  0  0  0  0  0  0
    8.8043  -16.2038   24.8326 C   0  0  2  0  0  0  0  0  0  0  0  0
    7.8680  -17.2349   24.4405 N   0  0  0  0  0  0  0  0  0  0  0  0
    9.2843  -16.3627   26.2160 C   0  0  0  0  0  0  0  0  0  0  0  0
   10.1301  -15.5443   26.6968 O   0  0  0  0  0  0  0  0  0  0  0  0
    8.8800  -17.3688   27.0878 O   0  0  0  0  0  0  0  0  0  0  0  0
  2  3  1  0
  2  1  1  6
  3  4  1  0
  4  5  2  0
  5  6  1  0
  7  6  1  0
  8  4  1  0
  8  7  2  0
  9  2  1  0
 10  9  2  0
 11  9  1  0
 12 11  1  0
 12 13  1  1
 13 14  1  0
 14 18  1  0
 15 14  2  0
 16 27  1  0
 16 12  1  0
 17 16  2  0
 20 21  2  0
 20 19  1  0
 22 20  1  0
 23 22  1  0
 24 23  1  0
 26 25  1  1
 25 24  1  0
 26 28  1  0
 26 27  1  0
 28 30  1  0
 29 28  2  0
M  END
$$$$
