HDR.pdb
     RDKit          3D

 30 30  0  0  1  0  0  0  0  0999 V2000
   11.2972  -14.6938   18.8135 N   0  0  0  0  0  0  0  0  0  0  0  0
   10.8137  -15.0929   20.0963 C   0  0  1  0  0  0  0  0  0  0  0  0
    9.3402  -15.4127   20.0288 C   0  0  0  0  0  0  0  0  0  0  0  0
    8.6127  -14.1923   19.5957 C   0  0  0  0  0  0  0  0  0  0  0  0
    9.2032  -12.9824   19.1912 C   0  0  0  0  0  0  0  0  0  0  0  0
    8.2290  -12.1177   18.8706 N   0  0  0  0  0  0  0  0  0  0  0  0
    7.0486  -12.7130   19.0507 C   0  0  0  0  0  0  0  0  0  0  0  0
    7.2947  -13.9606   19.4876 N   0  0  0  0  0  0  0  0  0  0  0  0
   11.6143  -16.2284   20.6169 C   0  0  0  0  0  0  0  0  0  0  0  0
   11.2236  -16.8554   21.6066 O   0  0  0  0  0  0  0  0  0  0  0  0
   12.8255  -16.6056   19.9924 N   0  0  0  0  0  0  0  0  0  0  0  0
   13.6761  -17.6711   20.4358 C   0  0  1  0  0  0  0  0  0  0  0  0
   14.8145  -17.9307   19.4496 C   0  0  0  0  0  0  0  0  0  0  0  0
   14.3245  -18.3732   18.1300 C   0  0  0  0  0  0  0  0  0  0  0  0
   13.5317  -19.3453   17.9658 O   0  0  0  0  0  0  0  0  0  0  0  0
   14.2230  -17.5103   21.7801 C   0  0  0  0  0  0  0  0  0  0  0  0
   14.8339  -16.4607   22.1171 O   0  0  0  0  0  0  0  0  0  0  0  0
   14.7466  -17.7005   16.9976 O   0  0  0  0  0  0  0  0  0  0  0  0
   10.1840  -20.8859   28.1974 N   0  0  0  0  0  0  0  0  0  0  0  0
   11.3879  -20.1457   28.4530 C   0  0  0  0  0  0  0  0  0  0  0  0
   11.8446  -20.1882   29.6392 N   0  0  0  0  0  0  0  0  0  0  0  0
   12.0503  -19.3995   27.4543 N   0  0  0  0  0  0  0  0  0  0  0  0
   11.4746  -19.2154   26.1411 C   0  0  0  0  0  0  0  0  0  0  0  0
   12.3819  -18.3572   25.2553 C   0  0  0  0  0  0  0  0  0  0  0  0
   13.7476  -18.9765   25.1164 C   0  0  0  0  0  0  0  0  0  0  0  0
   14.6431  -18.2922   24.1488 C   0  0  2  0  0  0  0  0  0  0  0  0
   14.1274  -18.4879   22.8111 N   0  0  0  0  0  0  0  0  0  0  0  0
   16.0645  -18.6576   24.2732 C   0  0  0  0  0  0  0  0  0  0  0  0
   16.6164  -19.3869   23.3901 O   0  0  0  0  0  0  0  0  0  0  0  0
   16.9001  -18.2603   25.3123 O   0  0  0  0  0  0  0  0  0  0  0  0
  2  3  1  0
  2  1  1  6
  3  4  1  0
  4  5  2  0
  5  6  1  0
  7  6  1  0
  8  4  1  0
  8  7  2  0
  9  2  1  0
 10  9  2  0
 11  9  1  0
 12 11  1  0
 12 13  1  6
 13 14  1  0
 14 18  1  0
 15 14  2  0
 16 27  1  0
 16 12  1  0
 17 16  2  0
 20 21  2  0
 20 19  1  0
 22 20  1  0
 23 22  1  0
 24 23  1  0
 26 25  1  1
 25 24  1  0
 26 28  1  0
 26 27  1  0
 28 30  1  0
 29 28  2  0
M  END
$$$$
