HDR.pdb
     RDKit          3D

 30 30  0  0  1  0  0  0  0  0999 V2000
    8.3433  -17.5491   19.1995 N   0  0  0  0  0  0  0  0  0  0  0  0
    9.0129  -16.6768   20.1103 C   0  0  1  0  0  0  0  0  0  0  0  0
    8.0767  -15.5939   20.5888 C   0  0  0  0  0  0  0  0  0  0  0  0
    8.0839  -14.4914   19.5934 C   0  0  0  0  0  0  0  0  0  0  0  0
    8.8261  -14.4654   18.3998 C   0  0  0  0  0  0  0  0  0  0  0  0
    8.5709  -13.3125   17.7632 N   0  0  0  0  0  0  0  0  0  0  0  0
    7.7058  -12.6021   18.4892 C   0  0  0  0  0  0  0  0  0  0  0  0
    7.4218  -13.3234   19.5878 N   0  0  0  0  0  0  0  0  0  0  0  0
    9.5965  -17.4540   21.2313 C   0  0  0  0  0  0  0  0  0  0  0  0
    8.8589  -18.0948   21.9866 O   0  0  0  0  0  0  0  0  0  0  0  0
   10.9935  -17.4718   21.4488 N   0  0  0  0  0  0  0  0  0  0  0  0
   11.6358  -18.0627   22.5861 C   0  0  1  0  0  0  0  0  0  0  0  0
   13.1561  -18.0798   22.4289 C   0  0  0  0  0  0  0  0  0  0  0  0
   13.6963  -16.7599   22.0504 C   0  0  0  0  0  0  0  0  0  0  0  0
   13.6618  -16.2990   20.8728 O   0  0  0  0  0  0  0  0  0  0  0  0
   11.2858  -17.4703   23.8740 C   0  0  0  0  0  0  0  0  0  0  0  0
   11.4197  -16.2349   24.0844 O   0  0  0  0  0  0  0  0  0  0  0  0
   14.2789  -15.9693   23.0244 O   0  0  0  0  0  0  0  0  0  0  0  0
    5.1430  -13.3976   26.0892 N   0  0  0  0  0  0  0  0  0  0  0  0
    6.4330  -12.7692   26.0286 C   0  0  0  0  0  0  0  0  0  0  0  0
    6.4476  -11.5050   25.8901 N   0  0  0  0  0  0  0  0  0  0  0  0
    7.6398  -13.4964   26.1156 N   0  0  0  0  0  0  0  0  0  0  0  0
    7.6526  -14.9419   26.1251 C   0  0  0  0  0  0  0  0  0  0  0  0
    9.0831  -15.4815   26.2099 C   0  0  0  0  0  0  0  0  0  0  0  0
    9.0983  -16.9869   26.1707 C   0  0  0  0  0  0  0  0  0  0  0  0
   10.4504  -17.5956   26.2583 C   0  0  2  0  0  0  0  0  0  0  0  0
   10.7770  -18.2010   24.9854 N   0  0  0  0  0  0  0  0  0  0  0  0
   10.6292  -18.5174   27.3931 C   0  0  0  0  0  0  0  0  0  0  0  0
   10.8238  -19.7565   27.1851 O   0  0  0  0  0  0  0  0  0  0  0  0
   10.6066  -18.1436   28.7330 O   0  0  0  0  0  0  0  0  0  0  0  0
  2  3  1  0
  2  1  1  6
  3  4  1  0
  4  5  2  0
  5  6  1  0
  7  6  1  0
  8  4  1  0
  8  7  2  0
  9  2  1  0
 10  9  2  0
 11  9  1  0
 12 11  1  0
 12 13  1  6
 13 14  1  0
 14 18  1  0
 15 14  2  0
 16 27  1  0
 16 12  1  0
 17 16  2  0
 20 21  2  0
 20 19  1  0
 22 20  1  0
 23 22  1  0
 24 23  1  0
 26 25  1  6
 25 24  1  0
 26 28  1  0
 26 27  1  0
 28 30  1  0
 29 28  2  0
M  END
$$$$
