HDR.pdb
     RDKit          3D

 30 30  0  0  1  0  0  0  0  0999 V2000
   11.8740  -14.4069   18.1665 N   0  0  0  0  0  0  0  0  0  0  0  0
   11.3463  -13.9153   19.3989 C   0  0  1  0  0  0  0  0  0  0  0  0
   10.1825  -12.9890   19.1425 C   0  0  0  0  0  0  0  0  0  0  0  0
    9.2059  -13.6900   18.2700 C   0  0  0  0  0  0  0  0  0  0  0  0
    7.9588  -13.1866   17.8606 C   0  0  0  0  0  0  0  0  0  0  0  0
    7.3652  -14.1006   17.0785 N   0  0  0  0  0  0  0  0  0  0  0  0
    8.1682  -15.1604   16.9691 C   0  0  0  0  0  0  0  0  0  0  0  0
    9.2719  -14.8997   17.6915 N   0  0  0  0  0  0  0  0  0  0  0  0
   10.9828  -15.0449   20.2894 C   0  0  0  0  0  0  0  0  0  0  0  0
   10.3635  -14.8300   21.3360 O   0  0  0  0  0  0  0  0  0  0  0  0
   11.3372  -16.3723   19.9552 N   0  0  0  0  0  0  0  0  0  0  0  0
   11.1589  -17.5065   20.8137 C   0  0  1  0  0  0  0  0  0  0  0  0
   11.8554  -18.7485   20.2585 C   0  0  0  0  0  0  0  0  0  0  0  0
   11.4685  -19.9777   20.9771 C   0  0  0  0  0  0  0  0  0  0  0  0
   10.3570  -20.1282   21.5621 O   0  0  0  0  0  0  0  0  0  0  0  0
   11.5602  -17.3027   22.2028 C   0  0  0  0  0  0  0  0  0  0  0  0
   12.2943  -16.3342   22.5368 O   0  0  0  0  0  0  0  0  0  0  0  0
   12.3595  -21.0346   21.0262 O   0  0  0  0  0  0  0  0  0  0  0  0
    6.0002  -13.0816   26.1259 N   0  0  0  0  0  0  0  0  0  0  0  0
    7.1625  -13.1802   26.9637 C   0  0  0  0  0  0  0  0  0  0  0  0
    7.3622  -12.2254   27.7798 N   0  0  0  0  0  0  0  0  0  0  0  0
    8.0551  -14.2722   26.9033 N   0  0  0  0  0  0  0  0  0  0  0  0
    8.3717  -14.9217   25.6511 C   0  0  0  0  0  0  0  0  0  0  0  0
    9.4631  -15.9793   25.8376 C   0  0  0  0  0  0  0  0  0  0  0  0
    9.8248  -16.6229   24.5249 C   0  0  0  0  0  0  0  0  0  0  0  0
   10.8846  -17.6598   24.6141 C   0  0  2  0  0  0  0  0  0  0  0  0
   11.1787  -18.1473   23.2839 N   0  0  0  0  0  0  0  0  0  0  0  0
   10.5960  -18.7428   25.5697 C   0  0  0  0  0  0  0  0  0  0  0  0
   10.3776  -18.4742   26.7930 O   0  0  0  0  0  0  0  0  0  0  0  0
   10.5347  -20.0944   25.2456 O   0  0  0  0  0  0  0  0  0  0  0  0
  2  3  1  0
  2  1  1  6
  3  4  1  0
  4  5  2  0
  5  6  1  0
  7  6  1  0
  8  4  1  0
  8  7  2  0
  9  2  1  0
 10  9  2  0
 11  9  1  0
 12 11  1  0
 12 13  1  6
 13 14  1  0
 14 18  1  0
 15 14  2  0
 16 27  1  0
 16 12  1  0
 17 16  2  0
 20 21  2  0
 20 19  1  0
 22 20  1  0
 23 22  1  0
 24 23  1  0
 26 25  1  6
 25 24  1  0
 26 28  1  0
 26 27  1  0
 28 30  1  0
 29 28  2  0
M  END
$$$$
