HDR.pdb
     RDKit          3D

 30 30  0  0  1  0  0  0  0  0999 V2000
   11.3850  -14.5076   17.8137 N   0  0  0  0  0  0  0  0  0  0  0  0
   12.3029  -15.0358   18.7714 C   0  0  1  0  0  0  0  0  0  0  0  0
   13.0406  -13.9181   19.4676 C   0  0  0  0  0  0  0  0  0  0  0  0
   14.4765  -13.9983   19.0959 C   0  0  0  0  0  0  0  0  0  0  0  0
   14.9806  -14.2108   17.8009 C   0  0  0  0  0  0  0  0  0  0  0  0
   16.3207  -14.2166   17.8599 N   0  0  0  0  0  0  0  0  0  0  0  0
   16.6969  -14.0200   19.1248 C   0  0  0  0  0  0  0  0  0  0  0  0
   15.5769  -13.8908   19.8575 N   0  0  0  0  0  0  0  0  0  0  0  0
   11.5954  -15.9249   19.7254 C   0  0  0  0  0  0  0  0  0  0  0  0
   10.4460  -15.6522   20.0857 O   0  0  0  0  0  0  0  0  0  0  0  0
   12.2216  -17.0874   20.2313 N   0  0  0  0  0  0  0  0  0  0  0  0
   11.6385  -17.9773   21.1921 C   0  0  1  0  0  0  0  0  0  0  0  0
   12.0256  -19.4310   20.9212 C   0  0  0  0  0  0  0  0  0  0  0  0
   11.4123  -20.3643   21.8856 C   0  0  0  0  0  0  0  0  0  0  0  0
   10.2977  -20.1602   22.4480 O   0  0  0  0  0  0  0  0  0  0  0  0
   11.9154  -17.6514   22.5882 C   0  0  0  0  0  0  0  0  0  0  0  0
   13.0970  -17.5581   23.0168 O   0  0  0  0  0  0  0  0  0  0  0  0
   12.0804  -21.5322   22.2063 O   0  0  0  0  0  0  0  0  0  0  0  0
   10.2623  -13.2218   28.3778 N   0  0  0  0  0  0  0  0  0  0  0  0
    9.9790  -14.2828   29.3034 C   0  0  0  0  0  0  0  0  0  0  0  0
   10.6177  -14.2684   30.4031 N   0  0  0  0  0  0  0  0  0  0  0  0
    9.0429  -15.3034   29.0294 N   0  0  0  0  0  0  0  0  0  0  0  0
    8.8452  -15.8083   27.6894 C   0  0  0  0  0  0  0  0  0  0  0  0
   10.1762  -16.2115   27.0487 C   0  0  0  0  0  0  0  0  0  0  0  0
    9.9652  -16.7738   25.6676 C   0  0  0  0  0  0  0  0  0  0  0  0
   11.2085  -17.1974   24.9742 C   0  0  2  0  0  0  0  0  0  0  0  0
   10.9154  -17.4153   23.5741 N   0  0  0  0  0  0  0  0  0  0  0  0
   11.8937  -18.3412   25.6001 C   0  0  0  0  0  0  0  0  0  0  0  0
   11.5133  -19.5283   25.3506 O   0  0  0  0  0  0  0  0  0  0  0  0
   12.9689  -18.2415   26.4775 O   0  0  0  0  0  0  0  0  0  0  0  0
  2  3  1  0
  2  1  1  6
  3  4  1  0
  4  5  2  0
  5  6  1  0
  7  6  1  0
  8  4  1  0
  8  7  2  0
  9  2  1  0
 10  9  2  0
 11  9  1  0
 12 11  1  0
 12 13  1  6
 13 14  1  0
 14 18  1  0
 15 14  2  0
 16 27  1  0
 16 12  1  0
 17 16  2  0
 20 21  2  0
 20 19  1  0
 22 20  1  0
 23 22  1  0
 24 23  1  0
 26 25  1  1
 25 24  1  0
 26 28  1  0
 26 27  1  0
 28 30  1  0
 29 28  2  0
M  END
$$$$
