YEQ.pdb
     RDKit          3D

 31 31  0  0  1  0  0  0  0  0999 V2000
    4.6199  -10.3253   27.0408 O   0  0  0  0  0  0  0  0  0  0  0  0
    5.4559  -11.3269   26.5418 C   0  0  0  0  0  0  0  0  0  0  0  0
    6.0781  -12.1600   27.4471 C   0  0  0  0  0  0  0  0  0  0  0  0
    6.9190  -13.1695   26.9733 C   0  0  0  0  0  0  0  0  0  0  0  0
    7.1440  -13.3559   25.6305 C   0  0  0  0  0  0  0  0  0  0  0  0
    8.0289  -14.4205   25.1715 C   0  0  0  0  0  0  0  0  0  0  0  0
    7.3281  -15.5031   24.3910 C   0  0  2  0  0  0  0  0  0  0  0  0
    6.5806  -16.2996   25.3651 N   0  0  0  0  0  0  0  0  0  0  0  0
    8.3780  -16.3519   23.7708 C   0  0  0  0  0  0  0  0  0  0  0  0
    8.7693  -17.3836   24.3672 O   0  0  0  0  0  0  0  0  0  0  0  0
    6.5108  -12.5107   24.7476 C   0  0  0  0  0  0  0  0  0  0  0  0
    5.6660  -11.4951   25.2020 C   0  0  0  0  0  0  0  0  0  0  0  0
    8.9548  -16.0262   22.5137 N   0  0  0  0  0  0  0  0  0  0  0  0
   10.0948  -16.8064   21.9648 C   0  0  1  0  0  0  0  0  0  0  0  0
   10.1277  -16.4041   20.5111 C   0  0  0  0  0  0  0  0  0  0  0  0
   11.2476  -16.9545   19.7097 C   0  0  0  0  0  0  0  0  0  0  0  0
   11.0318  -18.4312   19.4425 C   0  0  0  0  0  0  0  0  0  0  0  0
   10.4889  -18.8102   18.3785 O   0  0  0  0  0  0  0  0  0  0  0  0
   11.2837  -16.4014   22.7054 C   0  0  0  0  0  0  0  0  0  0  0  0
   11.6417  -15.1880   22.7143 O   0  0  0  0  0  0  0  0  0  0  0  0
   11.4234  -19.3911   20.3550 O   0  0  0  0  0  0  0  0  0  0  0  0
   11.3622  -14.4803   27.7600 N   0  0  0  0  0  0  0  0  0  0  0  0
   11.2857  -15.8901   27.8724 C   0  0  0  0  0  0  0  0  0  0  0  0
   10.8924  -16.4262   28.9434 O   0  0  0  0  0  0  0  0  0  0  0  0
   11.6562  -16.7668   26.7418 C   0  0  0  0  0  0  0  0  0  0  0  0
   12.1308  -16.0722   25.5198 C   0  0  0  0  0  0  0  0  0  0  0  0
   12.9122  -16.9073   24.5915 C   0  0  2  0  0  0  0  0  0  0  0  0
   12.0819  -17.3000   23.4384 N   0  0  0  0  0  0  0  0  0  0  0  0
   13.6427  -18.0561   25.0598 C   0  0  0  0  0  0  0  0  0  0  0  0
   13.3152  -19.3499   24.6985 O   0  0  0  0  0  0  0  0  0  0  0  0
   14.6217  -17.9320   25.8386 O   0  0  0  0  0  0  0  0  0  0  0  0
  2  1  1  0
  3  2  2  0
  4  3  1  0
  5 11  1  0
  5  4  2  0
  6  5  1  0
  7  6  1  0
  7  8  1  1
  9  7  1  0
  9 10  2  0
 11 12  2  0
 12  2  1  0
 13  9  1  0
 14 13  1  0
 14 15  1  6
 16 15  1  0
 16 17  1  0
 17 21  1  0
 17 18  2  0
 19 14  1  0
 20 19  2  0
 23 22  1  0
 23 25  1  0
 24 23  2  0
 26 25  1  0
 27 26  1  1
 27 28  1  0
 28 19  1  0
 29 27  1  0
 29 30  1  0
 31 29  2  0
M  END
$$$$
