YEQ.pdb
     RDKit          3D

 31 31  0  0  1  0  0  0  0  0999 V2000
    7.0907  -10.7708   19.8599 O   0  0  0  0  0  0  0  0  0  0  0  0
    7.6796  -12.0247   19.6814 C   0  0  0  0  0  0  0  0  0  0  0  0
    6.9718  -13.1352   20.0894 C   0  0  0  0  0  0  0  0  0  0  0  0
    7.5390  -14.4005   19.9217 C   0  0  0  0  0  0  0  0  0  0  0  0
    8.7824  -14.5700   19.3616 C   0  0  0  0  0  0  0  0  0  0  0  0
    9.3437  -15.9067   19.2020 C   0  0  0  0  0  0  0  0  0  0  0  0
   10.2496  -16.0498   18.0057 C   0  0  2  0  0  0  0  0  0  0  0  0
    9.8083  -17.2488   17.2918 N   0  0  0  0  0  0  0  0  0  0  0  0
   11.6274  -16.2671   18.5174 C   0  0  0  0  0  0  0  0  0  0  0  0
   11.8976  -17.3270   19.1313 O   0  0  0  0  0  0  0  0  0  0  0  0
    9.4682  -13.4452   18.9625 C   0  0  0  0  0  0  0  0  0  0  0  0
    8.9177  -12.1712   19.1219 C   0  0  0  0  0  0  0  0  0  0  0  0
   12.6539  -15.3025   18.3299 N   0  0  0  0  0  0  0  0  0  0  0  0
   14.0156  -15.5094   18.8890 C   0  0  1  0  0  0  0  0  0  0  0  0
   14.8611  -14.5167   18.1299 C   0  0  0  0  0  0  0  0  0  0  0  0
   16.2781  -14.4115   18.5543 C   0  0  0  0  0  0  0  0  0  0  0  0
   17.0529  -13.5262   17.5980 C   0  0  0  0  0  0  0  0  0  0  0  0
   17.4533  -13.9776   16.4995 O   0  0  0  0  0  0  0  0  0  0  0  0
   13.9362  -15.2301   20.3179 C   0  0  0  0  0  0  0  0  0  0  0  0
   13.1068  -14.3791   20.7519 O   0  0  0  0  0  0  0  0  0  0  0  0
   17.3366  -12.2104   17.9069 O   0  0  0  0  0  0  0  0  0  0  0  0
   10.3669  -17.2481   23.4312 N   0  0  0  0  0  0  0  0  0  0  0  0
   11.2492  -17.0705   24.5248 C   0  0  0  0  0  0  0  0  0  0  0  0
   10.8585  -17.2859   25.7038 O   0  0  0  0  0  0  0  0  0  0  0  0
   12.6464  -16.6367   24.3151 C   0  0  0  0  0  0  0  0  0  0  0  0
   13.0324  -16.3738   22.9070 C   0  0  0  0  0  0  0  0  0  0  0  0
   14.4225  -15.9264   22.7146 C   0  0  2  0  0  0  0  0  0  0  0  0
   14.7443  -15.8694   21.2771 N   0  0  0  0  0  0  0  0  0  0  0  0
   15.5103  -16.5555   23.4170 C   0  0  0  0  0  0  0  0  0  0  0  0
   16.5540  -17.1888   22.7679 O   0  0  0  0  0  0  0  0  0  0  0  0
   15.5552  -16.5651   24.6733 O   0  0  0  0  0  0  0  0  0  0  0  0
  2  1  1  0
  3  2  2  0
  4  3  1  0
  5 11  1  0
  5  4  2  0
  6  5  1  0
  7  6  1  0
  7  8  1  1
  9  7  1  0
  9 10  2  0
 11 12  2  0
 12  2  1  0
 13  9  1  0
 14 13  1  0
 14 15  1  6
 16 15  1  0
 16 17  1  0
 17 21  1  0
 17 18  2  0
 19 14  1  0
 20 19  2  0
 23 22  1  0
 23 25  1  0
 24 23  2  0
 26 25  1  0
 27 26  1  6
 27 28  1  0
 28 19  1  0
 29 27  1  0
 29 30  1  0
 31 29  2  0
M  END
$$$$
