YEQ.pdb
     RDKit          3D

 31 31  0  0  1  0  0  0  0  0999 V2000
    5.4636  -10.2349   26.7850 O   0  0  0  0  0  0  0  0  0  0  0  0
    6.1169  -11.4267   26.4628 C   0  0  0  0  0  0  0  0  0  0  0  0
    5.7040  -12.5811   27.0934 C   0  0  0  0  0  0  0  0  0  0  0  0
    6.3414  -13.7858   26.7884 C   0  0  0  0  0  0  0  0  0  0  0  0
    7.3684  -13.8533   25.8778 C   0  0  0  0  0  0  0  0  0  0  0  0
    8.0113  -15.1291   25.5840 C   0  0  0  0  0  0  0  0  0  0  0  0
    7.4404  -15.8382   24.3826 C   0  0  2  0  0  0  0  0  0  0  0  0
    6.1820  -16.4456   24.8181 N   0  0  0  0  0  0  0  0  0  0  0  0
    8.3956  -16.9127   24.0075 C   0  0  0  0  0  0  0  0  0  0  0  0
    8.3152  -18.0325   24.5668 O   0  0  0  0  0  0  0  0  0  0  0  0
    7.7616  -12.6866   25.2623 C   0  0  0  0  0  0  0  0  0  0  0  0
    7.1365  -11.4718   25.5540 C   0  0  0  0  0  0  0  0  0  0  0  0
    9.4035  -16.7064   23.0273 N   0  0  0  0  0  0  0  0  0  0  0  0
   10.3999  -17.7641   22.7139 C   0  0  1  0  0  0  0  0  0  0  0  0
   11.0352  -17.2794   21.4342 C   0  0  0  0  0  0  0  0  0  0  0  0
   12.1238  -18.1256   20.8881 C   0  0  0  0  0  0  0  0  0  0  0  0
   12.6649  -17.5285   19.6039 C   0  0  0  0  0  0  0  0  0  0  0  0
   12.1677  -17.8463   18.4982 O   0  0  0  0  0  0  0  0  0  0  0  0
   11.3283  -17.8206   23.8368 C   0  0  0  0  0  0  0  0  0  0  0  0
   11.8347  -16.7553   24.2942 O   0  0  0  0  0  0  0  0  0  0  0  0
   13.7107  -16.6265   19.6156 O   0  0  0  0  0  0  0  0  0  0  0  0
   10.6698  -20.9367   28.9642 N   0  0  0  0  0  0  0  0  0  0  0  0
   10.2936  -19.6332   28.5576 C   0  0  0  0  0  0  0  0  0  0  0  0
    9.3909  -19.0059   29.1747 O   0  0  0  0  0  0  0  0  0  0  0  0
   10.9493  -18.9732   27.4093 C   0  0  0  0  0  0  0  0  0  0  0  0
   12.0254  -19.7529   26.7496 C   0  0  0  0  0  0  0  0  0  0  0  0
   12.6556  -19.0919   25.5939 C   0  0  2  0  0  0  0  0  0  0  0  0
   11.7062  -19.0206   24.4685 N   0  0  0  0  0  0  0  0  0  0  0  0
   13.9394  -19.5189   25.1019 C   0  0  0  0  0  0  0  0  0  0  0  0
   14.1061  -20.1204   23.8681 O   0  0  0  0  0  0  0  0  0  0  0  0
   14.9821  -19.3694   25.7880 O   0  0  0  0  0  0  0  0  0  0  0  0
  2  1  1  0
  3  2  2  0
  4  3  1  0
  5 11  1  0
  5  4  2  0
  6  5  1  0
  7  6  1  0
  7  8  1  1
  9  7  1  0
  9 10  2  0
 11 12  2  0
 12  2  1  0
 13  9  1  0
 14 13  1  0
 14 15  1  6
 16 15  1  0
 16 17  1  0
 17 21  1  0
 17 18  2  0
 19 14  1  0
 20 19  2  0
 23 22  1  0
 23 25  1  0
 24 23  2  0
 26 25  1  0
 27 26  1  1
 27 28  1  0
 28 19  1  0
 29 27  1  0
 29 30  1  0
 31 29  2  0
M  END
$$$$
