YEQ.pdb
     RDKit          3D

 31 31  0  0  1  0  0  0  0  0999 V2000
    5.0372  -10.1123   26.0437 O   0  0  0  0  0  0  0  0  0  0  0  0
    5.7873  -11.2780   25.8712 C   0  0  0  0  0  0  0  0  0  0  0  0
    6.6778  -11.3240   24.8198 C   0  0  0  0  0  0  0  0  0  0  0  0
    7.4397  -12.4784   24.6261 C   0  0  0  0  0  0  0  0  0  0  0  0
    7.3269  -13.5698   25.4537 C   0  0  0  0  0  0  0  0  0  0  0  0
    8.1386  -14.7590   25.2212 C   0  0  0  0  0  0  0  0  0  0  0  0
    7.5140  -15.7484   24.2708 C   0  0  2  0  0  0  0  0  0  0  0  0
    6.4494  -16.4234   25.0145 N   0  0  0  0  0  0  0  0  0  0  0  0
    8.5614  -16.7394   23.9122 C   0  0  0  0  0  0  0  0  0  0  0  0
    8.8068  -17.6882   24.6950 O   0  0  0  0  0  0  0  0  0  0  0  0
    6.4306  -13.4983   26.4959 C   0  0  0  0  0  0  0  0  0  0  0  0
    5.6596  -12.3524   26.7061 C   0  0  0  0  0  0  0  0  0  0  0  0
    9.2971  -16.6422   22.7004 N   0  0  0  0  0  0  0  0  0  0  0  0
   10.5077  -17.4724   22.4666 C   0  0  1  0  0  0  0  0  0  0  0  0
   10.8325  -17.2184   21.0153 C   0  0  0  0  0  0  0  0  0  0  0  0
   12.0671  -17.8611   20.5035 C   0  0  0  0  0  0  0  0  0  0  0  0
   12.2723  -17.5230   19.0399 C   0  0  0  0  0  0  0  0  0  0  0  0
   13.4253  -17.3232   18.5911 O   0  0  0  0  0  0  0  0  0  0  0  0
   11.5359  -16.9936   23.3829 C   0  0  0  0  0  0  0  0  0  0  0  0
   11.9657  -15.8074   23.2888 O   0  0  0  0  0  0  0  0  0  0  0  0
   11.2054  -17.4264   18.1684 O   0  0  0  0  0  0  0  0  0  0  0  0
   11.6095  -16.7080   30.2302 N   0  0  0  0  0  0  0  0  0  0  0  0
   11.9722  -17.5184   29.1266 C   0  0  0  0  0  0  0  0  0  0  0  0
   12.0073  -18.7735   29.2385 O   0  0  0  0  0  0  0  0  0  0  0  0
   12.3113  -16.9191   27.8190 C   0  0  0  0  0  0  0  0  0  0  0  0
   12.6711  -17.8793   26.7468 C   0  0  0  0  0  0  0  0  0  0  0  0
   12.9961  -17.2689   25.4463 C   0  0  2  0  0  0  0  0  0  0  0  0
   12.0958  -17.7885   24.4011 N   0  0  0  0  0  0  0  0  0  0  0  0
   14.3457  -17.2607   24.9451 C   0  0  0  0  0  0  0  0  0  0  0  0
   14.8116  -18.1901   24.0337 O   0  0  0  0  0  0  0  0  0  0  0  0
   15.1770  -16.3987   25.3276 O   0  0  0  0  0  0  0  0  0  0  0  0
  2  1  1  0
  3  2  2  0
  4  3  1  0
  5 11  1  0
  5  4  2  0
  6  5  1  0
  7  6  1  0
  7  8  1  1
  9  7  1  0
  9 10  2  0
 11 12  2  0
 12  2  1  0
 13  9  1  0
 14 13  1  0
 14 15  1  6
 16 15  1  0
 16 17  1  0
 17 21  1  0
 17 18  2  0
 19 14  1  0
 20 19  2  0
 23 22  1  0
 23 25  1  0
 24 23  2  0
 26 25  1  0
 27 26  1  1
 27 28  1  0
 28 19  1  0
 29 27  1  0
 29 30  1  0
 31 29  2  0
M  END
$$$$
