YEQ.pdb
     RDKit          3D

 31 31  0  0  1  0  0  0  0  0999 V2000
    5.0960  -10.2970   26.1258 O   0  0  0  0  0  0  0  0  0  0  0  0
    5.8556  -11.4452   25.8898 C   0  0  0  0  0  0  0  0  0  0  0  0
    5.6955  -12.5135   26.7465 C   0  0  0  0  0  0  0  0  0  0  0  0
    6.4436  -13.6732   26.5318 C   0  0  0  0  0  0  0  0  0  0  0  0
    7.3346  -13.7798   25.4910 C   0  0  0  0  0  0  0  0  0  0  0  0
    8.0993  -15.0065   25.2972 C   0  0  0  0  0  0  0  0  0  0  0  0
    7.5291  -15.9215   24.2437 C   0  0  2  0  0  0  0  0  0  0  0  0
    6.3431  -16.5447   24.8329 N   0  0  0  0  0  0  0  0  0  0  0  0
    8.5457  -16.9703   23.9711 C   0  0  0  0  0  0  0  0  0  0  0  0
    8.5154  -18.0426   24.6210 O   0  0  0  0  0  0  0  0  0  0  0  0
    7.4757  -12.6991   24.6503 C   0  0  0  0  0  0  0  0  0  0  0  0
    6.7364  -11.5304   24.8485 C   0  0  0  0  0  0  0  0  0  0  0  0
    9.5572  -16.7919   22.9892 N   0  0  0  0  0  0  0  0  0  0  0  0
   10.7972  -17.6115   23.0041 C   0  0  1  0  0  0  0  0  0  0  0  0
   11.4982  -17.2105   21.7297 C   0  0  0  0  0  0  0  0  0  0  0  0
   10.8774  -17.6855   20.4694 C   0  0  0  0  0  0  0  0  0  0  0  0
   11.6083  -17.1133   19.2707 C   0  0  0  0  0  0  0  0  0  0  0  0
   12.8004  -17.4278   19.0456 O   0  0  0  0  0  0  0  0  0  0  0  0
   11.5331  -17.2484   24.2093 C   0  0  0  0  0  0  0  0  0  0  0  0
   12.0250  -16.0886   24.3259 O   0  0  0  0  0  0  0  0  0  0  0  0
   10.9875  -16.2378   18.4015 O   0  0  0  0  0  0  0  0  0  0  0  0
   11.4057  -14.4988   29.0619 N   0  0  0  0  0  0  0  0  0  0  0  0
   10.4207  -15.4966   28.8613 C   0  0  0  0  0  0  0  0  0  0  0  0
    9.3506  -15.4825   29.5276 O   0  0  0  0  0  0  0  0  0  0  0  0
   10.6157  -16.5720   27.8665 C   0  0  0  0  0  0  0  0  0  0  0  0
   11.8388  -16.4622   27.0340 C   0  0  0  0  0  0  0  0  0  0  0  0
   12.3834  -17.7437   26.5539 C   0  0  2  0  0  0  0  0  0  0  0  0
   11.7343  -18.1303   25.2881 N   0  0  0  0  0  0  0  0  0  0  0  0
   12.4531  -18.8927   27.4184 C   0  0  0  0  0  0  0  0  0  0  0  0
   11.7415  -20.0538   27.1794 O   0  0  0  0  0  0  0  0  0  0  0  0
   13.1693  -18.8877   28.4516 O   0  0  0  0  0  0  0  0  0  0  0  0
  2  1  1  0
  3  2  2  0
  4  3  1  0
  5 11  1  0
  5  4  2  0
  6  5  1  0
  7  6  1  0
  7  8  1  1
  9  7  1  0
  9 10  2  0
 11 12  2  0
 12  2  1  0
 13  9  1  0
 14 13  1  0
 14 15  1  6
 16 15  1  0
 16 17  1  0
 17 21  1  0
 17 18  2  0
 19 14  1  0
 20 19  2  0
 23 22  1  0
 23 25  1  0
 24 23  2  0
 26 25  1  0
 27 26  1  1
 27 28  1  0
 28 19  1  0
 29 27  1  0
 29 30  1  0
 31 29  2  0
M  END
$$$$
