YEQ.pdb
     RDKit          3D

 31 31  0  0  1  0  0  0  0  0999 V2000
    8.8125  -12.0059   19.8045 O   0  0  0  0  0  0  0  0  0  0  0  0
    8.1932  -12.9241   20.6556 C   0  0  0  0  0  0  0  0  0  0  0  0
    8.1717  -12.6422   22.0049 C   0  0  0  0  0  0  0  0  0  0  0  0
    7.5583  -13.5446   22.8768 C   0  0  0  0  0  0  0  0  0  0  0  0
    6.9757  -14.7055   22.4280 C   0  0  0  0  0  0  0  0  0  0  0  0
    6.3441  -15.6250   23.3675 C   0  0  0  0  0  0  0  0  0  0  0  0
    6.5587  -17.0798   23.0359 C   0  0  2  0  0  0  0  0  0  0  0  0
    5.6192  -17.8373   23.8638 N   0  0  0  0  0  0  0  0  0  0  0  0
    7.9476  -17.4246   23.4355 C   0  0  0  0  0  0  0  0  0  0  0  0
    8.2117  -17.6155   24.6467 O   0  0  0  0  0  0  0  0  0  0  0  0
    7.0108  -14.9634   21.0764 C   0  0  0  0  0  0  0  0  0  0  0  0
    7.6195  -14.0731   20.1884 C   0  0  0  0  0  0  0  0  0  0  0  0
    8.9913  -17.5451   22.4788 N   0  0  0  0  0  0  0  0  0  0  0  0
   10.3674  -17.9324   22.8859 C   0  0  1  0  0  0  0  0  0  0  0  0
   11.1101  -18.0178   21.5755 C   0  0  0  0  0  0  0  0  0  0  0  0
   12.5733  -18.2396   21.6710 C   0  0  0  0  0  0  0  0  0  0  0  0
   13.1773  -18.3909   20.2887 C   0  0  0  0  0  0  0  0  0  0  0  0
   12.7459  -19.2645   19.5005 O   0  0  0  0  0  0  0  0  0  0  0  0
   10.8631  -16.8804   23.7656 C   0  0  0  0  0  0  0  0  0  0  0  0
   11.0410  -15.7110   23.3169 O   0  0  0  0  0  0  0  0  0  0  0  0
   14.2098  -17.5784   19.8629 O   0  0  0  0  0  0  0  0  0  0  0  0
    9.3759  -12.7399   27.0228 N   0  0  0  0  0  0  0  0  0  0  0  0
    9.1252  -14.0064   27.6052 C   0  0  0  0  0  0  0  0  0  0  0  0
    8.1794  -14.1579   28.4246 O   0  0  0  0  0  0  0  0  0  0  0  0
    9.9564  -15.1802   27.2656 C   0  0  0  0  0  0  0  0  0  0  0  0
   11.0067  -14.9489   26.2436 C   0  0  0  0  0  0  0  0  0  0  0  0
   11.8736  -16.1072   25.9671 C   0  0  2  0  0  0  0  0  0  0  0  0
   11.1616  -17.0863   25.1259 N   0  0  0  0  0  0  0  0  0  0  0  0
   12.5481  -16.8024   27.0321 C   0  0  0  0  0  0  0  0  0  0  0  0
   13.4179  -16.1736   27.9037 O   0  0  0  0  0  0  0  0  0  0  0  0
   12.3801  -18.0349   27.2140 O   0  0  0  0  0  0  0  0  0  0  0  0
  2  1  1  0
  3  2  2  0
  4  3  1  0
  5 11  1  0
  5  4  2  0
  6  5  1  0
  7  6  1  0
  7  8  1  1
  9  7  1  0
  9 10  2  0
 11 12  2  0
 12  2  1  0
 13  9  1  0
 14 13  1  0
 14 15  1  6
 16 15  1  0
 16 17  1  0
 17 21  1  0
 17 18  2  0
 19 14  1  0
 20 19  2  0
 23 22  1  0
 23 25  1  0
 24 23  2  0
 26 25  1  0
 27 26  1  1
 27 28  1  0
 28 19  1  0
 29 27  1  0
 29 30  1  0
 31 29  2  0
M  END
$$$$
