YEQ.pdb
     RDKit          3D

 31 31  0  0  1  0  0  0  0  0999 V2000
    9.0546  -12.7260   17.5632 O   0  0  0  0  0  0  0  0  0  0  0  0
    8.4655  -13.3588   18.6603 C   0  0  0  0  0  0  0  0  0  0  0  0
    7.9676  -12.5666   19.6728 C   0  0  0  0  0  0  0  0  0  0  0  0
    7.3737  -13.1754   20.7807 C   0  0  0  0  0  0  0  0  0  0  0  0
    7.2717  -14.5414   20.8903 C   0  0  0  0  0  0  0  0  0  0  0  0
    6.6452  -15.1428   22.0621 C   0  0  0  0  0  0  0  0  0  0  0  0
    6.5136  -16.6423   21.9823 C   0  0  2  0  0  0  0  0  0  0  0  0
    5.1735  -16.9143   21.4607 N   0  0  0  0  0  0  0  0  0  0  0  0
    6.6133  -17.1697   23.3677 C   0  0  0  0  0  0  0  0  0  0  0  0
    5.7277  -16.8746   24.2054 O   0  0  0  0  0  0  0  0  0  0  0  0
    7.7767  -15.3096   19.8659 C   0  0  0  0  0  0  0  0  0  0  0  0
    8.3742  -14.7194   18.7496 C   0  0  0  0  0  0  0  0  0  0  0  0
    7.6899  -18.0039   23.7730 N   0  0  0  0  0  0  0  0  0  0  0  0
    7.7232  -18.6131   25.1285 C   0  0  1  0  0  0  0  0  0  0  0  0
    7.5796  -20.0896   24.8533 C   0  0  0  0  0  0  0  0  0  0  0  0
    6.4796  -20.7801   25.5692 C   0  0  0  0  0  0  0  0  0  0  0  0
    6.8916  -22.1920   25.9371 C   0  0  0  0  0  0  0  0  0  0  0  0
    7.7169  -22.3917   26.8588 O   0  0  0  0  0  0  0  0  0  0  0  0
    9.0054  -18.2566   25.7242 C   0  0  0  0  0  0  0  0  0  0  0  0
   10.0418  -18.1866   25.0020 O   0  0  0  0  0  0  0  0  0  0  0  0
    6.3744  -23.2873   25.2735 O   0  0  0  0  0  0  0  0  0  0  0  0
    8.9930  -13.1691   28.1198 N   0  0  0  0  0  0  0  0  0  0  0  0
    9.4859  -14.1357   29.0302 C   0  0  0  0  0  0  0  0  0  0  0  0
   10.0062  -13.7798   30.1218 O   0  0  0  0  0  0  0  0  0  0  0  0
    9.3987  -15.5802   28.7305 C   0  0  0  0  0  0  0  0  0  0  0  0
   10.5084  -16.1351   27.9170 C   0  0  0  0  0  0  0  0  0  0  0  0
   10.4570  -17.5915   27.7031 C   0  0  2  0  0  0  0  0  0  0  0  0
    9.1699  -17.9711   27.0929 N   0  0  0  0  0  0  0  0  0  0  0  0
   10.7637  -18.5109   28.7676 C   0  0  0  0  0  0  0  0  0  0  0  0
   11.9698  -18.4982   29.4436 O   0  0  0  0  0  0  0  0  0  0  0  0
    9.9379  -19.3868   29.1296 O   0  0  0  0  0  0  0  0  0  0  0  0
  2  1  1  0
  3  2  2  0
  4  3  1  0
  5 11  1  0
  5  4  2  0
  6  5  1  0
  7  6  1  0
  7  8  1  1
  9  7  1  0
  9 10  2  0
 11 12  2  0
 12  2  1  0
 13  9  1  0
 14 13  1  0
 14 15  1  6
 16 15  1  0
 16 17  1  0
 17 21  1  0
 17 18  2  0
 19 14  1  0
 20 19  2  0
 23 22  1  0
 23 25  1  0
 24 23  2  0
 26 25  1  0
 27 26  1  1
 27 28  1  0
 28 19  1  0
 29 27  1  0
 29 30  1  0
 31 29  2  0
M  END
$$$$
