YEQ.pdb
     RDKit          3D

 31 31  0  0  1  0  0  0  0  0999 V2000
    8.2042  -11.9731   27.8849 O   0  0  0  0  0  0  0  0  0  0  0  0
    7.8465  -12.7725   26.7968 C   0  0  0  0  0  0  0  0  0  0  0  0
    8.7603  -12.9200   25.7751 C   0  0  0  0  0  0  0  0  0  0  0  0
    8.4264  -13.7143   24.6758 C   0  0  0  0  0  0  0  0  0  0  0  0
    7.2131  -14.3530   24.5837 C   0  0  0  0  0  0  0  0  0  0  0  0
    6.8983  -15.1747   23.4206 C   0  0  0  0  0  0  0  0  0  0  0  0
    6.8557  -16.6532   23.7109 C   0  0  2  0  0  0  0  0  0  0  0  0
    6.1404  -16.8070   24.9785 N   0  0  0  0  0  0  0  0  0  0  0  0
    8.2586  -17.1107   23.8848 C   0  0  0  0  0  0  0  0  0  0  0  0
    8.5743  -17.7555   24.9132 O   0  0  0  0  0  0  0  0  0  0  0  0
    6.3187  -14.1894   25.6171 C   0  0  0  0  0  0  0  0  0  0  0  0
    6.6342  -13.3990   26.7250 C   0  0  0  0  0  0  0  0  0  0  0  0
    9.2587  -16.8369   22.9132 N   0  0  0  0  0  0  0  0  0  0  0  0
   10.5664  -17.5433   22.9348 C   0  0  1  0  0  0  0  0  0  0  0  0
   11.1293  -17.2817   21.5596 C   0  0  0  0  0  0  0  0  0  0  0  0
   12.0092  -18.3391   21.0057 C   0  0  0  0  0  0  0  0  0  0  0  0
   13.0441  -17.7342   20.0775 C   0  0  0  0  0  0  0  0  0  0  0  0
   13.1423  -18.1310   18.8928 O   0  0  0  0  0  0  0  0  0  0  0  0
   11.3547  -16.9472   24.0068 C   0  0  0  0  0  0  0  0  0  0  0  0
   11.1725  -15.7376   24.3297 O   0  0  0  0  0  0  0  0  0  0  0  0
   13.8997  -16.7387   20.5068 O   0  0  0  0  0  0  0  0  0  0  0  0
   10.1709  -15.2120   28.2009 N   0  0  0  0  0  0  0  0  0  0  0  0
   10.6788  -16.2945   28.9601 C   0  0  0  0  0  0  0  0  0  0  0  0
   10.7563  -16.2147   30.2157 O   0  0  0  0  0  0  0  0  0  0  0  0
   11.1233  -17.5429   28.3059 C   0  0  0  0  0  0  0  0  0  0  0  0
   11.1262  -17.5244   26.8224 C   0  0  0  0  0  0  0  0  0  0  0  0
   12.4587  -17.6068   26.2003 C   0  0  2  0  0  0  0  0  0  0  0  0
   12.3329  -17.6533   24.7323 N   0  0  0  0  0  0  0  0  0  0  0  0
   13.4172  -18.5942   26.6232 C   0  0  0  0  0  0  0  0  0  0  0  0
   14.3834  -18.3387   27.5787 O   0  0  0  0  0  0  0  0  0  0  0  0
   13.4238  -19.7494   26.1273 O   0  0  0  0  0  0  0  0  0  0  0  0
  2  1  1  0
  3  2  2  0
  4  3  1  0
  5 11  1  0
  5  4  2  0
  6  5  1  0
  7  6  1  0
  7  8  1  1
  9  7  1  0
  9 10  2  0
 11 12  2  0
 12  2  1  0
 13  9  1  0
 14 13  1  0
 14 15  1  6
 16 15  1  0
 16 17  1  0
 17 21  1  0
 17 18  2  0
 19 14  1  0
 20 19  2  0
 23 22  1  0
 23 25  1  0
 24 23  2  0
 26 25  1  0
 27 26  1  1
 27 28  1  0
 28 19  1  0
 29 27  1  0
 29 30  1  0
 31 29  2  0
M  END
$$$$
