YEQ.pdb
     RDKit          3D

 31 31  0  0  1  0  0  0  0  0999 V2000
    7.5307  -11.9127   17.8254 O   0  0  0  0  0  0  0  0  0  0  0  0
    7.9460  -12.7728   18.8446 C   0  0  0  0  0  0  0  0  0  0  0  0
    7.1820  -12.8334   19.9906 C   0  0  0  0  0  0  0  0  0  0  0  0
    7.5762  -13.6859   21.0244 C   0  0  0  0  0  0  0  0  0  0  0  0
    8.7038  -14.4658   20.9318 C   0  0  0  0  0  0  0  0  0  0  0  0
    9.0854  -15.3446   22.0315 C   0  0  0  0  0  0  0  0  0  0  0  0
    9.2032  -16.7957   21.6408 C   0  0  2  0  0  0  0  0  0  0  0  0
    7.8519  -17.2463   21.3046 N   0  0  0  0  0  0  0  0  0  0  0  0
    9.6809  -17.5384   22.8358 C   0  0  0  0  0  0  0  0  0  0  0  0
    8.8557  -17.8989   23.7088 O   0  0  0  0  0  0  0  0  0  0  0  0
    9.4491  -14.3867   19.7772 C   0  0  0  0  0  0  0  0  0  0  0  0
    9.0712  -13.5401   18.7322 C   0  0  0  0  0  0  0  0  0  0  0  0
   11.0543  -17.8537   23.0186 N   0  0  0  0  0  0  0  0  0  0  0  0
   11.5185  -18.6067   24.2132 C   0  0  1  0  0  0  0  0  0  0  0  0
   12.7445  -19.3320   23.7163 C   0  0  0  0  0  0  0  0  0  0  0  0
   13.4591  -20.1614   24.7167 C   0  0  0  0  0  0  0  0  0  0  0  0
   14.6665  -20.8276   24.0869 C   0  0  0  0  0  0  0  0  0  0  0  0
   15.8125  -20.3471   24.2495 O   0  0  0  0  0  0  0  0  0  0  0  0
   11.8074  -17.6235   25.2505 C   0  0  0  0  0  0  0  0  0  0  0  0
   11.9190  -16.3997   24.9499 O   0  0  0  0  0  0  0  0  0  0  0  0
   14.5392  -21.9715   23.3235 O   0  0  0  0  0  0  0  0  0  0  0  0
    8.2667  -14.5064   26.9062 N   0  0  0  0  0  0  0  0  0  0  0  0
    9.0052  -14.3255   28.1012 C   0  0  0  0  0  0  0  0  0  0  0  0
    8.7023  -13.4052   28.9075 O   0  0  0  0  0  0  0  0  0  0  0  0
   10.1409  -15.2095   28.4374 C   0  0  0  0  0  0  0  0  0  0  0  0
   10.5864  -16.1217   27.3555 C   0  0  0  0  0  0  0  0  0  0  0  0
   11.6853  -17.0321   27.7205 C   0  0  2  0  0  0  0  0  0  0  0  0
   11.9705  -17.9569   26.6085 N   0  0  0  0  0  0  0  0  0  0  0  0
   11.6587  -17.7725   28.9548 C   0  0  0  0  0  0  0  0  0  0  0  0
   10.9738  -18.9650   29.0981 O   0  0  0  0  0  0  0  0  0  0  0  0
   12.2599  -17.3555   29.9772 O   0  0  0  0  0  0  0  0  0  0  0  0
  2  1  1  0
  3  2  2  0
  4  3  1  0
  5 11  1  0
  5  4  2  0
  6  5  1  0
  7  6  1  0
  7  8  1  1
  9  7  1  0
  9 10  2  0
 11 12  2  0
 12  2  1  0
 13  9  1  0
 14 13  1  0
 14 15  1  6
 16 15  1  0
 16 17  1  0
 17 21  1  0
 17 18  2  0
 19 14  1  0
 20 19  2  0
 23 22  1  0
 23 25  1  0
 24 23  2  0
 26 25  1  0
 27 26  1  6
 27 28  1  0
 28 19  1  0
 29 27  1  0
 29 30  1  0
 31 29  2  0
M  END
$$$$
