YEQ.pdb
     RDKit          3D

 31 31  0  0  1  0  0  0  0  0999 V2000
    6.4944   -9.8050   26.9639 O   0  0  0  0  0  0  0  0  0  0  0  0
    6.5073  -11.0651   26.3615 C   0  0  0  0  0  0  0  0  0  0  0  0
    5.5410  -11.9726   26.7403 C   0  0  0  0  0  0  0  0  0  0  0  0
    5.5326  -13.2396   26.1525 C   0  0  0  0  0  0  0  0  0  0  0  0
    6.4600  -13.6073   25.2073 C   0  0  0  0  0  0  0  0  0  0  0  0
    6.4209  -14.9394   24.6146 C   0  0  0  0  0  0  0  0  0  0  0  0
    6.9718  -16.0215   25.5078 C   0  0  2  0  0  0  0  0  0  0  0  0
    7.5839  -15.3442   26.6517 N   0  0  0  0  0  0  0  0  0  0  0  0
    8.0272  -16.7332   24.7415 C   0  0  0  0  0  0  0  0  0  0  0  0
    7.6970  -17.5354   23.8355 O   0  0  0  0  0  0  0  0  0  0  0  0
    7.4140  -12.6829   24.8468 C   0  0  0  0  0  0  0  0  0  0  0  0
    7.4389  -11.4107   25.4233 C   0  0  0  0  0  0  0  0  0  0  0  0
    9.4082  -16.5298   25.0074 N   0  0  0  0  0  0  0  0  0  0  0  0
   10.4294  -17.5183   24.5721 C   0  0  1  0  0  0  0  0  0  0  0  0
   11.3257  -16.7182   23.6595 C   0  0  0  0  0  0  0  0  0  0  0  0
   12.5707  -17.3918   23.2174 C   0  0  0  0  0  0  0  0  0  0  0  0
   12.2549  -18.4799   22.2100 C   0  0  0  0  0  0  0  0  0  0  0  0
   12.3609  -19.6877   22.5273 O   0  0  0  0  0  0  0  0  0  0  0  0
   11.1025  -17.9930   25.7753 C   0  0  0  0  0  0  0  0  0  0  0  0
   11.7709  -17.1881   26.4865 O   0  0  0  0  0  0  0  0  0  0  0  0
   11.8456  -18.1742   20.9269 O   0  0  0  0  0  0  0  0  0  0  0  0
    8.8610  -23.2268   28.6131 N   0  0  0  0  0  0  0  0  0  0  0  0
    9.7820  -22.7095   29.5566 C   0  0  0  0  0  0  0  0  0  0  0  0
    9.9640  -23.2926   30.6593 O   0  0  0  0  0  0  0  0  0  0  0  0
   10.5557  -21.4825   29.2739 C   0  0  0  0  0  0  0  0  0  0  0  0
   10.3972  -20.9240   27.9085 C   0  0  0  0  0  0  0  0  0  0  0  0
   11.2232  -19.7392   27.6196 C   0  0  2  0  0  0  0  0  0  0  0  0
   11.0516  -19.3297   26.2140 N   0  0  0  0  0  0  0  0  0  0  0  0
   12.6236  -19.7099   27.9519 C   0  0  0  0  0  0  0  0  0  0  0  0
   13.6178  -19.9786   27.0293 O   0  0  0  0  0  0  0  0  0  0  0  0
   13.0107  -19.4432   29.1179 O   0  0  0  0  0  0  0  0  0  0  0  0
  2  1  1  0
  3  2  2  0
  4  3  1  0
  5 11  1  0
  5  4  2  0
  6  5  1  0
  7  6  1  0
  7  8  1  1
  9  7  1  0
  9 10  2  0
 11 12  2  0
 12  2  1  0
 13  9  1  0
 14 13  1  0
 14 15  1  6
 16 15  1  0
 16 17  1  0
 17 21  1  0
 17 18  2  0
 19 14  1  0
 20 19  2  0
 23 22  1  0
 23 25  1  0
 24 23  2  0
 26 25  1  0
 27 26  1  6
 27 28  1  0
 28 19  1  0
 29 27  1  0
 29 30  1  0
 31 29  2  0
M  END
$$$$
