YEQ.pdb
     RDKit          3D

 31 31  0  0  1  0  0  0  0  0999 V2000
    5.0146  -10.4838   27.1763 O   0  0  0  0  0  0  0  0  0  0  0  0
    5.7726  -11.5249   26.6355 C   0  0  0  0  0  0  0  0  0  0  0  0
    6.1639  -12.5443   27.4771 C   0  0  0  0  0  0  0  0  0  0  0  0
    6.9226  -13.5971   26.9605 C   0  0  0  0  0  0  0  0  0  0  0  0
    7.2902  -13.6457   25.6372 C   0  0  0  0  0  0  0  0  0  0  0  0
    8.0832  -14.7607   25.1323 C   0  0  0  0  0  0  0  0  0  0  0  0
    7.2850  -15.7738   24.3520 C   0  0  2  0  0  0  0  0  0  0  0  0
    6.5397  -16.5615   25.3350 N   0  0  0  0  0  0  0  0  0  0  0  0
    8.2537  -16.6574   23.6532 C   0  0  0  0  0  0  0  0  0  0  0  0
    8.6019  -17.7367   24.1889 O   0  0  0  0  0  0  0  0  0  0  0  0
    6.8868  -12.6156   24.8182 C   0  0  0  0  0  0  0  0  0  0  0  0
    6.1275  -11.5540   25.3161 C   0  0  0  0  0  0  0  0  0  0  0  0
    8.8000  -16.3124   22.3876 N   0  0  0  0  0  0  0  0  0  0  0  0
    9.9664  -17.0442   21.8277 C   0  0  1  0  0  0  0  0  0  0  0  0
   10.1200  -16.4557   20.4470 C   0  0  0  0  0  0  0  0  0  0  0  0
   11.2720  -16.9497   19.6545 C   0  0  0  0  0  0  0  0  0  0  0  0
   10.8502  -17.2307   18.2257 C   0  0  0  0  0  0  0  0  0  0  0  0
    9.6741  -17.5792   17.9688 O   0  0  0  0  0  0  0  0  0  0  0  0
   11.1002  -16.7718   22.7032 C   0  0  0  0  0  0  0  0  0  0  0  0
   11.1541  -15.6864   23.3507 O   0  0  0  0  0  0  0  0  0  0  0  0
   11.7410  -17.1119   17.1770 O   0  0  0  0  0  0  0  0  0  0  0  0
   10.0612  -17.7107   27.2987 N   0  0  0  0  0  0  0  0  0  0  0  0
   11.1754  -18.5739   27.4391 C   0  0  0  0  0  0  0  0  0  0  0  0
   11.7002  -18.7625   28.5696 O   0  0  0  0  0  0  0  0  0  0  0  0
   11.7463  -19.2786   26.2723 C   0  0  0  0  0  0  0  0  0  0  0  0
   11.4324  -18.6871   24.9484 C   0  0  0  0  0  0  0  0  0  0  0  0
   12.5958  -18.1831   24.1989 C   0  0  2  0  0  0  0  0  0  0  0  0
   12.1703  -17.6684   22.8846 N   0  0  0  0  0  0  0  0  0  0  0  0
   13.7774  -18.9880   24.0303 C   0  0  0  0  0  0  0  0  0  0  0  0
   14.1050  -19.5953   22.8321 O   0  0  0  0  0  0  0  0  0  0  0  0
   14.5724  -19.1852   24.9839 O   0  0  0  0  0  0  0  0  0  0  0  0
  2  1  1  0
  3  2  2  0
  4  3  1  0
  5 11  1  0
  5  4  2  0
  6  5  1  0
  7  6  1  0
  7  8  1  1
  9  7  1  0
  9 10  2  0
 11 12  2  0
 12  2  1  0
 13  9  1  0
 14 13  1  0
 14 15  1  6
 16 15  1  0
 16 17  1  0
 17 21  1  0
 17 18  2  0
 19 14  1  0
 20 19  2  0
 23 22  1  0
 23 25  1  0
 24 23  2  0
 26 25  1  0
 27 26  1  6
 27 28  1  0
 28 19  1  0
 29 27  1  0
 29 30  1  0
 31 29  2  0
M  END
$$$$
