YEQ.pdb
     RDKit          3D

 31 31  0  0  1  0  0  0  0  0999 V2000
    8.5296  -11.1579   20.4572 O   0  0  0  0  0  0  0  0  0  0  0  0
    7.9992  -12.4501   20.4594 C   0  0  0  0  0  0  0  0  0  0  0  0
    7.8062  -13.0676   21.6768 C   0  0  0  0  0  0  0  0  0  0  0  0
    7.2771  -14.3599   21.7057 C   0  0  0  0  0  0  0  0  0  0  0  0
    6.9435  -15.0334   20.5552 C   0  0  0  0  0  0  0  0  0  0  0  0
    6.3933  -16.3824   20.6232 C   0  0  0  0  0  0  0  0  0  0  0  0
    7.2915  -17.4388   20.0322 C   0  0  2  0  0  0  0  0  0  0  0  0
    6.5639  -18.7049   20.1305 N   0  0  0  0  0  0  0  0  0  0  0  0
    8.5091  -17.5097   20.8807 C   0  0  0  0  0  0  0  0  0  0  0  0
    8.4375  -18.0282   22.0205 O   0  0  0  0  0  0  0  0  0  0  0  0
    7.1460  -14.3947   19.3528 C   0  0  0  0  0  0  0  0  0  0  0  0
    7.6741  -13.1023   19.3033 C   0  0  0  0  0  0  0  0  0  0  0  0
    9.7599  -17.0038   20.4349 N   0  0  0  0  0  0  0  0  0  0  0  0
   10.9847  -17.1378   21.2665 C   0  0  1  0  0  0  0  0  0  0  0  0
   12.0579  -16.5057   20.4150 C   0  0  0  0  0  0  0  0  0  0  0  0
   13.4156  -16.4588   21.0096 C   0  0  0  0  0  0  0  0  0  0  0  0
   14.4067  -15.8762   20.0212 C   0  0  0  0  0  0  0  0  0  0  0  0
   15.0840  -16.6300   19.2838 O   0  0  0  0  0  0  0  0  0  0  0  0
   10.7349  -16.4204   22.5111 C   0  0  0  0  0  0  0  0  0  0  0  0
   10.5901  -15.1637   22.4998 O   0  0  0  0  0  0  0  0  0  0  0  0
   14.5895  -14.5121   19.9064 O   0  0  0  0  0  0  0  0  0  0  0  0
    6.4842  -14.5237   25.0042 N   0  0  0  0  0  0  0  0  0  0  0  0
    6.6092  -15.9261   24.8500 C   0  0  0  0  0  0  0  0  0  0  0  0
    5.5844  -16.6507   24.7317 O   0  0  0  0  0  0  0  0  0  0  0  0
    7.9367  -16.5747   24.8174 C   0  0  0  0  0  0  0  0  0  0  0  0
    9.0974  -15.6714   25.0118 C   0  0  0  0  0  0  0  0  0  0  0  0
   10.4104  -16.3386   25.0317 C   0  0  2  0  0  0  0  0  0  0  0  0
   10.6361  -17.0556   23.7636 N   0  0  0  0  0  0  0  0  0  0  0  0
   10.7970  -17.1870   26.1286 C   0  0  0  0  0  0  0  0  0  0  0  0
   10.8302  -16.7478   27.4392 O   0  0  0  0  0  0  0  0  0  0  0  0
   11.1361  -18.3826   25.9389 O   0  0  0  0  0  0  0  0  0  0  0  0
  2  1  1  0
  3  2  2  0
  4  3  1  0
  5 11  1  0
  5  4  2  0
  6  5  1  0
  7  6  1  0
  7  8  1  1
  9  7  1  0
  9 10  2  0
 11 12  2  0
 12  2  1  0
 13  9  1  0
 14 13  1  0
 14 15  1  6
 16 15  1  0
 16 17  1  0
 17 21  1  0
 17 18  2  0
 19 14  1  0
 20 19  2  0
 23 22  1  0
 23 25  1  0
 24 23  2  0
 26 25  1  0
 27 26  1  1
 27 28  1  0
 28 19  1  0
 29 27  1  0
 29 30  1  0
 31 29  2  0
M  END
$$$$
