YNQ.pdb
     RDKit          3D

 30 30  0  0  1  0  0  0  0  0999 V2000
    6.9618  -11.5165   27.2483 O   0  0  0  0  0  0  0  0  0  0  0  0
    6.6283  -12.4083   26.2497 C   0  0  0  0  0  0  0  0  0  0  0  0
    6.7716  -12.0674   24.9211 C   0  0  0  0  0  0  0  0  0  0  0  0
    6.4308  -12.9776   23.9402 C   0  0  0  0  0  0  0  0  0  0  0  0
    5.9486  -14.2228   24.3153 C   0  0  0  0  0  0  0  0  0  0  0  0
    5.5956  -15.1670   23.2465 C   0  0  0  0  0  0  0  0  0  0  0  0
    6.3585  -16.4681   23.3802 C   0  0  2  0  0  0  0  0  0  0  0  0
    6.8282  -16.5497   24.7425 N   0  0  0  0  0  0  0  0  0  0  0  0
    7.4995  -16.4301   22.4589 C   0  0  0  0  0  0  0  0  0  0  0  0
    7.6931  -17.3796   21.6562 O   0  0  0  0  0  0  0  0  0  0  0  0
    5.8027  -14.5704   25.6418 C   0  0  0  0  0  0  0  0  0  0  0  0
    6.1473  -13.6504   26.6208 C   0  0  0  0  0  0  0  0  0  0  0  0
    8.3255  -12.6840   19.7382 N   0  0  0  0  0  0  0  0  0  0  0  0
    8.9439  -13.9569   19.7900 C   0  0  0  0  0  0  0  0  0  0  0  0
    8.5943  -14.8108   18.9283 O   0  0  0  0  0  0  0  0  0  0  0  0
    9.9468  -14.2077   20.8332 C   0  0  0  0  0  0  0  0  0  0  0  0
    9.6559  -15.4225   21.6620 C   0  0  2  0  0  0  0  0  0  0  0  0
    8.4386  -15.3697   22.3965 N   0  0  0  0  0  0  0  0  0  0  0  0
   10.7603  -15.7211   22.6098 C   0  0  0  0  0  0  0  0  0  0  0  0
   11.9696  -15.7081   22.2627 O   0  0  0  0  0  0  0  0  0  0  0  0
   12.5432  -16.4387   29.7691 N   0  0  0  0  0  0  0  0  0  0  0  0
   11.7121  -16.0052   28.7125 C   0  0  0  0  0  0  0  0  0  0  0  0
   10.5984  -15.5099   28.9349 O   0  0  0  0  0  0  0  0  0  0  0  0
   12.1847  -16.1473   27.3156 C   0  0  0  0  0  0  0  0  0  0  0  0
   11.0334  -16.0753   26.3545 C   0  0  0  0  0  0  0  0  0  0  0  0
   11.5649  -16.2002   24.9474 C   0  0  2  0  0  0  0  0  0  0  0  0
   10.5154  -16.0461   23.9934 N   0  0  0  0  0  0  0  0  0  0  0  0
   12.2742  -17.4945   24.8366 C   0  0  0  0  0  0  0  0  0  0  0  0
   13.4592  -17.6810   25.1750 O   0  0  0  0  0  0  0  0  0  0  0  0
   11.5644  -18.5682   24.3197 O   0  0  0  0  0  0  0  0  0  0  0  0
  2  1  1  0
  3  2  2  0
  4  3  1  0
  5  4  2  0
  5 11  1  0
  6  5  1  0
  7  9  1  0
  7  6  1  0
  7  8  1  1
  9 10  2  0
 11 12  2  0
 12  2  1  0
 13 14  1  0
 14 16  1  0
 14 15  2  0
 17 16  1  1
 18 17  1  0
 18  9  1  0
 19 17  1  0
 19 20  2  0
 21 22  1  0
 22 24  1  0
 22 23  2  0
 24 25  1  0
 26 25  1  1
 26 27  1  0
 26 28  1  0
 27 19  1  0
 28 29  2  0
 28 30  1  0
M  END
$$$$
