YNQ.pdb
     RDKit          3D

 30 30  0  0  1  0  0  0  0  0999 V2000
    8.5728  -11.7905   17.8520 O   0  0  0  0  0  0  0  0  0  0  0  0
    8.2069  -12.8286   18.6841 C   0  0  0  0  0  0  0  0  0  0  0  0
    8.6752  -14.1073   18.4664 C   0  0  0  0  0  0  0  0  0  0  0  0
    8.2945  -15.1294   19.3133 C   0  0  0  0  0  0  0  0  0  0  0  0
    7.4438  -14.8453   20.3714 C   0  0  0  0  0  0  0  0  0  0  0  0
    7.0587  -15.9557   21.2530 C   0  0  0  0  0  0  0  0  0  0  0  0
    7.3789  -17.2975   20.6286 C   0  0  2  0  0  0  0  0  0  0  0  0
    6.1391  -18.0301   20.5315 N   0  0  0  0  0  0  0  0  0  0  0  0
    8.3111  -18.0063   21.5122 C   0  0  0  0  0  0  0  0  0  0  0  0
    7.8725  -18.8004   22.3842 O   0  0  0  0  0  0  0  0  0  0  0  0
    6.9717  -13.5691   20.5950 C   0  0  0  0  0  0  0  0  0  0  0  0
    7.3589  -12.5483   19.7397 C   0  0  0  0  0  0  0  0  0  0  0  0
   12.7431  -18.9301   19.3929 N   0  0  0  0  0  0  0  0  0  0  0  0
   12.0289  -19.4822   20.4840 C   0  0  0  0  0  0  0  0  0  0  0  0
   11.4493  -20.5888   20.3017 O   0  0  0  0  0  0  0  0  0  0  0  0
   12.0040  -18.7426   21.7526 C   0  0  0  0  0  0  0  0  0  0  0  0
   10.6250  -18.5608   22.3114 C   0  0  2  0  0  0  0  0  0  0  0  0
    9.7209  -17.8642   21.4621 N   0  0  0  0  0  0  0  0  0  0  0  0
   10.6496  -17.8754   23.6293 C   0  0  0  0  0  0  0  0  0  0  0  0
   11.4340  -16.9242   23.8807 O   0  0  0  0  0  0  0  0  0  0  0  0
    8.7260  -14.8081   26.0993 N   0  0  0  0  0  0  0  0  0  0  0  0
    7.7308  -15.4545   25.3333 C   0  0  0  0  0  0  0  0  0  0  0  0
    7.0149  -14.8200   24.5461 O   0  0  0  0  0  0  0  0  0  0  0  0
    7.5434  -16.9171   25.4773 C   0  0  0  0  0  0  0  0  0  0  0  0
    8.4326  -17.4637   26.5567 C   0  0  0  0  0  0  0  0  0  0  0  0
    9.8221  -17.6475   25.9967 C   0  0  2  0  0  0  0  0  0  0  0  0
    9.7727  -18.2582   24.7083 N   0  0  0  0  0  0  0  0  0  0  0  0
   10.6171  -18.4154   26.9808 C   0  0  0  0  0  0  0  0  0  0  0  0
   11.1100  -19.5401   26.7664 O   0  0  0  0  0  0  0  0  0  0  0  0
   10.8232  -17.8369   28.2245 O   0  0  0  0  0  0  0  0  0  0  0  0
  2  1  1  0
  3  2  2  0
  4  3  1  0
  5  4  2  0
  5 11  1  0
  6  5  1  0
  7  9  1  0
  7  6  1  0
  7  8  1  1
  9 10  2  0
 11 12  2  0
 12  2  1  0
 13 14  1  0
 14 16  1  0
 14 15  2  0
 17 16  1  6
 18 17  1  0
 18  9  1  0
 19 17  1  0
 19 20  2  0
 21 22  1  0
 22 24  1  0
 22 23  2  0
 24 25  1  0
 26 25  1  1
 26 27  1  0
 26 28  1  0
 27 19  1  0
 28 29  2  0
 28 30  1  0
M  END
$$$$
