YNQ.pdb
     RDKit          3D

 30 30  0  0  1  0  0  0  0  0999 V2000
   10.4961  -12.3441   18.6725 O   0  0  0  0  0  0  0  0  0  0  0  0
    9.5258  -13.2186   19.1168 C   0  0  0  0  0  0  0  0  0  0  0  0
    8.5759  -12.8148   20.0314 C   0  0  0  0  0  0  0  0  0  0  0  0
    7.6151  -13.7089   20.4606 C   0  0  0  0  0  0  0  0  0  0  0  0
    7.6268  -15.0020   19.9591 C   0  0  0  0  0  0  0  0  0  0  0  0
    6.5905  -15.9274   20.4369 C   0  0  0  0  0  0  0  0  0  0  0  0
    6.5364  -15.9678   21.9496 C   0  0  2  0  0  0  0  0  0  0  0  0
    7.1401  -14.7485   22.4313 N   0  0  0  0  0  0  0  0  0  0  0  0
    7.3124  -17.1254   22.4076 C   0  0  0  0  0  0  0  0  0  0  0  0
    7.0146  -18.2812   22.0092 O   0  0  0  0  0  0  0  0  0  0  0  0
    8.5736  -15.4127   19.0444 C   0  0  0  0  0  0  0  0  0  0  0  0
    9.5350  -14.5084   18.6185 C   0  0  0  0  0  0  0  0  0  0  0  0
   10.0576  -21.4196   22.6097 N   0  0  0  0  0  0  0  0  0  0  0  0
   10.5367  -20.1322   22.9540 C   0  0  0  0  0  0  0  0  0  0  0  0
   11.6123  -20.0667   23.6118 O   0  0  0  0  0  0  0  0  0  0  0  0
    9.7620  -18.9588   22.5298 C   0  0  0  0  0  0  0  0  0  0  0  0
    9.2193  -18.1558   23.6734 C   0  0  2  0  0  0  0  0  0  0  0  0
    8.4135  -17.0454   23.2973 N   0  0  0  0  0  0  0  0  0  0  0  0
   10.3013  -17.6662   24.5662 C   0  0  0  0  0  0  0  0  0  0  0  0
   11.4042  -17.2515   24.1251 O   0  0  0  0  0  0  0  0  0  0  0  0
    9.9514  -13.0652   28.6232 N   0  0  0  0  0  0  0  0  0  0  0  0
    9.2960  -14.2766   28.3102 C   0  0  0  0  0  0  0  0  0  0  0  0
    8.2393  -14.5974   28.8717 O   0  0  0  0  0  0  0  0  0  0  0  0
    9.8865  -15.1761   27.2918 C   0  0  0  0  0  0  0  0  0  0  0  0
   10.6540  -16.2888   27.9455 C   0  0  0  0  0  0  0  0  0  0  0  0
   11.1974  -17.2013   26.8732 C   0  0  2  0  0  0  0  0  0  0  0  0
   10.1553  -17.6351   26.0006 N   0  0  0  0  0  0  0  0  0  0  0  0
   11.9110  -18.3160   27.5355 C   0  0  0  0  0  0  0  0  0  0  0  0
   11.5862  -19.5158   27.4434 O   0  0  0  0  0  0  0  0  0  0  0  0
   13.0160  -17.9948   28.3100 O   0  0  0  0  0  0  0  0  0  0  0  0
  2  1  1  0
  3  2  2  0
  4  3  1  0
  5  4  2  0
  5 11  1  0
  6  5  1  0
  7  9  1  0
  7  6  1  0
  7  8  1  1
  9 10  2  0
 11 12  2  0
 12  2  1  0
 13 14  1  0
 14 16  1  0
 14 15  2  0
 17 16  1  6
 18 17  1  0
 18  9  1  0
 19 17  1  0
 19 20  2  0
 21 22  1  0
 22 24  1  0
 22 23  2  0
 24 25  1  0
 26 25  1  1
 26 27  1  0
 26 28  1  0
 27 19  1  0
 28 29  2  0
 28 30  1  0
M  END
$$$$
