YNQ.pdb
     RDKit          3D

 30 30  0  0  1  0  0  0  0  0999 V2000
    9.2923  -11.5636   18.6513 O   0  0  0  0  0  0  0  0  0  0  0  0
    8.6827  -12.7253   19.0786 C   0  0  0  0  0  0  0  0  0  0  0  0
    8.6974  -13.8603   18.2955 C   0  0  0  0  0  0  0  0  0  0  0  0
    8.0801  -15.0107   18.7455 C   0  0  0  0  0  0  0  0  0  0  0  0
    7.4548  -14.9990   19.9835 C   0  0  0  0  0  0  0  0  0  0  0  0
    6.8080  -16.2396   20.4318 C   0  0  0  0  0  0  0  0  0  0  0  0
    7.5892  -16.9019   21.5471 C   0  0  2  0  0  0  0  0  0  0  0  0
    7.6742  -15.9526   22.6310 N   0  0  0  0  0  0  0  0  0  0  0  0
    8.9330  -17.2123   21.0471 C   0  0  0  0  0  0  0  0  0  0  0  0
    9.1146  -18.2149   20.3088 O   0  0  0  0  0  0  0  0  0  0  0  0
    7.4362  -13.8677   20.7719 C   0  0  0  0  0  0  0  0  0  0  0  0
    8.0585  -12.7165   20.3125 C   0  0  0  0  0  0  0  0  0  0  0  0
   13.4403  -14.3430   21.3961 N   0  0  0  0  0  0  0  0  0  0  0  0
   12.4481  -14.8615   20.5289 C   0  0  0  0  0  0  0  0  0  0  0  0
   11.6988  -14.0342   19.9390 O   0  0  0  0  0  0  0  0  0  0  0  0
   12.3491  -16.3179   20.3673 C   0  0  0  0  0  0  0  0  0  0  0  0
   11.4132  -16.9651   21.3432 C   0  0  2  0  0  0  0  0  0  0  0  0
   10.0890  -16.4451   21.3391 N   0  0  0  0  0  0  0  0  0  0  0  0
   11.9351  -16.9022   22.7328 C   0  0  0  0  0  0  0  0  0  0  0  0
   13.1292  -17.1772   23.0183 O   0  0  0  0  0  0  0  0  0  0  0  0
    9.3514  -14.1959   27.8827 N   0  0  0  0  0  0  0  0  0  0  0  0
   10.4542  -14.9125   28.3979 C   0  0  0  0  0  0  0  0  0  0  0  0
   10.7499  -14.8568   29.5997 O   0  0  0  0  0  0  0  0  0  0  0  0
   11.2685  -15.7439   27.4811 C   0  0  0  0  0  0  0  0  0  0  0  0
   10.7192  -15.6903   26.0848 C   0  0  0  0  0  0  0  0  0  0  0  0
   11.5451  -16.5934   25.2014 C   0  0  2  0  0  0  0  0  0  0  0  0
   11.1027  -16.5205   23.8470 N   0  0  0  0  0  0  0  0  0  0  0  0
   11.4922  -17.9613   25.7639 C   0  0  0  0  0  0  0  0  0  0  0  0
   10.4633  -18.6628   25.8182 O   0  0  0  0  0  0  0  0  0  0  0  0
   12.6728  -18.4916   26.2629 O   0  0  0  0  0  0  0  0  0  0  0  0
  2  1  1  0
  3  2  2  0
  4  3  1  0
  5  4  2  0
  5 11  1  0
  6  5  1  0
  7  9  1  0
  7  6  1  0
  7  8  1  1
  9 10  2  0
 11 12  2  0
 12  2  1  0
 13 14  1  0
 14 16  1  0
 14 15  2  0
 17 16  1  6
 18 17  1  0
 18  9  1  0
 19 17  1  0
 19 20  2  0
 21 22  1  0
 22 24  1  0
 22 23  2  0
 24 25  1  0
 26 25  1  1
 26 27  1  0
 26 28  1  0
 27 19  1  0
 28 29  2  0
 28 30  1  0
M  END
$$$$
