YNQ.pdb
     RDKit          3D

 30 30  0  0  1  0  0  0  0  0999 V2000
   11.1168  -14.8667   30.2175 O   0  0  0  0  0  0  0  0  0  0  0  0
   10.2150  -14.7537   29.1793 C   0  0  0  0  0  0  0  0  0  0  0  0
    9.8373  -13.5159   28.7030 C   0  0  0  0  0  0  0  0  0  0  0  0
    8.9331  -13.4292   27.6629 C   0  0  0  0  0  0  0  0  0  0  0  0
    8.4213  -14.5969   27.1166 C   0  0  0  0  0  0  0  0  0  0  0  0
    7.4618  -14.4685   26.0116 C   0  0  0  0  0  0  0  0  0  0  0  0
    7.4124  -15.7262   25.1698 C   0  0  2  0  0  0  0  0  0  0  0  0
    8.6417  -16.4454   25.4039 N   0  0  0  0  0  0  0  0  0  0  0  0
    7.3234  -15.3334   23.7592 C   0  0  0  0  0  0  0  0  0  0  0  0
    6.3129  -14.7110   23.3410 O   0  0  0  0  0  0  0  0  0  0  0  0
    8.7945  -15.8380   27.5879 C   0  0  0  0  0  0  0  0  0  0  0  0
    9.7031  -15.9162   28.6328 C   0  0  0  0  0  0  0  0  0  0  0  0
    6.7846  -13.4389   19.0575 N   0  0  0  0  0  0  0  0  0  0  0  0
    7.9257  -13.2623   19.8773 C   0  0  0  0  0  0  0  0  0  0  0  0
    8.9372  -12.7129   19.3587 O   0  0  0  0  0  0  0  0  0  0  0  0
    7.8671  -13.7240   21.2702 C   0  0  0  0  0  0  0  0  0  0  0  0
    8.2730  -15.1567   21.4424 C   0  0  2  0  0  0  0  0  0  0  0  0
    8.3217  -15.6082   22.7906 N   0  0  0  0  0  0  0  0  0  0  0  0
    9.5869  -15.4379   20.8083 C   0  0  0  0  0  0  0  0  0  0  0  0
    9.8088  -15.2183   19.5895 O   0  0  0  0  0  0  0  0  0  0  0  0
   10.3917  -21.7092   22.2592 N   0  0  0  0  0  0  0  0  0  0  0  0
   10.3099  -20.8212   21.1639 C   0  0  0  0  0  0  0  0  0  0  0  0
    9.5066  -21.0142   20.2407 O   0  0  0  0  0  0  0  0  0  0  0  0
   11.2026  -19.6395   21.1228 C   0  0  0  0  0  0  0  0  0  0  0  0
   10.4244  -18.3765   21.3550 C   0  0  0  0  0  0  0  0  0  0  0  0
   11.3497  -17.1962   21.1856 C   0  0  2  0  0  0  0  0  0  0  0  0
   10.6956  -15.9825   21.5526 N   0  0  0  0  0  0  0  0  0  0  0  0
   11.8468  -17.1973   19.7916 C   0  0  0  0  0  0  0  0  0  0  0  0
   12.7516  -17.9414   19.3656 O   0  0  0  0  0  0  0  0  0  0  0  0
   11.2604  -16.3065   18.9049 O   0  0  0  0  0  0  0  0  0  0  0  0
  2  1  1  0
  3  2  2  0
  4  3  1  0
  5  4  2  0
  5 11  1  0
  6  5  1  0
  7  9  1  0
  7  6  1  0
  7  8  1  6
  9 10  2  0
 11 12  2  0
 12  2  1  0
 13 14  1  0
 14 16  1  0
 14 15  2  0
 17 16  1  1
 18 17  1  0
 18  9  1  0
 19 17  1  0
 19 20  2  0
 21 22  1  0
 22 24  1  0
 22 23  2  0
 24 25  1  0
 26 25  1  6
 26 27  1  0
 26 28  1  0
 27 19  1  0
 28 29  2  0
 28 30  1  0
M  END
$$$$
