YNQ.pdb
     RDKit          3D

 30 30  0  0  1  0  0  0  0  0999 V2000
    5.6454  -12.7812   19.6915 O   0  0  0  0  0  0  0  0  0  0  0  0
    6.9890  -13.0946   19.7076 C   0  0  0  0  0  0  0  0  0  0  0  0
    7.4626  -14.1357   20.4781 C   0  0  0  0  0  0  0  0  0  0  0  0
    8.8119  -14.4295   20.4771 C   0  0  0  0  0  0  0  0  0  0  0  0
    9.6667  -13.6661   19.6960 C   0  0  0  0  0  0  0  0  0  0  0  0
   11.0958  -14.0058   19.7182 C   0  0  0  0  0  0  0  0  0  0  0  0
   11.5414  -14.6200   18.4079 C   0  0  2  0  0  0  0  0  0  0  0  0
   10.7228  -15.7874   18.1833 N   0  0  0  0  0  0  0  0  0  0  0  0
   12.9487  -15.0131   18.5382 C   0  0  0  0  0  0  0  0  0  0  0  0
   13.2469  -16.1406   19.0107 O   0  0  0  0  0  0  0  0  0  0  0  0
    9.2000  -12.6237   18.9230 C   0  0  0  0  0  0  0  0  0  0  0  0
    7.8435  -12.3351   18.9297 C   0  0  0  0  0  0  0  0  0  0  0  0
   18.2503  -15.3572   16.4641 N   0  0  0  0  0  0  0  0  0  0  0  0
   17.7169  -14.4162   17.3781 C   0  0  0  0  0  0  0  0  0  0  0  0
   18.4847  -13.9788   18.2798 O   0  0  0  0  0  0  0  0  0  0  0  0
   16.3145  -14.0074   17.2256 C   0  0  0  0  0  0  0  0  0  0  0  0
   15.4072  -14.5835   18.2705 C   0  0  2  0  0  0  0  0  0  0  0  0
   14.0431  -14.1947   18.1605 N   0  0  0  0  0  0  0  0  0  0  0  0
   15.8744  -14.2637   19.6441 C   0  0  0  0  0  0  0  0  0  0  0  0
   15.9735  -13.0822   20.0652 O   0  0  0  0  0  0  0  0  0  0  0  0
   13.7038  -16.3509   24.6122 N   0  0  0  0  0  0  0  0  0  0  0  0
   14.2332  -17.2885   23.6980 C   0  0  0  0  0  0  0  0  0  0  0  0
   13.8624  -18.4706   23.7052 O   0  0  0  0  0  0  0  0  0  0  0  0
   15.2495  -16.8458   22.7152 C   0  0  0  0  0  0  0  0  0  0  0  0
   15.5776  -15.3932   22.9067 C   0  0  0  0  0  0  0  0  0  0  0  0
   16.6528  -15.0027   21.9221 C   0  0  2  0  0  0  0  0  0  0  0  0
   16.2454  -15.2912   20.5856 N   0  0  0  0  0  0  0  0  0  0  0  0
   17.9061  -15.6852   22.3145 C   0  0  0  0  0  0  0  0  0  0  0  0
   18.4481  -16.5968   21.6596 O   0  0  0  0  0  0  0  0  0  0  0  0
   18.5126  -15.2763   23.4930 O   0  0  0  0  0  0  0  0  0  0  0  0
  2  1  1  0
  3  2  2  0
  4  3  1  0
  5  4  2  0
  5 11  1  0
  6  5  1  0
  7  9  1  0
  7  6  1  0
  7  8  1  1
  9 10  2  0
 11 12  2  0
 12  2  1  0
 13 14  1  0
 14 16  1  0
 14 15  2  0
 17 16  1  6
 18 17  1  0
 18  9  1  0
 19 17  1  0
 19 20  2  0
 21 22  1  0
 22 24  1  0
 22 23  2  0
 24 25  1  0
 26 25  1  1
 26 27  1  0
 26 28  1  0
 27 19  1  0
 28 29  2  0
 28 30  1  0
M  END
$$$$
