YNQ.pdb
     RDKit          3D

 30 30  0  0  1  0  0  0  0  0999 V2000
    5.9729  -11.4195   28.4583 O   0  0  0  0  0  0  0  0  0  0  0  0
    6.5003  -12.1865   27.4397 C   0  0  0  0  0  0  0  0  0  0  0  0
    7.3534  -13.2349   27.7137 C   0  0  0  0  0  0  0  0  0  0  0  0
    7.8680  -13.9876   26.6767 C   0  0  0  0  0  0  0  0  0  0  0  0
    7.5132  -13.6706   25.3738 C   0  0  0  0  0  0  0  0  0  0  0  0
    8.0787  -14.4917   24.2947 C   0  0  0  0  0  0  0  0  0  0  0  0
    6.9926  -15.1115   23.4409 C   0  0  2  0  0  0  0  0  0  0  0  0
    6.4369  -16.2131   24.1900 N   0  0  0  0  0  0  0  0  0  0  0  0
    7.6055  -15.6066   22.2034 C   0  0  0  0  0  0  0  0  0  0  0  0
    7.4456  -16.8056   21.8570 O   0  0  0  0  0  0  0  0  0  0  0  0
    6.6608  -12.6237   25.0926 C   0  0  0  0  0  0  0  0  0  0  0  0
    6.1483  -11.8726   26.1399 C   0  0  0  0  0  0  0  0  0  0  0  0
    7.7199  -12.3121   18.6670 N   0  0  0  0  0  0  0  0  0  0  0  0
    7.9398  -13.7062   18.5502 C   0  0  0  0  0  0  0  0  0  0  0  0
    7.0351  -14.3956   18.0024 O   0  0  0  0  0  0  0  0  0  0  0  0
    9.1957  -14.2641   19.0683 C   0  0  0  0  0  0  0  0  0  0  0  0
    8.9953  -15.2966   20.1364 C   0  0  2  0  0  0  0  0  0  0  0  0
    8.3940  -14.8136   21.3318 N   0  0  0  0  0  0  0  0  0  0  0  0
   10.2681  -15.9739   20.4948 C   0  0  0  0  0  0  0  0  0  0  0  0
   11.0671  -16.4118   19.6271 O   0  0  0  0  0  0  0  0  0  0  0  0
   14.0741  -19.2453   25.9669 N   0  0  0  0  0  0  0  0  0  0  0  0
   13.0754  -18.3700   25.4858 C   0  0  0  0  0  0  0  0  0  0  0  0
   12.2226  -17.8908   26.2460 O   0  0  0  0  0  0  0  0  0  0  0  0
   13.0514  -18.0218   24.0460 C   0  0  0  0  0  0  0  0  0  0  0  0
   11.8121  -17.2447   23.7071 C   0  0  0  0  0  0  0  0  0  0  0  0
   11.8186  -16.9373   22.2294 C   0  0  2  0  0  0  0  0  0  0  0  0
   10.6701  -16.1733   21.8654 N   0  0  0  0  0  0  0  0  0  0  0  0
   11.9306  -18.2166   21.4938 C   0  0  0  0  0  0  0  0  0  0  0  0
   11.0233  -19.0677   21.4158 O   0  0  0  0  0  0  0  0  0  0  0  0
   13.1308  -18.4788   20.8497 O   0  0  0  0  0  0  0  0  0  0  0  0
  2  1  1  0
  3  2  2  0
  4  3  1  0
  5  4  2  0
  5 11  1  0
  6  5  1  0
  7  9  1  0
  7  6  1  0
  7  8  1  1
  9 10  2  0
 11 12  2  0
 12  2  1  0
 13 14  1  0
 14 16  1  0
 14 15  2  0
 17 16  1  6
 18 17  1  0
 18  9  1  0
 19 17  1  0
 19 20  2  0
 21 22  1  0
 22 24  1  0
 22 23  2  0
 24 25  1  0
 26 25  1  1
 26 27  1  0
 26 28  1  0
 27 19  1  0
 28 29  2  0
 28 30  1  0
M  END
$$$$
