YNQ.pdb
     RDKit          3D

 30 30  0  0  1  0  0  0  0  0999 V2000
    8.1681  -12.0520   28.0164 O   0  0  0  0  0  0  0  0  0  0  0  0
    7.8586  -12.7369   26.8592 C   0  0  0  0  0  0  0  0  0  0  0  0
    8.8462  -13.1027   25.9690 C   0  0  0  0  0  0  0  0  0  0  0  0
    8.5108  -13.7876   24.8178 C   0  0  0  0  0  0  0  0  0  0  0  0
    7.1791  -14.0946   24.5808 C   0  0  0  0  0  0  0  0  0  0  0  0
    6.8573  -14.8239   23.3467 C   0  0  0  0  0  0  0  0  0  0  0  0
    6.8718  -16.3219   23.5669 C   0  0  2  0  0  0  0  0  0  0  0  0
    6.2085  -16.5753   24.8235 N   0  0  0  0  0  0  0  0  0  0  0  0
    8.2688  -16.7634   23.6404 C   0  0  0  0  0  0  0  0  0  0  0  0
    8.6946  -17.3371   24.6763 O   0  0  0  0  0  0  0  0  0  0  0  0
    6.1864  -13.7319   25.4666 C   0  0  0  0  0  0  0  0  0  0  0  0
    6.5317  -13.0442   26.6204 C   0  0  0  0  0  0  0  0  0  0  0  0
   12.5952  -19.1002   20.7149 N   0  0  0  0  0  0  0  0  0  0  0  0
   12.5167  -17.7926   21.2530 C   0  0  0  0  0  0  0  0  0  0  0  0
   13.5805  -17.2815   21.7013 O   0  0  0  0  0  0  0  0  0  0  0  0
   11.2146  -17.1133   21.2585 C   0  0  0  0  0  0  0  0  0  0  0  0
   10.4930  -17.2151   22.5685 C   0  0  2  0  0  0  0  0  0  0  0  0
    9.2155  -16.5899   22.5994 N   0  0  0  0  0  0  0  0  0  0  0  0
   11.3048  -16.6739   23.6890 C   0  0  0  0  0  0  0  0  0  0  0  0
   11.3549  -15.4450   23.9540 O   0  0  0  0  0  0  0  0  0  0  0  0
   10.8308  -14.8233   28.7049 N   0  0  0  0  0  0  0  0  0  0  0  0
   10.9500  -16.2056   28.9693 C   0  0  0  0  0  0  0  0  0  0  0  0
   10.7495  -16.6609   30.1040 O   0  0  0  0  0  0  0  0  0  0  0  0
   11.3217  -17.1233   27.8672 C   0  0  0  0  0  0  0  0  0  0  0  0
   11.5747  -16.3583   26.6002 C   0  0  0  0  0  0  0  0  0  0  0  0
   12.6242  -17.0843   25.7942 C   0  0  2  0  0  0  0  0  0  0  0  0
   12.0899  -17.5263   24.5474 N   0  0  0  0  0  0  0  0  0  0  0  0
   13.1636  -18.1838   26.6251 C   0  0  0  0  0  0  0  0  0  0  0  0
   12.9148  -19.3919   26.4451 O   0  0  0  0  0  0  0  0  0  0  0  0
   14.0028  -17.8377   27.6739 O   0  0  0  0  0  0  0  0  0  0  0  0
  2  1  1  0
  3  2  2  0
  4  3  1  0
  5  4  2  0
  5 11  1  0
  6  5  1  0
  7  9  1  0
  7  6  1  0
  7  8  1  1
  9 10  2  0
 11 12  2  0
 12  2  1  0
 13 14  1  0
 14 16  1  0
 14 15  2  0
 17 16  1  6
 18 17  1  0
 18  9  1  0
 19 17  1  0
 19 20  2  0
 21 22  1  0
 22 24  1  0
 22 23  2  0
 24 25  1  0
 26 25  1  1
 26 27  1  0
 26 28  1  0
 27 19  1  0
 28 29  2  0
 28 30  1  0
M  END
$$$$
