YNQ.pdb
     RDKit          3D

 30 30  0  0  1  0  0  0  0  0999 V2000
    7.9086  -11.9005   17.9714 O   0  0  0  0  0  0  0  0  0  0  0  0
    8.1909  -12.7866   18.9907 C   0  0  0  0  0  0  0  0  0  0  0  0
    9.4912  -13.1513   19.2699 C   0  0  0  0  0  0  0  0  0  0  0  0
    9.7479  -14.0400   20.2952 C   0  0  0  0  0  0  0  0  0  0  0  0
    8.6850  -14.5495   21.0265 C   0  0  0  0  0  0  0  0  0  0  0  0
    8.9935  -15.4924   22.1101 C   0  0  0  0  0  0  0  0  0  0  0  0
    9.3678  -16.8565   21.5699 C   0  0  2  0  0  0  0  0  0  0  0  0
    8.2704  -17.3057   20.7469 N   0  0  0  0  0  0  0  0  0  0  0  0
    9.5479  -17.7681   22.7050 C   0  0  0  0  0  0  0  0  0  0  0  0
    8.7106  -18.6831   22.9174 O   0  0  0  0  0  0  0  0  0  0  0  0
    7.3824  -14.1892   20.7528 C   0  0  0  0  0  0  0  0  0  0  0  0
    7.1333  -13.2961   19.7213 C   0  0  0  0  0  0  0  0  0  0  0  0
   11.0990  -21.8714   25.2244 N   0  0  0  0  0  0  0  0  0  0  0  0
   12.0157  -21.0898   24.4800 C   0  0  0  0  0  0  0  0  0  0  0  0
   13.2420  -21.3707   24.5855 O   0  0  0  0  0  0  0  0  0  0  0  0
   11.4918  -20.0078   23.6363 C   0  0  0  0  0  0  0  0  0  0  0  0
   11.0771  -18.7934   24.4111 C   0  0  2  0  0  0  0  0  0  0  0  0
   10.6304  -17.7000   23.6181 N   0  0  0  0  0  0  0  0  0  0  0  0
   12.1629  -18.3104   25.3028 C   0  0  0  0  0  0  0  0  0  0  0  0
   13.1590  -19.0199   25.5984 O   0  0  0  0  0  0  0  0  0  0  0  0
   10.2168  -13.7309   27.5329 N   0  0  0  0  0  0  0  0  0  0  0  0
    9.8764  -14.5196   28.6541 C   0  0  0  0  0  0  0  0  0  0  0  0
    9.7387  -14.0129   29.7763 O   0  0  0  0  0  0  0  0  0  0  0  0
    9.6816  -15.9779   28.4803 C   0  0  0  0  0  0  0  0  0  0  0  0
   10.1459  -16.4185   27.1220 C   0  0  0  0  0  0  0  0  0  0  0  0
   11.6203  -16.7339   27.1899 C   0  0  2  0  0  0  0  0  0  0  0  0
   12.1439  -16.9926   25.8882 N   0  0  0  0  0  0  0  0  0  0  0  0
   11.8074  -17.8592   28.1327 C   0  0  0  0  0  0  0  0  0  0  0  0
   12.5979  -17.8486   29.0965 O   0  0  0  0  0  0  0  0  0  0  0  0
   11.0472  -19.0002   27.9225 O   0  0  0  0  0  0  0  0  0  0  0  0
  2  1  1  0
  3  2  2  0
  4  3  1  0
  5  4  2  0
  5 11  1  0
  6  5  1  0
  7  9  1  0
  7  6  1  0
  7  8  1  6
  9 10  2  0
 11 12  2  0
 12  2  1  0
 13 14  1  0
 14 16  1  0
 14 15  2  0
 17 16  1  6
 18 17  1  0
 18  9  1  0
 19 17  1  0
 19 20  2  0
 21 22  1  0
 22 24  1  0
 22 23  2  0
 24 25  1  0
 26 25  1  6
 26 27  1  0
 26 28  1  0
 27 19  1  0
 28 29  2  0
 28 30  1  0
M  END
$$$$
