YNQ.pdb
     RDKit          3D

 30 30  0  0  1  0  0  0  0  0999 V2000
    7.4903  -12.1513   17.3397 O   0  0  0  0  0  0  0  0  0  0  0  0
    7.8027  -12.8573   18.4833 C   0  0  0  0  0  0  0  0  0  0  0  0
    9.0909  -12.8708   18.9755 C   0  0  0  0  0  0  0  0  0  0  0  0
    9.3783  -13.5850   20.1219 C   0  0  0  0  0  0  0  0  0  0  0  0
    8.3582  -14.2776   20.7572 C   0  0  0  0  0  0  0  0  0  0  0  0
    8.6985  -15.0268   21.9743 C   0  0  0  0  0  0  0  0  0  0  0  0
    9.4646  -16.2924   21.6515 C   0  0  2  0  0  0  0  0  0  0  0  0
    8.5843  -17.1406   20.8840 N   0  0  0  0  0  0  0  0  0  0  0  0
    9.8193  -16.9509   22.9136 C   0  0  0  0  0  0  0  0  0  0  0  0
    8.9344  -17.5390   23.5878 O   0  0  0  0  0  0  0  0  0  0  0  0
    7.0679  -14.2684   20.2706 C   0  0  0  0  0  0  0  0  0  0  0  0
    6.7877  -13.5487   19.1187 C   0  0  0  0  0  0  0  0  0  0  0  0
   13.4465  -19.5588   22.6125 N   0  0  0  0  0  0  0  0  0  0  0  0
   12.5696  -19.5553   23.7245 C   0  0  0  0  0  0  0  0  0  0  0  0
   11.7464  -20.5076   23.8211 O   0  0  0  0  0  0  0  0  0  0  0  0
   12.6677  -18.4546   24.6918 C   0  0  0  0  0  0  0  0  0  0  0  0
   11.4607  -17.5658   24.7101 C   0  0  2  0  0  0  0  0  0  0  0  0
   11.1285  -16.9801   23.4570 N   0  0  0  0  0  0  0  0  0  0  0  0
   11.5917  -16.4782   25.7137 C   0  0  0  0  0  0  0  0  0  0  0  0
   12.3966  -15.5218   25.5712 O   0  0  0  0  0  0  0  0  0  0  0  0
    8.6527  -12.0838   27.1434 N   0  0  0  0  0  0  0  0  0  0  0  0
    8.0703  -13.3501   26.9146 C   0  0  0  0  0  0  0  0  0  0  0  0
    6.9056  -13.4556   26.5056 O   0  0  0  0  0  0  0  0  0  0  0  0
    8.8702  -14.5708   27.1697 C   0  0  0  0  0  0  0  0  0  0  0  0
   10.2463  -14.2138   27.6526 C   0  0  0  0  0  0  0  0  0  0  0  0
   11.0027  -15.4853   27.9516 C   0  0  2  0  0  0  0  0  0  0  0  0
   10.8013  -16.4496   26.9197 N   0  0  0  0  0  0  0  0  0  0  0  0
   10.5897  -15.9625   29.2903 C   0  0  0  0  0  0  0  0  0  0  0  0
   10.0444  -17.0615   29.5106 O   0  0  0  0  0  0  0  0  0  0  0  0
   10.8296  -15.1232   30.3683 O   0  0  0  0  0  0  0  0  0  0  0  0
  2  1  1  0
  3  2  2  0
  4  3  1  0
  5  4  2  0
  5 11  1  0
  6  5  1  0
  7  9  1  0
  7  6  1  0
  7  8  1  6
  9 10  2  0
 11 12  2  0
 12  2  1  0
 13 14  1  0
 14 16  1  0
 14 15  2  0
 17 16  1  6
 18 17  1  0
 18  9  1  0
 19 17  1  0
 19 20  2  0
 21 22  1  0
 22 24  1  0
 22 23  2  0
 24 25  1  0
 26 25  1  6
 26 27  1  0
 26 28  1  0
 27 19  1  0
 28 29  2  0
 28 30  1  0
M  END
$$$$
