YNQ.pdb
     RDKit          3D

 30 30  0  0  1  0  0  0  0  0999 V2000
    4.6770  -10.7405   25.7264 O   0  0  0  0  0  0  0  0  0  0  0  0
    5.6124  -11.7365   25.5348 C   0  0  0  0  0  0  0  0  0  0  0  0
    6.2167  -12.3545   26.6094 C   0  0  0  0  0  0  0  0  0  0  0  0
    7.1499  -13.3487   26.3914 C   0  0  0  0  0  0  0  0  0  0  0  0
    7.4609  -13.7062   25.0878 C   0  0  0  0  0  0  0  0  0  0  0  0
    8.4577  -14.7675   24.8917 C   0  0  0  0  0  0  0  0  0  0  0  0
    8.1606  -15.5868   23.6535 C   0  0  2  0  0  0  0  0  0  0  0  0
    6.8941  -16.2443   23.8701 N   0  0  0  0  0  0  0  0  0  0  0  0
    9.2230  -16.5863   23.4964 C   0  0  0  0  0  0  0  0  0  0  0  0
    8.9427  -17.8127   23.5204 O   0  0  0  0  0  0  0  0  0  0  0  0
    6.8605  -13.0925   24.0086 C   0  0  0  0  0  0  0  0  0  0  0  0
    5.9243  -12.0949   24.2362 C   0  0  0  0  0  0  0  0  0  0  0  0
   11.9211  -17.5054   20.1851 N   0  0  0  0  0  0  0  0  0  0  0  0
   12.4619  -16.4925   21.0140 C   0  0  0  0  0  0  0  0  0  0  0  0
   12.6141  -15.3453   20.5094 O   0  0  0  0  0  0  0  0  0  0  0  0
   12.8111  -16.8320   22.3995 C   0  0  0  0  0  0  0  0  0  0  0  0
   11.6318  -17.2396   23.2302 C   0  0  2  0  0  0  0  0  0  0  0  0
   10.5930  -16.2711   23.3128 N   0  0  0  0  0  0  0  0  0  0  0  0
   12.0325  -17.6131   24.6113 C   0  0  0  0  0  0  0  0  0  0  0  0
   13.0410  -18.3258   24.8519 O   0  0  0  0  0  0  0  0  0  0  0  0
   10.9412  -17.5857   30.6945 N   0  0  0  0  0  0  0  0  0  0  0  0
   11.0743  -16.2628   30.2178 C   0  0  0  0  0  0  0  0  0  0  0  0
   11.3023  -15.3225   30.9916 O   0  0  0  0  0  0  0  0  0  0  0  0
   10.9380  -16.0000   28.7662 C   0  0  0  0  0  0  0  0  0  0  0  0
   10.4735  -17.2316   28.0438 C   0  0  0  0  0  0  0  0  0  0  0  0
   11.5522  -17.6685   27.0826 C   0  0  2  0  0  0  0  0  0  0  0  0
   11.2878  -17.1808   25.7682 N   0  0  0  0  0  0  0  0  0  0  0  0
   11.6604  -19.1429   27.1515 C   0  0  0  0  0  0  0  0  0  0  0  0
   11.1184  -19.9286   26.3499 O   0  0  0  0  0  0  0  0  0  0  0  0
   12.4189  -19.6790   28.1817 O   0  0  0  0  0  0  0  0  0  0  0  0
  2  1  1  0
  3  2  2  0
  4  3  1  0
  5  4  2  0
  5 11  1  0
  6  5  1  0
  7  9  1  0
  7  6  1  0
  7  8  1  1
  9 10  2  0
 11 12  2  0
 12  2  1  0
 13 14  1  0
 14 16  1  0
 14 15  2  0
 17 16  1  6
 18 17  1  0
 18  9  1  0
 19 17  1  0
 19 20  2  0
 21 22  1  0
 22 24  1  0
 22 23  2  0
 24 25  1  0
 26 25  1  1
 26 27  1  0
 26 28  1  0
 27 19  1  0
 28 29  2  0
 28 30  1  0
M  END
$$$$
