YNQ.pdb
     RDKit          3D

 30 30  0  0  1  0  0  0  0  0999 V2000
    7.5194  -14.0863   16.4864 O   0  0  0  0  0  0  0  0  0  0  0  0
    7.7470  -13.9203   17.8371 C   0  0  0  0  0  0  0  0  0  0  0  0
    8.8097  -13.1654   18.2871 C   0  0  0  0  0  0  0  0  0  0  0  0
    9.0163  -13.0143   19.6440 C   0  0  0  0  0  0  0  0  0  0  0  0
    8.1446  -13.6293   20.5304 C   0  0  0  0  0  0  0  0  0  0  0  0
    8.3933  -13.4481   21.9669 C   0  0  0  0  0  0  0  0  0  0  0  0
    8.6934  -14.7660   22.6495 C   0  0  2  0  0  0  0  0  0  0  0  0
    7.6414  -15.6847   22.2855 N   0  0  0  0  0  0  0  0  0  0  0  0
    8.6860  -14.5459   24.0999 C   0  0  0  0  0  0  0  0  0  0  0  0
    9.5584  -13.8102   24.6300 O   0  0  0  0  0  0  0  0  0  0  0  0
    7.0799  -14.3857   20.0875 C   0  0  0  0  0  0  0  0  0  0  0  0
    6.8795  -14.5324   18.7230 C   0  0  0  0  0  0  0  0  0  0  0  0
    5.3433  -12.1645   26.1227 N   0  0  0  0  0  0  0  0  0  0  0  0
    6.5260  -12.7513   26.6349 C   0  0  0  0  0  0  0  0  0  0  0  0
    7.5207  -11.9954   26.8166 O   0  0  0  0  0  0  0  0  0  0  0  0
    6.5270  -14.1915   26.9224 C   0  0  0  0  0  0  0  0  0  0  0  0
    7.7349  -14.9054   26.3947 C   0  0  2  0  0  0  0  0  0  0  0  0
    7.7395  -15.1167   24.9879 N   0  0  0  0  0  0  0  0  0  0  0  0
    7.9374  -16.2161   27.0643 C   0  0  0  0  0  0  0  0  0  0  0  0
    7.0722  -16.7284   27.8205 O   0  0  0  0  0  0  0  0  0  0  0  0
    6.8824  -19.1010   23.0321 N   0  0  0  0  0  0  0  0  0  0  0  0
    6.7149  -19.9884   24.1181 C   0  0  0  0  0  0  0  0  0  0  0  0
    5.9194  -20.9360   24.0548 O   0  0  0  0  0  0  0  0  0  0  0  0
    7.5067  -19.7782   25.3526 C   0  0  0  0  0  0  0  0  0  0  0  0
    8.3817  -18.5649   25.2233 C   0  0  0  0  0  0  0  0  0  0  0  0
    9.1314  -18.3648   26.5179 C   0  0  2  0  0  0  0  0  0  0  0  0
    9.1434  -16.9874   26.8892 N   0  0  0  0  0  0  0  0  0  0  0  0
   10.4848  -18.9425   26.3600 C   0  0  0  0  0  0  0  0  0  0  0  0
   10.8531  -20.0241   26.8583 O   0  0  0  0  0  0  0  0  0  0  0  0
   11.4002  -18.2249   25.6042 O   0  0  0  0  0  0  0  0  0  0  0  0
  2  1  1  0
  3  2  2  0
  4  3  1  0
  5  4  2  0
  5 11  1  0
  6  5  1  0
  7  9  1  0
  7  6  1  0
  7  8  1  1
  9 10  2  0
 11 12  2  0
 12  2  1  0
 13 14  1  0
 14 16  1  0
 14 15  2  0
 17 16  1  1
 18 17  1  0
 18  9  1  0
 19 17  1  0
 19 20  2  0
 21 22  1  0
 22 24  1  0
 22 23  2  0
 24 25  1  0
 26 25  1  6
 26 27  1  0
 26 28  1  0
 27 19  1  0
 28 29  2  0
 28 30  1  0
M  END
$$$$
