APW.pdb
     RDKit          3D

 27 29  0  0  1  0  0  0  0  0999 V2000
    7.6518  -19.5109   21.8737 C   0  0  0  0  0  0  0  0  0  0  0  0
    7.9315  -18.6096   20.6738 C   0  0  2  0  0  0  0  0  0  0  0  0
    8.5538  -19.4067   19.6811 N   0  0  0  0  0  0  0  0  0  0  0  0
    8.6334  -17.4097   21.1106 C   0  0  0  0  0  0  0  0  0  0  0  0
    9.9156  -17.5002   21.0871 O   0  0  0  0  0  0  0  0  0  0  0  0
    8.0843  -16.1879   21.5467 N   0  0  0  0  0  0  0  0  0  0  0  0
    6.7030  -15.8096   21.7441 C   0  0  0  0  0  0  0  0  0  0  0  0
    6.7153  -14.3770   21.1847 C   0  0  0  0  0  0  0  0  0  0  0  0
    7.9269  -13.8303   21.9082 C   0  0  0  0  0  0  0  0  0  0  0  0
    8.8554  -14.9929   21.9164 C   0  0  1  0  0  0  0  0  0  0  0  0
    9.5265  -15.1956   23.2251 C   0  0  0  0  0  0  0  0  0  0  0  0
   10.3286  -14.3109   23.6156 O   0  0  0  0  0  0  0  0  0  0  0  0
    9.3197  -16.3186   24.0571 N   0  0  0  0  0  0  0  0  0  0  0  0
    9.9561  -16.4308   25.3927 C   0  0  1  0  0  0  0  0  0  0  0  0
    8.8688  -16.5627   26.3982 C   0  0  0  0  0  0  0  0  0  0  0  0
    7.7531  -15.6144   26.2778 C   0  0  0  0  0  0  0  0  0  0  0  0
    6.4461  -15.9481   25.8763 C   0  0  0  0  0  0  0  0  0  0  0  0
    5.6963  -14.8389   25.8430 N   0  0  0  0  0  0  0  0  0  0  0  0
    6.4278  -13.7661   26.2028 C   0  0  0  0  0  0  0  0  0  0  0  0
    6.0930  -12.4354   26.3335 C   0  0  0  0  0  0  0  0  0  0  0  0
    7.0673  -11.5366   26.7538 C   0  0  0  0  0  0  0  0  0  0  0  0
    8.3424  -11.9946   27.0293 C   0  0  0  0  0  0  0  0  0  0  0  0
    8.6609  -13.3237   26.8934 C   0  0  0  0  0  0  0  0  0  0  0  0
    7.6965  -14.2471   26.4710 C   0  0  0  0  0  0  0  0  0  0  0  0
   10.8894  -17.5498   25.4030 C   0  0  0  0  0  0  0  0  0  0  0  0
   11.0093  -18.3608   24.2659 O   0  0  0  0  0  0  0  0  0  0  0  0
   11.6208  -17.8664   26.3681 O   0  0  0  0  0  0  0  0  0  0  0  0
  2  4  1  0
  2  1  1  1
  3  2  1  0
  4  6  1  0
  5  4  2  0
  6  7  1  0
  6 10  1  0
  7  8  1  0
  9  8  1  0
 10  9  1  0
 11 13  1  0
 10 11  1  1
 12 11  2  0
 14 15  1  1
 14 13  1  0
 15 16  1  0
 16 17  2  0
 18 17  1  0
 19 18  1  0
 20 19  2  0
 21 20  1  0
 22 21  2  0
 22 23  1  0
 23 24  2  0
 24 19  1  0
 24 16  1  0
 25 14  1  0
 25 26  1  0
 27 25  2  0
M  END
$$$$
