APW.pdb
     RDKit          3D

 27 29  0  0  1  0  0  0  0  0999 V2000
    9.1758  -12.6174   19.3098 C   0  0  0  0  0  0  0  0  0  0  0  0
    7.9731  -13.5270   19.0727 C   0  0  2  0  0  0  0  0  0  0  0  0
    6.8309  -12.6967   18.9537 N   0  0  0  0  0  0  0  0  0  0  0  0
    7.9401  -14.5755   20.0840 C   0  0  0  0  0  0  0  0  0  0  0  0
    7.2921  -14.2704   21.1517 O   0  0  0  0  0  0  0  0  0  0  0  0
    8.5225  -15.8571   20.0312 N   0  0  0  0  0  0  0  0  0  0  0  0
    9.2920  -16.4837   18.9799 C   0  0  0  0  0  0  0  0  0  0  0  0
    8.7257  -17.9129   19.0227 C   0  0  0  0  0  0  0  0  0  0  0  0
    8.8185  -18.1803   20.5094 C   0  0  0  0  0  0  0  0  0  0  0  0
    8.4652  -16.8620   21.1018 C   0  0  1  0  0  0  0  0  0  0  0  0
    9.3519  -16.4700   22.2262 C   0  0  0  0  0  0  0  0  0  0  0  0
   10.4815  -15.9975   21.9445 O   0  0  0  0  0  0  0  0  0  0  0  0
    9.0054  -16.5947   23.5902 N   0  0  0  0  0  0  0  0  0  0  0  0
    9.9583  -16.2511   24.6742 C   0  0  1  0  0  0  0  0  0  0  0  0
    9.7077  -14.8374   25.0606 C   0  0  0  0  0  0  0  0  0  0  0  0
    8.3215  -14.4932   25.4049 C   0  0  0  0  0  0  0  0  0  0  0  0
    7.2202  -15.3629   25.2973 C   0  0  0  0  0  0  0  0  0  0  0  0
    6.1063  -14.7139   25.6600 N   0  0  0  0  0  0  0  0  0  0  0  0
    6.3945  -13.4451   26.0102 C   0  0  0  0  0  0  0  0  0  0  0  0
    5.5933  -12.4189   26.4629 C   0  0  0  0  0  0  0  0  0  0  0  0
    6.1802  -11.1979   26.7766 C   0  0  0  0  0  0  0  0  0  0  0  0
    7.5459  -11.0412   26.6283 C   0  0  0  0  0  0  0  0  0  0  0  0
    8.3308  -12.0730   26.1752 C   0  0  0  0  0  0  0  0  0  0  0  0
    7.7619  -13.3113   25.8524 C   0  0  0  0  0  0  0  0  0  0  0  0
    9.8062  -17.1866   25.7809 C   0  0  0  0  0  0  0  0  0  0  0  0
    8.8589  -18.2160   25.6911 O   0  0  0  0  0  0  0  0  0  0  0  0
   10.4667  -17.1557   26.8437 O   0  0  0  0  0  0  0  0  0  0  0  0
  2  4  1  0
  2  1  1  1
  3  2  1  0
  4  6  1  0
  5  4  2  0
  6  7  1  0
  6 10  1  0
  7  8  1  0
  9  8  1  0
 10  9  1  0
 11 13  1  0
 10 11  1  1
 12 11  2  0
 14 15  1  1
 14 13  1  0
 15 16  1  0
 16 17  2  0
 18 17  1  0
 19 18  1  0
 20 19  2  0
 21 20  1  0
 22 21  2  0
 22 23  1  0
 23 24  2  0
 24 19  1  0
 24 16  1  0
 25 14  1  0
 25 26  1  0
 27 25  2  0
M  END
$$$$
