APW.pdb
     RDKit          3D

 27 29  0  0  1  0  0  0  0  0999 V2000
    6.5728  -18.9598   22.0167 C   0  0  0  0  0  0  0  0  0  0  0  0
    7.0286  -18.3172   20.7093 C   0  0  2  0  0  0  0  0  0  0  0  0
    7.4528  -19.3608   19.8496 N   0  0  0  0  0  0  0  0  0  0  0  0
    7.9785  -17.2484   20.9893 C   0  0  0  0  0  0  0  0  0  0  0  0
    9.2098  -17.6175   21.0111 O   0  0  0  0  0  0  0  0  0  0  0  0
    7.7124  -15.8869   21.2341 N   0  0  0  0  0  0  0  0  0  0  0  0
    6.4484  -15.1955   21.3536 C   0  0  0  0  0  0  0  0  0  0  0  0
    6.7587  -13.8964   20.5913 C   0  0  0  0  0  0  0  0  0  0  0  0
    8.0718  -13.5237   21.2450 C   0  0  0  0  0  0  0  0  0  0  0  0
    8.7286  -14.8449   21.4368 C   0  0  1  0  0  0  0  0  0  0  0  0
    9.3627  -14.9942   22.7708 C   0  0  0  0  0  0  0  0  0  0  0  0
   10.0433  -14.0324   23.2071 O   0  0  0  0  0  0  0  0  0  0  0  0
    9.2486  -16.1477   23.5788 N   0  0  0  0  0  0  0  0  0  0  0  0
    9.8437  -16.2142   24.9362 C   0  0  1  0  0  0  0  0  0  0  0  0
    8.7344  -16.4304   25.9024 C   0  0  0  0  0  0  0  0  0  0  0  0
    7.6576  -15.4310   25.8906 C   0  0  0  0  0  0  0  0  0  0  0  0
    6.3133  -15.6924   25.5658 C   0  0  0  0  0  0  0  0  0  0  0  0
    5.6143  -14.5514   25.6221 N   0  0  0  0  0  0  0  0  0  0  0  0
    6.4159  -13.5258   25.9700 C   0  0  0  0  0  0  0  0  0  0  0  0
    6.1512  -12.1878   26.1701 C   0  0  0  0  0  0  0  0  0  0  0  0
    7.1908  -11.3488   26.5558 C   0  0  0  0  0  0  0  0  0  0  0  0
    8.4589  -11.8716   26.7291 C   0  0  0  0  0  0  0  0  0  0  0  0
    8.7070  -13.2069   26.5251 C   0  0  0  0  0  0  0  0  0  0  0  0
    7.6760  -14.0710   26.1356 C   0  0  0  0  0  0  0  0  0  0  0  0
   10.8582  -17.2592   24.9803 C   0  0  0  0  0  0  0  0  0  0  0  0
   11.7019  -17.3574   26.0955 O   0  0  0  0  0  0  0  0  0  0  0  0
   11.0541  -18.1087   24.0822 O   0  0  0  0  0  0  0  0  0  0  0  0
  2  4  1  0
  2  1  1  1
  3  2  1  0
  4  6  1  0
  5  4  2  0
  6  7  1  0
  6 10  1  0
  7  8  1  0
  9  8  1  0
 10  9  1  0
 11 13  1  0
 10 11  1  1
 12 11  2  0
 14 15  1  1
 14 13  1  0
 15 16  1  0
 16 17  2  0
 18 17  1  0
 19 18  1  0
 20 19  2  0
 21 20  1  0
 22 21  2  0
 22 23  1  0
 23 24  2  0
 24 19  1  0
 24 16  1  0
 25 14  1  0
 25 26  1  0
 27 25  2  0
M  END
$$$$
