APW.pdb
     RDKit          3D

 27 29  0  0  1  0  0  0  0  0999 V2000
    7.3856  -12.6255   19.1159 C   0  0  0  0  0  0  0  0  0  0  0  0
    8.6185  -13.4829   19.3897 C   0  0  2  0  0  0  0  0  0  0  0  0
    9.0233  -14.0494   18.1554 N   0  0  0  0  0  0  0  0  0  0  0  0
    8.3496  -14.3961   20.4929 C   0  0  0  0  0  0  0  0  0  0  0  0
    7.9521  -13.8271   21.5751 O   0  0  0  0  0  0  0  0  0  0  0  0
    8.4714  -15.7994   20.5132 N   0  0  0  0  0  0  0  0  0  0  0  0
    8.9589  -16.7031   19.4954 C   0  0  0  0  0  0  0  0  0  0  0  0
    7.9513  -17.8572   19.6302 C   0  0  0  0  0  0  0  0  0  0  0  0
    7.9923  -18.0587   21.1296 C   0  0  0  0  0  0  0  0  0  0  0  0
    8.1141  -16.6677   21.6435 C   0  0  1  0  0  0  0  0  0  0  0  0
    9.1122  -16.5330   22.7342 C   0  0  0  0  0  0  0  0  0  0  0  0
   10.2998  -16.2773   22.4135 O   0  0  0  0  0  0  0  0  0  0  0  0
    8.8106  -16.6738   24.1074 N   0  0  0  0  0  0  0  0  0  0  0  0
    9.8625  -16.6003   25.1511 C   0  0  1  0  0  0  0  0  0  0  0  0
    9.6493  -15.3428   25.9153 C   0  0  0  0  0  0  0  0  0  0  0  0
    8.2680  -14.8463   25.9784 C   0  0  0  0  0  0  0  0  0  0  0  0
    7.1143  -15.6470   25.8846 C   0  0  0  0  0  0  0  0  0  0  0  0
    6.0276  -14.8665   25.9452 N   0  0  0  0  0  0  0  0  0  0  0  0
    6.3840  -13.5738   26.0765 C   0  0  0  0  0  0  0  0  0  0  0  0
    5.6292  -12.4266   26.1957 C   0  0  0  0  0  0  0  0  0  0  0  0
    6.2809  -11.2073   26.3447 C   0  0  0  0  0  0  0  0  0  0  0  0
    7.6628  -11.1727   26.3698 C   0  0  0  0  0  0  0  0  0  0  0  0
    8.4011  -12.3245   26.2489 C   0  0  0  0  0  0  0  0  0  0  0  0
    7.7668  -13.5638   26.0972 C   0  0  0  0  0  0  0  0  0  0  0  0
    9.8170  -17.7953   25.9836 C   0  0  0  0  0  0  0  0  0  0  0  0
   10.8383  -18.0285   26.9151 O   0  0  0  0  0  0  0  0  0  0  0  0
    8.9180  -18.6652   25.9432 O   0  0  0  0  0  0  0  0  0  0  0  0
  2  4  1  0
  2  1  1  6
  3  2  1  0
  4  6  1  0
  5  4  2  0
  6  7  1  0
  6 10  1  0
  7  8  1  0
  9  8  1  0
 10  9  1  0
 11 13  1  0
 10 11  1  1
 12 11  2  0
 14 15  1  1
 14 13  1  0
 15 16  1  0
 16 17  2  0
 18 17  1  0
 19 18  1  0
 20 19  2  0
 21 20  1  0
 22 21  2  0
 22 23  1  0
 23 24  2  0
 24 19  1  0
 24 16  1  0
 25 14  1  0
 25 26  1  0
 27 25  2  0
M  END
$$$$
