APW.pdb
     RDKit          3D

 27 29  0  0  1  0  0  0  0  0999 V2000
    5.0001  -17.7655   22.0323 C   0  0  0  0  0  0  0  0  0  0  0  0
    5.8483  -17.6231   20.7711 C   0  0  2  0  0  0  0  0  0  0  0  0
    5.9210  -18.9010   20.1629 N   0  0  0  0  0  0  0  0  0  0  0  0
    7.1047  -16.9591   21.0935 C   0  0  0  0  0  0  0  0  0  0  0  0
    8.0275  -17.7406   21.5298 O   0  0  0  0  0  0  0  0  0  0  0  0
    7.4206  -15.5905   20.9860 N   0  0  0  0  0  0  0  0  0  0  0  0
    6.5767  -14.4677   20.6437 C   0  0  0  0  0  0  0  0  0  0  0  0
    7.5243  -13.6618   19.7394 C   0  0  0  0  0  0  0  0  0  0  0  0
    8.7599  -13.6459   20.6133 C   0  0  0  0  0  0  0  0  0  0  0  0
    8.7461  -15.0025   21.2242 C   0  0  1  0  0  0  0  0  0  0  0  0
    9.0534  -14.9926   22.6766 C   0  0  0  0  0  0  0  0  0  0  0  0
    8.6267  -14.0280   23.3593 O   0  0  0  0  0  0  0  0  0  0  0  0
    9.7939  -15.9980   23.3376 N   0  0  0  0  0  0  0  0  0  0  0  0
   10.3641  -15.7878   24.6912 C   0  0  1  0  0  0  0  0  0  0  0  0
    9.3741  -16.2936   25.6785 C   0  0  0  0  0  0  0  0  0  0  0  0
    8.1034  -15.5606   25.7594 C   0  0  0  0  0  0  0  0  0  0  0  0
    6.8347  -16.1063   25.4884 C   0  0  0  0  0  0  0  0  0  0  0  0
    5.9042  -15.1528   25.6251 N   0  0  0  0  0  0  0  0  0  0  0  0
    6.4763  -13.9847   25.9766 C   0  0  0  0  0  0  0  0  0  0  0  0
    5.9329  -12.7464   26.2443 C   0  0  0  0  0  0  0  0  0  0  0  0
    6.7802  -11.7079   26.6145 C   0  0  0  0  0  0  0  0  0  0  0  0
    8.1403  -11.9386   26.7055 C   0  0  0  0  0  0  0  0  0  0  0  0
    8.6668  -13.1779   26.4347 C   0  0  0  0  0  0  0  0  0  0  0  0
    7.8332  -14.2388   26.0594 C   0  0  0  0  0  0  0  0  0  0  0  0
   11.6615  -16.4439   24.7882 C   0  0  0  0  0  0  0  0  0  0  0  0
   12.4156  -16.3147   25.9629 O   0  0  0  0  0  0  0  0  0  0  0  0
   12.1850  -17.1375   23.8874 O   0  0  0  0  0  0  0  0  0  0  0  0
  2  4  1  0
  2  1  1  1
  3  2  1  0
  4  6  1  0
  5  4  2  0
  6  7  1  0
  6 10  1  0
  7  8  1  0
  9  8  1  0
 10  9  1  0
 11 13  1  0
 10 11  1  1
 12 11  2  0
 14 15  1  1
 14 13  1  0
 15 16  1  0
 16 17  2  0
 18 17  1  0
 19 18  1  0
 20 19  2  0
 21 20  1  0
 22 21  2  0
 22 23  1  0
 23 24  2  0
 24 19  1  0
 24 16  1  0
 25 14  1  0
 25 26  1  0
 27 25  2  0
M  END
$$$$
