APW.pdb
     RDKit          3D

 27 29  0  0  1  0  0  0  0  0999 V2000
    8.5746  -12.4851   19.8063 C   0  0  0  0  0  0  0  0  0  0  0  0
    7.8116  -13.7290   19.3586 C   0  0  2  0  0  0  0  0  0  0  0  0
    6.4906  -13.3249   19.0422 N   0  0  0  0  0  0  0  0  0  0  0  0
    7.9726  -14.7888   20.3455 C   0  0  0  0  0  0  0  0  0  0  0  0
    7.2056  -14.6864   21.3722 O   0  0  0  0  0  0  0  0  0  0  0  0
    8.8513  -15.8893   20.3083 N   0  0  0  0  0  0  0  0  0  0  0  0
    9.8182  -16.2708   19.3035 C   0  0  0  0  0  0  0  0  0  0  0  0
    9.6148  -17.7949   19.2738 C   0  0  0  0  0  0  0  0  0  0  0  0
    9.6708  -18.0895   20.7572 C   0  0  0  0  0  0  0  0  0  0  0  0
    8.9691  -16.9191   21.3500 C   0  0  1  0  0  0  0  0  0  0  0  0
    9.6571  -16.3688   22.5450 C   0  0  0  0  0  0  0  0  0  0  0  0
   10.5444  -15.4984   22.3613 O   0  0  0  0  0  0  0  0  0  0  0  0
    9.3768  -16.7618   23.8728 N   0  0  0  0  0  0  0  0  0  0  0  0
   10.1620  -16.2496   25.0228 C   0  0  1  0  0  0  0  0  0  0  0  0
    9.7701  -14.8315   25.2376 C   0  0  0  0  0  0  0  0  0  0  0  0
    8.3571  -14.5885   25.5581 C   0  0  0  0  0  0  0  0  0  0  0  0
    7.3326  -15.5507   25.4842 C   0  0  0  0  0  0  0  0  0  0  0  0
    6.1654  -14.9808   25.8107 N   0  0  0  0  0  0  0  0  0  0  0  0
    6.3444  -13.6781   26.1043 C   0  0  0  0  0  0  0  0  0  0  0  0
    5.4568  -12.7026   26.5053 C   0  0  0  0  0  0  0  0  0  0  0  0
    5.9377  -11.4242   26.7662 C   0  0  0  0  0  0  0  0  0  0  0  0
    7.2870  -11.1614   26.6186 C   0  0  0  0  0  0  0  0  0  0  0  0
    8.1589  -12.1438   26.2173 C   0  0  0  0  0  0  0  0  0  0  0  0
    7.6975  -13.4383   25.9482 C   0  0  0  0  0  0  0  0  0  0  0  0
    9.9369  -17.0927   26.1896 C   0  0  0  0  0  0  0  0  0  0  0  0
    9.0748  -18.1937   26.0914 O   0  0  0  0  0  0  0  0  0  0  0  0
   10.4606  -16.9193   27.3131 O   0  0  0  0  0  0  0  0  0  0  0  0
  2  4  1  0
  2  1  1  1
  3  2  1  0
  4  6  1  0
  5  4  2  0
  6  7  1  0
  6 10  1  0
  7  8  1  0
  9  8  1  0
 10  9  1  0
 11 13  1  0
 10 11  1  1
 12 11  2  0
 14 15  1  1
 14 13  1  0
 15 16  1  0
 16 17  2  0
 18 17  1  0
 19 18  1  0
 20 19  2  0
 21 20  1  0
 22 21  2  0
 22 23  1  0
 23 24  2  0
 24 19  1  0
 24 16  1  0
 25 14  1  0
 25 26  1  0
 27 25  2  0
M  END
$$$$
