APW.pdb
     RDKit          3D

 27 29  0  0  1  0  0  0  0  0999 V2000
    9.7970  -12.9652   19.0805 C   0  0  0  0  0  0  0  0  0  0  0  0
    8.3920  -13.5428   18.9306 C   0  0  2  0  0  0  0  0  0  0  0  0
    7.4918  -12.4514   18.8479 N   0  0  0  0  0  0  0  0  0  0  0  0
    8.1525  -14.5349   19.9707 C   0  0  0  0  0  0  0  0  0  0  0  0
    7.4925  -14.1000   20.9847 O   0  0  0  0  0  0  0  0  0  0  0  0
    8.5506  -15.8859   19.9958 N   0  0  0  0  0  0  0  0  0  0  0  0
    9.2681  -16.6601   19.0079 C   0  0  0  0  0  0  0  0  0  0  0  0
    8.5051  -17.9936   19.0790 C   0  0  0  0  0  0  0  0  0  0  0  0
    8.4966  -18.2037   20.5777 C   0  0  0  0  0  0  0  0  0  0  0  0
    8.3076  -16.8237   21.1006 C   0  0  1  0  0  0  0  0  0  0  0  0
    9.1923  -16.5080   22.2503 C   0  0  0  0  0  0  0  0  0  0  0  0
   10.2614  -15.8913   22.0150 O   0  0  0  0  0  0  0  0  0  0  0  0
    8.9077  -16.8568   23.5896 N   0  0  0  0  0  0  0  0  0  0  0  0
    9.8219  -16.5002   24.7023 C   0  0  1  0  0  0  0  0  0  0  0  0
    9.6174  -15.0594   25.0069 C   0  0  0  0  0  0  0  0  0  0  0  0
    8.2760  -14.6760   25.4674 C   0  0  0  0  0  0  0  0  0  0  0  0
    7.1613  -15.5336   25.5190 C   0  0  0  0  0  0  0  0  0  0  0  0
    6.0955  -14.8489   25.9535 N   0  0  0  0  0  0  0  0  0  0  0  0
    6.4293  -13.5673   26.2014 C   0  0  0  0  0  0  0  0  0  0  0  0
    5.6872  -12.5058   26.6732 C   0  0  0  0  0  0  0  0  0  0  0  0
    6.3142  -11.2784   26.8578 C   0  0  0  0  0  0  0  0  0  0  0  0
    7.6595  -11.1506   26.5659 C   0  0  0  0  0  0  0  0  0  0  0  0
    8.3854  -12.2175   26.0957 C   0  0  0  0  0  0  0  0  0  0  0  0
    7.7753  -13.4630   25.9012 C   0  0  0  0  0  0  0  0  0  0  0  0
    9.5744  -17.3713   25.8438 C   0  0  0  0  0  0  0  0  0  0  0  0
   10.4898  -17.3976   26.9051 O   0  0  0  0  0  0  0  0  0  0  0  0
    8.5841  -18.1264   25.9699 O   0  0  0  0  0  0  0  0  0  0  0  0
  2  4  1  0
  2  1  1  1
  3  2  1  0
  4  6  1  0
  5  4  2  0
  6  7  1  0
  6 10  1  0
  7  8  1  0
  9  8  1  0
 10  9  1  0
 11 13  1  0
 10 11  1  1
 12 11  2  0
 14 15  1  1
 14 13  1  0
 15 16  1  0
 16 17  2  0
 18 17  1  0
 19 18  1  0
 20 19  2  0
 21 20  1  0
 22 21  2  0
 22 23  1  0
 23 24  2  0
 24 19  1  0
 24 16  1  0
 25 14  1  0
 25 26  1  0
 27 25  2  0
M  END
$$$$
