APW.pdb
     RDKit          3D

 27 29  0  0  1  0  0  0  0  0999 V2000
    6.7031  -19.4665   21.9859 C   0  0  0  0  0  0  0  0  0  0  0  0
    7.1450  -18.7884   20.6918 C   0  0  2  0  0  0  0  0  0  0  0  0
    7.5929  -19.8052   19.8121 N   0  0  0  0  0  0  0  0  0  0  0  0
    8.0708  -17.7043   20.9936 C   0  0  0  0  0  0  0  0  0  0  0  0
    9.3114  -18.0416   20.9882 O   0  0  0  0  0  0  0  0  0  0  0  0
    7.7730  -16.3586   21.2848 N   0  0  0  0  0  0  0  0  0  0  0  0
    6.4968  -15.7201   21.5166 C   0  0  0  0  0  0  0  0  0  0  0  0
    6.6957  -14.3975   20.7574 C   0  0  0  0  0  0  0  0  0  0  0  0
    8.0412  -13.9835   21.3129 C   0  0  0  0  0  0  0  0  0  0  0  0
    8.7613  -15.2805   21.4269 C   0  0  1  0  0  0  0  0  0  0  0  0
    9.5045  -15.4261   22.7039 C   0  0  0  0  0  0  0  0  0  0  0  0
   10.4972  -14.6794   22.8926 O   0  0  0  0  0  0  0  0  0  0  0  0
    9.1657  -16.3497   23.7181 N   0  0  0  0  0  0  0  0  0  0  0  0
    9.9472  -16.4532   24.9749 C   0  0  1  0  0  0  0  0  0  0  0  0
    9.7351  -15.1961   25.7401 C   0  0  0  0  0  0  0  0  0  0  0  0
    8.3412  -14.8508   26.0501 C   0  0  0  0  0  0  0  0  0  0  0  0
    7.2626  -15.7549   26.0468 C   0  0  0  0  0  0  0  0  0  0  0  0
    6.1329  -15.0977   26.3394 N   0  0  0  0  0  0  0  0  0  0  0  0
    6.3888  -13.7906   26.5427 C   0  0  0  0  0  0  0  0  0  0  0  0
    5.5622  -12.7405   26.8806 C   0  0  0  0  0  0  0  0  0  0  0  0
    6.1179  -11.4774   27.0516 C   0  0  0  0  0  0  0  0  0  0  0  0
    7.4787  -11.3036   26.8798 C   0  0  0  0  0  0  0  0  0  0  0  0
    8.2893  -12.3596   26.5422 C   0  0  0  0  0  0  0  0  0  0  0  0
    7.7520  -13.6406   26.3641 C   0  0  0  0  0  0  0  0  0  0  0  0
    9.5487  -17.6480   25.7077 C   0  0  0  0  0  0  0  0  0  0  0  0
   10.2795  -18.0426   26.8369 O   0  0  0  0  0  0  0  0  0  0  0  0
    8.5790  -18.3821   25.4120 O   0  0  0  0  0  0  0  0  0  0  0  0
  2  4  1  0
  2  1  1  1
  3  2  1  0
  4  6  1  0
  5  4  2  0
  6  7  1  0
  6 10  1  0
  7  8  1  0
  9  8  1  0
 10  9  1  0
 11 13  1  0
 10 11  1  1
 12 11  2  0
 14 15  1  1
 14 13  1  0
 15 16  1  0
 16 17  2  0
 18 17  1  0
 19 18  1  0
 20 19  2  0
 21 20  1  0
 22 21  2  0
 22 23  1  0
 23 24  2  0
 24 19  1  0
 24 16  1  0
 25 14  1  0
 25 26  1  0
 27 25  2  0
M  END
$$$$
