APW.pdb
     RDKit          3D

 27 29  0  0  1  0  0  0  0  0999 V2000
   10.3945  -17.2947   17.5888 C   0  0  0  0  0  0  0  0  0  0  0  0
   10.7847  -15.8225   17.6913 C   0  0  2  0  0  0  0  0  0  0  0  0
   12.1439  -15.7165   17.3046 N   0  0  0  0  0  0  0  0  0  0  0  0
   10.4159  -15.3042   19.0023 C   0  0  0  0  0  0  0  0  0  0  0  0
   11.3720  -15.2902   19.8616 O   0  0  0  0  0  0  0  0  0  0  0  0
    9.1616  -14.8267   19.4302 N   0  0  0  0  0  0  0  0  0  0  0  0
    7.8962  -14.7881   18.7320 C   0  0  0  0  0  0  0  0  0  0  0  0
    7.3731  -13.4074   19.1626 C   0  0  0  0  0  0  0  0  0  0  0  0
    7.5919  -13.5056   20.6569 C   0  0  0  0  0  0  0  0  0  0  0  0
    8.8769  -14.2496   20.7513 C   0  0  1  0  0  0  0  0  0  0  0  0
    8.8619  -15.3129   21.7873 C   0  0  0  0  0  0  0  0  0  0  0  0
    8.7067  -16.5001   21.4063 O   0  0  0  0  0  0  0  0  0  0  0  0
    9.0111  -15.0737   23.1718 N   0  0  0  0  0  0  0  0  0  0  0  0
    9.0950  -16.1833   24.1530 C   0  0  1  0  0  0  0  0  0  0  0  0
    9.0525  -15.5839   25.5130 C   0  0  0  0  0  0  0  0  0  0  0  0
    7.8300  -14.8472   25.8612 C   0  0  0  0  0  0  0  0  0  0  0  0
    6.5277  -15.3804   25.8352 C   0  0  0  0  0  0  0  0  0  0  0  0
    5.6517  -14.4263   26.1755 N   0  0  0  0  0  0  0  0  0  0  0  0
    6.2929  -13.2696   26.4329 C   0  0  0  0  0  0  0  0  0  0  0  0
    5.8250  -12.0357   26.8311 C   0  0  0  0  0  0  0  0  0  0  0  0
    6.7385  -11.0102   27.0493 C   0  0  0  0  0  0  0  0  0  0  0  0
    8.0874  -11.2494   26.8631 C   0  0  0  0  0  0  0  0  0  0  0  0
    8.5382  -12.4842   26.4651 C   0  0  0  0  0  0  0  0  0  0  0  0
    7.6369  -13.5318   26.2387 C   0  0  0  0  0  0  0  0  0  0  0  0
    8.0223  -17.1393   23.9109 C   0  0  0  0  0  0  0  0  0  0  0  0
    8.1622  -18.4624   24.3525 O   0  0  0  0  0  0  0  0  0  0  0  0
    6.9478  -16.8800   23.3235 O   0  0  0  0  0  0  0  0  0  0  0  0
  2  4  1  0
  2  1  1  1
  3  2  1  0
  4  6  1  0
  5  4  2  0
  6  7  1  0
  6 10  1  0
  7  8  1  0
  9  8  1  0
 10  9  1  0
 11 13  1  0
 10 11  1  1
 12 11  2  0
 14 15  1  1
 14 13  1  0
 15 16  1  0
 16 17  2  0
 18 17  1  0
 19 18  1  0
 20 19  2  0
 21 20  1  0
 22 21  2  0
 22 23  1  0
 23 24  2  0
 24 19  1  0
 24 16  1  0
 25 14  1  0
 25 26  1  0
 27 25  2  0
M  END
$$$$
