APW.pdb
     RDKit          3D

 27 29  0  0  1  0  0  0  0  0999 V2000
   10.0061  -13.7328   18.1632 C   0  0  0  0  0  0  0  0  0  0  0  0
    8.4845  -13.8415   18.2164 C   0  0  2  0  0  0  0  0  0  0  0  0
    7.9590  -12.5443   17.9940 N   0  0  0  0  0  0  0  0  0  0  0  0
    8.0811  -14.5308   19.4352 C   0  0  0  0  0  0  0  0  0  0  0  0
    7.7570  -13.7549   20.4077 O   0  0  0  0  0  0  0  0  0  0  0  0
    8.0061  -15.9180   19.6687 N   0  0  0  0  0  0  0  0  0  0  0  0
    8.2536  -17.0244   18.7717 C   0  0  0  0  0  0  0  0  0  0  0  0
    7.1135  -17.9769   19.1697 C   0  0  0  0  0  0  0  0  0  0  0  0
    7.2811  -17.9621   20.6737 C   0  0  0  0  0  0  0  0  0  0  0  0
    7.6496  -16.5469   20.9480 C   0  0  1  0  0  0  0  0  0  0  0  0
    8.7646  -16.4109   21.9189 C   0  0  0  0  0  0  0  0  0  0  0  0
    9.9381  -16.5083   21.4810 O   0  0  0  0  0  0  0  0  0  0  0  0
    8.5886  -16.1792   23.3015 N   0  0  0  0  0  0  0  0  0  0  0  0
    9.7418  -16.0349   24.2238 C   0  0  1  0  0  0  0  0  0  0  0  0
    9.5665  -14.7581   24.9651 C   0  0  0  0  0  0  0  0  0  0  0  0
    8.2062  -14.4587   25.4324 C   0  0  0  0  0  0  0  0  0  0  0  0
    7.1433  -15.3803   25.4755 C   0  0  0  0  0  0  0  0  0  0  0  0
    6.0406  -14.7638   25.9200 N   0  0  0  0  0  0  0  0  0  0  0  0
    6.3000  -13.4680   26.1826 C   0  0  0  0  0  0  0  0  0  0  0  0
    5.4986  -12.4570   26.6682 C   0  0  0  0  0  0  0  0  0  0  0  0
    6.0536  -11.1976   26.8664 C   0  0  0  0  0  0  0  0  0  0  0  0
    7.3886  -10.9884   26.5739 C   0  0  0  0  0  0  0  0  0  0  0  0
    8.1741  -12.0057   26.0897 C   0  0  0  0  0  0  0  0  0  0  0  0
    7.6369  -13.2821   25.8814 C   0  0  0  0  0  0  0  0  0  0  0  0
    9.8268  -17.1999   25.0948 C   0  0  0  0  0  0  0  0  0  0  0  0
   10.9976  -17.4291   25.8309 O   0  0  0  0  0  0  0  0  0  0  0  0
    8.9186  -18.0466   25.2528 O   0  0  0  0  0  0  0  0  0  0  0  0
  2  4  1  0
  2  1  1  1
  3  2  1  0
  4  6  1  0
  5  4  2  0
  6  7  1  0
  6 10  1  0
  7  8  1  0
  9  8  1  0
 10  9  1  0
 11 13  1  0
 10 11  1  1
 12 11  2  0
 14 15  1  1
 14 13  1  0
 15 16  1  0
 16 17  2  0
 18 17  1  0
 19 18  1  0
 20 19  2  0
 21 20  1  0
 22 21  2  0
 22 23  1  0
 23 24  2  0
 24 19  1  0
 24 16  1  0
 25 14  1  0
 25 26  1  0
 27 25  2  0
M  END
$$$$
