APW.pdb
     RDKit          3D

 27 29  0  0  1  0  0  0  0  0999 V2000
    5.9221  -18.5599   22.6613 C   0  0  0  0  0  0  0  0  0  0  0  0
    6.3311  -18.3494   21.2058 C   0  0  2  0  0  0  0  0  0  0  0  0
    6.3746  -19.6246   20.5892 N   0  0  0  0  0  0  0  0  0  0  0  0
    7.5353  -17.5312   21.1447 C   0  0  0  0  0  0  0  0  0  0  0  0
    8.6321  -18.1969   21.0627 O   0  0  0  0  0  0  0  0  0  0  0  0
    7.6373  -16.1263   21.1646 N   0  0  0  0  0  0  0  0  0  0  0  0
    6.6088  -15.1238   21.3299 C   0  0  0  0  0  0  0  0  0  0  0  0
    7.0630  -14.0747   20.3011 C   0  0  0  0  0  0  0  0  0  0  0  0
    8.5235  -13.9597   20.6807 C   0  0  0  0  0  0  0  0  0  0  0  0
    8.8843  -15.3622   21.0222 C   0  0  1  0  0  0  0  0  0  0  0  0
    9.7011  -15.4714   22.2571 C   0  0  0  0  0  0  0  0  0  0  0  0
   10.8933  -15.0782   22.2078 O   0  0  0  0  0  0  0  0  0  0  0  0
    9.2223  -15.9885   23.4817 N   0  0  0  0  0  0  0  0  0  0  0  0
   10.0840  -16.0709   24.6867 C   0  0  1  0  0  0  0  0  0  0  0  0
    9.7685  -14.8985   25.5450 C   0  0  0  0  0  0  0  0  0  0  0  0
    8.3431  -14.6176   25.7641 C   0  0  0  0  0  0  0  0  0  0  0  0
    7.2942  -15.5292   25.5414 C   0  0  0  0  0  0  0  0  0  0  0  0
    6.1251  -14.9330   25.8086 N   0  0  0  0  0  0  0  0  0  0  0  0
    6.3259  -13.6604   26.2032 C   0  0  0  0  0  0  0  0  0  0  0  0
    5.4437  -12.6764   26.5949 C   0  0  0  0  0  0  0  0  0  0  0  0
    5.9471  -11.4387   26.9802 C   0  0  0  0  0  0  0  0  0  0  0  0
    7.3127  -11.2238   26.9620 C   0  0  0  0  0  0  0  0  0  0  0  0
    8.1791  -12.2141   26.5683 C   0  0  0  0  0  0  0  0  0  0  0  0
    7.6952  -13.4682   26.1754 C   0  0  0  0  0  0  0  0  0  0  0  0
    9.8761  -17.3481   25.3565 C   0  0  0  0  0  0  0  0  0  0  0  0
    8.8875  -18.2233   24.8854 O   0  0  0  0  0  0  0  0  0  0  0  0
   10.5214  -17.7517   26.3501 O   0  0  0  0  0  0  0  0  0  0  0  0
  2  4  1  0
  2  1  1  1
  3  2  1  0
  4  6  1  0
  5  4  2  0
  6  7  1  0
  6 10  1  0
  7  8  1  0
  9  8  1  0
 10  9  1  0
 11 13  1  0
 10 11  1  1
 12 11  2  0
 14 15  1  1
 14 13  1  0
 15 16  1  0
 16 17  2  0
 18 17  1  0
 19 18  1  0
 20 19  2  0
 21 20  1  0
 22 21  2  0
 22 23  1  0
 23 24  2  0
 24 19  1  0
 24 16  1  0
 25 14  1  0
 25 26  1  0
 27 25  2  0
M  END
$$$$
