KRF.pdb
     RDKit          3D

 32 32  0  0  1  0  0  0  0  0999 V2000
   21.4315  -24.3547  -14.3047 N   0  0  0  0  0  0  0  0  0  0  0  0
   20.6552  -25.2031  -13.4591 C   0  0  1  0  0  0  0  0  0  0  0  0
   21.3453  -26.4488  -13.0474 C   0  0  0  0  0  0  0  0  0  0  0  0
   21.6780  -27.3266  -14.1983 C   0  0  0  0  0  0  0  0  0  0  0  0
   21.0350  -28.6716  -14.2276 C   0  0  0  0  0  0  0  0  0  0  0  0
   21.5964  -29.4976  -15.4147 C   0  0  0  0  0  0  0  0  0  0  0  0
   20.9294  -30.7968  -15.2988 N   0  0  0  0  0  0  0  0  0  0  0  0
   20.1939  -24.3972  -12.2791 C   0  0  0  0  0  0  0  0  0  0  0  0
   21.0584  -23.6500  -11.7336 O   0  0  0  0  0  0  0  0  0  0  0  0
   17.2333  -23.0046  -14.8462 N   0  0  0  0  0  0  0  0  0  0  0  0
   15.8416  -23.2940  -14.9912 C   0  0  0  0  0  0  0  0  0  0  0  0
   15.2911  -23.3644  -16.1630 N   0  0  0  0  0  0  0  0  0  0  0  0
   15.0098  -23.5152  -13.8606 N   0  0  0  0  0  0  0  0  0  0  0  0
   15.4896  -23.3480  -12.5198 C   0  0  0  0  0  0  0  0  0  0  0  0
   16.9075  -22.8002  -12.4433 C   0  0  0  0  0  0  0  0  0  0  0  0
   17.3799  -22.7354  -11.0265 C   0  0  0  0  0  0  0  0  0  0  0  0
   18.4651  -23.6880  -10.6644 C   0  0  2  0  0  0  0  0  0  0  0  0
   18.8662  -24.4792  -11.8156 N   0  0  0  0  0  0  0  0  0  0  0  0
   18.0784  -24.5557   -9.5338 C   0  0  0  0  0  0  0  0  0  0  0  0
   17.5306  -25.6640   -9.7348 O   0  0  0  0  0  0  0  0  0  0  0  0
   14.2567  -23.4637  -16.1970 N   0  0  0  0  0  0  0  0  0  0  0  0
   18.2990  -24.1945   -8.1892 C   0  0  2  0  0  0  0  0  0  0  0  0
   17.9111  -25.0809   -7.1118 C   0  0  0  0  0  0  0  0  0  0  0  0
   18.5815  -24.7435   -5.8297 C   0  0  0  0  0  0  0  0  0  0  0  0
   18.0375  -25.5458   -4.7218 C   0  0  0  0  0  0  0  0  0  0  0  0
   18.7342  -26.6861   -4.3659 C   0  0  0  0  0  0  0  0  0  0  0  0
   18.2619  -27.4340   -3.3140 C   0  0  0  0  0  0  0  0  0  0  0  0
   17.1277  -27.0740   -2.6213 C   0  0  0  0  0  0  0  0  0  0  0  0
   16.4089  -25.9335   -2.9579 C   0  0  0  0  0  0  0  0  0  0  0  0
   16.9038  -25.2015   -4.0158 C   0  0  0  0  0  0  0  0  0  0  0  0
   16.4499  -24.9688   -6.9774 O   0  0  0  0  0  0  0  0  0  0  0  0
   15.6832  -26.0670   -6.6448 O   0  0  0  0  0  0  0  0  0  0  0  0
  2  3  1  0
  2  1  1  1
  4  3  1  0
  5  6  1  0
  5  4  1  0
  7  6  1  0
  8  2  1  0
  9  8  2  0
 10 11  1  0
 11 13  1  0
 11 12  2  0
 13 14  1  0
 14 15  1  0
 15 16  1  0
 17 16  1  6
 17 19  1  0
 17 18  1  0
 18  8  1  0
 19 21  1  0
 20 19  2  0
 21 22  1  0
 22 23  1  1
 23 24  1  0
 24 29  2  0
 25 24  1  0
 25 26  2  0
 26 27  1  0
 27 28  2  0
 29 28  1  0
 30 31  1  0
 30 22  1  0
 32 30  2  0
M  END
$$$$
