KRF.pdb
     RDKit          3D

 32 32  0  0  1  0  0  0  0  0999 V2000
   28.3467  -19.6671  -17.1876 N   0  0  0  0  0  0  0  0  0  0  0  0
   27.3438  -20.6742  -17.3189 C   0  0  1  0  0  0  0  0  0  0  0  0
   27.7679  -21.8569  -18.1056 C   0  0  0  0  0  0  0  0  0  0  0  0
   28.1704  -21.5085  -19.4921 C   0  0  0  0  0  0  0  0  0  0  0  0
   29.6277  -21.3151  -19.7420 C   0  0  0  0  0  0  0  0  0  0  0  0
   29.8594  -20.9163  -21.2232 C   0  0  0  0  0  0  0  0  0  0  0  0
   31.3109  -20.7498  -21.3302 N   0  0  0  0  0  0  0  0  0  0  0  0
   26.8716  -21.0507  -15.9443 C   0  0  0  0  0  0  0  0  0  0  0  0
   25.9810  -21.9486  -15.8799 O   0  0  0  0  0  0  0  0  0  0  0  0
   31.5953  -22.6775   -9.6930 N   0  0  0  0  0  0  0  0  0  0  0  0
   30.5106  -21.7903   -9.4143 C   0  0  0  0  0  0  0  0  0  0  0  0
   30.0719  -21.6284   -8.2050 N   0  0  0  0  0  0  0  0  0  0  0  0
   29.8726  -21.0533  -10.4484 N   0  0  0  0  0  0  0  0  0  0  0  0
   30.3683  -21.0467  -11.7937 C   0  0  0  0  0  0  0  0  0  0  0  0
   29.3027  -21.3479  -12.8379 C   0  0  0  0  0  0  0  0  0  0  0  0
   27.9977  -20.7208  -12.4661 C   0  0  0  0  0  0  0  0  0  0  0  0
   26.9177  -20.8269  -13.4852 C   0  0  2  0  0  0  0  0  0  0  0  0
   27.4011  -20.4287  -14.7966 N   0  0  0  0  0  0  0  0  0  0  0  0
   25.7233  -20.0478  -13.1017 C   0  0  0  0  0  0  0  0  0  0  0  0
   25.6369  -18.8294  -13.3789 O   0  0  0  0  0  0  0  0  0  0  0  0
   29.3088  -20.9364   -8.0649 N   0  0  0  0  0  0  0  0  0  0  0  0
   24.6325  -20.6186  -12.4151 C   0  0  1  0  0  0  0  0  0  0  0  0
   23.2738  -20.2311  -12.7325 C   0  0  0  0  0  0  0  0  0  0  0  0
   22.9766  -20.3404  -14.1840 C   0  0  0  0  0  0  0  0  0  0  0  0
   21.5866  -19.9492  -14.4696 C   0  0  0  0  0  0  0  0  0  0  0  0
   20.6686  -20.9670  -14.6535 C   0  0  0  0  0  0  0  0  0  0  0  0
   19.3587  -20.6254  -14.8906 C   0  0  0  0  0  0  0  0  0  0  0  0
   18.9522  -19.3111  -14.9474 C   0  0  0  0  0  0  0  0  0  0  0  0
   19.8534  -18.2692  -14.7663 C   0  0  0  0  0  0  0  0  0  0  0  0
   21.1600  -18.6389  -14.5298 C   0  0  0  0  0  0  0  0  0  0  0  0
   22.3897  -21.1140  -11.9549 O   0  0  0  0  0  0  0  0  0  0  0  0
   21.3104  -20.6037  -11.2628 O   0  0  0  0  0  0  0  0  0  0  0  0
  2  3  1  0
  2  1  1  1
  4  3  1  0
  5  6  1  0
  5  4  1  0
  7  6  1  0
  8  2  1  0
  9  8  2  0
 10 11  1  0
 11 13  1  0
 11 12  2  0
 13 14  1  0
 14 15  1  0
 15 16  1  0
 17 16  1  1
 17 19  1  0
 17 18  1  0
 18  8  1  0
 19 21  1  0
 20 19  2  0
 21 22  1  0
 22 23  1  1
 23 24  1  0
 24 29  2  0
 25 24  1  0
 25 26  2  0
 26 27  1  0
 27 28  2  0
 29 28  1  0
 30 31  1  0
 30 22  1  0
 32 30  2  0
M  END
$$$$
