KRF.pdb
     RDKit          3D

 32 32  0  0  1  0  0  0  0  0999 V2000
   22.5120  -16.3583  -21.2943 N   0  0  0  0  0  0  0  0  0  0  0  0
   23.1130  -16.0779  -20.0303 C   0  0  1  0  0  0  0  0  0  0  0  0
   22.6874  -14.7933  -19.4253 C   0  0  0  0  0  0  0  0  0  0  0  0
   23.2656  -13.6140  -20.1185 C   0  0  0  0  0  0  0  0  0  0  0  0
   22.3716  -12.8809  -21.0603 C   0  0  0  0  0  0  0  0  0  0  0  0
   23.0839  -11.6024  -21.5747 C   0  0  0  0  0  0  0  0  0  0  0  0
   23.4268  -10.8644  -20.3565 N   0  0  0  0  0  0  0  0  0  0  0  0
   22.8575  -17.2431  -19.1185 C   0  0  0  0  0  0  0  0  0  0  0  0
   21.7201  -17.7919  -19.2095 O   0  0  0  0  0  0  0  0  0  0  0  0
   25.5588  -23.5821  -15.6312 N   0  0  0  0  0  0  0  0  0  0  0  0
   24.3338  -23.4496  -14.9079 C   0  0  0  0  0  0  0  0  0  0  0  0
   24.1074  -24.1502  -13.8407 N   0  0  0  0  0  0  0  0  0  0  0  0
   23.3194  -22.5478  -15.3287 N   0  0  0  0  0  0  0  0  0  0  0  0
   23.5865  -21.4773  -16.2444 C   0  0  0  0  0  0  0  0  0  0  0  0
   24.5508  -20.4340  -15.6984 C   0  0  0  0  0  0  0  0  0  0  0  0
   24.7589  -19.3302  -16.6848 C   0  0  0  0  0  0  0  0  0  0  0  0
   23.5220  -18.7648  -17.2904 C   0  0  2  0  0  0  0  0  0  0  0  0
   23.8416  -17.6902  -18.2150 N   0  0  0  0  0  0  0  0  0  0  0  0
   22.5654  -18.3111  -16.2609 C   0  0  0  0  0  0  0  0  0  0  0  0
   22.8565  -17.3715  -15.4856 O   0  0  0  0  0  0  0  0  0  0  0  0
   23.1691  -24.0588  -13.4023 N   0  0  0  0  0  0  0  0  0  0  0  0
   21.2944  -18.8974  -16.0941 C   0  0  2  0  0  0  0  0  0  0  0  0
   20.3831  -18.4120  -15.0787 C   0  0  0  0  0  0  0  0  0  0  0  0
   19.8161  -17.0805  -15.4145 C   0  0  0  0  0  0  0  0  0  0  0  0
   18.8223  -16.6616  -14.4126 C   0  0  0  0  0  0  0  0  0  0  0  0
   19.2960  -16.3058  -13.1630 C   0  0  0  0  0  0  0  0  0  0  0  0
   18.3893  -15.8817  -12.2213 C   0  0  0  0  0  0  0  0  0  0  0  0
   17.0422  -15.8065  -12.4955 C   0  0  0  0  0  0  0  0  0  0  0  0
   16.5395  -16.1578  -13.7424 C   0  0  0  0  0  0  0  0  0  0  0  0
   17.4695  -16.5792  -14.6683 C   0  0  0  0  0  0  0  0  0  0  0  0
   19.3130  -19.4149  -14.9567 O   0  0  0  0  0  0  0  0  0  0  0  0
   18.6344  -19.5849  -13.7672 O   0  0  0  0  0  0  0  0  0  0  0  0
  2  3  1  0
  2  1  1  6
  4  3  1  0
  5  6  1  0
  5  4  1  0
  7  6  1  0
  8  2  1  0
  9  8  2  0
 10 11  1  0
 11 13  1  0
 11 12  2  0
 13 14  1  0
 14 15  1  0
 15 16  1  0
 17 16  1  1
 17 19  1  0
 17 18  1  0
 18  8  1  0
 19 21  1  0
 20 19  2  0
 21 22  1  0
 22 23  1  6
 23 24  1  0
 24 29  2  0
 25 24  1  0
 25 26  2  0
 26 27  1  0
 27 28  2  0
 29 28  1  0
 30 31  1  0
 30 22  1  0
 32 30  2  0
M  END
$$$$
