KRF.pdb
     RDKit          3D

 32 32  0  0  1  0  0  0  0  0999 V2000
   26.4918  -18.7372  -15.4322 N   0  0  0  0  0  0  0  0  0  0  0  0
   25.4961  -18.1483  -14.5960 C   0  0  1  0  0  0  0  0  0  0  0  0
   24.2328  -17.8143  -15.2959 C   0  0  0  0  0  0  0  0  0  0  0  0
   24.4612  -17.2093  -16.6329 C   0  0  0  0  0  0  0  0  0  0  0  0
   23.9567  -15.8214  -16.8394 C   0  0  0  0  0  0  0  0  0  0  0  0
   24.2076  -15.3829  -18.3062 C   0  0  0  0  0  0  0  0  0  0  0  0
   23.6613  -14.0254  -18.3764 N   0  0  0  0  0  0  0  0  0  0  0  0
   25.2680  -19.0577  -13.4232 C   0  0  0  0  0  0  0  0  0  0  0  0
   24.3903  -18.6911  -12.5874 O   0  0  0  0  0  0  0  0  0  0  0  0
   23.5134  -25.9506  -13.8528 N   0  0  0  0  0  0  0  0  0  0  0  0
   22.5312  -25.0066  -14.2837 C   0  0  0  0  0  0  0  0  0  0  0  0
   21.2821  -25.3392  -14.3848 N   0  0  0  0  0  0  0  0  0  0  0  0
   22.8842  -23.6711  -14.6170 N   0  0  0  0  0  0  0  0  0  0  0  0
   24.1611  -23.1150  -14.2765 C   0  0  0  0  0  0  0  0  0  0  0  0
   24.4722  -23.1687  -12.7876 C   0  0  0  0  0  0  0  0  0  0  0  0
   25.7953  -22.5375  -12.4948 C   0  0  0  0  0  0  0  0  0  0  0  0
   25.7537  -21.0977  -12.1187 C   0  0  2  0  0  0  0  0  0  0  0  0
   25.9998  -20.2523  -13.2749 N   0  0  0  0  0  0  0  0  0  0  0  0
   26.6978  -20.7889  -11.0259 C   0  0  0  0  0  0  0  0  0  0  0  0
   27.9349  -20.8256  -11.2185 O   0  0  0  0  0  0  0  0  0  0  0  0
   20.6130  -24.5940  -14.6640 N   0  0  0  0  0  0  0  0  0  0  0  0
   26.2702  -20.4417   -9.7283 C   0  0  2  0  0  0  0  0  0  0  0  0
   26.7635  -21.1580   -8.5704 C   0  0  0  0  0  0  0  0  0  0  0  0
   28.1459  -20.7579   -8.2018 C   0  0  0  0  0  0  0  0  0  0  0  0
   28.1820  -20.1594   -6.8574 C   0  0  0  0  0  0  0  0  0  0  0  0
   27.7961  -18.8363   -6.7441 C   0  0  0  0  0  0  0  0  0  0  0  0
   27.7922  -18.2656   -5.4939 C   0  0  0  0  0  0  0  0  0  0  0  0
   28.1594  -18.9755   -4.3728 C   0  0  0  0  0  0  0  0  0  0  0  0
   28.5513  -20.3059   -4.4581 C   0  0  0  0  0  0  0  0  0  0  0  0
   28.5460  -20.8541   -5.7228 C   0  0  0  0  0  0  0  0  0  0  0  0
   25.8306  -20.8734   -7.4683 O   0  0  0  0  0  0  0  0  0  0  0  0
   25.9600  -21.5078   -6.2496 O   0  0  0  0  0  0  0  0  0  0  0  0
  2  3  1  0
  2  1  1  6
  4  3  1  0
  5  6  1  0
  5  4  1  0
  7  6  1  0
  8  2  1  0
  9  8  2  0
 10 11  1  0
 11 13  1  0
 11 12  2  0
 13 14  1  0
 14 15  1  0
 15 16  1  0
 17 16  1  6
 17 19  1  0
 17 18  1  0
 18  8  1  0
 19 21  1  0
 20 19  2  0
 21 22  1  0
 22 23  1  1
 23 24  1  0
 24 29  2  0
 25 24  1  0
 25 26  2  0
 26 27  1  0
 27 28  2  0
 29 28  1  0
 30 31  1  0
 30 22  1  0
 32 30  2  0
M  END
$$$$
