KRF.pdb
     RDKit          3D

 32 32  0  0  1  0  0  0  0  0999 V2000
   28.4338  -23.7270  -15.7773 N   0  0  0  0  0  0  0  0  0  0  0  0
   29.0225  -22.4268  -15.7924 C   0  0  1  0  0  0  0  0  0  0  0  0
   29.2389  -21.8720  -17.1498 C   0  0  0  0  0  0  0  0  0  0  0  0
   29.4454  -22.9275  -18.1740 C   0  0  0  0  0  0  0  0  0  0  0  0
   29.7032  -22.4706  -19.5698 C   0  0  0  0  0  0  0  0  0  0  0  0
   29.8925  -23.6983  -20.4991 C   0  0  0  0  0  0  0  0  0  0  0  0
   30.2080  -23.1172  -21.8064 N   0  0  0  0  0  0  0  0  0  0  0  0
   28.1833  -21.5199  -14.9393 C   0  0  0  0  0  0  0  0  0  0  0  0
   28.5017  -20.2944  -14.9360 O   0  0  0  0  0  0  0  0  0  0  0  0
   21.4349  -22.9429  -12.4598 N   0  0  0  0  0  0  0  0  0  0  0  0
   20.9976  -21.6702  -11.9795 C   0  0  0  0  0  0  0  0  0  0  0  0
   20.1033  -21.5786  -11.0452 N   0  0  0  0  0  0  0  0  0  0  0  0
   21.5242  -20.4597  -12.5054 N   0  0  0  0  0  0  0  0  0  0  0  0
   22.4996  -20.4485  -13.5563 C   0  0  0  0  0  0  0  0  0  0  0  0
   23.9289  -20.2829  -13.0601 C   0  0  0  0  0  0  0  0  0  0  0  0
   24.8637  -21.1706  -13.8171 C   0  0  0  0  0  0  0  0  0  0  0  0
   26.2929  -21.1018  -13.4061 C   0  0  2  0  0  0  0  0  0  0  0  0
   27.1022  -22.0214  -14.1881 N   0  0  0  0  0  0  0  0  0  0  0  0
   26.4600  -21.3474  -11.9596 C   0  0  0  0  0  0  0  0  0  0  0  0
   26.3180  -22.4975  -11.4844 O   0  0  0  0  0  0  0  0  0  0  0  0
   19.8466  -20.6233  -10.7251 N   0  0  0  0  0  0  0  0  0  0  0  0
   26.7827  -20.3222  -11.0475 C   0  0  2  0  0  0  0  0  0  0  0  0
   27.0285  -20.6233   -9.6525 C   0  0  0  0  0  0  0  0  0  0  0  0
   27.7765  -19.5417   -8.9615 C   0  0  0  0  0  0  0  0  0  0  0  0
   27.9208  -19.8331   -7.5258 C   0  0  0  0  0  0  0  0  0  0  0  0
   27.1882  -19.0566   -6.6466 C   0  0  0  0  0  0  0  0  0  0  0  0
   27.2834  -19.3309   -5.3033 C   0  0  0  0  0  0  0  0  0  0  0  0
   28.0810  -20.3469   -4.8266 C   0  0  0  0  0  0  0  0  0  0  0  0
   28.8273  -21.1422   -5.6877 C   0  0  0  0  0  0  0  0  0  0  0  0
   28.7137  -20.8464   -7.0291 C   0  0  0  0  0  0  0  0  0  0  0  0
   25.7125  -20.8254   -9.0254 O   0  0  0  0  0  0  0  0  0  0  0  0
   25.5303  -21.7924   -8.0580 O   0  0  0  0  0  0  0  0  0  0  0  0
  2  3  1  0
  2  1  1  6
  4  3  1  0
  5  6  1  0
  5  4  1  0
  7  6  1  0
  8  2  1  0
  9  8  2  0
 10 11  1  0
 11 13  1  0
 11 12  2  0
 13 14  1  0
 14 15  1  0
 15 16  1  0
 17 16  1  6
 17 19  1  0
 17 18  1  0
 18  8  1  0
 19 21  1  0
 20 19  2  0
 21 22  1  0
 22 23  1  1
 23 24  1  0
 24 29  2  0
 25 24  1  0
 25 26  2  0
 26 27  1  0
 27 28  2  0
 29 28  1  0
 30 31  1  0
 30 22  1  0
 32 30  2  0
M  END
$$$$
