KRF.pdb
     RDKit          3D

 32 32  0  0  1  0  0  0  0  0999 V2000
   22.3153  -28.8277  -14.3811 N   0  0  0  0  0  0  0  0  0  0  0  0
   21.6081  -27.7087  -14.9150 C   0  0  1  0  0  0  0  0  0  0  0  0
   20.2390  -27.5385  -14.3727 C   0  0  0  0  0  0  0  0  0  0  0  0
   19.2025  -28.1781  -15.2227 C   0  0  0  0  0  0  0  0  0  0  0  0
   19.2008  -29.6682  -15.2763 C   0  0  0  0  0  0  0  0  0  0  0  0
   18.1390  -30.1570  -16.2963 C   0  0  0  0  0  0  0  0  0  0  0  0
   18.3242  -31.6095  -16.3433 N   0  0  0  0  0  0  0  0  0  0  0  0
   22.4501  -26.4813  -14.7168 C   0  0  0  0  0  0  0  0  0  0  0  0
   22.6711  -26.1362  -13.5188 O   0  0  0  0  0  0  0  0  0  0  0  0
   29.6846  -27.1528  -16.5501 N   0  0  0  0  0  0  0  0  0  0  0  0
   28.9914  -25.9230  -16.7705 C   0  0  0  0  0  0  0  0  0  0  0  0
   29.1688  -24.9049  -15.9875 N   0  0  0  0  0  0  0  0  0  0  0  0
   28.0838  -25.7685  -17.8530 N   0  0  0  0  0  0  0  0  0  0  0  0
   26.9451  -24.9010  -17.7719 C   0  0  0  0  0  0  0  0  0  0  0  0
   25.9947  -25.2467  -16.6346 C   0  0  0  0  0  0  0  0  0  0  0  0
   24.7632  -24.4011  -16.6912 C   0  0  0  0  0  0  0  0  0  0  0  0
   23.7946  -24.5972  -15.5779 C   0  0  2  0  0  0  0  0  0  0  0  0
   22.9597  -25.7627  -15.8161 N   0  0  0  0  0  0  0  0  0  0  0  0
   22.9708  -23.3931  -15.3493 C   0  0  0  0  0  0  0  0  0  0  0  0
   22.0186  -23.1137  -16.1134 O   0  0  0  0  0  0  0  0  0  0  0  0
   28.7087  -24.0123  -16.2568 N   0  0  0  0  0  0  0  0  0  0  0  0
   23.2036  -22.5057  -14.2790 C   0  0  2  0  0  0  0  0  0  0  0  0
   22.4293  -21.2893  -14.1447 C   0  0  0  0  0  0  0  0  0  0  0  0
   22.3567  -20.8149  -12.7388 C   0  0  0  0  0  0  0  0  0  0  0  0
   21.5304  -19.6012  -12.6328 C   0  0  0  0  0  0  0  0  0  0  0  0
   20.6670  -19.3311  -13.6787 C   0  0  0  0  0  0  0  0  0  0  0  0
   19.8634  -18.2200  -13.5872 C   0  0  0  0  0  0  0  0  0  0  0  0
   19.9026  -17.3863  -12.4922 C   0  0  0  0  0  0  0  0  0  0  0  0
   20.7605  -17.6342  -11.4276 C   0  0  0  0  0  0  0  0  0  0  0  0
   21.5549  -18.7545  -11.5442 C   0  0  0  0  0  0  0  0  0  0  0  0
   23.0756  -20.2803  -14.9992 O   0  0  0  0  0  0  0  0  0  0  0  0
   24.4199  -20.3631  -15.2996 O   0  0  0  0  0  0  0  0  0  0  0  0
  2  3  1  0
  2  1  1  1
  4  3  1  0
  5  6  1  0
  5  4  1  0
  7  6  1  0
  8  2  1  0
  9  8  2  0
 10 11  1  0
 11 13  1  0
 11 12  2  0
 13 14  1  0
 14 15  1  0
 15 16  1  0
 17 16  1  6
 17 19  1  0
 17 18  1  0
 18  8  1  0
 19 21  1  0
 20 19  2  0
 21 22  1  0
 22 23  1  1
 23 24  1  0
 24 29  2  0
 25 24  1  0
 25 26  2  0
 26 27  1  0
 27 28  2  0
 29 28  1  0
 30 31  1  0
 30 22  1  0
 32 30  2  0
M  END
$$$$
