KRF.pdb
     RDKit          3D

 32 32  0  0  1  0  0  0  0  0999 V2000
   25.3980  -21.4534  -16.5402 N   0  0  0  0  0  0  0  0  0  0  0  0
   25.6213  -22.2431  -15.3723 C   0  0  1  0  0  0  0  0  0  0  0  0
   26.8878  -23.0131  -15.3907 C   0  0  0  0  0  0  0  0  0  0  0  0
   27.9543  -22.3430  -16.1777 C   0  0  0  0  0  0  0  0  0  0  0  0
   29.2883  -23.0086  -16.2079 C   0  0  0  0  0  0  0  0  0  0  0  0
   30.3111  -22.1044  -16.9449 C   0  0  0  0  0  0  0  0  0  0  0  0
   31.5769  -22.8353  -16.8462 N   0  0  0  0  0  0  0  0  0  0  0  0
   25.5235  -21.3464  -14.1718 C   0  0  0  0  0  0  0  0  0  0  0  0
   25.9341  -20.1579  -14.3205 O   0  0  0  0  0  0  0  0  0  0  0  0
   19.4392  -21.4602  -13.9006 N   0  0  0  0  0  0  0  0  0  0  0  0
   19.6288  -21.9196  -12.5610 C   0  0  0  0  0  0  0  0  0  0  0  0
   19.0658  -23.0094  -12.1410 N   0  0  0  0  0  0  0  0  0  0  0  0
   20.4390  -21.2021  -11.6400 N   0  0  0  0  0  0  0  0  0  0  0  0
   20.9931  -19.9179  -11.9555 C   0  0  0  0  0  0  0  0  0  0  0  0
   22.4293  -19.9795  -12.4555 C   0  0  0  0  0  0  0  0  0  0  0  0
   23.2683  -20.8403  -11.5668 C   0  0  0  0  0  0  0  0  0  0  0  0
   24.7224  -20.8710  -11.8846 C   0  0  2  0  0  0  0  0  0  0  0  0
   25.0002  -21.8176  -12.9517 N   0  0  0  0  0  0  0  0  0  0  0  0
   25.5388  -21.1648  -10.6897 C   0  0  0  0  0  0  0  0  0  0  0  0
   25.6496  -22.3368  -10.2618 O   0  0  0  0  0  0  0  0  0  0  0  0
   19.3171  -23.3370  -11.1869 N   0  0  0  0  0  0  0  0  0  0  0  0
   26.2273  -20.1635   -9.9753 C   0  0  1  0  0  0  0  0  0  0  0  0
   26.7673  -20.4325   -8.6588 C   0  0  0  0  0  0  0  0  0  0  0  0
   27.6690  -19.3518   -8.1834 C   0  0  0  0  0  0  0  0  0  0  0  0
   28.1315  -19.6152   -6.8109 C   0  0  0  0  0  0  0  0  0  0  0  0
   27.5242  -18.9042   -5.7920 C   0  0  0  0  0  0  0  0  0  0  0  0
   27.9183  -19.1561   -4.4997 C   0  0  0  0  0  0  0  0  0  0  0  0
   28.8896  -20.0872   -4.2074 C   0  0  0  0  0  0  0  0  0  0  0  0
   29.5158  -20.8154   -5.2116 C   0  0  0  0  0  0  0  0  0  0  0  0
   29.1021  -20.5439   -6.4981 C   0  0  0  0  0  0  0  0  0  0  0  0
   25.6174  -20.5837   -7.7529 O   0  0  0  0  0  0  0  0  0  0  0  0
   25.6477  -21.4942   -6.7164 O   0  0  0  0  0  0  0  0  0  0  0  0
  2  3  1  0
  2  1  1  6
  4  3  1  0
  5  6  1  0
  5  4  1  0
  7  6  1  0
  8  2  1  0
  9  8  2  0
 10 11  1  0
 11 13  1  0
 11 12  2  0
 13 14  1  0
 14 15  1  0
 15 16  1  0
 17 16  1  1
 17 19  1  0
 17 18  1  0
 18  8  1  0
 19 21  1  0
 20 19  2  0
 21 22  1  0
 22 23  1  1
 23 24  1  0
 24 29  2  0
 25 24  1  0
 25 26  2  0
 26 27  1  0
 27 28  2  0
 29 28  1  0
 30 31  1  0
 30 22  1  0
 32 30  2  0
M  END
$$$$
