KRF.pdb
     RDKit          3D

 32 32  0  0  1  0  0  0  0  0999 V2000
   28.6907  -27.7217  -16.5493 N   0  0  0  0  0  0  0  0  0  0  0  0
   27.3364  -27.7986  -16.9936 C   0  0  1  0  0  0  0  0  0  0  0  0
   26.6856  -29.1061  -16.7398 C   0  0  0  0  0  0  0  0  0  0  0  0
   27.5382  -30.2566  -17.1339 C   0  0  0  0  0  0  0  0  0  0  0  0
   27.7676  -31.3093  -16.1032 C   0  0  0  0  0  0  0  0  0  0  0  0
   28.6257  -32.4545  -16.7023 C   0  0  0  0  0  0  0  0  0  0  0  0
   28.8591  -33.3597  -15.5743 N   0  0  0  0  0  0  0  0  0  0  0  0
   26.5739  -26.6602  -16.3795 C   0  0  0  0  0  0  0  0  0  0  0  0
   25.7703  -26.9573  -15.4472 O   0  0  0  0  0  0  0  0  0  0  0  0
   23.4595  -20.5388  -16.8233 N   0  0  0  0  0  0  0  0  0  0  0  0
   24.1683  -19.3384  -16.5100 C   0  0  0  0  0  0  0  0  0  0  0  0
   23.5363  -18.2458  -16.2135 N   0  0  0  0  0  0  0  0  0  0  0  0
   25.5887  -19.2957  -16.5111 N   0  0  0  0  0  0  0  0  0  0  0  0
   26.3839  -20.4652  -16.7470 C   0  0  0  0  0  0  0  0  0  0  0  0
   25.7201  -21.7564  -16.2903 C   0  0  0  0  0  0  0  0  0  0  0  0
   26.6021  -22.9338  -16.5559 C   0  0  0  0  0  0  0  0  0  0  0  0
   26.0473  -24.2574  -16.1598 C   0  0  2  0  0  0  0  0  0  0  0  0
   26.7543  -25.3370  -16.8281 N   0  0  0  0  0  0  0  0  0  0  0  0
   24.5944  -24.3402  -16.4106 C   0  0  0  0  0  0  0  0  0  0  0  0
   24.1445  -24.3305  -17.5795 O   0  0  0  0  0  0  0  0  0  0  0  0
   24.1120  -17.4072  -15.9983 N   0  0  0  0  0  0  0  0  0  0  0  0
   23.6482  -24.4334  -15.3699 C   0  0  2  0  0  0  0  0  0  0  0  0
   22.2304  -24.4802  -15.6611 C   0  0  0  0  0  0  0  0  0  0  0  0
   21.4447  -25.0949  -14.5603 C   0  0  0  0  0  0  0  0  0  0  0  0
   20.0139  -25.1533  -14.9011 C   0  0  0  0  0  0  0  0  0  0  0  0
   19.5974  -26.2008  -15.7023 C   0  0  0  0  0  0  0  0  0  0  0  0
   18.2607  -26.2930  -16.0080 C   0  0  0  0  0  0  0  0  0  0  0  0
   17.3458  -25.3772  -15.5389 C   0  0  0  0  0  0  0  0  0  0  0  0
   17.7371  -24.3155  -14.7324 C   0  0  0  0  0  0  0  0  0  0  0  0
   19.0824  -24.2463  -14.4407 C   0  0  0  0  0  0  0  0  0  0  0  0
   21.8002  -23.0918  -15.8920 O   0  0  0  0  0  0  0  0  0  0  0  0
   20.8748  -22.7908  -16.8705 O   0  0  0  0  0  0  0  0  0  0  0  0
  2  3  1  0
  2  1  1  1
  4  3  1  0
  5  6  1  0
  5  4  1  0
  7  6  1  0
  8  2  1  0
  9  8  2  0
 10 11  1  0
 11 13  1  0
 11 12  2  0
 13 14  1  0
 14 15  1  0
 15 16  1  0
 17 16  1  6
 17 19  1  0
 17 18  1  0
 18  8  1  0
 19 21  1  0
 20 19  2  0
 21 22  1  0
 22 23  1  1
 23 24  1  0
 24 29  2  0
 25 24  1  0
 25 26  2  0
 26 27  1  0
 27 28  2  0
 29 28  1  0
 30 31  1  0
 30 22  1  0
 32 30  2  0
M  END
$$$$
