KRF.pdb
     RDKit          3D

 32 32  0  0  1  0  0  0  0  0999 V2000
   20.7705  -19.5265  -12.7862 N   0  0  0  0  0  0  0  0  0  0  0  0
   20.9474  -20.5762  -11.8352 C   0  0  1  0  0  0  0  0  0  0  0  0
   20.0091  -21.7119  -12.0004 C   0  0  0  0  0  0  0  0  0  0  0  0
   19.3643  -21.7325  -13.3381 C   0  0  0  0  0  0  0  0  0  0  0  0
   18.3950  -20.6391  -13.6356 C   0  0  0  0  0  0  0  0  0  0  0  0
   17.2595  -21.1756  -14.5463 C   0  0  0  0  0  0  0  0  0  0  0  0
   16.3380  -21.8405  -13.6218 N   0  0  0  0  0  0  0  0  0  0  0  0
   22.3817  -21.0178  -11.8825 C   0  0  0  0  0  0  0  0  0  0  0  0
   22.6718  -22.0634  -11.2301 O   0  0  0  0  0  0  0  0  0  0  0  0
   25.5751  -24.8708  -14.6749 N   0  0  0  0  0  0  0  0  0  0  0  0
   26.6592  -24.4080  -15.4826 C   0  0  0  0  0  0  0  0  0  0  0  0
   26.9796  -25.0132  -16.5836 N   0  0  0  0  0  0  0  0  0  0  0  0
   27.4255  -23.2702  -15.1116 N   0  0  0  0  0  0  0  0  0  0  0  0
   26.9190  -22.2721  -14.2156 C   0  0  0  0  0  0  0  0  0  0  0  0
   25.8081  -21.4218  -14.8150 C   0  0  0  0  0  0  0  0  0  0  0  0
   25.4107  -20.3251  -13.8800 C   0  0  0  0  0  0  0  0  0  0  0  0
   24.7197  -20.7582  -12.6346 C   0  0  2  0  0  0  0  0  0  0  0  0
   23.3419  -20.2960  -12.6184 N   0  0  0  0  0  0  0  0  0  0  0  0
   25.4414  -20.3155  -11.4247 C   0  0  0  0  0  0  0  0  0  0  0  0
   25.3737  -19.1263  -11.0375 O   0  0  0  0  0  0  0  0  0  0  0  0
   27.7661  -24.6138  -17.1339 N   0  0  0  0  0  0  0  0  0  0  0  0
   26.2327  -21.1881  -10.6505 C   0  0  2  0  0  0  0  0  0  0  0  0
   27.0711  -20.6782   -9.5856 C   0  0  0  0  0  0  0  0  0  0  0  0
   26.4304  -20.7997   -8.2508 C   0  0  0  0  0  0  0  0  0  0  0  0
   27.3126  -20.2821   -7.1921 C   0  0  0  0  0  0  0  0  0  0  0  0
   27.3190  -18.9145   -6.9874 C   0  0  0  0  0  0  0  0  0  0  0  0
   28.1117  -18.4117   -5.9836 C   0  0  0  0  0  0  0  0  0  0  0  0
   28.8856  -19.2313   -5.1929 C   0  0  0  0  0  0  0  0  0  0  0  0
   28.8979  -20.6085   -5.3770 C   0  0  0  0  0  0  0  0  0  0  0  0
   28.0942  -21.0867   -6.3896 C   0  0  0  0  0  0  0  0  0  0  0  0
   28.3253  -21.4469   -9.6300 O   0  0  0  0  0  0  0  0  0  0  0  0
   29.5427  -20.8090   -9.7537 O   0  0  0  0  0  0  0  0  0  0  0  0
  2  3  1  0
  2  1  1  6
  4  3  1  0
  5  6  1  0
  5  4  1  0
  7  6  1  0
  8  2  1  0
  9  8  2  0
 10 11  1  0
 11 13  1  0
 11 12  2  0
 13 14  1  0
 14 15  1  0
 15 16  1  0
 17 16  1  6
 17 19  1  0
 17 18  1  0
 18  8  1  0
 19 21  1  0
 20 19  2  0
 21 22  1  0
 22 23  1  1
 23 24  1  0
 24 29  2  0
 25 24  1  0
 25 26  2  0
 26 27  1  0
 27 28  2  0
 29 28  1  0
 30 31  1  0
 30 22  1  0
 32 30  2  0
M  END
$$$$
