KRF.pdb
     RDKit          3D

 32 32  0  0  1  0  0  0  0  0999 V2000
   26.4776  -19.7270  -15.8491 N   0  0  0  0  0  0  0  0  0  0  0  0
   27.4020  -19.7502  -14.7618 C   0  0  1  0  0  0  0  0  0  0  0  0
   28.5039  -18.7655  -14.8783 C   0  0  0  0  0  0  0  0  0  0  0  0
   28.1938  -17.6684  -15.8301 C   0  0  0  0  0  0  0  0  0  0  0  0
   29.0091  -17.6080  -17.0771 C   0  0  0  0  0  0  0  0  0  0  0  0
   29.8337  -16.2942  -17.1037 C   0  0  0  0  0  0  0  0  0  0  0  0
   30.5502  -16.3426  -18.3806 N   0  0  0  0  0  0  0  0  0  0  0  0
   26.6306  -19.5852  -13.4842 C   0  0  0  0  0  0  0  0  0  0  0  0
   26.1969  -18.4224  -13.2332 O   0  0  0  0  0  0  0  0  0  0  0  0
   23.6663  -19.6489  -16.0408 N   0  0  0  0  0  0  0  0  0  0  0  0
   22.5304  -20.3348  -15.5110 C   0  0  0  0  0  0  0  0  0  0  0  0
   21.8933  -21.2179  -16.2149 N   0  0  0  0  0  0  0  0  0  0  0  0
   22.0564  -20.0766  -14.1965 N   0  0  0  0  0  0  0  0  0  0  0  0
   22.9376  -20.0301  -13.0665 C   0  0  0  0  0  0  0  0  0  0  0  0
   23.6674  -21.3404  -12.8078 C   0  0  0  0  0  0  0  0  0  0  0  0
   24.3650  -21.3119  -11.4859 C   0  0  0  0  0  0  0  0  0  0  0  0
   25.6024  -20.4863  -11.4275 C   0  0  2  0  0  0  0  0  0  0  0  0
   26.4096  -20.6763  -12.6210 N   0  0  0  0  0  0  0  0  0  0  0  0
   26.3877  -20.7608  -10.2074 C   0  0  0  0  0  0  0  0  0  0  0  0
   27.1017  -21.7863  -10.1223 O   0  0  0  0  0  0  0  0  0  0  0  0
   21.1074  -21.7173  -15.7525 N   0  0  0  0  0  0  0  0  0  0  0  0
   26.3796  -19.9018   -9.0897 C   0  0  1  0  0  0  0  0  0  0  0  0
   27.0753  -20.2648   -7.8726 C   0  0  0  0  0  0  0  0  0  0  0  0
   27.7379  -19.1014   -7.2289 C   0  0  0  0  0  0  0  0  0  0  0  0
   28.3012  -19.4716   -5.9202 C   0  0  0  0  0  0  0  0  0  0  0  0
   27.7310  -18.8940   -4.8005 C   0  0  0  0  0  0  0  0  0  0  0  0
   28.2202  -19.2486   -3.5662 C   0  0  0  0  0  0  0  0  0  0  0  0
   29.2496  -20.1525   -3.4277 C   0  0  0  0  0  0  0  0  0  0  0  0
   29.8403  -20.7477   -4.5357 C   0  0  0  0  0  0  0  0  0  0  0  0
   29.3310  -20.3752   -5.7611 C   0  0  0  0  0  0  0  0  0  0  0  0
   26.0716  -20.8532   -6.9713 O   0  0  0  0  0  0  0  0  0  0  0  0
   26.4448  -21.7248   -5.9686 O   0  0  0  0  0  0  0  0  0  0  0  0
  2  3  1  0
  2  1  1  6
  4  3  1  0
  5  6  1  0
  5  4  1  0
  7  6  1  0
  8  2  1  0
  9  8  2  0
 10 11  1  0
 11 13  1  0
 11 12  2  0
 13 14  1  0
 14 15  1  0
 15 16  1  0
 17 16  1  6
 17 19  1  0
 17 18  1  0
 18  8  1  0
 19 21  1  0
 20 19  2  0
 21 22  1  0
 22 23  1  1
 23 24  1  0
 24 29  2  0
 25 24  1  0
 25 26  2  0
 26 27  1  0
 27 28  2  0
 29 28  1  0
 30 31  1  0
 30 22  1  0
 32 30  2  0
M  END
$$$$
