KRF.pdb
     RDKit          3D

 32 32  0  0  1  0  0  0  0  0999 V2000
   28.3020  -22.0108  -17.9467 N   0  0  0  0  0  0  0  0  0  0  0  0
   28.1064  -20.8392  -17.1552 C   0  0  1  0  0  0  0  0  0  0  0  0
   27.9020  -19.5998  -17.9423 C   0  0  0  0  0  0  0  0  0  0  0  0
   29.0801  -19.2496  -18.7760 C   0  0  0  0  0  0  0  0  0  0  0  0
   28.8899  -19.2733  -20.2548 C   0  0  0  0  0  0  0  0  0  0  0  0
   30.2061  -18.8550  -20.9615 C   0  0  0  0  0  0  0  0  0  0  0  0
   29.9235  -19.0343  -22.3878 N   0  0  0  0  0  0  0  0  0  0  0  0
   26.9735  -21.0970  -16.2042 C   0  0  0  0  0  0  0  0  0  0  0  0
   26.0271  -21.8186  -16.6365 O   0  0  0  0  0  0  0  0  0  0  0  0
   26.1661  -20.1242   -7.3464 N   0  0  0  0  0  0  0  0  0  0  0  0
   24.9500  -20.7310   -7.7871 C   0  0  0  0  0  0  0  0  0  0  0  0
   24.0310  -21.0796   -6.9414 N   0  0  0  0  0  0  0  0  0  0  0  0
   24.7012  -20.9752   -9.1647 N   0  0  0  0  0  0  0  0  0  0  0  0
   25.6575  -20.6431  -10.1800 C   0  0  0  0  0  0  0  0  0  0  0  0
   25.1625  -20.9088  -11.5945 C   0  0  0  0  0  0  0  0  0  0  0  0
   26.2425  -20.6526  -12.5959 C   0  0  0  0  0  0  0  0  0  0  0  0
   25.8505  -20.8147  -14.0229 C   0  0  2  0  0  0  0  0  0  0  0  0
   26.9780  -20.5574  -14.9029 N   0  0  0  0  0  0  0  0  0  0  0  0
   24.6977  -19.9616  -14.3752 C   0  0  0  0  0  0  0  0  0  0  0  0
   24.8505  -18.7389  -14.5996 O   0  0  0  0  0  0  0  0  0  0  0  0
   23.1763  -21.5289   -7.3267 N   0  0  0  0  0  0  0  0  0  0  0  0
   23.3845  -20.4637  -14.4775 C   0  0  1  0  0  0  0  0  0  0  0  0
   22.3031  -19.6183  -14.9392 C   0  0  0  0  0  0  0  0  0  0  0  0
   22.4781  -19.1934  -16.3519 C   0  0  0  0  0  0  0  0  0  0  0  0
   21.3230  -18.4065  -16.8139 C   0  0  0  0  0  0  0  0  0  0  0  0
   20.5715  -18.9346  -17.8478 C   0  0  0  0  0  0  0  0  0  0  0  0
   19.4701  -18.2321  -18.2748 C   0  0  0  0  0  0  0  0  0  0  0  0
   19.1088  -17.0335  -17.7015 C   0  0  0  0  0  0  0  0  0  0  0  0
   19.8460  -16.4806  -16.6615 C   0  0  0  0  0  0  0  0  0  0  0  0
   20.9449  -17.2049  -16.2522 C   0  0  0  0  0  0  0  0  0  0  0  0
   21.0628  -20.3947  -14.7816 O   0  0  0  0  0  0  0  0  0  0  0  0
   20.9891  -21.7053  -15.2071 O   0  0  0  0  0  0  0  0  0  0  0  0
  2  3  1  0
  2  1  1  6
  4  3  1  0
  5  6  1  0
  5  4  1  0
  7  6  1  0
  8  2  1  0
  9  8  2  0
 10 11  1  0
 11 13  1  0
 11 12  2  0
 13 14  1  0
 14 15  1  0
 15 16  1  0
 17 16  1  1
 17 19  1  0
 17 18  1  0
 18  8  1  0
 19 21  1  0
 20 19  2  0
 21 22  1  0
 22 23  1  6
 23 24  1  0
 24 29  2  0
 25 24  1  0
 25 26  2  0
 26 27  1  0
 27 28  2  0
 29 28  1  0
 30 31  1  0
 30 22  1  0
 32 30  2  0
M  END
$$$$
