LYV.pdb
     RDKit          3D

 28 28  0  0  1  0  0  0  0  0999 V2000
   34.7039  -23.8451  -19.3717 C   0  0  0  0  0  0  0  0  0  0  0  0
   33.2779  -23.3750  -19.5505 C   0  0  1  0  0  0  0  0  0  0  0  0
   32.7439  -23.7095  -20.9041 C   0  0  0  0  0  0  0  0  0  0  0  0
   32.3683  -23.8412  -18.4664 C   0  0  0  0  0  0  0  0  0  0  0  0
   30.9546  -23.3551  -18.6016 C   0  0  2  0  0  0  0  0  0  0  0  0
   30.8806  -21.9178  -18.4319 N   0  0  0  0  0  0  0  0  0  0  0  0
   30.0781  -23.9916  -17.5915 C   0  0  0  0  0  0  0  0  0  0  0  0
   29.8779  -23.3744  -16.5162 O   0  0  0  0  0  0  0  0  0  0  0  0
   22.1998  -25.3712  -14.9471 O   0  0  0  0  0  0  0  0  0  0  0  0
   23.4639  -25.1613  -15.4838 C   0  0  0  0  0  0  0  0  0  0  0  0
   24.3959  -24.3177  -14.8811 C   0  0  0  0  0  0  0  0  0  0  0  0
   25.6391  -24.1473  -15.4611 C   0  0  0  0  0  0  0  0  0  0  0  0
   25.9956  -24.7868  -16.6251 C   0  0  0  0  0  0  0  0  0  0  0  0
   27.2918  -24.6318  -17.2624 C   0  0  0  0  0  0  0  0  0  0  0  0
   28.3072  -25.6959  -17.0495 C   0  0  2  0  0  0  0  0  0  0  0  0
   29.4880  -25.2573  -17.8383 N   0  0  0  0  0  0  0  0  0  0  0  0
   27.9471  -27.0285  -17.5650 C   0  0  0  0  0  0  0  0  0  0  0  0
   27.9056  -27.2246  -18.8316 O   0  0  0  0  0  0  0  0  0  0  0  0
   25.0433  -25.6160  -17.1935 C   0  0  0  0  0  0  0  0  0  0  0  0
   23.7937  -25.8124  -16.6468 C   0  0  0  0  0  0  0  0  0  0  0  0
   27.0925  -30.6222  -15.2636 C   0  0  0  0  0  0  0  0  0  0  0  0
   27.9389  -30.5734  -16.5043 C   0  0  1  0  0  0  0  0  0  0  0  0
   27.6724  -31.8780  -17.2663 C   0  0  0  0  0  0  0  0  0  0  0  0
   27.3893  -29.4654  -17.3958 C   0  0  2  0  0  0  0  0  0  0  0  0
   27.6332  -28.1650  -16.7787 N   0  0  0  0  0  0  0  0  0  0  0  0
   25.9931  -29.6933  -17.7618 C   0  0  0  0  0  0  0  0  0  0  0  0
   25.5948  -30.4579  -18.8437 O   0  0  0  0  0  0  0  0  0  0  0  0
   25.0794  -29.1790  -17.0749 O   0  0  0  0  0  0  0  0  0  0  0  0
  2  1  1  1
  2  4  1  0
  3  2  1  0
  5  4  1  0
  5  6  1  1
  7  8  2  0
  7  5  1  0
  9 10  1  0
 10 11  2  0
 11 12  1  0
 13 12  2  0
 13 14  1  0
 15 14  1  6
 15 16  1  0
 16  7  1  0
 17 18  2  0
 17 15  1  0
 19 13  1  0
 20 10  1  0
 20 19  2  0
 22 21  1  1
 23 22  1  0
 24 25  1  1
 24 22  1  0
 25 17  1  0
 26 24  1  0
 27 26  1  0
 28 26  2  0
M  END
$$$$
