LYV.pdb
     RDKit          3D

 28 28  0  0  1  0  0  0  0  0999 V2000
   17.3568  -11.6570  -17.5006 C   0  0  0  0  0  0  0  0  0  0  0  0
   17.0059  -11.7843  -16.0353 C   0  0  1  0  0  0  0  0  0  0  0  0
   17.9579  -12.6745  -15.3070 C   0  0  0  0  0  0  0  0  0  0  0  0
   16.8490  -10.4679  -15.3552 C   0  0  0  0  0  0  0  0  0  0  0  0
   16.4522  -10.5680  -13.9110 C   0  0  2  0  0  0  0  0  0  0  0  0
   15.0669  -10.9727  -13.7795 N   0  0  0  0  0  0  0  0  0  0  0  0
   16.6275   -9.2679  -13.2236 C   0  0  0  0  0  0  0  0  0  0  0  0
   15.8176   -8.3471  -13.4947 O   0  0  0  0  0  0  0  0  0  0  0  0
   12.8162   -6.0599   -8.0752 O   0  0  0  0  0  0  0  0  0  0  0  0
   14.0345   -6.4824   -8.5923 C   0  0  0  0  0  0  0  0  0  0  0  0
   15.1978   -5.7248   -8.4658 C   0  0  0  0  0  0  0  0  0  0  0  0
   16.3821   -6.1963   -9.0009 C   0  0  0  0  0  0  0  0  0  0  0  0
   16.4566   -7.3999   -9.6618 C   0  0  0  0  0  0  0  0  0  0  0  0
   17.6827   -7.9265  -10.2361 C   0  0  0  0  0  0  0  0  0  0  0  0
   17.9102   -7.7366  -11.6925 C   0  0  2  0  0  0  0  0  0  0  0  0
   17.6786   -9.0772  -12.2909 N   0  0  0  0  0  0  0  0  0  0  0  0
   19.2803   -7.3525  -12.0754 C   0  0  0  0  0  0  0  0  0  0  0  0
   20.2699   -8.0623  -11.6739 O   0  0  0  0  0  0  0  0  0  0  0  0
   15.2805   -8.1232   -9.7669 C   0  0  0  0  0  0  0  0  0  0  0  0
   14.0806   -7.6882   -9.2476 C   0  0  0  0  0  0  0  0  0  0  0  0
   20.8897   -7.8137  -14.8465 C   0  0  0  0  0  0  0  0  0  0  0  0
   21.2686   -6.3680  -14.6902 C   0  0  1  0  0  0  0  0  0  0  0  0
   20.2473   -5.5589  -15.5003 C   0  0  0  0  0  0  0  0  0  0  0  0
   21.0277   -5.9815  -13.2352 C   0  0  2  0  0  0  0  0  0  0  0  0
   19.6361   -6.2392  -12.8771 N   0  0  0  0  0  0  0  0  0  0  0  0
   21.4698   -4.6190  -12.9460 C   0  0  0  0  0  0  0  0  0  0  0  0
   20.6087   -3.5693  -12.6806 O   0  0  0  0  0  0  0  0  0  0  0  0
   22.6948   -4.3541  -12.9304 O   0  0  0  0  0  0  0  0  0  0  0  0
  2  1  1  6
  2  4  1  0
  3  2  1  0
  5  4  1  0
  5  6  1  6
  7  8  2  0
  7  5  1  0
  9 10  1  0
 10 11  2  0
 11 12  1  0
 13 12  2  0
 13 14  1  0
 15 14  1  1
 15 16  1  0
 16  7  1  0
 17 18  2  0
 17 15  1  0
 19 13  1  0
 20 10  1  0
 20 19  2  0
 22 21  1  1
 23 22  1  0
 24 25  1  6
 24 22  1  0
 25 17  1  0
 26 24  1  0
 27 26  1  0
 28 26  2  0
M  END
$$$$
