LYV.pdb
     RDKit          3D

 28 28  0  0  1  0  0  0  0  0999 V2000
   22.1096  -13.4266  -19.8801 C   0  0  0  0  0  0  0  0  0  0  0  0
   21.9650  -13.6709  -18.3949 C   0  0  1  0  0  0  0  0  0  0  0  0
   20.9369  -14.7115  -18.0963 C   0  0  0  0  0  0  0  0  0  0  0  0
   23.2614  -13.9651  -17.7218 C   0  0  0  0  0  0  0  0  0  0  0  0
   24.1528  -12.7683  -17.5596 C   0  0  2  0  0  0  0  0  0  0  0  0
   25.4798  -13.1628  -17.1308 N   0  0  0  0  0  0  0  0  0  0  0  0
   23.5977  -11.8278  -16.5591 C   0  0  0  0  0  0  0  0  0  0  0  0
   23.6517  -12.1595  -15.3489 O   0  0  0  0  0  0  0  0  0  0  0  0
   21.6068   -3.6129  -13.7885 O   0  0  0  0  0  0  0  0  0  0  0  0
   22.0421   -4.8456  -14.2586 C   0  0  0  0  0  0  0  0  0  0  0  0
   22.1299   -5.9661  -13.4338 C   0  0  0  0  0  0  0  0  0  0  0  0
   22.5702   -7.1674  -13.9574 C   0  0  0  0  0  0  0  0  0  0  0  0
   22.9294   -7.3003  -15.2782 C   0  0  0  0  0  0  0  0  0  0  0  0
   23.3959   -8.5458  -15.8624 C   0  0  0  0  0  0  0  0  0  0  0  0
   22.4379   -9.6786  -15.9506 C   0  0  2  0  0  0  0  0  0  0  0  0
   23.0253  -10.5947  -16.9628 N   0  0  0  0  0  0  0  0  0  0  0  0
   21.0934   -9.3350  -16.4461 C   0  0  0  0  0  0  0  0  0  0  0  0
   20.9308   -9.0559  -17.6871 O   0  0  0  0  0  0  0  0  0  0  0  0
   22.8285   -6.1654  -16.0652 C   0  0  0  0  0  0  0  0  0  0  0  0
   22.3945   -4.9503  -15.5815 C   0  0  0  0  0  0  0  0  0  0  0  0
   18.1028  -10.9828  -17.0452 C   0  0  0  0  0  0  0  0  0  0  0  0
   17.5955   -9.8379  -16.2146 C   0  0  1  0  0  0  0  0  0  0  0  0
   17.5331  -10.3427  -14.7671 C   0  0  0  0  0  0  0  0  0  0  0  0
   18.6669   -8.7533  -16.2185 C   0  0  2  0  0  0  0  0  0  0  0  0
   19.9107   -9.2823  -15.6669 N   0  0  0  0  0  0  0  0  0  0  0  0
   18.2099   -7.5242  -15.5735 C   0  0  0  0  0  0  0  0  0  0  0  0
   17.3921   -6.5909  -16.1850 O   0  0  0  0  0  0  0  0  0  0  0  0
   18.5629   -7.2721  -14.3975 O   0  0  0  0  0  0  0  0  0  0  0  0
  2  1  1  6
  2  4  1  0
  3  2  1  0
  5  4  1  0
  5  6  1  1
  7  8  2  0
  7  5  1  0
  9 10  1  0
 10 11  2  0
 11 12  1  0
 13 12  2  0
 13 14  1  0
 15 14  1  6
 15 16  1  0
 16  7  1  0
 17 18  2  0
 17 15  1  0
 19 13  1  0
 20 10  1  0
 20 19  2  0
 22 21  1  6
 23 22  1  0
 24 25  1  1
 24 22  1  0
 25 17  1  0
 26 24  1  0
 27 26  1  0
 28 26  2  0
M  END
$$$$
