LYV.pdb
     RDKit          3D

 28 28  0  0  1  0  0  0  0  0999 V2000
   23.8643  -16.2867  -16.4733 C   0  0  0  0  0  0  0  0  0  0  0  0
   23.3341  -15.2436  -15.5156 C   0  0  1  0  0  0  0  0  0  0  0  0
   24.3728  -14.8012  -14.5386 C   0  0  0  0  0  0  0  0  0  0  0  0
   22.6954  -14.0875  -16.2053 C   0  0  0  0  0  0  0  0  0  0  0  0
   21.2198  -14.2472  -16.4299 C   0  0  2  0  0  0  0  0  0  0  0  0
   20.9542  -15.2354  -17.4562 N   0  0  0  0  0  0  0  0  0  0  0  0
   20.6067  -12.9644  -16.8451 C   0  0  0  0  0  0  0  0  0  0  0  0
   20.7039  -12.6314  -18.0522 O   0  0  0  0  0  0  0  0  0  0  0  0
   14.4057  -13.9310  -19.4300 O   0  0  0  0  0  0  0  0  0  0  0  0
   15.2498  -13.2735  -18.5439 C   0  0  0  0  0  0  0  0  0  0  0  0
   15.7914  -13.9062  -17.4260 C   0  0  0  0  0  0  0  0  0  0  0  0
   16.6257  -13.2010  -16.5788 C   0  0  0  0  0  0  0  0  0  0  0  0
   16.9455  -11.8820  -16.8002 C   0  0  0  0  0  0  0  0  0  0  0  0
   17.8181  -11.1103  -15.9322 C   0  0  0  0  0  0  0  0  0  0  0  0
   19.2297  -10.9156  -16.3544 C   0  0  2  0  0  0  0  0  0  0  0  0
   19.9336  -12.1447  -15.9039 N   0  0  0  0  0  0  0  0  0  0  0  0
   19.9327   -9.7886  -15.7167 C   0  0  0  0  0  0  0  0  0  0  0  0
   20.2482   -9.8627  -14.4759 O   0  0  0  0  0  0  0  0  0  0  0  0
   16.3882  -11.2887  -17.9204 C   0  0  0  0  0  0  0  0  0  0  0  0
   15.5526  -11.9568  -18.7888 C   0  0  0  0  0  0  0  0  0  0  0  0
   23.0396   -8.2864  -16.9645 C   0  0  0  0  0  0  0  0  0  0  0  0
   22.2388   -7.0858  -16.5458 C   0  0  1  0  0  0  0  0  0  0  0  0
   21.5565   -6.5527  -17.8123 C   0  0  0  0  0  0  0  0  0  0  0  0
   21.1050   -7.5751  -15.6515 C   0  0  2  0  0  0  0  0  0  0  0  0
   20.3177   -8.5832  -16.3551 N   0  0  0  0  0  0  0  0  0  0  0  0
   20.3100   -6.4723  -15.1157 C   0  0  0  0  0  0  0  0  0  0  0  0
   20.7391   -5.6340  -14.1022 O   0  0  0  0  0  0  0  0  0  0  0  0
   19.1679   -6.2473  -15.5805 O   0  0  0  0  0  0  0  0  0  0  0  0
  2  1  1  6
  2  4  1  0
  3  2  1  0
  5  4  1  0
  5  6  1  6
  7  8  2  0
  7  5  1  0
  9 10  1  0
 10 11  2  0
 11 12  1  0
 13 12  2  0
 13 14  1  0
 15 14  1  1
 15 16  1  0
 16  7  1  0
 17 18  2  0
 17 15  1  0
 19 13  1  0
 20 10  1  0
 20 19  2  0
 22 21  1  6
 23 22  1  0
 24 25  1  6
 24 22  1  0
 25 17  1  0
 26 24  1  0
 27 26  1  0
 28 26  2  0
M  END
$$$$
