LYV.pdb
     RDKit          3D

 28 28  0  0  1  0  0  0  0  0999 V2000
   19.2666  -24.3373   -8.7637 C   0  0  0  0  0  0  0  0  0  0  0  0
   18.0324  -25.1998   -8.6248 C   0  0  1  0  0  0  0  0  0  0  0  0
   18.3216  -26.6388   -8.8978 C   0  0  0  0  0  0  0  0  0  0  0  0
   17.3324  -25.0135   -7.3227 C   0  0  0  0  0  0  0  0  0  0  0  0
   16.0485  -25.7818   -7.2021 C   0  0  2  0  0  0  0  0  0  0  0  0
   15.0505  -25.2740   -8.1222 N   0  0  0  0  0  0  0  0  0  0  0  0
   15.5062  -25.6919   -5.8268 C   0  0  0  0  0  0  0  0  0  0  0  0
   15.0654  -24.5808   -5.4415 O   0  0  0  0  0  0  0  0  0  0  0  0
    9.4490  -24.9651   -6.8398 O   0  0  0  0  0  0  0  0  0  0  0  0
   10.4491  -25.5494   -6.0726 C   0  0  0  0  0  0  0  0  0  0  0  0
   10.8758  -24.9991   -4.8649 C   0  0  0  0  0  0  0  0  0  0  0  0
   11.8757  -25.6250   -4.1440 C   0  0  0  0  0  0  0  0  0  0  0  0
   12.4727  -26.7849   -4.5791 C   0  0  0  0  0  0  0  0  0  0  0  0
   13.5252  -27.4697   -3.8484 C   0  0  0  0  0  0  0  0  0  0  0  0
   14.8170  -26.7608   -3.6549 C   0  0  2  0  0  0  0  0  0  0  0  0
   15.4892  -26.8284   -4.9787 N   0  0  0  0  0  0  0  0  0  0  0  0
   15.7455  -27.3849   -2.6960 C   0  0  0  0  0  0  0  0  0  0  0  0
   16.5703  -28.2771   -3.1062 O   0  0  0  0  0  0  0  0  0  0  0  0
   12.0219  -27.3005   -5.7825 C   0  0  0  0  0  0  0  0  0  0  0  0
   11.0283  -26.7071   -6.5304 C   0  0  0  0  0  0  0  0  0  0  0  0
   17.2479  -25.5893    0.5472 C   0  0  0  0  0  0  0  0  0  0  0  0
   16.9335  -27.0235    0.8670 C   0  0  1  0  0  0  0  0  0  0  0  0
   15.5315  -27.0349    1.4898 C   0  0  0  0  0  0  0  0  0  0  0  0
   16.7949  -27.7721   -0.4539 C   0  0  2  0  0  0  0  0  0  0  0  0
   15.8317  -27.0894   -1.3126 N   0  0  0  0  0  0  0  0  0  0  0  0
   16.5085  -29.1914   -0.2562 C   0  0  0  0  0  0  0  0  0  0  0  0
   17.4733  -30.1392    0.0347 O   0  0  0  0  0  0  0  0  0  0  0  0
   15.3291  -29.6055   -0.3495 O   0  0  0  0  0  0  0  0  0  0  0  0
  2  1  1  1
  2  4  1  0
  3  2  1  0
  5  4  1  0
  5  6  1  6
  7  8  2  0
  7  5  1  0
  9 10  1  0
 10 11  2  0
 11 12  1  0
 13 12  2  0
 13 14  1  0
 15 14  1  6
 15 16  1  0
 16  7  1  0
 17 18  2  0
 17 15  1  0
 19 13  1  0
 20 10  1  0
 20 19  2  0
 22 21  1  6
 23 22  1  0
 24 25  1  6
 24 22  1  0
 25 17  1  0
 26 24  1  0
 27 26  1  0
 28 26  2  0
M  END
$$$$
