LYV.pdb
     RDKit          3D

 28 28  0  0  1  0  0  0  0  0999 V2000
   26.9798  -18.6338  -16.4216 C   0  0  0  0  0  0  0  0  0  0  0  0
   27.4742  -19.5614  -15.3346 C   0  0  1  0  0  0  0  0  0  0  0  0
   28.9072  -19.9343  -15.5259 C   0  0  0  0  0  0  0  0  0  0  0  0
   27.2161  -19.0431  -13.9617 C   0  0  0  0  0  0  0  0  0  0  0  0
   27.8672  -19.8443  -12.8720 C   0  0  2  0  0  0  0  0  0  0  0  0
   27.8139  -21.2623  -13.1667 N   0  0  0  0  0  0  0  0  0  0  0  0
   27.1972  -19.6106  -11.5720 C   0  0  0  0  0  0  0  0  0  0  0  0
   26.8757  -18.4319  -11.2812 O   0  0  0  0  0  0  0  0  0  0  0  0
   20.4149  -19.7974  -12.3821 O   0  0  0  0  0  0  0  0  0  0  0  0
   21.5593  -20.2209  -11.7178 C   0  0  0  0  0  0  0  0  0  0  0  0
   22.4919  -21.0695  -12.3123 C   0  0  0  0  0  0  0  0  0  0  0  0
   23.6127  -21.4580  -11.6023 C   0  0  0  0  0  0  0  0  0  0  0  0
   23.8451  -21.0332  -10.3152 C   0  0  0  0  0  0  0  0  0  0  0  0
   25.0108  -21.4205   -9.5395 C   0  0  0  0  0  0  0  0  0  0  0  0
   26.1419  -20.4607   -9.4510 C   0  0  2  0  0  0  0  0  0  0  0  0
   26.9310  -20.6885  -10.6897 N   0  0  0  0  0  0  0  0  0  0  0  0
   27.0734  -20.6798   -8.3305 C   0  0  0  0  0  0  0  0  0  0  0  0
   27.7358  -21.7760   -8.2661 O   0  0  0  0  0  0  0  0  0  0  0  0
   22.8964  -20.1916   -9.7593 C   0  0  0  0  0  0  0  0  0  0  0  0
   21.7667  -19.7817  -10.4335 C   0  0  0  0  0  0  0  0  0  0  0  0
   30.0853  -19.5429   -6.7472 C   0  0  0  0  0  0  0  0  0  0  0  0
   29.0952  -19.4108   -5.6245 C   0  0  1  0  0  0  0  0  0  0  0  0
   28.6284  -17.9494   -5.6237 C   0  0  0  0  0  0  0  0  0  0  0  0
   27.8631  -20.2283   -5.9958 C   0  0  2  0  0  0  0  0  0  0  0  0
   27.3301  -19.7694   -7.2751 N   0  0  0  0  0  0  0  0  0  0  0  0
   26.8749  -20.2565   -4.9197 C   0  0  0  0  0  0  0  0  0  0  0  0
   27.0905  -20.8536   -3.6906 O   0  0  0  0  0  0  0  0  0  0  0  0
   25.7564  -19.7168   -5.0898 O   0  0  0  0  0  0  0  0  0  0  0  0
  2  1  1  6
  2  4  1  0
  3  2  1  0
  5  4  1  0
  5  6  1  6
  7  8  2  0
  7  5  1  0
  9 10  1  0
 10 11  2  0
 11 12  1  0
 13 12  2  0
 13 14  1  0
 15 14  1  1
 15 16  1  0
 16  7  1  0
 17 18  2  0
 17 15  1  0
 19 13  1  0
 20 10  1  0
 20 19  2  0
 22 21  1  6
 23 22  1  0
 24 25  1  6
 24 22  1  0
 25 17  1  0
 26 24  1  0
 27 26  1  0
 28 26  2  0
M  END
$$$$
