LYV.pdb
     RDKit          3D

 28 28  0  0  1  0  0  0  0  0999 V2000
   19.4647  -13.3369  -20.3488 C   0  0  0  0  0  0  0  0  0  0  0  0
   20.8790  -12.8162  -20.2263 C   0  0  1  0  0  0  0  0  0  0  0  0
   21.3164  -12.0897  -21.4551 C   0  0  0  0  0  0  0  0  0  0  0  0
   21.0988  -12.0046  -18.9962 C   0  0  0  0  0  0  0  0  0  0  0  0
   22.4832  -11.4371  -18.8760 C   0  0  2  0  0  0  0  0  0  0  0  0
   23.4509  -12.4807  -18.6024 N   0  0  0  0  0  0  0  0  0  0  0  0
   22.5517  -10.4374  -17.7853 C   0  0  0  0  0  0  0  0  0  0  0  0
   22.1042  -10.7667  -16.6589 O   0  0  0  0  0  0  0  0  0  0  0  0
   28.5453  -11.6493  -15.8048 O   0  0  0  0  0  0  0  0  0  0  0  0
   27.5659  -10.6886  -16.0233 C   0  0  0  0  0  0  0  0  0  0  0  0
   26.7773  -10.1837  -14.9905 C   0  0  0  0  0  0  0  0  0  0  0  0
   25.8175   -9.2282  -15.2679 C   0  0  0  0  0  0  0  0  0  0  0  0
   25.6087   -8.7510  -16.5406 C   0  0  0  0  0  0  0  0  0  0  0  0
   24.6104   -7.7481  -16.8688 C   0  0  0  0  0  0  0  0  0  0  0  0
   23.1847   -8.1663  -16.9044 C   0  0  2  0  0  0  0  0  0  0  0  0
   23.1059   -9.1523  -18.0138 N   0  0  0  0  0  0  0  0  0  0  0  0
   22.2200   -7.1033  -17.2370 C   0  0  0  0  0  0  0  0  0  0  0  0
   22.2494   -6.5667  -18.4013 O   0  0  0  0  0  0  0  0  0  0  0  0
   26.4113   -9.2766  -17.5391 C   0  0  0  0  0  0  0  0  0  0  0  0
   27.3784  -10.2296  -17.3037 C   0  0  0  0  0  0  0  0  0  0  0  0
   18.0395   -4.7872  -17.1709 C   0  0  0  0  0  0  0  0  0  0  0  0
   18.8918   -5.9537  -16.7573 C   0  0  1  0  0  0  0  0  0  0  0  0
   18.7652   -7.0029  -17.8695 C   0  0  0  0  0  0  0  0  0  0  0  0
   20.3467   -5.4995  -16.7940 C   0  0  2  0  0  0  0  0  0  0  0  0
   21.2186   -6.5925  -16.3740 N   0  0  0  0  0  0  0  0  0  0  0  0
   20.5559   -4.2581  -16.0519 C   0  0  0  0  0  0  0  0  0  0  0  0
   20.5330   -3.0014  -16.6298 O   0  0  0  0  0  0  0  0  0  0  0  0
   20.7715   -4.3015  -14.8179 O   0  0  0  0  0  0  0  0  0  0  0  0
  2  1  1  6
  2  4  1  0
  3  2  1  0
  5  4  1  0
  5  6  1  1
  7  8  2  0
  7  5  1  0
  9 10  1  0
 10 11  2  0
 11 12  1  0
 13 12  2  0
 13 14  1  0
 15 14  1  6
 15 16  1  0
 16  7  1  0
 17 18  2  0
 17 15  1  0
 19 13  1  0
 20 10  1  0
 20 19  2  0
 22 21  1  6
 23 22  1  0
 24 25  1  1
 24 22  1  0
 25 17  1  0
 26 24  1  0
 27 26  1  0
 28 26  2  0
M  END
$$$$
