LYV.pdb
     RDKit          3D

 28 28  0  0  1  0  0  0  0  0999 V2000
   27.1762  -17.7139  -18.1368 C   0  0  0  0  0  0  0  0  0  0  0  0
   27.8773  -18.8485  -17.4243 C   0  0  1  0  0  0  0  0  0  0  0  0
   29.1657  -18.4119  -16.8089 C   0  0  0  0  0  0  0  0  0  0  0  0
   27.0044  -19.5498  -16.4414 C   0  0  0  0  0  0  0  0  0  0  0  0
   27.7045  -20.6191  -15.6541 C   0  0  2  0  0  0  0  0  0  0  0  0
   27.9693  -21.7818  -16.4776 N   0  0  0  0  0  0  0  0  0  0  0  0
   26.8861  -21.0430  -14.4947 C   0  0  0  0  0  0  0  0  0  0  0  0
   26.0213  -21.9343  -14.6817 O   0  0  0  0  0  0  0  0  0  0  0  0
   24.6216  -20.5667   -5.7708 O   0  0  0  0  0  0  0  0  0  0  0  0
   25.2005  -20.5784   -7.0337 C   0  0  0  0  0  0  0  0  0  0  0  0
   25.0089  -21.6299   -7.9286 C   0  0  0  0  0  0  0  0  0  0  0  0
   25.6105  -21.5870   -9.1726 C   0  0  0  0  0  0  0  0  0  0  0  0
   26.4011  -20.5325   -9.5652 C   0  0  0  0  0  0  0  0  0  0  0  0
   27.0485  -20.4535  -10.8633 C   0  0  0  0  0  0  0  0  0  0  0  0
   26.2969  -20.9388  -12.0500 C   0  0  2  0  0  0  0  0  0  0  0  0
   27.0790  -20.4563  -13.2181 N   0  0  0  0  0  0  0  0  0  0  0  0
   24.9413  -20.3844  -12.2123 C   0  0  0  0  0  0  0  0  0  0  0  0
   24.7943  -19.1265  -12.4139 O   0  0  0  0  0  0  0  0  0  0  0  0
   26.5675  -19.5077   -8.6490 C   0  0  0  0  0  0  0  0  0  0  0  0
   25.9852  -19.5129   -7.4001 C   0  0  0  0  0  0  0  0  0  0  0  0
   21.5937  -22.3603  -13.7289 C   0  0  0  0  0  0  0  0  0  0  0  0
   21.9156  -20.8937  -13.7895 C   0  0  1  0  0  0  0  0  0  0  0  0
   20.5778  -20.1592  -13.9459 C   0  0  0  0  0  0  0  0  0  0  0  0
   22.4462  -20.4798  -12.4215 C   0  0  2  0  0  0  0  0  0  0  0  0
   23.7327  -21.1235  -12.1727 N   0  0  0  0  0  0  0  0  0  0  0  0
   21.4637  -20.6931  -11.3610 C   0  0  0  0  0  0  0  0  0  0  0  0
   21.6000  -21.6418  -10.3634 O   0  0  0  0  0  0  0  0  0  0  0  0
   20.4257  -19.9914  -11.3263 O   0  0  0  0  0  0  0  0  0  0  0  0
  2  1  1  1
  2  4  1  0
  3  2  1  0
  5  4  1  0
  5  6  1  6
  7  8  2  0
  7  5  1  0
  9 10  1  0
 10 11  2  0
 11 12  1  0
 13 12  2  0
 13 14  1  0
 15 14  1  1
 15 16  1  0
 16  7  1  0
 17 18  2  0
 17 15  1  0
 19 13  1  0
 20 10  1  0
 20 19  2  0
 22 21  1  1
 23 22  1  0
 24 25  1  1
 24 22  1  0
 25 17  1  0
 26 24  1  0
 27 26  1  0
 28 26  2  0
M  END
$$$$
