LYV.pdb
     RDKit          3D

 28 28  0  0  1  0  0  0  0  0999 V2000
   27.3455  -17.4940  -18.7011 C   0  0  0  0  0  0  0  0  0  0  0  0
   28.1159  -18.5998  -18.0155 C   0  0  1  0  0  0  0  0  0  0  0  0
   29.2708  -18.0731  -17.2294 C   0  0  0  0  0  0  0  0  0  0  0  0
   27.2507  -19.4939  -17.1958 C   0  0  0  0  0  0  0  0  0  0  0  0
   28.0086  -20.5019  -16.3818 C   0  0  2  0  0  0  0  0  0  0  0  0
   28.3851  -21.6450  -17.1891 N   0  0  0  0  0  0  0  0  0  0  0  0
   27.1932  -20.9816  -15.2422 C   0  0  0  0  0  0  0  0  0  0  0  0
   26.4143  -21.9461  -15.4432 O   0  0  0  0  0  0  0  0  0  0  0  0
   24.6025  -20.7776   -6.6150 O   0  0  0  0  0  0  0  0  0  0  0  0
   25.2362  -20.7409   -7.8508 C   0  0  0  0  0  0  0  0  0  0  0  0
   25.4631  -21.8922   -8.6035 C   0  0  0  0  0  0  0  0  0  0  0  0
   26.0989  -21.7946   -9.8271 C   0  0  0  0  0  0  0  0  0  0  0  0
   26.5214  -20.5891  -10.3363 C   0  0  0  0  0  0  0  0  0  0  0  0
   27.1920  -20.4487  -11.6173 C   0  0  0  0  0  0  0  0  0  0  0  0
   26.4470  -20.8385  -12.8428 C   0  0  2  0  0  0  0  0  0  0  0  0
   27.2945  -20.3661  -13.9686 N   0  0  0  0  0  0  0  0  0  0  0  0
   25.1362  -20.1896  -13.0214 C   0  0  0  0  0  0  0  0  0  0  0  0
   25.0842  -18.9380  -13.2959 O   0  0  0  0  0  0  0  0  0  0  0  0
   26.2781  -19.4687   -9.5597 C   0  0  0  0  0  0  0  0  0  0  0  0
   25.6478  -19.5240   -8.3356 C   0  0  0  0  0  0  0  0  0  0  0  0
   22.9862  -20.1110  -15.4792 C   0  0  0  0  0  0  0  0  0  0  0  0
   21.9782  -20.3903  -14.4002 C   0  0  1  0  0  0  0  0  0  0  0  0
   21.7560  -21.9083  -14.3926 C   0  0  0  0  0  0  0  0  0  0  0  0
   22.6337  -20.0711  -13.0612 C   0  0  2  0  0  0  0  0  0  0  0  0
   23.8746  -20.8277  -12.9232 N   0  0  0  0  0  0  0  0  0  0  0  0
   21.7107  -20.2402  -11.9410 C   0  0  0  0  0  0  0  0  0  0  0  0
   20.6626  -19.3792  -11.6691 O   0  0  0  0  0  0  0  0  0  0  0  0
   21.8509  -21.2125  -11.1625 O   0  0  0  0  0  0  0  0  0  0  0  0
  2  1  1  1
  2  4  1  0
  3  2  1  0
  5  4  1  0
  5  6  1  6
  7  8  2  0
  7  5  1  0
  9 10  1  0
 10 11  2  0
 11 12  1  0
 13 12  2  0
 13 14  1  0
 15 14  1  1
 15 16  1  0
 16  7  1  0
 17 18  2  0
 17 15  1  0
 19 13  1  0
 20 10  1  0
 20 19  2  0
 22 21  1  6
 23 22  1  0
 24 25  1  1
 24 22  1  0
 25 17  1  0
 26 24  1  0
 27 26  1  0
 28 26  2  0
M  END
$$$$
