LYV.pdb
     RDKit          3D

 28 28  0  0  1  0  0  0  0  0999 V2000
   28.9077  -17.3836  -15.7836 C   0  0  0  0  0  0  0  0  0  0  0  0
   28.3992  -18.7109  -15.2678 C   0  0  1  0  0  0  0  0  0  0  0  0
   29.5142  -19.6468  -14.9359 C   0  0  0  0  0  0  0  0  0  0  0  0
   27.4402  -18.5698  -14.1362 C   0  0  0  0  0  0  0  0  0  0  0  0
   27.1173  -19.8611  -13.4422 C   0  0  2  0  0  0  0  0  0  0  0  0
   26.2840  -20.7047  -14.2754 N   0  0  0  0  0  0  0  0  0  0  0  0
   26.4053  -19.6122  -12.1676 C   0  0  0  0  0  0  0  0  0  0  0  0
   25.3368  -18.9536  -12.2114 O   0  0  0  0  0  0  0  0  0  0  0  0
   19.5822  -20.1916  -10.0051 O   0  0  0  0  0  0  0  0  0  0  0  0
   20.9440  -20.4627  -10.0536 C   0  0  0  0  0  0  0  0  0  0  0  0
   21.6448  -20.5326  -11.2566 C   0  0  0  0  0  0  0  0  0  0  0  0
   22.9999  -20.8060  -11.2433 C   0  0  0  0  0  0  0  0  0  0  0  0
   23.6912  -21.0142  -10.0730 C   0  0  0  0  0  0  0  0  0  0  0  0
   25.1139  -21.3034  -10.0208 C   0  0  0  0  0  0  0  0  0  0  0  0
   26.0459  -20.1798   -9.7420 C   0  0  2  0  0  0  0  0  0  0  0  0
   26.9202  -20.1052  -10.9416 N   0  0  0  0  0  0  0  0  0  0  0  0
   26.9483  -20.3745   -8.5936 C   0  0  0  0  0  0  0  0  0  0  0  0
   27.8049  -21.3285   -8.6192 O   0  0  0  0  0  0  0  0  0  0  0  0
   22.9606  -20.9366   -8.8992 C   0  0  0  0  0  0  0  0  0  0  0  0
   21.6097  -20.6666   -8.8702 C   0  0  0  0  0  0  0  0  0  0  0  0
   27.5453  -17.8042   -5.1274 C   0  0  0  0  0  0  0  0  0  0  0  0
   28.5664  -18.6780   -5.7996 C   0  0  1  0  0  0  0  0  0  0  0  0
   29.5158  -19.1668   -4.6980 C   0  0  0  0  0  0  0  0  0  0  0  0
   27.8493  -19.9274   -6.2987 C   0  0  2  0  0  0  0  0  0  0  0  0
   26.9757  -19.5848   -7.4171 N   0  0  0  0  0  0  0  0  0  0  0  0
   27.1739  -20.6441   -5.2191 C   0  0  0  0  0  0  0  0  0  0  0  0
   27.8362  -21.3335   -4.2192 O   0  0  0  0  0  0  0  0  0  0  0  0
   25.9215  -20.6538   -5.1689 O   0  0  0  0  0  0  0  0  0  0  0  0
  2  1  1  1
  2  4  1  0
  3  2  1  0
  5  4  1  0
  5  6  1  6
  7  8  2  0
  7  5  1  0
  9 10  1  0
 10 11  2  0
 11 12  1  0
 13 12  2  0
 13 14  1  0
 15 14  1  6
 15 16  1  0
 16  7  1  0
 17 18  2  0
 17 15  1  0
 19 13  1  0
 20 10  1  0
 20 19  2  0
 22 21  1  1
 23 22  1  0
 24 25  1  6
 24 22  1  0
 25 17  1  0
 26 24  1  0
 27 26  1  0
 28 26  2  0
M  END
$$$$
