LYV.pdb
     RDKit          3D

 28 28  0  0  1  0  0  0  0  0999 V2000
   14.6704   -9.0275   -9.1218 C   0  0  0  0  0  0  0  0  0  0  0  0
   14.3664   -9.3148  -10.5749 C   0  0  1  0  0  0  0  0  0  0  0  0
   13.3554   -8.3685  -11.1330 C   0  0  0  0  0  0  0  0  0  0  0  0
   15.5880   -9.3839  -11.4253 C   0  0  0  0  0  0  0  0  0  0  0  0
   15.3166   -9.7307  -12.8603 C   0  0  2  0  0  0  0  0  0  0  0  0
   15.0609  -11.1490  -13.0128 N   0  0  0  0  0  0  0  0  0  0  0  0
   16.4678   -9.3675  -13.7184 C   0  0  0  0  0  0  0  0  0  0  0  0
   17.3425  -10.2440  -13.9284 O   0  0  0  0  0  0  0  0  0  0  0  0
   15.3174  -11.2781  -20.1093 O   0  0  0  0  0  0  0  0  0  0  0  0
   15.7774  -10.3076  -19.2279 C   0  0  0  0  0  0  0  0  0  0  0  0
   17.1180   -9.9292  -19.1737 C   0  0  0  0  0  0  0  0  0  0  0  0
   17.5180   -8.9571  -18.2757 C   0  0  0  0  0  0  0  0  0  0  0  0
   16.6318   -8.3417  -17.4231 C   0  0  0  0  0  0  0  0  0  0  0  0
   17.0160   -7.3171  -16.4676 C   0  0  0  0  0  0  0  0  0  0  0  0
   17.6843   -7.7476  -15.2120 C   0  0  2  0  0  0  0  0  0  0  0  0
   16.5716   -8.0698  -14.2808 N   0  0  0  0  0  0  0  0  0  0  0  0
   18.4920   -6.7161  -14.5376 C   0  0  0  0  0  0  0  0  0  0  0  0
   17.9053   -5.7975  -13.8619 O   0  0  0  0  0  0  0  0  0  0  0  0
   15.3096   -8.7444  -17.5069 C   0  0  0  0  0  0  0  0  0  0  0  0
   14.8711   -9.7091  -18.3878 C   0  0  0  0  0  0  0  0  0  0  0  0
   21.7447   -7.3944  -12.6180 C   0  0  0  0  0  0  0  0  0  0  0  0
   21.9674   -6.1016  -13.3509 C   0  0  1  0  0  0  0  0  0  0  0  0
   22.7207   -6.4545  -14.6400 C   0  0  0  0  0  0  0  0  0  0  0  0
   20.6061   -5.5876  -13.8061 C   0  0  2  0  0  0  0  0  0  0  0  0
   19.9065   -6.6293  -14.5522 N   0  0  0  0  0  0  0  0  0  0  0  0
   20.7069   -4.3162  -14.5194 C   0  0  0  0  0  0  0  0  0  0  0  0
   20.8142   -3.0874  -13.8930 O   0  0  0  0  0  0  0  0  0  0  0  0
   20.6979   -4.3052  -15.7727 O   0  0  0  0  0  0  0  0  0  0  0  0
  2  1  1  1
  2  4  1  0
  3  2  1  0
  5  4  1  0
  5  6  1  1
  7  8  2  0
  7  5  1  0
  9 10  1  0
 10 11  2  0
 11 12  1  0
 13 12  2  0
 13 14  1  0
 15 14  1  6
 15 16  1  0
 16  7  1  0
 17 18  2  0
 17 15  1  0
 19 13  1  0
 20 10  1  0
 20 19  2  0
 22 21  1  1
 23 22  1  0
 24 25  1  6
 24 22  1  0
 25 17  1  0
 26 24  1  0
 27 26  1  0
 28 26  2  0
M  END
$$$$
