LYV.pdb
     RDKit          3D

 28 28  0  0  1  0  0  0  0  0999 V2000
   31.0603  -23.0074  -19.0825 C   0  0  0  0  0  0  0  0  0  0  0  0
   29.9517  -22.0325  -18.7556 C   0  0  1  0  0  0  0  0  0  0  0  0
   28.9827  -21.8883  -19.8823 C   0  0  0  0  0  0  0  0  0  0  0  0
   29.2635  -22.3392  -17.4701 C   0  0  0  0  0  0  0  0  0  0  0  0
   28.1414  -21.3997  -17.1366 C   0  0  2  0  0  0  0  0  0  0  0  0
   28.6098  -20.0294  -17.0813 N   0  0  0  0  0  0  0  0  0  0  0  0
   27.5375  -21.7413  -15.8280 C   0  0  0  0  0  0  0  0  0  0  0  0
   27.0805  -22.9015  -15.6779 O   0  0  0  0  0  0  0  0  0  0  0  0
   25.8176  -20.3349   -7.1281 O   0  0  0  0  0  0  0  0  0  0  0  0
   26.2318  -20.3153   -8.4541 C   0  0  0  0  0  0  0  0  0  0  0  0
   25.5804  -19.5555   -9.4245 C   0  0  0  0  0  0  0  0  0  0  0  0
   26.0378  -19.5752  -10.7289 C   0  0  0  0  0  0  0  0  0  0  0  0
   27.1251  -20.3258  -11.1101 C   0  0  0  0  0  0  0  0  0  0  0  0
   27.6334  -20.3707  -12.4702 C   0  0  0  0  0  0  0  0  0  0  0  0
   26.8588  -21.1368  -13.4810 C   0  0  2  0  0  0  0  0  0  0  0  0
   27.4810  -20.7836  -14.7837 N   0  0  0  0  0  0  0  0  0  0  0  0
   25.4359  -20.7727  -13.5990 C   0  0  0  0  0  0  0  0  0  0  0  0
   25.1130  -19.6598  -14.1484 O   0  0  0  0  0  0  0  0  0  0  0  0
   27.7452  -21.0668  -10.1181 C   0  0  0  0  0  0  0  0  0  0  0  0
   27.3203  -21.0741   -8.8074 C   0  0  0  0  0  0  0  0  0  0  0  0
   22.2294  -23.3549  -13.9535 C   0  0  0  0  0  0  0  0  0  0  0  0
   22.2952  -21.9340  -14.4382 C   0  0  1  0  0  0  0  0  0  0  0  0
   20.8484  -21.4276  -14.5036 C   0  0  0  0  0  0  0  0  0  0  0  0
   22.9649  -21.1042  -13.3486 C   0  0  2  0  0  0  0  0  0  0  0  0
   24.3401  -21.5549  -13.1562 N   0  0  0  0  0  0  0  0  0  0  0  0
   22.1767  -21.0698  -12.1186 C   0  0  0  0  0  0  0  0  0  0  0  0
   21.0357  -20.3047  -11.9554 O   0  0  0  0  0  0  0  0  0  0  0  0
   22.5296  -21.7628  -11.1356 O   0  0  0  0  0  0  0  0  0  0  0  0
  2  1  1  6
  2  4  1  0
  3  2  1  0
  5  4  1  0
  5  6  1  1
  7  8  2  0
  7  5  1  0
  9 10  1  0
 10 11  2  0
 11 12  1  0
 13 12  2  0
 13 14  1  0
 15 14  1  1
 15 16  1  0
 16  7  1  0
 17 18  2  0
 17 15  1  0
 19 13  1  0
 20 10  1  0
 20 19  2  0
 22 21  1  1
 23 22  1  0
 24 25  1  1
 24 22  1  0
 25 17  1  0
 26 24  1  0
 27 26  1  0
 28 26  2  0
M  END
$$$$
