QIT.pdb
     RDKit          3D

 25 24  0  0  1  0  0  0  0  0999 V2000
   11.8409  -18.9105   16.6375 N   0  0  0  0  0  0  0  0  0  0  0  0
   10.8768  -19.8315   16.1435 C   0  0  0  0  0  0  0  0  0  0  0  0
   11.1273  -20.4019   15.0521 O   0  0  0  0  0  0  0  0  0  0  0  0
    9.6308  -20.0874   16.9126 C   0  0  0  0  0  0  0  0  0  0  0  0
    9.7387  -19.3208   18.2109 C   0  0  0  0  0  0  0  0  0  0  0  0
    9.1678  -17.9335   18.0973 C   0  0  2  0  0  0  0  0  0  0  0  0
    9.7178  -17.3291   16.8978 N   0  0  0  0  0  0  0  0  0  0  0  0
    9.4719  -17.1123   19.3057 C   0  0  0  0  0  0  0  0  0  0  0  0
   10.6396  -17.1727   19.7488 O   0  0  0  0  0  0  0  0  0  0  0  0
    7.2333  -12.1701   19.6868 C   0  0  0  0  0  0  0  0  0  0  0  0
    8.1473  -13.3870   19.8552 C   0  0  0  0  0  0  0  0  0  0  0  0
    7.7742  -14.2082   21.0710 C   0  0  2  0  0  0  0  0  0  0  0  0
    8.0380  -13.4123   22.3430 C   0  0  0  0  0  0  0  0  0  0  0  0
    8.6523  -15.4490   21.0737 C   0  0  2  0  0  0  0  0  0  0  0  0
    8.5044  -16.3004   19.9329 N   0  0  0  0  0  0  0  0  0  0  0  0
    8.7402  -16.1517   22.3398 C   0  0  0  0  0  0  0  0  0  0  0  0
    7.7224  -16.4925   22.9801 O   0  0  0  0  0  0  0  0  0  0  0  0
   10.1380  -19.4202   23.2135 C   0  0  0  0  0  0  0  0  0  0  0  0
   10.8858  -18.4574   24.1101 C   0  0  1  0  0  0  0  0  0  0  0  0
   12.1222  -18.1785   23.5097 O   0  0  0  0  0  0  0  0  0  0  0  0
   10.1187  -17.1547   24.2011 C   0  0  2  0  0  0  0  0  0  0  0  0
   10.0148  -16.4955   22.9289 N   0  0  0  0  0  0  0  0  0  0  0  0
   10.7385  -16.3032   25.2381 C   0  0  0  0  0  0  0  0  0  0  0  0
   10.7455  -16.7325   26.5562 O   0  0  0  0  0  0  0  0  0  0  0  0
   11.2617  -15.1913   24.9448 O   0  0  0  0  0  0  0  0  0  0  0  0
  2  1  1  0
  3  2  2  0
  4  2  1  0
  5  4  1  0
  6  5  1  0
  6  7  1  6
  8  6  1  0
  9  8  2  0
 10 11  1  0
 12 14  1  0
 12 11  1  0
 12 13  1  1
 14 15  1  6
 15  8  1  0
 16 17  2  0
 16 14  1  0
 19 18  1  6
 19 21  1  0
 19 20  1  0
 21 22  1  6
 22 16  1  0
 23 21  1  0
 24 23  1  0
 25 23  2  0
M  END
$$$$
