QIT.pdb
     RDKit          3D

 25 24  0  0  1  0  0  0  0  0999 V2000
    5.2476  -17.2079   18.7356 N   0  0  0  0  0  0  0  0  0  0  0  0
    5.9263  -17.6740   19.8950 C   0  0  0  0  0  0  0  0  0  0  0  0
    5.2307  -17.9251   20.9110 O   0  0  0  0  0  0  0  0  0  0  0  0
    7.4025  -17.8467   19.8731 C   0  0  0  0  0  0  0  0  0  0  0  0
    7.9298  -17.3766   21.2093 C   0  0  0  0  0  0  0  0  0  0  0  0
    7.8364  -15.8827   21.3600 C   0  0  2  0  0  0  0  0  0  0  0  0
    8.4853  -15.2835   20.2083 N   0  0  0  0  0  0  0  0  0  0  0  0
    8.4584  -15.4178   22.6345 C   0  0  0  0  0  0  0  0  0  0  0  0
    9.7079  -15.4099   22.6817 O   0  0  0  0  0  0  0  0  0  0  0  0
    6.0917  -11.5793   25.6560 C   0  0  0  0  0  0  0  0  0  0  0  0
    7.1229  -12.5408   25.0588 C   0  0  0  0  0  0  0  0  0  0  0  0
    7.2607  -13.8028   25.8835 C   0  0  2  0  0  0  0  0  0  0  0  0
    7.9547  -13.4936   27.2041 C   0  0  0  0  0  0  0  0  0  0  0  0
    8.1177  -14.7771   25.0916 C   0  0  2  0  0  0  0  0  0  0  0  0
    7.6928  -15.0030   23.7438 N   0  0  0  0  0  0  0  0  0  0  0  0
    8.5234  -15.9752   25.8020 C   0  0  0  0  0  0  0  0  0  0  0  0
    7.6967  -16.8327   26.1803 O   0  0  0  0  0  0  0  0  0  0  0  0
   12.0622  -19.2954   26.5521 C   0  0  0  0  0  0  0  0  0  0  0  0
   11.6729  -17.9392   26.0054 C   0  0  1  0  0  0  0  0  0  0  0  0
   11.4755  -18.0702   24.6231 O   0  0  0  0  0  0  0  0  0  0  0  0
   10.3550  -17.5095   26.6156 C   0  0  2  0  0  0  0  0  0  0  0  0
    9.9107  -16.2402   26.1103 N   0  0  0  0  0  0  0  0  0  0  0  0
   10.4782  -17.5280   28.0883 C   0  0  0  0  0  0  0  0  0  0  0  0
   10.5688  -18.7437   28.7483 O   0  0  0  0  0  0  0  0  0  0  0  0
   10.5023  -16.4559   28.7562 O   0  0  0  0  0  0  0  0  0  0  0  0
  2  1  1  0
  3  2  2  0
  4  2  1  0
  5  4  1  0
  6  5  1  0
  6  7  1  6
  8  6  1  0
  9  8  2  0
 10 11  1  0
 12 14  1  0
 12 11  1  0
 12 13  1  1
 14 15  1  6
 15  8  1  0
 16 17  2  0
 16 14  1  0
 19 18  1  1
 19 21  1  0
 19 20  1  0
 21 22  1  6
 22 16  1  0
 23 21  1  0
 24 23  1  0
 25 23  2  0
M  END
$$$$
