QIT.pdb
     RDKit          3D

 25 24  0  0  1  0  0  0  0  0999 V2000
   14.3337  -13.7370   17.3819 N   0  0  0  0  0  0  0  0  0  0  0  0
   14.2515  -15.1091   17.0179 C   0  0  0  0  0  0  0  0  0  0  0  0
   14.3739  -15.3930   15.7999 O   0  0  0  0  0  0  0  0  0  0  0  0
   14.0288  -16.1432   18.0622 C   0  0  0  0  0  0  0  0  0  0  0  0
   12.7781  -16.9026   17.6831 C   0  0  0  0  0  0  0  0  0  0  0  0
   11.9298  -17.2292   18.8818 C   0  0  2  0  0  0  0  0  0  0  0  0
   10.8087  -18.0281   18.4221 N   0  0  0  0  0  0  0  0  0  0  0  0
   11.4648  -15.9950   19.5801 C   0  0  0  0  0  0  0  0  0  0  0  0
   12.3487  -15.2532   20.0620 O   0  0  0  0  0  0  0  0  0  0  0  0
    9.1646  -11.5376   20.2168 C   0  0  0  0  0  0  0  0  0  0  0  0
    8.1106  -12.5997   20.5417 C   0  0  0  0  0  0  0  0  0  0  0  0
    8.3545  -13.8865   19.7824 C   0  0  2  0  0  0  0  0  0  0  0  0
    7.1105  -14.7651   19.8255 C   0  0  0  0  0  0  0  0  0  0  0  0
    9.4978  -14.6153   20.4697 C   0  0  2  0  0  0  0  0  0  0  0  0
   10.0998  -15.6621   19.7017 N   0  0  0  0  0  0  0  0  0  0  0  0
    9.2823  -14.9431   21.8664 C   0  0  0  0  0  0  0  0  0  0  0  0
    8.1497  -14.8899   22.3919 O   0  0  0  0  0  0  0  0  0  0  0  0
    8.2062  -17.1856   22.8132 C   0  0  0  0  0  0  0  0  0  0  0  0
    9.4703  -17.4540   23.6006 C   0  0  1  0  0  0  0  0  0  0  0  0
   10.3330  -18.2069   22.7907 O   0  0  0  0  0  0  0  0  0  0  0  0
   10.1614  -16.1415   23.9065 C   0  0  2  0  0  0  0  0  0  0  0  0
   10.3710  -15.3500   22.7261 N   0  0  0  0  0  0  0  0  0  0  0  0
   11.4142  -16.4174   24.6406 C   0  0  0  0  0  0  0  0  0  0  0  0
   12.6293  -16.0851   24.0619 O   0  0  0  0  0  0  0  0  0  0  0  0
   11.3973  -16.9505   25.7858 O   0  0  0  0  0  0  0  0  0  0  0  0
  2  1  1  0
  3  2  2  0
  4  2  1  0
  5  4  1  0
  6  5  1  0
  6  7  1  6
  8  6  1  0
  9  8  2  0
 10 11  1  0
 12 14  1  0
 12 11  1  0
 12 13  1  1
 14 15  1  6
 15  8  1  0
 16 17  2  0
 16 14  1  0
 19 18  1  6
 19 21  1  0
 19 20  1  0
 21 22  1  6
 22 16  1  0
 23 21  1  0
 24 23  1  0
 25 23  2  0
M  END
$$$$
