QIT.pdb
     RDKit          3D

 25 24  0  0  1  0  0  0  0  0999 V2000
    8.6136  -11.8911   18.9734 N   0  0  0  0  0  0  0  0  0  0  0  0
    8.1569  -13.2315   18.8446 C   0  0  0  0  0  0  0  0  0  0  0  0
    8.0071  -13.6825   17.6812 O   0  0  0  0  0  0  0  0  0  0  0  0
    7.8766  -14.0412   20.0591 C   0  0  0  0  0  0  0  0  0  0  0  0
    8.7993  -15.2380   20.0241 C   0  0  0  0  0  0  0  0  0  0  0  0
    8.6046  -16.1369   21.2146 C   0  0  2  0  0  0  0  0  0  0  0  0
    7.2151  -16.5563   21.2258 N   0  0  0  0  0  0  0  0  0  0  0  0
    8.9737  -15.4519   22.4880 C   0  0  0  0  0  0  0  0  0  0  0  0
   10.1399  -15.0087   22.5720 O   0  0  0  0  0  0  0  0  0  0  0  0
    7.5556  -11.8068   27.0750 C   0  0  0  0  0  0  0  0  0  0  0  0
    8.1743  -13.1307   26.6177 C   0  0  0  0  0  0  0  0  0  0  0  0
    7.5514  -13.6293   25.3312 C   0  0  2  0  0  0  0  0  0  0  0  0
    6.0962  -14.0139   25.5672 C   0  0  0  0  0  0  0  0  0  0  0  0
    8.3241  -14.8638   24.8956 C   0  0  2  0  0  0  0  0  0  0  0  0
    8.0667  -15.3006   23.5573 N   0  0  0  0  0  0  0  0  0  0  0  0
    8.3982  -15.9337   25.8725 C   0  0  0  0  0  0  0  0  0  0  0  0
    7.3750  -16.4988   26.3146 O   0  0  0  0  0  0  0  0  0  0  0  0
    9.6594  -19.1924   25.5039 C   0  0  0  0  0  0  0  0  0  0  0  0
   10.4540  -18.7025   26.6949 C   0  0  1  0  0  0  0  0  0  0  0  0
   11.7066  -18.2734   26.2326 O   0  0  0  0  0  0  0  0  0  0  0  0
    9.7584  -17.5040   27.3060 C   0  0  2  0  0  0  0  0  0  0  0  0
    9.6648  -16.4035   26.3873 N   0  0  0  0  0  0  0  0  0  0  0  0
   10.4419  -17.1417   28.5654 C   0  0  0  0  0  0  0  0  0  0  0  0
   10.4925  -18.0617   29.6012 O   0  0  0  0  0  0  0  0  0  0  0  0
   10.9807  -16.0088   28.7148 O   0  0  0  0  0  0  0  0  0  0  0  0
  2  1  1  0
  3  2  2  0
  4  2  1  0
  5  4  1  0
  6  5  1  0
  6  7  1  1
  8  6  1  0
  9  8  2  0
 10 11  1  0
 12 14  1  0
 12 11  1  0
 12 13  1  1
 14 15  1  6
 15  8  1  0
 16 17  2  0
 16 14  1  0
 19 18  1  6
 19 21  1  0
 19 20  1  0
 21 22  1  6
 22 16  1  0
 23 21  1  0
 24 23  1  0
 25 23  2  0
M  END
$$$$
