QIT.pdb
     RDKit          3D

 25 24  0  0  1  0  0  0  0  0999 V2000
    8.2191  -15.6613   17.0849 N   0  0  0  0  0  0  0  0  0  0  0  0
    9.4659  -15.9960   17.6811 C   0  0  0  0  0  0  0  0  0  0  0  0
   10.5022  -15.4988   17.1731 O   0  0  0  0  0  0  0  0  0  0  0  0
    9.5073  -16.9017   18.8589 C   0  0  0  0  0  0  0  0  0  0  0  0
    9.4838  -16.0325   20.0953 C   0  0  0  0  0  0  0  0  0  0  0  0
    8.8882  -16.7473   21.2775 C   0  0  2  0  0  0  0  0  0  0  0  0
    7.4534  -16.8180   21.0710 N   0  0  0  0  0  0  0  0  0  0  0  0
    9.2172  -16.0589   22.5601 C   0  0  0  0  0  0  0  0  0  0  0  0
   10.4283  -15.9740   22.8596 O   0  0  0  0  0  0  0  0  0  0  0  0
    7.2424  -11.7752   26.5620 C   0  0  0  0  0  0  0  0  0  0  0  0
    7.9286  -13.1159   26.2859 C   0  0  0  0  0  0  0  0  0  0  0  0
    7.5319  -13.6856   24.9406 C   0  0  2  0  0  0  0  0  0  0  0  0
    6.0620  -14.0860   24.9529 C   0  0  0  0  0  0  0  0  0  0  0  0
    8.3792  -14.9243   24.6990 C   0  0  2  0  0  0  0  0  0  0  0  0
    8.2261  -15.5227   23.4080 N   0  0  0  0  0  0  0  0  0  0  0  0
    8.4324  -15.8710   25.7970 C   0  0  0  0  0  0  0  0  0  0  0  0
    7.4045  -16.2361   26.4069 O   0  0  0  0  0  0  0  0  0  0  0  0
    9.3845  -19.3061   25.6390 C   0  0  0  0  0  0  0  0  0  0  0  0
   10.3025  -18.7666   26.7142 C   0  0  1  0  0  0  0  0  0  0  0  0
   11.5406  -18.4786   26.1217 O   0  0  0  0  0  0  0  0  0  0  0  0
    9.7404  -17.4667   27.2509 C   0  0  2  0  0  0  0  0  0  0  0  0
    9.6823  -16.4434   26.2442 N   0  0  0  0  0  0  0  0  0  0  0  0
   10.5212  -17.0586   28.4376 C   0  0  0  0  0  0  0  0  0  0  0  0
   10.5708  -17.8968   29.5407 O   0  0  0  0  0  0  0  0  0  0  0  0
   11.1441  -15.9598   28.4646 O   0  0  0  0  0  0  0  0  0  0  0  0
  2  1  1  0
  3  2  2  0
  4  2  1  0
  5  4  1  0
  6  5  1  0
  6  7  1  6
  8  6  1  0
  9  8  2  0
 10 11  1  0
 12 14  1  0
 12 11  1  0
 12 13  1  1
 14 15  1  6
 15  8  1  0
 16 17  2  0
 16 14  1  0
 19 18  1  6
 19 21  1  0
 19 20  1  0
 21 22  1  6
 22 16  1  0
 23 21  1  0
 24 23  1  0
 25 23  2  0
M  END
$$$$
