QIT.pdb
     RDKit          3D

 25 24  0  0  1  0  0  0  0  0999 V2000
   10.1331  -19.8271   21.1147 N   0  0  0  0  0  0  0  0  0  0  0  0
    9.2905  -19.4056   20.0497 C   0  0  0  0  0  0  0  0  0  0  0  0
    8.8117  -20.2961   19.3034 O   0  0  0  0  0  0  0  0  0  0  0  0
    9.0068  -17.9597   19.8539 C   0  0  0  0  0  0  0  0  0  0  0  0
    9.5803  -17.2241   21.0433 C   0  0  0  0  0  0  0  0  0  0  0  0
    8.7069  -16.0773   21.4736 C   0  0  2  0  0  0  0  0  0  0  0  0
    9.0283  -14.9401   20.6310 N   0  0  0  0  0  0  0  0  0  0  0  0
    8.8970  -15.7520   22.9176 C   0  0  0  0  0  0  0  0  0  0  0  0
   10.0663  -15.8038   23.3577 O   0  0  0  0  0  0  0  0  0  0  0  0
    6.6854  -11.4949   25.2243 C   0  0  0  0  0  0  0  0  0  0  0  0
    7.4806  -12.7508   24.8570 C   0  0  0  0  0  0  0  0  0  0  0  0
    7.0037  -13.9647   25.6257 C   0  0  2  0  0  0  0  0  0  0  0  0
    7.2130  -13.7551   27.1201 C   0  0  0  0  0  0  0  0  0  0  0  0
    7.8377  -15.1519   25.1719 C   0  0  2  0  0  0  0  0  0  0  0  0
    7.8240  -15.4006   23.7626 N   0  0  0  0  0  0  0  0  0  0  0  0
    7.7305  -16.3432   25.9928 C   0  0  0  0  0  0  0  0  0  0  0  0
    6.6507  -16.6914   26.5168 O   0  0  0  0  0  0  0  0  0  0  0  0
    7.8538  -19.8461   25.4536 C   0  0  0  0  0  0  0  0  0  0  0  0
    8.9970  -19.6334   26.4220 C   0  0  1  0  0  0  0  0  0  0  0  0
   10.1826  -19.5420   25.6786 O   0  0  0  0  0  0  0  0  0  0  0  0
    8.8078  -18.3149   27.1429 C   0  0  2  0  0  0  0  0  0  0  0  0
    8.8720  -17.1927   26.2483 N   0  0  0  0  0  0  0  0  0  0  0  0
    9.7878  -18.2248   28.2456 C   0  0  0  0  0  0  0  0  0  0  0  0
   10.6936  -17.1756   28.2668 O   0  0  0  0  0  0  0  0  0  0  0  0
    9.8148  -19.0867   29.1688 O   0  0  0  0  0  0  0  0  0  0  0  0
  2  1  1  0
  3  2  2  0
  4  2  1  0
  5  4  1  0
  6  5  1  0
  6  7  1  6
  8  6  1  0
  9  8  2  0
 10 11  1  0
 12 14  1  0
 12 11  1  0
 12 13  1  1
 14 15  1  6
 15  8  1  0
 16 17  2  0
 16 14  1  0
 19 18  1  6
 19 21  1  0
 19 20  1  0
 21 22  1  6
 22 16  1  0
 23 21  1  0
 24 23  1  0
 25 23  2  0
M  END
$$$$
