QIT.pdb
     RDKit          3D

 25 24  0  0  1  0  0  0  0  0999 V2000
   10.5378  -16.4409   18.4422 N   0  0  0  0  0  0  0  0  0  0  0  0
   10.1856  -17.7401   18.9003 C   0  0  0  0  0  0  0  0  0  0  0  0
    9.8384  -18.5840   18.0362 O   0  0  0  0  0  0  0  0  0  0  0  0
   10.2365  -18.0556   20.3519 C   0  0  0  0  0  0  0  0  0  0  0  0
   10.7957  -16.8409   21.0565 C   0  0  0  0  0  0  0  0  0  0  0  0
    9.7142  -15.8829   21.4759 C   0  0  2  0  0  0  0  0  0  0  0  0
    9.7852  -14.7288   20.5986 N   0  0  0  0  0  0  0  0  0  0  0  0
    9.8561  -15.4846   22.9071 C   0  0  0  0  0  0  0  0  0  0  0  0
   11.0195  -15.4165   23.3604 O   0  0  0  0  0  0  0  0  0  0  0  0
    7.1807  -12.0349   27.2732 C   0  0  0  0  0  0  0  0  0  0  0  0
    7.9971  -13.2666   26.8723 C   0  0  0  0  0  0  0  0  0  0  0  0
    7.8100  -13.6158   25.4111 C   0  0  2  0  0  0  0  0  0  0  0  0
    6.3676  -14.0319   25.1515 C   0  0  0  0  0  0  0  0  0  0  0  0
    8.7261  -14.7878   25.0984 C   0  0  2  0  0  0  0  0  0  0  0  0
    8.7455  -15.1943   23.7264 N   0  0  0  0  0  0  0  0  0  0  0  0
    8.6886  -15.8833   26.0487 C   0  0  0  0  0  0  0  0  0  0  0  0
    7.6120  -16.3588   26.4689 O   0  0  0  0  0  0  0  0  0  0  0  0
    9.9293  -19.2839   25.6724 C   0  0  0  0  0  0  0  0  0  0  0  0
   10.6175  -18.7975   26.9293 C   0  0  1  0  0  0  0  0  0  0  0  0
   11.9096  -18.3784   26.5806 O   0  0  0  0  0  0  0  0  0  0  0  0
    9.8787  -17.5929   27.4741 C   0  0  2  0  0  0  0  0  0  0  0  0
    9.8996  -16.4841   26.5608 N   0  0  0  0  0  0  0  0  0  0  0  0
   10.4298  -17.2510   28.8022 C   0  0  0  0  0  0  0  0  0  0  0  0
   10.3706  -18.1854   29.8246 O   0  0  0  0  0  0  0  0  0  0  0  0
   10.9536  -16.1226   29.0223 O   0  0  0  0  0  0  0  0  0  0  0  0
  2  1  1  0
  3  2  2  0
  4  2  1  0
  5  4  1  0
  6  5  1  0
  6  7  1  6
  8  6  1  0
  9  8  2  0
 10 11  1  0
 12 14  1  0
 12 11  1  0
 12 13  1  1
 14 15  1  6
 15  8  1  0
 16 17  2  0
 16 14  1  0
 19 18  1  6
 19 21  1  0
 19 20  1  0
 21 22  1  6
 22 16  1  0
 23 21  1  0
 24 23  1  0
 25 23  2  0
M  END
$$$$
