QIT.pdb
     RDKit          3D

 25 24  0  0  1  0  0  0  0  0999 V2000
   12.2465  -18.1829   16.6620 N   0  0  0  0  0  0  0  0  0  0  0  0
   11.2683  -19.1722   16.3680 C   0  0  0  0  0  0  0  0  0  0  0  0
   11.5100  -19.9613   15.4203 O   0  0  0  0  0  0  0  0  0  0  0  0
   10.0187  -19.2434   17.1699 C   0  0  0  0  0  0  0  0  0  0  0  0
   10.0943  -18.1563   18.2173 C   0  0  0  0  0  0  0  0  0  0  0  0
    9.0518  -18.3294   19.2880 C   0  0  2  0  0  0  0  0  0  0  0  0
    7.7510  -18.1687   18.6646 N   0  0  0  0  0  0  0  0  0  0  0  0
    9.2415  -17.3565   20.4037 C   0  0  0  0  0  0  0  0  0  0  0  0
   10.3003  -17.4532   21.0618 O   0  0  0  0  0  0  0  0  0  0  0  0
    7.4068  -12.2493   19.8886 C   0  0  0  0  0  0  0  0  0  0  0  0
    8.1702  -13.5003   20.3320 C   0  0  0  0  0  0  0  0  0  0  0  0
    7.5421  -14.1415   21.5510 C   0  0  2  0  0  0  0  0  0  0  0  0
    7.7016  -13.2324   22.7632 C   0  0  0  0  0  0  0  0  0  0  0  0
    8.2760  -15.4468   21.8125 C   0  0  2  0  0  0  0  0  0  0  0  0
    8.2858  -16.3681   20.7175 N   0  0  0  0  0  0  0  0  0  0  0  0
    8.0311  -16.0550   23.1066 C   0  0  0  0  0  0  0  0  0  0  0  0
    6.8975  -16.4581   23.4449 O   0  0  0  0  0  0  0  0  0  0  0  0
    7.5398  -18.6650   24.2622 C   0  0  0  0  0  0  0  0  0  0  0  0
    8.7109  -18.3821   25.1778 C   0  0  1  0  0  0  0  0  0  0  0  0
    9.8708  -18.8735   24.5613 O   0  0  0  0  0  0  0  0  0  0  0  0
    8.8773  -16.8850   25.3350 C   0  0  2  0  0  0  0  0  0  0  0  0
    9.0898  -16.2269   24.0758 N   0  0  0  0  0  0  0  0  0  0  0  0
    9.9576  -16.6208   26.3085 C   0  0  0  0  0  0  0  0  0  0  0  0
    9.7971  -17.0170   27.6272 O   0  0  0  0  0  0  0  0  0  0  0  0
   11.0243  -16.0403   25.9603 O   0  0  0  0  0  0  0  0  0  0  0  0
  2  1  1  0
  3  2  2  0
  4  2  1  0
  5  4  1  0
  6  5  1  0
  6  7  1  6
  8  6  1  0
  9  8  2  0
 10 11  1  0
 12 14  1  0
 12 11  1  0
 12 13  1  1
 14 15  1  6
 15  8  1  0
 16 17  2  0
 16 14  1  0
 19 18  1  6
 19 21  1  0
 19 20  1  0
 21 22  1  6
 22 16  1  0
 23 21  1  0
 24 23  1  0
 25 23  2  0
M  END
$$$$
