QIT.pdb
     RDKit          3D

 25 24  0  0  1  0  0  0  0  0999 V2000
    8.5773  -12.4372   18.2832 N   0  0  0  0  0  0  0  0  0  0  0  0
    8.2567  -13.7496   17.8396 C   0  0  0  0  0  0  0  0  0  0  0  0
    8.0660  -13.9139   16.6084 O   0  0  0  0  0  0  0  0  0  0  0  0
    8.1585  -14.8624   18.8201 C   0  0  0  0  0  0  0  0  0  0  0  0
    8.5108  -14.2979   20.1773 C   0  0  0  0  0  0  0  0  0  0  0  0
    8.5632  -15.3645   21.2370 C   0  0  2  0  0  0  0  0  0  0  0  0
    7.2769  -16.0367   21.2476 N   0  0  0  0  0  0  0  0  0  0  0  0
    8.8868  -14.7936   22.5773 C   0  0  0  0  0  0  0  0  0  0  0  0
   10.0576  -14.3900   22.7502 O   0  0  0  0  0  0  0  0  0  0  0  0
    6.8010  -11.0802   26.7894 C   0  0  0  0  0  0  0  0  0  0  0  0
    7.5185  -12.4131   26.5590 C   0  0  0  0  0  0  0  0  0  0  0  0
    7.0422  -13.0987   25.2961 C   0  0  2  0  0  0  0  0  0  0  0  0
    5.7102  -13.7943   25.5470 C   0  0  0  0  0  0  0  0  0  0  0  0
    8.0815  -14.1426   24.9208 C   0  0  2  0  0  0  0  0  0  0  0  0
    7.9336  -14.7041   23.6128 N   0  0  0  0  0  0  0  0  0  0  0  0
    8.4025  -15.1074   25.9555 C   0  0  0  0  0  0  0  0  0  0  0  0
    8.4350  -14.7951   27.1651 O   0  0  0  0  0  0  0  0  0  0  0  0
    6.6721  -18.5598   26.3081 C   0  0  0  0  0  0  0  0  0  0  0  0
    8.1690  -18.7821   26.3068 C   0  0  1  0  0  0  0  0  0  0  0  0
    8.5532  -19.1323   25.0042 O   0  0  0  0  0  0  0  0  0  0  0  0
    8.8709  -17.4865   26.6566 C   0  0  2  0  0  0  0  0  0  0  0  0
    8.7027  -16.4858   25.6396 N   0  0  0  0  0  0  0  0  0  0  0  0
   10.2912  -17.7727   26.9486 C   0  0  0  0  0  0  0  0  0  0  0  0
   10.6114  -18.6691   27.9565 O   0  0  0  0  0  0  0  0  0  0  0  0
   11.2184  -17.2151   26.2964 O   0  0  0  0  0  0  0  0  0  0  0  0
  2  1  1  0
  3  2  2  0
  4  2  1  0
  5  4  1  0
  6  5  1  0
  6  7  1  1
  8  6  1  0
  9  8  2  0
 10 11  1  0
 12 14  1  0
 12 11  1  0
 12 13  1  1
 14 15  1  6
 15  8  1  0
 16 17  2  0
 16 14  1  0
 19 18  1  6
 19 21  1  0
 19 20  1  0
 21 22  1  6
 22 16  1  0
 23 21  1  0
 24 23  1  0
 25 23  2  0
M  END
$$$$
