QIT.pdb
     RDKit          3D

 25 24  0  0  1  0  0  0  0  0999 V2000
   10.9761  -20.2479   17.6892 N   0  0  0  0  0  0  0  0  0  0  0  0
    9.5641  -20.2998   17.5305 C   0  0  0  0  0  0  0  0  0  0  0  0
    8.9367  -21.1534   18.2064 O   0  0  0  0  0  0  0  0  0  0  0  0
    8.8866  -19.3662   16.5929 C   0  0  0  0  0  0  0  0  0  0  0  0
    9.8971  -18.3136   16.1984 C   0  0  0  0  0  0  0  0  0  0  0  0
    9.3201  -16.9256   16.2577 C   0  0  2  0  0  0  0  0  0  0  0  0
    9.8037  -16.1988   15.0982 N   0  0  0  0  0  0  0  0  0  0  0  0
    9.6887  -16.2296   17.5253 C   0  0  0  0  0  0  0  0  0  0  0  0
   10.9067  -16.0272   17.7234 O   0  0  0  0  0  0  0  0  0  0  0  0
    6.9278  -11.9953   19.4825 C   0  0  0  0  0  0  0  0  0  0  0  0
    8.0047  -13.0518   19.2205 C   0  0  0  0  0  0  0  0  0  0  0  0
    7.9057  -14.2101   20.1901 C   0  0  2  0  0  0  0  0  0  0  0  0
    8.2295  -13.7410   21.6031 C   0  0  0  0  0  0  0  0  0  0  0  0
    8.9305  -15.2506   19.7683 C   0  0  2  0  0  0  0  0  0  0  0  0
    8.7263  -15.8117   18.4676 N   0  0  0  0  0  0  0  0  0  0  0  0
    9.2999  -16.2152   20.7869 C   0  0  0  0  0  0  0  0  0  0  0  0
    8.4503  -16.9273   21.3638 O   0  0  0  0  0  0  0  0  0  0  0  0
   11.5238  -19.1452   20.6515 C   0  0  0  0  0  0  0  0  0  0  0  0
   12.0892  -18.3144   21.7829 C   0  0  1  0  0  0  0  0  0  0  0  0
   13.1842  -17.5933   21.2850 O   0  0  0  0  0  0  0  0  0  0  0  0
   11.0509  -17.3103   22.2381 C   0  0  2  0  0  0  0  0  0  0  0  0
   10.6757  -16.4033   21.1891 N   0  0  0  0  0  0  0  0  0  0  0  0
   11.5494  -16.6161   23.4440 C   0  0  0  0  0  0  0  0  0  0  0  0
   11.7715  -17.3418   24.6040 O   0  0  0  0  0  0  0  0  0  0  0  0
   11.7767  -15.3733   23.4363 O   0  0  0  0  0  0  0  0  0  0  0  0
  2  1  1  0
  3  2  2  0
  4  2  1  0
  5  4  1  0
  6  5  1  0
  6  7  1  6
  8  6  1  0
  9  8  2  0
 10 11  1  0
 12 14  1  0
 12 11  1  0
 12 13  1  1
 14 15  1  6
 15  8  1  0
 16 17  2  0
 16 14  1  0
 19 18  1  6
 19 21  1  0
 19 20  1  0
 21 22  1  6
 22 16  1  0
 23 21  1  0
 24 23  1  0
 25 23  2  0
M  END
$$$$
