QIT.pdb
     RDKit          3D

 25 24  0  0  1  0  0  0  0  0999 V2000
   12.5520  -16.7064   15.1913 N   0  0  0  0  0  0  0  0  0  0  0  0
   11.9375  -17.9562   14.9044 C   0  0  0  0  0  0  0  0  0  0  0  0
   12.4736  -18.6764   14.0251 O   0  0  0  0  0  0  0  0  0  0  0  0
   10.7091  -18.3656   15.6344 C   0  0  0  0  0  0  0  0  0  0  0  0
   10.3610  -17.2478   16.5906 C   0  0  0  0  0  0  0  0  0  0  0  0
    9.8451  -17.7679   17.9045 C   0  0  2  0  0  0  0  0  0  0  0  0
    8.4437  -18.1005   17.7255 N   0  0  0  0  0  0  0  0  0  0  0  0
   10.0296  -16.7729   19.0013 C   0  0  0  0  0  0  0  0  0  0  0  0
   11.2063  -16.5164   19.3375 O   0  0  0  0  0  0  0  0  0  0  0  0
    6.9212  -12.3152   19.2880 C   0  0  0  0  0  0  0  0  0  0  0  0
    8.0293  -13.3599   19.4472 C   0  0  0  0  0  0  0  0  0  0  0  0
    7.8624  -14.1699   20.7152 C   0  0  2  0  0  0  0  0  0  0  0  0
    8.0129  -13.2708   21.9359 C   0  0  0  0  0  0  0  0  0  0  0  0
    8.9612  -15.2201   20.7368 C   0  0  2  0  0  0  0  0  0  0  0  0
    8.9434  -16.1405   19.6410 N   0  0  0  0  0  0  0  0  0  0  0  0
    9.2211  -15.8286   22.0278 C   0  0  0  0  0  0  0  0  0  0  0  0
    8.3139  -16.3585   22.7047 O   0  0  0  0  0  0  0  0  0  0  0  0
   11.7555  -18.5187   22.0860 C   0  0  0  0  0  0  0  0  0  0  0  0
   10.7656  -18.2216   23.1914 C   0  0  1  0  0  0  0  0  0  0  0  0
   11.0842  -19.0357   24.2880 O   0  0  0  0  0  0  0  0  0  0  0  0
   10.9206  -16.7811   23.6326 C   0  0  2  0  0  0  0  0  0  0  0  0
   10.5482  -15.8538   22.6004 N   0  0  0  0  0  0  0  0  0  0  0  0
   12.3008  -16.5728   24.1184 C   0  0  0  0  0  0  0  0  0  0  0  0
   12.7674  -17.3249   25.1854 O   0  0  0  0  0  0  0  0  0  0  0  0
   13.0628  -15.7216   23.5790 O   0  0  0  0  0  0  0  0  0  0  0  0
  2  1  1  0
  3  2  2  0
  4  2  1  0
  5  4  1  0
  6  5  1  0
  6  7  1  6
  8  6  1  0
  9  8  2  0
 10 11  1  0
 12 14  1  0
 12 11  1  0
 12 13  1  1
 14 15  1  6
 15  8  1  0
 16 17  2  0
 16 14  1  0
 19 18  1  6
 19 21  1  0
 19 20  1  0
 21 22  1  6
 22 16  1  0
 23 21  1  0
 24 23  1  0
 25 23  2  0
M  END
$$$$
