AMD.pdb
     RDKit          3D

 22 21  0  0  1  0  0  0  0  0999 V2000
    7.3362  -17.4424   20.0447 C   0  0  0  0  0  0  0  0  0  0  0  0
    7.6288  -15.9826   19.9659 C   0  0  2  0  0  0  0  0  0  0  0  0
    8.2923  -15.6870   18.7211 N   0  0  0  0  0  0  0  0  0  0  0  0
    8.3704  -15.4489   21.1408 C   0  0  0  0  0  0  0  0  0  0  0  0
    9.6287  -15.3964   21.1617 O   0  0  0  0  0  0  0  0  0  0  0  0
    6.8767  -11.8533   28.0624 C   0  0  0  0  0  0  0  0  0  0  0  0
    6.3509  -12.5356   26.4820 S   0  0  0  0  0  0  0  0  0  0  0  0
    7.7388  -13.3915   25.6414 C   0  0  0  0  0  0  0  0  0  0  0  0
    7.1849  -13.8637   24.3104 C   0  0  0  0  0  0  0  0  0  0  0  0
    8.2432  -14.5534   23.4686 C   0  0  2  0  0  0  0  0  0  0  0  0
    7.5951  -14.9988   22.2445 N   0  0  0  0  0  0  0  0  0  0  0  0
    8.7082  -15.7239   24.2775 C   0  0  0  0  0  0  0  0  0  0  0  0
    7.9765  -16.7249   24.4717 O   0  0  0  0  0  0  0  0  0  0  0  0
   10.0005  -15.7109   24.8396 N   0  0  0  0  0  0  0  0  0  0  0  0
   10.5961  -16.8645   25.5330 C   0  0  1  0  0  0  0  0  0  0  0  0
   12.1005  -16.7464   25.5217 C   0  0  0  0  0  0  0  0  0  0  0  0
   12.6022  -16.8290   24.1513 C   0  0  0  0  0  0  0  0  0  0  0  0
   12.2331  -17.8091   23.4268 O   0  0  0  0  0  0  0  0  0  0  0  0
   10.0545  -16.8069   26.9080 C   0  0  0  0  0  0  0  0  0  0  0  0
    9.8905  -17.8124   27.6186 O   0  0  0  0  0  0  0  0  0  0  0  0
   13.4524  -15.8871   23.6366 O   0  0  0  0  0  0  0  0  0  0  0  0
    9.6892  -15.5770   27.4916 O   0  0  0  0  0  0  0  0  0  0  0  0
  2  1  1  1
  3  2  1  0
  4 11  1  0
  4  2  1  0
  5  4  2  0
  6  7  1  0
  7  8  1  0
  8  9  1  0
 10  9  1  1
 10 11  1  0
 12 14  1  0
 12 10  1  0
 13 12  2  0
 15 14  1  0
 15 16  1  1
 17 16  1  0
 17 21  1  0
 18 17  2  0
 19 15  1  0
 20 19  2  0
 22 19  1  0
M  END
$$$$
