AMD.pdb
     RDKit          3D

 22 21  0  0  1  0  0  0  0  0999 V2000
    6.6739  -17.4421   20.0680 C   0  0  0  0  0  0  0  0  0  0  0  0
    7.1320  -16.0258   19.9834 C   0  0  2  0  0  0  0  0  0  0  0  0
    7.7722  -15.7976   18.7125 N   0  0  0  0  0  0  0  0  0  0  0  0
    7.9803  -15.5938   21.1275 C   0  0  0  0  0  0  0  0  0  0  0  0
    9.2374  -15.6591   21.0818 O   0  0  0  0  0  0  0  0  0  0  0  0
    7.0945  -11.6298   27.9491 C   0  0  0  0  0  0  0  0  0  0  0  0
    6.4250  -12.4534   26.4955 S   0  0  0  0  0  0  0  0  0  0  0  0
    7.7483  -13.3118   25.5587 C   0  0  0  0  0  0  0  0  0  0  0  0
    7.0707  -13.9002   24.3356 C   0  0  0  0  0  0  0  0  0  0  0  0
    8.0650  -14.5680   23.4029 C   0  0  2  0  0  0  0  0  0  0  0  0
    7.3089  -15.1023   22.2805 N   0  0  0  0  0  0  0  0  0  0  0  0
    8.6882  -15.6740   24.1959 C   0  0  0  0  0  0  0  0  0  0  0  0
    8.0472  -16.7082   24.5037 O   0  0  0  0  0  0  0  0  0  0  0  0
   10.0298  -15.5604   24.6121 N   0  0  0  0  0  0  0  0  0  0  0  0
   10.7832  -16.6612   25.2341 C   0  0  1  0  0  0  0  0  0  0  0  0
   12.2619  -16.3660   25.1744 C   0  0  0  0  0  0  0  0  0  0  0  0
   12.8166  -16.8259   23.9027 C   0  0  0  0  0  0  0  0  0  0  0  0
   12.1429  -17.6554   23.2101 O   0  0  0  0  0  0  0  0  0  0  0  0
   10.2944  -16.7204   26.6288 C   0  0  0  0  0  0  0  0  0  0  0  0
   10.2291  -17.7736   27.2840 O   0  0  0  0  0  0  0  0  0  0  0  0
   14.0322  -16.3907   23.4467 O   0  0  0  0  0  0  0  0  0  0  0  0
    9.8684  -15.5547   27.2969 O   0  0  0  0  0  0  0  0  0  0  0  0
  2  1  1  1
  3  2  1  0
  4 11  1  0
  4  2  1  0
  5  4  2  0
  6  7  1  0
  7  8  1  0
  8  9  1  0
 10  9  1  1
 10 11  1  0
 12 14  1  0
 12 10  1  0
 13 12  2  0
 15 14  1  0
 15 16  1  1
 17 16  1  0
 17 21  1  0
 18 17  2  0
 19 15  1  0
 20 19  2  0
 22 19  1  0
M  END
$$$$
