AMD.pdb
     RDKit          3D

 22 21  0  0  1  0  0  0  0  0999 V2000
    7.2129  -13.1926   19.7250 C   0  0  0  0  0  0  0  0  0  0  0  0
    7.7791  -14.3892   20.4108 C   0  0  2  0  0  0  0  0  0  0  0  0
    6.7526  -15.3881   20.5709 N   0  0  0  0  0  0  0  0  0  0  0  0
    8.4718  -14.0823   21.6919 C   0  0  0  0  0  0  0  0  0  0  0  0
    9.4813  -13.3303   21.7354 O   0  0  0  0  0  0  0  0  0  0  0  0
    7.1802  -10.8697   26.8818 C   0  0  0  0  0  0  0  0  0  0  0  0
    6.2673  -12.4063   26.6693 S   0  0  0  0  0  0  0  0  0  0  0  0
    6.5173  -13.0917   24.9860 C   0  0  0  0  0  0  0  0  0  0  0  0
    7.3778  -14.3276   25.1691 C   0  0  0  0  0  0  0  0  0  0  0  0
    8.5212  -14.3749   24.1716 C   0  0  2  0  0  0  0  0  0  0  0  0
    7.9439  -14.6769   22.8707 N   0  0  0  0  0  0  0  0  0  0  0  0
    9.4129  -15.4878   24.6263 C   0  0  0  0  0  0  0  0  0  0  0  0
    9.7795  -15.5937   25.8219 O   0  0  0  0  0  0  0  0  0  0  0  0
    9.8574  -16.4472   23.6946 N   0  0  0  0  0  0  0  0  0  0  0  0
   10.7863  -17.5378   24.0323 C   0  0  1  0  0  0  0  0  0  0  0  0
   10.7323  -18.6036   22.9654 C   0  0  0  0  0  0  0  0  0  0  0  0
    9.3997  -19.2022   22.9181 C   0  0  0  0  0  0  0  0  0  0  0  0
    8.7674  -19.3655   24.0114 O   0  0  0  0  0  0  0  0  0  0  0  0
   12.1188  -16.8997   24.0994 C   0  0  0  0  0  0  0  0  0  0  0  0
   13.1053  -17.4357   24.6308 O   0  0  0  0  0  0  0  0  0  0  0  0
    8.8243  -19.5888   21.7372 O   0  0  0  0  0  0  0  0  0  0  0  0
   12.3376  -15.6204   23.5496 O   0  0  0  0  0  0  0  0  0  0  0  0
  2  1  1  1
  3  2  1  0
  4 11  1  0
  4  2  1  0
  5  4  2  0
  6  7  1  0
  7  8  1  0
  8  9  1  0
 10  9  1  1
 10 11  1  0
 12 14  1  0
 12 10  1  0
 13 12  2  0
 15 14  1  0
 15 16  1  6
 17 16  1  0
 17 21  1  0
 18 17  2  0
 19 15  1  0
 20 19  2  0
 22 19  1  0
M  END
$$$$
