AMD.pdb
     RDKit          3D

 22 21  0  0  1  0  0  0  0  0999 V2000
    7.8437  -12.9711   19.4181 C   0  0  0  0  0  0  0  0  0  0  0  0
    7.9224  -14.2928   20.1035 C   0  0  2  0  0  0  0  0  0  0  0  0
    6.6107  -14.8869   20.1648 N   0  0  0  0  0  0  0  0  0  0  0  0
    8.5828  -14.2458   21.4365 C   0  0  0  0  0  0  0  0  0  0  0  0
    9.8151  -14.0149   21.5574 O   0  0  0  0  0  0  0  0  0  0  0  0
    6.9491  -10.9414   26.9290 C   0  0  0  0  0  0  0  0  0  0  0  0
    6.4271  -12.6589   27.0603 S   0  0  0  0  0  0  0  0  0  0  0  0
    7.6454  -13.7785   26.2679 C   0  0  0  0  0  0  0  0  0  0  0  0
    7.1802  -13.9429   24.8333 C   0  0  0  0  0  0  0  0  0  0  0  0
    8.3117  -14.3702   23.9160 C   0  0  2  0  0  0  0  0  0  0  0  0
    7.7603  -14.4743   22.5737 N   0  0  0  0  0  0  0  0  0  0  0  0
    8.7541  -15.7114   24.4121 C   0  0  0  0  0  0  0  0  0  0  0  0
    7.9520  -16.6694   24.5297 O   0  0  0  0  0  0  0  0  0  0  0  0
   10.1052  -15.9135   24.7582 N   0  0  0  0  0  0  0  0  0  0  0  0
   10.6507  -17.2153   25.1754 C   0  0  1  0  0  0  0  0  0  0  0  0
   12.1330  -17.2612   24.8962 C   0  0  0  0  0  0  0  0  0  0  0  0
   12.3974  -16.8730   23.5121 C   0  0  0  0  0  0  0  0  0  0  0  0
   11.8411  -17.5360   22.5779 O   0  0  0  0  0  0  0  0  0  0  0  0
   10.3651  -17.3045   26.6238 C   0  0  0  0  0  0  0  0  0  0  0  0
   10.2536  -18.3821   27.2314 O   0  0  0  0  0  0  0  0  0  0  0  0
   13.2226  -15.8252   23.2021 O   0  0  0  0  0  0  0  0  0  0  0  0
   10.2015  -16.1411   27.4026 O   0  0  0  0  0  0  0  0  0  0  0  0
  2  1  1  1
  3  2  1  0
  4 11  1  0
  4  2  1  0
  5  4  2  0
  6  7  1  0
  7  8  1  0
  8  9  1  0
 10  9  1  1
 10 11  1  0
 12 14  1  0
 12 10  1  0
 13 12  2  0
 15 14  1  0
 15 16  1  1
 17 16  1  0
 17 21  1  0
 18 17  2  0
 19 15  1  0
 20 19  2  0
 22 19  1  0
M  END
$$$$
