AMD.pdb
     RDKit          3D

 22 21  0  0  1  0  0  0  0  0999 V2000
    7.4801  -14.0180   19.6722 C   0  0  0  0  0  0  0  0  0  0  0  0
    7.6930  -15.1797   20.5820 C   0  0  2  0  0  0  0  0  0  0  0  0
    6.4197  -15.7306   20.9723 N   0  0  0  0  0  0  0  0  0  0  0  0
    8.5608  -14.8807   21.7537 C   0  0  0  0  0  0  0  0  0  0  0  0
    9.7732  -14.5676   21.6172 O   0  0  0  0  0  0  0  0  0  0  0  0
    6.7819  -11.9630   27.4837 C   0  0  0  0  0  0  0  0  0  0  0  0
    5.7029  -12.8556   26.3529 S   0  0  0  0  0  0  0  0  0  0  0  0
    6.6033  -14.2254   25.5291 C   0  0  0  0  0  0  0  0  0  0  0  0
    7.8961  -13.6185   25.0175 C   0  0  0  0  0  0  0  0  0  0  0  0
    8.7216  -14.6218   24.2324 C   0  0  2  0  0  0  0  0  0  0  0  0
    7.9611  -14.9642   23.0402 N   0  0  0  0  0  0  0  0  0  0  0  0
    8.8713  -15.8138   25.1253 C   0  0  0  0  0  0  0  0  0  0  0  0
    8.4750  -15.8009   26.3161 O   0  0  0  0  0  0  0  0  0  0  0  0
    9.4716  -16.9864   24.6245 N   0  0  0  0  0  0  0  0  0  0  0  0
   10.9132  -17.2664   24.7225 C   0  0  1  0  0  0  0  0  0  0  0  0
   11.6924  -16.1906   24.0064 C   0  0  0  0  0  0  0  0  0  0  0  0
   12.8458  -16.7736   23.3238 C   0  0  0  0  0  0  0  0  0  0  0  0
   12.6553  -17.7636   22.5457 O   0  0  0  0  0  0  0  0  0  0  0  0
   11.2040  -17.2774   26.1726 C   0  0  0  0  0  0  0  0  0  0  0  0
   11.8348  -18.1881   26.7343 O   0  0  0  0  0  0  0  0  0  0  0  0
   14.1124  -16.2851   23.5027 O   0  0  0  0  0  0  0  0  0  0  0  0
   10.7676  -16.2283   27.0066 O   0  0  0  0  0  0  0  0  0  0  0  0
  2  1  1  1
  3  2  1  0
  4 11  1  0
  4  2  1  0
  5  4  2  0
  6  7  1  0
  7  8  1  0
  8  9  1  0
 10  9  1  1
 10 11  1  0
 12 14  1  0
 12 10  1  0
 13 12  2  0
 15 14  1  0
 15 16  1  6
 17 16  1  0
 17 21  1  0
 18 17  2  0
 19 15  1  0
 20 19  2  0
 22 19  1  0
M  END
$$$$
