AMD.pdb
     RDKit          3D

 22 21  0  0  1  0  0  0  0  0999 V2000
    8.2777  -14.9982   19.0901 C   0  0  0  0  0  0  0  0  0  0  0  0
    8.1482  -15.9700   20.2134 C   0  0  2  0  0  0  0  0  0  0  0  0
    6.7718  -16.3752   20.3487 N   0  0  0  0  0  0  0  0  0  0  0  0
    8.7236  -15.4899   21.4994 C   0  0  0  0  0  0  0  0  0  0  0  0
    9.9397  -15.1799   21.6061 O   0  0  0  0  0  0  0  0  0  0  0  0
    7.0436  -11.3939   27.6865 C   0  0  0  0  0  0  0  0  0  0  0  0
    6.6678  -12.1977   26.1205 S   0  0  0  0  0  0  0  0  0  0  0  0
    7.4791  -13.8395   26.0132 C   0  0  0  0  0  0  0  0  0  0  0  0
    7.1016  -14.3966   24.6536 C   0  0  0  0  0  0  0  0  0  0  0  0
    8.3135  -14.9017   23.8916 C   0  0  2  0  0  0  0  0  0  0  0  0
    7.8385  -15.3959   22.6082 N   0  0  0  0  0  0  0  0  0  0  0  0
    8.8754  -16.0189   24.7141 C   0  0  0  0  0  0  0  0  0  0  0  0
    8.1825  -17.0141   25.0374 O   0  0  0  0  0  0  0  0  0  0  0  0
   10.2173  -15.9611   25.1410 N   0  0  0  0  0  0  0  0  0  0  0  0
   10.9038  -17.0748   25.8151 C   0  0  1  0  0  0  0  0  0  0  0  0
   12.3974  -16.9197   25.6657 C   0  0  0  0  0  0  0  0  0  0  0  0
   12.7953  -17.1797   24.2835 C   0  0  0  0  0  0  0  0  0  0  0  0
   12.1180  -18.0163   23.6030 O   0  0  0  0  0  0  0  0  0  0  0  0
   10.4845  -16.9835   27.2304 C   0  0  0  0  0  0  0  0  0  0  0  0
   10.2169  -15.9094   27.7941 O   0  0  0  0  0  0  0  0  0  0  0  0
   13.8697  -16.5519   23.7120 O   0  0  0  0  0  0  0  0  0  0  0  0
   10.3662  -18.1405   28.0267 O   0  0  0  0  0  0  0  0  0  0  0  0
  2  1  1  6
  3  2  1  0
  4 11  1  0
  4  2  1  0
  5  4  2  0
  6  7  1  0
  7  8  1  0
  8  9  1  0
 10  9  1  1
 10 11  1  0
 12 14  1  0
 12 10  1  0
 13 12  2  0
 15 14  1  0
 15 16  1  1
 17 16  1  0
 17 21  1  0
 18 17  2  0
 19 15  1  0
 20 19  2  0
 22 19  1  0
M  END
$$$$
