AMD.pdb
     RDKit          3D

 22 21  0  0  1  0  0  0  0  0999 V2000
    7.2485  -16.0219   19.3302 C   0  0  0  0  0  0  0  0  0  0  0  0
    7.7516  -16.6897   20.5646 C   0  0  2  0  0  0  0  0  0  0  0  0
    6.6624  -17.3527   21.2363 N   0  0  0  0  0  0  0  0  0  0  0  0
    8.5103  -15.7889   21.4747 C   0  0  0  0  0  0  0  0  0  0  0  0
    9.5884  -15.2432   21.1189 O   0  0  0  0  0  0  0  0  0  0  0  0
    6.7491  -11.2412   27.6715 C   0  0  0  0  0  0  0  0  0  0  0  0
    6.3705  -12.5626   26.5096 S   0  0  0  0  0  0  0  0  0  0  0  0
    7.8589  -13.0394   25.5489 C   0  0  0  0  0  0  0  0  0  0  0  0
    7.3844  -14.0668   24.5386 C   0  0  0  0  0  0  0  0  0  0  0  0
    8.5103  -14.5342   23.6340 C   0  0  2  0  0  0  0  0  0  0  0  0
    7.9648  -15.5694   22.7693 N   0  0  0  0  0  0  0  0  0  0  0  0
    9.5553  -15.1008   24.5436 C   0  0  0  0  0  0  0  0  0  0  0  0
   10.0385  -14.4338   25.4906 O   0  0  0  0  0  0  0  0  0  0  0  0
   10.0148  -16.4173   24.3395 N   0  0  0  0  0  0  0  0  0  0  0  0
   11.0827  -17.0381   25.1400 C   0  0  1  0  0  0  0  0  0  0  0  0
   10.7736  -18.4988   25.3590 C   0  0  0  0  0  0  0  0  0  0  0  0
   10.0149  -18.6734   26.5960 C   0  0  0  0  0  0  0  0  0  0  0  0
    9.0131  -19.4597   26.5889 O   0  0  0  0  0  0  0  0  0  0  0  0
   12.3152  -16.8545   24.3433 C   0  0  0  0  0  0  0  0  0  0  0  0
   12.3127  -16.6889   23.1122 O   0  0  0  0  0  0  0  0  0  0  0  0
   10.3529  -18.0154   27.7483 O   0  0  0  0  0  0  0  0  0  0  0  0
   13.5830  -16.8593   24.9592 O   0  0  0  0  0  0  0  0  0  0  0  0
  2  1  1  6
  3  2  1  0
  4 11  1  0
  4  2  1  0
  5  4  2  0
  6  7  1  0
  7  8  1  0
  8  9  1  0
 10  9  1  1
 10 11  1  0
 12 14  1  0
 12 10  1  0
 13 12  2  0
 15 14  1  0
 15 16  1  6
 17 16  1  0
 17 21  1  0
 18 17  2  0
 19 15  1  0
 20 19  2  0
 22 19  1  0
M  END
$$$$
