AMD.pdb
     RDKit          3D

 22 21  0  0  1  0  0  0  0  0999 V2000
    7.1758  -13.6609   19.9458 C   0  0  0  0  0  0  0  0  0  0  0  0
    7.9124  -14.7025   20.7174 C   0  0  2  0  0  0  0  0  0  0  0  0
    7.0922  -15.8802   20.8486 N   0  0  0  0  0  0  0  0  0  0  0  0
    8.4339  -14.2296   22.0288 C   0  0  0  0  0  0  0  0  0  0  0  0
    9.2820  -13.3018   22.1087 O   0  0  0  0  0  0  0  0  0  0  0  0
    5.9782  -10.8375   26.8992 C   0  0  0  0  0  0  0  0  0  0  0  0
    7.0227  -12.2895   26.6979 S   0  0  0  0  0  0  0  0  0  0  0  0
    6.2955  -13.4592   25.4861 C   0  0  0  0  0  0  0  0  0  0  0  0
    7.2213  -14.6609   25.4682 C   0  0  0  0  0  0  0  0  0  0  0  0
    8.3860  -14.4650   24.5146 C   0  0  2  0  0  0  0  0  0  0  0  0
    7.9326  -14.8728   23.1936 N   0  0  0  0  0  0  0  0  0  0  0  0
    9.4713  -15.3717   25.0050 C   0  0  0  0  0  0  0  0  0  0  0  0
    9.8979  -15.3134   26.1839 O   0  0  0  0  0  0  0  0  0  0  0  0
   10.0349  -16.3194   24.1274 N   0  0  0  0  0  0  0  0  0  0  0  0
   11.1374  -17.2192   24.5029 C   0  0  1  0  0  0  0  0  0  0  0  0
   10.6866  -18.6549   24.3887 C   0  0  0  0  0  0  0  0  0  0  0  0
   10.3711  -19.1907   25.7115 C   0  0  0  0  0  0  0  0  0  0  0  0
    9.4592  -20.0744   25.8078 O   0  0  0  0  0  0  0  0  0  0  0  0
   12.2254  -16.9114   23.5496 C   0  0  0  0  0  0  0  0  0  0  0  0
   12.0634  -16.2194   22.5309 O   0  0  0  0  0  0  0  0  0  0  0  0
   11.0259  -18.7660   26.8366 O   0  0  0  0  0  0  0  0  0  0  0  0
   13.5304  -17.4016   23.7573 O   0  0  0  0  0  0  0  0  0  0  0  0
  2  1  1  1
  3  2  1  0
  4 11  1  0
  4  2  1  0
  5  4  2  0
  6  7  1  0
  7  8  1  0
  8  9  1  0
 10  9  1  1
 10 11  1  0
 12 14  1  0
 12 10  1  0
 13 12  2  0
 15 14  1  0
 15 16  1  6
 17 16  1  0
 17 21  1  0
 18 17  2  0
 19 15  1  0
 20 19  2  0
 22 19  1  0
M  END
$$$$
