AMD.pdb
     RDKit          3D

 22 21  0  0  1  0  0  0  0  0999 V2000
    6.4527  -16.8820   20.4317 C   0  0  0  0  0  0  0  0  0  0  0  0
    6.8401  -15.4480   20.5593 C   0  0  2  0  0  0  0  0  0  0  0  0
    7.3361  -14.9647   19.2953 N   0  0  0  0  0  0  0  0  0  0  0  0
    7.7828  -15.1721   21.6775 C   0  0  0  0  0  0  0  0  0  0  0  0
    9.0314  -15.2197   21.5182 O   0  0  0  0  0  0  0  0  0  0  0  0
    7.7813  -11.7725   27.4722 C   0  0  0  0  0  0  0  0  0  0  0  0
    6.3165  -11.8700   26.4308 S   0  0  0  0  0  0  0  0  0  0  0  0
    6.6959  -12.6995   24.8391 C   0  0  0  0  0  0  0  0  0  0  0  0
    7.1951  -14.0843   25.2061 C   0  0  0  0  0  0  0  0  0  0  0  0
    8.0587  -14.6840   24.1111 C   0  0  2  0  0  0  0  0  0  0  0  0
    7.2122  -14.8513   22.9397 N   0  0  0  0  0  0  0  0  0  0  0  0
    8.5116  -16.0126   24.6310 C   0  0  0  0  0  0  0  0  0  0  0  0
    7.6949  -16.9134   24.9419 O   0  0  0  0  0  0  0  0  0  0  0  0
    9.8897  -16.2683   24.7784 N   0  0  0  0  0  0  0  0  0  0  0  0
   10.4321  -17.5585   25.2339 C   0  0  1  0  0  0  0  0  0  0  0  0
   11.7287  -17.8488   24.5185 C   0  0  0  0  0  0  0  0  0  0  0  0
   12.4621  -16.6070   24.2808 C   0  0  0  0  0  0  0  0  0  0  0  0
   13.1900  -16.1422   25.2168 O   0  0  0  0  0  0  0  0  0  0  0  0
   10.6366  -17.3960   26.6897 C   0  0  0  0  0  0  0  0  0  0  0  0
   10.4519  -16.3235   27.2884 O   0  0  0  0  0  0  0  0  0  0  0  0
   12.3824  -15.9393   23.0880 O   0  0  0  0  0  0  0  0  0  0  0  0
   11.0618  -18.4782   27.4864 O   0  0  0  0  0  0  0  0  0  0  0  0
  2  1  1  6
  3  2  1  0
  4 11  1  0
  4  2  1  0
  5  4  2  0
  6  7  1  0
  7  8  1  0
  8  9  1  0
 10  9  1  1
 10 11  1  0
 12 14  1  0
 12 10  1  0
 13 12  2  0
 15 14  1  0
 15 16  1  6
 17 16  1  0
 17 21  1  0
 18 17  2  0
 19 15  1  0
 20 19  2  0
 22 19  1  0
M  END
$$$$
