AMD.pdb
     RDKit          3D

 22 21  0  0  1  0  0  0  0  0999 V2000
    7.7959  -15.3097   19.7769 C   0  0  0  0  0  0  0  0  0  0  0  0
    8.1138  -16.1403   20.9735 C   0  0  2  0  0  0  0  0  0  0  0  0
    6.9179  -16.7932   21.4430 N   0  0  0  0  0  0  0  0  0  0  0  0
    8.8137  -15.3984   22.0575 C   0  0  0  0  0  0  0  0  0  0  0  0
    9.9957  -14.9853   21.9211 O   0  0  0  0  0  0  0  0  0  0  0  0
    5.8405  -10.8380   25.9361 C   0  0  0  0  0  0  0  0  0  0  0  0
    6.4375  -12.1759   26.9816 S   0  0  0  0  0  0  0  0  0  0  0  0
    7.9520  -12.9346   26.2772 C   0  0  0  0  0  0  0  0  0  0  0  0
    7.4849  -13.7649   25.0966 C   0  0  0  0  0  0  0  0  0  0  0  0
    8.6500  -14.3478   24.3173 C   0  0  2  0  0  0  0  0  0  0  0  0
    8.0885  -15.1748   23.2600 N   0  0  0  0  0  0  0  0  0  0  0  0
    9.4155  -15.1848   25.2939 C   0  0  0  0  0  0  0  0  0  0  0  0
    9.8325  -14.7161   26.3809 O   0  0  0  0  0  0  0  0  0  0  0  0
    9.6795  -16.5363   24.9941 N   0  0  0  0  0  0  0  0  0  0  0  0
   10.4320  -17.4339   25.8853 C   0  0  1  0  0  0  0  0  0  0  0  0
    9.6917  -18.7400   26.0388 C   0  0  0  0  0  0  0  0  0  0  0  0
   10.4702  -19.6673   26.8575 C   0  0  0  0  0  0  0  0  0  0  0  0
   10.6901  -19.3659   28.0751 O   0  0  0  0  0  0  0  0  0  0  0  0
   11.7408  -17.6231   25.2230 C   0  0  0  0  0  0  0  0  0  0  0  0
   11.9125  -17.4846   24.0007 O   0  0  0  0  0  0  0  0  0  0  0  0
   10.9642  -20.8386   26.3485 O   0  0  0  0  0  0  0  0  0  0  0  0
   12.8840  -17.9789   25.9668 O   0  0  0  0  0  0  0  0  0  0  0  0
  2  1  1  6
  3  2  1  0
  4 11  1  0
  4  2  1  0
  5  4  2  0
  6  7  1  0
  7  8  1  0
  8  9  1  0
 10  9  1  1
 10 11  1  0
 12 14  1  0
 12 10  1  0
 13 12  2  0
 15 14  1  0
 15 16  1  6
 17 16  1  0
 17 21  1  0
 18 17  2  0
 19 15  1  0
 20 19  2  0
 22 19  1  0
M  END
$$$$
