AMD.pdb
     RDKit          3D

 22 21  0  0  1  0  0  0  0  0999 V2000
    7.4289  -12.5186   19.5637 C   0  0  0  0  0  0  0  0  0  0  0  0
    7.5089  -13.8848   20.1554 C   0  0  2  0  0  0  0  0  0  0  0  0
    6.1933  -14.4714   20.2023 N   0  0  0  0  0  0  0  0  0  0  0  0
    8.1955  -13.9343   21.4751 C   0  0  0  0  0  0  0  0  0  0  0  0
    9.4287  -13.7045   21.5891 O   0  0  0  0  0  0  0  0  0  0  0  0
    7.2715  -12.6539   27.7347 C   0  0  0  0  0  0  0  0  0  0  0  0
    7.1697  -11.9143   26.0969 S   0  0  0  0  0  0  0  0  0  0  0  0
    6.1739  -12.9593   24.9647 C   0  0  0  0  0  0  0  0  0  0  0  0
    6.8636  -14.3103   24.9391 C   0  0  0  0  0  0  0  0  0  0  0  0
    7.9966  -14.3493   23.9297 C   0  0  2  0  0  0  0  0  0  0  0  0
    7.3972  -14.2541   22.6074 N   0  0  0  0  0  0  0  0  0  0  0  0
    8.6620  -15.6772   24.1150 C   0  0  0  0  0  0  0  0  0  0  0  0
    8.0867  -16.7517   23.8154 O   0  0  0  0  0  0  0  0  0  0  0  0
    9.9693  -15.7327   24.6386 N   0  0  0  0  0  0  0  0  0  0  0  0
   10.7919  -16.9532   24.6414 C   0  0  1  0  0  0  0  0  0  0  0  0
   12.1555  -16.6515   24.0697 C   0  0  0  0  0  0  0  0  0  0  0  0
   13.0250  -17.8194   24.1971 C   0  0  0  0  0  0  0  0  0  0  0  0
   12.5993  -18.9432   23.7755 O   0  0  0  0  0  0  0  0  0  0  0  0
   10.8729  -17.3578   26.0616 C   0  0  0  0  0  0  0  0  0  0  0  0
   11.4216  -18.4053   26.4416 O   0  0  0  0  0  0  0  0  0  0  0  0
   14.2721  -17.7326   24.7559 O   0  0  0  0  0  0  0  0  0  0  0  0
   10.3166  -16.5534   27.0766 O   0  0  0  0  0  0  0  0  0  0  0  0
  2  1  1  1
  3  2  1  0
  4 11  1  0
  4  2  1  0
  5  4  2  0
  6  7  1  0
  7  8  1  0
  8  9  1  0
 10  9  1  1
 10 11  1  0
 12 14  1  0
 12 10  1  0
 13 12  2  0
 15 14  1  0
 15 16  1  1
 17 16  1  0
 17 21  1  0
 18 17  2  0
 19 15  1  0
 20 19  2  0
 22 19  1  0
M  END
$$$$
