AMD.pdb
     RDKit          3D

 22 21  0  0  1  0  0  0  0  0999 V2000
    7.0121  -17.1994   19.8352 C   0  0  0  0  0  0  0  0  0  0  0  0
    7.5112  -15.7945   19.8391 C   0  0  2  0  0  0  0  0  0  0  0  0
    8.2537  -15.5397   18.6305 N   0  0  0  0  0  0  0  0  0  0  0  0
    8.2787  -15.4274   21.0604 C   0  0  0  0  0  0  0  0  0  0  0  0
    9.5338  -15.5227   21.1074 O   0  0  0  0  0  0  0  0  0  0  0  0
    6.9971  -11.7774   27.9935 C   0  0  0  0  0  0  0  0  0  0  0  0
    6.4249  -12.4572   26.4283 S   0  0  0  0  0  0  0  0  0  0  0  0
    7.7758  -13.3507   25.5668 C   0  0  0  0  0  0  0  0  0  0  0  0
    7.1852  -13.8182   24.2500 C   0  0  0  0  0  0  0  0  0  0  0  0
    8.2097  -14.5406   23.3940 C   0  0  2  0  0  0  0  0  0  0  0  0
    7.5320  -14.9627   22.1776 N   0  0  0  0  0  0  0  0  0  0  0  0
    8.6467  -15.7269   24.1954 C   0  0  0  0  0  0  0  0  0  0  0  0
    7.9160  -16.7384   24.3300 O   0  0  0  0  0  0  0  0  0  0  0  0
    9.9106  -15.7173   24.8188 N   0  0  0  0  0  0  0  0  0  0  0  0
   10.4904  -16.8876   25.4974 C   0  0  1  0  0  0  0  0  0  0  0  0
   11.9922  -16.8709   25.3511 C   0  0  0  0  0  0  0  0  0  0  0  0
   12.3638  -17.0439   23.9480 C   0  0  0  0  0  0  0  0  0  0  0  0
   13.0695  -16.1423   23.3904 O   0  0  0  0  0  0  0  0  0  0  0  0
   10.0783  -16.7541   26.9116 C   0  0  0  0  0  0  0  0  0  0  0  0
    9.5064  -15.7480   27.3628 O   0  0  0  0  0  0  0  0  0  0  0  0
   11.9718  -18.1408   23.2282 O   0  0  0  0  0  0  0  0  0  0  0  0
   10.3218  -17.7885   27.8375 O   0  0  0  0  0  0  0  0  0  0  0  0
  2  1  1  1
  3  2  1  0
  4 11  1  0
  4  2  1  0
  5  4  2  0
  6  7  1  0
  7  8  1  0
  8  9  1  0
 10  9  1  1
 10 11  1  0
 12 14  1  0
 12 10  1  0
 13 12  2  0
 15 14  1  0
 15 16  1  1
 17 16  1  0
 17 21  1  0
 18 17  2  0
 19 15  1  0
 20 19  2  0
 22 19  1  0
M  END
$$$$
