WPA.pdb
     RDKit          3D

 27 29  0  0  1  0  0  0  0  0999 V2000
   27.9121  -19.6722  -10.4517 N   0  0  0  0  0  0  0  0  0  0  0  0
   26.9029  -20.6497  -10.2461 C   0  0  1  0  0  0  0  0  0  0  0  0
   26.5831  -20.9132   -8.7976 C   0  0  0  0  0  0  0  0  0  0  0  0
   27.3635  -20.0745   -7.8702 C   0  0  0  0  0  0  0  0  0  0  0  0
   28.0508  -18.9154   -8.1338 C   0  0  0  0  0  0  0  0  0  0  0  0
   28.6095  -18.4994   -6.9942 N   0  0  0  0  0  0  0  0  0  0  0  0
   28.3151  -19.3358   -6.0069 C   0  0  0  0  0  0  0  0  0  0  0  0
   28.6280  -19.3823   -4.6516 C   0  0  0  0  0  0  0  0  0  0  0  0
   28.1688  -20.4017   -3.8476 C   0  0  0  0  0  0  0  0  0  0  0  0
   27.3848  -21.4052   -4.3665 C   0  0  0  0  0  0  0  0  0  0  0  0
   27.0752  -21.3604   -5.7040 C   0  0  0  0  0  0  0  0  0  0  0  0
   27.5385  -20.3265   -6.5295 C   0  0  0  0  0  0  0  0  0  0  0  0
   25.6941  -20.3559  -11.0437 C   0  0  0  0  0  0  0  0  0  0  0  0
   25.1854  -19.1789  -10.9564 O   0  0  0  0  0  0  0  0  0  0  0  0
   25.0321  -21.2673  -11.9107 N   0  0  0  0  0  0  0  0  0  0  0  0
   25.2124  -22.6982  -11.9182 C   0  0  0  0  0  0  0  0  0  0  0  0
   24.4705  -23.2030  -13.1606 C   0  0  0  0  0  0  0  0  0  0  0  0
   24.3009  -21.9227  -13.9994 C   0  0  0  0  0  0  0  0  0  0  0  0
   24.0789  -20.9179  -12.9014 C   0  0  1  0  0  0  0  0  0  0  0  0
   22.6669  -21.0759  -12.4571 C   0  0  0  0  0  0  0  0  0  0  0  0
   22.3848  -21.9592  -11.6115 O   0  0  0  0  0  0  0  0  0  0  0  0
   19.6239  -18.8557  -12.6348 C   0  0  0  0  0  0  0  0  0  0  0  0
   20.3174  -20.1456  -12.3415 C   0  0  2  0  0  0  0  0  0  0  0  0
   21.6225  -20.2582  -12.9594 N   0  0  0  0  0  0  0  0  0  0  0  0
   19.4950  -21.2867  -12.8353 C   0  0  0  0  0  0  0  0  0  0  0  0
   18.3891  -21.5795  -12.3157 O   0  0  0  0  0  0  0  0  0  0  0  0
   19.9273  -22.0823  -13.9060 O   0  0  0  0  0  0  0  0  0  0  0  0
  2  1  1  1
  2 13  1  0
  3  2  1  0
  4  3  1  0
  4  5  2  0
  6  5  1  0
  7  6  1  0
  8  7  2  0
  9  8  1  0
 10  9  2  0
 10 11  1  0
 11 12  2  0
 12  7  1  0
 12  4  1  0
 13 14  2  0
 15 13  1  0
 15 16  1  0
 17 16  1  0
 18 17  1  0
 19 18  1  0
 19 15  1  0
 19 20  1  1
 21 20  2  0
 23 22  1  6
 23 24  1  0
 24 20  1  0
 25 23  1  0
 25 27  1  0
 26 25  2  0
M  END
$$$$
