WPA.pdb
     RDKit          3D

 27 29  0  0  1  0  0  0  0  0999 V2000
   24.0159  -20.4357  -11.5975 N   0  0  0  0  0  0  0  0  0  0  0  0
   25.4086  -20.3751  -11.8679 C   0  0  1  0  0  0  0  0  0  0  0  0
   26.2528  -21.2293  -10.9583 C   0  0  0  0  0  0  0  0  0  0  0  0
   26.1684  -20.8273   -9.5428 C   0  0  0  0  0  0  0  0  0  0  0  0
   25.0493  -20.5762   -8.7878 C   0  0  0  0  0  0  0  0  0  0  0  0
   25.4484  -20.2432   -7.5575 N   0  0  0  0  0  0  0  0  0  0  0  0
   26.7731  -20.2674   -7.4826 C   0  0  0  0  0  0  0  0  0  0  0  0
   27.6904  -20.0123   -6.4675 C   0  0  0  0  0  0  0  0  0  0  0  0
   29.0457  -20.1199   -6.6866 C   0  0  0  0  0  0  0  0  0  0  0  0
   29.5299  -20.4843   -7.9210 C   0  0  0  0  0  0  0  0  0  0  0  0
   28.6256  -20.7364   -8.9237 C   0  0  0  0  0  0  0  0  0  0  0  0
   27.2445  -20.6292   -8.7093 C   0  0  0  0  0  0  0  0  0  0  0  0
   25.6941  -20.6232  -13.2964 C   0  0  0  0  0  0  0  0  0  0  0  0
   24.8140  -21.2570  -13.9859 O   0  0  0  0  0  0  0  0  0  0  0  0
   26.8687  -20.2206  -13.9883 N   0  0  0  0  0  0  0  0  0  0  0  0
   28.0049  -19.5584  -13.3961 C   0  0  0  0  0  0  0  0  0  0  0  0
   28.8952  -19.1341  -14.5691 C   0  0  0  0  0  0  0  0  0  0  0  0
   27.9366  -19.2173  -15.7715 C   0  0  0  0  0  0  0  0  0  0  0  0
   27.1178  -20.4147  -15.3712 C   0  0  1  0  0  0  0  0  0  0  0  0
   27.9451  -21.6162  -15.6686 C   0  0  0  0  0  0  0  0  0  0  0  0
   28.6509  -22.1158  -14.7591 O   0  0  0  0  0  0  0  0  0  0  0  0
   26.8351  -24.3722  -16.5519 C   0  0  0  0  0  0  0  0  0  0  0  0
   27.9880  -23.6514  -17.1702 C   0  0  2  0  0  0  0  0  0  0  0  0
   27.9638  -22.2198  -16.9520 N   0  0  0  0  0  0  0  0  0  0  0  0
   27.9925  -23.8734  -18.6443 C   0  0  0  0  0  0  0  0  0  0  0  0
   27.7468  -22.9450  -19.4545 O   0  0  0  0  0  0  0  0  0  0  0  0
   28.2731  -25.1356  -19.1868 O   0  0  0  0  0  0  0  0  0  0  0  0
  2  1  1  6
  2 13  1  0
  3  2  1  0
  4  3  1  0
  4  5  2  0
  6  5  1  0
  7  6  1  0
  8  7  2  0
  9  8  1  0
 10  9  2  0
 10 11  1  0
 11 12  2  0
 12  7  1  0
 12  4  1  0
 13 14  2  0
 15 13  1  0
 15 16  1  0
 17 16  1  0
 18 17  1  0
 19 18  1  0
 19 15  1  0
 19 20  1  1
 21 20  2  0
 23 22  1  6
 23 24  1  0
 24 20  1  0
 25 23  1  0
 25 27  1  0
 26 25  2  0
M  END
$$$$
