WPA.pdb
     RDKit          3D

 27 29  0  0  1  0  0  0  0  0999 V2000
   25.3338  -23.1175  -16.3714 N   0  0  0  0  0  0  0  0  0  0  0  0
   25.0880  -22.3612  -15.1949 C   0  0  1  0  0  0  0  0  0  0  0  0
   24.0583  -22.9649  -14.2757 C   0  0  0  0  0  0  0  0  0  0  0  0
   23.3385  -21.9601  -13.4727 C   0  0  0  0  0  0  0  0  0  0  0  0
   22.2377  -21.2151  -13.8175 C   0  0  0  0  0  0  0  0  0  0  0  0
   21.9272  -20.4340  -12.7796 N   0  0  0  0  0  0  0  0  0  0  0  0
   22.7761  -20.6397  -11.7805 C   0  0  0  0  0  0  0  0  0  0  0  0
   22.9124  -20.1093  -10.5010 C   0  0  0  0  0  0  0  0  0  0  0  0
   23.9197  -20.5257   -9.6593 C   0  0  0  0  0  0  0  0  0  0  0  0
   24.8215  -21.4817  -10.0641 C   0  0  0  0  0  0  0  0  0  0  0  0
   24.6880  -22.0060  -11.3266 C   0  0  0  0  0  0  0  0  0  0  0  0
   23.6657  -21.5878  -12.1897 C   0  0  0  0  0  0  0  0  0  0  0  0
   26.3447  -22.0311  -14.4911 C   0  0  0  0  0  0  0  0  0  0  0  0
   27.1018  -23.0017  -14.1218 O   0  0  0  0  0  0  0  0  0  0  0  0
   26.8001  -20.7211  -14.1799 N   0  0  0  0  0  0  0  0  0  0  0  0
   26.1625  -19.4932  -14.5872 C   0  0  0  0  0  0  0  0  0  0  0  0
   27.1395  -18.3740  -14.2108 C   0  0  0  0  0  0  0  0  0  0  0  0
   28.4655  -19.1318  -14.0136 C   0  0  0  0  0  0  0  0  0  0  0  0
   27.9494  -20.4096  -13.4090 C   0  0  1  0  0  0  0  0  0  0  0  0
   27.6517  -20.1160  -11.9803 C   0  0  0  0  0  0  0  0  0  0  0  0
   26.5008  -19.7318  -11.6595 O   0  0  0  0  0  0  0  0  0  0  0  0
   29.4750  -21.3508   -8.9243 C   0  0  0  0  0  0  0  0  0  0  0  0
   28.3309  -20.6778   -9.6092 C   0  0  2  0  0  0  0  0  0  0  0  0
   28.6293  -20.2560  -10.9622 N   0  0  0  0  0  0  0  0  0  0  0  0
   27.9280  -19.4620   -8.8463 C   0  0  0  0  0  0  0  0  0  0  0  0
   28.3612  -18.3205   -9.1428 O   0  0  0  0  0  0  0  0  0  0  0  0
   27.0441  -19.5467   -7.7610 O   0  0  0  0  0  0  0  0  0  0  0  0
  2  1  1  6
  2 13  1  0
  3  2  1  0
  4  3  1  0
  4  5  2  0
  6  5  1  0
  7  6  1  0
  8  7  2  0
  9  8  1  0
 10  9  2  0
 10 11  1  0
 11 12  2  0
 12  7  1  0
 12  4  1  0
 13 14  2  0
 15 13  1  0
 15 16  1  0
 17 16  1  0
 18 17  1  0
 19 18  1  0
 19 15  1  0
 19 20  1  1
 21 20  2  0
 23 22  1  1
 23 24  1  0
 24 20  1  0
 25 23  1  0
 25 27  1  0
 26 25  2  0
M  END
$$$$
