WPA.pdb
     RDKit          3D

 27 29  0  0  1  0  0  0  0  0999 V2000
   23.9876  -20.5582  -11.6194 N   0  0  0  0  0  0  0  0  0  0  0  0
   25.3744  -20.4489  -11.9041 C   0  0  1  0  0  0  0  0  0  0  0  0
   26.2581  -21.2645  -10.9967 C   0  0  0  0  0  0  0  0  0  0  0  0
   26.2841  -20.7642   -9.6105 C   0  0  0  0  0  0  0  0  0  0  0  0
   25.2567  -20.2313   -8.8716 C   0  0  0  0  0  0  0  0  0  0  0  0
   25.7372  -19.9137   -7.6666 N   0  0  0  0  0  0  0  0  0  0  0  0
   27.0271  -20.2166   -7.5927 C   0  0  0  0  0  0  0  0  0  0  0  0
   27.9937  -20.0998   -6.5982 C   0  0  0  0  0  0  0  0  0  0  0  0
   29.2911  -20.5093   -6.8122 C   0  0  0  0  0  0  0  0  0  0  0  0
   29.6665  -21.0471   -8.0208 C   0  0  0  0  0  0  0  0  0  0  0  0
   28.7133  -21.1629   -9.0031 C   0  0  0  0  0  0  0  0  0  0  0  0
   27.3907  -20.7487   -8.7938 C   0  0  0  0  0  0  0  0  0  0  0  0
   25.6548  -20.6978  -13.3335 C   0  0  0  0  0  0  0  0  0  0  0  0
   24.7912  -21.3677  -14.0097 O   0  0  0  0  0  0  0  0  0  0  0  0
   26.8077  -20.2592  -14.0399 N   0  0  0  0  0  0  0  0  0  0  0  0
   27.9419  -19.5854  -13.4571 C   0  0  0  0  0  0  0  0  0  0  0  0
   28.8009  -19.1219  -14.6386 C   0  0  0  0  0  0  0  0  0  0  0  0
   27.8212  -19.2023  -15.8240 C   0  0  0  0  0  0  0  0  0  0  0  0
   27.0339  -20.4230  -15.4307 C   0  0  1  0  0  0  0  0  0  0  0  0
   27.8787  -21.6020  -15.7660 C   0  0  0  0  0  0  0  0  0  0  0  0
   28.8572  -21.8845  -15.0326 O   0  0  0  0  0  0  0  0  0  0  0  0
   27.3117  -24.6592  -17.8784 C   0  0  0  0  0  0  0  0  0  0  0  0
   28.1793  -23.7434  -17.0787 C   0  0  2  0  0  0  0  0  0  0  0  0
   27.6150  -22.4225  -16.8925 N   0  0  0  0  0  0  0  0  0  0  0  0
   29.4947  -23.5699  -17.7583 C   0  0  0  0  0  0  0  0  0  0  0  0
   29.8052  -22.4983  -18.3362 O   0  0  0  0  0  0  0  0  0  0  0  0
   30.4423  -24.6033  -17.7788 O   0  0  0  0  0  0  0  0  0  0  0  0
  2  1  1  6
  2 13  1  0
  3  2  1  0
  4  3  1  0
  4  5  2  0
  6  5  1  0
  7  6  1  0
  8  7  2  0
  9  8  1  0
 10  9  2  0
 10 11  1  0
 11 12  2  0
 12  7  1  0
 12  4  1  0
 13 14  2  0
 15 13  1  0
 15 16  1  0
 17 16  1  0
 18 17  1  0
 19 18  1  0
 19 15  1  0
 19 20  1  1
 21 20  2  0
 23 22  1  6
 23 24  1  0
 24 20  1  0
 25 23  1  0
 25 27  1  0
 26 25  2  0
M  END
$$$$
