WPA.pdb
     RDKit          3D

 27 29  0  0  1  0  0  0  0  0999 V2000
   22.3056  -21.5196  -14.1490 N   0  0  0  0  0  0  0  0  0  0  0  0
   21.7707  -20.8392  -13.0233 C   0  0  1  0  0  0  0  0  0  0  0  0
   20.5733  -19.9787  -13.3323 C   0  0  0  0  0  0  0  0  0  0  0  0
   20.8186  -19.0133  -14.4189 C   0  0  0  0  0  0  0  0  0  0  0  0
   21.9496  -18.2773  -14.6731 C   0  0  0  0  0  0  0  0  0  0  0  0
   21.7229  -17.5358  -15.7606 N   0  0  0  0  0  0  0  0  0  0  0  0
   20.4982  -17.7586  -16.2206 C   0  0  0  0  0  0  0  0  0  0  0  0
   19.7635  -17.2675  -17.2958 C   0  0  0  0  0  0  0  0  0  0  0  0
   18.4755  -17.6929  -17.5340 C   0  0  0  0  0  0  0  0  0  0  0  0
   17.8793  -18.6191  -16.7108 C   0  0  0  0  0  0  0  0  0  0  0  0
   18.6034  -19.1045  -15.6493 C   0  0  0  0  0  0  0  0  0  0  0  0
   19.9148  -18.6770  -15.3996 C   0  0  0  0  0  0  0  0  0  0  0  0
   21.5219  -21.7651  -11.8988 C   0  0  0  0  0  0  0  0  0  0  0  0
   21.4148  -23.0185  -12.1622 O   0  0  0  0  0  0  0  0  0  0  0  0
   21.3875  -21.3929  -10.5336 N   0  0  0  0  0  0  0  0  0  0  0  0
   21.3321  -20.0407  -10.0351 C   0  0  0  0  0  0  0  0  0  0  0  0
   21.4162  -20.1575   -8.5093 C   0  0  0  0  0  0  0  0  0  0  0  0
   21.9639  -21.5825   -8.3067 C   0  0  0  0  0  0  0  0  0  0  0  0
   21.2754  -22.2914   -9.4417 C   0  0  1  0  0  0  0  0  0  0  0  0
   19.8727  -22.5331   -9.0057 C   0  0  0  0  0  0  0  0  0  0  0  0
   19.0274  -21.6124   -9.1191 O   0  0  0  0  0  0  0  0  0  0  0  0
   17.6032  -23.3567   -6.8940 C   0  0  0  0  0  0  0  0  0  0  0  0
   18.0848  -24.0813   -8.1081 C   0  0  2  0  0  0  0  0  0  0  0  0
   19.4553  -23.7752   -8.4629 N   0  0  0  0  0  0  0  0  0  0  0  0
   17.2353  -23.7260   -9.2804 C   0  0  0  0  0  0  0  0  0  0  0  0
   16.7958  -24.6000  -10.0688 O   0  0  0  0  0  0  0  0  0  0  0  0
   16.8918  -22.3934   -9.5498 O   0  0  0  0  0  0  0  0  0  0  0  0
  2  1  1  6
  2 13  1  0
  3  2  1  0
  4  3  1  0
  4  5  2  0
  6  5  1  0
  7  6  1  0
  8  7  2  0
  9  8  1  0
 10  9  2  0
 10 11  1  0
 11 12  2  0
 12  7  1  0
 12  4  1  0
 13 14  2  0
 15 13  1  0
 15 16  1  0
 17 16  1  0
 18 17  1  0
 19 18  1  0
 19 15  1  0
 19 20  1  1
 21 20  2  0
 23 22  1  1
 23 24  1  0
 24 20  1  0
 25 23  1  0
 25 27  1  0
 26 25  2  0
M  END
$$$$
