WPA.pdb
     RDKit          3D

 27 29  0  0  1  0  0  0  0  0999 V2000
   24.0261  -19.9980  -11.1576 N   0  0  0  0  0  0  0  0  0  0  0  0
   25.4002  -20.1744  -11.4691 C   0  0  1  0  0  0  0  0  0  0  0  0
   26.1134  -21.1616  -10.5823 C   0  0  0  0  0  0  0  0  0  0  0  0
   26.1185  -20.7665   -9.1623 C   0  0  0  0  0  0  0  0  0  0  0  0
   25.0494  -20.5616   -8.3253 C   0  0  0  0  0  0  0  0  0  0  0  0
   25.5253  -20.2160   -7.1261 N   0  0  0  0  0  0  0  0  0  0  0  0
   26.8518  -20.1882   -7.1496 C   0  0  0  0  0  0  0  0  0  0  0  0
   27.8311  -19.8994   -6.2038 C   0  0  0  0  0  0  0  0  0  0  0  0
   29.1697  -19.9530   -6.5230 C   0  0  0  0  0  0  0  0  0  0  0  0
   29.5749  -20.2951   -7.7917 C   0  0  0  0  0  0  0  0  0  0  0  0
   28.6093  -20.5803   -8.7261 C   0  0  0  0  0  0  0  0  0  0  0  0
   27.2448  -20.5282   -8.4096 C   0  0  0  0  0  0  0  0  0  0  0  0
   25.5971  -20.4643  -12.9046 C   0  0  0  0  0  0  0  0  0  0  0  0
   24.5876  -20.8869  -13.5784 O   0  0  0  0  0  0  0  0  0  0  0  0
   26.8169  -20.3176  -13.6195 N   0  0  0  0  0  0  0  0  0  0  0  0
   28.0986  -20.0075  -13.0354 C   0  0  0  0  0  0  0  0  0  0  0  0
   29.0365  -19.7324  -14.2158 C   0  0  0  0  0  0  0  0  0  0  0  0
   28.0571  -19.4823  -15.3776 C   0  0  0  0  0  0  0  0  0  0  0  0
   26.9729  -20.4633  -15.0219 C   0  0  1  0  0  0  0  0  0  0  0  0
   27.4615  -21.8076  -15.4344 C   0  0  0  0  0  0  0  0  0  0  0  0
   28.4579  -22.3032  -14.8543 O   0  0  0  0  0  0  0  0  0  0  0  0
   25.5502  -24.1680  -15.1240 C   0  0  0  0  0  0  0  0  0  0  0  0
   26.4080  -23.9289  -16.3231 C   0  0  2  0  0  0  0  0  0  0  0  0
   26.8365  -22.5528  -16.4669 N   0  0  0  0  0  0  0  0  0  0  0  0
   25.6603  -24.2902  -17.5611 C   0  0  0  0  0  0  0  0  0  0  0  0
   25.3090  -23.4227  -18.3994 O   0  0  0  0  0  0  0  0  0  0  0  0
   25.3181  -25.6213  -17.8392 O   0  0  0  0  0  0  0  0  0  0  0  0
  2  1  1  1
  2 13  1  0
  3  2  1  0
  4  3  1  0
  4  5  2  0
  6  5  1  0
  7  6  1  0
  8  7  2  0
  9  8  1  0
 10  9  2  0
 10 11  1  0
 11 12  2  0
 12  7  1  0
 12  4  1  0
 13 14  2  0
 15 13  1  0
 15 16  1  0
 17 16  1  0
 18 17  1  0
 19 18  1  0
 19 15  1  0
 19 20  1  1
 21 20  2  0
 23 22  1  1
 23 24  1  0
 24 20  1  0
 25 23  1  0
 25 27  1  0
 26 25  2  0
M  END
$$$$
