SFG.pdb
     RDKit          3D

 22 22  0  0  1  0  0  0  0  0999 V2000
   27.6617  -18.4389  -15.1941 O   0  0  0  0  0  0  0  0  0  0  0  0
   27.4175  -18.5250  -13.8404 C   0  0  0  0  0  0  0  0  0  0  0  0
   28.0164  -19.7692  -13.2022 C   0  0  2  0  0  0  0  0  0  0  0  0
   28.4762  -20.6033  -14.2941 N   0  0  0  0  0  0  0  0  0  0  0  0
   27.0147  -20.5159  -12.4212 C   0  0  0  0  0  0  0  0  0  0  0  0
   26.5922  -21.6098  -12.8265 O   0  0  0  0  0  0  0  0  0  0  0  0
   26.4880  -20.0268  -11.1784 N   0  0  0  0  0  0  0  0  0  0  0  0
   25.4665  -20.6645  -10.4377 C   0  0  1  0  0  0  0  0  0  0  0  0
   25.4828  -20.4560   -8.9322 C   0  0  0  0  0  0  0  0  0  0  0  0
   26.8270  -20.2893   -8.3713 C   0  0  0  0  0  0  0  0  0  0  0  0
   27.8148  -21.1915   -8.7028 C   0  0  0  0  0  0  0  0  0  0  0  0
   29.1147  -21.0823   -8.1844 C   0  0  0  0  0  0  0  0  0  0  0  0
   29.4152  -20.0534   -7.3256 C   0  0  0  0  0  0  0  0  0  0  0  0
   28.4181  -19.1690   -7.0102 C   0  0  0  0  0  0  0  0  0  0  0  0
   27.1263  -19.2700   -7.5196 C   0  0  0  0  0  0  0  0  0  0  0  0
   24.1109  -20.6233  -11.0204 C   0  0  0  0  0  0  0  0  0  0  0  0
   23.1054  -21.1256  -10.4524 O   0  0  0  0  0  0  0  0  0  0  0  0
   23.8379  -20.0023  -12.2878 N   0  0  0  0  0  0  0  0  0  0  0  0
   22.5175  -19.8660  -12.8216 C   0  0  0  0  0  0  0  0  0  0  0  0
   22.0437  -21.0251  -13.5700 C   0  0  0  0  0  0  0  0  0  0  0  0
   20.9025  -21.0390  -14.0822 O   0  0  0  0  0  0  0  0  0  0  0  0
   22.8494  -22.1346  -13.7283 O   0  0  0  0  0  0  0  0  0  0  0  0
  1  2  1  0
  2  3  1  0
  3  4  1  6
  3  5  1  0
  5  6  2  0
  7  5  1  0
  7  8  1  0
  8  9  1  1
 10  9  1  0
 11 10  2  0
 12 11  1  0
 13 14  1  0
 13 12  2  0
 14 15  2  0
 15 10  1  0
 16 18  1  0
 16  8  1  0
 17 16  2  0
 19 18  1  0
 19 20  1  0
 20 22  1  0
 21 20  2  0
M  END
$$$$
