SFG.pdb
     RDKit          3D

 22 22  0  0  1  0  0  0  0  0999 V2000
   27.3953    6.0179   -6.5227 O   0  0  0  0  0  0  0  0  0  0  0  0
   26.5406    5.0800   -5.9849 C   0  0  0  0  0  0  0  0  0  0  0  0
   27.1090    3.6691   -6.0088 C   0  0  2  0  0  0  0  0  0  0  0  0
   26.9155    3.1771   -7.3577 N   0  0  0  0  0  0  0  0  0  0  0  0
   26.3998    2.7810   -5.0711 C   0  0  0  0  0  0  0  0  0  0  0  0
   25.3513    2.2144   -5.4160 O   0  0  0  0  0  0  0  0  0  0  0  0
   26.8754    2.5312   -3.7397 N   0  0  0  0  0  0  0  0  0  0  0  0
   26.2417    1.6715   -2.8134 C   0  0  1  0  0  0  0  0  0  0  0  0
   27.0709    0.5168   -2.2753 C   0  0  0  0  0  0  0  0  0  0  0  0
   26.3472   -0.3455   -1.3363 C   0  0  0  0  0  0  0  0  0  0  0  0
   26.7092   -0.3509   -0.0064 C   0  0  0  0  0  0  0  0  0  0  0  0
   26.0552   -1.1662    0.9306 C   0  0  0  0  0  0  0  0  0  0  0  0
   25.0290   -1.9804    0.5178 C   0  0  0  0  0  0  0  0  0  0  0  0
   24.6865   -1.9588   -0.8081 C   0  0  0  0  0  0  0  0  0  0  0  0
   25.3299   -1.1534   -1.7441 C   0  0  0  0  0  0  0  0  0  0  0  0
   25.4023    2.3189   -1.7861 C   0  0  0  0  0  0  0  0  0  0  0  0
   25.8731    3.0629   -0.8856 O   0  0  0  0  0  0  0  0  0  0  0  0
   23.9761    2.1461   -1.7385 N   0  0  0  0  0  0  0  0  0  0  0  0
   23.1409    2.8108   -0.7858 C   0  0  0  0  0  0  0  0  0  0  0  0
   22.8437    4.2024   -1.1073 C   0  0  0  0  0  0  0  0  0  0  0  0
   22.1284    4.4983   -2.0899 O   0  0  0  0  0  0  0  0  0  0  0  0
   23.3485    5.2249   -0.3294 O   0  0  0  0  0  0  0  0  0  0  0  0
  1  2  1  0
  2  3  1  0
  3  4  1  6
  3  5  1  0
  5  6  2  0
  7  5  1  0
  7  8  1  0
  8  9  1  1
 10  9  1  0
 11 10  2  0
 12 11  1  0
 13 14  1  0
 13 12  2  0
 14 15  2  0
 15 10  1  0
 16 18  1  0
 16  8  1  0
 17 16  2  0
 19 18  1  0
 19 20  1  0
 20 22  1  0
 21 20  2  0
M  END
$$$$
