SFG.pdb
     RDKit          3D

 22 22  0  0  1  0  0  0  0  0999 V2000
   20.3196  -21.9391  -12.7021 O   0  0  0  0  0  0  0  0  0  0  0  0
   21.6126  -21.5048  -12.9000 C   0  0  0  0  0  0  0  0  0  0  0  0
   22.1710  -20.7292  -11.7164 C   0  0  2  0  0  0  0  0  0  0  0  0
   21.4413  -19.4783  -11.6710 N   0  0  0  0  0  0  0  0  0  0  0  0
   23.6056  -20.4383  -11.8847 C   0  0  0  0  0  0  0  0  0  0  0  0
   23.9720  -19.3810  -12.4207 O   0  0  0  0  0  0  0  0  0  0  0  0
   24.6303  -21.3435  -11.4467 N   0  0  0  0  0  0  0  0  0  0  0  0
   26.0027  -21.2071  -11.7577 C   0  0  1  0  0  0  0  0  0  0  0  0
   26.9894  -21.5148  -10.6432 C   0  0  0  0  0  0  0  0  0  0  0  0
   26.6225  -20.9321   -9.3490 C   0  0  0  0  0  0  0  0  0  0  0  0
   27.2510  -19.7819   -8.9227 C   0  0  0  0  0  0  0  0  0  0  0  0
   26.9436  -19.1905   -7.6873 C   0  0  0  0  0  0  0  0  0  0  0  0
   25.9944  -19.7677   -6.8796 C   0  0  0  0  0  0  0  0  0  0  0  0
   25.3830  -20.9101   -7.3235 C   0  0  0  0  0  0  0  0  0  0  0  0
   25.6819  -21.5033   -8.5472 C   0  0  0  0  0  0  0  0  0  0  0  0
   26.4299  -21.7161  -13.0757 C   0  0  0  0  0  0  0  0  0  0  0  0
   26.4356  -22.9410  -13.3683 O   0  0  0  0  0  0  0  0  0  0  0  0
   26.8738  -20.8443  -14.1290 N   0  0  0  0  0  0  0  0  0  0  0  0
   26.3523  -19.5263  -14.3228 C   0  0  0  0  0  0  0  0  0  0  0  0
   26.7474  -18.8966  -15.5781 C   0  0  0  0  0  0  0  0  0  0  0  0
   26.0131  -18.9580  -16.5889 O   0  0  0  0  0  0  0  0  0  0  0  0
   27.9452  -18.2176  -15.6753 O   0  0  0  0  0  0  0  0  0  0  0  0
  1  2  1  0
  2  3  1  0
  3  4  1  6
  3  5  1  0
  5  6  2  0
  7  5  1  0
  7  8  1  0
  8  9  1  1
 10  9  1  0
 11 10  2  0
 12 11  1  0
 13 14  1  0
 13 12  2  0
 14 15  2  0
 15 10  1  0
 16 18  1  0
 16  8  1  0
 17 16  2  0
 19 18  1  0
 19 20  1  0
 20 22  1  0
 21 20  2  0
M  END
$$$$
