SFG.pdb
     RDKit          3D

 22 22  0  0  1  0  0  0  0  0999 V2000
   27.7737  -24.0526  -18.4864 O   0  0  0  0  0  0  0  0  0  0  0  0
   26.9863  -23.3086  -17.6343 C   0  0  0  0  0  0  0  0  0  0  0  0
   27.7280  -22.1417  -17.0000 C   0  0  2  0  0  0  0  0  0  0  0  0
   28.8546  -22.7146  -16.2916 N   0  0  0  0  0  0  0  0  0  0  0  0
   26.8796  -21.4158  -16.0386 C   0  0  0  0  0  0  0  0  0  0  0  0
   26.9384  -21.6791  -14.8276 O   0  0  0  0  0  0  0  0  0  0  0  0
   25.9618  -20.3893  -16.4450 N   0  0  0  0  0  0  0  0  0  0  0  0
   25.2310  -19.5723  -15.5523 C   0  0  1  0  0  0  0  0  0  0  0  0
   26.0186  -18.5201  -14.7888 C   0  0  0  0  0  0  0  0  0  0  0  0
   27.0495  -17.8539  -15.5903 C   0  0  0  0  0  0  0  0  0  0  0  0
   26.7214  -16.7265  -16.3121 C   0  0  0  0  0  0  0  0  0  0  0  0
   27.6689  -16.0582  -17.1033 C   0  0  0  0  0  0  0  0  0  0  0  0
   28.9556  -16.5347  -17.1635 C   0  0  0  0  0  0  0  0  0  0  0  0
   29.2589  -17.6563  -16.4383 C   0  0  0  0  0  0  0  0  0  0  0  0
   28.3255  -18.3253  -15.6512 C   0  0  0  0  0  0  0  0  0  0  0  0
   23.9191  -19.0914  -16.0282 C   0  0  0  0  0  0  0  0  0  0  0  0
   23.7192  -18.7019  -17.2090 O   0  0  0  0  0  0  0  0  0  0  0  0
   22.7658  -19.0322  -15.1722 N   0  0  0  0  0  0  0  0  0  0  0  0
   21.4752  -18.6171  -15.6294 C   0  0  0  0  0  0  0  0  0  0  0  0
   21.1929  -17.1982  -15.4412 C   0  0  0  0  0  0  0  0  0  0  0  0
   21.2392  -16.6772  -14.3050 O   0  0  0  0  0  0  0  0  0  0  0  0
   20.8677  -16.3992  -16.5187 O   0  0  0  0  0  0  0  0  0  0  0  0
  1  2  1  0
  2  3  1  0
  3  4  1  1
  3  5  1  0
  5  6  2  0
  7  5  1  0
  7  8  1  0
  8  9  1  6
 10  9  1  0
 11 10  2  0
 12 11  1  0
 13 14  1  0
 13 12  2  0
 14 15  2  0
 15 10  1  0
 16 18  1  0
 16  8  1  0
 17 16  2  0
 19 18  1  0
 19 20  1  0
 20 22  1  0
 21 20  2  0
M  END
$$$$
