SFG.pdb
     RDKit          3D

 22 22  0  0  1  0  0  0  0  0999 V2000
   26.6093  -17.6233  -14.9768 O   0  0  0  0  0  0  0  0  0  0  0  0
   27.5724  -17.7839  -14.0041 C   0  0  0  0  0  0  0  0  0  0  0  0
   28.1535  -19.1891  -13.9637 C   0  0  2  0  0  0  0  0  0  0  0  0
   28.5810  -19.4898  -15.3150 N   0  0  0  0  0  0  0  0  0  0  0  0
   27.1469  -20.1824  -13.5500 C   0  0  0  0  0  0  0  0  0  0  0  0
   26.5740  -20.8844  -14.3975 O   0  0  0  0  0  0  0  0  0  0  0  0
   26.7856  -20.3844  -12.1753 N   0  0  0  0  0  0  0  0  0  0  0  0
   25.7514  -21.2440  -11.7393 C   0  0  1  0  0  0  0  0  0  0  0  0
   25.9207  -21.8751  -10.3670 C   0  0  0  0  0  0  0  0  0  0  0  0
   26.7557  -21.0903   -9.4526 C   0  0  0  0  0  0  0  0  0  0  0  0
   28.0972  -21.3856   -9.3400 C   0  0  0  0  0  0  0  0  0  0  0  0
   28.9371  -20.6714   -8.4712 C   0  0  0  0  0  0  0  0  0  0  0  0
   28.4149  -19.6526   -7.7124 C   0  0  0  0  0  0  0  0  0  0  0  0
   27.0794  -19.3769   -7.8405 C   0  0  0  0  0  0  0  0  0  0  0  0
   26.2393  -20.0803   -8.6996 C   0  0  0  0  0  0  0  0  0  0  0  0
   24.3706  -20.8002  -12.0139 C   0  0  0  0  0  0  0  0  0  0  0  0
   23.7901  -19.9093  -11.3391 O   0  0  0  0  0  0  0  0  0  0  0  0
   23.5822  -21.3567  -13.0794 N   0  0  0  0  0  0  0  0  0  0  0  0
   22.3206  -21.9962  -12.8646 C   0  0  0  0  0  0  0  0  0  0  0  0
   21.1646  -21.1163  -12.9979 C   0  0  0  0  0  0  0  0  0  0  0  0
   21.3074  -19.8818  -13.1398 O   0  0  0  0  0  0  0  0  0  0  0  0
   19.8843  -21.6316  -12.9698 O   0  0  0  0  0  0  0  0  0  0  0  0
  1  2  1  0
  2  3  1  0
  3  4  1  6
  3  5  1  0
  5  6  2  0
  7  5  1  0
  7  8  1  0
  8  9  1  1
 10  9  1  0
 11 10  2  0
 12 11  1  0
 13 14  1  0
 13 12  2  0
 14 15  2  0
 15 10  1  0
 16 18  1  0
 16  8  1  0
 17 16  2  0
 19 18  1  0
 19 20  1  0
 20 22  1  0
 21 20  2  0
M  END
$$$$
