SFG.pdb
     RDKit          3D

 22 22  0  0  1  0  0  0  0  0999 V2000
   29.6800  -22.1255   13.7321 O   0  0  0  0  0  0  0  0  0  0  0  0
   30.4103  -22.6458   12.6854 C   0  0  0  0  0  0  0  0  0  0  0  0
   30.5399  -21.6871   11.5115 C   0  0  2  0  0  0  0  0  0  0  0  0
   29.1896  -21.4007   11.0712 N   0  0  0  0  0  0  0  0  0  0  0  0
   31.2870  -22.2922   10.3949 C   0  0  0  0  0  0  0  0  0  0  0  0
   30.7213  -23.0698    9.6108 O   0  0  0  0  0  0  0  0  0  0  0  0
   32.6770  -22.0189   10.1621 N   0  0  0  0  0  0  0  0  0  0  0  0
   33.4048  -22.4799    9.0412 C   0  0  1  0  0  0  0  0  0  0  0  0
   33.9114  -21.4226    8.0738 C   0  0  0  0  0  0  0  0  0  0  0  0
   33.1036  -21.2968    6.8569 C   0  0  0  0  0  0  0  0  0  0  0  0
   32.0844  -20.3699    6.8145 C   0  0  0  0  0  0  0  0  0  0  0  0
   31.2755  -20.2177    5.6775 C   0  0  0  0  0  0  0  0  0  0  0  0
   31.5005  -21.0089    4.5776 C   0  0  0  0  0  0  0  0  0  0  0  0
   32.5184  -21.9230    4.6422 C   0  0  0  0  0  0  0  0  0  0  0  0
   33.3253  -22.0806    5.7659 C   0  0  0  0  0  0  0  0  0  0  0  0
   34.3790  -23.5603    9.2912 C   0  0  0  0  0  0  0  0  0  0  0  0
   35.0246  -23.6654   10.3674 O   0  0  0  0  0  0  0  0  0  0  0  0
   34.6639  -24.5785    8.3173 N   0  0  0  0  0  0  0  0  0  0  0  0
   33.8358  -25.7296    8.1267 C   0  0  0  0  0  0  0  0  0  0  0  0
   33.7872  -26.6368    9.2682 C   0  0  0  0  0  0  0  0  0  0  0  0
   32.8447  -27.4474    9.4073 O   0  0  0  0  0  0  0  0  0  0  0  0
   34.7852  -26.6182   10.2215 O   0  0  0  0  0  0  0  0  0  0  0  0
  1  2  1  0
  2  3  1  0
  3  4  1  6
  3  5  1  0
  5  6  2  0
  7  5  1  0
  7  8  1  0
  8  9  1  1
 10  9  1  0
 11 10  2  0
 12 11  1  0
 13 14  1  0
 13 12  2  0
 14 15  2  0
 15 10  1  0
 16 18  1  0
 16  8  1  0
 17 16  2  0
 19 18  1  0
 19 20  1  0
 20 22  1  0
 21 20  2  0
M  END
$$$$
