SFG.pdb
     RDKit          3D

 22 22  0  0  1  0  0  0  0  0999 V2000
   23.8747  -20.9431  -13.1596 O   0  0  0  0  0  0  0  0  0  0  0  0
   24.9279  -20.1682  -12.7240 C   0  0  0  0  0  0  0  0  0  0  0  0
   26.1376  -20.9869  -12.2991 C   0  0  2  0  0  0  0  0  0  0  0  0
   25.9914  -22.2831  -12.9299 N   0  0  0  0  0  0  0  0  0  0  0  0
   26.1842  -21.1705  -10.8379 C   0  0  0  0  0  0  0  0  0  0  0  0
   26.0035  -22.2930  -10.3412 O   0  0  0  0  0  0  0  0  0  0  0  0
   26.4357  -20.0838   -9.9340 N   0  0  0  0  0  0  0  0  0  0  0  0
   26.2115  -20.1370   -8.5392 C   0  0  1  0  0  0  0  0  0  0  0  0
   26.8426  -19.0354   -7.7034 C   0  0  0  0  0  0  0  0  0  0  0  0
   27.3984  -19.5023   -6.4297 C   0  0  0  0  0  0  0  0  0  0  0  0
   26.5534  -19.7220   -5.3632 C   0  0  0  0  0  0  0  0  0  0  0  0
   27.0367  -20.1587   -4.1198 C   0  0  0  0  0  0  0  0  0  0  0  0
   28.3833  -20.3739   -3.9561 C   0  0  0  0  0  0  0  0  0  0  0  0
   29.2040  -20.1490   -5.0294 C   0  0  0  0  0  0  0  0  0  0  0  0
   28.7331  -19.7158   -6.2659 C   0  0  0  0  0  0  0  0  0  0  0  0
   24.8444  -20.4894   -8.1080 C   0  0  0  0  0  0  0  0  0  0  0  0
   23.8115  -20.0027   -8.6390 O   0  0  0  0  0  0  0  0  0  0  0  0
   24.5910  -21.4208   -7.0427 N   0  0  0  0  0  0  0  0  0  0  0  0
   23.5217  -22.3708   -7.0747 C   0  0  0  0  0  0  0  0  0  0  0  0
   22.1922  -21.7830   -7.1982 C   0  0  0  0  0  0  0  0  0  0  0  0
   21.6686  -21.6036   -8.3200 O   0  0  0  0  0  0  0  0  0  0  0  0
   21.4827  -21.4116   -6.0740 O   0  0  0  0  0  0  0  0  0  0  0  0
  1  2  1  0
  2  3  1  0
  3  4  1  6
  3  5  1  0
  5  6  2  0
  7  5  1  0
  7  8  1  0
  8  9  1  6
 10  9  1  0
 11 10  2  0
 12 11  1  0
 13 14  1  0
 13 12  2  0
 14 15  2  0
 15 10  1  0
 16 18  1  0
 16  8  1  0
 17 16  2  0
 19 18  1  0
 19 20  1  0
 20 22  1  0
 21 20  2  0
M  END
$$$$
