SFG.pdb
     RDKit          3D

 22 22  0  0  1  0  0  0  0  0999 V2000
   24.6194  -20.9248  -16.7584 O   0  0  0  0  0  0  0  0  0  0  0  0
   25.8739  -20.3733  -16.9047 C   0  0  0  0  0  0  0  0  0  0  0  0
   26.9849  -21.2628  -16.3676 C   0  0  2  0  0  0  0  0  0  0  0  0
   26.8675  -22.5256  -17.0683 N   0  0  0  0  0  0  0  0  0  0  0  0
   26.8372  -21.5046  -14.9216 C   0  0  0  0  0  0  0  0  0  0  0  0
   26.5875  -22.6441  -14.4990 O   0  0  0  0  0  0  0  0  0  0  0  0
   26.9717  -20.4570  -13.9492 N   0  0  0  0  0  0  0  0  0  0  0  0
   26.9036  -20.6520  -12.5506 C   0  0  1  0  0  0  0  0  0  0  0  0
   27.6392  -19.6433  -11.6837 C   0  0  0  0  0  0  0  0  0  0  0  0
   27.6075  -19.9573  -10.2521 C   0  0  0  0  0  0  0  0  0  0  0  0
   26.6273  -19.4006   -9.4591 C   0  0  0  0  0  0  0  0  0  0  0  0
   26.5597  -19.6610   -8.0814 C   0  0  0  0  0  0  0  0  0  0  0  0
   27.4904  -20.4898   -7.5042 C   0  0  0  0  0  0  0  0  0  0  0  0
   28.4553  -21.0316   -8.3113 C   0  0  0  0  0  0  0  0  0  0  0  0
   28.5297  -20.7786   -9.6784 C   0  0  0  0  0  0  0  0  0  0  0  0
   25.5884  -21.0435  -12.0065 C   0  0  0  0  0  0  0  0  0  0  0  0
   25.4363  -21.4979  -10.8419 O   0  0  0  0  0  0  0  0  0  0  0  0
   24.3766  -20.9336  -12.7720 N   0  0  0  0  0  0  0  0  0  0  0  0
   23.0757  -20.9243  -12.1767 C   0  0  0  0  0  0  0  0  0  0  0  0
   21.9786  -20.7406  -13.1205 C   0  0  0  0  0  0  0  0  0  0  0  0
   20.7939  -20.6688  -12.7255 O   0  0  0  0  0  0  0  0  0  0  0  0
   22.2278  -20.6419  -14.4746 O   0  0  0  0  0  0  0  0  0  0  0  0
  1  2  1  0
  2  3  1  0
  3  4  1  6
  3  5  1  0
  5  6  2  0
  7  5  1  0
  7  8  1  0
  8  9  1  1
 10  9  1  0
 11 10  2  0
 12 11  1  0
 13 14  1  0
 13 12  2  0
 14 15  2  0
 15 10  1  0
 16 18  1  0
 16  8  1  0
 17 16  2  0
 19 18  1  0
 19 20  1  0
 20 22  1  0
 21 20  2  0
M  END
$$$$
