SFG.pdb
     RDKit          3D

 22 22  0  0  1  0  0  0  0  0999 V2000
   26.2250  -19.2584  -14.6756 O   0  0  0  0  0  0  0  0  0  0  0  0
   27.3567  -18.7959  -14.0392 C   0  0  0  0  0  0  0  0  0  0  0  0
   28.1030  -19.8829  -13.2805 C   0  0  2  0  0  0  0  0  0  0  0  0
   28.5880  -20.8140  -14.2790 N   0  0  0  0  0  0  0  0  0  0  0  0
   27.2168  -20.6022  -12.3486 C   0  0  0  0  0  0  0  0  0  0  0  0
   27.0546  -21.8274  -12.4576 O   0  0  0  0  0  0  0  0  0  0  0  0
   26.5113  -19.9367  -11.2900 N   0  0  0  0  0  0  0  0  0  0  0  0
   25.7140  -20.5939  -10.3251 C   0  0  1  0  0  0  0  0  0  0  0  0
   25.6445  -19.9560   -8.9472 C   0  0  0  0  0  0  0  0  0  0  0  0
   26.8944  -20.0499   -8.1869 C   0  0  0  0  0  0  0  0  0  0  0  0
   27.1474  -19.1366   -7.1862 C   0  0  0  0  0  0  0  0  0  0  0  0
   28.3334  -19.1767   -6.4364 C   0  0  0  0  0  0  0  0  0  0  0  0
   29.2680  -20.1474   -6.7021 C   0  0  0  0  0  0  0  0  0  0  0  0
   28.9955  -21.0442   -7.7009 C   0  0  0  0  0  0  0  0  0  0  0  0
   27.8219  -21.0115   -8.4494 C   0  0  0  0  0  0  0  0  0  0  0  0
   24.4163  -21.1184  -10.7941 C   0  0  0  0  0  0  0  0  0  0  0  0
   23.5901  -21.6852  -10.0312 O   0  0  0  0  0  0  0  0  0  0  0  0
   23.9982  -21.0196  -12.1660 N   0  0  0  0  0  0  0  0  0  0  0  0
   22.7080  -21.4388  -12.6206 C   0  0  0  0  0  0  0  0  0  0  0  0
   21.8071  -20.3480  -12.9770 C   0  0  0  0  0  0  0  0  0  0  0  0
   22.0979  -19.5444  -13.8904 O   0  0  0  0  0  0  0  0  0  0  0  0
   20.6104  -20.1808  -12.3097 O   0  0  0  0  0  0  0  0  0  0  0  0
  1  2  1  0
  2  3  1  0
  3  4  1  6
  3  5  1  0
  5  6  2  0
  7  5  1  0
  7  8  1  0
  8  9  1  1
 10  9  1  0
 11 10  2  0
 12 11  1  0
 13 14  1  0
 13 12  2  0
 14 15  2  0
 15 10  1  0
 16 18  1  0
 16  8  1  0
 17 16  2  0
 19 18  1  0
 19 20  1  0
 20 22  1  0
 21 20  2  0
M  END
$$$$
