SFG.pdb
     RDKit          3D

 22 22  0  0  1  0  0  0  0  0999 V2000
   35.1613  -24.6836   13.2402 O   0  0  0  0  0  0  0  0  0  0  0  0
   35.1469  -23.3069   13.3049 C   0  0  0  0  0  0  0  0  0  0  0  0
   33.8318  -22.6998   12.8403 C   0  0  2  0  0  0  0  0  0  0  0  0
   32.7959  -23.3092   13.6496 N   0  0  0  0  0  0  0  0  0  0  0  0
   33.5659  -22.9981   11.4221 C   0  0  0  0  0  0  0  0  0  0  0  0
   32.7596  -23.8878   11.1092 O   0  0  0  0  0  0  0  0  0  0  0  0
   34.2118  -22.2900   10.3531 N   0  0  0  0  0  0  0  0  0  0  0  0
   34.0158  -22.5645    8.9802 C   0  0  1  0  0  0  0  0  0  0  0  0
   33.8649  -21.3652    8.0586 C   0  0  0  0  0  0  0  0  0  0  0  0
   33.3250  -21.6976    6.7369 C   0  0  0  0  0  0  0  0  0  0  0  0
   32.0160  -21.3823    6.4422 C   0  0  0  0  0  0  0  0  0  0  0  0
   31.4484  -21.6888    5.1955 C   0  0  0  0  0  0  0  0  0  0  0  0
   32.2111  -22.3181    4.2423 C   0  0  0  0  0  0  0  0  0  0  0  0
   33.5090  -22.6220    4.5571 C   0  0  0  0  0  0  0  0  0  0  0  0
   34.0799  -22.3218    5.7910 C   0  0  0  0  0  0  0  0  0  0  0  0
   34.8382  -23.6465    8.4041 C   0  0  0  0  0  0  0  0  0  0  0  0
   36.0957  -23.5996    8.3554 O   0  0  0  0  0  0  0  0  0  0  0  0
   34.2592  -24.8412    7.8527 N   0  0  0  0  0  0  0  0  0  0  0  0
   35.0256  -25.8334    7.1635 C   0  0  0  0  0  0  0  0  0  0  0  0
   34.2526  -26.9778    6.6933 C   0  0  0  0  0  0  0  0  0  0  0  0
   33.0370  -27.0902    6.9661 O   0  0  0  0  0  0  0  0  0  0  0  0
   34.8505  -27.9636    5.9344 O   0  0  0  0  0  0  0  0  0  0  0  0
  1  2  1  0
  2  3  1  0
  3  4  1  1
  3  5  1  0
  5  6  2  0
  7  5  1  0
  7  8  1  0
  8  9  1  6
 10  9  1  0
 11 10  2  0
 12 11  1  0
 13 14  1  0
 13 12  2  0
 14 15  2  0
 15 10  1  0
 16 18  1  0
 16  8  1  0
 17 16  2  0
 19 18  1  0
 19 20  1  0
 20 22  1  0
 21 20  2  0
M  END
$$$$
