SFG.pdb
     RDKit          3D

 22 22  0  0  1  0  0  0  0  0999 V2000
   22.2510  -13.2862  -20.2942 O   0  0  0  0  0  0  0  0  0  0  0  0
   22.8139  -12.1360  -19.7845 C   0  0  0  0  0  0  0  0  0  0  0  0
   24.0417  -12.4002  -18.9262 C   0  0  2  0  0  0  0  0  0  0  0  0
   23.9407  -13.7773  -18.4874 N   0  0  0  0  0  0  0  0  0  0  0  0
   24.0765  -11.5240  -17.7421 C   0  0  0  0  0  0  0  0  0  0  0  0
   23.5031  -11.8622  -16.6951 O   0  0  0  0  0  0  0  0  0  0  0  0
   24.7608  -10.2619  -17.7393 N   0  0  0  0  0  0  0  0  0  0  0  0
   24.8995   -9.4311  -16.6039 C   0  0  1  0  0  0  0  0  0  0  0  0
   26.2988   -9.2908  -16.0271 C   0  0  0  0  0  0  0  0  0  0  0  0
   27.0789  -10.5316  -16.0556 C   0  0  0  0  0  0  0  0  0  0  0  0
   27.8801  -10.8018  -17.1440 C   0  0  0  0  0  0  0  0  0  0  0  0
   28.6382  -11.9805  -17.2247 C   0  0  0  0  0  0  0  0  0  0  0  0
   28.5841  -12.8901  -16.1971 C   0  0  0  0  0  0  0  0  0  0  0  0
   27.7812  -12.6009  -15.1258 C   0  0  0  0  0  0  0  0  0  0  0  0
   27.0260  -11.4345  -15.0378 C   0  0  0  0  0  0  0  0  0  0  0  0
   24.1436   -8.1633  -16.6229 C   0  0  0  0  0  0  0  0  0  0  0  0
   24.4299   -7.2063  -17.3897 O   0  0  0  0  0  0  0  0  0  0  0  0
   23.0176   -7.9272  -15.7611 N   0  0  0  0  0  0  0  0  0  0  0  0
   22.2299   -6.7341  -15.8155 C   0  0  0  0  0  0  0  0  0  0  0  0
   21.1635   -6.6660  -14.8224 C   0  0  0  0  0  0  0  0  0  0  0  0
   20.1120   -7.3294  -14.9595 O   0  0  0  0  0  0  0  0  0  0  0  0
   21.2948   -5.8642  -13.7066 O   0  0  0  0  0  0  0  0  0  0  0  0
  1  2  1  0
  2  3  1  0
  3  4  1  1
  3  5  1  0
  5  6  2  0
  7  5  1  0
  7  8  1  0
  8  9  1  6
 10  9  1  0
 11 10  2  0
 12 11  1  0
 13 14  1  0
 13 12  2  0
 14 15  2  0
 15 10  1  0
 16 18  1  0
 16  8  1  0
 17 16  2  0
 19 18  1  0
 19 20  1  0
 20 22  1  0
 21 20  2  0
M  END
$$$$
