SFG.pdb
     RDKit          3D

 22 22  0  0  1  0  0  0  0  0999 V2000
   18.6027  -15.3665  -15.6344 O   0  0  0  0  0  0  0  0  0  0  0  0
   19.4370  -14.3023  -15.3684 C   0  0  0  0  0  0  0  0  0  0  0  0
   20.4617  -14.0565  -16.4656 C   0  0  2  0  0  0  0  0  0  0  0  0
   21.2272  -15.2807  -16.5867 N   0  0  0  0  0  0  0  0  0  0  0  0
   21.3764  -12.9547  -16.1188 C   0  0  0  0  0  0  0  0  0  0  0  0
   22.3625  -13.1630  -15.3953 O   0  0  0  0  0  0  0  0  0  0  0  0
   21.1778  -11.6132  -16.5901 N   0  0  0  0  0  0  0  0  0  0  0  0
   21.9852  -10.5111  -16.2264 C   0  0  1  0  0  0  0  0  0  0  0  0
   23.0819  -10.1164  -17.2021 C   0  0  0  0  0  0  0  0  0  0  0  0
   23.2766  -11.0747  -18.2943 C   0  0  0  0  0  0  0  0  0  0  0  0
   24.3947  -11.8805  -18.2958 C   0  0  0  0  0  0  0  0  0  0  0  0
   24.6329  -12.8063  -19.3237 C   0  0  0  0  0  0  0  0  0  0  0  0
   23.7332  -12.9161  -20.3557 C   0  0  0  0  0  0  0  0  0  0  0  0
   22.6295  -12.1053  -20.3336 C   0  0  0  0  0  0  0  0  0  0  0  0
   22.3857  -11.1844  -19.3182 C   0  0  0  0  0  0  0  0  0  0  0  0
   21.2870   -9.3551  -15.6307 C   0  0  0  0  0  0  0  0  0  0  0  0
   20.1638   -8.9514  -16.0325 O   0  0  0  0  0  0  0  0  0  0  0  0
   21.8423   -8.6004  -14.5405 N   0  0  0  0  0  0  0  0  0  0  0  0
   21.1581   -7.5085  -13.9189 C   0  0  0  0  0  0  0  0  0  0  0  0
   21.0101   -6.3271  -14.7620 C   0  0  0  0  0  0  0  0  0  0  0  0
   20.5462   -5.2607  -14.3014 O   0  0  0  0  0  0  0  0  0  0  0  0
   21.3809   -6.3635  -16.0911 O   0  0  0  0  0  0  0  0  0  0  0  0
  1  2  1  0
  2  3  1  0
  3  4  1  1
  3  5  1  0
  5  6  2  0
  7  5  1  0
  7  8  1  0
  8  9  1  6
 10  9  1  0
 11 10  2  0
 12 11  1  0
 13 14  1  0
 13 12  2  0
 14 15  2  0
 15 10  1  0
 16 18  1  0
 16  8  1  0
 17 16  2  0
 19 18  1  0
 19 20  1  0
 20 22  1  0
 21 20  2  0
M  END
$$$$
