RWD.pdb
     RDKit          3D

 34 35  0  0  1  0  0  0  0  0999 V2000
   30.0964  -26.9257  -18.3799 N   0  0  0  0  0  0  0  0  0  0  0  0
   29.9966  -25.8333  -19.2694 C   0  0  0  0  0  0  0  0  0  0  0  0
   29.9814  -25.9665  -20.5552 N   0  0  0  0  0  0  0  0  0  0  0  0
   29.9108  -24.5235  -18.6728 N   0  0  0  0  0  0  0  0  0  0  0  0
   29.7465  -24.4158  -17.2320 C   0  0  0  0  0  0  0  0  0  0  0  0
   28.3509  -24.9021  -16.8957 C   0  0  0  0  0  0  0  0  0  0  0  0
   27.7940  -24.1924  -15.6838 C   0  0  0  0  0  0  0  0  0  0  0  0
   26.5136  -23.4852  -16.0900 C   0  0  2  0  0  0  0  0  0  0  0  0
   26.8088  -22.3348  -16.9358 N   0  0  0  0  0  0  0  0  0  0  0  0
   25.7712  -22.9845  -14.9105 C   0  0  0  0  0  0  0  0  0  0  0  0
   25.4220  -23.7806  -14.0204 O   0  0  0  0  0  0  0  0  0  0  0  0
   29.9668  -25.1305  -21.1534 N   0  0  0  0  0  0  0  0  0  0  0  0
   25.4185  -21.6023  -14.7258 C   0  0  1  0  0  0  0  0  0  0  0  0
   24.7866  -21.1075  -13.5515 C   0  0  0  0  0  0  0  0  0  0  0  0
   25.5005  -19.9076  -12.9928 C   0  0  0  0  0  0  0  0  0  0  0  0
   26.6351  -20.3367  -12.1428 C   0  0  0  0  0  0  0  0  0  0  0  0
   27.9264  -20.6023  -12.6264 N   0  0  0  0  0  0  0  0  0  0  0  0
   28.6610  -20.9160  -11.5600 C   0  0  0  0  0  0  0  0  0  0  0  0
   27.9185  -20.8654  -10.4438 C   0  0  0  0  0  0  0  0  0  0  0  0
   28.2682  -21.1173   -9.1335 C   0  0  0  0  0  0  0  0  0  0  0  0
   27.3058  -21.0003   -8.1640 C   0  0  0  0  0  0  0  0  0  0  0  0
   26.0171  -20.6405   -8.4803 C   0  0  0  0  0  0  0  0  0  0  0  0
   25.6603  -20.3881   -9.7795 C   0  0  0  0  0  0  0  0  0  0  0  0
   26.6080  -20.4974  -10.7702 C   0  0  0  0  0  0  0  0  0  0  0  0
   23.3212  -20.8519  -13.7590 O   0  0  0  0  0  0  0  0  0  0  0  0
   22.9318  -20.1121  -14.6961 N   0  0  0  0  0  0  0  0  0  0  0  0
   22.3526  -21.4376  -12.9038 C   0  0  1  0  0  0  0  0  0  0  0  0
   20.9198  -21.1616  -13.1399 C   0  0  0  0  0  0  0  0  0  0  0  0
   20.0833  -22.3124  -12.7057 C   0  0  0  0  0  0  0  0  0  0  0  0
   19.9467  -23.2926  -13.8014 O   0  0  0  0  0  0  0  0  0  0  0  0
   20.4772  -22.9928  -14.9282 C   0  0  0  0  0  0  0  0  0  0  0  0
   20.6327  -19.9053  -12.3991 O   0  0  0  0  0  0  0  0  0  0  0  0
   21.3225  -19.5832  -11.4173 O   0  0  0  0  0  0  0  0  0  0  0  0
   19.3024  -24.5004  -13.7389 O   0  0  0  0  0  0  0  0  0  0  0  0
  1  2  1  0
  2  4  1  0
  3  2  2  0
  4  5  1  0
  5  6  1  0
  7  6  1  0
  7  8  1  0
  8  9  1  6
 10 11  2  0
 10  8  1  0
 12 10  1  0
 13 12  1  0
 13 24  1  0
 13 14  1  1
 15 14  1  0
 16 15  2  0
 17 18  1  0
 17 16  1  0
 18 23  2  0
 19 20  2  0
 19 18  1  0
 20 21  1  0
 21 22  2  0
 23 15  1  0
 23 22  1  0
 24 26  1  0
 25 24  2  0
 26 27  1  0
 27 31  1  0
 28 29  1  0
 27 28  1  1
 29 30  2  0
 31 32  2  0
 31 34  1  0
 33 29  1  0
M  END
$$$$
