RWD.pdb
     RDKit          3D

 34 35  0  0  1  0  0  0  0  0999 V2000
   22.7847  -17.6747  -16.1072 N   0  0  0  0  0  0  0  0  0  0  0  0
   23.9193  -16.9425  -15.6936 C   0  0  0  0  0  0  0  0  0  0  0  0
   23.8455  -15.7845  -15.1235 N   0  0  0  0  0  0  0  0  0  0  0  0
   25.2029  -17.5518  -15.9390 N   0  0  0  0  0  0  0  0  0  0  0  0
   25.2521  -18.8512  -16.5898 C   0  0  0  0  0  0  0  0  0  0  0  0
   25.8268  -19.8377  -15.5930 C   0  0  0  0  0  0  0  0  0  0  0  0
   26.9196  -19.2102  -14.7596 C   0  0  0  0  0  0  0  0  0  0  0  0
   27.6043  -20.3071  -13.9643 C   0  0  2  0  0  0  0  0  0  0  0  0
   27.7250  -21.5211  -14.7629 N   0  0  0  0  0  0  0  0  0  0  0  0
   26.8365  -20.6565  -12.7471 C   0  0  0  0  0  0  0  0  0  0  0  0
   26.2084  -21.7297  -12.7034 O   0  0  0  0  0  0  0  0  0  0  0  0
   24.7017  -15.3306  -14.7805 N   0  0  0  0  0  0  0  0  0  0  0  0
   26.7683  -19.8118  -11.5849 C   0  0  2  0  0  0  0  0  0  0  0  0
   26.3685  -20.2785  -10.3022 C   0  0  0  0  0  0  0  0  0  0  0  0
   27.0826  -19.5552   -9.1938 C   0  0  0  0  0  0  0  0  0  0  0  0
   26.7144  -20.1368   -7.8823 C   0  0  0  0  0  0  0  0  0  0  0  0
   25.7164  -21.1082   -7.7028 N   0  0  0  0  0  0  0  0  0  0  0  0
   25.7161  -21.3990   -6.4025 C   0  0  0  0  0  0  0  0  0  0  0  0
   26.6441  -20.6764   -5.7570 C   0  0  0  0  0  0  0  0  0  0  0  0
   26.9796  -20.6552   -4.4192 C   0  0  0  0  0  0  0  0  0  0  0  0
   27.9758  -19.8084   -4.0064 C   0  0  0  0  0  0  0  0  0  0  0  0
   28.6322  -18.9937   -4.8984 C   0  0  0  0  0  0  0  0  0  0  0  0
   28.3059  -19.0079   -6.2296 C   0  0  0  0  0  0  0  0  0  0  0  0
   27.3108  -19.8498   -6.6689 C   0  0  0  0  0  0  0  0  0  0  0  0
   24.8769  -20.2555  -10.1281 O   0  0  0  0  0  0  0  0  0  0  0  0
   24.3492  -20.7540   -9.1034 N   0  0  0  0  0  0  0  0  0  0  0  0
   24.0386  -19.6738  -11.1138 C   0  0  2  0  0  0  0  0  0  0  0  0
   22.6627  -20.1862  -11.2850 C   0  0  0  0  0  0  0  0  0  0  0  0
   22.6541  -21.3907  -12.1578 C   0  0  0  0  0  0  0  0  0  0  0  0
   22.3016  -21.0207  -13.5431 O   0  0  0  0  0  0  0  0  0  0  0  0
   21.5738  -19.9793  -13.7066 C   0  0  0  0  0  0  0  0  0  0  0  0
   22.1643  -20.4459   -9.9088 O   0  0  0  0  0  0  0  0  0  0  0  0
   22.9526  -20.7761   -9.0071 O   0  0  0  0  0  0  0  0  0  0  0  0
   22.6731  -21.6838  -14.6833 O   0  0  0  0  0  0  0  0  0  0  0  0
  1  2  1  0
  2  4  1  0
  3  2  2  0
  4  5  1  0
  5  6  1  0
  7  6  1  0
  7  8  1  0
  8  9  1  6
 10 11  2  0
 10  8  1  0
 12 10  1  0
 13 12  1  0
 13 24  1  0
 13 14  1  6
 15 14  1  0
 16 15  2  0
 17 18  1  0
 17 16  1  0
 18 23  2  0
 19 20  2  0
 19 18  1  0
 20 21  1  0
 21 22  2  0
 23 15  1  0
 23 22  1  0
 24 26  1  0
 25 24  2  0
 26 27  1  0
 27 31  1  0
 28 29  1  0
 27 28  1  6
 29 30  2  0
 31 32  2  0
 31 34  1  0
 33 29  1  0
M  END
$$$$
