RWD.pdb
     RDKit          3D

 34 35  0  0  1  0  0  0  0  0999 V2000
   30.3527  -15.8778  -18.5489 N   0  0  0  0  0  0  0  0  0  0  0  0
   30.0841  -17.2466  -18.7691 C   0  0  0  0  0  0  0  0  0  0  0  0
   30.8903  -18.0331  -19.4039 N   0  0  0  0  0  0  0  0  0  0  0  0
   28.8389  -17.7505  -18.2452 N   0  0  0  0  0  0  0  0  0  0  0  0
   28.5463  -19.1695  -18.3685 C   0  0  0  0  0  0  0  0  0  0  0  0
   27.0420  -19.3155  -18.4831 C   0  0  0  0  0  0  0  0  0  0  0  0
   26.3999  -19.5128  -17.1299 C   0  0  0  0  0  0  0  0  0  0  0  0
   26.8780  -20.8369  -16.5620 C   0  0  2  0  0  0  0  0  0  0  0  0
   26.5504  -21.9320  -17.4673 N   0  0  0  0  0  0  0  0  0  0  0  0
   26.2352  -21.1348  -15.2616 C   0  0  0  0  0  0  0  0  0  0  0  0
   25.1113  -21.6680  -15.2392 O   0  0  0  0  0  0  0  0  0  0  0  0
   30.6272  -19.0149  -19.5582 N   0  0  0  0  0  0  0  0  0  0  0  0
   26.8427  -20.8374  -13.9921 C   0  0  2  0  0  0  0  0  0  0  0  0
   26.1586  -20.9593  -12.7511 C   0  0  0  0  0  0  0  0  0  0  0  0
   27.0682  -20.7037  -11.5810 C   0  0  0  0  0  0  0  0  0  0  0  0
   26.3297  -20.8829  -10.3096 C   0  0  0  0  0  0  0  0  0  0  0  0
   25.3334  -21.8514  -10.1062 N   0  0  0  0  0  0  0  0  0  0  0  0
   24.9464  -21.7198   -8.8380 C   0  0  0  0  0  0  0  0  0  0  0  0
   25.6311  -20.7362   -8.2351 C   0  0  0  0  0  0  0  0  0  0  0  0
   25.5501  -20.2623   -6.9422 C   0  0  0  0  0  0  0  0  0  0  0  0
   26.3684  -19.2266   -6.5711 C   0  0  0  0  0  0  0  0  0  0  0  0
   27.2538  -18.6654   -7.4607 C   0  0  0  0  0  0  0  0  0  0  0  0
   27.3415  -19.1297   -8.7473 C   0  0  0  0  0  0  0  0  0  0  0  0
   26.5322  -20.1687   -9.1436 C   0  0  0  0  0  0  0  0  0  0  0  0
   24.9168  -20.1160  -12.7010 O   0  0  0  0  0  0  0  0  0  0  0  0
   24.8756  -19.0100  -13.2946 N   0  0  0  0  0  0  0  0  0  0  0  0
   23.7716  -20.5497  -11.9847 C   0  0  2  0  0  0  0  0  0  0  0  0
   22.4489  -19.9864  -12.3286 C   0  0  0  0  0  0  0  0  0  0  0  0
   22.5841  -18.9048  -13.3407 C   0  0  0  0  0  0  0  0  0  0  0  0
   21.2540  -18.4023  -13.7387 O   0  0  0  0  0  0  0  0  0  0  0  0
   20.3811  -18.2519  -12.8132 C   0  0  0  0  0  0  0  0  0  0  0  0
   21.6382  -21.1409  -12.7973 O   0  0  0  0  0  0  0  0  0  0  0  0
   20.4632  -20.9753  -13.1654 O   0  0  0  0  0  0  0  0  0  0  0  0
   20.8508  -18.0800  -15.0081 O   0  0  0  0  0  0  0  0  0  0  0  0
  1  2  1  0
  2  4  1  0
  3  2  2  0
  4  5  1  0
  5  6  1  0
  7  6  1  0
  7  8  1  0
  8  9  1  6
 10 11  2  0
 10  8  1  0
 12 10  1  0
 13 12  1  0
 13 24  1  0
 13 14  1  1
 15 14  1  0
 16 15  2  0
 17 18  1  0
 17 16  1  0
 18 23  2  0
 19 20  2  0
 19 18  1  0
 20 21  1  0
 21 22  2  0
 23 15  1  0
 23 22  1  0
 24 26  1  0
 25 24  2  0
 26 27  1  0
 27 31  1  0
 28 29  1  0
 27 28  1  1
 29 30  2  0
 31 32  2  0
 31 34  1  0
 33 29  1  0
M  END
$$$$
