RWD.pdb
     RDKit          3D

 34 35  0  0  1  0  0  0  0  0999 V2000
   29.8086  -23.6446  -16.2696 N   0  0  0  0  0  0  0  0  0  0  0  0
   28.7653  -22.7938  -16.6960 C   0  0  0  0  0  0  0  0  0  0  0  0
   27.8441  -23.1635  -17.5243 N   0  0  0  0  0  0  0  0  0  0  0  0
   28.7655  -21.4559  -16.1583 N   0  0  0  0  0  0  0  0  0  0  0  0
   29.7046  -21.1234  -15.0990 C   0  0  0  0  0  0  0  0  0  0  0  0
   28.9028  -20.5735  -13.9363 C   0  0  0  0  0  0  0  0  0  0  0  0
   28.3134  -21.6823  -13.0962 C   0  0  0  0  0  0  0  0  0  0  0  0
   26.8252  -21.4257  -12.9415 C   0  0  2  0  0  0  0  0  0  0  0  0
   26.4896  -20.0742  -13.3737 N   0  0  0  0  0  0  0  0  0  0  0  0
   26.3948  -21.5553  -11.5304 C   0  0  0  0  0  0  0  0  0  0  0  0
   26.4310  -22.6688  -10.9764 O   0  0  0  0  0  0  0  0  0  0  0  0
   27.0850  -22.5133  -17.7647 N   0  0  0  0  0  0  0  0  0  0  0  0
   25.9247  -20.4482  -10.7416 C   0  0  1  0  0  0  0  0  0  0  0  0
   25.3645  -20.5965   -9.4427 C   0  0  0  0  0  0  0  0  0  0  0  0
   25.8959  -19.5692   -8.4814 C   0  0  0  0  0  0  0  0  0  0  0  0
   27.2051  -20.0026   -7.9409 C   0  0  0  0  0  0  0  0  0  0  0  0
   28.2772  -20.4456   -8.7321 N   0  0  0  0  0  0  0  0  0  0  0  0
   29.2760  -20.7012   -7.8880 C   0  0  0  0  0  0  0  0  0  0  0  0
   28.9023  -20.4494   -6.6244 C   0  0  0  0  0  0  0  0  0  0  0  0
   29.6100  -20.5785   -5.4475 C   0  0  0  0  0  0  0  0  0  0  0  0
   28.9870  -20.2571   -4.2692 C   0  0  0  0  0  0  0  0  0  0  0  0
   27.6853  -19.8149   -4.2500 C   0  0  0  0  0  0  0  0  0  0  0  0
   26.9741  -19.6833   -5.4144 C   0  0  0  0  0  0  0  0  0  0  0  0
   27.5773  -19.9982   -6.6097 C   0  0  0  0  0  0  0  0  0  0  0  0
   23.8632  -20.6263   -9.4709 O   0  0  0  0  0  0  0  0  0  0  0  0
   23.2236  -19.7821  -10.1457 N   0  0  0  0  0  0  0  0  0  0  0  0
   23.1414  -21.6036   -8.7384 C   0  0  1  0  0  0  0  0  0  0  0  0
   21.6840  -21.7331   -8.9491 C   0  0  0  0  0  0  0  0  0  0  0  0
   21.3938  -22.2718  -10.3049 C   0  0  0  0  0  0  0  0  0  0  0  0
   20.4773  -21.3709  -11.0319 O   0  0  0  0  0  0  0  0  0  0  0  0
   20.1348  -20.2837  -10.4474 C   0  0  0  0  0  0  0  0  0  0  0  0
   21.2021  -22.6066   -7.8470 O   0  0  0  0  0  0  0  0  0  0  0  0
   20.0334  -22.5126   -7.4362 O   0  0  0  0  0  0  0  0  0  0  0  0
   19.9469  -21.5803  -12.2780 O   0  0  0  0  0  0  0  0  0  0  0  0
  1  2  1  0
  2  4  1  0
  3  2  2  0
  4  5  1  0
  5  6  1  0
  7  6  1  0
  7  8  1  0
  8  9  1  1
 10 11  2  0
 10  8  1  0
 12 10  1  0
 13 12  1  0
 13 24  1  0
 13 14  1  1
 15 14  1  0
 16 15  2  0
 17 18  1  0
 17 16  1  0
 18 23  2  0
 19 20  2  0
 19 18  1  0
 20 21  1  0
 21 22  2  0
 23 15  1  0
 23 22  1  0
 24 26  1  0
 25 24  2  0
 26 27  1  0
 27 31  1  0
 28 29  1  0
 27 28  1  1
 29 30  2  0
 31 32  2  0
 31 34  1  0
 33 29  1  0
M  END
$$$$
