RWD.pdb
     RDKit          3D

 34 35  0  0  1  0  0  0  0  0999 V2000
   26.1867  -25.7483  -17.0940 N   0  0  0  0  0  0  0  0  0  0  0  0
   26.2206  -25.3056  -18.4346 C   0  0  0  0  0  0  0  0  0  0  0  0
   25.3461  -25.6584  -19.3190 N   0  0  0  0  0  0  0  0  0  0  0  0
   27.3002  -24.4195  -18.7926 N   0  0  0  0  0  0  0  0  0  0  0  0
   28.0623  -23.7756  -17.7347 C   0  0  0  0  0  0  0  0  0  0  0  0
   28.3886  -22.3705  -18.1998 C   0  0  0  0  0  0  0  0  0  0  0  0
   27.7860  -21.3301  -17.2850 C   0  0  0  0  0  0  0  0  0  0  0  0
   28.3295  -21.5517  -15.8850 C   0  0  2  0  0  0  0  0  0  0  0  0
   29.4466  -22.4884  -15.9104 N   0  0  0  0  0  0  0  0  0  0  0  0
   27.2996  -22.1205  -14.9856 C   0  0  0  0  0  0  0  0  0  0  0  0
   26.9999  -23.3246  -15.0780 O   0  0  0  0  0  0  0  0  0  0  0  0
   25.4355  -25.3212  -20.2860 N   0  0  0  0  0  0  0  0  0  0  0  0
   26.6061  -21.3493  -13.9890 C   0  0  1  0  0  0  0  0  0  0  0  0
   25.6188  -21.8974  -13.1243 C   0  0  0  0  0  0  0  0  0  0  0  0
   26.1514  -22.1239  -11.7362 C   0  0  0  0  0  0  0  0  0  0  0  0
   26.3842  -20.8273  -11.0592 C   0  0  0  0  0  0  0  0  0  0  0  0
   26.6201  -19.6175  -11.7321 N   0  0  0  0  0  0  0  0  0  0  0  0
   26.7384  -18.6874  -10.7855 C   0  0  0  0  0  0  0  0  0  0  0  0
   26.5935  -19.2318   -9.5679 C   0  0  0  0  0  0  0  0  0  0  0  0
   26.6456  -18.6437   -8.3213 C   0  0  0  0  0  0  0  0  0  0  0  0
   26.4697  -19.4348   -7.2154 C   0  0  0  0  0  0  0  0  0  0  0  0
   26.2458  -20.7861   -7.3353 C   0  0  0  0  0  0  0  0  0  0  0  0
   26.1923  -21.3793   -8.5699 C   0  0  0  0  0  0  0  0  0  0  0  0
   26.3644  -20.6069   -9.6948 C   0  0  0  0  0  0  0  0  0  0  0  0
   24.3525  -21.0899  -13.1229 O   0  0  0  0  0  0  0  0  0  0  0  0
   24.3959  -19.8400  -13.2371 N   0  0  0  0  0  0  0  0  0  0  0  0
   23.0882  -21.7201  -12.9922 C   0  0  1  0  0  0  0  0  0  0  0  0
   21.8598  -20.9086  -13.1247 C   0  0  0  0  0  0  0  0  0  0  0  0
   21.2892  -21.0364  -14.4924 C   0  0  0  0  0  0  0  0  0  0  0  0
   19.9889  -20.3417  -14.5752 O   0  0  0  0  0  0  0  0  0  0  0  0
   18.9566  -20.9739  -14.1561 C   0  0  0  0  0  0  0  0  0  0  0  0
   20.9498  -21.3926  -12.0535 O   0  0  0  0  0  0  0  0  0  0  0  0
   21.0411  -22.5571  -11.6303 O   0  0  0  0  0  0  0  0  0  0  0  0
   19.7687  -19.0796  -15.0616 O   0  0  0  0  0  0  0  0  0  0  0  0
  1  2  1  0
  2  4  1  0
  3  2  2  0
  4  5  1  0
  5  6  1  0
  7  6  1  0
  7  8  1  0
  8  9  1  6
 10 11  2  0
 10  8  1  0
 12 10  1  0
 13 12  1  0
 13 24  1  0
 13 14  1  6
 15 14  1  0
 16 15  2  0
 17 18  1  0
 17 16  1  0
 18 23  2  0
 19 20  2  0
 19 18  1  0
 20 21  1  0
 21 22  2  0
 23 15  1  0
 23 22  1  0
 24 26  1  0
 25 24  2  0
 26 27  1  0
 27 31  1  0
 28 29  1  0
 27 28  1  1
 29 30  2  0
 31 32  2  0
 31 34  1  0
 33 29  1  0
M  END
$$$$
