RWD.pdb
     RDKit          3D

 34 35  0  0  1  0  0  0  0  0999 V2000
   13.1531  -22.4087    0.8055 N   0  0  0  0  0  0  0  0  0  0  0  0
   14.5404  -22.4692    0.5483 C   0  0  0  0  0  0  0  0  0  0  0  0
   15.0395  -22.4812   -0.6443 N   0  0  0  0  0  0  0  0  0  0  0  0
   15.4068  -22.5200    1.6997 N   0  0  0  0  0  0  0  0  0  0  0  0
   14.9669  -21.8998    2.9392 C   0  0  0  0  0  0  0  0  0  0  0  0
   15.2096  -20.4090    2.8130 C   0  0  0  0  0  0  0  0  0  0  0  0
   14.9206  -19.6889    4.1093 C   0  0  0  0  0  0  0  0  0  0  0  0
   15.2233  -18.2141    3.9150 C   0  0  2  0  0  0  0  0  0  0  0  0
   15.2343  -17.8748    2.4970 N   0  0  0  0  0  0  0  0  0  0  0  0
   16.5513  -17.8547    4.4630 C   0  0  0  0  0  0  0  0  0  0  0  0
   17.5679  -18.0104    3.7629 O   0  0  0  0  0  0  0  0  0  0  0  0
   16.0599  -22.4839   -0.7690 N   0  0  0  0  0  0  0  0  0  0  0  0
   16.7443  -17.3257    5.7866 C   0  0  1  0  0  0  0  0  0  0  0  0
   18.0015  -16.8682    6.2694 C   0  0  0  0  0  0  0  0  0  0  0  0
   17.8686  -15.6023    7.0702 C   0  0  0  0  0  0  0  0  0  0  0  0
   18.1045  -14.4225    6.2062 C   0  0  0  0  0  0  0  0  0  0  0  0
   17.2527  -14.0267    5.1624 N   0  0  0  0  0  0  0  0  0  0  0  0
   17.7816  -12.9122    4.6589 C   0  0  0  0  0  0  0  0  0  0  0  0
   18.9050  -12.5845    5.3151 C   0  0  0  0  0  0  0  0  0  0  0  0
   19.7659  -11.5237    5.1252 C   0  0  0  0  0  0  0  0  0  0  0  0
   20.8645  -11.4173    5.9385 C   0  0  0  0  0  0  0  0  0  0  0  0
   21.1122  -12.3427    6.9247 C   0  0  0  0  0  0  0  0  0  0  0  0
   20.2623  -13.4000    7.1210 C   0  0  0  0  0  0  0  0  0  0  0  0
   19.1523  -13.5282    6.3189 C   0  0  0  0  0  0  0  0  0  0  0  0
   18.7477  -17.9373    7.0151 O   0  0  0  0  0  0  0  0  0  0  0  0
   19.8883  -17.7050    7.4863 N   0  0  0  0  0  0  0  0  0  0  0  0
   18.1816  -19.2249    7.2001 C   0  0  1  0  0  0  0  0  0  0  0  0
   18.9690  -20.2671    7.8921 C   0  0  0  0  0  0  0  0  0  0  0  0
   18.9557  -20.0472    9.3632 C   0  0  0  0  0  0  0  0  0  0  0  0
   17.5716  -20.0788    9.8764 O   0  0  0  0  0  0  0  0  0  0  0  0
   16.6716  -19.4938    9.1772 C   0  0  0  0  0  0  0  0  0  0  0  0
   18.3620  -21.5596    7.4790 O   0  0  0  0  0  0  0  0  0  0  0  0
   17.3443  -21.5765    6.7666 O   0  0  0  0  0  0  0  0  0  0  0  0
   17.1457  -20.6719   11.0360 O   0  0  0  0  0  0  0  0  0  0  0  0
  1  2  1  0
  2  4  1  0
  3  2  2  0
  4  5  1  0
  5  6  1  0
  7  6  1  0
  7  8  1  0
  8  9  1  6
 10 11  2  0
 10  8  1  0
 12 10  1  0
 13 12  1  0
 13 24  1  0
 13 14  1  1
 15 14  1  0
 16 15  2  0
 17 18  1  0
 17 16  1  0
 18 23  2  0
 19 20  2  0
 19 18  1  0
 20 21  1  0
 21 22  2  0
 23 15  1  0
 23 22  1  0
 24 26  1  0
 25 24  2  0
 26 27  1  0
 27 31  1  0
 28 29  1  0
 27 28  1  1
 29 30  2  0
 31 32  2  0
 31 34  1  0
 33 29  1  0
M  END
$$$$
