RWD.pdb
     RDKit          3D

 34 35  0  0  1  0  0  0  0  0999 V2000
   30.5067  -24.8751  -17.9788 N   0  0  0  0  0  0  0  0  0  0  0  0
   30.8970  -23.5508  -18.2762 C   0  0  0  0  0  0  0  0  0  0  0  0
   31.4743  -23.2145  -19.3830 N   0  0  0  0  0  0  0  0  0  0  0  0
   30.6208  -22.5569  -17.2688 N   0  0  0  0  0  0  0  0  0  0  0  0
   29.6414  -22.8549  -16.2361 C   0  0  0  0  0  0  0  0  0  0  0  0
   28.3073  -22.3077  -16.7027 C   0  0  0  0  0  0  0  0  0  0  0  0
   27.4760  -21.8111  -15.5431 C   0  0  0  0  0  0  0  0  0  0  0  0
   28.3756  -21.6914  -14.3263 C   0  0  2  0  0  0  0  0  0  0  0  0
   29.3109  -22.8084  -14.2675 N   0  0  0  0  0  0  0  0  0  0  0  0
   27.5939  -21.7063  -13.0685 C   0  0  0  0  0  0  0  0  0  0  0  0
   26.4938  -22.2866  -13.0352 O   0  0  0  0  0  0  0  0  0  0  0  0
   31.7317  -22.2325  -19.5449 N   0  0  0  0  0  0  0  0  0  0  0  0
   28.0367  -21.0753  -11.8541 C   0  0  1  0  0  0  0  0  0  0  0  0
   27.2448  -21.0089  -10.6746 C   0  0  0  0  0  0  0  0  0  0  0  0
   28.0496  -20.5720   -9.4817 C   0  0  0  0  0  0  0  0  0  0  0  0
   27.2094  -20.5916   -8.2620 C   0  0  0  0  0  0  0  0  0  0  0  0
   25.8779  -21.0365   -8.2288 N   0  0  0  0  0  0  0  0  0  0  0  0
   25.4885  -20.9366   -6.9585 C   0  0  0  0  0  0  0  0  0  0  0  0
   26.4839  -20.4599   -6.1957 C   0  0  0  0  0  0  0  0  0  0  0  0
   26.5162  -20.1966   -4.8421 C   0  0  0  0  0  0  0  0  0  0  0  0
   27.6722  -19.6987   -4.2985 C   0  0  0  0  0  0  0  0  0  0  0  0
   28.7807  -19.4630   -5.0768 C   0  0  0  0  0  0  0  0  0  0  0  0
   28.7581  -19.7217   -6.4227 C   0  0  0  0  0  0  0  0  0  0  0  0
   27.6107  -20.2229   -6.9917 C   0  0  0  0  0  0  0  0  0  0  0  0
   26.0106  -20.1744  -10.8645 O   0  0  0  0  0  0  0  0  0  0  0  0
   26.1058  -18.9562  -11.1546 N   0  0  0  0  0  0  0  0  0  0  0  0
   24.7189  -20.7429  -10.7197 C   0  0  1  0  0  0  0  0  0  0  0  0
   23.5849  -20.1581  -11.4661 C   0  0  0  0  0  0  0  0  0  0  0  0
   23.8776  -20.1202  -12.9240 C   0  0  0  0  0  0  0  0  0  0  0  0
   22.7658  -19.4815  -13.6563 O   0  0  0  0  0  0  0  0  0  0  0  0
   21.9549  -18.7570  -12.9791 C   0  0  0  0  0  0  0  0  0  0  0  0
   22.4085  -20.9975  -11.1178 O   0  0  0  0  0  0  0  0  0  0  0  0
   22.3611  -22.1888  -11.4674 O   0  0  0  0  0  0  0  0  0  0  0  0
   22.5067  -19.5866  -14.9978 O   0  0  0  0  0  0  0  0  0  0  0  0
  1  2  1  0
  2  4  1  0
  3  2  2  0
  4  5  1  0
  5  6  1  0
  7  6  1  0
  7  8  1  0
  8  9  1  1
 10 11  2  0
 10  8  1  0
 12 10  1  0
 13 12  1  0
 13 24  1  0
 13 14  1  1
 15 14  1  0
 16 15  2  0
 17 18  1  0
 17 16  1  0
 18 23  2  0
 19 20  2  0
 19 18  1  0
 20 21  1  0
 21 22  2  0
 23 15  1  0
 23 22  1  0
 24 26  1  0
 25 24  2  0
 26 27  1  0
 27 31  1  0
 28 29  1  0
 27 28  1  1
 29 30  2  0
 31 32  2  0
 31 34  1  0
 33 29  1  0
M  END
$$$$
