RWD.pdb
     RDKit          3D

 34 35  0  0  1  0  0  0  0  0999 V2000
   30.3623  -24.8311  -19.8174 N   0  0  0  0  0  0  0  0  0  0  0  0
   30.3804  -23.4339  -20.0222 C   0  0  0  0  0  0  0  0  0  0  0  0
   30.3683  -22.8901  -21.1950 N   0  0  0  0  0  0  0  0  0  0  0  0
   30.4153  -22.6105  -18.8391 N   0  0  0  0  0  0  0  0  0  0  0  0
   30.4058  -23.2526  -17.5344 C   0  0  0  0  0  0  0  0  0  0  0  0
   28.9762  -23.6595  -17.2380 C   0  0  0  0  0  0  0  0  0  0  0  0
   28.4966  -23.0829  -15.9265 C   0  0  0  0  0  0  0  0  0  0  0  0
   27.1704  -22.3847  -16.1674 C   0  0  2  0  0  0  0  0  0  0  0  0
   27.3860  -21.0287  -16.6582 N   0  0  0  0  0  0  0  0  0  0  0  0
   26.3767  -22.2800  -14.9215 C   0  0  0  0  0  0  0  0  0  0  0  0
   26.0361  -23.3149  -14.3208 O   0  0  0  0  0  0  0  0  0  0  0  0
   30.3971  -21.8662  -21.2816 N   0  0  0  0  0  0  0  0  0  0  0  0
   25.9635  -21.0265  -14.3495 C   0  0  1  0  0  0  0  0  0  0  0  0
   25.2344  -20.9258  -13.1325 C   0  0  0  0  0  0  0  0  0  0  0  0
   25.7560  -19.8213  -12.2552 C   0  0  0  0  0  0  0  0  0  0  0  0
   26.9584  -20.2762  -11.5195 C   0  0  0  0  0  0  0  0  0  0  0  0
   28.1588  -20.6661  -12.1351 N   0  0  0  0  0  0  0  0  0  0  0  0
   28.9999  -20.9630  -11.1453 C   0  0  0  0  0  0  0  0  0  0  0  0
   28.4084  -20.7863   -9.9541 C   0  0  0  0  0  0  0  0  0  0  0  0
   28.9032  -20.9778   -8.6808 C   0  0  0  0  0  0  0  0  0  0  0  0
   28.0799  -20.7283   -7.6132 C   0  0  0  0  0  0  0  0  0  0  0  0
   26.7875  -20.2966   -7.7968 C   0  0  0  0  0  0  0  0  0  0  0  0
   26.2872  -20.1034   -9.0582 C   0  0  0  0  0  0  0  0  0  0  0  0
   27.0938  -20.3454  -10.1457 C   0  0  0  0  0  0  0  0  0  0  0  0
   23.7543  -20.8179  -13.3635 O   0  0  0  0  0  0  0  0  0  0  0  0
   23.2912  -19.9162  -14.1048 N   0  0  0  0  0  0  0  0  0  0  0  0
   22.8544  -21.7276  -12.7509 C   0  0  1  0  0  0  0  0  0  0  0  0
   21.4112  -21.6311  -13.0557 C   0  0  0  0  0  0  0  0  0  0  0  0
   20.8685  -22.9558  -13.4595 C   0  0  0  0  0  0  0  0  0  0  0  0
   19.4235  -22.8552  -13.7457 O   0  0  0  0  0  0  0  0  0  0  0  0
   18.9900  -21.7378  -14.1979 C   0  0  0  0  0  0  0  0  0  0  0  0
   20.7839  -21.0820  -11.8249 O   0  0  0  0  0  0  0  0  0  0  0  0
   21.4434  -20.9758  -10.7774 O   0  0  0  0  0  0  0  0  0  0  0  0
   18.4879  -23.8414  -13.5733 O   0  0  0  0  0  0  0  0  0  0  0  0
  1  2  1  0
  2  4  1  0
  3  2  2  0
  4  5  1  0
  5  6  1  0
  7  6  1  0
  7  8  1  0
  8  9  1  1
 10 11  2  0
 10  8  1  0
 12 10  1  0
 13 12  1  0
 13 24  1  0
 13 14  1  1
 15 14  1  0
 16 15  2  0
 17 18  1  0
 17 16  1  0
 18 23  2  0
 19 20  2  0
 19 18  1  0
 20 21  1  0
 21 22  2  0
 23 15  1  0
 23 22  1  0
 24 26  1  0
 25 24  2  0
 26 27  1  0
 27 31  1  0
 28 29  1  0
 27 28  1  1
 29 30  2  0
 31 32  2  0
 31 34  1  0
 33 29  1  0
M  END
$$$$
