RWD.pdb
     RDKit          3D

 34 35  0  0  1  0  0  0  0  0999 V2000
   30.5758  -19.1640  -19.7602 N   0  0  0  0  0  0  0  0  0  0  0  0
   30.0145  -20.2883  -20.4047 C   0  0  0  0  0  0  0  0  0  0  0  0
   30.3676  -20.6765  -21.5862 N   0  0  0  0  0  0  0  0  0  0  0  0
   29.0012  -21.0091  -19.6749 N   0  0  0  0  0  0  0  0  0  0  0  0
   28.8332  -20.7432  -18.2552 C   0  0  0  0  0  0  0  0  0  0  0  0
   27.6307  -19.8335  -18.1019 C   0  0  0  0  0  0  0  0  0  0  0  0
   26.5499  -20.4798  -17.2672 C   0  0  0  0  0  0  0  0  0  0  0  0
   27.1956  -21.0845  -16.0336 C   0  0  2  0  0  0  0  0  0  0  0  0
   28.1657  -22.1058  -16.4104 N   0  0  0  0  0  0  0  0  0  0  0  0
   26.1930  -21.7328  -15.1574 C   0  0  0  0  0  0  0  0  0  0  0  0
   25.4205  -22.5846  -15.6325 O   0  0  0  0  0  0  0  0  0  0  0  0
   29.9102  -21.4931  -22.0115 N   0  0  0  0  0  0  0  0  0  0  0  0
   26.0518  -21.4309  -13.7582 C   0  0  1  0  0  0  0  0  0  0  0  0
   25.1016  -22.0685  -12.9134 C   0  0  0  0  0  0  0  0  0  0  0  0
   25.6350  -22.2729  -11.5223 C   0  0  0  0  0  0  0  0  0  0  0  0
   25.8859  -20.9655  -10.8728 C   0  0  0  0  0  0  0  0  0  0  0  0
   25.8880  -19.7358  -11.5508 N   0  0  0  0  0  0  0  0  0  0  0  0
   26.1088  -18.8051  -10.6232 C   0  0  0  0  0  0  0  0  0  0  0  0
   26.2454  -19.3678   -9.4130 C   0  0  0  0  0  0  0  0  0  0  0  0
   26.4870  -18.7855   -8.1861 C   0  0  0  0  0  0  0  0  0  0  0  0
   26.5921  -19.5958   -7.0852 C   0  0  0  0  0  0  0  0  0  0  0  0
   26.4614  -20.9604   -7.1908 C   0  0  0  0  0  0  0  0  0  0  0  0
   26.2210  -21.5480   -8.4056 C   0  0  0  0  0  0  0  0  0  0  0  0
   26.1101  -20.7565   -9.5250 C   0  0  0  0  0  0  0  0  0  0  0  0
   23.7752  -21.3639  -12.9162 O   0  0  0  0  0  0  0  0  0  0  0  0
   23.7212  -20.1117  -12.9948 N   0  0  0  0  0  0  0  0  0  0  0  0
   22.5629  -22.0957  -12.8296 C   0  0  1  0  0  0  0  0  0  0  0  0
   21.2795  -21.3948  -13.0462 C   0  0  0  0  0  0  0  0  0  0  0  0
   20.2852  -22.3011  -13.6806 C   0  0  0  0  0  0  0  0  0  0  0  0
   18.9962  -21.6045  -13.8637 O   0  0  0  0  0  0  0  0  0  0  0  0
   18.9883  -20.3326  -13.7111 C   0  0  0  0  0  0  0  0  0  0  0  0
   20.8662  -20.9050  -11.7049 O   0  0  0  0  0  0  0  0  0  0  0  0
   20.4196  -19.7539  -11.5667 O   0  0  0  0  0  0  0  0  0  0  0  0
   17.7948  -22.1829  -14.1797 O   0  0  0  0  0  0  0  0  0  0  0  0
  1  2  1  0
  2  4  1  0
  3  2  2  0
  4  5  1  0
  5  6  1  0
  7  6  1  0
  7  8  1  0
  8  9  1  6
 10 11  2  0
 10  8  1  0
 12 10  1  0
 13 12  1  0
 13 24  1  0
 13 14  1  1
 15 14  1  0
 16 15  2  0
 17 18  1  0
 17 16  1  0
 18 23  2  0
 19 20  2  0
 19 18  1  0
 20 21  1  0
 21 22  2  0
 23 15  1  0
 23 22  1  0
 24 26  1  0
 25 24  2  0
 26 27  1  0
 27 31  1  0
 28 29  1  0
 27 28  1  1
 29 30  2  0
 31 32  2  0
 31 34  1  0
 33 29  1  0
M  END
$$$$
