RWD.pdb
     RDKit          3D

 34 35  0  0  1  0  0  0  0  0999 V2000
   30.0431  -20.9832   -8.4313 N   0  0  0  0  0  0  0  0  0  0  0  0
   30.7021  -21.9613   -9.2082 C   0  0  0  0  0  0  0  0  0  0  0  0
   31.2634  -23.0091   -8.6998 N   0  0  0  0  0  0  0  0  0  0  0  0
   30.7279  -21.7414  -10.6329 N   0  0  0  0  0  0  0  0  0  0  0  0
   30.1001  -20.5456  -11.1719 C   0  0  0  0  0  0  0  0  0  0  0  0
   28.9684  -20.9936  -12.0750 C   0  0  0  0  0  0  0  0  0  0  0  0
   27.8015  -20.0357  -12.0176 C   0  0  0  0  0  0  0  0  0  0  0  0
   26.5624  -20.8151  -11.6154 C   0  0  2  0  0  0  0  0  0  0  0  0
   26.6922  -22.2170  -11.9945 N   0  0  0  0  0  0  0  0  0  0  0  0
   25.3492  -20.2900  -12.2830 C   0  0  0  0  0  0  0  0  0  0  0  0
   25.0240  -19.1001  -12.1200 O   0  0  0  0  0  0  0  0  0  0  0  0
   31.7824  -23.6545   -9.3088 N   0  0  0  0  0  0  0  0  0  0  0  0
   24.5018  -21.0890  -13.1270 C   0  0  1  0  0  0  0  0  0  0  0  0
   23.5060  -20.5381  -13.9801 C   0  0  0  0  0  0  0  0  0  0  0  0
   23.7433  -20.8929  -15.4222 C   0  0  0  0  0  0  0  0  0  0  0  0
   24.4343  -19.7815  -16.1159 C   0  0  0  0  0  0  0  0  0  0  0  0
   25.4320  -18.9855  -15.5305 N   0  0  0  0  0  0  0  0  0  0  0  0
   25.8266  -18.1352  -16.4773 C   0  0  0  0  0  0  0  0  0  0  0  0
   25.1445  -18.3442  -17.6136 C   0  0  0  0  0  0  0  0  0  0  0  0
   25.2262  -17.6973  -18.8291 C   0  0  0  0  0  0  0  0  0  0  0  0
   24.4004  -18.1042  -19.8451 C   0  0  0  0  0  0  0  0  0  0  0  0
   23.5066  -19.1335  -19.6667 C   0  0  0  0  0  0  0  0  0  0  0  0
   23.4184  -19.7824  -18.4625 C   0  0  0  0  0  0  0  0  0  0  0  0
   24.2370  -19.3937  -17.4279 C   0  0  0  0  0  0  0  0  0  0  0  0
   22.1159  -20.8857  -13.5301 O   0  0  0  0  0  0  0  0  0  0  0  0
   21.8135  -20.8442  -12.3119 N   0  0  0  0  0  0  0  0  0  0  0  0
   21.1220  -21.2670  -14.4679 C   0  0  2  0  0  0  0  0  0  0  0  0
   20.2182  -22.3912  -14.1449 C   0  0  0  0  0  0  0  0  0  0  0  0
   20.9910  -23.5648  -13.6572 C   0  0  0  0  0  0  0  0  0  0  0  0
   20.7120  -24.7493  -14.4935 O   0  0  0  0  0  0  0  0  0  0  0  0
   19.8912  -24.6023  -15.4661 C   0  0  0  0  0  0  0  0  0  0  0  0
   19.2606  -21.8526  -13.1437 O   0  0  0  0  0  0  0  0  0  0  0  0
   18.1820  -22.4313  -12.9311 O   0  0  0  0  0  0  0  0  0  0  0  0
   21.2423  -26.0027  -14.3342 O   0  0  0  0  0  0  0  0  0  0  0  0
  1  2  1  0
  2  4  1  0
  3  2  2  0
  4  5  1  0
  5  6  1  0
  7  6  1  0
  7  8  1  0
  8  9  1  6
 10 11  2  0
 10  8  1  0
 12 10  1  0
 13 12  1  0
 13 24  1  0
 13 14  1  1
 15 14  1  0
 16 15  2  0
 17 18  1  0
 17 16  1  0
 18 23  2  0
 19 20  2  0
 19 18  1  0
 20 21  1  0
 21 22  2  0
 23 15  1  0
 23 22  1  0
 24 26  1  0
 25 24  2  0
 26 27  1  0
 27 31  1  0
 28 29  1  0
 27 28  1  6
 29 30  2  0
 31 32  2  0
 31 34  1  0
 33 29  1  0
M  END
$$$$
