RWD.pdb
     RDKit          3D

 34 35  0  0  1  0  0  0  0  0999 V2000
   26.6313  -16.0472  -14.7790 N   0  0  0  0  0  0  0  0  0  0  0  0
   27.6837  -16.0263  -15.7204 C   0  0  0  0  0  0  0  0  0  0  0  0
   28.3485  -14.9575  -16.0156 N   0  0  0  0  0  0  0  0  0  0  0  0
   27.9988  -17.2789  -16.3613 N   0  0  0  0  0  0  0  0  0  0  0  0
   27.5459  -18.5169  -15.7475 C   0  0  0  0  0  0  0  0  0  0  0  0
   26.4027  -19.0497  -16.5879 C   0  0  0  0  0  0  0  0  0  0  0  0
   25.8452  -20.3320  -16.0158 C   0  0  0  0  0  0  0  0  0  0  0  0
   26.7100  -20.7465  -14.8390 C   0  0  2  0  0  0  0  0  0  0  0  0
   27.5960  -21.8421  -15.2139 N   0  0  0  0  0  0  0  0  0  0  0  0
   25.8889  -21.2157  -13.6994 C   0  0  0  0  0  0  0  0  0  0  0  0
   25.3100  -22.3148  -13.7701 O   0  0  0  0  0  0  0  0  0  0  0  0
   29.0562  -14.9877  -16.7607 N   0  0  0  0  0  0  0  0  0  0  0  0
   25.7131  -20.4616  -12.4872 C   0  0  2  0  0  0  0  0  0  0  0  0
   24.8139  -20.8430  -11.4533 C   0  0  0  0  0  0  0  0  0  0  0  0
   25.1585  -20.1933  -10.1415 C   0  0  0  0  0  0  0  0  0  0  0  0
   26.5556  -20.5096   -9.7647 C   0  0  0  0  0  0  0  0  0  0  0  0
   27.4266  -21.2858  -10.5463 N   0  0  0  0  0  0  0  0  0  0  0  0
   28.5879  -21.3050   -9.8934 C   0  0  0  0  0  0  0  0  0  0  0  0
   28.5030  -20.5953   -8.7580 C   0  0  0  0  0  0  0  0  0  0  0  0
   29.4541  -20.3563   -7.7880 C   0  0  0  0  0  0  0  0  0  0  0  0
   29.1071  -19.5922   -6.7038 C   0  0  0  0  0  0  0  0  0  0  0  0
   27.8413  -19.0709   -6.5764 C   0  0  0  0  0  0  0  0  0  0  0  0
   26.8896  -19.3029   -7.5352 C   0  0  0  0  0  0  0  0  0  0  0  0
   27.2134  -20.0654   -8.6332 C   0  0  0  0  0  0  0  0  0  0  0  0
   23.3789  -20.6226  -11.8377 O   0  0  0  0  0  0  0  0  0  0  0  0
   22.9885  -19.4893  -12.2125 N   0  0  0  0  0  0  0  0  0  0  0  0
   22.4403  -21.6850  -11.7843 C   0  0  1  0  0  0  0  0  0  0  0  0
   21.0515  -21.4445  -12.2298 C   0  0  0  0  0  0  0  0  0  0  0  0
   20.7430  -22.2430  -13.4463 C   0  0  0  0  0  0  0  0  0  0  0  0
   20.0960  -21.3961  -14.4682 O   0  0  0  0  0  0  0  0  0  0  0  0
   19.8076  -20.1925  -14.1379 C   0  0  0  0  0  0  0  0  0  0  0  0
   20.1976  -21.7866  -11.0621 O   0  0  0  0  0  0  0  0  0  0  0  0
   18.9623  -21.6754  -11.1330 O   0  0  0  0  0  0  0  0  0  0  0  0
   19.7657  -21.7682  -15.7450 O   0  0  0  0  0  0  0  0  0  0  0  0
  1  2  1  0
  2  4  1  0
  3  2  2  0
  4  5  1  0
  5  6  1  0
  7  6  1  0
  7  8  1  0
  8  9  1  6
 10 11  2  0
 10  8  1  0
 12 10  1  0
 13 12  1  0
 13 24  1  0
 13 14  1  6
 15 14  1  0
 16 15  2  0
 17 18  1  0
 17 16  1  0
 18 23  2  0
 19 20  2  0
 19 18  1  0
 20 21  1  0
 21 22  2  0
 23 15  1  0
 23 22  1  0
 24 26  1  0
 25 24  2  0
 26 27  1  0
 27 31  1  0
 28 29  1  0
 27 28  1  1
 29 30  2  0
 31 32  2  0
 31 34  1  0
 33 29  1  0
M  END
$$$$
