RWD.pdb
     RDKit          3D

 34 35  0  0  1  0  0  0  0  0999 V2000
   30.1212  -17.3277  -18.2511 N   0  0  0  0  0  0  0  0  0  0  0  0
   30.3549  -18.5711  -17.6235 C   0  0  0  0  0  0  0  0  0  0  0  0
   31.2850  -19.3883  -17.9958 N   0  0  0  0  0  0  0  0  0  0  0  0
   29.4910  -18.9069  -16.5191 N   0  0  0  0  0  0  0  0  0  0  0  0
   28.3430  -18.0589  -16.2405 C   0  0  0  0  0  0  0  0  0  0  0  0
   27.6131  -18.6565  -15.0542 C   0  0  0  0  0  0  0  0  0  0  0  0
   28.2547  -19.9474  -14.6020 C   0  0  0  0  0  0  0  0  0  0  0  0
   27.3688  -21.1003  -15.0386 C   0  0  2  0  0  0  0  0  0  0  0  0
   26.7213  -20.7976  -16.3094 N   0  0  0  0  0  0  0  0  0  0  0  0
   26.2970  -21.3665  -14.0518 C   0  0  0  0  0  0  0  0  0  0  0  0
   25.1259  -21.5206  -14.4428 O   0  0  0  0  0  0  0  0  0  0  0  0
   31.3875  -20.2936  -17.5196 N   0  0  0  0  0  0  0  0  0  0  0  0
   26.5304  -21.4584  -12.6355 C   0  0  1  0  0  0  0  0  0  0  0  0
   25.5269  -21.8371  -11.7014 C   0  0  0  0  0  0  0  0  0  0  0  0
   26.0876  -22.0194  -10.3179 C   0  0  0  0  0  0  0  0  0  0  0  0
   26.3757  -20.7023   -9.7045 C   0  0  0  0  0  0  0  0  0  0  0  0
   26.1158  -19.4697  -10.3250 N   0  0  0  0  0  0  0  0  0  0  0  0
   26.4716  -18.5335   -9.4462 C   0  0  0  0  0  0  0  0  0  0  0  0
   26.9362  -19.0954   -8.3200 C   0  0  0  0  0  0  0  0  0  0  0  0
   27.4117  -18.5077   -7.1662 C   0  0  0  0  0  0  0  0  0  0  0  0
   27.8405  -19.3178   -6.1466 C   0  0  0  0  0  0  0  0  0  0  0  0
   27.8020  -20.6873   -6.2616 C   0  0  0  0  0  0  0  0  0  0  0  0
   27.3310  -21.2803   -7.4041 C   0  0  0  0  0  0  0  0  0  0  0  0
   26.8937  -20.4893   -8.4408 C   0  0  0  0  0  0  0  0  0  0  0  0
   24.3510  -20.9029  -11.7200 O   0  0  0  0  0  0  0  0  0  0  0  0
   24.5103  -19.6767  -11.5003 N   0  0  0  0  0  0  0  0  0  0  0  0
   23.0432  -21.3852  -11.9840 C   0  0  1  0  0  0  0  0  0  0  0  0
   21.9199  -20.4266  -12.0502 C   0  0  0  0  0  0  0  0  0  0  0  0
   21.3670  -20.3578  -13.4294 C   0  0  0  0  0  0  0  0  0  0  0  0
   22.0693  -19.3235  -14.2151 O   0  0  0  0  0  0  0  0  0  0  0  0
   22.0584  -18.1277  -13.7558 C   0  0  0  0  0  0  0  0  0  0  0  0
   20.9379  -20.8991  -11.0392 O   0  0  0  0  0  0  0  0  0  0  0  0
   19.9405  -20.2117  -10.7630 O   0  0  0  0  0  0  0  0  0  0  0  0
   22.7353  -19.5107  -15.3979 O   0  0  0  0  0  0  0  0  0  0  0  0
  1  2  1  0
  2  4  1  0
  3  2  2  0
  4  5  1  0
  5  6  1  0
  7  6  1  0
  7  8  1  0
  8  9  1  6
 10 11  2  0
 10  8  1  0
 12 10  1  0
 13 12  1  0
 13 24  1  0
 13 14  1  1
 15 14  1  0
 16 15  2  0
 17 18  1  0
 17 16  1  0
 18 23  2  0
 19 20  2  0
 19 18  1  0
 20 21  1  0
 21 22  2  0
 23 15  1  0
 23 22  1  0
 24 26  1  0
 25 24  2  0
 26 27  1  0
 27 31  1  0
 28 29  1  0
 27 28  1  1
 29 30  2  0
 31 32  2  0
 31 34  1  0
 33 29  1  0
M  END
$$$$
