RWD.pdb
     RDKit          3D

 34 35  0  0  1  0  0  0  0  0999 V2000
   28.3269  -24.0293  -19.0370 N   0  0  0  0  0  0  0  0  0  0  0  0
   27.9093  -24.9233  -18.0266 C   0  0  0  0  0  0  0  0  0  0  0  0
   27.9991  -26.2083  -18.1369 N   0  0  0  0  0  0  0  0  0  0  0  0
   27.3609  -24.3325  -16.8311 N   0  0  0  0  0  0  0  0  0  0  0  0
   27.3495  -22.8840  -16.7035 C   0  0  0  0  0  0  0  0  0  0  0  0
   28.3260  -22.5166  -15.6041 C   0  0  0  0  0  0  0  0  0  0  0  0
   27.7039  -22.6707  -14.2361 C   0  0  0  0  0  0  0  0  0  0  0  0
   26.7201  -21.5336  -14.0271 C   0  0  2  0  0  0  0  0  0  0  0  0
   27.4214  -20.2586  -13.9349 N   0  0  0  0  0  0  0  0  0  0  0  0
   25.9508  -21.7036  -12.7732 C   0  0  0  0  0  0  0  0  0  0  0  0
   25.4326  -22.8048  -12.5143 O   0  0  0  0  0  0  0  0  0  0  0  0
   27.6332  -26.8102  -17.3881 N   0  0  0  0  0  0  0  0  0  0  0  0
   25.7589  -20.6496  -11.8134 C   0  0  1  0  0  0  0  0  0  0  0  0
   24.9428  -20.7854  -10.6565 C   0  0  0  0  0  0  0  0  0  0  0  0
   25.3949  -19.8835   -9.5413 C   0  0  0  0  0  0  0  0  0  0  0  0
   26.7099  -20.3281   -9.0245 C   0  0  0  0  0  0  0  0  0  0  0  0
   27.6230  -21.1047   -9.7559 N   0  0  0  0  0  0  0  0  0  0  0  0
   28.6881  -21.2573   -8.9700 C   0  0  0  0  0  0  0  0  0  0  0  0
   28.5038  -20.6306   -7.7981 C   0  0  0  0  0  0  0  0  0  0  0  0
   29.3364  -20.5350   -6.7026 C   0  0  0  0  0  0  0  0  0  0  0  0
   28.9026  -19.8313   -5.6088 C   0  0  0  0  0  0  0  0  0  0  0  0
   27.6661  -19.2304   -5.5938 C   0  0  0  0  0  0  0  0  0  0  0  0
   26.8318  -19.3199   -6.6778 C   0  0  0  0  0  0  0  0  0  0  0  0
   27.2446  -20.0192   -7.7879 C   0  0  0  0  0  0  0  0  0  0  0  0
   23.4830  -20.6176  -10.9675 O   0  0  0  0  0  0  0  0  0  0  0  0
   23.1097  -19.7936  -11.8386 N   0  0  0  0  0  0  0  0  0  0  0  0
   22.5016  -21.3823  -10.2857 C   0  0  2  0  0  0  0  0  0  0  0  0
   21.0897  -21.2914  -10.7140 C   0  0  0  0  0  0  0  0  0  0  0  0
   20.3215  -22.4779  -10.2505 C   0  0  0  0  0  0  0  0  0  0  0  0
   20.2908  -22.5276   -8.7751 O   0  0  0  0  0  0  0  0  0  0  0  0
   20.9400  -21.6224   -8.1425 C   0  0  0  0  0  0  0  0  0  0  0  0
   20.5907  -20.0062  -10.1581 O   0  0  0  0  0  0  0  0  0  0  0  0
   21.3303  -19.2956   -9.4570 O   0  0  0  0  0  0  0  0  0  0  0  0
   19.6364  -23.4525   -8.0043 O   0  0  0  0  0  0  0  0  0  0  0  0
  1  2  1  0
  2  4  1  0
  3  2  2  0
  4  5  1  0
  5  6  1  0
  7  6  1  0
  7  8  1  0
  8  9  1  1
 10 11  2  0
 10  8  1  0
 12 10  1  0
 13 12  1  0
 13 24  1  0
 13 14  1  1
 15 14  1  0
 16 15  2  0
 17 18  1  0
 17 16  1  0
 18 23  2  0
 19 20  2  0
 19 18  1  0
 20 21  1  0
 21 22  2  0
 23 15  1  0
 23 22  1  0
 24 26  1  0
 25 24  2  0
 26 27  1  0
 27 31  1  0
 28 29  1  0
 27 28  1  1
 29 30  2  0
 31 32  2  0
 31 34  1  0
 33 29  1  0
M  END
$$$$
