RWD.pdb
     RDKit          3D

 34 35  0  0  1  0  0  0  0  0999 V2000
   28.4941  -18.7932  -18.3798 N   0  0  0  0  0  0  0  0  0  0  0  0
   28.9042  -19.8440  -19.2295 C   0  0  0  0  0  0  0  0  0  0  0  0
   29.5728  -19.6532  -20.3194 N   0  0  0  0  0  0  0  0  0  0  0  0
   28.5376  -21.1786  -18.8254 N   0  0  0  0  0  0  0  0  0  0  0  0
   29.1454  -21.7444  -17.6316 C   0  0  0  0  0  0  0  0  0  0  0  0
   28.8070  -20.8294  -16.4717 C   0  0  0  0  0  0  0  0  0  0  0  0
   28.2091  -21.5974  -15.3163 C   0  0  0  0  0  0  0  0  0  0  0  0
   26.7772  -21.1322  -15.1226 C   0  0  2  0  0  0  0  0  0  0  0  0
   26.6866  -19.6826  -15.2509 N   0  0  0  0  0  0  0  0  0  0  0  0
   26.2673  -21.4869  -13.7782 C   0  0  0  0  0  0  0  0  0  0  0  0
   26.2258  -22.6812  -13.4318 O   0  0  0  0  0  0  0  0  0  0  0  0
   29.7490  -20.4430  -20.9534 N   0  0  0  0  0  0  0  0  0  0  0  0
   25.8041  -20.5139  -12.8255 C   0  0  1  0  0  0  0  0  0  0  0  0
   25.2728  -20.8588  -11.5520 C   0  0  0  0  0  0  0  0  0  0  0  0
   25.7152  -19.9006  -10.4807 C   0  0  0  0  0  0  0  0  0  0  0  0
   27.0190  -20.3253   -9.9204 C   0  0  0  0  0  0  0  0  0  0  0  0
   27.9896  -21.0425  -10.6383 N   0  0  0  0  0  0  0  0  0  0  0  0
   29.0219  -21.1945   -9.8096 C   0  0  0  0  0  0  0  0  0  0  0  0
   28.7635  -20.6226   -8.6238 C   0  0  0  0  0  0  0  0  0  0  0  0
   29.5415  -20.5465   -7.4873 C   0  0  0  0  0  0  0  0  0  0  0  0
   29.0351  -19.9023   -6.3881 C   0  0  0  0  0  0  0  0  0  0  0  0
   27.7801  -19.3410   -6.4076 C   0  0  0  0  0  0  0  0  0  0  0  0
   26.9999  -19.4113   -7.5324 C   0  0  0  0  0  0  0  0  0  0  0  0
   27.4859  -20.0512   -8.6487 C   0  0  0  0  0  0  0  0  0  0  0  0
   23.7806  -21.0260  -11.5848 O   0  0  0  0  0  0  0  0  0  0  0  0
   23.1531  -21.3371  -10.5424 N   0  0  0  0  0  0  0  0  0  0  0  0
   23.0540  -20.8375  -12.7886 C   0  0  1  0  0  0  0  0  0  0  0  0
   21.5769  -20.8842  -12.7552 C   0  0  0  0  0  0  0  0  0  0  0  0
   21.0031  -19.5219  -12.9215 C   0  0  0  0  0  0  0  0  0  0  0  0
   19.9796  -19.2643  -11.8889 O   0  0  0  0  0  0  0  0  0  0  0  0
   19.7540  -20.1959  -11.0391 C   0  0  0  0  0  0  0  0  0  0  0  0
   21.1874  -21.8289  -13.8348 O   0  0  0  0  0  0  0  0  0  0  0  0
   20.3097  -22.6849  -13.6342 O   0  0  0  0  0  0  0  0  0  0  0  0
   19.2360  -18.1222  -11.7455 O   0  0  0  0  0  0  0  0  0  0  0  0
  1  2  1  0
  2  4  1  0
  3  2  2  0
  4  5  1  0
  5  6  1  0
  7  6  1  0
  7  8  1  0
  8  9  1  1
 10 11  2  0
 10  8  1  0
 12 10  1  0
 13 12  1  0
 13 24  1  0
 13 14  1  1
 15 14  1  0
 16 15  2  0
 17 18  1  0
 17 16  1  0
 18 23  2  0
 19 20  2  0
 19 18  1  0
 20 21  1  0
 21 22  2  0
 23 15  1  0
 23 22  1  0
 24 26  1  0
 25 24  2  0
 26 27  1  0
 27 31  1  0
 28 29  1  0
 27 28  1  6
 29 30  2  0
 31 32  2  0
 31 34  1  0
 33 29  1  0
M  END
$$$$
