RWD.pdb
     RDKit          3D

 34 35  0  0  1  0  0  0  0  0999 V2000
   26.7462  -17.8111  -18.5560 N   0  0  0  0  0  0  0  0  0  0  0  0
   25.6927  -18.5249  -19.1685 C   0  0  0  0  0  0  0  0  0  0  0  0
   25.2074  -18.2160  -20.3262 N   0  0  0  0  0  0  0  0  0  0  0  0
   25.1607  -19.6446  -18.4322 N   0  0  0  0  0  0  0  0  0  0  0  0
   25.5998  -19.8588  -17.0626 C   0  0  0  0  0  0  0  0  0  0  0  0
   26.1963  -21.2501  -16.9884 C   0  0  0  0  0  0  0  0  0  0  0  0
   25.7265  -21.9895  -15.7576 C   0  0  0  0  0  0  0  0  0  0  0  0
   26.4774  -21.4442  -14.5563 C   0  0  2  0  0  0  0  0  0  0  0  0
   27.7790  -22.0887  -14.4287 N   0  0  0  0  0  0  0  0  0  0  0  0
   25.7396  -21.6907  -13.2960 C   0  0  0  0  0  0  0  0  0  0  0  0
   25.0149  -22.6970  -13.1947 O   0  0  0  0  0  0  0  0  0  0  0  0
   24.4930  -18.8177  -20.7557 N   0  0  0  0  0  0  0  0  0  0  0  0
   25.8088  -20.8178  -12.1549 C   0  0  2  0  0  0  0  0  0  0  0  0
   24.8799  -20.8637  -11.0788 C   0  0  0  0  0  0  0  0  0  0  0  0
   25.3743  -20.1060   -9.8775 C   0  0  0  0  0  0  0  0  0  0  0  0
   26.7406  -20.5512   -9.5180 C   0  0  0  0  0  0  0  0  0  0  0  0
   27.5357  -21.3836  -10.3221 N   0  0  0  0  0  0  0  0  0  0  0  0
   28.6947  -21.5182   -9.6787 C   0  0  0  0  0  0  0  0  0  0  0  0
   28.6788  -20.8282   -8.5282 C   0  0  0  0  0  0  0  0  0  0  0  0
   29.6527  -20.6940   -7.5607 C   0  0  0  0  0  0  0  0  0  0  0  0
   29.3801  -19.9259   -6.4582 C   0  0  0  0  0  0  0  0  0  0  0  0
   28.1655  -19.2989   -6.3103 C   0  0  0  0  0  0  0  0  0  0  0  0
   27.1917  -19.4263   -7.2665 C   0  0  0  0  0  0  0  0  0  0  0  0
   27.4413  -20.1904   -8.3825 C   0  0  0  0  0  0  0  0  0  0  0  0
   23.5035  -20.4316  -11.4969 O   0  0  0  0  0  0  0  0  0  0  0  0
   23.3485  -19.6766  -12.4884 N   0  0  0  0  0  0  0  0  0  0  0  0
   22.3570  -20.8651  -10.7827 C   0  0  1  0  0  0  0  0  0  0  0  0
   21.0211  -20.7018  -11.3941 C   0  0  0  0  0  0  0  0  0  0  0  0
   20.9335  -21.4513  -12.6760 C   0  0  0  0  0  0  0  0  0  0  0  0
   19.5706  -21.3567  -13.2361 O   0  0  0  0  0  0  0  0  0  0  0  0
   19.0654  -20.1860  -13.3596 C   0  0  0  0  0  0  0  0  0  0  0  0
   20.0562  -21.1702  -10.3648 O   0  0  0  0  0  0  0  0  0  0  0  0
   19.1498  -20.4200   -9.9658 O   0  0  0  0  0  0  0  0  0  0  0  0
   18.7805  -22.4016  -13.6384 O   0  0  0  0  0  0  0  0  0  0  0  0
  1  2  1  0
  2  4  1  0
  3  2  2  0
  4  5  1  0
  5  6  1  0
  7  6  1  0
  7  8  1  0
  8  9  1  1
 10 11  2  0
 10  8  1  0
 12 10  1  0
 13 12  1  0
 13 24  1  0
 13 14  1  6
 15 14  1  0
 16 15  2  0
 17 18  1  0
 17 16  1  0
 18 23  2  0
 19 20  2  0
 19 18  1  0
 20 21  1  0
 21 22  2  0
 23 15  1  0
 23 22  1  0
 24 26  1  0
 25 24  2  0
 26 27  1  0
 27 31  1  0
 28 29  1  0
 27 28  1  1
 29 30  2  0
 31 32  2  0
 31 34  1  0
 33 29  1  0
M  END
$$$$
