RWD.pdb
     RDKit          3D

 34 35  0  0  1  0  0  0  0  0999 V2000
   23.0813  -16.2529  -15.8263 N   0  0  0  0  0  0  0  0  0  0  0  0
   23.9145  -15.1751  -15.4539 C   0  0  0  0  0  0  0  0  0  0  0  0
   23.4593  -14.0449  -15.0216 N   0  0  0  0  0  0  0  0  0  0  0  0
   25.3352  -15.3872  -15.5785 N   0  0  0  0  0  0  0  0  0  0  0  0
   25.8183  -16.6974  -15.9841 C   0  0  0  0  0  0  0  0  0  0  0  0
   26.0011  -17.5241  -14.7270 C   0  0  0  0  0  0  0  0  0  0  0  0
   27.4524  -17.5885  -14.3124 C   0  0  0  0  0  0  0  0  0  0  0  0
   27.9620  -18.9947  -14.5721 C   0  0  2  0  0  0  0  0  0  0  0  0
   28.1171  -19.2284  -16.0029 N   0  0  0  0  0  0  0  0  0  0  0  0
   27.0216  -20.0173  -14.0593 C   0  0  0  0  0  0  0  0  0  0  0  0
   26.4008  -20.7386  -14.8608 O   0  0  0  0  0  0  0  0  0  0  0  0
   24.1127  -13.2788  -14.8145 N   0  0  0  0  0  0  0  0  0  0  0  0
   26.7735  -20.2329  -12.6589 C   0  0  2  0  0  0  0  0  0  0  0  0
   26.1295  -21.3942  -12.1494 C   0  0  0  0  0  0  0  0  0  0  0  0
   26.8917  -22.0022  -11.0044 C   0  0  0  0  0  0  0  0  0  0  0  0
   26.6737  -21.2151   -9.7687 C   0  0  0  0  0  0  0  0  0  0  0  0
   25.4083  -20.8840   -9.2577 N   0  0  0  0  0  0  0  0  0  0  0  0
   25.6319  -20.2151   -8.1273 C   0  0  0  0  0  0  0  0  0  0  0  0
   26.9489  -20.1046   -7.8967 C   0  0  0  0  0  0  0  0  0  0  0  0
   27.6194  -19.4935   -6.8577 C   0  0  0  0  0  0  0  0  0  0  0  0
   28.9903  -19.5152   -6.8592 C   0  0  0  0  0  0  0  0  0  0  0  0
   29.6911  -20.1298   -7.8699 C   0  0  0  0  0  0  0  0  0  0  0  0
   29.0335  -20.7397   -8.9064 C   0  0  0  0  0  0  0  0  0  0  0  0
   27.6583  -20.7328   -8.9270 C   0  0  0  0  0  0  0  0  0  0  0  0
   24.6901  -21.1407  -11.8037 O   0  0  0  0  0  0  0  0  0  0  0  0
   24.0474  -21.9691  -11.1124 N   0  0  0  0  0  0  0  0  0  0  0  0
   24.0309  -19.9665  -12.2501 C   0  0  2  0  0  0  0  0  0  0  0  0
   22.9939  -20.0748  -13.2980 C   0  0  0  0  0  0  0  0  0  0  0  0
   23.5784  -20.5871  -14.5662 C   0  0  0  0  0  0  0  0  0  0  0  0
   22.5315  -20.7216  -15.5987 O   0  0  0  0  0  0  0  0  0  0  0  0
   21.3420  -20.3690  -15.2796 C   0  0  0  0  0  0  0  0  0  0  0  0
   21.9461  -20.9607  -12.7261 O   0  0  0  0  0  0  0  0  0  0  0  0
   20.7715  -20.5664  -12.6343 O   0  0  0  0  0  0  0  0  0  0  0  0
   22.7007  -21.1921  -16.8746 O   0  0  0  0  0  0  0  0  0  0  0  0
  1  2  1  0
  2  4  1  0
  3  2  2  0
  4  5  1  0
  5  6  1  0
  7  6  1  0
  7  8  1  0
  8  9  1  6
 10 11  2  0
 10  8  1  0
 12 10  1  0
 13 12  1  0
 13 24  1  0
 13 14  1  6
 15 14  1  0
 16 15  2  0
 17 18  1  0
 17 16  1  0
 18 23  2  0
 19 20  2  0
 19 18  1  0
 20 21  1  0
 21 22  2  0
 23 15  1  0
 23 22  1  0
 24 26  1  0
 25 24  2  0
 26 27  1  0
 27 31  1  0
 28 29  1  0
 27 28  1  6
 29 30  2  0
 31 32  2  0
 31 34  1  0
 33 29  1  0
M  END
$$$$
