RWD.pdb
     RDKit          3D

 34 35  0  0  1  0  0  0  0  0999 V2000
   30.7739  -24.4822  -16.1836 N   0  0  0  0  0  0  0  0  0  0  0  0
   30.8667  -23.7665  -17.3975 C   0  0  0  0  0  0  0  0  0  0  0  0
   31.5745  -24.1664  -18.4027 N   0  0  0  0  0  0  0  0  0  0  0  0
   30.1212  -22.5349  -17.4770 N   0  0  0  0  0  0  0  0  0  0  0  0
   29.2056  -22.1957  -16.3994 C   0  0  0  0  0  0  0  0  0  0  0  0
   27.7968  -22.3118  -16.9461 C   0  0  0  0  0  0  0  0  0  0  0  0
   26.7703  -21.8648  -15.9317 C   0  0  0  0  0  0  0  0  0  0  0  0
   26.9744  -22.6671  -14.6593 C   0  0  2  0  0  0  0  0  0  0  0  0
   27.0205  -24.0943  -14.9541 N   0  0  0  0  0  0  0  0  0  0  0  0
   25.8685  -22.4526  -13.6979 C   0  0  0  0  0  0  0  0  0  0  0  0
   24.8306  -23.1321  -13.7932 O   0  0  0  0  0  0  0  0  0  0  0  0
   31.6673  -23.5649  -19.2312 N   0  0  0  0  0  0  0  0  0  0  0  0
   25.9196  -21.4833  -12.6364 C   0  0  1  0  0  0  0  0  0  0  0  0
   24.8282  -21.2242  -11.7619 C   0  0  0  0  0  0  0  0  0  0  0  0
   25.2431  -20.3986  -10.5754 C   0  0  0  0  0  0  0  0  0  0  0  0
   26.5973  -20.7945  -10.1245 C   0  0  0  0  0  0  0  0  0  0  0  0
   27.4953  -21.5507  -10.8950 N   0  0  0  0  0  0  0  0  0  0  0  0
   28.6047  -21.6595  -10.1652 C   0  0  0  0  0  0  0  0  0  0  0  0
   28.4623  -21.0245   -8.9921 C   0  0  0  0  0  0  0  0  0  0  0  0
   29.3481  -20.8888   -7.9435 C   0  0  0  0  0  0  0  0  0  0  0  0
   28.9500  -20.1857   -6.8358 C   0  0  0  0  0  0  0  0  0  0  0  0
   27.6971  -19.6244   -6.7615 C   0  0  0  0  0  0  0  0  0  0  0  0
   26.8101  -19.7538   -7.7985 C   0  0  0  0  0  0  0  0  0  0  0  0
   27.1862  -20.4534   -8.9214 C   0  0  0  0  0  0  0  0  0  0  0  0
   23.6504  -20.6330  -12.4823 O   0  0  0  0  0  0  0  0  0  0  0  0
   23.4846  -19.3885  -12.5146 N   0  0  0  0  0  0  0  0  0  0  0  0
   22.7056  -21.4649  -13.1366 C   0  0  2  0  0  0  0  0  0  0  0  0
   21.2644  -21.2632  -12.8775 C   0  0  0  0  0  0  0  0  0  0  0  0
   21.0038  -21.1410  -11.4181 C   0  0  0  0  0  0  0  0  0  0  0  0
   19.5629  -20.9387  -11.1671 O   0  0  0  0  0  0  0  0  0  0  0  0
   19.0287  -19.8720  -11.6340 C   0  0  0  0  0  0  0  0  0  0  0  0
   20.8903  -20.0504  -13.6515 O   0  0  0  0  0  0  0  0  0  0  0  0
   19.8912  -20.0597  -14.3898 O   0  0  0  0  0  0  0  0  0  0  0  0
   18.7298  -21.7799  -10.4771 O   0  0  0  0  0  0  0  0  0  0  0  0
  1  2  1  0
  2  4  1  0
  3  2  2  0
  4  5  1  0
  5  6  1  0
  7  6  1  0
  7  8  1  0
  8  9  1  6
 10 11  2  0
 10  8  1  0
 12 10  1  0
 13 12  1  0
 13 24  1  0
 13 14  1  1
 15 14  1  0
 16 15  2  0
 17 18  1  0
 17 16  1  0
 18 23  2  0
 19 20  2  0
 19 18  1  0
 20 21  1  0
 21 22  2  0
 23 15  1  0
 23 22  1  0
 24 26  1  0
 25 24  2  0
 26 27  1  0
 27 31  1  0
 28 29  1  0
 27 28  1  1
 29 30  2  0
 31 32  2  0
 31 34  1  0
 33 29  1  0
M  END
$$$$
