PHT.pdb
     RDKit          3D

 25 26  0  0  1  0  0  0  0  0999 V2000
    8.9910  -14.6920   19.4461 N   0  0  0  0  0  0  0  0  0  0  0  0
    8.9757  -14.3331   18.0605 C   0  0  0  0  0  0  0  0  0  0  0  0
    7.9055  -13.2930   17.8846 C   0  0  0  0  0  0  0  0  0  0  0  0
    7.4689  -12.9640   19.2843 C   0  0  0  0  0  0  0  0  0  0  0  0
    8.5101  -13.5461   20.1948 C   0  0  1  0  0  0  0  0  0  0  0  0
    7.9482  -14.0086   21.4838 C   0  0  0  0  0  0  0  0  0  0  0  0
    7.2069  -13.2767   22.1631 O   0  0  0  0  0  0  0  0  0  0  0  0
    8.2650  -15.2996   21.9379 N   0  0  0  0  0  0  0  0  0  0  0  0
    7.7641  -15.8763   23.1676 C   0  0  1  0  0  0  0  0  0  0  0  0
    8.2994  -17.2915   23.2363 C   0  0  0  0  0  0  0  0  0  0  0  0
    7.6540  -18.1818   22.2558 C   0  0  0  0  0  0  0  0  0  0  0  0
    6.4172  -17.9245   21.7031 C   0  0  0  0  0  0  0  0  0  0  0  0
    6.1092  -18.9035   20.8610 N   0  0  0  0  0  0  0  0  0  0  0  0
    7.1121  -19.7889   20.8520 C   0  0  0  0  0  0  0  0  0  0  0  0
    8.0561  -19.3402   21.7096 N   0  0  0  0  0  0  0  0  0  0  0  0
    8.3677  -15.1391   24.3001 C   0  0  0  0  0  0  0  0  0  0  0  0
    9.5719  -14.8018   24.2322 O   0  0  0  0  0  0  0  0  0  0  0  0
    7.0192  -11.8143   25.9948 C   0  0  0  0  0  0  0  0  0  0  0  0
    7.2802  -12.8960   26.9986 C   0  0  1  0  0  0  0  0  0  0  0  0
    6.0906  -13.5389   27.3092 O   0  0  0  0  0  0  0  0  0  0  0  0
    8.2504  -13.9333   26.5189 C   0  0  2  0  0  0  0  0  0  0  0  0
    7.6584  -14.7833   25.4788 N   0  0  0  0  0  0  0  0  0  0  0  0
    8.7209  -14.8087   27.6344 C   0  0  0  0  0  0  0  0  0  0  0  0
    9.3829  -14.2673   28.7269 O   0  0  0  0  0  0  0  0  0  0  0  0
    8.5302  -16.0492   27.6119 O   0  0  0  0  0  0  0  0  0  0  0  0
  2  1  1  0
  3  2  1  0
  4  3  1  0
  4  5  1  0
  5  1  1  0
  5  6  1  1
  6  7  2  0
  8  6  1  0
  8  9  1  0
  9 16  1  0
  9 10  1  1
 10 11  1  0
 11 12  2  0
 12 13  1  0
 14 13  1  0
 15 11  1  0
 15 14  2  0
 16 17  2  0
 19 18  1  6
 19 21  1  0
 20 19  1  0
 21 23  1  0
 21 22  1  6
 22 16  1  0
 23 25  2  0
 23 24  1  0
M  END
$$$$
