PHT.pdb
     RDKit          3D

 25 26  0  0  1  0  0  0  0  0999 V2000
    8.7900  -15.0976   19.4054 N   0  0  0  0  0  0  0  0  0  0  0  0
    8.6573  -14.8267   18.0061 C   0  0  0  0  0  0  0  0  0  0  0  0
    7.6355  -13.7343   17.8618 C   0  0  0  0  0  0  0  0  0  0  0  0
    7.3598  -13.2905   19.2708 C   0  0  0  0  0  0  0  0  0  0  0  0
    8.4517  -13.8786   20.1157 C   0  0  1  0  0  0  0  0  0  0  0  0
    7.9955  -14.2224   21.4814 C   0  0  0  0  0  0  0  0  0  0  0  0
    7.4138  -13.3869   22.1956 O   0  0  0  0  0  0  0  0  0  0  0  0
    8.2294  -15.5189   21.9687 N   0  0  0  0  0  0  0  0  0  0  0  0
    7.6919  -16.0313   23.2113 C   0  0  1  0  0  0  0  0  0  0  0  0
    8.2510  -17.4280   23.3861 C   0  0  0  0  0  0  0  0  0  0  0  0
    7.8007  -18.0580   24.6395 C   0  0  0  0  0  0  0  0  0  0  0  0
    6.8117  -17.5244   25.4388 C   0  0  0  0  0  0  0  0  0  0  0  0
    6.6323  -18.3162   26.4892 N   0  0  0  0  0  0  0  0  0  0  0  0
    7.4776  -19.3488   26.3935 C   0  0  0  0  0  0  0  0  0  0  0  0
    8.1910  -19.1841   25.2569 N   0  0  0  0  0  0  0  0  0  0  0  0
    8.2366  -15.2147   24.3189 C   0  0  0  0  0  0  0  0  0  0  0  0
    9.4556  -14.9273   24.3189 O   0  0  0  0  0  0  0  0  0  0  0  0
    6.9480  -11.6737   25.6790 C   0  0  0  0  0  0  0  0  0  0  0  0
    7.0454  -12.7196   26.7478 C   0  0  1  0  0  0  0  0  0  0  0  0
    5.7978  -13.2901   26.9552 O   0  0  0  0  0  0  0  0  0  0  0  0
    8.0048  -13.8231   26.4165 C   0  0  2  0  0  0  0  0  0  0  0  0
    7.4539  -14.7276   25.4002 N   0  0  0  0  0  0  0  0  0  0  0  0
    8.3601  -14.6281   27.6239 C   0  0  0  0  0  0  0  0  0  0  0  0
    8.9888  -14.0350   28.7092 O   0  0  0  0  0  0  0  0  0  0  0  0
    8.1005  -15.8546   27.6868 O   0  0  0  0  0  0  0  0  0  0  0  0
  2  1  1  0
  3  2  1  0
  4  3  1  0
  4  5  1  0
  5  1  1  0
  5  6  1  1
  6  7  2  0
  8  6  1  0
  8  9  1  0
  9 16  1  0
  9 10  1  1
 10 11  1  0
 11 12  2  0
 12 13  1  0
 14 13  1  0
 15 11  1  0
 15 14  2  0
 16 17  2  0
 19 18  1  6
 19 21  1  0
 20 19  1  0
 21 23  1  0
 21 22  1  6
 22 16  1  0
 23 25  2  0
 23 24  1  0
M  END
$$$$
