PHT.pdb
     RDKit          3D

 25 26  0  0  1  0  0  0  0  0999 V2000
    9.0405  -13.0868   19.9899 N   0  0  0  0  0  0  0  0  0  0  0  0
    8.7849  -12.1227   18.9632 C   0  0  0  0  0  0  0  0  0  0  0  0
    8.2139  -12.8671   17.7894 C   0  0  0  0  0  0  0  0  0  0  0  0
    7.9922  -14.2622   18.3021 C   0  0  0  0  0  0  0  0  0  0  0  0
    8.1090  -14.1821   19.7961 C   0  0  1  0  0  0  0  0  0  0  0  0
    8.6751  -15.4132   20.3920 C   0  0  0  0  0  0  0  0  0  0  0  0
    8.1811  -16.5296   20.1551 O   0  0  0  0  0  0  0  0  0  0  0  0
    9.7906  -15.3061   21.2390 N   0  0  0  0  0  0  0  0  0  0  0  0
   10.3205  -16.3965   22.0299 C   0  0  1  0  0  0  0  0  0  0  0  0
   11.8167  -16.4195   21.7956 C   0  0  0  0  0  0  0  0  0  0  0  0
   12.1979  -15.7367   20.5470 C   0  0  0  0  0  0  0  0  0  0  0  0
   11.2878  -15.1102   19.7219 C   0  0  0  0  0  0  0  0  0  0  0  0
   11.9326  -14.5920   18.6836 N   0  0  0  0  0  0  0  0  0  0  0  0
   13.2360  -14.8649   18.8122 C   0  0  0  0  0  0  0  0  0  0  0  0
   13.3917  -15.5671   19.9570 N   0  0  0  0  0  0  0  0  0  0  0  0
   10.1200  -16.0676   23.4589 C   0  0  0  0  0  0  0  0  0  0  0  0
   10.5328  -14.9675   23.8923 O   0  0  0  0  0  0  0  0  0  0  0  0
    7.3974  -14.9541   25.4950 C   0  0  0  0  0  0  0  0  0  0  0  0
    7.8591  -16.2473   26.0951 C   0  0  1  0  0  0  0  0  0  0  0  0
    7.0825  -17.2891   25.6086 O   0  0  0  0  0  0  0  0  0  0  0  0
    9.2931  -16.5655   25.7952 C   0  0  2  0  0  0  0  0  0  0  0  0
    9.4793  -16.9327   24.3863 N   0  0  0  0  0  0  0  0  0  0  0  0
    9.8015  -17.6831   26.6466 C   0  0  0  0  0  0  0  0  0  0  0  0
    9.7899  -17.5795   28.0301 O   0  0  0  0  0  0  0  0  0  0  0  0
   10.2494  -18.7381   26.1349 O   0  0  0  0  0  0  0  0  0  0  0  0
  2  1  1  0
  3  2  1  0
  4  3  1  0
  4  5  1  0
  5  1  1  0
  5  6  1  6
  6  7  2  0
  8  6  1  0
  8  9  1  0
  9 16  1  0
  9 10  1  1
 10 11  1  0
 11 12  2  0
 12 13  1  0
 14 13  1  0
 15 11  1  0
 15 14  2  0
 16 17  2  0
 19 18  1  6
 19 21  1  0
 20 19  1  0
 21 23  1  0
 21 22  1  6
 22 16  1  0
 23 25  2  0
 23 24  1  0
M  END
$$$$
