PHT.pdb
     RDKit          3D

 25 26  0  0  1  0  0  0  0  0999 V2000
    7.7596  -14.7775   18.8572 N   0  0  0  0  0  0  0  0  0  0  0  0
    7.6144  -13.7236   17.8995 C   0  0  0  0  0  0  0  0  0  0  0  0
    7.6611  -12.4271   18.6578 C   0  0  0  0  0  0  0  0  0  0  0  0
    8.0333  -12.8251   20.0582 C   0  0  0  0  0  0  0  0  0  0  0  0
    8.5142  -14.2443   19.9757 C   0  0  1  0  0  0  0  0  0  0  0  0
    8.1985  -15.0264   21.1922 C   0  0  0  0  0  0  0  0  0  0  0  0
    7.0399  -15.4122   21.4274 O   0  0  0  0  0  0  0  0  0  0  0  0
    9.2346  -15.3324   22.0900 N   0  0  0  0  0  0  0  0  0  0  0  0
    9.0471  -16.0367   23.3407 C   0  0  1  0  0  0  0  0  0  0  0  0
   10.2444  -16.9483   23.5126 C   0  0  0  0  0  0  0  0  0  0  0  0
   10.1348  -18.1744   22.7032 C   0  0  0  0  0  0  0  0  0  0  0  0
    9.0583  -18.4439   21.8846 C   0  0  0  0  0  0  0  0  0  0  0  0
    9.2504  -19.6160   21.2916 N   0  0  0  0  0  0  0  0  0  0  0  0
   10.4218  -20.1145   21.7028 C   0  0  0  0  0  0  0  0  0  0  0  0
   10.9588  -19.2254   22.5683 N   0  0  0  0  0  0  0  0  0  0  0  0
    9.1067  -15.0466   24.4391 C   0  0  0  0  0  0  0  0  0  0  0  0
   10.0218  -14.1916   24.4367 O   0  0  0  0  0  0  0  0  0  0  0  0
    6.5896  -12.2986   25.6530 C   0  0  0  0  0  0  0  0  0  0  0  0
    6.9043  -13.2940   26.7281 C   0  0  1  0  0  0  0  0  0  0  0  0
    5.9303  -14.2820   26.7464 O   0  0  0  0  0  0  0  0  0  0  0  0
    8.2337  -13.9639   26.5500 C   0  0  2  0  0  0  0  0  0  0  0  0
    8.1782  -15.0021   25.5138 N   0  0  0  0  0  0  0  0  0  0  0  0
    8.7132  -14.5879   27.8199 C   0  0  0  0  0  0  0  0  0  0  0  0
    8.9655  -13.8083   28.9395 O   0  0  0  0  0  0  0  0  0  0  0  0
    8.8989  -15.8264   27.9059 O   0  0  0  0  0  0  0  0  0  0  0  0
  2  1  1  0
  3  2  1  0
  4  3  1  0
  4  5  1  0
  5  1  1  0
  5  6  1  1
  6  7  2  0
  8  6  1  0
  8  9  1  0
  9 16  1  0
  9 10  1  1
 10 11  1  0
 11 12  2  0
 12 13  1  0
 14 13  1  0
 15 11  1  0
 15 14  2  0
 16 17  2  0
 19 18  1  6
 19 21  1  0
 20 19  1  0
 21 23  1  0
 21 22  1  6
 22 16  1  0
 23 25  2  0
 23 24  1  0
M  END
$$$$
