PHT.pdb
     RDKit          3D

 25 26  0  0  1  0  0  0  0  0999 V2000
    7.2658  -15.0900   19.8352 N   0  0  0  0  0  0  0  0  0  0  0  0
    6.7465  -14.6297   18.5832 C   0  0  0  0  0  0  0  0  0  0  0  0
    7.4893  -13.3716   18.2317 C   0  0  0  0  0  0  0  0  0  0  0  0
    8.5757  -13.2765   19.2656 C   0  0  0  0  0  0  0  0  0  0  0  0
    8.6340  -14.6181   19.9355 C   0  0  1  0  0  0  0  0  0  0  0  0
    9.0138  -14.5280   21.3634 C   0  0  0  0  0  0  0  0  0  0  0  0
   10.1795  -14.2603   21.7043 O   0  0  0  0  0  0  0  0  0  0  0  0
    8.0313  -14.7508   22.3422 N   0  0  0  0  0  0  0  0  0  0  0  0
    8.1985  -14.4481   23.7479 C   0  0  1  0  0  0  0  0  0  0  0  0
    6.8670  -13.9231   24.2432 C   0  0  0  0  0  0  0  0  0  0  0  0
    6.9688  -13.3124   25.5800 C   0  0  0  0  0  0  0  0  0  0  0  0
    8.1433  -13.2675   26.3012 C   0  0  0  0  0  0  0  0  0  0  0  0
    7.9156  -12.6585   27.4586 N   0  0  0  0  0  0  0  0  0  0  0  0
    6.6257  -12.3070   27.5084 C   0  0  0  0  0  0  0  0  0  0  0  0
    6.0510  -12.7110   26.3532 N   0  0  0  0  0  0  0  0  0  0  0  0
    8.4468  -15.7187   24.4652 C   0  0  0  0  0  0  0  0  0  0  0  0
    7.6043  -16.6410   24.3759 O   0  0  0  0  0  0  0  0  0  0  0  0
   10.7790  -18.2578   23.7079 C   0  0  0  0  0  0  0  0  0  0  0  0
   11.0397  -17.9449   25.1501 C   0  0  1  0  0  0  0  0  0  0  0  0
   12.1326  -17.0962   25.2516 O   0  0  0  0  0  0  0  0  0  0  0  0
    9.8813  -17.2850   25.8359 C   0  0  2  0  0  0  0  0  0  0  0  0
    9.5976  -15.9643   25.2616 N   0  0  0  0  0  0  0  0  0  0  0  0
   10.1259  -17.1215   27.3007 C   0  0  0  0  0  0  0  0  0  0  0  0
   10.2473  -18.2305   28.1254 O   0  0  0  0  0  0  0  0  0  0  0  0
   10.2271  -15.9830   27.8196 O   0  0  0  0  0  0  0  0  0  0  0  0
  2  1  1  0
  3  2  1  0
  4  3  1  0
  4  5  1  0
  5  1  1  0
  5  6  1  1
  6  7  2  0
  8  6  1  0
  8  9  1  0
  9 16  1  0
  9 10  1  1
 10 11  1  0
 11 12  2  0
 12 13  1  0
 14 13  1  0
 15 11  1  0
 15 14  2  0
 16 17  2  0
 19 18  1  6
 19 21  1  0
 20 19  1  0
 21 23  1  0
 21 22  1  6
 22 16  1  0
 23 25  2  0
 23 24  1  0
M  END
$$$$
