PHT.pdb
     RDKit          3D

 25 26  0  0  1  0  0  0  0  0999 V2000
    9.2569  -14.1058   18.4468 N   0  0  0  0  0  0  0  0  0  0  0  0
    8.8314  -13.4672   17.2386 C   0  0  0  0  0  0  0  0  0  0  0  0
    7.3469  -13.2604   17.3464 C   0  0  0  0  0  0  0  0  0  0  0  0
    7.0165  -13.6465   18.7606 C   0  0  0  0  0  0  0  0  0  0  0  0
    8.3256  -13.7208   19.4905 C   0  0  1  0  0  0  0  0  0  0  0  0
    8.3306  -14.7529   20.5516 C   0  0  0  0  0  0  0  0  0  0  0  0
    7.3794  -14.8660   21.3448 O   0  0  0  0  0  0  0  0  0  0  0  0
    9.4351  -15.6146   20.6549 N   0  0  0  0  0  0  0  0  0  0  0  0
    9.5513  -16.6763   21.6320 C   0  0  1  0  0  0  0  0  0  0  0  0
   10.8447  -17.4055   21.3330 C   0  0  0  0  0  0  0  0  0  0  0  0
   10.7552  -18.2259   20.1126 C   0  0  0  0  0  0  0  0  0  0  0  0
    9.5631  -18.7055   19.6121 C   0  0  0  0  0  0  0  0  0  0  0  0
    9.8082  -19.4054   18.5110 N   0  0  0  0  0  0  0  0  0  0  0  0
   11.1265  -19.3930   18.2831 C   0  0  0  0  0  0  0  0  0  0  0  0
   11.7011  -18.6680   19.2691 N   0  0  0  0  0  0  0  0  0  0  0  0
    9.7123  -16.0571   22.9666 C   0  0  0  0  0  0  0  0  0  0  0  0
   10.5897  -15.1778   23.1261 O   0  0  0  0  0  0  0  0  0  0  0  0
    7.4759  -13.8739   25.1590 C   0  0  0  0  0  0  0  0  0  0  0  0
    7.8406  -15.1286   25.8928 C   0  0  1  0  0  0  0  0  0  0  0  0
    6.8232  -16.0616   25.7528 O   0  0  0  0  0  0  0  0  0  0  0  0
    9.1103  -15.7579   25.4035 C   0  0  2  0  0  0  0  0  0  0  0  0
    8.9233  -16.4008   24.0972 N   0  0  0  0  0  0  0  0  0  0  0  0
    9.6275  -16.7789   26.3637 C   0  0  0  0  0  0  0  0  0  0  0  0
    9.9998  -16.4153   27.6498 O   0  0  0  0  0  0  0  0  0  0  0  0
    9.7377  -17.9849   26.0334 O   0  0  0  0  0  0  0  0  0  0  0  0
  2  1  1  0
  3  2  1  0
  4  3  1  0
  4  5  1  0
  5  1  1  0
  5  6  1  1
  6  7  2  0
  8  6  1  0
  8  9  1  0
  9 16  1  0
  9 10  1  6
 10 11  1  0
 11 12  2  0
 12 13  1  0
 14 13  1  0
 15 11  1  0
 15 14  2  0
 16 17  2  0
 19 18  1  6
 19 21  1  0
 20 19  1  0
 21 23  1  0
 21 22  1  6
 22 16  1  0
 23 25  2  0
 23 24  1  0
M  END
$$$$
