PHT.pdb
     RDKit          3D

 25 26  0  0  1  0  0  0  0  0999 V2000
    9.1966  -14.2320   19.4793 N   0  0  0  0  0  0  0  0  0  0  0  0
    8.9502  -13.8795   18.1141 C   0  0  0  0  0  0  0  0  0  0  0  0
    7.4925  -13.5319   18.0029 C   0  0  0  0  0  0  0  0  0  0  0  0
    6.9989  -13.5276   19.4223 C   0  0  0  0  0  0  0  0  0  0  0  0
    8.2229  -13.5259   20.2906 C   0  0  1  0  0  0  0  0  0  0  0  0
    8.0239  -14.2602   21.5604 C   0  0  0  0  0  0  0  0  0  0  0  0
    6.9936  -14.1053   22.2395 O   0  0  0  0  0  0  0  0  0  0  0  0
    9.0237  -15.1453   21.9963 N   0  0  0  0  0  0  0  0  0  0  0  0
    8.9574  -15.9078   23.2250 C   0  0  1  0  0  0  0  0  0  0  0  0
   10.1735  -16.8105   23.2452 C   0  0  0  0  0  0  0  0  0  0  0  0
   10.0898  -17.8843   22.2401 C   0  0  0  0  0  0  0  0  0  0  0  0
    8.9266  -18.5727   21.9670 C   0  0  0  0  0  0  0  0  0  0  0  0
    9.1696  -19.4717   21.0209 N   0  0  0  0  0  0  0  0  0  0  0  0
   10.4584  -19.3857   20.6725 C   0  0  0  0  0  0  0  0  0  0  0  0
   11.0168  -18.4103   21.4240 N   0  0  0  0  0  0  0  0  0  0  0  0
    9.1082  -14.9676   24.3580 C   0  0  0  0  0  0  0  0  0  0  0  0
   10.0806  -14.1784   24.3667 O   0  0  0  0  0  0  0  0  0  0  0  0
    6.7394  -12.1806   25.5997 C   0  0  0  0  0  0  0  0  0  0  0  0
    7.0504  -13.1392   26.7088 C   0  0  1  0  0  0  0  0  0  0  0  0
    6.0287  -14.0716   26.8176 O   0  0  0  0  0  0  0  0  0  0  0  0
    8.3342  -13.8870   26.5082 C   0  0  2  0  0  0  0  0  0  0  0  0
    8.2070  -14.9010   25.4545 N   0  0  0  0  0  0  0  0  0  0  0  0
    8.7828  -14.5624   27.7631 C   0  0  0  0  0  0  0  0  0  0  0  0
    8.9355  -15.9406   27.8085 O   0  0  0  0  0  0  0  0  0  0  0  0
    9.0316  -13.9039   28.8024 O   0  0  0  0  0  0  0  0  0  0  0  0
  2  1  1  0
  3  2  1  0
  4  3  1  0
  4  5  1  0
  5  1  1  0
  5  6  1  1
  6  7  2  0
  8  6  1  0
  8  9  1  0
  9 16  1  0
  9 10  1  6
 10 11  1  0
 11 12  2  0
 12 13  1  0
 14 13  1  0
 15 11  1  0
 15 14  2  0
 16 17  2  0
 19 18  1  6
 19 21  1  0
 20 19  1  0
 21 23  1  0
 21 22  1  6
 22 16  1  0
 23 25  2  0
 23 24  1  0
M  END
$$$$
