PHT.pdb
     RDKit          3D

 25 26  0  0  1  0  0  0  0  0999 V2000
    9.1792  -14.4727   19.4611 N   0  0  0  0  0  0  0  0  0  0  0  0
    9.1834  -14.0738   18.0864 C   0  0  0  0  0  0  0  0  0  0  0  0
    7.9719  -13.2108   17.8725 C   0  0  0  0  0  0  0  0  0  0  0  0
    7.4116  -13.0028   19.2512 C   0  0  0  0  0  0  0  0  0  0  0  0
    8.4806  -13.4435   20.2079 C   0  0  1  0  0  0  0  0  0  0  0  0
    7.9295  -14.0328   21.4489 C   0  0  0  0  0  0  0  0  0  0  0  0
    6.9738  -13.5042   22.0439 O   0  0  0  0  0  0  0  0  0  0  0  0
    8.5045  -15.2104   21.9545 N   0  0  0  0  0  0  0  0  0  0  0  0
    8.0747  -15.8704   23.1691 C   0  0  1  0  0  0  0  0  0  0  0  0
    8.8019  -17.1978   23.2258 C   0  0  0  0  0  0  0  0  0  0  0  0
    8.3805  -18.1130   22.1509 C   0  0  0  0  0  0  0  0  0  0  0  0
    7.1023  -18.6206   22.0507 C   0  0  0  0  0  0  0  0  0  0  0  0
    7.0339  -19.4090   20.9848 N   0  0  0  0  0  0  0  0  0  0  0  0
    8.2324  -19.4269   20.3906 C   0  0  0  0  0  0  0  0  0  0  0  0
    9.0535  -18.6300   21.1109 N   0  0  0  0  0  0  0  0  0  0  0  0
    8.5557  -15.0738   24.3199 C   0  0  0  0  0  0  0  0  0  0  0  0
    9.7685  -14.7674   24.3817 O   0  0  0  0  0  0  0  0  0  0  0  0
    6.9554  -11.7043   25.9666 C   0  0  0  0  0  0  0  0  0  0  0  0
    7.1997  -12.8132   26.9444 C   0  0  1  0  0  0  0  0  0  0  0  0
    6.0171  -13.5028   27.1704 O   0  0  0  0  0  0  0  0  0  0  0  0
    8.2258  -13.8026   26.4799 C   0  0  2  0  0  0  0  0  0  0  0  0
    7.7176  -14.6266   25.3765 N   0  0  0  0  0  0  0  0  0  0  0  0
    8.6611  -14.7084   27.5854 C   0  0  0  0  0  0  0  0  0  0  0  0
    9.3091  -14.2004   28.7020 O   0  0  0  0  0  0  0  0  0  0  0  0
    8.4527  -15.9451   27.5325 O   0  0  0  0  0  0  0  0  0  0  0  0
  2  1  1  0
  3  2  1  0
  4  3  1  0
  4  5  1  0
  5  1  1  0
  5  6  1  1
  6  7  2  0
  8  6  1  0
  8  9  1  0
  9 16  1  0
  9 10  1  1
 10 11  1  0
 11 12  2  0
 12 13  1  0
 14 13  1  0
 15 11  1  0
 15 14  2  0
 16 17  2  0
 19 18  1  6
 19 21  1  0
 20 19  1  0
 21 23  1  0
 21 22  1  6
 22 16  1  0
 23 25  2  0
 23 24  1  0
M  END
$$$$
