PHT.pdb
     RDKit          3D

 25 26  0  0  1  0  0  0  0  0999 V2000
    9.3200  -13.9140   18.5796 N   0  0  0  0  0  0  0  0  0  0  0  0
    8.7995  -13.1986   17.4543 C   0  0  0  0  0  0  0  0  0  0  0  0
    7.3071  -13.1391   17.6196 C   0  0  0  0  0  0  0  0  0  0  0  0
    7.0599  -13.6933   18.9943 C   0  0  0  0  0  0  0  0  0  0  0  0
    8.3944  -13.7215   19.6801 C   0  0  1  0  0  0  0  0  0  0  0  0
    8.5258  -14.8501   20.6289 C   0  0  0  0  0  0  0  0  0  0  0  0
    7.6744  -15.0510   21.5129 O   0  0  0  0  0  0  0  0  0  0  0  0
    9.6365  -15.7030   20.5193 N   0  0  0  0  0  0  0  0  0  0  0  0
    9.8976  -16.8182   21.4045 C   0  0  1  0  0  0  0  0  0  0  0  0
   11.3011  -17.2990   21.0993 C   0  0  0  0  0  0  0  0  0  0  0  0
   11.6536  -18.5127   21.8562 C   0  0  0  0  0  0  0  0  0  0  0  0
   10.7956  -19.1212   22.7479 C   0  0  0  0  0  0  0  0  0  0  0  0
   11.3965  -20.1851   23.2669 N   0  0  0  0  0  0  0  0  0  0  0  0
   12.6208  -20.2838   22.7366 C   0  0  0  0  0  0  0  0  0  0  0  0
   12.7719  -19.2551   21.8724 N   0  0  0  0  0  0  0  0  0  0  0  0
    9.9168  -16.3078   22.7935 C   0  0  0  0  0  0  0  0  0  0  0  0
   10.7182  -15.3932   23.0932 O   0  0  0  0  0  0  0  0  0  0  0  0
    7.1672  -14.7814   25.1604 C   0  0  0  0  0  0  0  0  0  0  0  0
    7.8035  -15.9951   25.7668 C   0  0  1  0  0  0  0  0  0  0  0  0
    6.9949  -17.1016   25.5498 O   0  0  0  0  0  0  0  0  0  0  0  0
    9.1596  -16.3010   25.2053 C   0  0  2  0  0  0  0  0  0  0  0  0
    9.0715  -16.7957   23.8261 N   0  0  0  0  0  0  0  0  0  0  0  0
    9.8823  -17.3177   26.0275 C   0  0  0  0  0  0  0  0  0  0  0  0
   10.2210  -17.0496   27.3460 O   0  0  0  0  0  0  0  0  0  0  0  0
   10.1996  -18.4340   25.5492 O   0  0  0  0  0  0  0  0  0  0  0  0
  2  1  1  0
  3  2  1  0
  4  3  1  0
  4  5  1  0
  5  1  1  0
  5  6  1  1
  6  7  2  0
  8  6  1  0
  8  9  1  0
  9 16  1  0
  9 10  1  6
 10 11  1  0
 11 12  2  0
 12 13  1  0
 14 13  1  0
 15 11  1  0
 15 14  2  0
 16 17  2  0
 19 18  1  6
 19 21  1  0
 20 19  1  0
 21 23  1  0
 21 22  1  6
 22 16  1  0
 23 25  2  0
 23 24  1  0
M  END
$$$$
