PHT.pdb
     RDKit          3D

 25 26  0  0  1  0  0  0  0  0999 V2000
    8.7572  -18.4730   18.1082 N   0  0  0  0  0  0  0  0  0  0  0  0
    8.2018  -18.9092   16.8631 C   0  0  0  0  0  0  0  0  0  0  0  0
    8.7343  -17.9945   15.7964 C   0  0  0  0  0  0  0  0  0  0  0  0
    9.7623  -17.1551   16.5013 C   0  0  0  0  0  0  0  0  0  0  0  0
   10.0250  -17.8314   17.8149 C   0  0  1  0  0  0  0  0  0  0  0  0
   10.3469  -16.8735   18.8967 C   0  0  0  0  0  0  0  0  0  0  0  0
   11.4657  -16.3354   18.9687 O   0  0  0  0  0  0  0  0  0  0  0  0
    9.3629  -16.5747   19.8534 N   0  0  0  0  0  0  0  0  0  0  0  0
    9.5162  -15.5840   20.8976 C   0  0  1  0  0  0  0  0  0  0  0  0
    8.2312  -14.7831   20.9323 C   0  0  0  0  0  0  0  0  0  0  0  0
    7.9351  -14.1443   19.6382 C   0  0  0  0  0  0  0  0  0  0  0  0
    8.3749  -12.8812   19.3025 C   0  0  0  0  0  0  0  0  0  0  0  0
    7.9494  -12.5872   18.0798 N   0  0  0  0  0  0  0  0  0  0  0  0
    7.2455  -13.6247   17.6129 C   0  0  0  0  0  0  0  0  0  0  0  0
    7.2407  -14.5761   18.5736 N   0  0  0  0  0  0  0  0  0  0  0  0
    9.6093  -16.2927   22.1935 C   0  0  0  0  0  0  0  0  0  0  0  0
    8.5544  -16.6254   22.7808 O   0  0  0  0  0  0  0  0  0  0  0  0
   10.9369  -19.6503   22.9176 C   0  0  0  0  0  0  0  0  0  0  0  0
   11.6307  -18.7069   23.8527 C   0  0  1  0  0  0  0  0  0  0  0  0
   12.8879  -18.3982   23.3536 O   0  0  0  0  0  0  0  0  0  0  0  0
   10.8904  -17.4196   24.0589 C   0  0  2  0  0  0  0  0  0  0  0  0
   10.8378  -16.6259   22.8252 N   0  0  0  0  0  0  0  0  0  0  0  0
   11.5157  -16.5875   25.1307 C   0  0  0  0  0  0  0  0  0  0  0  0
   11.5057  -17.0119   26.4515 O   0  0  0  0  0  0  0  0  0  0  0  0
   12.0628  -15.4894   24.8650 O   0  0  0  0  0  0  0  0  0  0  0  0
  2  1  1  0
  3  2  1  0
  4  3  1  0
  4  5  1  0
  5  1  1  0
  5  6  1  1
  6  7  2  0
  8  6  1  0
  8  9  1  0
  9 16  1  0
  9 10  1  1
 10 11  1  0
 11 12  2  0
 12 13  1  0
 14 13  1  0
 15 11  1  0
 15 14  2  0
 16 17  2  0
 19 18  1  6
 19 21  1  0
 20 19  1  0
 21 23  1  0
 21 22  1  6
 22 16  1  0
 23 25  2  0
 23 24  1  0
M  END
$$$$
