PHT.pdb
     RDKit          3D

 25 26  0  0  1  0  0  0  0  0999 V2000
    8.9518  -14.7913   19.4358 N   0  0  0  0  0  0  0  0  0  0  0  0
    8.9465  -14.4436   18.0473 C   0  0  0  0  0  0  0  0  0  0  0  0
    7.8115  -13.4817   17.8363 C   0  0  0  0  0  0  0  0  0  0  0  0
    7.3181  -13.1744   19.2221 C   0  0  0  0  0  0  0  0  0  0  0  0
    8.3740  -13.6766   20.1628 C   0  0  1  0  0  0  0  0  0  0  0  0
    7.8132  -14.1684   21.4414 C   0  0  0  0  0  0  0  0  0  0  0  0
    7.0688  -13.4539   22.1356 O   0  0  0  0  0  0  0  0  0  0  0  0
    8.1348  -15.4674   21.8684 N   0  0  0  0  0  0  0  0  0  0  0  0
    7.6766  -16.0536   23.1101 C   0  0  1  0  0  0  0  0  0  0  0  0
    8.2801  -17.4406   23.1875 C   0  0  0  0  0  0  0  0  0  0  0  0
    7.9014  -18.1472   24.4235 C   0  0  0  0  0  0  0  0  0  0  0  0
    6.8956  -17.7145   25.2617 C   0  0  0  0  0  0  0  0  0  0  0  0
    6.7939  -18.5559   26.2835 N   0  0  0  0  0  0  0  0  0  0  0  0
    7.7060  -19.5228   26.1314 C   0  0  0  0  0  0  0  0  0  0  0  0
    8.3817  -19.2660   24.9888 N   0  0  0  0  0  0  0  0  0  0  0  0
    8.2570  -15.2755   24.2273 C   0  0  0  0  0  0  0  0  0  0  0  0
    9.4866  -15.0379   24.2273 O   0  0  0  0  0  0  0  0  0  0  0  0
    7.1001  -11.7702   25.9883 C   0  0  0  0  0  0  0  0  0  0  0  0
    7.2079  -12.9386   26.9204 C   0  0  1  0  0  0  0  0  0  0  0  0
    5.9519  -13.4945   27.1164 O   0  0  0  0  0  0  0  0  0  0  0  0
    8.1150  -14.0210   26.4174 C   0  0  2  0  0  0  0  0  0  0  0  0
    7.4976  -14.7723   25.3178 N   0  0  0  0  0  0  0  0  0  0  0  0
    8.4820  -14.9828   27.5001 C   0  0  0  0  0  0  0  0  0  0  0  0
    9.2384  -14.5688   28.5871 O   0  0  0  0  0  0  0  0  0  0  0  0
    8.1175  -16.1831   27.4544 O   0  0  0  0  0  0  0  0  0  0  0  0
  2  1  1  0
  3  2  1  0
  4  3  1  0
  4  5  1  0
  5  1  1  0
  5  6  1  1
  6  7  2  0
  8  6  1  0
  8  9  1  0
  9 16  1  0
  9 10  1  1
 10 11  1  0
 11 12  2  0
 12 13  1  0
 14 13  1  0
 15 11  1  0
 15 14  2  0
 16 17  2  0
 19 18  1  6
 19 21  1  0
 20 19  1  0
 21 23  1  0
 21 22  1  6
 22 16  1  0
 23 25  2  0
 23 24  1  0
M  END
$$$$
