ADR.pdb
     RDKit          3D

 25 24  0  0  1  0  0  0  0  0999 V2000
   21.1228  -15.9443  -18.1606 C   0  0  0  0  0  0  0  0  0  0  0  0
   22.1997  -16.3333  -17.1381 C   0  0  2  0  0  0  0  0  0  0  0  0
   23.0671  -15.1849  -16.9574 N   0  0  0  0  0  0  0  0  0  0  0  0
   22.9485  -17.5253  -17.5959 C   0  0  0  0  0  0  0  0  0  0  0  0
   22.3701  -18.6368  -17.6410 O   0  0  0  0  0  0  0  0  0  0  0  0
   24.3210  -17.4834  -17.9980 N   0  0  0  0  0  0  0  0  0  0  0  0
   25.0523  -18.6878  -18.3395 C   0  0  1  0  0  0  0  0  0  0  0  0
   26.0569  -18.3557  -19.3867 C   0  0  0  0  0  0  0  0  0  0  0  0
   27.2003  -17.5645  -18.8795 C   0  0  0  0  0  0  0  0  0  0  0  0
   27.0572  -16.6149  -18.0960 O   0  0  0  0  0  0  0  0  0  0  0  0
   25.6286  -19.2567  -17.1157 C   0  0  0  0  0  0  0  0  0  0  0  0
   26.1213  -18.4668  -16.2413 O   0  0  0  0  0  0  0  0  0  0  0  0
   28.4966  -17.8850  -19.2883 O   0  0  0  0  0  0  0  0  0  0  0  0
   24.8992  -20.8598   -9.3919 N   0  0  0  0  0  0  0  0  0  0  0  0
   23.7348  -21.0600  -10.1925 C   0  0  0  0  0  0  0  0  0  0  0  0
   22.6655  -21.4504   -9.5982 N   0  0  0  0  0  0  0  0  0  0  0  0
   23.7982  -20.8225  -11.5888 N   0  0  0  0  0  0  0  0  0  0  0  0
   24.9967  -20.3390  -12.1851 C   0  0  0  0  0  0  0  0  0  0  0  0
   25.5965  -21.2869  -13.2188 C   0  0  0  0  0  0  0  0  0  0  0  0
   25.2453  -20.7278  -14.5561 C   0  0  0  0  0  0  0  0  0  0  0  0
   26.1175  -21.2157  -15.6610 C   0  0  2  0  0  0  0  0  0  0  0  0
   25.6220  -20.6535  -16.9409 N   0  0  0  0  0  0  0  0  0  0  0  0
   26.0599  -22.6893  -15.7966 C   0  0  0  0  0  0  0  0  0  0  0  0
   25.3310  -23.2007  -16.6692 O   0  0  0  0  0  0  0  0  0  0  0  0
   26.7856  -23.5527  -14.9919 O   0  0  0  0  0  0  0  0  0  0  0  0
  2  1  1  6
  3  2  1  0
  4  2  1  0
  4  5  2  0
  6  4  1  0
  7  6  1  0
  7 11  1  0
  7  8  1  6
  9  8  1  0
 10  9  2  0
 11 12  2  0
 13  9  1  0
 15 14  1  0
 16 15  2  0
 17 15  1  0
 18 17  1  0
 19 18  1  0
 20 19  1  0
 21 20  1  1
 22 11  1  0
 22 21  1  0
 23 25  1  0
 23 21  1  0
 24 23  2  0
M  END
$$$$
