ADR.pdb
     RDKit          3D

 25 24  0  0  1  0  0  0  0  0999 V2000
   16.4245   -8.8076  -16.4912 C   0  0  0  0  0  0  0  0  0  0  0  0
   17.9521   -8.8929  -16.3662 C   0  0  2  0  0  0  0  0  0  0  0  0
   18.3548  -10.2136  -16.8105 N   0  0  0  0  0  0  0  0  0  0  0  0
   18.3783   -8.6238  -14.9745 C   0  0  0  0  0  0  0  0  0  0  0  0
   18.1306   -9.4667  -14.0800 O   0  0  0  0  0  0  0  0  0  0  0  0
   19.0702   -7.4345  -14.5815 N   0  0  0  0  0  0  0  0  0  0  0  0
   19.5446   -7.2417  -13.2251 C   0  0  1  0  0  0  0  0  0  0  0  0
   20.7735   -6.4024  -13.2639 C   0  0  0  0  0  0  0  0  0  0  0  0
   21.8916   -7.0251  -14.0073 C   0  0  0  0  0  0  0  0  0  0  0  0
   22.3023   -8.1676  -13.7578 O   0  0  0  0  0  0  0  0  0  0  0  0
   18.4579   -6.6754  -12.4178 C   0  0  0  0  0  0  0  0  0  0  0  0
   17.8066   -5.6762  -12.8748 O   0  0  0  0  0  0  0  0  0  0  0  0
   22.5200   -6.3139  -15.0317 O   0  0  0  0  0  0  0  0  0  0  0  0
   12.3804  -10.7368   -8.9766 N   0  0  0  0  0  0  0  0  0  0  0  0
   11.8894   -9.4283   -9.2657 C   0  0  0  0  0  0  0  0  0  0  0  0
   10.6318   -9.3027   -9.4932 N   0  0  0  0  0  0  0  0  0  0  0  0
   12.7902   -8.3336   -9.2881 N   0  0  0  0  0  0  0  0  0  0  0  0
   14.1310   -8.4927   -8.8378 C   0  0  0  0  0  0  0  0  0  0  0  0
   15.0131   -7.2732   -9.0859 C   0  0  0  0  0  0  0  0  0  0  0  0
   16.1630   -7.7462   -9.9093 C   0  0  0  0  0  0  0  0  0  0  0  0
   17.0802   -6.6562  -10.3455 C   0  0  2  0  0  0  0  0  0  0  0  0
   18.1651   -7.2481  -11.1656 N   0  0  0  0  0  0  0  0  0  0  0  0
   17.7347   -5.9949   -9.1934 C   0  0  0  0  0  0  0  0  0  0  0  0
   17.0469   -5.3423   -8.3839 O   0  0  0  0  0  0  0  0  0  0  0  0
   19.0983   -6.0607   -8.9570 O   0  0  0  0  0  0  0  0  0  0  0  0
  2  1  1  1
  3  2  1  0
  4  2  1  0
  4  5  2  0
  6  4  1  0
  7  6  1  0
  7 11  1  0
  7  8  1  6
  9  8  1  0
 10  9  2  0
 11 12  2  0
 13  9  1  0
 15 14  1  0
 16 15  2  0
 17 15  1  0
 18 17  1  0
 19 18  1  0
 20 19  1  0
 21 20  1  1
 22 11  1  0
 22 21  1  0
 23 25  1  0
 23 21  1  0
 24 23  2  0
M  END
$$$$
