ADR.pdb
     RDKit          3D

 25 24  0  0  1  0  0  0  0  0999 V2000
   19.4495  -10.6996  -16.2979 C   0  0  0  0  0  0  0  0  0  0  0  0
   20.8261  -10.0440  -16.1204 C   0  0  2  0  0  0  0  0  0  0  0  0
   21.8065  -11.1071  -16.0091 N   0  0  0  0  0  0  0  0  0  0  0  0
   20.8339   -9.1581  -14.9346 C   0  0  0  0  0  0  0  0  0  0  0  0
   20.6028   -9.6427  -13.8016 O   0  0  0  0  0  0  0  0  0  0  0  0
   21.0949   -7.7530  -15.0061 N   0  0  0  0  0  0  0  0  0  0  0  0
   21.0232   -6.9038  -13.8333 C   0  0  1  0  0  0  0  0  0  0  0  0
   21.9662   -5.7655  -14.0097 C   0  0  0  0  0  0  0  0  0  0  0  0
   21.9580   -4.8101  -12.8794 C   0  0  0  0  0  0  0  0  0  0  0  0
   21.8046   -5.1713  -11.7037 O   0  0  0  0  0  0  0  0  0  0  0  0
   19.6282   -6.4990  -13.6245 C   0  0  0  0  0  0  0  0  0  0  0  0
   18.9412   -6.1132  -14.6297 O   0  0  0  0  0  0  0  0  0  0  0  0
   22.1277   -3.4464  -13.1274 O   0  0  0  0  0  0  0  0  0  0  0  0
   14.1960   -7.9807   -6.7588 N   0  0  0  0  0  0  0  0  0  0  0  0
   13.4155   -7.6148   -7.8963 C   0  0  0  0  0  0  0  0  0  0  0  0
   12.1941   -8.0097   -7.9304 N   0  0  0  0  0  0  0  0  0  0  0  0
   14.0047   -6.8404   -8.9276 N   0  0  0  0  0  0  0  0  0  0  0  0
   15.3345   -7.1061   -9.3598 C   0  0  0  0  0  0  0  0  0  0  0  0
   15.8126   -6.1893  -10.4812 C   0  0  0  0  0  0  0  0  0  0  0  0
   17.1890   -6.6409  -10.8359 C   0  0  0  0  0  0  0  0  0  0  0  0
   17.7037   -6.0620  -12.1085 C   0  0  2  0  0  0  0  0  0  0  0  0
   19.0885   -6.5472  -12.3253 N   0  0  0  0  0  0  0  0  0  0  0  0
   17.7786   -4.5841  -12.0491 C   0  0  0  0  0  0  0  0  0  0  0  0
   18.8317   -4.0342  -11.6715 O   0  0  0  0  0  0  0  0  0  0  0  0
   16.7222   -3.7579  -12.3969 O   0  0  0  0  0  0  0  0  0  0  0  0
  2  1  1  1
  3  2  1  0
  4  2  1  0
  4  5  2  0
  6  4  1  0
  7  6  1  0
  7 11  1  0
  7  8  1  6
  9  8  1  0
 10  9  2  0
 11 12  2  0
 13  9  1  0
 15 14  1  0
 16 15  2  0
 17 15  1  0
 18 17  1  0
 19 18  1  0
 20 19  1  0
 21 20  1  1
 22 11  1  0
 22 21  1  0
 23 25  1  0
 23 21  1  0
 24 23  2  0
M  END
$$$$
