ADR.pdb
     RDKit          3D

 25 24  0  0  1  0  0  0  0  0999 V2000
   22.1965  -15.2162  -18.4394 C   0  0  0  0  0  0  0  0  0  0  0  0
   21.3558  -14.4191  -17.4322 C   0  0  2  0  0  0  0  0  0  0  0  0
   20.5951  -15.3715  -16.6460 N   0  0  0  0  0  0  0  0  0  0  0  0
   20.4786  -13.4540  -18.1321 C   0  0  0  0  0  0  0  0  0  0  0  0
   20.9917  -12.5002  -18.7637 O   0  0  0  0  0  0  0  0  0  0  0  0
   19.0507  -13.5468  -18.1305 N   0  0  0  0  0  0  0  0  0  0  0  0
   18.2220  -12.5611  -18.7966 C   0  0  1  0  0  0  0  0  0  0  0  0
   17.3391  -13.2594  -19.7707 C   0  0  0  0  0  0  0  0  0  0  0  0
   18.0595  -13.7805  -20.9539 C   0  0  0  0  0  0  0  0  0  0  0  0
   18.8701  -13.0958  -21.5944 O   0  0  0  0  0  0  0  0  0  0  0  0
   17.4991  -11.7850  -17.7825 C   0  0  0  0  0  0  0  0  0  0  0  0
   16.8796  -12.4078  -16.8554 O   0  0  0  0  0  0  0  0  0  0  0  0
   17.8301  -15.0905  -21.3798 O   0  0  0  0  0  0  0  0  0  0  0  0
   16.2925   -7.2784  -11.7870 N   0  0  0  0  0  0  0  0  0  0  0  0
   16.3841   -8.6332  -11.3477 C   0  0  0  0  0  0  0  0  0  0  0  0
   16.0667   -8.8851  -10.1292 N   0  0  0  0  0  0  0  0  0  0  0  0
   16.8115   -9.6345  -12.2560 N   0  0  0  0  0  0  0  0  0  0  0  0
   17.4116   -9.2757  -13.4958 C   0  0  0  0  0  0  0  0  0  0  0  0
   17.8151  -10.4708  -14.3536 C   0  0  0  0  0  0  0  0  0  0  0  0
   18.3301   -9.9126  -15.6371 C   0  0  0  0  0  0  0  0  0  0  0  0
   17.2630   -9.5938  -16.6266 C   0  0  2  0  0  0  0  0  0  0  0  0
   17.5090  -10.3794  -17.8604 N   0  0  0  0  0  0  0  0  0  0  0  0
   17.2892   -8.1670  -17.0224 C   0  0  0  0  0  0  0  0  0  0  0  0
   16.3851   -7.4019  -16.6333 O   0  0  0  0  0  0  0  0  0  0  0  0
   18.2829   -7.6200  -17.8181 O   0  0  0  0  0  0  0  0  0  0  0  0
  2  1  1  6
  3  2  1  0
  4  2  1  0
  4  5  2  0
  6  4  1  0
  7  6  1  0
  7 11  1  0
  7  8  1  6
  9  8  1  0
 10  9  2  0
 11 12  2  0
 13  9  1  0
 15 14  1  0
 16 15  2  0
 17 15  1  0
 18 17  1  0
 19 18  1  0
 20 19  1  0
 21 20  1  1
 22 11  1  0
 22 21  1  0
 23 25  1  0
 23 21  1  0
 24 23  2  0
M  END
$$$$
