ADR.pdb
     RDKit          3D

 25 24  0  0  1  0  0  0  0  0999 V2000
   21.8899  -26.6123  -17.0559 C   0  0  0  0  0  0  0  0  0  0  0  0
   21.7712  -25.6677  -15.8517 C   0  0  2  0  0  0  0  0  0  0  0  0
   21.1778  -26.4193  -14.7624 N   0  0  0  0  0  0  0  0  0  0  0  0
   20.9691  -24.4738  -16.2013 C   0  0  0  0  0  0  0  0  0  0  0  0
   21.4214  -23.6480  -17.0292 O   0  0  0  0  0  0  0  0  0  0  0  0
   19.6819  -24.2008  -15.6390 N   0  0  0  0  0  0  0  0  0  0  0  0
   18.9141  -23.0329  -16.0241 C   0  0  1  0  0  0  0  0  0  0  0  0
   17.5073  -23.4486  -16.2773 C   0  0  0  0  0  0  0  0  0  0  0  0
   16.6429  -22.3480  -16.7591 C   0  0  0  0  0  0  0  0  0  0  0  0
   17.0699  -21.1995  -16.9459 O   0  0  0  0  0  0  0  0  0  0  0  0
   19.0575  -22.0064  -14.9853 C   0  0  0  0  0  0  0  0  0  0  0  0
   18.5718  -22.2309  -13.8256 O   0  0  0  0  0  0  0  0  0  0  0  0
   15.2929  -22.5936  -17.0181 O   0  0  0  0  0  0  0  0  0  0  0  0
   26.1158  -20.9037  -15.2540 N   0  0  0  0  0  0  0  0  0  0  0  0
   25.7005  -21.6500  -14.1106 C   0  0  0  0  0  0  0  0  0  0  0  0
   26.5145  -22.5282  -13.6469 N   0  0  0  0  0  0  0  0  0  0  0  0
   24.4288  -21.3979  -13.5364 N   0  0  0  0  0  0  0  0  0  0  0  0
   23.5436  -20.4539  -14.1290 C   0  0  0  0  0  0  0  0  0  0  0  0
   22.2351  -20.2732  -13.3661 C   0  0  0  0  0  0  0  0  0  0  0  0
   21.3693  -19.4054  -14.2155 C   0  0  0  0  0  0  0  0  0  0  0  0
   19.9345  -19.8066  -14.2207 C   0  0  2  0  0  0  0  0  0  0  0  0
   19.7247  -20.8064  -15.2960 N   0  0  0  0  0  0  0  0  0  0  0  0
   19.0453  -18.6630  -14.5282 C   0  0  0  0  0  0  0  0  0  0  0  0
   18.6425  -18.4908  -15.6953 O   0  0  0  0  0  0  0  0  0  0  0  0
   18.6251  -17.7522  -13.5724 O   0  0  0  0  0  0  0  0  0  0  0  0
  2  1  1  6
  3  2  1  0
  4  2  1  0
  4  5  2  0
  6  4  1  0
  7  6  1  0
  7 11  1  0
  7  8  1  1
  9  8  1  0
 10  9  2  0
 11 12  2  0
 13  9  1  0
 15 14  1  0
 16 15  2  0
 17 15  1  0
 18 17  1  0
 19 18  1  0
 20 19  1  0
 21 20  1  6
 22 11  1  0
 22 21  1  0
 23 25  1  0
 23 21  1  0
 24 23  2  0
M  END
$$$$
