ADR.pdb
     RDKit          3D

 25 24  0  0  1  0  0  0  0  0999 V2000
   22.5339  -11.1445  -16.8994 C   0  0  0  0  0  0  0  0  0  0  0  0
   23.5367  -10.3405  -16.0600 C   0  0  2  0  0  0  0  0  0  0  0  0
   24.2310  -11.2744  -15.1942 N   0  0  0  0  0  0  0  0  0  0  0  0
   22.8441   -9.2829  -15.2902 C   0  0  0  0  0  0  0  0  0  0  0  0
   22.1848   -9.5942  -14.2703 O   0  0  0  0  0  0  0  0  0  0  0  0
   22.8831   -7.8981  -15.6485 N   0  0  0  0  0  0  0  0  0  0  0  0
   22.0998   -6.9051  -14.9397 C   0  0  1  0  0  0  0  0  0  0  0  0
   22.8638   -5.6277  -14.9084 C   0  0  0  0  0  0  0  0  0  0  0  0
   22.2086   -4.5660  -14.1123 C   0  0  0  0  0  0  0  0  0  0  0  0
   21.3571   -4.8132  -13.2462 O   0  0  0  0  0  0  0  0  0  0  0  0
   20.7810   -6.7987  -15.5744 C   0  0  0  0  0  0  0  0  0  0  0  0
   20.7089   -6.7970  -16.8495 O   0  0  0  0  0  0  0  0  0  0  0  0
   22.5494   -3.2296  -14.3311 O   0  0  0  0  0  0  0  0  0  0  0  0
   14.5877  -11.6853  -14.3896 N   0  0  0  0  0  0  0  0  0  0  0  0
   15.5386  -11.5284  -15.4423 C   0  0  0  0  0  0  0  0  0  0  0  0
   15.8916  -12.5822  -16.0856 N   0  0  0  0  0  0  0  0  0  0  0  0
   16.0480  -10.2384  -15.7366 N   0  0  0  0  0  0  0  0  0  0  0  0
   15.4590   -9.0800  -15.1561 C   0  0  0  0  0  0  0  0  0  0  0  0
   16.1117   -7.7722  -15.5927 C   0  0  0  0  0  0  0  0  0  0  0  0
   17.5020   -7.7955  -15.0538 C   0  0  0  0  0  0  0  0  0  0  0  0
   18.3064   -6.5932  -15.4101 C   0  0  2  0  0  0  0  0  0  0  0  0
   19.6358   -6.7017  -14.7615 N   0  0  0  0  0  0  0  0  0  0  0  0
   17.6883   -5.3478  -14.9003 C   0  0  0  0  0  0  0  0  0  0  0  0
   18.2789   -4.6763  -14.0317 O   0  0  0  0  0  0  0  0  0  0  0  0
   16.4636   -4.8741  -15.3426 O   0  0  0  0  0  0  0  0  0  0  0  0
  2  1  1  1
  3  2  1  0
  4  2  1  0
  4  5  2  0
  6  4  1  0
  7  6  1  0
  7 11  1  0
  7  8  1  6
  9  8  1  0
 10  9  2  0
 11 12  2  0
 13  9  1  0
 15 14  1  0
 16 15  2  0
 17 15  1  0
 18 17  1  0
 19 18  1  0
 20 19  1  0
 21 20  1  1
 22 11  1  0
 22 21  1  0
 23 25  1  0
 23 21  1  0
 24 23  2  0
M  END
$$$$
