ADR.pdb
     RDKit          3D

 25 24  0  0  1  0  0  0  0  0999 V2000
   28.4934  -15.9925  -19.4238 C   0  0  0  0  0  0  0  0  0  0  0  0
   28.3340  -17.4067  -18.8485 C   0  0  2  0  0  0  0  0  0  0  0  0
   28.2611  -18.3284  -19.9660 N   0  0  0  0  0  0  0  0  0  0  0  0
   27.1339  -17.4875  -17.9858 C   0  0  0  0  0  0  0  0  0  0  0  0
   27.0637  -16.7719  -16.9587 O   0  0  0  0  0  0  0  0  0  0  0  0
   26.0267  -18.3515  -18.2602 N   0  0  0  0  0  0  0  0  0  0  0  0
   24.8995  -18.4569  -17.3545 C   0  0  1  0  0  0  0  0  0  0  0  0
   23.6521  -18.5820  -18.1573 C   0  0  0  0  0  0  0  0  0  0  0  0
   23.2478  -17.3229  -18.8219 C   0  0  0  0  0  0  0  0  0  0  0  0
   23.0403  -17.2510  -20.0417 O   0  0  0  0  0  0  0  0  0  0  0  0
   25.1334  -19.5748  -16.4332 C   0  0  0  0  0  0  0  0  0  0  0  0
   25.8265  -20.5697  -16.8344 O   0  0  0  0  0  0  0  0  0  0  0  0
   23.0893  -16.1618  -18.0624 O   0  0  0  0  0  0  0  0  0  0  0  0
   24.8596  -19.6149   -8.7686 N   0  0  0  0  0  0  0  0  0  0  0  0
   25.3296  -20.9531   -8.6099 C   0  0  0  0  0  0  0  0  0  0  0  0
   24.9856  -21.5808   -7.5438 N   0  0  0  0  0  0  0  0  0  0  0  0
   26.1421  -21.5320   -9.6173 N   0  0  0  0  0  0  0  0  0  0  0  0
   26.3440  -20.8607  -10.8561 C   0  0  0  0  0  0  0  0  0  0  0  0
   25.0769  -20.7180  -11.6932 C   0  0  0  0  0  0  0  0  0  0  0  0
   25.4772  -20.0144  -12.9457 C   0  0  0  0  0  0  0  0  0  0  0  0
   24.9000  -20.6112  -14.1828 C   0  0  2  0  0  0  0  0  0  0  0  0
   24.5883  -19.5190  -15.1365 N   0  0  0  0  0  0  0  0  0  0  0  0
   23.6238  -21.3116  -13.9111 C   0  0  0  0  0  0  0  0  0  0  0  0
   22.5495  -20.6819  -13.9702 O   0  0  0  0  0  0  0  0  0  0  0  0
   23.5523  -22.6570  -13.5877 O   0  0  0  0  0  0  0  0  0  0  0  0
  2  1  1  6
  3  2  1  0
  4  2  1  0
  4  5  2  0
  6  4  1  0
  7  6  1  0
  7 11  1  0
  7  8  1  6
  9  8  1  0
 10  9  2  0
 11 12  2  0
 13  9  1  0
 15 14  1  0
 16 15  2  0
 17 15  1  0
 18 17  1  0
 19 18  1  0
 20 19  1  0
 21 20  1  1
 22 11  1  0
 22 21  1  0
 23 25  1  0
 23 21  1  0
 24 23  2  0
M  END
$$$$
