ADR.pdb
     RDKit          3D

 25 24  0  0  1  0  0  0  0  0999 V2000
   19.2563  -24.9813   -7.7589 C   0  0  0  0  0  0  0  0  0  0  0  0
   17.7561  -24.6575   -7.7866 C   0  0  2  0  0  0  0  0  0  0  0  0
   17.0644  -25.7271   -7.0928 N   0  0  0  0  0  0  0  0  0  0  0  0
   17.2804  -24.5037   -9.1798 C   0  0  0  0  0  0  0  0  0  0  0  0
   16.5270  -25.3756   -9.6737 O   0  0  0  0  0  0  0  0  0  0  0  0
   17.6368  -23.3964  -10.0131 N   0  0  0  0  0  0  0  0  0  0  0  0
   17.1627  -23.2868  -11.3789 C   0  0  1  0  0  0  0  0  0  0  0  0
   16.3593  -22.0400  -11.5067 C   0  0  0  0  0  0  0  0  0  0  0  0
   15.8054  -21.8299  -12.8630 C   0  0  0  0  0  0  0  0  0  0  0  0
   15.4778  -22.7701  -13.6012 O   0  0  0  0  0  0  0  0  0  0  0  0
   18.3129  -23.3539  -12.2877 C   0  0  0  0  0  0  0  0  0  0  0  0
   19.3041  -22.5741  -12.0863 O   0  0  0  0  0  0  0  0  0  0  0  0
   15.6386  -20.5305  -13.3465 O   0  0  0  0  0  0  0  0  0  0  0  0
   22.5005  -28.6026  -14.8884 N   0  0  0  0  0  0  0  0  0  0  0  0
   21.5142  -29.3888  -14.2206 C   0  0  0  0  0  0  0  0  0  0  0  0
   21.9235  -30.2481  -13.3586 N   0  0  0  0  0  0  0  0  0  0  0  0
   20.1431  -29.1948  -14.5250 N   0  0  0  0  0  0  0  0  0  0  0  0
   19.7024  -27.9846  -15.1309 C   0  0  0  0  0  0  0  0  0  0  0  0
   19.9896  -26.7388  -14.2989 C   0  0  0  0  0  0  0  0  0  0  0  0
   19.4031  -25.5893  -15.0464 C   0  0  0  0  0  0  0  0  0  0  0  0
   19.4357  -24.3029  -14.2956 C   0  0  2  0  0  0  0  0  0  0  0  0
   18.2908  -24.2736  -13.3532 N   0  0  0  0  0  0  0  0  0  0  0  0
   19.2724  -23.1376  -15.1948 C   0  0  0  0  0  0  0  0  0  0  0  0
   20.2605  -22.4312  -15.4753 O   0  0  0  0  0  0  0  0  0  0  0  0
   18.0574  -22.7784  -15.7556 O   0  0  0  0  0  0  0  0  0  0  0  0
  2  1  1  6
  3  2  1  0
  4  2  1  0
  4  5  2  0
  6  4  1  0
  7  6  1  0
  7 11  1  0
  7  8  1  1
  9  8  1  0
 10  9  2  0
 11 12  2  0
 13  9  1  0
 15 14  1  0
 16 15  2  0
 17 15  1  0
 18 17  1  0
 19 18  1  0
 20 19  1  0
 21 20  1  6
 22 11  1  0
 22 21  1  0
 23 25  1  0
 23 21  1  0
 24 23  2  0
M  END
$$$$
