ADR.pdb
     RDKit          3D

 25 24  0  0  1  0  0  0  0  0999 V2000
   19.9922  -15.3865  -19.2324 C   0  0  0  0  0  0  0  0  0  0  0  0
   20.8823  -14.6232  -18.2416 C   0  0  2  0  0  0  0  0  0  0  0  0
   20.7903  -15.2978  -16.9609 N   0  0  0  0  0  0  0  0  0  0  0  0
   20.4667  -13.2055  -18.1510 C   0  0  0  0  0  0  0  0  0  0  0  0
   20.5670  -12.4680  -19.1600 O   0  0  0  0  0  0  0  0  0  0  0  0
   19.9466  -12.6148  -16.9560 N   0  0  0  0  0  0  0  0  0  0  0  0
   19.6452  -11.1990  -16.8743 C   0  0  1  0  0  0  0  0  0  0  0  0
   18.1888  -11.0353  -16.6131 C   0  0  0  0  0  0  0  0  0  0  0  0
   17.7747   -9.6255  -16.4355 C   0  0  0  0  0  0  0  0  0  0  0  0
   18.3314   -8.6888  -17.0262 O   0  0  0  0  0  0  0  0  0  0  0  0
   20.5086  -10.5875  -15.8575 C   0  0  0  0  0  0  0  0  0  0  0  0
   20.4719  -11.0409  -14.6640 O   0  0  0  0  0  0  0  0  0  0  0  0
   16.7191   -9.3197  -15.5739 O   0  0  0  0  0  0  0  0  0  0  0  0
   28.3962  -10.6393  -16.6625 N   0  0  0  0  0  0  0  0  0  0  0  0
   27.7805  -11.7030  -15.9371 C   0  0  0  0  0  0  0  0  0  0  0  0
   28.4860  -12.7509  -15.7065 N   0  0  0  0  0  0  0  0  0  0  0  0
   26.4378  -11.5663  -15.5025 N   0  0  0  0  0  0  0  0  0  0  0  0
   25.7054  -10.3788  -15.7839 C   0  0  0  0  0  0  0  0  0  0  0  0
   24.2865  -10.3829  -15.2241 C   0  0  0  0  0  0  0  0  0  0  0  0
   23.6599   -9.1004  -15.6564 C   0  0  0  0  0  0  0  0  0  0  0  0
   22.2506   -8.9354  -15.2025 C   0  0  2  0  0  0  0  0  0  0  0  0
   21.3503   -9.5209  -16.2256 N   0  0  0  0  0  0  0  0  0  0  0  0
   21.8769   -7.5078  -15.0786 C   0  0  0  0  0  0  0  0  0  0  0  0
   21.2426   -6.9538  -15.9978 O   0  0  0  0  0  0  0  0  0  0  0  0
   22.1983   -6.7339  -13.9751 O   0  0  0  0  0  0  0  0  0  0  0  0
  2  1  1  6
  3  2  1  0
  4  2  1  0
  4  5  2  0
  6  4  1  0
  7  6  1  0
  7 11  1  0
  7  8  1  1
  9  8  1  0
 10  9  2  0
 11 12  2  0
 13  9  1  0
 15 14  1  0
 16 15  2  0
 17 15  1  0
 18 17  1  0
 19 18  1  0
 20 19  1  0
 21 20  1  6
 22 11  1  0
 22 21  1  0
 23 25  1  0
 23 21  1  0
 24 23  2  0
M  END
$$$$
