ADR.pdb
     RDKit          3D

 25 24  0  0  1  0  0  0  0  0999 V2000
   28.5304  -19.9370  -16.7575 C   0  0  0  0  0  0  0  0  0  0  0  0
   27.2615  -20.6581  -16.2818 C   0  0  2  0  0  0  0  0  0  0  0  0
   27.0935  -21.8391  -17.1070 N   0  0  0  0  0  0  0  0  0  0  0  0
   26.0890  -19.7580  -16.3591 C   0  0  0  0  0  0  0  0  0  0  0  0
   26.0228  -18.7650  -15.5966 O   0  0  0  0  0  0  0  0  0  0  0  0
   25.0046  -19.9582  -17.2709 N   0  0  0  0  0  0  0  0  0  0  0  0
   23.8275  -19.1121  -17.2528 C   0  0  1  0  0  0  0  0  0  0  0  0
   23.4260  -18.8225  -18.6568 C   0  0  0  0  0  0  0  0  0  0  0  0
   22.3237  -17.8409  -18.7663 C   0  0  0  0  0  0  0  0  0  0  0  0
   21.8278  -17.2840  -17.7763 O   0  0  0  0  0  0  0  0  0  0  0  0
   22.7844  -19.7663  -16.4545 C   0  0  0  0  0  0  0  0  0  0  0  0
   22.4764  -20.9778  -16.7165 O   0  0  0  0  0  0  0  0  0  0  0  0
   21.8099  -17.5177  -20.0239 O   0  0  0  0  0  0  0  0  0  0  0  0
   24.4331  -20.2889   -8.9518 N   0  0  0  0  0  0  0  0  0  0  0  0
   25.1982  -20.8760  -10.0038 C   0  0  0  0  0  0  0  0  0  0  0  0
   26.3815  -21.2860   -9.7200 N   0  0  0  0  0  0  0  0  0  0  0  0
   24.6341  -20.9861  -11.2999 N   0  0  0  0  0  0  0  0  0  0  0  0
   23.3827  -20.3764  -11.5967 C   0  0  0  0  0  0  0  0  0  0  0  0
   22.9770  -20.4844  -13.0631 C   0  0  0  0  0  0  0  0  0  0  0  0
   21.6577  -19.8002  -13.1862 C   0  0  0  0  0  0  0  0  0  0  0  0
   21.1446  -19.7277  -14.5830 C   0  0  2  0  0  0  0  0  0  0  0  0
   22.1545  -19.0415  -15.4251 N   0  0  0  0  0  0  0  0  0  0  0  0
   19.9042  -18.9236  -14.6717 C   0  0  0  0  0  0  0  0  0  0  0  0
   18.8803  -19.2998  -14.0681 O   0  0  0  0  0  0  0  0  0  0  0  0
   19.8130  -17.7503  -15.4031 O   0  0  0  0  0  0  0  0  0  0  0  0
  2  1  1  6
  3  2  1  0
  4  2  1  0
  4  5  2  0
  6  4  1  0
  7  6  1  0
  7 11  1  0
  7  8  1  6
  9  8  1  0
 10  9  2  0
 11 12  2  0
 13  9  1  0
 15 14  1  0
 16 15  2  0
 17 15  1  0
 18 17  1  0
 19 18  1  0
 20 19  1  0
 21 20  1  1
 22 11  1  0
 22 21  1  0
 23 25  1  0
 23 21  1  0
 24 23  2  0
M  END
$$$$
