ADR.pdb
     RDKit          3D

 25 24  0  0  1  0  0  0  0  0999 V2000
   32.5398   -5.4758  -14.1740 C   0  0  0  0  0  0  0  0  0  0  0  0
   32.9575   -5.1213  -15.6080 C   0  0  2  0  0  0  0  0  0  0  0  0
   32.7253   -3.7017  -15.7935 N   0  0  0  0  0  0  0  0  0  0  0  0
   32.2058   -5.9373  -16.5879 C   0  0  0  0  0  0  0  0  0  0  0  0
   31.0073   -5.6604  -16.8303 O   0  0  0  0  0  0  0  0  0  0  0  0
   32.7775   -7.0459  -17.2890 N   0  0  0  0  0  0  0  0  0  0  0  0
   32.0210   -7.7998  -18.2694 C   0  0  1  0  0  0  0  0  0  0  0  0
   32.9049   -8.0956  -19.4301 C   0  0  0  0  0  0  0  0  0  0  0  0
   32.2162   -8.8026  -20.5330 C   0  0  0  0  0  0  0  0  0  0  0  0
   30.9811   -8.8431  -20.6288 O   0  0  0  0  0  0  0  0  0  0  0  0
   31.4619   -8.9928  -17.6231 C   0  0  0  0  0  0  0  0  0  0  0  0
   32.2108   -9.6858  -16.8549 O   0  0  0  0  0  0  0  0  0  0  0  0
   32.9695   -9.4546  -21.5115 O   0  0  0  0  0  0  0  0  0  0  0  0
   23.0526  -11.0028  -16.6536 N   0  0  0  0  0  0  0  0  0  0  0  0
   23.6533  -12.0490  -15.8911 C   0  0  0  0  0  0  0  0  0  0  0  0
   22.8706  -12.8822  -15.3061 N   0  0  0  0  0  0  0  0  0  0  0  0
   25.0665  -12.1313  -15.8103 N   0  0  0  0  0  0  0  0  0  0  0  0
   25.8842  -11.1655  -16.4618 C   0  0  0  0  0  0  0  0  0  0  0  0
   27.3771  -11.4683  -16.3830 C   0  0  0  0  0  0  0  0  0  0  0  0
   28.0715  -10.3441  -17.0743 C   0  0  0  0  0  0  0  0  0  0  0  0
   29.5477  -10.5183  -17.1743 C   0  0  2  0  0  0  0  0  0  0  0  0
   30.1194   -9.3385  -17.8678 N   0  0  0  0  0  0  0  0  0  0  0  0
   29.9074  -11.7019  -17.9885 C   0  0  0  0  0  0  0  0  0  0  0  0
   29.9605  -11.6039  -19.2302 O   0  0  0  0  0  0  0  0  0  0  0  0
   30.1952  -12.9405  -17.4382 O   0  0  0  0  0  0  0  0  0  0  0  0
  2  1  1  1
  3  2  1  0
  4  2  1  0
  4  5  2  0
  6  4  1  0
  7  6  1  0
  7 11  1  0
  7  8  1  6
  9  8  1  0
 10  9  2  0
 11 12  2  0
 13  9  1  0
 15 14  1  0
 16 15  2  0
 17 15  1  0
 18 17  1  0
 19 18  1  0
 20 19  1  0
 21 20  1  6
 22 11  1  0
 22 21  1  0
 23 25  1  0
 23 21  1  0
 24 23  2  0
M  END
$$$$
