ADR.pdb
     RDKit          3D

 25 24  0  0  1  0  0  0  0  0999 V2000
   25.1306  -24.9903  -17.5657 C   0  0  0  0  0  0  0  0  0  0  0  0
   25.9535  -24.1250  -16.6010 C   0  0  2  0  0  0  0  0  0  0  0  0
   26.9346  -24.9861  -15.9688 N   0  0  0  0  0  0  0  0  0  0  0  0
   25.0736  -23.4676  -15.6088 C   0  0  0  0  0  0  0  0  0  0  0  0
   25.1810  -23.7664  -14.3959 O   0  0  0  0  0  0  0  0  0  0  0  0
   24.0876  -22.4916  -15.9589 N   0  0  0  0  0  0  0  0  0  0  0  0
   23.2444  -21.8671  -14.9584 C   0  0  1  0  0  0  0  0  0  0  0  0
   23.0307  -20.4429  -15.3356 C   0  0  0  0  0  0  0  0  0  0  0  0
   22.1332  -19.7146  -14.4112 C   0  0  0  0  0  0  0  0  0  0  0  0
   21.6988  -20.2223  -13.3673 O   0  0  0  0  0  0  0  0  0  0  0  0
   22.0066  -22.6444  -14.8281 C   0  0  0  0  0  0  0  0  0  0  0  0
   21.3818  -22.9907  -15.8869 O   0  0  0  0  0  0  0  0  0  0  0  0
   21.7503  -18.4053  -14.7098 O   0  0  0  0  0  0  0  0  0  0  0  0
   18.3572  -28.9973  -11.5999 N   0  0  0  0  0  0  0  0  0  0  0  0
   19.7657  -28.7827  -11.6829 C   0  0  0  0  0  0  0  0  0  0  0  0
   20.4962  -29.7716  -12.0537 N   0  0  0  0  0  0  0  0  0  0  0  0
   20.2981  -27.5084  -11.3618 N   0  0  0  0  0  0  0  0  0  0  0  0
   19.4413  -26.4548  -10.9354 C   0  0  0  0  0  0  0  0  0  0  0  0
   19.1121  -25.4466  -12.0316 C   0  0  0  0  0  0  0  0  0  0  0  0
   20.3706  -24.6936  -12.3025 C   0  0  0  0  0  0  0  0  0  0  0  0
   20.2566  -23.7105  -13.4160 C   0  0  2  0  0  0  0  0  0  0  0  0
   21.5441  -22.9851  -13.5429 N   0  0  0  0  0  0  0  0  0  0  0  0
   19.2211  -22.6879  -13.1423 C   0  0  0  0  0  0  0  0  0  0  0  0
   19.5356  -21.6315  -12.5599 O   0  0  0  0  0  0  0  0  0  0  0  0
   17.8923  -22.8400  -13.5041 O   0  0  0  0  0  0  0  0  0  0  0  0
  2  1  1  6
  3  2  1  0
  4  2  1  0
  4  5  2  0
  6  4  1  0
  7  6  1  0
  7 11  1  0
  7  8  1  6
  9  8  1  0
 10  9  2  0
 11 12  2  0
 13  9  1  0
 15 14  1  0
 16 15  2  0
 17 15  1  0
 18 17  1  0
 19 18  1  0
 20 19  1  0
 21 20  1  1
 22 11  1  0
 22 21  1  0
 23 25  1  0
 23 21  1  0
 24 23  2  0
M  END
$$$$
