ADR.pdb
     RDKit          3D

 25 24  0  0  1  0  0  0  0  0999 V2000
   21.1440  -20.5438  -13.3994 C   0  0  0  0  0  0  0  0  0  0  0  0
   20.8605  -19.9392  -14.7816 C   0  0  2  0  0  0  0  0  0  0  0  0
   19.8578  -20.7670  -15.4244 N   0  0  0  0  0  0  0  0  0  0  0  0
   22.1039  -19.8561  -15.5804 C   0  0  0  0  0  0  0  0  0  0  0  0
   23.1346  -20.4469  -15.1799 O   0  0  0  0  0  0  0  0  0  0  0  0
   22.2012  -19.1265  -16.8075 N   0  0  0  0  0  0  0  0  0  0  0  0
   23.3672  -19.2265  -17.6633 C   0  0  1  0  0  0  0  0  0  0  0  0
   23.0182  -18.6957  -19.0097 C   0  0  0  0  0  0  0  0  0  0  0  0
   24.1084  -18.8344  -20.0009 C   0  0  0  0  0  0  0  0  0  0  0  0
   25.2075  -19.3316  -19.7161 O   0  0  0  0  0  0  0  0  0  0  0  0
   24.4897  -18.5346  -17.0193 C   0  0  0  0  0  0  0  0  0  0  0  0
   24.3532  -17.3067  -16.6959 O   0  0  0  0  0  0  0  0  0  0  0  0
   23.9100  -18.3940  -21.3111 O   0  0  0  0  0  0  0  0  0  0  0  0
   27.2003  -21.8471  -10.3916 N   0  0  0  0  0  0  0  0  0  0  0  0
   25.9529  -21.1549  -10.4330 C   0  0  0  0  0  0  0  0  0  0  0  0
   25.1817  -21.2593   -9.4116 N   0  0  0  0  0  0  0  0  0  0  0  0
   25.6171  -20.3886  -11.5777 N   0  0  0  0  0  0  0  0  0  0  0  0
   26.5401  -20.2549  -12.6530 C   0  0  0  0  0  0  0  0  0  0  0  0
   26.0310  -19.3840  -13.7971 C   0  0  0  0  0  0  0  0  0  0  0  0
   27.1061  -19.3765  -14.8306 C   0  0  0  0  0  0  0  0  0  0  0  0
   26.7761  -18.5675  -16.0374 C   0  0  2  0  0  0  0  0  0  0  0  0
   25.6822  -19.2426  -16.7773 N   0  0  0  0  0  0  0  0  0  0  0  0
   27.9235  -18.4778  -16.9693 C   0  0  0  0  0  0  0  0  0  0  0  0
   28.5865  -19.5002  -17.2322 O   0  0  0  0  0  0  0  0  0  0  0  0
   28.3121  -17.2965  -17.5804 O   0  0  0  0  0  0  0  0  0  0  0  0
  2  1  1  1
  3  2  1  0
  4  2  1  0
  4  5  2  0
  6  4  1  0
  7  6  1  0
  7 11  1  0
  7  8  1  6
  9  8  1  0
 10  9  2  0
 11 12  2  0
 13  9  1  0
 15 14  1  0
 16 15  2  0
 17 15  1  0
 18 17  1  0
 19 18  1  0
 20 19  1  0
 21 20  1  1
 22 11  1  0
 22 21  1  0
 23 25  1  0
 23 21  1  0
 24 23  2  0
M  END
$$$$
