ADR.pdb
     RDKit          3D

 25 24  0  0  1  0  0  0  0  0999 V2000
   19.8258  -23.0086   -9.1856 C   0  0  0  0  0  0  0  0  0  0  0  0
   18.8303  -23.2854  -10.3209 C   0  0  2  0  0  0  0  0  0  0  0  0
   18.6486  -24.7221  -10.4034 N   0  0  0  0  0  0  0  0  0  0  0  0
   19.3205  -22.7159  -11.5961 C   0  0  0  0  0  0  0  0  0  0  0  0
   20.0798  -23.3979  -12.3243 O   0  0  0  0  0  0  0  0  0  0  0  0
   18.9722  -21.4066  -12.0564 N   0  0  0  0  0  0  0  0  0  0  0  0
   19.5247  -20.8562  -13.2786 C   0  0  1  0  0  0  0  0  0  0  0  0
   18.5913  -19.8207  -13.8006 C   0  0  0  0  0  0  0  0  0  0  0  0
   19.0503  -19.1910  -15.0588 C   0  0  0  0  0  0  0  0  0  0  0  0
   19.8470  -19.7463  -15.8289 O   0  0  0  0  0  0  0  0  0  0  0  0
   20.8785  -20.3597  -13.0064 C   0  0  0  0  0  0  0  0  0  0  0  0
   21.0607  -19.5800  -12.0114 O   0  0  0  0  0  0  0  0  0  0  0  0
   18.5793  -17.9236  -15.4081 O   0  0  0  0  0  0  0  0  0  0  0  0
   28.4354  -21.3671  -13.1158 N   0  0  0  0  0  0  0  0  0  0  0  0
   28.4195  -21.2165  -11.6966 C   0  0  0  0  0  0  0  0  0  0  0  0
   29.5116  -20.8561  -11.1254 N   0  0  0  0  0  0  0  0  0  0  0  0
   27.2201  -21.4629  -10.9817 N   0  0  0  0  0  0  0  0  0  0  0  0
   26.0534  -21.9121  -11.6621 C   0  0  0  0  0  0  0  0  0  0  0  0
   25.4892  -20.8984  -12.6525 C   0  0  0  0  0  0  0  0  0  0  0  0
   24.0110  -21.0960  -12.6605 C   0  0  0  0  0  0  0  0  0  0  0  0
   23.2885  -20.1993  -13.6058 C   0  0  2  0  0  0  0  0  0  0  0  0
   21.9352  -20.7558  -13.8480 N   0  0  0  0  0  0  0  0  0  0  0  0
   23.9605  -20.1345  -14.9239 C   0  0  0  0  0  0  0  0  0  0  0  0
   24.9377  -19.3768  -15.0819 O   0  0  0  0  0  0  0  0  0  0  0  0
   23.5573  -20.8843  -16.0171 O   0  0  0  0  0  0  0  0  0  0  0  0
  2  1  1  1
  3  2  1  0
  4  2  1  0
  4  5  2  0
  6  4  1  0
  7  6  1  0
  7 11  1  0
  7  8  1  1
  9  8  1  0
 10  9  2  0
 11 12  2  0
 13  9  1  0
 15 14  1  0
 16 15  2  0
 17 15  1  0
 18 17  1  0
 19 18  1  0
 20 19  1  0
 21 20  1  1
 22 11  1  0
 22 21  1  0
 23 25  1  0
 23 21  1  0
 24 23  2  0
M  END
$$$$
