QEC.pdb
     RDKit          3D

 25 24  0  0  1  0  0  0  0  0999 V2000
   26.6082  -21.6289   -9.6986 N   0  0  0  0  0  0  0  0  0  0  0  0
   25.3773  -21.3666   -9.0605 C   0  0  0  0  0  0  0  0  0  0  0  0
   25.1867  -21.8020   -7.9104 O   0  0  0  0  0  0  0  0  0  0  0  0
   24.3077  -20.5860   -9.7271 C   0  0  0  0  0  0  0  0  0  0  0  0
   24.7978  -20.0360  -11.0617 C   0  0  0  0  0  0  0  0  0  0  0  0
   24.5206  -21.0952  -12.1018 C   0  0  2  0  0  0  0  0  0  0  0  0
   25.3359  -22.2738  -11.8976 N   0  0  0  0  0  0  0  0  0  0  0  0
   24.7630  -20.6057  -13.4781 C   0  0  0  0  0  0  0  0  0  0  0  0
   25.8707  -20.8078  -14.0230 O   0  0  0  0  0  0  0  0  0  0  0  0
   23.7594  -19.9051  -14.2033 N   0  0  0  0  0  0  0  0  0  0  0  0
   23.9343  -19.5022  -15.5989 C   0  0  1  0  0  0  0  0  0  0  0  0
   22.6441  -19.7477  -16.3373 C   0  0  0  0  0  0  0  0  0  0  0  0
   21.4342  -19.1077  -15.7937 C   0  0  0  0  0  0  0  0  0  0  0  0
   20.2524  -19.4118  -16.6223 C   0  0  0  0  0  0  0  0  0  0  0  0
   20.1753  -18.9784  -17.7815 O   0  0  0  0  0  0  0  0  0  0  0  0
   24.2059  -18.0449  -15.5892 C   0  0  0  0  0  0  0  0  0  0  0  0
   23.4461  -17.2581  -14.9762 O   0  0  0  0  0  0  0  0  0  0  0  0
   19.2284  -20.1978  -16.0672 O   0  0  0  0  0  0  0  0  0  0  0  0
   25.3221  -17.4520  -16.2594 N   0  0  0  0  0  0  0  0  0  0  0  0
   25.5153  -16.0124  -16.3203 C   0  0  1  0  0  0  0  0  0  0  0  0
   26.9068  -15.7193  -15.7566 C   0  0  0  0  0  0  0  0  0  0  0  0
   27.3533  -13.9890  -15.9342 S   0  0  0  0  0  0  0  0  0  0  0  0
   25.3662  -15.4885  -17.6856 C   0  0  0  0  0  0  0  0  0  0  0  0
   24.8714  -14.3362  -17.9059 O   0  0  0  0  0  0  0  0  0  0  0  0
   25.7497  -16.2054  -18.8076 O   0  0  0  0  0  0  0  0  0  0  0  0
  1  2  1  0
  2  3  2  0
  4  5  1  0
  4  2  1  0
  5  6  1  0
  6  8  1  0
  6  7  1  1
  8  9  2  0
 10 11  1  0
 10  8  1  0
 12 13  1  0
 11 12  1  6
 13 14  1  0
 14 18  1  0
 14 15  2  0
 16 11  1  0
 17 16  2  0
 19 16  1  0
 20 19  1  0
 20 21  1  6
 22 21  1  0
 23 20  1  0
 24 23  2  0
 25 23  1  0
M  END
$$$$
