QEC.pdb
     RDKit          3D

 25 24  0  0  1  0  0  0  0  0999 V2000
   11.4497  -11.3281   -9.5168 N   0  0  0  0  0  0  0  0  0  0  0  0
   12.2432  -12.1051  -10.3874 C   0  0  0  0  0  0  0  0  0  0  0  0
   11.6936  -12.9562  -11.1100 O   0  0  0  0  0  0  0  0  0  0  0  0
   13.7136  -11.9314  -10.4611 C   0  0  0  0  0  0  0  0  0  0  0  0
   14.1125  -11.2951  -11.7876 C   0  0  0  0  0  0  0  0  0  0  0  0
   15.6132  -11.1282  -11.7612 C   0  0  2  0  0  0  0  0  0  0  0  0
   16.1889  -11.6450  -10.5377 N   0  0  0  0  0  0  0  0  0  0  0  0
   16.0216   -9.7112  -11.8946 C   0  0  0  0  0  0  0  0  0  0  0  0
   15.5252   -9.0043  -12.7993 O   0  0  0  0  0  0  0  0  0  0  0  0
   16.9728   -9.1277  -11.0120 N   0  0  0  0  0  0  0  0  0  0  0  0
   17.3676   -7.7217  -11.0995 C   0  0  1  0  0  0  0  0  0  0  0  0
   17.1741   -7.0812   -9.7495 C   0  0  0  0  0  0  0  0  0  0  0  0
   17.5315   -5.6573   -9.6313 C   0  0  0  0  0  0  0  0  0  0  0  0
   16.7645   -5.0032   -8.5544 C   0  0  0  0  0  0  0  0  0  0  0  0
   16.7402   -5.4973   -7.4174 O   0  0  0  0  0  0  0  0  0  0  0  0
   18.8127   -7.7063  -11.4295 C   0  0  0  0  0  0  0  0  0  0  0  0
   19.6478   -8.2452  -10.6652 O   0  0  0  0  0  0  0  0  0  0  0  0
   16.0703   -3.8179   -8.8502 O   0  0  0  0  0  0  0  0  0  0  0  0
   19.3399   -7.0929  -12.6096 N   0  0  0  0  0  0  0  0  0  0  0  0
   20.7640   -7.0679  -12.9011 C   0  0  1  0  0  0  0  0  0  0  0  0
   20.9610   -7.7615  -14.2503 C   0  0  0  0  0  0  0  0  0  0  0  0
   20.4471   -9.4814  -14.2033 S   0  0  0  0  0  0  0  0  0  0  0  0
   21.3050   -5.7012  -12.9143 C   0  0  0  0  0  0  0  0  0  0  0  0
   20.5490   -4.6877  -13.0636 O   0  0  0  0  0  0  0  0  0  0  0  0
   22.6558   -5.4303  -12.7669 O   0  0  0  0  0  0  0  0  0  0  0  0
  1  2  1  0
  2  3  2  0
  4  5  1  0
  4  2  1  0
  5  6  1  0
  6  8  1  0
  6  7  1  1
  8  9  2  0
 10 11  1  0
 10  8  1  0
 12 13  1  0
 11 12  1  1
 13 14  1  0
 14 18  1  0
 14 15  2  0
 16 11  1  0
 17 16  2  0
 19 16  1  0
 20 19  1  0
 20 21  1  6
 22 21  1  0
 23 20  1  0
 24 23  2  0
 25 23  1  0
M  END
$$$$
