QEC.pdb
     RDKit          3D

 25 24  0  0  1  0  0  0  0  0999 V2000
   26.4672  -22.3701  -10.3590 N   0  0  0  0  0  0  0  0  0  0  0  0
   25.7329  -21.5342   -9.4912 C   0  0  0  0  0  0  0  0  0  0  0  0
   25.6642  -21.8263   -8.2834 O   0  0  0  0  0  0  0  0  0  0  0  0
   25.0425  -20.3182   -9.9837 C   0  0  0  0  0  0  0  0  0  0  0  0
   25.3845  -20.0632  -11.4472 C   0  0  0  0  0  0  0  0  0  0  0  0
   24.2834  -20.6875  -12.2709 C   0  0  2  0  0  0  0  0  0  0  0  0
   24.3675  -22.1326  -12.2715 N   0  0  0  0  0  0  0  0  0  0  0  0
   24.3080  -20.2285  -13.6785 C   0  0  0  0  0  0  0  0  0  0  0  0
   25.1823  -20.6657  -14.4590 O   0  0  0  0  0  0  0  0  0  0  0  0
   23.3542  -19.2945  -14.1705 N   0  0  0  0  0  0  0  0  0  0  0  0
   23.3339  -18.8518  -15.5648 C   0  0  1  0  0  0  0  0  0  0  0  0
   21.8999  -18.7140  -16.0064 C   0  0  0  0  0  0  0  0  0  0  0  0
   21.6651  -18.0857  -17.3176 C   0  0  0  0  0  0  0  0  0  0  0  0
   20.2337  -18.1124  -17.6725 C   0  0  0  0  0  0  0  0  0  0  0  0
   19.6190  -17.0529  -17.8650 O   0  0  0  0  0  0  0  0  0  0  0  0
   23.9706  -17.5135  -15.5946 C   0  0  0  0  0  0  0  0  0  0  0  0
   23.6963  -16.6564  -14.7216 O   0  0  0  0  0  0  0  0  0  0  0  0
   19.5938  -19.3584  -17.7848 O   0  0  0  0  0  0  0  0  0  0  0  0
   24.9157  -17.1181  -16.5933 N   0  0  0  0  0  0  0  0  0  0  0  0
   25.4553  -15.7699  -16.6604 C   0  0  1  0  0  0  0  0  0  0  0  0
   26.7829  -15.7765  -15.9004 C   0  0  0  0  0  0  0  0  0  0  0  0
   27.6731  -14.2285  -16.0891 S   0  0  0  0  0  0  0  0  0  0  0  0
   25.6301  -15.3091  -18.0453 C   0  0  0  0  0  0  0  0  0  0  0  0
   25.9234  -16.1181  -18.9837 O   0  0  0  0  0  0  0  0  0  0  0  0
   25.4887  -13.9813  -18.4150 O   0  0  0  0  0  0  0  0  0  0  0  0
  1  2  1  0
  2  3  2  0
  4  5  1  0
  4  2  1  0
  5  6  1  0
  6  8  1  0
  6  7  1  6
  8  9  2  0
 10 11  1  0
 10  8  1  0
 12 13  1  0
 11 12  1  1
 13 14  1  0
 14 18  1  0
 14 15  2  0
 16 11  1  0
 17 16  2  0
 19 16  1  0
 20 19  1  0
 20 21  1  6
 22 21  1  0
 23 20  1  0
 24 23  2  0
 25 23  1  0
M  END
$$$$
