QEC.pdb
     RDKit          3D

 25 24  0  0  1  0  0  0  0  0999 V2000
   16.8986  -13.9430  -14.0105 N   0  0  0  0  0  0  0  0  0  0  0  0
   17.1233  -14.2575  -15.3676 C   0  0  0  0  0  0  0  0  0  0  0  0
   16.5946  -15.2762  -15.8486 O   0  0  0  0  0  0  0  0  0  0  0  0
   17.9730  -13.4041  -16.2323 C   0  0  0  0  0  0  0  0  0  0  0  0
   18.4279  -12.1605  -15.4771 C   0  0  0  0  0  0  0  0  0  0  0  0
   19.1550  -11.2851  -16.4699 C   0  0  2  0  0  0  0  0  0  0  0  0
   20.3418  -11.9325  -16.9875 N   0  0  0  0  0  0  0  0  0  0  0  0
   19.5625   -9.9892  -15.8807 C   0  0  0  0  0  0  0  0  0  0  0  0
   19.3588   -9.7676  -14.6666 O   0  0  0  0  0  0  0  0  0  0  0  0
   20.1853   -8.9804  -16.6672 N   0  0  0  0  0  0  0  0  0  0  0  0
   20.6765   -7.7274  -16.0935 C   0  0  1  0  0  0  0  0  0  0  0  0
   22.0445   -7.4423  -16.6569 C   0  0  0  0  0  0  0  0  0  0  0  0
   23.1726   -8.1888  -16.0745 C   0  0  0  0  0  0  0  0  0  0  0  0
   24.4291   -7.9000  -16.7910 C   0  0  0  0  0  0  0  0  0  0  0  0
   25.4734   -8.4933  -16.4826 O   0  0  0  0  0  0  0  0  0  0  0  0
   19.7474   -6.6626  -16.5411 C   0  0  0  0  0  0  0  0  0  0  0  0
   19.3339   -6.6321  -17.7245 O   0  0  0  0  0  0  0  0  0  0  0  0
   24.4094   -6.9446  -17.8211 O   0  0  0  0  0  0  0  0  0  0  0  0
   19.2712   -5.6253  -15.6785 N   0  0  0  0  0  0  0  0  0  0  0  0
   18.3199   -4.6207  -16.1248 C   0  0  1  0  0  0  0  0  0  0  0  0
   17.1658   -4.6140  -15.1208 C   0  0  0  0  0  0  0  0  0  0  0  0
   16.2616   -6.1655  -15.1258 S   0  0  0  0  0  0  0  0  0  0  0  0
   18.9331   -3.2904  -16.2490 C   0  0  0  0  0  0  0  0  0  0  0  0
   20.1492   -3.0862  -15.9323 O   0  0  0  0  0  0  0  0  0  0  0  0
   18.2364   -2.1863  -16.7130 O   0  0  0  0  0  0  0  0  0  0  0  0
  1  2  1  0
  2  3  2  0
  4  5  1  0
  4  2  1  0
  5  6  1  0
  6  8  1  0
  6  7  1  1
  8  9  2  0
 10 11  1  0
 10  8  1  0
 12 13  1  0
 11 12  1  6
 13 14  1  0
 14 18  1  0
 14 15  2  0
 16 11  1  0
 17 16  2  0
 19 16  1  0
 20 19  1  0
 20 21  1  1
 22 21  1  0
 23 20  1  0
 24 23  2  0
 25 23  1  0
M  END
$$$$
