QEC.pdb
     RDKit          3D

 25 24  0  0  1  0  0  0  0  0999 V2000
   22.3849  -20.7966  -12.2200 N   0  0  0  0  0  0  0  0  0  0  0  0
   22.4790  -20.9856  -10.8248 C   0  0  0  0  0  0  0  0  0  0  0  0
   21.4785  -21.3794  -10.1983 O   0  0  0  0  0  0  0  0  0  0  0  0
   23.7398  -20.7264  -10.0893 C   0  0  0  0  0  0  0  0  0  0  0  0
   24.7862  -20.1187  -11.0164 C   0  0  0  0  0  0  0  0  0  0  0  0
   25.2653  -21.2264  -11.9242 C   0  0  2  0  0  0  0  0  0  0  0  0
   26.1377  -22.1495  -11.2296 N   0  0  0  0  0  0  0  0  0  0  0  0
   25.9958  -20.7078  -13.1031 C   0  0  0  0  0  0  0  0  0  0  0  0
   27.1487  -20.2430  -12.9643 O   0  0  0  0  0  0  0  0  0  0  0  0
   25.4147  -20.7248  -14.4018 N   0  0  0  0  0  0  0  0  0  0  0  0
   26.1092  -20.2073  -15.5808 C   0  0  1  0  0  0  0  0  0  0  0  0
   25.9632  -21.2026  -16.7025 C   0  0  0  0  0  0  0  0  0  0  0  0
   26.8568  -22.3729  -16.6740 C   0  0  0  0  0  0  0  0  0  0  0  0
   28.2707  -21.9664  -16.7802 C   0  0  0  0  0  0  0  0  0  0  0  0
   29.0715  -22.2533  -15.8781 O   0  0  0  0  0  0  0  0  0  0  0  0
   25.4171  -18.9540  -15.9651 C   0  0  0  0  0  0  0  0  0  0  0  0
   24.1648  -18.8928  -15.9728 O   0  0  0  0  0  0  0  0  0  0  0  0
   28.6795  -21.2528  -17.9196 O   0  0  0  0  0  0  0  0  0  0  0  0
   26.1103  -17.7609  -16.3429 N   0  0  0  0  0  0  0  0  0  0  0  0
   25.4132  -16.5716  -16.8046 C   0  0  1  0  0  0  0  0  0  0  0  0
   26.3571  -15.3858  -16.5973 C   0  0  0  0  0  0  0  0  0  0  0  0
   26.8353  -15.2001  -14.8765 S   0  0  0  0  0  0  0  0  0  0  0  0
   24.9906  -16.6843  -18.2080 C   0  0  0  0  0  0  0  0  0  0  0  0
   25.6882  -17.3178  -19.0642 O   0  0  0  0  0  0  0  0  0  0  0  0
   23.8202  -16.1159  -18.6844 O   0  0  0  0  0  0  0  0  0  0  0  0
  1  2  1  0
  2  3  2  0
  4  5  1  0
  4  2  1  0
  5  6  1  0
  6  8  1  0
  6  7  1  1
  8  9  2  0
 10 11  1  0
 10  8  1  0
 12 13  1  0
 11 12  1  6
 13 14  1  0
 14 18  1  0
 14 15  2  0
 16 11  1  0
 17 16  2  0
 19 16  1  0
 20 19  1  0
 20 21  1  6
 22 21  1  0
 23 20  1  0
 24 23  2  0
 25 23  1  0
M  END
$$$$
