QEC.pdb
     RDKit          3D

 25 24  0  0  1  0  0  0  0  0999 V2000
   24.4810  -20.4833   -9.3857 N   0  0  0  0  0  0  0  0  0  0  0  0
   25.8738  -20.6944   -9.3039 C   0  0  0  0  0  0  0  0  0  0  0  0
   26.3718  -21.0347   -8.2154 O   0  0  0  0  0  0  0  0  0  0  0  0
   26.7562  -20.5206  -10.4825 C   0  0  0  0  0  0  0  0  0  0  0  0
   25.9612  -20.0032  -11.6758 C   0  0  0  0  0  0  0  0  0  0  0  0
   25.0871  -21.1407  -12.1478 C   0  0  2  0  0  0  0  0  0  0  0  0
   25.8683  -22.2121  -12.7287 N   0  0  0  0  0  0  0  0  0  0  0  0
   24.0936  -20.7029  -13.1546 C   0  0  0  0  0  0  0  0  0  0  0  0
   24.2714  -19.6334  -13.7784 O   0  0  0  0  0  0  0  0  0  0  0  0
   22.9312  -21.4746  -13.4334 N   0  0  0  0  0  0  0  0  0  0  0  0
   21.9556  -21.0868  -14.4523 C   0  0  1  0  0  0  0  0  0  0  0  0
   21.1757  -22.3087  -14.8634 C   0  0  0  0  0  0  0  0  0  0  0  0
   20.1641  -22.1284  -15.9185 C   0  0  0  0  0  0  0  0  0  0  0  0
   19.5564  -23.4173  -16.2997 C   0  0  0  0  0  0  0  0  0  0  0  0
   19.9263  -24.4670  -15.7532 O   0  0  0  0  0  0  0  0  0  0  0  0
   21.0284  -20.1261  -13.8085 C   0  0  0  0  0  0  0  0  0  0  0  0
   20.7904  -20.1945  -12.5794 O   0  0  0  0  0  0  0  0  0  0  0  0
   18.5580  -23.4215  -17.2885 O   0  0  0  0  0  0  0  0  0  0  0  0
   20.3597  -19.0835  -14.5245 N   0  0  0  0  0  0  0  0  0  0  0  0
   19.4557  -18.1505  -13.8720 C   0  0  1  0  0  0  0  0  0  0  0  0
   19.7288  -16.7672  -14.4655 C   0  0  0  0  0  0  0  0  0  0  0  0
   18.6758  -15.5054  -13.7419 S   0  0  0  0  0  0  0  0  0  0  0  0
   18.0465  -18.5366  -14.0330 C   0  0  0  0  0  0  0  0  0  0  0  0
   17.6322  -19.1180  -15.0872 O   0  0  0  0  0  0  0  0  0  0  0  0
   17.0895  -18.2964  -13.0602 O   0  0  0  0  0  0  0  0  0  0  0  0
  1  2  1  0
  2  3  2  0
  4  5  1  0
  4  2  1  0
  5  6  1  0
  6  8  1  0
  6  7  1  6
  8  9  2  0
 10 11  1  0
 10  8  1  0
 12 13  1  0
 11 12  1  1
 13 14  1  0
 14 18  1  0
 14 15  2  0
 16 11  1  0
 17 16  2  0
 19 16  1  0
 20 19  1  0
 20 21  1  6
 22 21  1  0
 23 20  1  0
 24 23  2  0
 25 23  1  0
M  END
$$$$
