QEC.pdb
     RDKit          3D

 25 24  0  0  1  0  0  0  0  0999 V2000
   12.4347  -12.1942  -10.0329 N   0  0  0  0  0  0  0  0  0  0  0  0
   13.0565  -12.7835  -11.1542 C   0  0  0  0  0  0  0  0  0  0  0  0
   12.5009  -13.7422  -11.7204 O   0  0  0  0  0  0  0  0  0  0  0  0
   14.3540  -12.2878  -11.6725 C   0  0  0  0  0  0  0  0  0  0  0  0
   14.8514  -11.1132  -10.8378 C   0  0  0  0  0  0  0  0  0  0  0  0
   16.1336  -10.6331  -11.4750 C   0  0  2  0  0  0  0  0  0  0  0  0
   17.2068  -11.5902  -11.3076 N   0  0  0  0  0  0  0  0  0  0  0  0
   16.5859   -9.3384  -10.9168 C   0  0  0  0  0  0  0  0  0  0  0  0
   17.2823   -9.3193   -9.8778 O   0  0  0  0  0  0  0  0  0  0  0  0
   16.2456   -8.1042  -11.5374 N   0  0  0  0  0  0  0  0  0  0  0  0
   16.6429   -6.8097  -10.9835 C   0  0  1  0  0  0  0  0  0  0  0  0
   16.7981   -5.8275  -12.1155 C   0  0  0  0  0  0  0  0  0  0  0  0
   17.1065   -4.4345  -11.7502 C   0  0  0  0  0  0  0  0  0  0  0  0
   17.2607   -3.5907  -12.9501 C   0  0  0  0  0  0  0  0  0  0  0  0
   18.3843   -3.1953  -13.2943 O   0  0  0  0  0  0  0  0  0  0  0  0
   15.5294   -6.3602  -10.1143 C   0  0  0  0  0  0  0  0  0  0  0  0
   14.3380   -6.5023  -10.4783 O   0  0  0  0  0  0  0  0  0  0  0  0
   16.1112   -3.2515  -13.6836 O   0  0  0  0  0  0  0  0  0  0  0  0
   15.7310   -5.7504   -8.8358 N   0  0  0  0  0  0  0  0  0  0  0  0
   14.6290   -5.2373   -8.0385 C   0  0  1  0  0  0  0  0  0  0  0  0
   14.9575   -5.5294   -6.5732 C   0  0  0  0  0  0  0  0  0  0  0  0
   13.7567   -4.7978   -5.4564 S   0  0  0  0  0  0  0  0  0  0  0  0
   14.4007   -3.8026   -8.2633 C   0  0  0  0  0  0  0  0  0  0  0  0
   13.2276   -3.3080   -8.2658 O   0  0  0  0  0  0  0  0  0  0  0  0
   15.4343   -2.9066   -8.4842 O   0  0  0  0  0  0  0  0  0  0  0  0
  1  2  1  0
  2  3  2  0
  4  5  1  0
  4  2  1  0
  5  6  1  0
  6  8  1  0
  6  7  1  1
  8  9  2  0
 10 11  1  0
 10  8  1  0
 12 13  1  0
 11 12  1  6
 13 14  1  0
 14 18  1  0
 14 15  2  0
 16 11  1  0
 17 16  2  0
 19 16  1  0
 20 19  1  0
 20 21  1  1
 22 21  1  0
 23 20  1  0
 24 23  2  0
 25 23  1  0
M  END
$$$$
