QEC.pdb
     RDKit          3D

 25 24  0  0  1  0  0  0  0  0999 V2000
   28.7856  -17.8352  -17.0171 N   0  0  0  0  0  0  0  0  0  0  0  0
   28.4801  -16.6084  -17.6438 C   0  0  0  0  0  0  0  0  0  0  0  0
   29.0951  -16.2865  -18.6766 O   0  0  0  0  0  0  0  0  0  0  0  0
   27.4454  -15.6957  -17.1015 C   0  0  0  0  0  0  0  0  0  0  0  0
   26.8985  -16.2288  -15.7822 C   0  0  0  0  0  0  0  0  0  0  0  0
   26.0414  -17.4271  -16.1139 C   0  0  2  0  0  0  0  0  0  0  0  0
   25.0798  -17.1273  -17.1537 N   0  0  0  0  0  0  0  0  0  0  0  0
   25.2978  -17.9273  -14.9353 C   0  0  0  0  0  0  0  0  0  0  0  0
   24.3372  -17.2673  -14.4811 O   0  0  0  0  0  0  0  0  0  0  0  0
   25.6509  -19.1506  -14.3003 N   0  0  0  0  0  0  0  0  0  0  0  0
   24.8852  -19.7072  -13.1849 C   0  0  1  0  0  0  0  0  0  0  0  0
   24.2493  -20.9978  -13.6327 C   0  0  0  0  0  0  0  0  0  0  0  0
   23.5442  -21.7834  -12.6057 C   0  0  0  0  0  0  0  0  0  0  0  0
   22.0834  -21.6090  -12.7112 C   0  0  0  0  0  0  0  0  0  0  0  0
   21.5373  -21.5820  -13.8241 O   0  0  0  0  0  0  0  0  0  0  0  0
   25.8595  -20.0065  -12.1085 C   0  0  0  0  0  0  0  0  0  0  0  0
   26.9873  -20.4811  -12.3822 O   0  0  0  0  0  0  0  0  0  0  0  0
   21.3367  -21.4758  -11.5283 O   0  0  0  0  0  0  0  0  0  0  0  0
   25.5884  -19.7808  -10.7220 N   0  0  0  0  0  0  0  0  0  0  0  0
   26.4994  -20.2098   -9.6734 C   0  0  1  0  0  0  0  0  0  0  0  0
   25.8765  -19.7989   -8.3381 C   0  0  0  0  0  0  0  0  0  0  0  0
   27.0158  -18.8447   -7.3302 S   0  0  0  0  0  0  0  0  0  0  0  0
   26.7627  -21.6552   -9.7226 C   0  0  0  0  0  0  0  0  0  0  0  0
   27.9416  -22.1212   -9.6036 O   0  0  0  0  0  0  0  0  0  0  0  0
   25.7578  -22.5927   -9.8991 O   0  0  0  0  0  0  0  0  0  0  0  0
  1  2  1  0
  2  3  2  0
  4  5  1  0
  4  2  1  0
  5  6  1  0
  6  8  1  0
  6  7  1  6
  8  9  2  0
 10 11  1  0
 10  8  1  0
 12 13  1  0
 11 12  1  6
 13 14  1  0
 14 18  1  0
 14 15  2  0
 16 11  1  0
 17 16  2  0
 19 16  1  0
 20 19  1  0
 20 21  1  1
 22 21  1  0
 23 20  1  0
 24 23  2  0
 25 23  1  0
M  END
$$$$
