ELW.pdb
     RDKit          3D

 32 33  0  0  1  0  0  0  0  0999 V2000
   17.5692  -11.5948  -15.1787 N   0  0  0  0  0  0  0  0  0  0  0  0
   16.8906  -10.3410  -14.8327 C   0  0  1  0  0  0  0  0  0  0  0  0
   15.4445  -10.5516  -14.5548 C   0  0  0  0  0  0  0  0  0  0  0  0
   14.6316  -10.9892  -15.7308 C   0  0  0  0  0  0  0  0  0  0  0  0
   13.3815  -10.1910  -15.7571 C   0  0  0  0  0  0  0  0  0  0  0  0
   13.1560   -9.2659  -14.9379 O   0  0  0  0  0  0  0  0  0  0  0  0
   17.6375   -9.6660  -13.7697 C   0  0  0  0  0  0  0  0  0  0  0  0
   18.1128  -10.3426  -12.8286 O   0  0  0  0  0  0  0  0  0  0  0  0
   12.4254  -10.4700  -16.7145 O   0  0  0  0  0  0  0  0  0  0  0  0
   21.9983   -5.9216  -13.1594 C   0  0  0  0  0  0  0  0  0  0  0  0
   20.7983   -6.3770  -12.2946 C   0  0  2  0  0  0  0  0  0  0  0  0
   21.3657   -7.0656  -11.1016 C   0  0  0  0  0  0  0  0  0  0  0  0
   19.9375   -7.1897  -13.1772 C   0  0  0  0  0  0  0  0  0  0  0  0
   18.6014   -7.6072  -12.6590 C   0  0  2  0  0  0  0  0  0  0  0  0
   17.8486   -8.2662  -13.7570 N   0  0  0  0  0  0  0  0  0  0  0  0
   17.7482   -6.5478  -12.1218 C   0  0  0  0  0  0  0  0  0  0  0  0
   17.3871   -5.6086  -12.9169 O   0  0  0  0  0  0  0  0  0  0  0  0
   17.2586   -6.4272  -10.8121 N   0  0  0  0  0  0  0  0  0  0  0  0
   16.4557   -5.3091  -10.3149 C   0  0  1  0  0  0  0  0  0  0  0  0
   15.0230   -5.6398  -10.2869 C   0  0  0  0  0  0  0  0  0  0  0  0
   14.6825   -6.7223   -9.3542 C   0  0  0  0  0  0  0  0  0  0  0  0
   15.5094   -7.2458   -8.3457 C   0  0  0  0  0  0  0  0  0  0  0  0
   14.8575   -8.2413   -7.7295 N   0  0  0  0  0  0  0  0  0  0  0  0
   13.6344   -8.4262   -8.2580 C   0  0  0  0  0  0  0  0  0  0  0  0
   12.5932   -9.3031   -7.9593 C   0  0  0  0  0  0  0  0  0  0  0  0
   11.4129   -9.2562   -8.6642 C   0  0  0  0  0  0  0  0  0  0  0  0
   11.2996   -8.3180   -9.6672 C   0  0  0  0  0  0  0  0  0  0  0  0
   12.3283   -7.4500   -9.9650 C   0  0  0  0  0  0  0  0  0  0  0  0
   13.5203   -7.4894   -9.2632 C   0  0  0  0  0  0  0  0  0  0  0  0
   16.9707   -4.7458   -9.0894 C   0  0  0  0  0  0  0  0  0  0  0  0
   17.9306   -5.3751   -8.5210 O   0  0  0  0  0  0  0  0  0  0  0  0
   16.5525   -3.5974   -8.4557 O   0  0  0  0  0  0  0  0  0  0  0  0
  2  3  1  0
  2  1  1  1
  4  3  1  0
  5  6  2  0
  5  4  1  0
  7 15  1  0
  7  2  1  0
  8  7  2  0
  9  5  1  0
 11 10  1  6
 11 12  1  0
 13 11  1  0
 14 16  1  0
 14 13  1  6
 14 15  1  0
 16 17  2  0
 18 19  1  0
 18 16  1  0
 19 30  1  0
 19 20  1  1
 21 20  1  0
 22 21  2  0
 23 24  1  0
 23 22  1  0
 24 29  2  0
 25 26  2  0
 25 24  1  0
 26 27  1  0
 27 28  2  0
 29 21  1  0
 29 28  1  0
 30 31  2  0
 30 32  1  0
M  END
$$$$
