ELW.pdb
     RDKit          3D

 32 33  0  0  1  0  0  0  0  0999 V2000
   23.2860  -18.3988  -14.5294 N   0  0  0  0  0  0  0  0  0  0  0  0
   22.8534  -19.7654  -14.2172 C   0  0  1  0  0  0  0  0  0  0  0  0
   22.0965  -20.3779  -15.3418 C   0  0  0  0  0  0  0  0  0  0  0  0
   20.9075  -19.5978  -15.8032 C   0  0  0  0  0  0  0  0  0  0  0  0
   19.7849  -19.8624  -14.8702 C   0  0  0  0  0  0  0  0  0  0  0  0
   18.9447  -18.9815  -14.5608 O   0  0  0  0  0  0  0  0  0  0  0  0
   24.0033  -20.5391  -13.7455 C   0  0  0  0  0  0  0  0  0  0  0  0
   23.8583  -21.7550  -13.4812 O   0  0  0  0  0  0  0  0  0  0  0  0
   19.6527  -21.1214  -14.3171 O   0  0  0  0  0  0  0  0  0  0  0  0
   29.9654  -19.7625  -14.1647 C   0  0  0  0  0  0  0  0  0  0  0  0
   28.7852  -20.7575  -14.0537 C   0  0  2  0  0  0  0  0  0  0  0  0
   28.4958  -21.2359  -15.4346 C   0  0  0  0  0  0  0  0  0  0  0  0
   27.6976  -20.0337  -13.3655 C   0  0  0  0  0  0  0  0  0  0  0  0
   26.4336  -20.7758  -13.0831 C   0  0  2  0  0  0  0  0  0  0  0  0
   25.2869  -19.9678  -13.5715 N   0  0  0  0  0  0  0  0  0  0  0  0
   26.1679  -21.1059  -11.6834 C   0  0  0  0  0  0  0  0  0  0  0  0
   26.7166  -22.1603  -11.2020 O   0  0  0  0  0  0  0  0  0  0  0  0
   25.3694  -20.3941  -10.7748 N   0  0  0  0  0  0  0  0  0  0  0  0
   25.2830  -20.6668   -9.3395 C   0  0  1  0  0  0  0  0  0  0  0  0
   25.9848  -19.6441   -8.5494 C   0  0  0  0  0  0  0  0  0  0  0  0
   27.3047  -20.0708   -8.0661 C   0  0  0  0  0  0  0  0  0  0  0  0
   28.2541  -20.8189   -8.7830 C   0  0  0  0  0  0  0  0  0  0  0  0
   29.3154  -21.0349   -7.9939 N   0  0  0  0  0  0  0  0  0  0  0  0
   29.1456  -20.4770   -6.7818 C   0  0  0  0  0  0  0  0  0  0  0  0
   29.9506  -20.4090   -5.6462 C   0  0  0  0  0  0  0  0  0  0  0  0
   29.5252  -19.7363   -4.5243 C   0  0  0  0  0  0  0  0  0  0  0  0
   28.2848  -19.1373   -4.5652 C   0  0  0  0  0  0  0  0  0  0  0  0
   27.4864  -19.2037   -5.6869 C   0  0  0  0  0  0  0  0  0  0  0  0
   27.9039  -19.8789   -6.8204 C   0  0  0  0  0  0  0  0  0  0  0  0
   23.9380  -20.9536   -8.8998 C   0  0  0  0  0  0  0  0  0  0  0  0
   23.0009  -20.7907   -9.7576 O   0  0  0  0  0  0  0  0  0  0  0  0
   23.5394  -21.3915   -7.6570 O   0  0  0  0  0  0  0  0  0  0  0  0
  2  3  1  0
  2  1  1  6
  4  3  1  0
  5  6  2  0
  5  4  1  0
  7 15  1  0
  7  2  1  0
  8  7  2  0
  9  5  1  0
 11 10  1  6
 11 12  1  0
 13 11  1  0
 14 16  1  0
 14 13  1  1
 14 15  1  0
 16 17  2  0
 18 19  1  0
 18 16  1  0
 19 30  1  0
 19 20  1  1
 21 20  1  0
 22 21  2  0
 23 24  1  0
 23 22  1  0
 24 29  2  0
 25 26  2  0
 25 24  1  0
 26 27  1  0
 27 28  2  0
 29 21  1  0
 29 28  1  0
 30 31  2  0
 30 32  1  0
M  END
$$$$
