ELW.pdb
     RDKit          3D

 32 33  0  0  1  0  0  0  0  0999 V2000
   25.5576  -19.7929  -15.9014 N   0  0  0  0  0  0  0  0  0  0  0  0
   25.1145  -19.6414  -14.5111 C   0  0  1  0  0  0  0  0  0  0  0  0
   23.6315  -19.6594  -14.3967 C   0  0  0  0  0  0  0  0  0  0  0  0
   22.9154  -18.7124  -15.3055 C   0  0  0  0  0  0  0  0  0  0  0  0
   22.7733  -17.4119  -14.6063 C   0  0  0  0  0  0  0  0  0  0  0  0
   23.5127  -16.4281  -14.8574 O   0  0  0  0  0  0  0  0  0  0  0  0
   25.8160  -20.6154  -13.6728 C   0  0  0  0  0  0  0  0  0  0  0  0
   25.7086  -21.8367  -13.9298 O   0  0  0  0  0  0  0  0  0  0  0  0
   21.7942  -17.2703  -13.6419 O   0  0  0  0  0  0  0  0  0  0  0  0
   29.6409  -21.4022  -13.6291 C   0  0  0  0  0  0  0  0  0  0  0  0
   29.4729  -20.2377  -12.6237 C   0  0  2  0  0  0  0  0  0  0  0  0
   30.8405  -19.7270  -12.3260 C   0  0  0  0  0  0  0  0  0  0  0  0
   28.7104  -20.7832  -11.4829 C   0  0  0  0  0  0  0  0  0  0  0  0
   27.3134  -21.2457  -11.7332 C   0  0  2  0  0  0  0  0  0  0  0  0
   26.6191  -20.2344  -12.5709 N   0  0  0  0  0  0  0  0  0  0  0  0
   26.4806  -21.4790  -10.5539 C   0  0  0  0  0  0  0  0  0  0  0  0
   26.6339  -22.5840   -9.9215 O   0  0  0  0  0  0  0  0  0  0  0  0
   25.5110  -20.6224  -10.0100 N   0  0  0  0  0  0  0  0  0  0  0  0
   24.4358  -21.0361   -9.1074 C   0  0  1  0  0  0  0  0  0  0  0  0
   24.6095  -20.4708   -7.7610 C   0  0  0  0  0  0  0  0  0  0  0  0
   25.9065  -19.8119   -7.5574 C   0  0  0  0  0  0  0  0  0  0  0  0
   26.5125  -18.8791   -8.4163 C   0  0  0  0  0  0  0  0  0  0  0  0
   27.7014  -18.5329   -7.9039 N   0  0  0  0  0  0  0  0  0  0  0  0
   27.9406  -19.1739   -6.7458 C   0  0  0  0  0  0  0  0  0  0  0  0
   29.0017  -19.1400   -5.8430 C   0  0  0  0  0  0  0  0  0  0  0  0
   28.9727  -19.9015   -4.6979 C   0  0  0  0  0  0  0  0  0  0  0  0
   27.8650  -20.6915   -4.4786 C   0  0  0  0  0  0  0  0  0  0  0  0
   26.8144  -20.7272   -5.3704 C   0  0  0  0  0  0  0  0  0  0  0  0
   26.8338  -19.9662   -6.5261 C   0  0  0  0  0  0  0  0  0  0  0  0
   23.1210  -20.8535   -9.6753 C   0  0  0  0  0  0  0  0  0  0  0  0
   22.1254  -21.2369   -8.9665 O   0  0  0  0  0  0  0  0  0  0  0  0
   22.8064  -20.3051  -10.8983 O   0  0  0  0  0  0  0  0  0  0  0  0
  2  3  1  0
  2  1  1  6
  4  3  1  0
  5  6  2  0
  5  4  1  0
  7 15  1  0
  7  2  1  0
  8  7  2  0
  9  5  1  0
 11 10  1  6
 11 12  1  0
 13 11  1  0
 14 16  1  0
 14 13  1  1
 14 15  1  0
 16 17  2  0
 18 19  1  0
 18 16  1  0
 19 30  1  0
 19 20  1  1
 21 20  1  0
 22 21  2  0
 23 24  1  0
 23 22  1  0
 24 29  2  0
 25 26  2  0
 25 24  1  0
 26 27  1  0
 27 28  2  0
 29 21  1  0
 29 28  1  0
 30 31  2  0
 30 32  1  0
M  END
$$$$
