ELW.pdb
     RDKit          3D

 32 33  0  0  1  0  0  0  0  0999 V2000
   26.7671  -22.0634  -16.2378 N   0  0  0  0  0  0  0  0  0  0  0  0
   25.7334  -21.0270  -16.1402 C   0  0  1  0  0  0  0  0  0  0  0  0
   25.0666  -20.7841  -17.4475 C   0  0  0  0  0  0  0  0  0  0  0  0
   25.9905  -20.4687  -18.5800 C   0  0  0  0  0  0  0  0  0  0  0  0
   26.9137  -19.3928  -18.1434 C   0  0  0  0  0  0  0  0  0  0  0  0
   28.1450  -19.4209  -18.3901 O   0  0  0  0  0  0  0  0  0  0  0  0
   24.8328  -21.3474  -15.0313 C   0  0  0  0  0  0  0  0  0  0  0  0
   24.1817  -22.4172  -15.0588 O   0  0  0  0  0  0  0  0  0  0  0  0
   26.4079  -18.3176  -17.4386 O   0  0  0  0  0  0  0  0  0  0  0  0
   25.9103  -22.2121  -11.2422 C   0  0  0  0  0  0  0  0  0  0  0  0
   25.7897  -20.6694  -11.2701 C   0  0  2  0  0  0  0  0  0  0  0  0
   26.3608  -20.1710   -9.9875 C   0  0  0  0  0  0  0  0  0  0  0  0
   24.3650  -20.3705  -11.5174 C   0  0  0  0  0  0  0  0  0  0  0  0
   23.7604  -20.8552  -12.7932 C   0  0  2  0  0  0  0  0  0  0  0  0
   24.6618  -20.4917  -13.9165 N   0  0  0  0  0  0  0  0  0  0  0  0
   22.4296  -20.3453  -13.1214 C   0  0  0  0  0  0  0  0  0  0  0  0
   21.4695  -20.6143  -12.3150 O   0  0  0  0  0  0  0  0  0  0  0  0
   22.0608  -19.5753  -14.2353 N   0  0  0  0  0  0  0  0  0  0  0  0
   20.7114  -19.0751  -14.5012 C   0  0  1  0  0  0  0  0  0  0  0  0
   20.7351  -17.8729  -15.3480 C   0  0  0  0  0  0  0  0  0  0  0  0
   21.0408  -18.1471  -16.7583 C   0  0  0  0  0  0  0  0  0  0  0  0
   20.2867  -18.9447  -17.6358 C   0  0  0  0  0  0  0  0  0  0  0  0
   20.9047  -18.9777  -18.8245 N   0  0  0  0  0  0  0  0  0  0  0  0
   22.0348  -18.2484  -18.8089 C   0  0  0  0  0  0  0  0  0  0  0  0
   22.9935  -17.9613  -19.7788 C   0  0  0  0  0  0  0  0  0  0  0  0
   24.0631  -17.1467  -19.4881 C   0  0  0  0  0  0  0  0  0  0  0  0
   24.1500  -16.6296  -18.2137 C   0  0  0  0  0  0  0  0  0  0  0  0
   23.2035  -16.9126  -17.2524 C   0  0  0  0  0  0  0  0  0  0  0  0
   22.1243  -17.7319  -17.5336 C   0  0  0  0  0  0  0  0  0  0  0  0
   19.8035  -20.1077  -14.9418 C   0  0  0  0  0  0  0  0  0  0  0  0
   18.5557  -19.8189  -14.9459 O   0  0  0  0  0  0  0  0  0  0  0  0
   20.1233  -21.3771  -15.3680 O   0  0  0  0  0  0  0  0  0  0  0  0
  2  3  1  0
  2  1  1  6
  4  3  1  0
  5  6  2  0
  5  4  1  0
  7 15  1  0
  7  2  1  0
  8  7  2  0
  9  5  1  0
 11 10  1  1
 11 12  1  0
 13 11  1  0
 14 16  1  0
 14 13  1  1
 14 15  1  0
 16 17  2  0
 18 19  1  0
 18 16  1  0
 19 30  1  0
 19 20  1  6
 21 20  1  0
 22 21  2  0
 23 24  1  0
 23 22  1  0
 24 29  2  0
 25 26  2  0
 25 24  1  0
 26 27  1  0
 27 28  2  0
 29 21  1  0
 29 28  1  0
 30 31  2  0
 30 32  1  0
M  END
$$$$
