ELW.pdb
     RDKit          3D

 32 33  0  0  1  0  0  0  0  0999 V2000
   23.8369  -17.8954  -15.0434 N   0  0  0  0  0  0  0  0  0  0  0  0
   23.8127  -18.9153  -16.0977 C   0  0  1  0  0  0  0  0  0  0  0  0
   23.8598  -18.3103  -17.4557 C   0  0  0  0  0  0  0  0  0  0  0  0
   22.6165  -18.4819  -18.2682 C   0  0  0  0  0  0  0  0  0  0  0  0
   22.2610  -17.1691  -18.8604 C   0  0  0  0  0  0  0  0  0  0  0  0
   22.9827  -16.5987  -19.7157 O   0  0  0  0  0  0  0  0  0  0  0  0
   24.8466  -19.9153  -15.8248 C   0  0  0  0  0  0  0  0  0  0  0  0
   24.8723  -20.9712  -16.4983 O   0  0  0  0  0  0  0  0  0  0  0  0
   21.0951  -16.5448  -18.4610 O   0  0  0  0  0  0  0  0  0  0  0  0
   27.3464  -18.5733  -16.6854 C   0  0  0  0  0  0  0  0  0  0  0  0
   28.1880  -18.6405  -15.3884 C   0  0  2  0  0  0  0  0  0  0  0  0
   29.4994  -18.0033  -15.6942 C   0  0  0  0  0  0  0  0  0  0  0  0
   28.2228  -20.0624  -14.9914 C   0  0  0  0  0  0  0  0  0  0  0  0
   26.9308  -20.7211  -14.6381 C   0  0  2  0  0  0  0  0  0  0  0  0
   25.8298  -19.7409  -14.8212 N   0  0  0  0  0  0  0  0  0  0  0  0
   26.8177  -21.2531  -13.2805 C   0  0  0  0  0  0  0  0  0  0  0  0
   27.7106  -22.0853  -12.8870 O   0  0  0  0  0  0  0  0  0  0  0  0
   25.8312  -20.9580  -12.3270 N   0  0  0  0  0  0  0  0  0  0  0  0
   24.9479  -21.9420  -11.6997 C   0  0  1  0  0  0  0  0  0  0  0  0
   25.3221  -22.1928  -10.2997 C   0  0  0  0  0  0  0  0  0  0  0  0
   25.8897  -21.0216   -9.6187 C   0  0  0  0  0  0  0  0  0  0  0  0
   25.2221  -19.8191   -9.3304 C   0  0  0  0  0  0  0  0  0  0  0  0
   26.0821  -18.9833   -8.7324 N   0  0  0  0  0  0  0  0  0  0  0  0
   27.2961  -19.5459   -8.5951 C   0  0  0  0  0  0  0  0  0  0  0  0
   28.4914  -19.1006   -8.0338 C   0  0  0  0  0  0  0  0  0  0  0  0
   29.6000  -19.9146   -8.0078 C   0  0  0  0  0  0  0  0  0  0  0  0
   29.4852  -21.1753   -8.5522 C   0  0  0  0  0  0  0  0  0  0  0  0
   28.3042  -21.6179   -9.1086 C   0  0  0  0  0  0  0  0  0  0  0  0
   27.1833  -20.8069   -9.1413 C   0  0  0  0  0  0  0  0  0  0  0  0
   23.5480  -21.6587  -11.9103 C   0  0  0  0  0  0  0  0  0  0  0  0
   23.2563  -20.5120  -12.4007 O   0  0  0  0  0  0  0  0  0  0  0  0
   22.4784  -22.4854  -11.6497 O   0  0  0  0  0  0  0  0  0  0  0  0
  2  3  1  0
  2  1  1  1
  4  3  1  0
  5  6  2  0
  5  4  1  0
  7 15  1  0
  7  2  1  0
  8  7  2  0
  9  5  1  0
 11 10  1  6
 11 12  1  0
 13 11  1  0
 14 16  1  0
 14 13  1  1
 14 15  1  0
 16 17  2  0
 18 19  1  0
 18 16  1  0
 19 30  1  0
 19 20  1  1
 21 20  1  0
 22 21  2  0
 23 24  1  0
 23 22  1  0
 24 29  2  0
 25 26  2  0
 25 24  1  0
 26 27  1  0
 27 28  2  0
 29 21  1  0
 29 28  1  0
 30 31  2  0
 30 32  1  0
M  END
$$$$
