ELW.pdb
     RDKit          3D

 32 33  0  0  1  0  0  0  0  0999 V2000
   24.3552  -20.5172  -16.0660 N   0  0  0  0  0  0  0  0  0  0  0  0
   24.9937  -19.6631  -15.0586 C   0  0  1  0  0  0  0  0  0  0  0  0
   24.0544  -18.6427  -14.5209 C   0  0  0  0  0  0  0  0  0  0  0  0
   22.7876  -18.4773  -15.2977 C   0  0  0  0  0  0  0  0  0  0  0  0
   21.6488  -18.5194  -14.3481 C   0  0  0  0  0  0  0  0  0  0  0  0
   21.2772  -17.5113  -13.6974 O   0  0  0  0  0  0  0  0  0  0  0  0
   25.6408  -20.5063  -14.0518 C   0  0  0  0  0  0  0  0  0  0  0  0
   25.1464  -21.6242  -13.7777 O   0  0  0  0  0  0  0  0  0  0  0  0
   20.9675  -19.7075  -14.1671 O   0  0  0  0  0  0  0  0  0  0  0  0
   29.4710  -21.1898  -10.1555 C   0  0  0  0  0  0  0  0  0  0  0  0
   29.8639  -21.5418  -11.6105 C   0  0  2  0  0  0  0  0  0  0  0  0
   31.3252  -21.2804  -11.7357 C   0  0  0  0  0  0  0  0  0  0  0  0
   28.9752  -20.7478  -12.4823 C   0  0  0  0  0  0  0  0  0  0  0  0
   27.5103  -21.0292  -12.4291 C   0  0  2  0  0  0  0  0  0  0  0  0
   26.8137  -20.1099  -13.3651 N   0  0  0  0  0  0  0  0  0  0  0  0
   26.8649  -20.8917  -11.1240 C   0  0  0  0  0  0  0  0  0  0  0  0
   26.7932  -19.7182  -10.6119 O   0  0  0  0  0  0  0  0  0  0  0  0
   26.2960  -21.9082  -10.3412 N   0  0  0  0  0  0  0  0  0  0  0  0
   25.5781  -21.6977   -9.0833 C   0  0  1  0  0  0  0  0  0  0  0  0
   26.4520  -21.9035   -7.9185 C   0  0  0  0  0  0  0  0  0  0  0  0
   26.8404  -20.6590   -7.2415 C   0  0  0  0  0  0  0  0  0  0  0  0
   26.4112  -19.3617   -7.5694 C   0  0  0  0  0  0  0  0  0  0  0  0
   27.0086  -18.4906   -6.7448 N   0  0  0  0  0  0  0  0  0  0  0  0
   27.8187  -19.1181   -5.8733 C   0  0  0  0  0  0  0  0  0  0  0  0
   28.6247  -18.6655   -4.8305 C   0  0  0  0  0  0  0  0  0  0  0  0
   29.3472  -19.5527   -4.0668 C   0  0  0  0  0  0  0  0  0  0  0  0
   29.2446  -20.8934   -4.3687 C   0  0  0  0  0  0  0  0  0  0  0  0
   28.4486  -21.3435   -5.4001 C   0  0  0  0  0  0  0  0  0  0  0  0
   27.7186  -20.4597   -6.1754 C   0  0  0  0  0  0  0  0  0  0  0  0
   24.8235  -20.4670   -9.0636 C   0  0  0  0  0  0  0  0  0  0  0  0
   25.3237  -19.4705   -9.6939 O   0  0  0  0  0  0  0  0  0  0  0  0
   23.6146  -20.2364   -8.4465 O   0  0  0  0  0  0  0  0  0  0  0  0
  2  3  1  0
  2  1  1  6
  4  3  1  0
  5  6  2  0
  5  4  1  0
  7 15  1  0
  7  2  1  0
  8  7  2  0
  9  5  1  0
 11 10  1  1
 11 12  1  0
 13 11  1  0
 14 16  1  0
 14 13  1  1
 14 15  1  0
 16 17  2  0
 18 19  1  0
 18 16  1  0
 19 30  1  0
 19 20  1  1
 21 20  1  0
 22 21  2  0
 23 24  1  0
 23 22  1  0
 24 29  2  0
 25 26  2  0
 25 24  1  0
 26 27  1  0
 27 28  2  0
 29 21  1  0
 29 28  1  0
 30 31  2  0
 30 32  1  0
M  END
$$$$
