ELW.pdb
     RDKit          3D

 32 33  0  0  1  0  0  0  0  0999 V2000
   23.5232  -17.4778  -15.1144 N   0  0  0  0  0  0  0  0  0  0  0  0
   23.2832  -18.7690  -15.7681 C   0  0  1  0  0  0  0  0  0  0  0  0
   22.7646  -18.6019  -17.1522 C   0  0  0  0  0  0  0  0  0  0  0  0
   21.3420  -18.1511  -17.2446 C   0  0  0  0  0  0  0  0  0  0  0  0
   20.5594  -19.2120  -17.9248 C   0  0  0  0  0  0  0  0  0  0  0  0
   19.7433  -19.9442  -17.3120 O   0  0  0  0  0  0  0  0  0  0  0  0
   24.4824  -19.6003  -15.6482 C   0  0  0  0  0  0  0  0  0  0  0  0
   24.4620  -20.7740  -16.0853 O   0  0  0  0  0  0  0  0  0  0  0  0
   20.7296  -19.4079  -19.2817 O   0  0  0  0  0  0  0  0  0  0  0  0
   28.5330  -19.3420  -17.4234 C   0  0  0  0  0  0  0  0  0  0  0  0
   28.3193  -18.3115  -16.2887 C   0  0  2  0  0  0  0  0  0  0  0  0
   29.5044  -17.4088  -16.2999 C   0  0  0  0  0  0  0  0  0  0  0  0
   28.0983  -19.0937  -15.0560 C   0  0  0  0  0  0  0  0  0  0  0  0
   26.8975  -19.9783  -14.9954 C   0  0  2  0  0  0  0  0  0  0  0  0
   25.6782  -19.1318  -15.0523 N   0  0  0  0  0  0  0  0  0  0  0  0
   26.7762  -20.8365  -13.8175 C   0  0  0  0  0  0  0  0  0  0  0  0
   27.7002  -21.7008  -13.6084 O   0  0  0  0  0  0  0  0  0  0  0  0
   25.7508  -20.8319  -12.8593 N   0  0  0  0  0  0  0  0  0  0  0  0
   25.7116  -21.6791  -11.6666 C   0  0  1  0  0  0  0  0  0  0  0  0
   26.9306  -21.5333  -10.8568 C   0  0  0  0  0  0  0  0  0  0  0  0
   26.7386  -20.7437   -9.6331 C   0  0  0  0  0  0  0  0  0  0  0  0
   25.5529  -20.1074   -9.2281 C   0  0  0  0  0  0  0  0  0  0  0  0
   25.7838  -19.4620   -8.0766 N   0  0  0  0  0  0  0  0  0  0  0  0
   27.0568  -19.6221   -7.6725 C   0  0  0  0  0  0  0  0  0  0  0  0
   27.7625  -19.1757   -6.5568 C   0  0  0  0  0  0  0  0  0  0  0  0
   29.0830  -19.5176   -6.3794 C   0  0  0  0  0  0  0  0  0  0  0  0
   29.6763  -20.3110   -7.3373 C   0  0  0  0  0  0  0  0  0  0  0  0
   28.9806  -20.7533   -8.4421 C   0  0  0  0  0  0  0  0  0  0  0  0
   27.6523  -20.4143   -8.6311 C   0  0  0  0  0  0  0  0  0  0  0  0
   24.4768  -21.5573  -10.9284 C   0  0  0  0  0  0  0  0  0  0  0  0
   23.7010  -20.5910  -11.2523 O   0  0  0  0  0  0  0  0  0  0  0  0
   24.0264  -22.3684   -9.9112 O   0  0  0  0  0  0  0  0  0  0  0  0
  2  3  1  0
  2  1  1  6
  4  3  1  0
  5  6  2  0
  5  4  1  0
  7 15  1  0
  7  2  1  0
  8  7  2  0
  9  5  1  0
 11 10  1  6
 11 12  1  0
 13 11  1  0
 14 16  1  0
 14 13  1  1
 14 15  1  0
 16 17  2  0
 18 19  1  0
 18 16  1  0
 19 30  1  0
 19 20  1  1
 21 20  1  0
 22 21  2  0
 23 24  1  0
 23 22  1  0
 24 29  2  0
 25 26  2  0
 25 24  1  0
 26 27  1  0
 27 28  2  0
 29 21  1  0
 29 28  1  0
 30 31  2  0
 30 32  1  0
M  END
$$$$
