ELW.pdb
     RDKit          3D

 32 33  0  0  1  0  0  0  0  0999 V2000
   27.4154  -22.1644  -14.9634 N   0  0  0  0  0  0  0  0  0  0  0  0
   27.0002  -20.9839  -14.1978 C   0  0  1  0  0  0  0  0  0  0  0  0
   26.6110  -19.8559  -15.0858 C   0  0  0  0  0  0  0  0  0  0  0  0
   26.8212  -20.0987  -16.5460 C   0  0  0  0  0  0  0  0  0  0  0  0
   27.9406  -19.2405  -17.0055 C   0  0  0  0  0  0  0  0  0  0  0  0
   28.2786  -18.1933  -16.3997 O   0  0  0  0  0  0  0  0  0  0  0  0
   25.9913  -21.3785  -13.2129 C   0  0  0  0  0  0  0  0  0  0  0  0
   25.2963  -22.3996  -13.4215 O   0  0  0  0  0  0  0  0  0  0  0  0
   28.6412  -19.5996  -18.1407 O   0  0  0  0  0  0  0  0  0  0  0  0
   26.9815  -21.7188   -9.0587 C   0  0  0  0  0  0  0  0  0  0  0  0
   26.4596  -20.2847   -9.3162 C   0  0  2  0  0  0  0  0  0  0  0  0
   26.7215  -19.5033   -8.0751 C   0  0  0  0  0  0  0  0  0  0  0  0
   25.0464  -20.4255   -9.7204 C   0  0  0  0  0  0  0  0  0  0  0  0
   24.7553  -21.0919  -11.0239 C   0  0  2  0  0  0  0  0  0  0  0  0
   25.7625  -20.6485  -12.0217 N   0  0  0  0  0  0  0  0  0  0  0  0
   23.4343  -20.8486  -11.6022 C   0  0  0  0  0  0  0  0  0  0  0  0
   22.4068  -21.1371  -10.8912 O   0  0  0  0  0  0  0  0  0  0  0  0
   23.1406  -20.3222  -12.8696 N   0  0  0  0  0  0  0  0  0  0  0  0
   21.7957  -20.0271  -13.3657 C   0  0  1  0  0  0  0  0  0  0  0  0
   21.7907  -18.8587  -14.2587 C   0  0  0  0  0  0  0  0  0  0  0  0
   20.4713  -18.5529  -14.8275 C   0  0  0  0  0  0  0  0  0  0  0  0
   19.4106  -17.9036  -14.1731 C   0  0  0  0  0  0  0  0  0  0  0  0
   18.3655  -17.8388  -15.0094 N   0  0  0  0  0  0  0  0  0  0  0  0
   18.6521  -18.4045  -16.1957 C   0  0  0  0  0  0  0  0  0  0  0  0
   17.9220  -18.5671  -17.3715 C   0  0  0  0  0  0  0  0  0  0  0  0
   18.4852  -19.1781  -18.4677 C   0  0  0  0  0  0  0  0  0  0  0  0
   19.7864  -19.6189  -18.3607 C   0  0  0  0  0  0  0  0  0  0  0  0
   20.5105  -19.4598  -17.1985 C   0  0  0  0  0  0  0  0  0  0  0  0
   19.9533  -18.8478  -16.0894 C   0  0  0  0  0  0  0  0  0  0  0  0
   21.1191  -21.1907  -13.8879 C   0  0  0  0  0  0  0  0  0  0  0  0
   21.8470  -22.0766  -14.4587 O   0  0  0  0  0  0  0  0  0  0  0  0
   19.7713  -21.4671  -13.8395 O   0  0  0  0  0  0  0  0  0  0  0  0
  2  3  1  0
  2  1  1  6
  4  3  1  0
  5  6  2  0
  5  4  1  0
  7 15  1  0
  7  2  1  0
  8  7  2  0
  9  5  1  0
 11 10  1  1
 11 12  1  0
 13 11  1  0
 14 16  1  0
 14 13  1  1
 14 15  1  0
 16 17  2  0
 18 19  1  0
 18 16  1  0
 19 30  1  0
 19 20  1  6
 21 20  1  0
 22 21  2  0
 23 24  1  0
 23 22  1  0
 24 29  2  0
 25 26  2  0
 25 24  1  0
 26 27  1  0
 27 28  2  0
 29 21  1  0
 29 28  1  0
 30 31  2  0
 30 32  1  0
M  END
$$$$
