ELW.pdb
     RDKit          3D

 32 33  0  0  1  0  0  0  0  0999 V2000
   22.8662  -18.7224  -17.4559 N   0  0  0  0  0  0  0  0  0  0  0  0
   23.5266  -18.4972  -16.1654 C   0  0  1  0  0  0  0  0  0  0  0  0
   22.5898  -18.6782  -15.0241 C   0  0  0  0  0  0  0  0  0  0  0  0
   21.3093  -19.3727  -15.3608 C   0  0  0  0  0  0  0  0  0  0  0  0
   20.8239  -20.0716  -14.1457 C   0  0  0  0  0  0  0  0  0  0  0  0
   20.4830  -19.4555  -13.1056 O   0  0  0  0  0  0  0  0  0  0  0  0
   24.7483  -19.3015  -16.1022 C   0  0  0  0  0  0  0  0  0  0  0  0
   24.7708  -20.4278  -16.6502 O   0  0  0  0  0  0  0  0  0  0  0  0
   20.7416  -21.4507  -14.1508 O   0  0  0  0  0  0  0  0  0  0  0  0
   28.9006  -18.7396  -17.6946 C   0  0  0  0  0  0  0  0  0  0  0  0
   28.5767  -17.8502  -16.4702 C   0  0  2  0  0  0  0  0  0  0  0  0
   29.7119  -16.8972  -16.3197 C   0  0  0  0  0  0  0  0  0  0  0  0
   28.3360  -18.7719  -15.3419 C   0  0  0  0  0  0  0  0  0  0  0  0
   27.1555  -19.6818  -15.4224 C   0  0  2  0  0  0  0  0  0  0  0  0
   25.9192  -18.8586  -15.4410 N   0  0  0  0  0  0  0  0  0  0  0  0
   27.0097  -20.6606  -14.3456 C   0  0  0  0  0  0  0  0  0  0  0  0
   27.9210  -21.5542  -14.2210 O   0  0  0  0  0  0  0  0  0  0  0  0
   25.9725  -20.7464  -13.4040 N   0  0  0  0  0  0  0  0  0  0  0  0
   25.9261  -21.6936  -12.2893 C   0  0  1  0  0  0  0  0  0  0  0  0
   27.0899  -21.5459  -11.4025 C   0  0  0  0  0  0  0  0  0  0  0  0
   26.7775  -20.9115  -10.1150 C   0  0  0  0  0  0  0  0  0  0  0  0
   25.5215  -20.4348   -9.7025 C   0  0  0  0  0  0  0  0  0  0  0  0
   25.6464  -19.8962   -8.4819 N   0  0  0  0  0  0  0  0  0  0  0  0
   26.9134  -19.9789   -8.0377 C   0  0  0  0  0  0  0  0  0  0  0  0
   27.5312  -19.5893   -6.8508 C   0  0  0  0  0  0  0  0  0  0  0  0
   28.8714  -19.8235   -6.6482 C   0  0  0  0  0  0  0  0  0  0  0  0
   29.5736  -20.4524   -7.6534 C   0  0  0  0  0  0  0  0  0  0  0  0
   28.9650  -20.8381   -8.8286 C   0  0  0  0  0  0  0  0  0  0  0  0
   27.6178  -20.6063   -9.0434 C   0  0  0  0  0  0  0  0  0  0  0  0
   24.6496  -21.7088  -11.6149 C   0  0  0  0  0  0  0  0  0  0  0  0
   24.4716  -22.6196  -10.7321 O   0  0  0  0  0  0  0  0  0  0  0  0
   23.5921  -20.8482  -11.8054 O   0  0  0  0  0  0  0  0  0  0  0  0
  2  3  1  0
  2  1  1  6
  4  3  1  0
  5  6  2  0
  5  4  1  0
  7 15  1  0
  7  2  1  0
  8  7  2  0
  9  5  1  0
 11 10  1  6
 11 12  1  0
 13 11  1  0
 14 16  1  0
 14 13  1  1
 14 15  1  0
 16 17  2  0
 18 19  1  0
 18 16  1  0
 19 30  1  0
 19 20  1  1
 21 20  1  0
 22 21  2  0
 23 24  1  0
 23 22  1  0
 24 29  2  0
 25 26  2  0
 25 24  1  0
 26 27  1  0
 27 28  2  0
 29 21  1  0
 29 28  1  0
 30 31  2  0
 30 32  1  0
M  END
$$$$
