ELW.pdb
     RDKit          3D

 32 33  0  0  1  0  0  0  0  0999 V2000
   17.9702  -21.4646    3.7713 N   0  0  0  0  0  0  0  0  0  0  0  0
   17.4616  -22.0577    5.0130 C   0  0  1  0  0  0  0  0  0  0  0  0
   17.9803  -23.4360    5.2222 C   0  0  0  0  0  0  0  0  0  0  0  0
   17.5113  -24.4465    4.2250 C   0  0  0  0  0  0  0  0  0  0  0  0
   18.1380  -25.7507    4.5519 C   0  0  0  0  0  0  0  0  0  0  0  0
   17.7690  -26.4491    5.5285 O   0  0  0  0  0  0  0  0  0  0  0  0
   17.6942  -21.1295    6.1211 C   0  0  0  0  0  0  0  0  0  0  0  0
   16.9352  -21.1603    7.1172 O   0  0  0  0  0  0  0  0  0  0  0  0
   19.1663  -26.2205    3.7578 O   0  0  0  0  0  0  0  0  0  0  0  0
   22.4379  -18.8109    8.8789 C   0  0  0  0  0  0  0  0  0  0  0  0
   20.9142  -18.5587    8.7789 C   0  0  2  0  0  0  0  0  0  0  0  0
   20.3515  -18.7849   10.1397 C   0  0  0  0  0  0  0  0  0  0  0  0
   20.4184  -19.4430    7.7053 C   0  0  0  0  0  0  0  0  0  0  0  0
   18.9956  -19.2946    7.2790 C   0  0  2  0  0  0  0  0  0  0  0  0
   18.7504  -20.1868    6.1170 N   0  0  0  0  0  0  0  0  0  0  0  0
   18.5651  -17.9511    6.8938 C   0  0  0  0  0  0  0  0  0  0  0  0
   19.2551  -17.3321    6.0075 O   0  0  0  0  0  0  0  0  0  0  0  0
   17.4611  -17.2352    7.3819 N   0  0  0  0  0  0  0  0  0  0  0  0
   17.1204  -15.8609    7.0114 C   0  0  1  0  0  0  0  0  0  0  0  0
   16.1035  -15.8211    5.9498 C   0  0  0  0  0  0  0  0  0  0  0  0
   16.6482  -16.0152    4.5995 C   0  0  0  0  0  0  0  0  0  0  0  0
   16.5885  -17.1942    3.8371 C   0  0  0  0  0  0  0  0  0  0  0  0
   17.2236  -16.9870    2.6754 N   0  0  0  0  0  0  0  0  0  0  0  0
   17.7115  -15.7357    2.6008 C   0  0  0  0  0  0  0  0  0  0  0  0
   18.4144  -15.0476    1.6137 C   0  0  0  0  0  0  0  0  0  0  0  0
   18.7768  -13.7335    1.7978 C   0  0  0  0  0  0  0  0  0  0  0  0
   18.4216  -13.1285    2.9839 C   0  0  0  0  0  0  0  0  0  0  0  0
   17.7269  -13.8071    3.9621 C   0  0  0  0  0  0  0  0  0  0  0  0
   17.3585  -15.1296    3.7879 C   0  0  0  0  0  0  0  0  0  0  0  0
   16.8371  -15.0228    8.1524 C   0  0  0  0  0  0  0  0  0  0  0  0
   16.6672  -15.6126    9.2766 O   0  0  0  0  0  0  0  0  0  0  0  0
   16.7327  -13.6503    8.1772 O   0  0  0  0  0  0  0  0  0  0  0  0
  2  3  1  0
  2  1  1  6
  4  3  1  0
  5  6  2  0
  5  4  1  0
  7 15  1  0
  7  2  1  0
  8  7  2  0
  9  5  1  0
 11 10  1  1
 11 12  1  0
 13 11  1  0
 14 16  1  0
 14 13  1  6
 14 15  1  0
 16 17  2  0
 18 19  1  0
 18 16  1  0
 19 30  1  0
 19 20  1  6
 21 20  1  0
 22 21  2  0
 23 24  1  0
 23 22  1  0
 24 29  2  0
 25 26  2  0
 25 24  1  0
 26 27  1  0
 27 28  2  0
 29 21  1  0
 29 28  1  0
 30 31  2  0
 30 32  1  0
M  END
$$$$
