ELW.pdb
     RDKit          3D

 32 33  0  0  1  0  0  0  0  0999 V2000
   15.9073  -29.9029    0.5301 N   0  0  0  0  0  0  0  0  0  0  0  0
   15.8616  -28.4392    0.4410 C   0  0  1  0  0  0  0  0  0  0  0  0
   14.4665  -27.9246    0.4817 C   0  0  0  0  0  0  0  0  0  0  0  0
   13.5583  -28.6332    1.4348 C   0  0  0  0  0  0  0  0  0  0  0  0
   12.5893  -29.4345    0.6478 C   0  0  0  0  0  0  0  0  0  0  0  0
   12.9038  -30.5167    0.0932 O   0  0  0  0  0  0  0  0  0  0  0  0
   16.7662  -27.8670    1.4399 C   0  0  0  0  0  0  0  0  0  0  0  0
   17.0311  -28.5216    2.4746 O   0  0  0  0  0  0  0  0  0  0  0  0
   11.2914  -28.9798    0.5154 O   0  0  0  0  0  0  0  0  0  0  0  0
   21.6565  -24.4514    1.6499 C   0  0  0  0  0  0  0  0  0  0  0  0
   20.4686  -24.8264    2.5682 C   0  0  2  0  0  0  0  0  0  0  0  0
   21.0400  -25.5648    3.7292 C   0  0  0  0  0  0  0  0  0  0  0  0
   19.5105  -25.5669    1.7232 C   0  0  0  0  0  0  0  0  0  0  0  0
   18.2282  -26.0110    2.3450 C   0  0  2  0  0  0  0  0  0  0  0  0
   17.3613  -26.5915    1.2876 N   0  0  0  0  0  0  0  0  0  0  0  0
   17.4458  -24.9854    3.0339 C   0  0  0  0  0  0  0  0  0  0  0  0
   16.9781  -24.0180    2.3340 O   0  0  0  0  0  0  0  0  0  0  0  0
   17.1308  -24.9257    4.4002 N   0  0  0  0  0  0  0  0  0  0  0  0
   16.2848  -23.9071    5.0236 C   0  0  1  0  0  0  0  0  0  0  0  0
   15.7926  -24.3412    6.3397 C   0  0  0  0  0  0  0  0  0  0  0  0
   16.8283  -24.3668    7.3811 C   0  0  0  0  0  0  0  0  0  0  0  0
   17.6777  -23.3062    7.7394 C   0  0  0  0  0  0  0  0  0  0  0  0
   18.5053  -23.7267    8.7060 N   0  0  0  0  0  0  0  0  0  0  0  0
   18.2688  -25.0111    9.0282 C   0  0  0  0  0  0  0  0  0  0  0  0
   18.8356  -25.8757    9.9627 C   0  0  0  0  0  0  0  0  0  0  0  0
   18.3713  -27.1634   10.0986 C   0  0  0  0  0  0  0  0  0  0  0  0
   17.3341  -27.5625    9.2838 C   0  0  0  0  0  0  0  0  0  0  0  0
   16.7722  -26.7094    8.3582 C   0  0  0  0  0  0  0  0  0  0  0  0
   17.2324  -25.4124    8.2123 C   0  0  0  0  0  0  0  0  0  0  0  0
   16.8786  -22.5912    5.0037 C   0  0  0  0  0  0  0  0  0  0  0  0
   18.1384  -22.5274    4.7817 O   0  0  0  0  0  0  0  0  0  0  0  0
   16.2441  -21.3838    5.1910 O   0  0  0  0  0  0  0  0  0  0  0  0
  2  3  1  0
  2  1  1  1
  4  3  1  0
  5  6  2  0
  5  4  1  0
  7 15  1  0
  7  2  1  0
  8  7  2  0
  9  5  1  0
 11 10  1  6
 11 12  1  0
 13 11  1  0
 14 16  1  0
 14 13  1  6
 14 15  1  0
 16 17  2  0
 18 19  1  0
 18 16  1  0
 19 30  1  0
 19 20  1  1
 21 20  1  0
 22 21  2  0
 23 24  1  0
 23 22  1  0
 24 29  2  0
 25 26  2  0
 25 24  1  0
 26 27  1  0
 27 28  2  0
 29 21  1  0
 29 28  1  0
 30 31  2  0
 30 32  1  0
M  END
$$$$
