ELW.pdb
     RDKit          3D

 32 33  0  0  1  0  0  0  0  0999 V2000
   15.9660  -14.4640    9.7055 N   0  0  0  0  0  0  0  0  0  0  0  0
   17.1040  -15.1702    9.1066 C   0  0  1  0  0  0  0  0  0  0  0  0
   17.2950  -16.5197    9.7025 C   0  0  0  0  0  0  0  0  0  0  0  0
   17.6246  -16.5263   11.1609 C   0  0  0  0  0  0  0  0  0  0  0  0
   17.7226  -17.9364   11.6108 C   0  0  0  0  0  0  0  0  0  0  0  0
   17.0165  -18.3967   12.5422 O   0  0  0  0  0  0  0  0  0  0  0  0
   16.9734  -15.1456    7.6486 C   0  0  0  0  0  0  0  0  0  0  0  0
   15.8355  -15.0393    7.1360 O   0  0  0  0  0  0  0  0  0  0  0  0
   18.6216  -18.7802   10.9876 O   0  0  0  0  0  0  0  0  0  0  0  0
   17.5276  -12.0878    4.7463 C   0  0  0  0  0  0  0  0  0  0  0  0
   18.7510  -12.8025    5.3690 C   0  0  2  0  0  0  0  0  0  0  0  0
   19.9264  -11.9149    5.1451 C   0  0  0  0  0  0  0  0  0  0  0  0
   18.8082  -14.1410    4.7480 C   0  0  0  0  0  0  0  0  0  0  0  0
   17.9261  -15.2083    5.3056 C   0  0  2  0  0  0  0  0  0  0  0  0
   18.0888  -15.2388    6.7818 N   0  0  0  0  0  0  0  0  0  0  0  0
   18.1537  -16.5671    4.8151 C   0  0  0  0  0  0  0  0  0  0  0  0
   19.1987  -17.1856    5.2275 O   0  0  0  0  0  0  0  0  0  0  0  0
   17.3502  -17.3011    3.9289 N   0  0  0  0  0  0  0  0  0  0  0  0
   17.8400  -18.0310    2.7588 C   0  0  1  0  0  0  0  0  0  0  0  0
   19.0117  -17.3739    2.1603 C   0  0  0  0  0  0  0  0  0  0  0  0
   19.4893  -18.0191    0.9301 C   0  0  0  0  0  0  0  0  0  0  0  0
   18.7087  -18.7334    0.0053 C   0  0  0  0  0  0  0  0  0  0  0  0
   19.5089  -19.1962   -0.9650 N   0  0  0  0  0  0  0  0  0  0  0  0
   20.7886  -18.8382   -0.7564 C   0  0  0  0  0  0  0  0  0  0  0  0
   21.9641  -19.0539   -1.4730 C   0  0  0  0  0  0  0  0  0  0  0  0
   23.1604  -18.5400   -1.0291 C   0  0  0  0  0  0  0  0  0  0  0  0
   23.1527  -17.8104    0.1399 C   0  0  0  0  0  0  0  0  0  0  0  0
   21.9913  -17.5962    0.8510 C   0  0  0  0  0  0  0  0  0  0  0  0
   20.7828  -18.1096    0.4142 C   0  0  0  0  0  0  0  0  0  0  0  0
   17.9979  -19.4454    3.0017 C   0  0  0  0  0  0  0  0  0  0  0  0
   18.9192  -19.7934    3.8206 O   0  0  0  0  0  0  0  0  0  0  0  0
   17.2645  -20.4751    2.4566 O   0  0  0  0  0  0  0  0  0  0  0  0
  2  3  1  0
  2  1  1  1
  4  3  1  0
  5  6  2  0
  5  4  1  0
  7 15  1  0
  7  2  1  0
  8  7  2  0
  9  5  1  0
 11 10  1  6
 11 12  1  0
 13 11  1  0
 14 16  1  0
 14 13  1  6
 14 15  1  0
 16 17  2  0
 18 19  1  0
 18 16  1  0
 19 30  1  0
 19 20  1  1
 21 20  1  0
 22 21  2  0
 23 24  1  0
 23 22  1  0
 24 29  2  0
 25 26  2  0
 25 24  1  0
 26 27  1  0
 27 28  2  0
 29 21  1  0
 29 28  1  0
 30 31  2  0
 30 32  1  0
M  END
$$$$
