ELW.pdb
     RDKit          3D

 32 33  0  0  1  0  0  0  0  0999 V2000
   29.3321  -23.5354  -17.6756 N   0  0  0  0  0  0  0  0  0  0  0  0
   28.0024  -22.9161  -17.6445 C   0  0  1  0  0  0  0  0  0  0  0  0
   26.9182  -23.9228  -17.7987 C   0  0  0  0  0  0  0  0  0  0  0  0
   26.8013  -24.5226  -19.1632 C   0  0  0  0  0  0  0  0  0  0  0  0
   25.7502  -23.7871  -19.9079 C   0  0  0  0  0  0  0  0  0  0  0  0
   25.8753  -22.5805  -20.2339 O   0  0  0  0  0  0  0  0  0  0  0  0
   27.8960  -22.0621  -16.4601 C   0  0  0  0  0  0  0  0  0  0  0  0
   28.6857  -22.2378  -15.5037 O   0  0  0  0  0  0  0  0  0  0  0  0
   24.5882  -24.4467  -20.2589 O   0  0  0  0  0  0  0  0  0  0  0  0
   25.6336  -16.5064  -15.4547 C   0  0  0  0  0  0  0  0  0  0  0  0
   26.3030  -17.6767  -14.6947 C   0  0  2  0  0  0  0  0  0  0  0  0
   27.5053  -17.1162  -14.0165 C   0  0  0  0  0  0  0  0  0  0  0  0
   26.5444  -18.7353  -15.6955 C   0  0  0  0  0  0  0  0  0  0  0  0
   26.9376  -20.0877  -15.2012 C   0  0  2  0  0  0  0  0  0  0  0  0
   26.9285  -21.0349  -16.3455 N   0  0  0  0  0  0  0  0  0  0  0  0
   26.1028  -20.6680  -14.1500 C   0  0  0  0  0  0  0  0  0  0  0  0
   24.9862  -21.1960  -14.4949 O   0  0  0  0  0  0  0  0  0  0  0  0
   26.3776  -20.7247  -12.7749 N   0  0  0  0  0  0  0  0  0  0  0  0
   25.5715  -21.4416  -11.7859 C   0  0  1  0  0  0  0  0  0  0  0  0
   26.3975  -21.9606  -10.6854 C   0  0  0  0  0  0  0  0  0  0  0  0
   26.5769  -21.0103   -9.5797 C   0  0  0  0  0  0  0  0  0  0  0  0
   25.6746  -20.0071   -9.1869 C   0  0  0  0  0  0  0  0  0  0  0  0
   26.2075  -19.3277   -8.1621 N   0  0  0  0  0  0  0  0  0  0  0  0
   27.4193  -19.8097   -7.8326 C   0  0  0  0  0  0  0  0  0  0  0  0
   28.3436  -19.4642   -6.8485 C   0  0  0  0  0  0  0  0  0  0  0  0
   29.5235  -20.1594   -6.7196 C   0  0  0  0  0  0  0  0  0  0  0  0
   29.7550  -21.2009   -7.5917 C   0  0  0  0  0  0  0  0  0  0  0  0
   28.8426  -21.5443   -8.5664 C   0  0  0  0  0  0  0  0  0  0  0  0
   27.6532  -20.8509   -8.7058 C   0  0  0  0  0  0  0  0  0  0  0  0
   24.4025  -20.7038  -11.3691 C   0  0  0  0  0  0  0  0  0  0  0  0
   24.4540  -19.4284  -11.4753 O   0  0  0  0  0  0  0  0  0  0  0  0
   23.2245  -21.2137  -10.8714 O   0  0  0  0  0  0  0  0  0  0  0  0
  2  3  1  0
  2  1  1  1
  4  3  1  0
  5  6  2  0
  5  4  1  0
  7 15  1  0
  7  2  1  0
  8  7  2  0
  9  5  1  0
 11 10  1  6
 11 12  1  0
 13 11  1  0
 14 16  1  0
 14 13  1  6
 14 15  1  0
 16 17  2  0
 18 19  1  0
 18 16  1  0
 19 30  1  0
 19 20  1  1
 21 20  1  0
 22 21  2  0
 23 24  1  0
 23 22  1  0
 24 29  2  0
 25 26  2  0
 25 24  1  0
 26 27  1  0
 27 28  2  0
 29 21  1  0
 29 28  1  0
 30 31  2  0
 30 32  1  0
M  END
$$$$
