ELW.pdb
     RDKit          3D

 32 33  0  0  1  0  0  0  0  0999 V2000
   27.7020  -21.8486  -16.4001 N   0  0  0  0  0  0  0  0  0  0  0  0
   27.2229  -20.8324  -15.4566 C   0  0  1  0  0  0  0  0  0  0  0  0
   26.7696  -19.5988  -16.1534 C   0  0  0  0  0  0  0  0  0  0  0  0
   26.8066  -19.6658  -17.6466 C   0  0  0  0  0  0  0  0  0  0  0  0
   28.0289  -18.9679  -18.1150 C   0  0  0  0  0  0  0  0  0  0  0  0
   28.1286  -17.7158  -18.1215 O   0  0  0  0  0  0  0  0  0  0  0  0
   26.2395  -21.4364  -14.5558 C   0  0  0  0  0  0  0  0  0  0  0  0
   25.5495  -22.4012  -14.9585 O   0  0  0  0  0  0  0  0  0  0  0  0
   29.1007  -19.7160  -18.5624 O   0  0  0  0  0  0  0  0  0  0  0  0
   27.0195  -20.9111   -9.2738 C   0  0  0  0  0  0  0  0  0  0  0  0
   25.7970  -20.5795  -10.1631 C   0  0  2  0  0  0  0  0  0  0  0  0
   24.6940  -20.1798   -9.2448 C   0  0  0  0  0  0  0  0  0  0  0  0
   25.5584  -21.7728  -10.9994 C   0  0  0  0  0  0  0  0  0  0  0  0
   24.9853  -21.5677  -12.3624 C   0  0  2  0  0  0  0  0  0  0  0  0
   26.0302  -20.9729  -13.2346 N   0  0  0  0  0  0  0  0  0  0  0  0
   23.8039  -20.7105  -12.4529 C   0  0  0  0  0  0  0  0  0  0  0  0
   23.9797  -19.4412  -12.4038 O   0  0  0  0  0  0  0  0  0  0  0  0
   22.4664  -21.1116  -12.5936 N   0  0  0  0  0  0  0  0  0  0  0  0
   21.3241  -20.2034  -12.7036 C   0  0  1  0  0  0  0  0  0  0  0  0
   21.4332  -19.3345  -13.8850 C   0  0  0  0  0  0  0  0  0  0  0  0
   21.4832  -20.0670  -15.1573 C   0  0  0  0  0  0  0  0  0  0  0  0
   20.5911  -21.0672  -15.5800 C   0  0  0  0  0  0  0  0  0  0  0  0
   20.9860  -21.5157  -16.7794 N   0  0  0  0  0  0  0  0  0  0  0  0
   22.0940  -20.8792  -17.1995 C   0  0  0  0  0  0  0  0  0  0  0  0
   22.8603  -20.9717  -18.3598 C   0  0  0  0  0  0  0  0  0  0  0  0
   23.9574  -20.1621  -18.5420 C   0  0  0  0  0  0  0  0  0  0  0  0
   24.2671  -19.2642  -17.5435 C   0  0  0  0  0  0  0  0  0  0  0  0
   23.5110  -19.1712  -16.3946 C   0  0  0  0  0  0  0  0  0  0  0  0
   22.4062  -19.9816  -16.2005 C   0  0  0  0  0  0  0  0  0  0  0  0
   20.0538  -20.8749  -12.5617 C   0  0  0  0  0  0  0  0  0  0  0  0
   20.0793  -22.1534  -12.4884 O   0  0  0  0  0  0  0  0  0  0  0  0
   18.8059  -20.2981  -12.4890 O   0  0  0  0  0  0  0  0  0  0  0  0
  2  3  1  0
  2  1  1  6
  4  3  1  0
  5  6  2  0
  5  4  1  0
  7 15  1  0
  7  2  1  0
  8  7  2  0
  9  5  1  0
 11 10  1  1
 11 12  1  0
 13 11  1  0
 14 16  1  0
 14 13  1  1
 14 15  1  0
 16 17  2  0
 18 19  1  0
 18 16  1  0
 19 30  1  0
 19 20  1  6
 21 20  1  0
 22 21  2  0
 23 24  1  0
 23 22  1  0
 24 29  2  0
 25 26  2  0
 25 24  1  0
 26 27  1  0
 27 28  2  0
 29 21  1  0
 29 28  1  0
 30 31  2  0
 30 32  1  0
M  END
$$$$
