ELW.pdb
     RDKit          3D

 32 33  0  0  1  0  0  0  0  0999 V2000
   27.9400  -19.9580  -16.5117 N   0  0  0  0  0  0  0  0  0  0  0  0
   26.9555  -19.1942  -15.7373 C   0  0  1  0  0  0  0  0  0  0  0  0
   26.1244  -18.3190  -16.6068 C   0  0  0  0  0  0  0  0  0  0  0  0
   26.8942  -17.3848  -17.4844 C   0  0  0  0  0  0  0  0  0  0  0  0
   26.1723  -17.2540  -18.7737 C   0  0  0  0  0  0  0  0  0  0  0  0
   25.9825  -18.2302  -19.5411 O   0  0  0  0  0  0  0  0  0  0  0  0
   26.2052  -20.1093  -14.8753 C   0  0  0  0  0  0  0  0  0  0  0  0
   25.8026  -21.2001  -15.3413 O   0  0  0  0  0  0  0  0  0  0  0  0
   25.6886  -16.0162  -19.1511 O   0  0  0  0  0  0  0  0  0  0  0  0
   27.7204  -22.3360  -11.8821 C   0  0  0  0  0  0  0  0  0  0  0  0
   27.3974  -20.9361  -11.3067 C   0  0  2  0  0  0  0  0  0  0  0  0
   28.0601  -20.8561   -9.9748 C   0  0  0  0  0  0  0  0  0  0  0  0
   25.9259  -20.8135  -11.3191 C   0  0  0  0  0  0  0  0  0  0  0  0
   25.2366  -20.8023  -12.6431 C   0  0  2  0  0  0  0  0  0  0  0  0
   25.9099  -19.8128  -13.5229 N   0  0  0  0  0  0  0  0  0  0  0  0
   23.8107  -20.4775  -12.6352 C   0  0  0  0  0  0  0  0  0  0  0  0
   23.3999  -19.6045  -11.7905 O   0  0  0  0  0  0  0  0  0  0  0  0
   22.8084  -21.0123  -13.4593 N   0  0  0  0  0  0  0  0  0  0  0  0
   21.3958  -20.6320  -13.4187 C   0  0  1  0  0  0  0  0  0  0  0  0
   21.2263  -19.1712  -13.4283 C   0  0  0  0  0  0  0  0  0  0  0  0
   21.4691  -18.5548  -14.7394 C   0  0  0  0  0  0  0  0  0  0  0  0
   20.9389  -18.9763  -15.9707 C   0  0  0  0  0  0  0  0  0  0  0  0
   21.4170  -18.1820  -16.9384 N   0  0  0  0  0  0  0  0  0  0  0  0
   22.2407  -17.2433  -16.4388 C   0  0  0  0  0  0  0  0  0  0  0  0
   22.9545  -16.1982  -17.0221 C   0  0  0  0  0  0  0  0  0  0  0  0
   23.7196  -15.3549  -16.2502 C   0  0  0  0  0  0  0  0  0  0  0  0
   23.7530  -15.5801  -14.8911 C   0  0  0  0  0  0  0  0  0  0  0  0
   23.0484  -16.6135  -14.3118 C   0  0  0  0  0  0  0  0  0  0  0  0
   22.2767  -17.4686  -15.0790 C   0  0  0  0  0  0  0  0  0  0  0  0
   20.5928  -21.3406  -14.3870 C   0  0  0  0  0  0  0  0  0  0  0  0
   19.3242  -21.1782  -14.3178 O   0  0  0  0  0  0  0  0  0  0  0  0
   21.0334  -22.1742  -15.3902 O   0  0  0  0  0  0  0  0  0  0  0  0
  2  3  1  0
  2  1  1  6
  4  3  1  0
  5  6  2  0
  5  4  1  0
  7 15  1  0
  7  2  1  0
  8  7  2  0
  9  5  1  0
 11 10  1  1
 11 12  1  0
 13 11  1  0
 14 16  1  0
 14 13  1  1
 14 15  1  0
 16 17  2  0
 18 19  1  0
 18 16  1  0
 19 30  1  0
 19 20  1  6
 21 20  1  0
 22 21  2  0
 23 24  1  0
 23 22  1  0
 24 29  2  0
 25 26  2  0
 25 24  1  0
 26 27  1  0
 27 28  2  0
 29 21  1  0
 29 28  1  0
 30 31  2  0
 30 32  1  0
M  END
$$$$
