FWM.pdb
     RDKit          3D

 34 36  0  0  1  0  0  0  0  0999 V2000
   24.7944  -20.7254  -17.8272 N   0  0  0  0  0  0  0  0  0  0  0  0
   24.2204  -19.9097  -16.7950 C   0  0  1  0  0  0  0  0  0  0  0  0
   22.7802  -19.5966  -17.1950 C   0  0  0  0  0  0  0  0  0  0  0  0
   22.8610  -18.5449  -18.2452 C   0  0  0  0  0  0  0  0  0  0  0  0
   22.6880  -18.8406  -19.5796 C   0  0  0  0  0  0  0  0  0  0  0  0
   22.7668  -17.8501  -20.5566 C   0  0  0  0  0  0  0  0  0  0  0  0
   23.0208  -16.5369  -20.2309 C   0  0  0  0  0  0  0  0  0  0  0  0
   23.1953  -16.2370  -18.8911 C   0  0  0  0  0  0  0  0  0  0  0  0
   23.1145  -17.2257  -17.9347 C   0  0  0  0  0  0  0  0  0  0  0  0
   24.2741  -20.5525  -15.4430 C   0  0  0  0  0  0  0  0  0  0  0  0
   23.9912  -21.7698  -15.3029 O   0  0  0  0  0  0  0  0  0  0  0  0
   24.6512  -19.7433  -14.3469 N   0  0  0  0  0  0  0  0  0  0  0  0
   24.7152  -20.1808  -12.9642 C   0  0  1  0  0  0  0  0  0  0  0  0
   25.8046  -19.5373  -12.1942 C   0  0  0  0  0  0  0  0  0  0  0  0
   26.3371  -20.3411  -11.0960 C   0  0  0  0  0  0  0  0  0  0  0  0
   26.8465  -21.6381  -11.1801 C   0  0  0  0  0  0  0  0  0  0  0  0
   27.2133  -22.0713   -9.9812 N   0  0  0  0  0  0  0  0  0  0  0  0
   26.9628  -21.0941   -9.0919 C   0  0  0  0  0  0  0  0  0  0  0  0
   27.2017  -21.1090   -7.7374 C   0  0  0  0  0  0  0  0  0  0  0  0
   26.8771  -19.9661   -6.9980 C   0  0  0  0  0  0  0  0  0  0  0  0
   26.3375  -18.8778   -7.6379 C   0  0  0  0  0  0  0  0  0  0  0  0
   26.1111  -18.8966   -8.9965 C   0  0  0  0  0  0  0  0  0  0  0  0
   26.4222  -20.0125   -9.7465 C   0  0  0  0  0  0  0  0  0  0  0  0
   23.3965  -20.2370  -12.3283 C   0  0  0  0  0  0  0  0  0  0  0  0
   22.4891  -19.3840  -12.5104 O   0  0  0  0  0  0  0  0  0  0  0  0
   19.2762  -23.7087   -6.4626 C   0  0  0  0  0  0  0  0  0  0  0  0
   20.7850  -23.5842   -7.4605 S   0  0  0  0  0  0  0  0  0  0  0  0
   20.6223  -22.3103   -8.7406 C   0  0  0  0  0  0  0  0  0  0  0  0
   21.9068  -22.2291   -9.5007 C   0  0  0  0  0  0  0  0  0  0  0  0
   21.8062  -21.3375  -10.6893 C   0  0  2  0  0  0  0  0  0  0  0  0
   23.0540  -21.3003  -11.4358 N   0  0  0  0  0  0  0  0  0  0  0  0
   21.3561  -19.9696  -10.4172 C   0  0  0  0  0  0  0  0  0  0  0  0
   22.1455  -19.0407  -10.0487 O   0  0  0  0  0  0  0  0  0  0  0  0
   20.0324  -19.6202  -10.5537 O   0  0  0  0  0  0  0  0  0  0  0  0
  2  1  1  6
  3  2  1  0
  4  3  1  0
  4  5  2  0
  6  5  1  0
  7  6  2  0
  8  9  2  0
  8  7  1  0
  9  4  1  0
 10 11  2  0
 10  2  1  0
 12 10  1  0
 13 12  1  0
 13 14  1  1
 15 23  1  0
 15 14  1  0
 16 15  2  0
 17 16  1  0
 17 18  1  0
 18 23  2  0
 19 18  1  0
 19 20  2  0
 20 21  1  0
 21 22  2  0
 23 22  1  0
 24 25  2  0
 24 13  1  0
 26 27  1  0
 28 27  1  0
 28 29  1  0
 30 29  1  1
 30 31  1  0
 31 24  1  0
 32 30  1  0
 33 32  2  0
 34 32  1  0
M  END
$$$$
