FWM.pdb
     RDKit          3D

 34 36  0  0  1  0  0  0  0  0999 V2000
   26.6346  -20.9734  -14.5141 N   0  0  0  0  0  0  0  0  0  0  0  0
   25.8679  -20.7352  -13.3243 C   0  0  1  0  0  0  0  0  0  0  0  0
   26.5356  -19.5940  -12.5601 C   0  0  0  0  0  0  0  0  0  0  0  0
   27.9033  -20.0700  -12.2161 C   0  0  0  0  0  0  0  0  0  0  0  0
   29.0067  -19.6900  -12.9484 C   0  0  0  0  0  0  0  0  0  0  0  0
   30.2836  -20.1415  -12.6204 C   0  0  0  0  0  0  0  0  0  0  0  0
   30.4964  -20.9849  -11.5535 C   0  0  0  0  0  0  0  0  0  0  0  0
   29.3898  -21.3684  -10.8162 C   0  0  0  0  0  0  0  0  0  0  0  0
   28.1324  -20.9146  -11.1507 C   0  0  0  0  0  0  0  0  0  0  0  0
   24.4303  -20.4228  -13.6068 C   0  0  0  0  0  0  0  0  0  0  0  0
   24.1198  -19.4363  -14.3223 O   0  0  0  0  0  0  0  0  0  0  0  0
   23.4515  -21.2727  -13.0426 N   0  0  0  0  0  0  0  0  0  0  0  0
   22.0559  -21.3235  -13.4387 C   0  0  1  0  0  0  0  0  0  0  0  0
   21.8627  -21.3565  -14.9068 C   0  0  0  0  0  0  0  0  0  0  0  0
   21.6586  -20.0496  -15.5281 C   0  0  0  0  0  0  0  0  0  0  0  0
   20.4360  -19.4203  -15.7689 C   0  0  0  0  0  0  0  0  0  0  0  0
   20.6247  -18.2564  -16.3765 N   0  0  0  0  0  0  0  0  0  0  0  0
   21.9476  -18.0878  -16.5493 C   0  0  0  0  0  0  0  0  0  0  0  0
   22.5903  -17.0158  -17.1235 C   0  0  0  0  0  0  0  0  0  0  0  0
   23.9880  -17.0406  -17.1850 C   0  0  0  0  0  0  0  0  0  0  0  0
   24.6679  -18.1195  -16.6766 C   0  0  0  0  0  0  0  0  0  0  0  0
   23.9927  -19.1771  -16.1080 C   0  0  0  0  0  0  0  0  0  0  0  0
   22.6145  -19.1756  -16.0368 C   0  0  0  0  0  0  0  0  0  0  0  0
   21.2784  -22.2787  -12.6452 C   0  0  0  0  0  0  0  0  0  0  0  0
   21.3359  -23.5276  -12.7906 O   0  0  0  0  0  0  0  0  0  0  0  0
   16.8323  -21.2096   -6.8027 C   0  0  0  0  0  0  0  0  0  0  0  0
   18.5150  -21.8832   -6.8582 S   0  0  0  0  0  0  0  0  0  0  0  0
   18.7870  -22.8465   -8.3701 C   0  0  0  0  0  0  0  0  0  0  0  0
   19.5156  -21.9924   -9.3569 C   0  0  0  0  0  0  0  0  0  0  0  0
   19.8162  -22.7189  -10.6217 C   0  0  2  0  0  0  0  0  0  0  0  0
   20.3811  -21.8311  -11.6259 N   0  0  0  0  0  0  0  0  0  0  0  0
   18.6977  -23.4676  -11.2018 C   0  0  0  0  0  0  0  0  0  0  0  0
   18.2581  -24.5537  -10.7031 O   0  0  0  0  0  0  0  0  0  0  0  0
   18.0574  -23.0186  -12.3337 O   0  0  0  0  0  0  0  0  0  0  0  0
  2  1  1  6
  3  2  1  0
  4  3  1  0
  4  5  2  0
  6  5  1  0
  7  6  2  0
  8  9  2  0
  8  7  1  0
  9  4  1  0
 10 11  2  0
 10  2  1  0
 12 10  1  0
 13 12  1  0
 13 14  1  6
 15 23  1  0
 15 14  1  0
 16 15  2  0
 17 16  1  0
 17 18  1  0
 18 23  2  0
 19 18  1  0
 19 20  2  0
 20 21  1  0
 21 22  2  0
 23 22  1  0
 24 25  2  0
 24 13  1  0
 26 27  1  0
 28 27  1  0
 28 29  1  0
 30 29  1  1
 30 31  1  0
 31 24  1  0
 32 30  1  0
 33 32  2  0
 34 32  1  0
M  END
$$$$
