FWM.pdb
     RDKit          3D

 34 36  0  0  1  0  0  0  0  0999 V2000
   24.6176  -19.5025  -18.4582 N   0  0  0  0  0  0  0  0  0  0  0  0
   24.5842  -18.7358  -17.2452 C   0  0  1  0  0  0  0  0  0  0  0  0
   23.5270  -17.6464  -17.4112 C   0  0  0  0  0  0  0  0  0  0  0  0
   24.0914  -16.6650  -18.3776 C   0  0  0  0  0  0  0  0  0  0  0  0
   23.6068  -16.5548  -19.6625 C   0  0  0  0  0  0  0  0  0  0  0  0
   24.1420  -15.6342  -20.5614 C   0  0  0  0  0  0  0  0  0  0  0  0
   25.1757  -14.7981  -20.2049 C   0  0  0  0  0  0  0  0  0  0  0  0
   25.6647  -14.9067  -18.9147 C   0  0  0  0  0  0  0  0  0  0  0  0
   25.1264  -15.8209  -18.0353 C   0  0  0  0  0  0  0  0  0  0  0  0
   24.3084  -19.5707  -16.0323 C   0  0  0  0  0  0  0  0  0  0  0  0
   23.4001  -20.4403  -16.0487 O   0  0  0  0  0  0  0  0  0  0  0  0
   25.1018  -19.3423  -14.8849 N   0  0  0  0  0  0  0  0  0  0  0  0
   24.9155  -19.9823  -13.5953 C   0  0  1  0  0  0  0  0  0  0  0  0
   26.0578  -19.7882  -12.6726 C   0  0  0  0  0  0  0  0  0  0  0  0
   25.9593  -20.5208  -11.4120 C   0  0  0  0  0  0  0  0  0  0  0  0
   25.7387  -21.8904  -11.2562 C   0  0  0  0  0  0  0  0  0  0  0  0
   25.6763  -22.2072   -9.9697 N   0  0  0  0  0  0  0  0  0  0  0  0
   25.8510  -21.0810   -9.2557 C   0  0  0  0  0  0  0  0  0  0  0  0
   25.8746  -20.9490   -7.8868 C   0  0  0  0  0  0  0  0  0  0  0  0
   26.0902  -19.6744   -7.3509 C   0  0  0  0  0  0  0  0  0  0  0  0
   26.2702  -18.6075   -8.1960 C   0  0  0  0  0  0  0  0  0  0  0  0
   26.2406  -18.7750   -9.5630 C   0  0  0  0  0  0  0  0  0  0  0  0
   26.0287  -20.0222  -10.1147 C   0  0  0  0  0  0  0  0  0  0  0  0
   23.5746  -19.7658  -13.0462 C   0  0  0  0  0  0  0  0  0  0  0  0
   22.9412  -18.6822  -13.1392 O   0  0  0  0  0  0  0  0  0  0  0  0
   19.0054  -19.9676  -15.9202 C   0  0  0  0  0  0  0  0  0  0  0  0
   18.3245  -21.0821  -14.6623 S   0  0  0  0  0  0  0  0  0  0  0  0
   19.1903  -20.8938  -13.0804 C   0  0  0  0  0  0  0  0  0  0  0  0
   20.6629  -20.9430  -13.3321 C   0  0  0  0  0  0  0  0  0  0  0  0
   21.4569  -20.7736  -12.0837 C   0  0  2  0  0  0  0  0  0  0  0  0
   22.8862  -20.8087  -12.3513 N   0  0  0  0  0  0  0  0  0  0  0  0
   21.1374  -21.7066  -10.9997 C   0  0  0  0  0  0  0  0  0  0  0  0
   21.4531  -22.9400  -11.0313 O   0  0  0  0  0  0  0  0  0  0  0  0
   20.4703  -21.2814   -9.8740 O   0  0  0  0  0  0  0  0  0  0  0  0
  2  1  1  6
  3  2  1  0
  4  3  1  0
  4  5  2  0
  6  5  1  0
  7  6  2  0
  8  9  2  0
  8  7  1  0
  9  4  1  0
 10 11  2  0
 10  2  1  0
 12 10  1  0
 13 12  1  0
 13 14  1  1
 15 23  1  0
 15 14  1  0
 16 15  2  0
 17 16  1  0
 17 18  1  0
 18 23  2  0
 19 18  1  0
 19 20  2  0
 20 21  1  0
 21 22  2  0
 23 22  1  0
 24 25  2  0
 24 13  1  0
 26 27  1  0
 28 27  1  0
 28 29  1  0
 30 29  1  6
 30 31  1  0
 31 24  1  0
 32 30  1  0
 33 32  2  0
 34 32  1  0
M  END
$$$$
