FWM.pdb
     RDKit          3D

 34 36  0  0  1  0  0  0  0  0999 V2000
   17.0699  -15.1246    7.1677 N   0  0  0  0  0  0  0  0  0  0  0  0
   17.5671  -15.9477    6.1021 C   0  0  1  0  0  0  0  0  0  0  0  0
   19.0694  -15.6999    5.9837 C   0  0  0  0  0  0  0  0  0  0  0  0
   19.2209  -14.3147    5.4603 C   0  0  0  0  0  0  0  0  0  0  0  0
   19.9661  -13.3672    6.1273 C   0  0  0  0  0  0  0  0  0  0  0  0
   20.1016  -12.0720    5.6311 C   0  0  0  0  0  0  0  0  0  0  0  0
   19.4977  -11.6850    4.4563 C   0  0  0  0  0  0  0  0  0  0  0  0
   18.7483  -12.6347    3.7841 C   0  0  0  0  0  0  0  0  0  0  0  0
   18.6225  -13.9122    4.2853 C   0  0  0  0  0  0  0  0  0  0  0  0
   17.2778  -17.4037    6.3031 C   0  0  0  0  0  0  0  0  0  0  0  0
   17.1851  -17.8823    7.4623 O   0  0  0  0  0  0  0  0  0  0  0  0
   17.1155  -18.2052    5.1499 N   0  0  0  0  0  0  0  0  0  0  0  0
   17.3029  -19.6437    5.0951 C   0  0  1  0  0  0  0  0  0  0  0  0
   16.9721  -20.2293    3.7755 C   0  0  0  0  0  0  0  0  0  0  0  0
   16.9301  -21.6898    3.7458 C   0  0  0  0  0  0  0  0  0  0  0  0
   15.7968  -22.4960    3.8665 C   0  0  0  0  0  0  0  0  0  0  0  0
   16.1331  -23.7785    3.8262 N   0  0  0  0  0  0  0  0  0  0  0  0
   17.4679  -23.8535    3.6802 C   0  0  0  0  0  0  0  0  0  0  0  0
   18.2397  -24.9874    3.5784 C   0  0  0  0  0  0  0  0  0  0  0  0
   19.6205  -24.8324    3.4126 C   0  0  0  0  0  0  0  0  0  0  0  0
   20.1571  -23.5699    3.3565 C   0  0  0  0  0  0  0  0  0  0  0  0
   19.3548  -22.4550    3.4619 C   0  0  0  0  0  0  0  0  0  0  0  0
   17.9906  -22.5828    3.6268 C   0  0  0  0  0  0  0  0  0  0  0  0
   18.5584  -20.0734    5.7161 C   0  0  0  0  0  0  0  0  0  0  0  0
   19.6689  -19.5140    5.5212 O   0  0  0  0  0  0  0  0  0  0  0  0
   23.4369  -19.7949   11.0167 C   0  0  0  0  0  0  0  0  0  0  0  0
   22.0288  -19.3837    9.9507 S   0  0  0  0  0  0  0  0  0  0  0  0
   21.4227  -20.8481    9.0697 C   0  0  0  0  0  0  0  0  0  0  0  0
   20.3027  -20.4355    8.1700 C   0  0  0  0  0  0  0  0  0  0  0  0
   19.7831  -21.5692    7.3560 C   0  0  2  0  0  0  0  0  0  0  0  0
   18.5940  -21.1893    6.6094 N   0  0  0  0  0  0  0  0  0  0  0  0
   19.5249  -22.8098    8.0921 C   0  0  0  0  0  0  0  0  0  0  0  0
   20.4450  -23.4838    8.6586 O   0  0  0  0  0  0  0  0  0  0  0  0
   18.2487  -23.3105    8.2089 O   0  0  0  0  0  0  0  0  0  0  0  0
  2  1  1  1
  3  2  1  0
  4  3  1  0
  4  5  2  0
  6  5  1  0
  7  6  2  0
  8  9  2  0
  8  7  1  0
  9  4  1  0
 10 11  2  0
 10  2  1  0
 12 10  1  0
 13 12  1  0
 13 14  1  6
 15 23  1  0
 15 14  1  0
 16 15  2  0
 17 16  1  0
 17 18  1  0
 18 23  2  0
 19 18  1  0
 19 20  2  0
 20 21  1  0
 21 22  2  0
 23 22  1  0
 24 25  2  0
 24 13  1  0
 26 27  1  0
 28 27  1  0
 28 29  1  0
 30 29  1  1
 30 31  1  0
 31 24  1  0
 32 30  1  0
 33 32  2  0
 34 32  1  0
M  END
$$$$
