FWM.pdb
     RDKit          3D

 34 36  0  0  1  0  0  0  0  0999 V2000
   28.3917  -20.8085   -9.0070 N   0  0  0  0  0  0  0  0  0  0  0  0
   26.9703  -20.6143   -8.9606 C   0  0  1  0  0  0  0  0  0  0  0  0
   26.6858  -19.4888   -7.9684 C   0  0  0  0  0  0  0  0  0  0  0  0
   27.4039  -19.8494   -6.7154 C   0  0  0  0  0  0  0  0  0  0  0  0
   28.6538  -19.3464   -6.4281 C   0  0  0  0  0  0  0  0  0  0  0  0
   29.3199  -19.6904   -5.2533 C   0  0  0  0  0  0  0  0  0  0  0  0
   28.7588  -20.5458   -4.3323 C   0  0  0  0  0  0  0  0  0  0  0  0
   27.5033  -21.0528   -4.6185 C   0  0  0  0  0  0  0  0  0  0  0  0
   26.8550  -20.7045   -5.7835 C   0  0  0  0  0  0  0  0  0  0  0  0
   26.3768  -20.3099  -10.3019 C   0  0  0  0  0  0  0  0  0  0  0  0
   26.4471  -19.1502  -10.7830 O   0  0  0  0  0  0  0  0  0  0  0  0
   25.7434  -21.3675  -10.9938 N   0  0  0  0  0  0  0  0  0  0  0  0
   25.0416  -21.2411  -12.2583 C   0  0  1  0  0  0  0  0  0  0  0  0
   25.8650  -21.6251  -13.4281 C   0  0  0  0  0  0  0  0  0  0  0  0
   27.0479  -20.7946  -13.6446 C   0  0  0  0  0  0  0  0  0  0  0  0
   28.3498  -21.0679  -13.2213 C   0  0  0  0  0  0  0  0  0  0  0  0
   29.1664  -20.0806  -13.5647 N   0  0  0  0  0  0  0  0  0  0  0  0
   28.4430  -19.1490  -14.2108 C   0  0  0  0  0  0  0  0  0  0  0  0
   28.8884  -17.9662  -14.7534 C   0  0  0  0  0  0  0  0  0  0  0  0
   27.9582  -17.1469  -15.4026 C   0  0  0  0  0  0  0  0  0  0  0  0
   26.6457  -17.5427  -15.4784 C   0  0  0  0  0  0  0  0  0  0  0  0
   26.2331  -18.7342  -14.9236 C   0  0  0  0  0  0  0  0  0  0  0  0
   27.1320  -19.5584  -14.2777 C   0  0  0  0  0  0  0  0  0  0  0  0
   23.6780  -21.7739  -12.2028 C   0  0  0  0  0  0  0  0  0  0  0  0
   23.3877  -22.9263  -11.7880 O   0  0  0  0  0  0  0  0  0  0  0  0
   18.6293  -22.2410   -8.8411 C   0  0  0  0  0  0  0  0  0  0  0  0
   18.0617  -21.1850  -10.2015 S   0  0  0  0  0  0  0  0  0  0  0  0
   18.9468  -21.5619  -11.7385 C   0  0  0  0  0  0  0  0  0  0  0  0
   20.3512  -21.0651  -11.6159 C   0  0  0  0  0  0  0  0  0  0  0  0
   21.2137  -21.5214  -12.7410 C   0  0  2  0  0  0  0  0  0  0  0  0
   22.5624  -20.9882  -12.6299 N   0  0  0  0  0  0  0  0  0  0  0  0
   20.6912  -21.2587  -14.0848 C   0  0  0  0  0  0  0  0  0  0  0  0
   21.0429  -20.2517  -14.7805 O   0  0  0  0  0  0  0  0  0  0  0  0
   19.7800  -22.1086  -14.6681 O   0  0  0  0  0  0  0  0  0  0  0  0
  2  1  1  6
  3  2  1  0
  4  3  1  0
  4  5  2  0
  6  5  1  0
  7  6  2  0
  8  9  2  0
  8  7  1  0
  9  4  1  0
 10 11  2  0
 10  2  1  0
 12 10  1  0
 13 12  1  0
 13 14  1  6
 15 23  1  0
 15 14  1  0
 16 15  2  0
 17 16  1  0
 17 18  1  0
 18 23  2  0
 19 18  1  0
 19 20  2  0
 20 21  1  0
 21 22  2  0
 23 22  1  0
 24 25  2  0
 24 13  1  0
 26 27  1  0
 28 27  1  0
 28 29  1  0
 30 29  1  1
 30 31  1  0
 31 24  1  0
 32 30  1  0
 33 32  2  0
 34 32  1  0
M  END
$$$$
