FWM.pdb
     RDKit          3D

 34 36  0  0  1  0  0  0  0  0999 V2000
   28.2554  -21.5611  -15.8353 N   0  0  0  0  0  0  0  0  0  0  0  0
   27.9466  -20.5439  -14.8709 C   0  0  1  0  0  0  0  0  0  0  0  0
   27.1143  -19.4731  -15.5729 C   0  0  0  0  0  0  0  0  0  0  0  0
   28.0818  -18.6074  -16.3010 C   0  0  0  0  0  0  0  0  0  0  0  0
   28.3085  -18.7537  -17.6520 C   0  0  0  0  0  0  0  0  0  0  0  0
   29.2173  -17.9399  -18.3257 C   0  0  0  0  0  0  0  0  0  0  0  0
   29.9258  -16.9577  -17.6714 C   0  0  0  0  0  0  0  0  0  0  0  0
   29.7002  -16.8085  -16.3142 C   0  0  0  0  0  0  0  0  0  0  0  0
   28.7986  -17.6195  -15.6598 C   0  0  0  0  0  0  0  0  0  0  0  0
   27.2309  -21.0761  -13.6672 C   0  0  0  0  0  0  0  0  0  0  0  0
   26.2797  -21.8883  -13.7972 O   0  0  0  0  0  0  0  0  0  0  0  0
   27.6649  -20.6325  -12.3971 N   0  0  0  0  0  0  0  0  0  0  0  0
   26.9559  -20.8427  -11.1479 C   0  0  1  0  0  0  0  0  0  0  0  0
   27.7430  -20.4577   -9.9537 C   0  0  0  0  0  0  0  0  0  0  0  0
   26.9861  -20.4275   -8.7039 C   0  0  0  0  0  0  0  0  0  0  0  0
   25.6048  -20.5685   -8.5597 C   0  0  0  0  0  0  0  0  0  0  0  0
   25.2576  -20.4584   -7.2842 N   0  0  0  0  0  0  0  0  0  0  0  0
   26.3750  -20.2471   -6.5664 C   0  0  0  0  0  0  0  0  0  0  0  0
   26.4816  -20.0897   -5.2041 C   0  0  0  0  0  0  0  0  0  0  0  0
   27.7564  -19.8965   -4.6604 C   0  0  0  0  0  0  0  0  0  0  0  0
   28.8489  -19.8708   -5.4914 C   0  0  0  0  0  0  0  0  0  0  0  0
   28.7065  -20.0318   -6.8521 C   0  0  0  0  0  0  0  0  0  0  0  0
   27.4594  -20.2228   -7.4115 C   0  0  0  0  0  0  0  0  0  0  0  0
   25.5661  -20.3829  -11.2034 C   0  0  0  0  0  0  0  0  0  0  0  0
   25.2251  -19.1979  -11.4560 O   0  0  0  0  0  0  0  0  0  0  0  0
   22.3250  -23.6801  -15.2725 C   0  0  0  0  0  0  0  0  0  0  0  0
   20.9984  -23.3715  -14.0754 S   0  0  0  0  0  0  0  0  0  0  0  0
   21.3901  -21.9563  -13.0117 C   0  0  0  0  0  0  0  0  0  0  0  0
   22.7911  -22.1062  -12.5125 C   0  0  0  0  0  0  0  0  0  0  0  0
   23.1450  -21.0737  -11.4994 C   0  0  2  0  0  0  0  0  0  0  0  0
   24.4819  -21.2847  -10.9669 N   0  0  0  0  0  0  0  0  0  0  0  0
   22.1948  -20.9207  -10.3942 C   0  0  0  0  0  0  0  0  0  0  0  0
   22.3271  -21.5204   -9.2785 O   0  0  0  0  0  0  0  0  0  0  0  0
   21.0955  -20.1023  -10.5146 O   0  0  0  0  0  0  0  0  0  0  0  0
  2  1  1  6
  3  2  1  0
  4  3  1  0
  4  5  2  0
  6  5  1  0
  7  6  2  0
  8  9  2  0
  8  7  1  0
  9  4  1  0
 10 11  2  0
 10  2  1  0
 12 10  1  0
 13 12  1  0
 13 14  1  1
 15 23  1  0
 15 14  1  0
 16 15  2  0
 17 16  1  0
 17 18  1  0
 18 23  2  0
 19 18  1  0
 19 20  2  0
 20 21  1  0
 21 22  2  0
 23 22  1  0
 24 25  2  0
 24 13  1  0
 26 27  1  0
 28 27  1  0
 28 29  1  0
 30 29  1  1
 30 31  1  0
 31 24  1  0
 32 30  1  0
 33 32  2  0
 34 32  1  0
M  END
$$$$
