FWM.pdb
     RDKit          3D

 34 36  0  0  1  0  0  0  0  0999 V2000
   15.5278  -15.7329    4.0073 N   0  0  0  0  0  0  0  0  0  0  0  0
   16.7042  -16.5552    4.0152 C   0  0  1  0  0  0  0  0  0  0  0  0
   17.7270  -15.8969    4.9387 C   0  0  0  0  0  0  0  0  0  0  0  0
   18.2489  -14.7133    4.2023 C   0  0  0  0  0  0  0  0  0  0  0  0
   18.3864  -13.4854    4.8118 C   0  0  0  0  0  0  0  0  0  0  0  0
   18.8745  -12.3819    4.1146 C   0  0  0  0  0  0  0  0  0  0  0  0
   19.2388  -12.4714    2.7901 C   0  0  0  0  0  0  0  0  0  0  0  0
   19.1016  -13.7037    2.1753 C   0  0  0  0  0  0  0  0  0  0  0  0
   18.6180  -14.7872    2.8760 C   0  0  0  0  0  0  0  0  0  0  0  0
   16.4297  -17.9659    4.4377 C   0  0  0  0  0  0  0  0  0  0  0  0
   15.3754  -18.2523    5.0606 O   0  0  0  0  0  0  0  0  0  0  0  0
   17.3930  -18.9475    4.1105 N   0  0  0  0  0  0  0  0  0  0  0  0
   17.4334  -20.2951    4.6487 C   0  0  1  0  0  0  0  0  0  0  0  0
   18.0287  -21.2817    3.7181 C   0  0  0  0  0  0  0  0  0  0  0  0
   17.3610  -21.3828    2.4221 C   0  0  0  0  0  0  0  0  0  0  0  0
   17.4538  -20.4800    1.3614 C   0  0  0  0  0  0  0  0  0  0  0  0
   16.6897  -20.8716    0.3503 N   0  0  0  0  0  0  0  0  0  0  0  0
   16.0851  -22.0188    0.7067 C   0  0  0  0  0  0  0  0  0  0  0  0
   15.2177  -22.7795   -0.0422 C   0  0  0  0  0  0  0  0  0  0  0  0
   14.7159  -23.9568    0.5238 C   0  0  0  0  0  0  0  0  0  0  0  0
   15.0995  -24.3136    1.7928 C   0  0  0  0  0  0  0  0  0  0  0  0
   15.9703  -23.5282    2.5157 C   0  0  0  0  0  0  0  0  0  0  0  0
   16.4777  -22.3624    1.9789 C   0  0  0  0  0  0  0  0  0  0  0  0
   17.8920  -20.3339    6.0396 C   0  0  0  0  0  0  0  0  0  0  0  0
   19.0461  -19.9961    6.4111 O   0  0  0  0  0  0  0  0  0  0  0  0
   16.7600  -18.4388   13.3488 C   0  0  0  0  0  0  0  0  0  0  0  0
   16.7005  -18.2664   11.5447 S   0  0  0  0  0  0  0  0  0  0  0  0
   17.2074  -19.8004   10.7215 C   0  0  0  0  0  0  0  0  0  0  0  0
   16.9383  -19.6689    9.2570 C   0  0  0  0  0  0  0  0  0  0  0  0
   17.4378  -20.8385    8.4821 C   0  0  2  0  0  0  0  0  0  0  0  0
   17.0249  -20.7714    7.0890 N   0  0  0  0  0  0  0  0  0  0  0  0
   17.0971  -22.1534    9.0322 C   0  0  0  0  0  0  0  0  0  0  0  0
   17.6404  -22.6274   10.0820 O   0  0  0  0  0  0  0  0  0  0  0  0
   16.1524  -22.9501    8.4274 O   0  0  0  0  0  0  0  0  0  0  0  0
  2  1  1  1
  3  2  1  0
  4  3  1  0
  4  5  2  0
  6  5  1  0
  7  6  2  0
  8  9  2  0
  8  7  1  0
  9  4  1  0
 10 11  2  0
 10  2  1  0
 12 10  1  0
 13 12  1  0
 13 14  1  6
 15 23  1  0
 15 14  1  0
 16 15  2  0
 17 16  1  0
 17 18  1  0
 18 23  2  0
 19 18  1  0
 19 20  2  0
 20 21  1  0
 21 22  2  0
 23 22  1  0
 24 25  2  0
 24 13  1  0
 26 27  1  0
 28 27  1  0
 28 29  1  0
 30 29  1  1
 30 31  1  0
 31 24  1  0
 32 30  1  0
 33 32  2  0
 34 32  1  0
M  END
$$$$
