FWM.pdb
     RDKit          3D

 34 36  0  0  1  0  0  0  0  0999 V2000
   26.1667  -19.0558  -18.9561 N   0  0  0  0  0  0  0  0  0  0  0  0
   25.5793  -18.4779  -17.7808 C   0  0  1  0  0  0  0  0  0  0  0  0
   24.2548  -17.8366  -18.1888 C   0  0  0  0  0  0  0  0  0  0  0  0
   24.6023  -16.7098  -19.0972 C   0  0  0  0  0  0  0  0  0  0  0  0
   25.1919  -15.5570  -18.6266 C   0  0  0  0  0  0  0  0  0  0  0  0
   25.5127  -14.5062  -19.4837 C   0  0  0  0  0  0  0  0  0  0  0  0
   25.2542  -14.5747  -20.8341 C   0  0  0  0  0  0  0  0  0  0  0  0
   24.6619  -15.7316  -21.3096 C   0  0  0  0  0  0  0  0  0  0  0  0
   24.3500  -16.7637  -20.4516 C   0  0  0  0  0  0  0  0  0  0  0  0
   25.3771  -19.4717  -16.6782 C   0  0  0  0  0  0  0  0  0  0  0  0
   25.1042  -20.6707  -16.9413 O   0  0  0  0  0  0  0  0  0  0  0  0
   25.5045  -19.0101  -15.3481 N   0  0  0  0  0  0  0  0  0  0  0  0
   25.2722  -19.8077  -14.1576 C   0  0  1  0  0  0  0  0  0  0  0  0
   26.3040  -19.6171  -13.1123 C   0  0  0  0  0  0  0  0  0  0  0  0
   26.1720  -20.4967  -11.9527 C   0  0  0  0  0  0  0  0  0  0  0  0
   26.0874  -21.8900  -11.9659 C   0  0  0  0  0  0  0  0  0  0  0  0
   25.9440  -22.3580  -10.7330 N   0  0  0  0  0  0  0  0  0  0  0  0
   25.9312  -21.3103   -9.8899 C   0  0  0  0  0  0  0  0  0  0  0  0
   25.8171  -21.3357   -8.5195 C   0  0  0  0  0  0  0  0  0  0  0  0
   25.8448  -20.1168   -7.8328 C   0  0  0  0  0  0  0  0  0  0  0  0
   25.9840  -18.9469   -8.5376 C   0  0  0  0  0  0  0  0  0  0  0  0
   26.0958  -18.9574   -9.9106 C   0  0  0  0  0  0  0  0  0  0  0  0
   26.0702  -20.1470  -10.6097 C   0  0  0  0  0  0  0  0  0  0  0  0
   23.8735  -19.7785  -13.7228 C   0  0  0  0  0  0  0  0  0  0  0  0
   23.2415  -18.7245  -13.4510 O   0  0  0  0  0  0  0  0  0  0  0  0
   21.6815  -23.5738  -16.4959 C   0  0  0  0  0  0  0  0  0  0  0  0
   20.2557  -22.4538  -16.4707 S   0  0  0  0  0  0  0  0  0  0  0  0
   20.4182  -21.2135  -15.1581 C   0  0  0  0  0  0  0  0  0  0  0  0
   20.8883  -21.8936  -13.9128 C   0  0  0  0  0  0  0  0  0  0  0  0
   21.7556  -21.0147  -13.0802 C   0  0  2  0  0  0  0  0  0  0  0  0
   23.1217  -20.9862  -13.5787 N   0  0  0  0  0  0  0  0  0  0  0  0
   21.7628  -21.3104  -11.6449 C   0  0  0  0  0  0  0  0  0  0  0  0
   22.6689  -22.0090  -11.0858 O   0  0  0  0  0  0  0  0  0  0  0  0
   20.7710  -20.8332  -10.8194 O   0  0  0  0  0  0  0  0  0  0  0  0
  2  1  1  6
  3  2  1  0
  4  3  1  0
  4  5  2  0
  6  5  1  0
  7  6  2  0
  8  9  2  0
  8  7  1  0
  9  4  1  0
 10 11  2  0
 10  2  1  0
 12 10  1  0
 13 12  1  0
 13 14  1  1
 15 23  1  0
 15 14  1  0
 16 15  2  0
 17 16  1  0
 17 18  1  0
 18 23  2  0
 19 18  1  0
 19 20  2  0
 20 21  1  0
 21 22  2  0
 23 22  1  0
 24 25  2  0
 24 13  1  0
 26 27  1  0
 28 27  1  0
 28 29  1  0
 30 29  1  6
 30 31  1  0
 31 24  1  0
 32 30  1  0
 33 32  2  0
 34 32  1  0
M  END
$$$$
