FWM.pdb
     RDKit          3D

 34 36  0  0  1  0  0  0  0  0999 V2000
   23.1341  -20.8398  -15.5747 N   0  0  0  0  0  0  0  0  0  0  0  0
   22.8993  -19.9105  -14.5063 C   0  0  1  0  0  0  0  0  0  0  0  0
   21.4164  -19.5461  -14.5229 C   0  0  0  0  0  0  0  0  0  0  0  0
   21.2135  -18.6892  -15.7230 C   0  0  0  0  0  0  0  0  0  0  0  0
   21.7445  -17.4205  -15.8037 C   0  0  0  0  0  0  0  0  0  0  0  0
   21.5485  -16.6242  -16.9304 C   0  0  0  0  0  0  0  0  0  0  0  0
   20.8172  -17.0701  -18.0081 C   0  0  0  0  0  0  0  0  0  0  0  0
   20.2825  -18.3442  -17.9297 C   0  0  0  0  0  0  0  0  0  0  0  0
   20.4840  -19.1217  -16.8100 C   0  0  0  0  0  0  0  0  0  0  0  0
   23.3058  -20.4436  -13.1667 C   0  0  0  0  0  0  0  0  0  0  0  0
   22.8007  -21.5059  -12.7220 O   0  0  0  0  0  0  0  0  0  0  0  0
   24.2682  -19.7115  -12.4343 N   0  0  0  0  0  0  0  0  0  0  0  0
   24.7080  -20.0193  -11.0856 C   0  0  1  0  0  0  0  0  0  0  0  0
   25.9406  -19.2991  -10.6909 C   0  0  0  0  0  0  0  0  0  0  0  0
   26.7870  -20.0102   -9.7349 C   0  0  0  0  0  0  0  0  0  0  0  0
   27.2767  -21.3116   -9.8586 C   0  0  0  0  0  0  0  0  0  0  0  0
   27.9861  -21.6443   -8.7884 N   0  0  0  0  0  0  0  0  0  0  0  0
   27.9855  -20.5951   -7.9471 C   0  0  0  0  0  0  0  0  0  0  0  0
   28.6094  -20.4974   -6.7251 C   0  0  0  0  0  0  0  0  0  0  0  0
   28.4908  -19.2954   -6.0185 C   0  0  0  0  0  0  0  0  0  0  0  0
   27.7655  -18.2625   -6.5587 C   0  0  0  0  0  0  0  0  0  0  0  0
   27.1530  -18.3940   -7.7856 C   0  0  0  0  0  0  0  0  0  0  0  0
   27.2551  -19.5701   -8.5006 C   0  0  0  0  0  0  0  0  0  0  0  0
   23.6059  -20.0270  -10.1204 C   0  0  0  0  0  0  0  0  0  0  0  0
   22.6963  -19.1578  -10.0820 O   0  0  0  0  0  0  0  0  0  0  0  0
   19.2301  -23.0590  -11.1554 C   0  0  0  0  0  0  0  0  0  0  0  0
   18.5658  -22.3428   -9.6277 S   0  0  0  0  0  0  0  0  0  0  0  0
   19.8941  -21.9300   -8.4644 C   0  0  0  0  0  0  0  0  0  0  0  0
   21.1280  -21.6050   -9.2430 C   0  0  0  0  0  0  0  0  0  0  0  0
   22.2869  -21.2903   -8.3623 C   0  0  2  0  0  0  0  0  0  0  0  0
   23.4969  -21.0575   -9.1351 N   0  0  0  0  0  0  0  0  0  0  0  0
   22.5605  -22.2669   -7.3043 C   0  0  0  0  0  0  0  0  0  0  0  0
   23.3744  -23.2356   -7.4490 O   0  0  0  0  0  0  0  0  0  0  0  0
   21.9388  -22.1765   -6.0803 O   0  0  0  0  0  0  0  0  0  0  0  0
  2  1  1  6
  3  2  1  0
  4  3  1  0
  4  5  2  0
  6  5  1  0
  7  6  2  0
  8  9  2  0
  8  7  1  0
  9  4  1  0
 10 11  2  0
 10  2  1  0
 12 10  1  0
 13 12  1  0
 13 14  1  1
 15 23  1  0
 15 14  1  0
 16 15  2  0
 17 16  1  0
 17 18  1  0
 18 23  2  0
 19 18  1  0
 19 20  2  0
 20 21  1  0
 21 22  2  0
 23 22  1  0
 24 25  2  0
 24 13  1  0
 26 27  1  0
 28 27  1  0
 28 29  1  0
 30 29  1  6
 30 31  1  0
 31 24  1  0
 32 30  1  0
 33 32  2  0
 34 32  1  0
M  END
$$$$
