FWM.pdb
     RDKit          3D

 34 36  0  0  1  0  0  0  0  0999 V2000
   15.1798   -3.2031  -16.7672 N   0  0  0  0  0  0  0  0  0  0  0  0
   15.5545   -3.0972  -15.3856 C   0  0  1  0  0  0  0  0  0  0  0  0
   15.2507   -1.6722  -14.9281 C   0  0  0  0  0  0  0  0  0  0  0  0
   16.2091   -0.7917  -15.6505 C   0  0  0  0  0  0  0  0  0  0  0  0
   15.8374   -0.0870  -16.7744 C   0  0  0  0  0  0  0  0  0  0  0  0
   16.7414    0.7340  -17.4457 C   0  0  0  0  0  0  0  0  0  0  0  0
   18.0415    0.8751  -17.0158 C   0  0  0  0  0  0  0  0  0  0  0  0
   18.4177    0.1681  -15.8871 C   0  0  0  0  0  0  0  0  0  0  0  0
   17.5140   -0.6401  -15.2321 C   0  0  0  0  0  0  0  0  0  0  0  0
   14.8634   -4.0997  -14.5130 C   0  0  0  0  0  0  0  0  0  0  0  0
   13.6619   -4.4068  -14.7212 O   0  0  0  0  0  0  0  0  0  0  0  0
   15.6096   -4.6776  -13.4605 N   0  0  0  0  0  0  0  0  0  0  0  0
   15.0759   -5.5639  -12.4422 C   0  0  1  0  0  0  0  0  0  0  0  0
   16.0820   -6.5029  -11.8947 C   0  0  0  0  0  0  0  0  0  0  0  0
   15.5271   -7.6275  -11.1444 C   0  0  0  0  0  0  0  0  0  0  0  0
   15.3059   -8.9214  -11.6195 C   0  0  0  0  0  0  0  0  0  0  0  0
   14.7614   -9.6762  -10.6743 N   0  0  0  0  0  0  0  0  0  0  0  0
   14.6119   -8.9191   -9.5730 C   0  0  0  0  0  0  0  0  0  0  0  0
   14.1009   -9.3002   -8.3542 C   0  0  0  0  0  0  0  0  0  0  0  0
   14.0534   -8.3461   -7.3317 C   0  0  0  0  0  0  0  0  0  0  0  0
   14.5126   -7.0747   -7.5716 C   0  0  0  0  0  0  0  0  0  0  0  0
   15.0184   -6.7263   -8.8047 C   0  0  0  0  0  0  0  0  0  0  0  0
   15.0746   -7.6498   -9.8287 C   0  0  0  0  0  0  0  0  0  0  0  0
   14.2246   -4.8656  -11.4758 C   0  0  0  0  0  0  0  0  0  0  0  0
   14.5948   -3.8702  -10.8002 O   0  0  0  0  0  0  0  0  0  0  0  0
    6.7153   -4.1704   -8.8731 C   0  0  0  0  0  0  0  0  0  0  0  0
    7.9281   -4.9435   -9.9774 S   0  0  0  0  0  0  0  0  0  0  0  0
    9.6001   -4.3205   -9.6554 C   0  0  0  0  0  0  0  0  0  0  0  0
   10.5590   -5.0401  -10.5482 C   0  0  0  0  0  0  0  0  0  0  0  0
   11.9583   -4.5580  -10.3824 C   0  0  2  0  0  0  0  0  0  0  0  0
   12.8796   -5.2888  -11.2383 N   0  0  0  0  0  0  0  0  0  0  0  0
   12.4658   -4.5513   -9.0075 C   0  0  0  0  0  0  0  0  0  0  0  0
   12.4490   -3.5150   -8.2676 O   0  0  0  0  0  0  0  0  0  0  0  0
   12.9915   -5.6901   -8.4421 O   0  0  0  0  0  0  0  0  0  0  0  0
  2  1  1  6
  3  2  1  0
  4  3  1  0
  4  5  2  0
  6  5  1  0
  7  6  2  0
  8  9  2  0
  8  7  1  0
  9  4  1  0
 10 11  2  0
 10  2  1  0
 12 10  1  0
 13 12  1  0
 13 14  1  1
 15 23  1  0
 15 14  1  0
 16 15  2  0
 17 16  1  0
 17 18  1  0
 18 23  2  0
 19 18  1  0
 19 20  2  0
 20 21  1  0
 21 22  2  0
 23 22  1  0
 24 25  2  0
 24 13  1  0
 26 27  1  0
 28 27  1  0
 28 29  1  0
 30 29  1  1
 30 31  1  0
 31 24  1  0
 32 30  1  0
 33 32  2  0
 34 32  1  0
M  END
$$$$
