FWM.pdb
     RDKit          3D

 34 36  0  0  1  0  0  0  0  0999 V2000
   28.8512  -20.6478  -14.4716 N   0  0  0  0  0  0  0  0  0  0  0  0
   27.8117  -19.9493  -13.7703 C   0  0  1  0  0  0  0  0  0  0  0  0
   26.8023  -19.4553  -14.8043 C   0  0  0  0  0  0  0  0  0  0  0  0
   27.4801  -18.3645  -15.5569 C   0  0  0  0  0  0  0  0  0  0  0  0
   28.0780  -18.5911  -16.7772 C   0  0  0  0  0  0  0  0  0  0  0  0
   28.7118  -17.5645  -17.4745 C   0  0  0  0  0  0  0  0  0  0  0  0
   28.7678  -16.2831  -16.9746 C   0  0  0  0  0  0  0  0  0  0  0  0
   28.1681  -16.0525  -15.7488 C   0  0  0  0  0  0  0  0  0  0  0  0
   27.5443  -17.0763  -15.0695 C   0  0  0  0  0  0  0  0  0  0  0  0
   27.1426  -20.7899  -12.7264 C   0  0  0  0  0  0  0  0  0  0  0  0
   26.8621  -21.9935  -12.9589 O   0  0  0  0  0  0  0  0  0  0  0  0
   26.8443  -20.1806  -11.4861 N   0  0  0  0  0  0  0  0  0  0  0  0
   25.7268  -20.5292  -10.6276 C   0  0  1  0  0  0  0  0  0  0  0  0
   25.9432  -20.1705   -9.2069 C   0  0  0  0  0  0  0  0  0  0  0  0
   27.2492  -20.5486   -8.6710 C   0  0  0  0  0  0  0  0  0  0  0  0
   28.1719  -21.4187   -9.2542 C   0  0  0  0  0  0  0  0  0  0  0  0
   29.2376  -21.5548   -8.4762 N   0  0  0  0  0  0  0  0  0  0  0  0
   29.0530  -20.7947   -7.3823 C   0  0  0  0  0  0  0  0  0  0  0  0
   29.9121  -20.6259   -6.3214 C   0  0  0  0  0  0  0  0  0  0  0  0
   29.5228  -19.7665   -5.2880 C   0  0  0  0  0  0  0  0  0  0  0  0
   28.3113  -19.1250   -5.3626 C   0  0  0  0  0  0  0  0  0  0  0  0
   27.4745  -19.3167   -6.4400 C   0  0  0  0  0  0  0  0  0  0  0  0
   27.8364  -20.1601   -7.4707 C   0  0  0  0  0  0  0  0  0  0  0  0
   24.4323  -20.1713  -11.2128 C   0  0  0  0  0  0  0  0  0  0  0  0
   24.2905  -19.3747  -12.1769 O   0  0  0  0  0  0  0  0  0  0  0  0
   24.2216  -24.1471  -14.5426 C   0  0  0  0  0  0  0  0  0  0  0  0
   22.4608  -24.3930  -14.1859 S   0  0  0  0  0  0  0  0  0  0  0  0
   21.7444  -22.9354  -13.3798 C   0  0  0  0  0  0  0  0  0  0  0  0
   22.7747  -22.3310  -12.4810 C   0  0  0  0  0  0  0  0  0  0  0  0
   22.1961  -21.3140  -11.5597 C   0  0  2  0  0  0  0  0  0  0  0  0
   23.2160  -20.7261  -10.7054 N   0  0  0  0  0  0  0  0  0  0  0  0
   21.0721  -21.7719  -10.7383 C   0  0  0  0  0  0  0  0  0  0  0  0
   21.1586  -22.7519   -9.9297 O   0  0  0  0  0  0  0  0  0  0  0  0
   19.8478  -21.1476  -10.8037 O   0  0  0  0  0  0  0  0  0  0  0  0
  2  1  1  6
  3  2  1  0
  4  3  1  0
  4  5  2  0
  6  5  1  0
  7  6  2  0
  8  9  2  0
  8  7  1  0
  9  4  1  0
 10 11  2  0
 10  2  1  0
 12 10  1  0
 13 12  1  0
 13 14  1  1
 15 23  1  0
 15 14  1  0
 16 15  2  0
 17 16  1  0
 17 18  1  0
 18 23  2  0
 19 18  1  0
 19 20  2  0
 20 21  1  0
 21 22  2  0
 23 22  1  0
 24 25  2  0
 24 13  1  0
 26 27  1  0
 28 27  1  0
 28 29  1  0
 30 29  1  1
 30 31  1  0
 31 24  1  0
 32 30  1  0
 33 32  2  0
 34 32  1  0
M  END
$$$$
