LQE.pdb
     RDKit          3D

 27 26  0  0  1  0  0  0  0  0999 V2000
   27.3634  -14.1152  -19.1867 C   0  0  0  0  0  0  0  0  0  0  0  0
   26.5947  -13.8176  -17.9298 C   0  0  1  0  0  0  0  0  0  0  0  0
   27.2549  -14.5238  -16.7718 C   0  0  0  0  0  0  0  0  0  0  0  0
   26.4374  -12.3444  -17.6727 C   0  0  0  0  0  0  0  0  0  0  0  0
   25.5242  -12.0303  -16.5394 C   0  0  2  0  0  0  0  0  0  0  0  0
   24.7310  -13.1853  -16.1708 N   0  0  0  0  0  0  0  0  0  0  0  0
   24.6447  -10.8994  -16.9207 C   0  0  0  0  0  0  0  0  0  0  0  0
   25.1914   -9.8280  -17.3310 O   0  0  0  0  0  0  0  0  0  0  0  0
   19.3505   -8.5911  -20.5049 N   0  0  0  0  0  0  0  0  0  0  0  0
   19.6162   -9.6316  -19.5886 C   0  0  0  0  0  0  0  0  0  0  0  0
   19.3840  -10.8112  -19.9351 O   0  0  0  0  0  0  0  0  0  0  0  0
   20.1696   -9.3575  -18.2113 C   0  0  0  0  0  0  0  0  0  0  0  0
   21.1226  -10.4154  -17.7975 C   0  0  0  0  0  0  0  0  0  0  0  0
   22.4072   -9.9261  -17.2260 C   0  0  2  0  0  0  0  0  0  0  0  0
   23.2435  -11.0458  -16.8171 N   0  0  0  0  0  0  0  0  0  0  0  0
   22.1806   -8.9995  -16.0926 C   0  0  0  0  0  0  0  0  0  0  0  0
   21.9984   -9.5087  -14.9610 O   0  0  0  0  0  0  0  0  0  0  0  0
   22.1671   -7.5848  -16.2638 N   0  0  0  0  0  0  0  0  0  0  0  0
   21.9299   -6.7552  -15.1033 C   0  0  1  0  0  0  0  0  0  0  0  0
   22.2145   -5.3236  -15.3481 C   0  0  0  0  0  0  0  0  0  0  0  0
   22.0666   -4.3515  -14.2558 C   0  0  0  0  0  0  0  0  0  0  0  0
   22.3949   -2.9590  -14.4671 C   0  0  0  0  0  0  0  0  0  0  0  0
   22.8968   -2.5038  -15.4997 O   0  0  0  0  0  0  0  0  0  0  0  0
   20.6411   -7.0690  -14.5057 C   0  0  0  0  0  0  0  0  0  0  0  0
   19.6356   -7.2272  -15.2735 O   0  0  0  0  0  0  0  0  0  0  0  0
   22.1526   -1.9856  -13.4630 O   0  0  0  0  0  0  0  0  0  0  0  0
   20.4344   -7.2074  -13.1466 O   0  0  0  0  0  0  0  0  0  0  0  0
  2  4  1  0
  2  1  1  6
  3  2  1  0
  5  4  1  0
  5  6  1  6
  7  5  1  0
  8  7  2  0
 10  9  1  0
 10 12  1  0
 11 10  2  0
 14 13  1  1
 13 12  1  0
 14 15  1  0
 15  7  1  0
 16 18  1  0
 16 14  1  0
 17 16  2  0
 19 24  1  0
 19 18  1  0
 19 20  1  6
 21 20  1  0
 22 26  1  0
 22 21  1  0
 23 22  2  0
 24 27  1  0
 25 24  2  0
M  END
$$$$
