LQE.pdb
     RDKit          3D

 27 26  0  0  1  0  0  0  0  0999 V2000
   27.5474  -19.0574   -6.7018 C   0  0  0  0  0  0  0  0  0  0  0  0
   27.7296  -20.2383   -7.6137 C   0  0  1  0  0  0  0  0  0  0  0  0
   27.3768  -21.4978   -6.8622 C   0  0  0  0  0  0  0  0  0  0  0  0
   26.9548  -20.1145   -8.8966 C   0  0  0  0  0  0  0  0  0  0  0  0
   27.2371  -21.2035   -9.8719 C   0  0  2  0  0  0  0  0  0  0  0  0
   28.6502  -21.2738  -10.1835 N   0  0  0  0  0  0  0  0  0  0  0  0
   26.4467  -20.9713  -11.1045 C   0  0  0  0  0  0  0  0  0  0  0  0
   26.8734  -20.1098  -11.9357 O   0  0  0  0  0  0  0  0  0  0  0  0
   24.2843  -25.4268  -14.4808 N   0  0  0  0  0  0  0  0  0  0  0  0
   23.6079  -24.3425  -15.0805 C   0  0  0  0  0  0  0  0  0  0  0  0
   22.9571  -24.5464  -16.1294 O   0  0  0  0  0  0  0  0  0  0  0  0
   23.6506  -22.9534  -14.4913 C   0  0  0  0  0  0  0  0  0  0  0  0
   24.3963  -22.9389  -13.2097 C   0  0  0  0  0  0  0  0  0  0  0  0
   24.6044  -21.5921  -12.6102 C   0  0  2  0  0  0  0  0  0  0  0  0
   25.2583  -21.7057  -11.3142 N   0  0  0  0  0  0  0  0  0  0  0  0
   23.3297  -20.8468  -12.4910 C   0  0  0  0  0  0  0  0  0  0  0  0
   22.6679  -21.0040  -11.4373 O   0  0  0  0  0  0  0  0  0  0  0  0
   22.8601  -19.9824  -13.5220 N   0  0  0  0  0  0  0  0  0  0  0  0
   21.5877  -19.3208  -13.3366 C   0  0  1  0  0  0  0  0  0  0  0  0
   21.3816  -18.1914  -14.2706 C   0  0  0  0  0  0  0  0  0  0  0  0
   20.9308  -18.4518  -15.6449 C   0  0  0  0  0  0  0  0  0  0  0  0
   20.7477  -17.3586  -16.5737 C   0  0  0  0  0  0  0  0  0  0  0  0
   20.9416  -16.1686  -16.3059 O   0  0  0  0  0  0  0  0  0  0  0  0
   20.5123  -20.2969  -13.2493 C   0  0  0  0  0  0  0  0  0  0  0  0
   20.6411  -21.4028  -13.8705 O   0  0  0  0  0  0  0  0  0  0  0  0
   20.3165  -17.5897  -17.9060 O   0  0  0  0  0  0  0  0  0  0  0  0
   19.3489  -20.1004  -12.5304 O   0  0  0  0  0  0  0  0  0  0  0  0
  2  4  1  0
  2  1  1  1
  3  2  1  0
  5  4  1  0
  5  6  1  6
  7  5  1  0
  8  7  2  0
 10  9  1  0
 10 12  1  0
 11 10  2  0
 14 13  1  1
 13 12  1  0
 14 15  1  0
 15  7  1  0
 16 18  1  0
 16 14  1  0
 17 16  2  0
 19 24  1  0
 19 18  1  0
 19 20  1  6
 21 20  1  0
 22 26  1  0
 22 21  1  0
 23 22  2  0
 24 27  1  0
 25 24  2  0
M  END
$$$$
