LQE.pdb
     RDKit          3D

 27 26  0  0  1  0  0  0  0  0999 V2000
   14.6351  -14.2924  -16.4055 C   0  0  0  0  0  0  0  0  0  0  0  0
   15.7927  -13.4346  -16.8337 C   0  0  1  0  0  0  0  0  0  0  0  0
   15.4689  -12.8019  -18.1643 C   0  0  0  0  0  0  0  0  0  0  0  0
   16.1762  -12.4089  -15.8031 C   0  0  0  0  0  0  0  0  0  0  0  0
   17.2733  -11.5029  -16.2420 C   0  0  2  0  0  0  0  0  0  0  0  0
   18.5652  -12.1462  -16.1162 N   0  0  0  0  0  0  0  0  0  0  0  0
   17.2330  -10.2610  -15.4334 C   0  0  0  0  0  0  0  0  0  0  0  0
   16.5882  -10.2803  -14.3384 O   0  0  0  0  0  0  0  0  0  0  0  0
   21.6966   -7.8383  -12.9222 N   0  0  0  0  0  0  0  0  0  0  0  0
   21.7305   -7.9558  -14.3287 C   0  0  0  0  0  0  0  0  0  0  0  0
   22.8419   -7.9877  -14.9023 O   0  0  0  0  0  0  0  0  0  0  0  0
   20.4677   -8.0434  -15.1508 C   0  0  0  0  0  0  0  0  0  0  0  0
   19.2631   -7.9076  -14.2969 C   0  0  0  0  0  0  0  0  0  0  0  0
   17.9626   -7.9493  -15.0205 C   0  0  2  0  0  0  0  0  0  0  0  0
   17.9042   -9.1087  -15.8994 N   0  0  0  0  0  0  0  0  0  0  0  0
   17.7233   -6.7013  -15.7819 C   0  0  0  0  0  0  0  0  0  0  0  0
   17.3860   -6.8169  -16.9843 O   0  0  0  0  0  0  0  0  0  0  0  0
   17.8662   -5.4140  -15.1877 N   0  0  0  0  0  0  0  0  0  0  0  0
   17.5440   -4.2507  -15.9841 C   0  0  1  0  0  0  0  0  0  0  0  0
   16.2102   -4.3363  -16.6197 C   0  0  0  0  0  0  0  0  0  0  0  0
   15.7004   -3.2036  -17.4050 C   0  0  0  0  0  0  0  0  0  0  0  0
   14.3399   -3.2075  -17.8953 C   0  0  0  0  0  0  0  0  0  0  0  0
   13.5199   -4.1072  -17.6866 O   0  0  0  0  0  0  0  0  0  0  0  0
   17.8362   -3.0305  -15.2476 C   0  0  0  0  0  0  0  0  0  0  0  0
   17.8563   -3.0776  -13.9736 O   0  0  0  0  0  0  0  0  0  0  0  0
   13.8373   -2.1361  -18.6789 O   0  0  0  0  0  0  0  0  0  0  0  0
   18.0951   -1.8121  -15.8453 O   0  0  0  0  0  0  0  0  0  0  0  0
  2  4  1  0
  2  1  1  1
  3  2  1  0
  5  4  1  0
  5  6  1  1
  7  5  1  0
  8  7  2  0
 10  9  1  0
 10 12  1  0
 11 10  2  0
 14 13  1  6
 13 12  1  0
 14 15  1  0
 15  7  1  0
 16 18  1  0
 16 14  1  0
 17 16  2  0
 19 24  1  0
 19 18  1  0
 19 20  1  1
 21 20  1  0
 22 26  1  0
 22 21  1  0
 23 22  2  0
 24 27  1  0
 25 24  2  0
M  END
$$$$
