LQE.pdb
     RDKit          3D

 27 26  0  0  1  0  0  0  0  0999 V2000
   26.5060  -15.6189  -17.5642 C   0  0  0  0  0  0  0  0  0  0  0  0
   25.6586  -15.1425  -16.4178 C   0  0  1  0  0  0  0  0  0  0  0  0
   26.5456  -14.8883  -15.2244 C   0  0  0  0  0  0  0  0  0  0  0  0
   24.8252  -13.9396  -16.7639 C   0  0  0  0  0  0  0  0  0  0  0  0
   24.0352  -13.4110  -15.6179 C   0  0  2  0  0  0  0  0  0  0  0  0
   23.2159  -14.4480  -15.0244 N   0  0  0  0  0  0  0  0  0  0  0  0
   23.1885  -12.2876  -16.0861 C   0  0  0  0  0  0  0  0  0  0  0  0
   23.7488  -11.3404  -16.7218 O   0  0  0  0  0  0  0  0  0  0  0  0
   17.1072  -12.7216  -17.3747 N   0  0  0  0  0  0  0  0  0  0  0  0
   18.1591  -12.9284  -18.2932 C   0  0  0  0  0  0  0  0  0  0  0  0
   17.9165  -13.5419  -19.3563 O   0  0  0  0  0  0  0  0  0  0  0  0
   19.5589  -12.4311  -18.0256 C   0  0  0  0  0  0  0  0  0  0  0  0
   19.6360  -11.7251  -16.7239 C   0  0  0  0  0  0  0  0  0  0  0  0
   20.9874  -11.2240  -16.3512 C   0  0  2  0  0  0  0  0  0  0  0  0
   21.8025  -12.3046  -15.8143 N   0  0  0  0  0  0  0  0  0  0  0  0
   20.9049  -10.1011  -15.3885 C   0  0  0  0  0  0  0  0  0  0  0  0
   20.8148  -10.3921  -14.1719 O   0  0  0  0  0  0  0  0  0  0  0  0
   20.9258   -8.7402  -15.8107 N   0  0  0  0  0  0  0  0  0  0  0  0
   20.8707   -7.7071  -14.8004 C   0  0  1  0  0  0  0  0  0  0  0  0
   21.6521   -6.5031  -15.1613 C   0  0  0  0  0  0  0  0  0  0  0  0
   21.6284   -5.3254  -14.2825 C   0  0  0  0  0  0  0  0  0  0  0  0
   22.2683   -4.0949  -14.6919 C   0  0  0  0  0  0  0  0  0  0  0  0
   23.1463   -4.0128  -15.5566 O   0  0  0  0  0  0  0  0  0  0  0  0
   19.4988   -7.4867  -14.3693 C   0  0  0  0  0  0  0  0  0  0  0  0
   18.5767   -7.4814  -15.2498 O   0  0  0  0  0  0  0  0  0  0  0  0
   21.9159   -2.8518  -14.1045 O   0  0  0  0  0  0  0  0  0  0  0  0
   19.1271   -7.2801  -13.0547 O   0  0  0  0  0  0  0  0  0  0  0  0
  2  4  1  0
  2  1  1  6
  3  2  1  0
  5  4  1  0
  5  6  1  6
  7  5  1  0
  8  7  2  0
 10  9  1  0
 10 12  1  0
 11 10  2  0
 14 13  1  1
 13 12  1  0
 14 15  1  0
 15  7  1  0
 16 18  1  0
 16 14  1  0
 17 16  2  0
 19 24  1  0
 19 18  1  0
 19 20  1  6
 21 20  1  0
 22 26  1  0
 22 21  1  0
 23 22  2  0
 24 27  1  0
 25 24  2  0
M  END
$$$$
