LQE.pdb
     RDKit          3D

 27 26  0  0  1  0  0  0  0  0999 V2000
   21.6523  -18.8519  -14.8975 C   0  0  0  0  0  0  0  0  0  0  0  0
   20.7645  -17.9229  -15.6772 C   0  0  1  0  0  0  0  0  0  0  0  0
   19.3884  -17.9254  -15.0593 C   0  0  0  0  0  0  0  0  0  0  0  0
   21.3259  -16.5325  -15.7915 C   0  0  0  0  0  0  0  0  0  0  0  0
   20.4631  -15.6026  -16.5712 C   0  0  2  0  0  0  0  0  0  0  0  0
   19.9997  -16.2218  -17.7962 N   0  0  0  0  0  0  0  0  0  0  0  0
   21.2251  -14.3671  -16.8723 C   0  0  0  0  0  0  0  0  0  0  0  0
   21.7620  -13.7440  -15.9034 O   0  0  0  0  0  0  0  0  0  0  0  0
   23.6302  -13.0223  -22.5309 N   0  0  0  0  0  0  0  0  0  0  0  0
   24.1195  -11.9803  -21.7136 C   0  0  0  0  0  0  0  0  0  0  0  0
   24.9313  -11.1637  -22.2030 O   0  0  0  0  0  0  0  0  0  0  0  0
   23.6900  -11.8288  -20.2745 C   0  0  0  0  0  0  0  0  0  0  0  0
   22.6926  -12.8611  -19.9026 C   0  0  0  0  0  0  0  0  0  0  0  0
   22.2154  -12.8058  -18.4935 C   0  0  2  0  0  0  0  0  0  0  0  0
   21.3294  -13.9260  -18.2101 N   0  0  0  0  0  0  0  0  0  0  0  0
   21.5450  -11.5187  -18.1961 C   0  0  0  0  0  0  0  0  0  0  0  0
   20.3200  -11.4357  -18.4519 O   0  0  0  0  0  0  0  0  0  0  0  0
   22.2485  -10.4101  -17.6421 N   0  0  0  0  0  0  0  0  0  0  0  0
   21.4988   -9.2206  -17.3044 C   0  0  1  0  0  0  0  0  0  0  0  0
   21.5196   -8.9155  -15.8564 C   0  0  0  0  0  0  0  0  0  0  0  0
   20.8084   -7.7343  -15.3476 C   0  0  0  0  0  0  0  0  0  0  0  0
   20.7407   -7.4779  -13.9260 C   0  0  0  0  0  0  0  0  0  0  0  0
   21.2482   -8.1943  -13.0574 O   0  0  0  0  0  0  0  0  0  0  0  0
   21.8400   -8.1291  -18.2039 C   0  0  0  0  0  0  0  0  0  0  0  0
   21.0032   -7.1790  -18.3542 O   0  0  0  0  0  0  0  0  0  0  0  0
   20.0604   -6.3418  -13.4151 O   0  0  0  0  0  0  0  0  0  0  0  0
   23.0234   -8.0555  -18.9131 O   0  0  0  0  0  0  0  0  0  0  0  0
  2  4  1  0
  2  1  1  1
  3  2  1  0
  5  4  1  0
  5  6  1  6
  7  5  1  0
  8  7  2  0
 10  9  1  0
 10 12  1  0
 11 10  2  0
 14 13  1  6
 13 12  1  0
 14 15  1  0
 15  7  1  0
 16 18  1  0
 16 14  1  0
 17 16  2  0
 19 24  1  0
 19 18  1  0
 19 20  1  1
 21 20  1  0
 22 26  1  0
 22 21  1  0
 23 22  2  0
 24 27  1  0
 25 24  2  0
M  END
$$$$
