LQE.pdb
     RDKit          3D

 27 26  0  0  1  0  0  0  0  0999 V2000
   18.6566  -14.9341  -15.0780 C   0  0  0  0  0  0  0  0  0  0  0  0
   18.8979  -13.8746  -16.1165 C   0  0  1  0  0  0  0  0  0  0  0  0
   17.7180  -13.8298  -17.0553 C   0  0  0  0  0  0  0  0  0  0  0  0
   19.1931  -12.5255  -15.5214 C   0  0  0  0  0  0  0  0  0  0  0  0
   19.2989  -11.4374  -16.5321 C   0  0  2  0  0  0  0  0  0  0  0  0
   20.4154  -11.6618  -17.4277 N   0  0  0  0  0  0  0  0  0  0  0  0
   19.4481  -10.1373  -15.8354 C   0  0  0  0  0  0  0  0  0  0  0  0
   18.5670   -9.8128  -14.9789 O   0  0  0  0  0  0  0  0  0  0  0  0
   24.6894   -6.5904  -15.6267 N   0  0  0  0  0  0  0  0  0  0  0  0
   23.7403   -5.8168  -14.9240 C   0  0  0  0  0  0  0  0  0  0  0  0
   24.1172   -4.7586  -14.3730 O   0  0  0  0  0  0  0  0  0  0  0  0
   22.2928   -6.2325  -14.8222 C   0  0  0  0  0  0  0  0  0  0  0  0
   22.0535   -7.5140  -15.5285 C   0  0  0  0  0  0  0  0  0  0  0  0
   20.6601   -8.0327  -15.4503 C   0  0  2  0  0  0  0  0  0  0  0  0
   20.5512   -9.3097  -16.1415 N   0  0  0  0  0  0  0  0  0  0  0  0
   19.6855   -7.0579  -15.9928 C   0  0  0  0  0  0  0  0  0  0  0  0
   19.6158   -6.9477  -17.2401 O   0  0  0  0  0  0  0  0  0  0  0  0
   18.8534   -6.2698  -15.1459 N   0  0  0  0  0  0  0  0  0  0  0  0
   17.9480   -5.3243  -15.7602 C   0  0  1  0  0  0  0  0  0  0  0  0
   16.5778   -5.8589  -15.9249 C   0  0  0  0  0  0  0  0  0  0  0  0
   15.7531   -6.1346  -14.7400 C   0  0  0  0  0  0  0  0  0  0  0  0
   14.3784   -6.5583  -14.8888 C   0  0  0  0  0  0  0  0  0  0  0  0
   13.7228   -6.4648  -15.9312 O   0  0  0  0  0  0  0  0  0  0  0  0
   18.0652   -4.0195  -15.1274 C   0  0  0  0  0  0  0  0  0  0  0  0
   18.8966   -3.8785  -14.1711 O   0  0  0  0  0  0  0  0  0  0  0  0
   13.6641   -7.1319  -13.8047 O   0  0  0  0  0  0  0  0  0  0  0  0
   17.3260   -2.9129  -15.4989 O   0  0  0  0  0  0  0  0  0  0  0  0
  2  4  1  0
  2  1  1  1
  3  2  1  0
  5  4  1  0
  5  6  1  6
  7  5  1  0
  8  7  2  0
 10  9  1  0
 10 12  1  0
 11 10  2  0
 14 13  1  6
 13 12  1  0
 14 15  1  0
 15  7  1  0
 16 18  1  0
 16 14  1  0
 17 16  2  0
 19 24  1  0
 19 18  1  0
 19 20  1  1
 21 20  1  0
 22 26  1  0
 22 21  1  0
 23 22  2  0
 24 27  1  0
 25 24  2  0
M  END
$$$$
