LQE.pdb
     RDKit          3D

 27 26  0  0  1  0  0  0  0  0999 V2000
   11.7352   -9.9348   -7.4542 C   0  0  0  0  0  0  0  0  0  0  0  0
   12.4042   -8.8370   -8.2328 C   0  0  1  0  0  0  0  0  0  0  0  0
   12.0722   -7.5106   -7.5955 C   0  0  0  0  0  0  0  0  0  0  0  0
   13.8881   -9.0366   -8.3727 C   0  0  0  0  0  0  0  0  0  0  0  0
   14.5602   -7.9767   -9.1739 C   0  0  2  0  0  0  0  0  0  0  0  0
   13.5971   -7.2029   -9.9306 N   0  0  0  0  0  0  0  0  0  0  0  0
   15.5477   -8.6054  -10.0835 C   0  0  0  0  0  0  0  0  0  0  0  0
   16.6186   -9.0664   -9.5777 O   0  0  0  0  0  0  0  0  0  0  0  0
   14.6440  -11.8247  -15.2749 N   0  0  0  0  0  0  0  0  0  0  0  0
   16.0414  -11.6244  -15.2809 C   0  0  0  0  0  0  0  0  0  0  0  0
   16.7374  -12.2695  -16.0963 O   0  0  0  0  0  0  0  0  0  0  0  0
   16.7112  -10.6579  -14.3345 C   0  0  0  0  0  0  0  0  0  0  0  0
   15.7482  -10.1319  -13.3373 C   0  0  0  0  0  0  0  0  0  0  0  0
   16.3154   -9.1731  -12.3496 C   0  0  2  0  0  0  0  0  0  0  0  0
   15.2713   -8.6715  -11.4672 N   0  0  0  0  0  0  0  0  0  0  0  0
   17.0184   -8.0543  -13.0192 C   0  0  0  0  0  0  0  0  0  0  0  0
   16.3180   -7.0982  -13.4295 O   0  0  0  0  0  0  0  0  0  0  0  0
   18.4322   -8.0487  -13.1981 N   0  0  0  0  0  0  0  0  0  0  0  0
   19.0486   -6.8668  -13.7585 C   0  0  1  0  0  0  0  0  0  0  0  0
   20.3453   -6.5359  -13.1266 C   0  0  0  0  0  0  0  0  0  0  0  0
   21.1127   -5.3741  -13.5969 C   0  0  0  0  0  0  0  0  0  0  0  0
   22.3232   -4.9729  -12.9149 C   0  0  0  0  0  0  0  0  0  0  0  0
   22.7357   -5.4714  -11.8630 O   0  0  0  0  0  0  0  0  0  0  0  0
   19.0287   -6.9207  -15.2123 C   0  0  0  0  0  0  0  0  0  0  0  0
   19.1390   -8.0561  -15.7816 O   0  0  0  0  0  0  0  0  0  0  0  0
   23.1494   -3.9398  -13.4294 O   0  0  0  0  0  0  0  0  0  0  0  0
   18.8975   -5.8100  -16.0236 O   0  0  0  0  0  0  0  0  0  0  0  0
  2  4  1  0
  2  1  1  1
  3  2  1  0
  5  4  1  0
  5  6  1  6
  7  5  1  0
  8  7  2  0
 10  9  1  0
 10 12  1  0
 11 10  2  0
 14 13  1  6
 13 12  1  0
 14 15  1  0
 15  7  1  0
 16 18  1  0
 16 14  1  0
 17 16  2  0
 19 24  1  0
 19 18  1  0
 19 20  1  1
 21 20  1  0
 22 26  1  0
 22 21  1  0
 23 22  2  0
 24 27  1  0
 25 24  2  0
M  END
$$$$
