LQE.pdb
     RDKit          3D

 27 26  0  0  1  0  0  0  0  0999 V2000
   28.0860  -18.5830   -6.5819 C   0  0  0  0  0  0  0  0  0  0  0  0
   27.4351  -19.7937   -7.1899 C   0  0  1  0  0  0  0  0  0  0  0  0
   26.5406  -20.4390   -6.1608 C   0  0  0  0  0  0  0  0  0  0  0  0
   26.6954  -19.4859   -8.4625 C   0  0  0  0  0  0  0  0  0  0  0  0
   26.0455  -20.6757   -9.0780 C   0  0  2  0  0  0  0  0  0  0  0  0
   26.9618  -21.7958   -9.1464 N   0  0  0  0  0  0  0  0  0  0  0  0
   25.5610  -20.3204  -10.4333 C   0  0  0  0  0  0  0  0  0  0  0  0
   24.7968  -19.3116  -10.5503 O   0  0  0  0  0  0  0  0  0  0  0  0
   28.3802  -22.0776  -15.7814 N   0  0  0  0  0  0  0  0  0  0  0  0
   27.3687  -21.1934  -16.2149 C   0  0  0  0  0  0  0  0  0  0  0  0
   27.3259  -20.8763  -17.4245 O   0  0  0  0  0  0  0  0  0  0  0  0
   26.3453  -20.6256  -15.2617 C   0  0  0  0  0  0  0  0  0  0  0  0
   26.5796  -21.1045  -13.8781 C   0  0  0  0  0  0  0  0  0  0  0  0
   25.5831  -20.6492  -12.8701 C   0  0  2  0  0  0  0  0  0  0  0  0
   25.9587  -21.1044  -11.5389 N   0  0  0  0  0  0  0  0  0  0  0  0
   24.2155  -21.1036  -13.2132 C   0  0  0  0  0  0  0  0  0  0  0  0
   23.9139  -22.2869  -12.9273 O   0  0  0  0  0  0  0  0  0  0  0  0
   23.2690  -20.2441  -13.8427 N   0  0  0  0  0  0  0  0  0  0  0  0
   21.8941  -20.6836  -13.9296 C   0  0  1  0  0  0  0  0  0  0  0  0
   20.9231  -19.6091  -13.6247 C   0  0  0  0  0  0  0  0  0  0  0  0
   19.4812  -19.8837  -13.6991 C   0  0  0  0  0  0  0  0  0  0  0  0
   18.5231  -18.8199  -13.4955 C   0  0  0  0  0  0  0  0  0  0  0  0
   18.8110  -17.6729  -13.1393 O   0  0  0  0  0  0  0  0  0  0  0  0
   21.6731  -21.4301  -15.1586 C   0  0  0  0  0  0  0  0  0  0  0  0
   22.3949  -21.1595  -16.1742 O   0  0  0  0  0  0  0  0  0  0  0  0
   17.1345  -19.0315  -13.6998 O   0  0  0  0  0  0  0  0  0  0  0  0
   20.7219  -22.4225  -15.2979 O   0  0  0  0  0  0  0  0  0  0  0  0
  2  4  1  0
  2  1  1  1
  3  2  1  0
  5  4  1  0
  5  6  1  6
  7  5  1  0
  8  7  2  0
 10  9  1  0
 10 12  1  0
 11 10  2  0
 14 13  1  6
 13 12  1  0
 14 15  1  0
 15  7  1  0
 16 18  1  0
 16 14  1  0
 17 16  2  0
 19 24  1  0
 19 18  1  0
 19 20  1  6
 21 20  1  0
 22 26  1  0
 22 21  1  0
 23 22  2  0
 24 27  1  0
 25 24  2  0
M  END
$$$$
