LQE.pdb
     RDKit          3D

 27 26  0  0  1  0  0  0  0  0999 V2000
   26.3113  -15.5545  -17.3422 C   0  0  0  0  0  0  0  0  0  0  0  0
   27.1866  -16.7099  -16.9445 C   0  0  1  0  0  0  0  0  0  0  0  0
   28.6161  -16.2359  -16.8587 C   0  0  0  0  0  0  0  0  0  0  0  0
   26.7386  -17.3751  -15.6724 C   0  0  0  0  0  0  0  0  0  0  0  0
   27.5110  -18.6030  -15.3368 C   0  0  2  0  0  0  0  0  0  0  0  0
   28.1113  -19.1836  -16.5206 N   0  0  0  0  0  0  0  0  0  0  0  0
   26.6110  -19.5812  -14.6804 C   0  0  0  0  0  0  0  0  0  0  0  0
   26.3089  -20.6382  -15.3182 O   0  0  0  0  0  0  0  0  0  0  0  0
   25.9288  -19.8915   -8.4470 N   0  0  0  0  0  0  0  0  0  0  0  0
   25.1715  -20.9934   -8.9001 C   0  0  0  0  0  0  0  0  0  0  0  0
   24.6658  -21.7635   -8.0536 O   0  0  0  0  0  0  0  0  0  0  0  0
   24.9587  -21.2627  -10.3700 C   0  0  0  0  0  0  0  0  0  0  0  0
   25.6718  -20.2662  -11.2050 C   0  0  0  0  0  0  0  0  0  0  0  0
   25.4430  -20.3847  -12.6713 C   0  0  2  0  0  0  0  0  0  0  0  0
   26.1230  -19.3115  -13.3825 N   0  0  0  0  0  0  0  0  0  0  0  0
   23.9980  -20.3967  -12.9972 C   0  0  0  0  0  0  0  0  0  0  0  0
   23.4238  -19.2870  -13.1065 O   0  0  0  0  0  0  0  0  0  0  0  0
   23.2747  -21.6105  -13.1823 N   0  0  0  0  0  0  0  0  0  0  0  0
   21.9040  -21.5306  -13.6360 C   0  0  1  0  0  0  0  0  0  0  0  0
   21.5047  -22.6822  -14.4756 C   0  0  0  0  0  0  0  0  0  0  0  0
   20.1309  -22.7704  -14.9902 C   0  0  0  0  0  0  0  0  0  0  0  0
   19.7450  -23.8588  -15.8608 C   0  0  0  0  0  0  0  0  0  0  0  0
   20.5186  -24.7144  -16.3020 O   0  0  0  0  0  0  0  0  0  0  0  0
   21.0191  -21.1933  -12.5316 C   0  0  0  0  0  0  0  0  0  0  0  0
   21.2424  -21.7160  -11.3903 O   0  0  0  0  0  0  0  0  0  0  0  0
   18.3994  -24.0222  -16.2819 O   0  0  0  0  0  0  0  0  0  0  0  0
   19.9416  -20.3355  -12.6409 O   0  0  0  0  0  0  0  0  0  0  0  0
  2  4  1  0
  2  1  1  1
  3  2  1  0
  5  4  1  0
  5  6  1  6
  7  5  1  0
  8  7  2  0
 10  9  1  0
 10 12  1  0
 11 10  2  0
 14 13  1  1
 13 12  1  0
 14 15  1  0
 15  7  1  0
 16 18  1  0
 16 14  1  0
 17 16  2  0
 19 24  1  0
 19 18  1  0
 19 20  1  1
 21 20  1  0
 22 26  1  0
 22 21  1  0
 23 22  2  0
 24 27  1  0
 25 24  2  0
M  END
$$$$
