LQE.pdb
     RDKit          3D

 27 26  0  0  1  0  0  0  0  0999 V2000
   28.1813  -10.3345  -16.2974 C   0  0  0  0  0  0  0  0  0  0  0  0
   27.0000  -11.2585  -16.3978 C   0  0  1  0  0  0  0  0  0  0  0  0
   26.9256  -12.0977  -15.1465 C   0  0  0  0  0  0  0  0  0  0  0  0
   25.7095  -10.5345  -16.6656 C   0  0  0  0  0  0  0  0  0  0  0  0
   24.5246  -11.4334  -16.7375 C   0  0  2  0  0  0  0  0  0  0  0  0
   24.6568  -12.3881  -17.8192 N   0  0  0  0  0  0  0  0  0  0  0  0
   23.3017  -10.6148  -16.9169 C   0  0  0  0  0  0  0  0  0  0  0  0
   23.0771  -10.1179  -18.0649 O   0  0  0  0  0  0  0  0  0  0  0  0
   17.8539  -11.4844  -14.0386 N   0  0  0  0  0  0  0  0  0  0  0  0
   18.3803  -12.1557  -15.1635 C   0  0  0  0  0  0  0  0  0  0  0  0
   17.8519  -13.2313  -15.5229 O   0  0  0  0  0  0  0  0  0  0  0  0
   19.5563  -11.6111  -15.9373 C   0  0  0  0  0  0  0  0  0  0  0  0
   20.0662  -10.3604  -15.3254 C   0  0  0  0  0  0  0  0  0  0  0  0
   21.1855   -9.7050  -16.0563 C   0  0  2  0  0  0  0  0  0  0  0  0
   22.4346  -10.4149  -15.8198 N   0  0  0  0  0  0  0  0  0  0  0  0
   21.3154   -8.2768  -15.6850 C   0  0  0  0  0  0  0  0  0  0  0  0
   21.9923   -8.0072  -14.6641 O   0  0  0  0  0  0  0  0  0  0  0  0
   20.7028   -7.2392  -16.4458 N   0  0  0  0  0  0  0  0  0  0  0  0
   20.9830   -5.8670  -16.0858 C   0  0  1  0  0  0  0  0  0  0  0  0
   21.5326   -5.0751  -17.2088 C   0  0  0  0  0  0  0  0  0  0  0  0
   21.8277   -3.6476  -17.0216 C   0  0  0  0  0  0  0  0  0  0  0  0
   22.3503   -2.8596  -18.1158 C   0  0  0  0  0  0  0  0  0  0  0  0
   21.9709   -2.9454  -19.2880 O   0  0  0  0  0  0  0  0  0  0  0  0
   19.8570   -5.2863  -15.3705 C   0  0  0  0  0  0  0  0  0  0  0  0
   18.6875   -5.7352  -15.6076 O   0  0  0  0  0  0  0  0  0  0  0  0
   23.3732   -1.8981  -17.9070 O   0  0  0  0  0  0  0  0  0  0  0  0
   19.9743   -4.2694  -14.4425 O   0  0  0  0  0  0  0  0  0  0  0  0
  2  4  1  0
  2  1  1  1
  3  2  1  0
  5  4  1  0
  5  6  1  6
  7  5  1  0
  8  7  2  0
 10  9  1  0
 10 12  1  0
 11 10  2  0
 14 13  1  1
 13 12  1  0
 14 15  1  0
 15  7  1  0
 16 18  1  0
 16 14  1  0
 17 16  2  0
 19 24  1  0
 19 18  1  0
 19 20  1  6
 21 20  1  0
 22 26  1  0
 22 21  1  0
 23 22  2  0
 24 27  1  0
 25 24  2  0
M  END
$$$$
