LQE.pdb
     RDKit          3D

 27 26  0  0  1  0  0  0  0  0999 V2000
   27.0744  -16.1328  -17.4580 C   0  0  0  0  0  0  0  0  0  0  0  0
   27.5704  -17.5278  -17.1989 C   0  0  1  0  0  0  0  0  0  0  0  0
   28.8978  -17.4523  -16.4861 C   0  0  0  0  0  0  0  0  0  0  0  0
   26.5784  -18.3739  -16.4497 C   0  0  0  0  0  0  0  0  0  0  0  0
   27.1262  -19.6862  -16.0084 C   0  0  2  0  0  0  0  0  0  0  0  0
   27.3988  -20.5472  -17.1412 N   0  0  0  0  0  0  0  0  0  0  0  0
   26.1608  -20.3330  -15.0878 C   0  0  0  0  0  0  0  0  0  0  0  0
   25.3301  -21.1612  -15.5769 O   0  0  0  0  0  0  0  0  0  0  0  0
   26.5795  -20.6690   -8.7869 N   0  0  0  0  0  0  0  0  0  0  0  0
   25.2399  -21.0398   -9.0340 C   0  0  0  0  0  0  0  0  0  0  0  0
   24.5239  -21.3842   -8.0675 O   0  0  0  0  0  0  0  0  0  0  0  0
   24.6550  -21.0310  -10.4255 C   0  0  0  0  0  0  0  0  0  0  0  0
   25.6606  -20.5980  -11.4255 C   0  0  0  0  0  0  0  0  0  0  0  0
   25.2046  -20.6330  -12.8422 C   0  0  2  0  0  0  0  0  0  0  0  0
   26.1935  -20.0125  -13.7124 N   0  0  0  0  0  0  0  0  0  0  0  0
   23.8827  -19.9845  -13.0045 C   0  0  0  0  0  0  0  0  0  0  0  0
   23.8700  -18.7461  -13.2026 O   0  0  0  0  0  0  0  0  0  0  0  0
   22.6655  -20.7229  -12.9409 N   0  0  0  0  0  0  0  0  0  0  0  0
   21.4274  -20.0312  -13.2233 C   0  0  1  0  0  0  0  0  0  0  0  0
   21.3286  -19.5718  -14.6267 C   0  0  0  0  0  0  0  0  0  0  0  0
   20.7528  -20.4585  -15.6476 C   0  0  0  0  0  0  0  0  0  0  0  0
   20.9540  -20.1828  -17.0529 C   0  0  0  0  0  0  0  0  0  0  0  0
   21.5121  -19.1753  -17.4989 O   0  0  0  0  0  0  0  0  0  0  0  0
   20.2937  -20.7799  -12.7029 C   0  0  0  0  0  0  0  0  0  0  0  0
   20.4737  -21.9921  -12.3510 O   0  0  0  0  0  0  0  0  0  0  0  0
   20.5063  -21.0868  -18.0513 O   0  0  0  0  0  0  0  0  0  0  0  0
   19.0222  -20.2573  -12.5647 O   0  0  0  0  0  0  0  0  0  0  0  0
  2  4  1  0
  2  1  1  1
  3  2  1  0
  5  4  1  0
  5  6  1  6
  7  5  1  0
  8  7  2  0
 10  9  1  0
 10 12  1  0
 11 10  2  0
 14 13  1  1
 13 12  1  0
 14 15  1  0
 15  7  1  0
 16 18  1  0
 16 14  1  0
 17 16  2  0
 19 24  1  0
 19 18  1  0
 19 20  1  6
 21 20  1  0
 22 26  1  0
 22 21  1  0
 23 22  2  0
 24 27  1  0
 25 24  2  0
M  END
$$$$
