LQE.pdb
     RDKit          3D

 27 26  0  0  1  0  0  0  0  0999 V2000
   24.6406   -8.7008  -15.0144 C   0  0  0  0  0  0  0  0  0  0  0  0
   23.7467   -9.8558  -15.3693 C   0  0  1  0  0  0  0  0  0  0  0  0
   24.0573  -11.0156  -14.4561 C   0  0  0  0  0  0  0  0  0  0  0  0
   22.2865   -9.4973  -15.3444 C   0  0  0  0  0  0  0  0  0  0  0  0
   21.3870  -10.6330  -15.6881 C   0  0  2  0  0  0  0  0  0  0  0  0
   21.6929  -11.1642  -17.0008 N   0  0  0  0  0  0  0  0  0  0  0  0
   19.9785  -10.1741  -15.6312 C   0  0  0  0  0  0  0  0  0  0  0  0
   19.4982   -9.5885  -16.6518 O   0  0  0  0  0  0  0  0  0  0  0  0
   15.3041  -12.3589  -12.0323 N   0  0  0  0  0  0  0  0  0  0  0  0
   15.7469  -12.8649  -13.2736 C   0  0  0  0  0  0  0  0  0  0  0  0
   15.3498  -13.9940  -13.6382 O   0  0  0  0  0  0  0  0  0  0  0  0
   16.6808  -12.0827  -14.1648 C   0  0  0  0  0  0  0  0  0  0  0  0
   16.9990  -10.7596  -13.5758 C   0  0  0  0  0  0  0  0  0  0  0  0
   17.8628   -9.8820  -14.4126 C   0  0  2  0  0  0  0  0  0  0  0  0
   19.2232  -10.3990  -14.4589 N   0  0  0  0  0  0  0  0  0  0  0  0
   17.8498   -8.4827  -13.9265 C   0  0  0  0  0  0  0  0  0  0  0  0
   18.8824   -8.0643  -13.3507 O   0  0  0  0  0  0  0  0  0  0  0  0
   16.7185   -7.6334  -14.0981 N   0  0  0  0  0  0  0  0  0  0  0  0
   16.8897   -6.2122  -13.8931 C   0  0  1  0  0  0  0  0  0  0  0  0
   18.0907   -5.6711  -14.5679 C   0  0  0  0  0  0  0  0  0  0  0  0
   18.3834   -4.2327  -14.4975 C   0  0  0  0  0  0  0  0  0  0  0  0
   19.6024   -3.7059  -15.0700 C   0  0  0  0  0  0  0  0  0  0  0  0
   19.7919   -3.5263  -16.2772 O   0  0  0  0  0  0  0  0  0  0  0  0
   15.6388   -5.5076  -14.1286 C   0  0  0  0  0  0  0  0  0  0  0  0
   15.5494   -4.2876  -13.7691 O   0  0  0  0  0  0  0  0  0  0  0  0
   20.7044   -3.3464  -14.2510 O   0  0  0  0  0  0  0  0  0  0  0  0
   14.5304   -6.0811  -14.7216 O   0  0  0  0  0  0  0  0  0  0  0  0
  2  4  1  0
  2  1  1  1
  3  2  1  0
  5  4  1  0
  5  6  1  6
  7  5  1  0
  8  7  2  0
 10  9  1  0
 10 12  1  0
 11 10  2  0
 14 13  1  1
 13 12  1  0
 14 15  1  0
 15  7  1  0
 16 18  1  0
 16 14  1  0
 17 16  2  0
 19 24  1  0
 19 18  1  0
 19 20  1  6
 21 20  1  0
 22 26  1  0
 22 21  1  0
 23 22  2  0
 24 27  1  0
 25 24  2  0
M  END
$$$$
