LQE.pdb
     RDKit          3D

 27 26  0  0  1  0  0  0  0  0999 V2000
   15.4916  -12.7781  -17.5103 C   0  0  0  0  0  0  0  0  0  0  0  0
   16.5337  -12.6508  -16.4346 C   0  0  1  0  0  0  0  0  0  0  0  0
   17.7739  -13.3956  -16.8621 C   0  0  0  0  0  0  0  0  0  0  0  0
   16.8335  -11.2221  -16.0737 C   0  0  0  0  0  0  0  0  0  0  0  0
   17.7928  -11.0805  -14.9439 C   0  0  2  0  0  0  0  0  0  0  0  0
   17.4538  -11.9732  -13.8544 N   0  0  0  0  0  0  0  0  0  0  0  0
   17.7935   -9.6730  -14.4781 C   0  0  0  0  0  0  0  0  0  0  0  0
   17.9250   -8.7550  -15.3471 O   0  0  0  0  0  0  0  0  0  0  0  0
   16.2739   -7.6879   -8.6361 N   0  0  0  0  0  0  0  0  0  0  0  0
   16.6132   -6.4971   -9.3142 C   0  0  0  0  0  0  0  0  0  0  0  0
   16.5536   -5.4134   -8.6917 O   0  0  0  0  0  0  0  0  0  0  0  0
   17.0428   -6.4997  -10.7612 C   0  0  0  0  0  0  0  0  0  0  0  0
   17.0794   -7.8784  -11.3057 C   0  0  0  0  0  0  0  0  0  0  0  0
   17.6466   -8.0061  -12.6763 C   0  0  2  0  0  0  0  0  0  0  0  0
   17.6499   -9.3993  -13.0997 N   0  0  0  0  0  0  0  0  0  0  0  0
   19.0090   -7.4302  -12.7571 C   0  0  0  0  0  0  0  0  0  0  0  0
   19.9191   -8.0146  -12.1222 O   0  0  0  0  0  0  0  0  0  0  0  0
   19.2912   -6.2604  -13.5206 N   0  0  0  0  0  0  0  0  0  0  0  0
   20.6703   -5.8492  -13.6622 C   0  0  1  0  0  0  0  0  0  0  0  0
   21.2399   -6.1823  -14.9870 C   0  0  0  0  0  0  0  0  0  0  0  0
   22.6309   -5.8226  -15.2963 C   0  0  0  0  0  0  0  0  0  0  0  0
   23.2150   -6.1882  -16.5677 C   0  0  0  0  0  0  0  0  0  0  0  0
   24.3310   -5.8306  -16.9576 O   0  0  0  0  0  0  0  0  0  0  0  0
   20.8443   -4.4789  -13.2055 C   0  0  0  0  0  0  0  0  0  0  0  0
   19.8129   -3.7376  -13.0952 O   0  0  0  0  0  0  0  0  0  0  0  0
   22.5175   -7.0142  -17.4873 O   0  0  0  0  0  0  0  0  0  0  0  0
   22.0671   -3.9235  -12.8811 O   0  0  0  0  0  0  0  0  0  0  0  0
  2  4  1  0
  2  1  1  6
  3  2  1  0
  5  4  1  0
  5  6  1  1
  7  5  1  0
  8  7  2  0
 10  9  1  0
 10 12  1  0
 11 10  2  0
 14 13  1  1
 13 12  1  0
 14 15  1  0
 15  7  1  0
 16 18  1  0
 16 14  1  0
 17 16  2  0
 19 24  1  0
 19 18  1  0
 19 20  1  6
 21 20  1  0
 22 26  1  0
 22 21  1  0
 23 22  2  0
 24 27  1  0
 25 24  2  0
M  END
$$$$
