DSF.pdb
     RDKit          3D

 26 26  0  0  1  0  0  0  0  0999 V2000
    7.5783  -19.4326   19.4341 N   0  0  0  0  0  0  0  0  0  0  0  0
    8.3918  -18.2152   19.4375 C   0  0  1  0  0  0  0  0  0  0  0  0
    8.0541  -17.3648   18.2317 C   0  0  0  0  0  0  0  0  0  0  0  0
    8.4762  -18.0260   16.9958 C   0  0  0  0  0  0  0  0  0  0  0  0
    9.0076  -19.1635   17.0590 O   0  0  0  0  0  0  0  0  0  0  0  0
    8.0361  -17.4201   20.6410 C   0  0  0  0  0  0  0  0  0  0  0  0
    8.3350  -16.2016   20.7047 O   0  0  0  0  0  0  0  0  0  0  0  0
    8.2940  -17.4105   15.7757 O   0  0  0  0  0  0  0  0  0  0  0  0
    6.5920  -19.3067   23.9896 O   0  0  0  0  0  0  0  0  0  0  0  0
    5.9660  -18.0720   23.7580 C   0  0  0  0  0  0  0  0  0  0  0  0
    6.9167  -17.2345   22.8907 C   0  0  2  0  0  0  0  0  0  0  0  0
    7.3504  -18.0143   21.7488 N   0  0  0  0  0  0  0  0  0  0  0  0
    8.0966  -16.9521   23.7347 C   0  0  0  0  0  0  0  0  0  0  0  0
    9.0935  -17.6998   23.6558 O   0  0  0  0  0  0  0  0  0  0  0  0
    8.1287  -15.8572   24.6308 N   0  0  0  0  0  0  0  0  0  0  0  0
    9.3566  -15.6675   25.4307 C   0  0  1  0  0  0  0  0  0  0  0  0
    9.6176  -14.1784   25.4431 C   0  0  0  0  0  0  0  0  0  0  0  0
    8.4045  -13.4640   25.8533 C   0  0  0  0  0  0  0  0  0  0  0  0
    8.2896  -13.0201   27.1509 C   0  0  0  0  0  0  0  0  0  0  0  0
    7.1732  -12.3189   27.5783 C   0  0  0  0  0  0  0  0  0  0  0  0
    6.1712  -12.0740   26.6657 C   0  0  0  0  0  0  0  0  0  0  0  0
    6.2463  -12.4989   25.3626 C   0  0  0  0  0  0  0  0  0  0  0  0
    7.3903  -13.2043   24.9684 C   0  0  0  0  0  0  0  0  0  0  0  0
    9.1153  -16.1295   26.8017 C   0  0  0  0  0  0  0  0  0  0  0  0
   10.1653  -16.2077   27.6877 O   0  0  0  0  0  0  0  0  0  0  0  0
    7.9752  -16.4510   27.1730 O   0  0  0  0  0  0  0  0  0  0  0  0
  2  1  1  6
  2  3  1  0
  3  4  1  0
  4  8  1  0
  5  4  2  0
  6  2  1  0
  7  6  2  0
  9 10  1  0
 11 10  1  1
 11 13  1  0
 11 12  1  0
 12  6  1  0
 13 14  2  0
 15 16  1  0
 15 13  1  0
 16 17  1  1
 16 24  1  0
 17 18  1  0
 18 23  2  0
 19 20  2  0
 19 18  1  0
 20 21  1  0
 21 22  2  0
 23 22  1  0
 24 26  2  0
 24 25  1  0
M  END
$$$$
