DSF.pdb
     RDKit          3D

 26 26  0  0  1  0  0  0  0  0999 V2000
    8.5792  -16.2596   18.3703 N   0  0  0  0  0  0  0  0  0  0  0  0
    8.7855  -14.9509   18.9938 C   0  0  1  0  0  0  0  0  0  0  0  0
    8.0537  -13.8835   18.2087 C   0  0  0  0  0  0  0  0  0  0  0  0
    8.3434  -14.0010   16.7787 C   0  0  0  0  0  0  0  0  0  0  0  0
    9.0922  -14.9279   16.3782 O   0  0  0  0  0  0  0  0  0  0  0  0
    8.1814  -14.9804   20.3507 C   0  0  0  0  0  0  0  0  0  0  0  0
    8.0973  -13.9260   21.0284 O   0  0  0  0  0  0  0  0  0  0  0  0
    7.8024  -13.1067   15.8796 O   0  0  0  0  0  0  0  0  0  0  0  0
    7.3981  -18.6039   22.0755 O   0  0  0  0  0  0  0  0  0  0  0  0
    6.4880  -17.6222   22.4975 C   0  0  0  0  0  0  0  0  0  0  0  0
    7.1493  -16.2566   22.2625 C   0  0  2  0  0  0  0  0  0  0  0  0
    7.6842  -16.1980   20.9170 N   0  0  0  0  0  0  0  0  0  0  0  0
    8.2778  -16.1808   23.2140 C   0  0  0  0  0  0  0  0  0  0  0  0
    9.4140  -16.5381   22.8392 O   0  0  0  0  0  0  0  0  0  0  0  0
    8.1069  -15.7142   24.5391 N   0  0  0  0  0  0  0  0  0  0  0  0
    9.3112  -15.6269   25.3910 C   0  0  1  0  0  0  0  0  0  0  0  0
    9.5241  -14.1542   25.6585 C   0  0  0  0  0  0  0  0  0  0  0  0
    8.2834  -13.5554   26.1610 C   0  0  0  0  0  0  0  0  0  0  0  0
    8.1378  -13.3400   27.5126 C   0  0  0  0  0  0  0  0  0  0  0  0
    6.9940  -12.7542   28.0315 C   0  0  0  0  0  0  0  0  0  0  0  0
    5.9963  -12.3889   27.1551 C   0  0  0  0  0  0  0  0  0  0  0  0
    6.1016  -12.5859   25.8008 C   0  0  0  0  0  0  0  0  0  0  0  0
    7.2727  -13.1806   25.3143 C   0  0  0  0  0  0  0  0  0  0  0  0
    9.0563  -16.3188   26.6589 C   0  0  0  0  0  0  0  0  0  0  0  0
    7.8583  -16.9683   26.8502 O   0  0  0  0  0  0  0  0  0  0  0  0
    9.9079  -16.3258   27.5619 O   0  0  0  0  0  0  0  0  0  0  0  0
  2  1  1  6
  2  3  1  0
  3  4  1  0
  4  8  1  0
  5  4  2  0
  6  2  1  0
  7  6  2  0
  9 10  1  0
 11 10  1  6
 11 13  1  0
 11 12  1  0
 12  6  1  0
 13 14  2  0
 15 16  1  0
 15 13  1  0
 16 17  1  1
 16 24  1  0
 17 18  1  0
 18 23  2  0
 19 20  2  0
 19 18  1  0
 20 21  1  0
 21 22  2  0
 23 22  1  0
 24 26  2  0
 24 25  1  0
M  END
$$$$
