DSF.pdb
     RDKit          3D

 26 26  0  0  1  0  0  0  0  0999 V2000
   10.8192  -17.5798   19.0542 N   0  0  0  0  0  0  0  0  0  0  0  0
   10.7548  -17.8131   20.4983 C   0  0  1  0  0  0  0  0  0  0  0  0
   12.1361  -18.1246   21.0333 C   0  0  0  0  0  0  0  0  0  0  0  0
   12.6766  -19.3305   20.4038 C   0  0  0  0  0  0  0  0  0  0  0  0
   12.4314  -19.5523   19.1910 O   0  0  0  0  0  0  0  0  0  0  0  0
   10.3100  -16.5566   21.1542 C   0  0  0  0  0  0  0  0  0  0  0  0
   11.1502  -15.7905   21.6883 O   0  0  0  0  0  0  0  0  0  0  0  0
   13.4459  -20.2141   21.1305 O   0  0  0  0  0  0  0  0  0  0  0  0
    6.3508  -15.7800   21.1749 O   0  0  0  0  0  0  0  0  0  0  0  0
    7.0847  -14.5916   21.3140 C   0  0  0  0  0  0  0  0  0  0  0  0
    8.4746  -14.9736   21.8430 C   0  0  2  0  0  0  0  0  0  0  0  0
    8.9268  -16.1885   21.1952 N   0  0  0  0  0  0  0  0  0  0  0  0
    8.2999  -15.2536   23.2837 C   0  0  0  0  0  0  0  0  0  0  0  0
    7.1492  -15.2500   23.7685 O   0  0  0  0  0  0  0  0  0  0  0  0
    9.4009  -15.5259   24.1302 N   0  0  0  0  0  0  0  0  0  0  0  0
    9.1942  -15.3764   25.5856 C   0  0  1  0  0  0  0  0  0  0  0  0
    7.6968  -15.3817   25.7946 C   0  0  0  0  0  0  0  0  0  0  0  0
    7.2338  -14.0268   26.1110 C   0  0  0  0  0  0  0  0  0  0  0  0
    6.0271  -13.5928   25.6113 C   0  0  0  0  0  0  0  0  0  0  0  0
    5.5366  -12.3299   25.9034 C   0  0  0  0  0  0  0  0  0  0  0  0
    6.2918  -11.5109   26.7133 C   0  0  0  0  0  0  0  0  0  0  0  0
    7.5000  -11.9050   27.2322 C   0  0  0  0  0  0  0  0  0  0  0  0
    7.9622  -13.1884   26.9145 C   0  0  0  0  0  0  0  0  0  0  0  0
    9.7850  -16.5270   26.2774 C   0  0  0  0  0  0  0  0  0  0  0  0
    9.8603  -16.5290   27.6514 O   0  0  0  0  0  0  0  0  0  0  0  0
   10.2181  -17.4993   25.6387 O   0  0  0  0  0  0  0  0  0  0  0  0
  2  1  1  6
  2  3  1  0
  3  4  1  0
  4  8  1  0
  5  4  2  0
  6  2  1  0
  7  6  2  0
  9 10  1  0
 11 10  1  6
 11 13  1  0
 11 12  1  0
 12  6  1  0
 13 14  2  0
 15 16  1  0
 15 13  1  0
 16 17  1  6
 16 24  1  0
 17 18  1  0
 18 23  2  0
 19 20  2  0
 19 18  1  0
 20 21  1  0
 21 22  2  0
 23 22  1  0
 24 26  2  0
 24 25  1  0
M  END
$$$$
