DSF.pdb
     RDKit          3D

 26 26  0  0  1  0  0  0  0  0999 V2000
    7.4785  -18.7919   19.3206 N   0  0  0  0  0  0  0  0  0  0  0  0
    8.3919  -17.6694   19.5435 C   0  0  1  0  0  0  0  0  0  0  0  0
    8.2017  -16.6262   18.4634 C   0  0  0  0  0  0  0  0  0  0  0  0
    8.6133  -17.1485   17.1593 C   0  0  0  0  0  0  0  0  0  0  0  0
    9.0820  -18.3125   17.0846 O   0  0  0  0  0  0  0  0  0  0  0  0
    8.0340  -17.0262   20.8340 C   0  0  0  0  0  0  0  0  0  0  0  0
    8.1996  -15.7910   20.9921 O   0  0  0  0  0  0  0  0  0  0  0  0
    8.4894  -16.3747   16.0250 O   0  0  0  0  0  0  0  0  0  0  0  0
    7.0230  -19.2411   24.2893 O   0  0  0  0  0  0  0  0  0  0  0  0
    6.2016  -18.1524   23.9573 C   0  0  0  0  0  0  0  0  0  0  0  0
    7.0580  -17.1640   23.1529 C   0  0  2  0  0  0  0  0  0  0  0  0
    7.4964  -17.7882   21.9207 N   0  0  0  0  0  0  0  0  0  0  0  0
    8.2496  -16.8877   23.9824 C   0  0  0  0  0  0  0  0  0  0  0  0
    9.3047  -17.5171   23.7595 O   0  0  0  0  0  0  0  0  0  0  0  0
    8.2287  -15.9291   25.0233 N   0  0  0  0  0  0  0  0  0  0  0  0
    9.4981  -15.6661   25.7325 C   0  0  1  0  0  0  0  0  0  0  0  0
    9.6857  -14.1661   25.7044 C   0  0  0  0  0  0  0  0  0  0  0  0
    8.4401  -13.5014   26.1006 C   0  0  0  0  0  0  0  0  0  0  0  0
    8.2695  -13.1140   27.4101 C   0  0  0  0  0  0  0  0  0  0  0  0
    7.1202  -12.4607   27.8263 C   0  0  0  0  0  0  0  0  0  0  0  0
    6.1429  -12.2054   26.8900 C   0  0  0  0  0  0  0  0  0  0  0  0
    6.2735  -12.5747   25.5744 C   0  0  0  0  0  0  0  0  0  0  0  0
    7.4493  -13.2328   25.1922 C   0  0  0  0  0  0  0  0  0  0  0  0
    9.3752  -16.1140   27.1237 C   0  0  0  0  0  0  0  0  0  0  0  0
    8.2008  -16.6899   27.5514 O   0  0  0  0  0  0  0  0  0  0  0  0
   10.3175  -15.9801   27.9206 O   0  0  0  0  0  0  0  0  0  0  0  0
  2  1  1  6
  2  3  1  0
  3  4  1  0
  4  8  1  0
  5  4  2  0
  6  2  1  0
  7  6  2  0
  9 10  1  0
 11 10  1  1
 11 13  1  0
 11 12  1  0
 12  6  1  0
 13 14  2  0
 15 16  1  0
 15 13  1  0
 16 17  1  1
 16 24  1  0
 17 18  1  0
 18 23  2  0
 19 20  2  0
 19 18  1  0
 20 21  1  0
 21 22  2  0
 23 22  1  0
 24 26  2  0
 24 25  1  0
M  END
$$$$
