DSF.pdb
     RDKit          3D

 26 26  0  0  1  0  0  0  0  0999 V2000
    8.0179  -19.2633   19.1753 N   0  0  0  0  0  0  0  0  0  0  0  0
    8.6697  -17.9524   19.2002 C   0  0  1  0  0  0  0  0  0  0  0  0
    8.2633  -17.1501   17.9826 C   0  0  0  0  0  0  0  0  0  0  0  0
    8.9009  -17.6795   16.7760 C   0  0  0  0  0  0  0  0  0  0  0  0
    8.3460  -18.6177   16.1498 O   0  0  0  0  0  0  0  0  0  0  0  0
    8.1797  -17.2105   20.3903 C   0  0  0  0  0  0  0  0  0  0  0  0
    8.3039  -15.9619   20.4524 O   0  0  0  0  0  0  0  0  0  0  0  0
   10.0960  -17.1568   16.3296 O   0  0  0  0  0  0  0  0  0  0  0  0
    6.6461  -19.2725   23.6776 O   0  0  0  0  0  0  0  0  0  0  0  0
    6.0288  -18.0471   23.3818 C   0  0  0  0  0  0  0  0  0  0  0  0
    7.0631  -17.1808   22.6489 C   0  0  2  0  0  0  0  0  0  0  0  0
    7.5594  -17.8907   21.4871 N   0  0  0  0  0  0  0  0  0  0  0  0
    8.1844  -16.9971   23.5942 C   0  0  0  0  0  0  0  0  0  0  0  0
    9.1874  -17.7346   23.4983 O   0  0  0  0  0  0  0  0  0  0  0  0
    8.1535  -16.0079   24.6059 N   0  0  0  0  0  0  0  0  0  0  0  0
    9.3281  -15.9081   25.4968 C   0  0  1  0  0  0  0  0  0  0  0  0
    9.6534  -14.4346   25.5905 C   0  0  0  0  0  0  0  0  0  0  0  0
    8.4556  -13.6845   25.9815 C   0  0  0  0  0  0  0  0  0  0  0  0
    7.5803  -13.2573   25.0091 C   0  0  0  0  0  0  0  0  0  0  0  0
    6.4227  -12.5669   25.3320 C   0  0  0  0  0  0  0  0  0  0  0  0
    6.1657  -12.3156   26.6615 C   0  0  0  0  0  0  0  0  0  0  0  0
    7.0121  -12.7241   27.6620 C   0  0  0  0  0  0  0  0  0  0  0  0
    8.1717  -13.4191   27.2960 C   0  0  0  0  0  0  0  0  0  0  0  0
    8.9689  -16.4115   26.8268 C   0  0  0  0  0  0  0  0  0  0  0  0
    7.6814  -16.8322   27.0698 O   0  0  0  0  0  0  0  0  0  0  0  0
    9.8121  -16.4628   27.7364 O   0  0  0  0  0  0  0  0  0  0  0  0
  2  1  1  6
  2  3  1  0
  3  4  1  0
  4  8  1  0
  5  4  2  0
  6  2  1  0
  7  6  2  0
  9 10  1  0
 11 10  1  1
 11 13  1  0
 11 12  1  0
 12  6  1  0
 13 14  2  0
 15 16  1  0
 15 13  1  0
 16 17  1  1
 16 24  1  0
 17 18  1  0
 18 23  2  0
 19 20  2  0
 19 18  1  0
 20 21  1  0
 21 22  2  0
 23 22  1  0
 24 26  2  0
 24 25  1  0
M  END
$$$$
