DSF.pdb
     RDKit          3D

 26 26  0  0  1  0  0  0  0  0999 V2000
    9.7203  -12.9170   19.4586 N   0  0  0  0  0  0  0  0  0  0  0  0
    8.2597  -12.9987   19.5212 C   0  0  1  0  0  0  0  0  0  0  0  0
    7.7040  -13.3639   18.1614 C   0  0  0  0  0  0  0  0  0  0  0  0
    8.5778  -14.3236   17.4845 C   0  0  0  0  0  0  0  0  0  0  0  0
    9.4529  -14.9327   18.1505 O   0  0  0  0  0  0  0  0  0  0  0  0
    7.8936  -14.1003   20.4482 C   0  0  0  0  0  0  0  0  0  0  0  0
    6.6879  -14.4104   20.6168 O   0  0  0  0  0  0  0  0  0  0  0  0
    8.4446  -14.5584   16.1325 O   0  0  0  0  0  0  0  0  0  0  0  0
   10.6065  -16.7936   21.2494 O   0  0  0  0  0  0  0  0  0  0  0  0
    9.3144  -17.1903   21.6279 C   0  0  0  0  0  0  0  0  0  0  0  0
    8.5557  -15.9254   22.0543 C   0  0  2  0  0  0  0  0  0  0  0  0
    8.8938  -14.8307   21.1669 N   0  0  0  0  0  0  0  0  0  0  0  0
    9.0458  -15.5930   23.4085 C   0  0  0  0  0  0  0  0  0  0  0  0
   10.0390  -14.8461   23.5292 O   0  0  0  0  0  0  0  0  0  0  0  0
    8.4205  -16.0979   24.5735 N   0  0  0  0  0  0  0  0  0  0  0  0
    9.1023  -15.8717   25.8647 C   0  0  1  0  0  0  0  0  0  0  0  0
    8.0068  -15.5940   26.8691 C   0  0  0  0  0  0  0  0  0  0  0  0
    7.5597  -14.2029   26.7458 C   0  0  0  0  0  0  0  0  0  0  0  0
    6.2148  -13.9347   26.6299 C   0  0  0  0  0  0  0  0  0  0  0  0
    5.7429  -12.6350   26.5359 C   0  0  0  0  0  0  0  0  0  0  0  0
    6.6598  -11.6075   26.5613 C   0  0  0  0  0  0  0  0  0  0  0  0
    8.0092  -11.8316   26.6757 C   0  0  0  0  0  0  0  0  0  0  0  0
    8.4474  -13.1587   26.7685 C   0  0  0  0  0  0  0  0  0  0  0  0
    9.8184  -17.0916   26.2523 C   0  0  0  0  0  0  0  0  0  0  0  0
    9.7383  -18.2097   25.4541 O   0  0  0  0  0  0  0  0  0  0  0  0
   10.4961  -17.1282   27.2917 O   0  0  0  0  0  0  0  0  0  0  0  0
  2  1  1  6
  2  3  1  0
  3  4  1  0
  4  8  1  0
  5  4  2  0
  6  2  1  0
  7  6  2  0
  9 10  1  0
 11 10  1  6
 11 13  1  0
 11 12  1  0
 12  6  1  0
 13 14  2  0
 15 16  1  0
 15 13  1  0
 16 17  1  1
 16 24  1  0
 17 18  1  0
 18 23  2  0
 19 20  2  0
 19 18  1  0
 20 21  1  0
 21 22  2  0
 23 22  1  0
 24 26  2  0
 24 25  1  0
M  END
$$$$
