DSF.pdb
     RDKit          3D

 26 26  0  0  1  0  0  0  0  0999 V2000
    8.7169  -12.4382   19.7578 N   0  0  0  0  0  0  0  0  0  0  0  0
    8.1018  -13.5306   19.0014 C   0  0  1  0  0  0  0  0  0  0  0  0
    9.0837  -14.0716   17.9843 C   0  0  0  0  0  0  0  0  0  0  0  0
    8.4186  -14.9899   17.0585 C   0  0  0  0  0  0  0  0  0  0  0  0
    8.1366  -16.1527   17.4441 O   0  0  0  0  0  0  0  0  0  0  0  0
    7.8009  -14.6388   19.9440 C   0  0  0  0  0  0  0  0  0  0  0  0
    6.7598  -15.3268   19.7993 O   0  0  0  0  0  0  0  0  0  0  0  0
    8.1042  -14.5865   15.7782 O   0  0  0  0  0  0  0  0  0  0  0  0
   10.4362  -16.9940   21.4453 O   0  0  0  0  0  0  0  0  0  0  0  0
    9.0733  -17.2886   21.6064 C   0  0  0  0  0  0  0  0  0  0  0  0
    8.3680  -15.9824   21.9987 C   0  0  2  0  0  0  0  0  0  0  0  0
    8.6795  -14.9496   21.0312 N   0  0  0  0  0  0  0  0  0  0  0  0
    8.9408  -15.5851   23.3020 C   0  0  0  0  0  0  0  0  0  0  0  0
   10.0565  -15.0252   23.3304 O   0  0  0  0  0  0  0  0  0  0  0  0
    8.2598  -15.8215   24.5200 N   0  0  0  0  0  0  0  0  0  0  0  0
    8.9692  -15.4881   25.7726 C   0  0  1  0  0  0  0  0  0  0  0  0
    7.8935  -15.1745   26.7876 C   0  0  0  0  0  0  0  0  0  0  0  0
    7.3027  -13.8641   26.4976 C   0  0  0  0  0  0  0  0  0  0  0  0
    8.0454  -12.7263   26.7164 C   0  0  0  0  0  0  0  0  0  0  0  0
    7.5388  -11.4676   26.4339 C   0  0  0  0  0  0  0  0  0  0  0  0
    6.2623  -11.3805   25.9242 C   0  0  0  0  0  0  0  0  0  0  0  0
    5.4884  -12.4900   25.6913 C   0  0  0  0  0  0  0  0  0  0  0  0
    6.0353  -13.7445   25.9892 C   0  0  0  0  0  0  0  0  0  0  0  0
    9.7330  -16.6576   26.2202 C   0  0  0  0  0  0  0  0  0  0  0  0
    9.6509  -17.8349   25.5125 O   0  0  0  0  0  0  0  0  0  0  0  0
   10.4527  -16.5987   27.2299 O   0  0  0  0  0  0  0  0  0  0  0  0
  2  1  1  1
  2  3  1  0
  3  4  1  0
  4  8  1  0
  5  4  2  0
  6  2  1  0
  7  6  2  0
  9 10  1  0
 11 10  1  6
 11 13  1  0
 11 12  1  0
 12  6  1  0
 13 14  2  0
 15 16  1  0
 15 13  1  0
 16 17  1  1
 16 24  1  0
 17 18  1  0
 18 23  2  0
 19 20  2  0
 19 18  1  0
 20 21  1  0
 21 22  2  0
 23 22  1  0
 24 26  2  0
 24 25  1  0
M  END
$$$$
