DSF.pdb
     RDKit          3D

 26 26  0  0  1  0  0  0  0  0999 V2000
    9.7321  -13.2422   19.3111 N   0  0  0  0  0  0  0  0  0  0  0  0
    8.2765  -13.1144   19.2162 C   0  0  1  0  0  0  0  0  0  0  0  0
    7.8142  -13.4947   17.8259 C   0  0  0  0  0  0  0  0  0  0  0  0
    8.7317  -14.4612   17.2202 C   0  0  0  0  0  0  0  0  0  0  0  0
    9.3332  -15.2820   17.9581 O   0  0  0  0  0  0  0  0  0  0  0  0
    7.6608  -14.0850   20.1574 C   0  0  0  0  0  0  0  0  0  0  0  0
    6.4179  -14.0870   20.3401 O   0  0  0  0  0  0  0  0  0  0  0  0
    8.9352  -14.4730   15.8567 O   0  0  0  0  0  0  0  0  0  0  0  0
    9.4532  -17.4222   21.0259 O   0  0  0  0  0  0  0  0  0  0  0  0
    8.1729  -17.3479   21.5964 C   0  0  0  0  0  0  0  0  0  0  0  0
    7.9022  -15.8712   21.9180 C   0  0  2  0  0  0  0  0  0  0  0  0
    8.4583  -15.0341   20.8740 N   0  0  0  0  0  0  0  0  0  0  0  0
    8.6266  -15.5881   23.1748 C   0  0  0  0  0  0  0  0  0  0  0  0
    9.7988  -15.1616   23.1180 O   0  0  0  0  0  0  0  0  0  0  0  0
    8.0288  -15.7868   24.4421 N   0  0  0  0  0  0  0  0  0  0  0  0
    8.8874  -15.6223   25.6334 C   0  0  1  0  0  0  0  0  0  0  0  0
    7.9665  -15.1904   26.7519 C   0  0  0  0  0  0  0  0  0  0  0  0
    7.5234  -13.8108   26.5269 C   0  0  0  0  0  0  0  0  0  0  0  0
    6.1927  -13.5619   26.2792 C   0  0  0  0  0  0  0  0  0  0  0  0
    5.7229  -12.2725   26.0852 C   0  0  0  0  0  0  0  0  0  0  0  0
    6.6273  -11.2355   26.1466 C   0  0  0  0  0  0  0  0  0  0  0  0
    7.9623  -11.4403   26.3912 C   0  0  0  0  0  0  0  0  0  0  0  0
    8.3989  -12.7574   26.5822 C   0  0  0  0  0  0  0  0  0  0  0  0
    9.4923  -16.9143   25.9741 C   0  0  0  0  0  0  0  0  0  0  0  0
   10.4520  -16.9775   26.9583 O   0  0  0  0  0  0  0  0  0  0  0  0
    9.1492  -17.9521   25.3856 O   0  0  0  0  0  0  0  0  0  0  0  0
  2  1  1  6
  2  3  1  0
  3  4  1  0
  4  8  1  0
  5  4  2  0
  6  2  1  0
  7  6  2  0
  9 10  1  0
 11 10  1  6
 11 13  1  0
 11 12  1  0
 12  6  1  0
 13 14  2  0
 15 16  1  0
 15 13  1  0
 16 17  1  1
 16 24  1  0
 17 18  1  0
 18 23  2  0
 19 20  2  0
 19 18  1  0
 20 21  1  0
 21 22  2  0
 23 22  1  0
 24 26  2  0
 24 25  1  0
M  END
$$$$
