DSF.pdb
     RDKit          3D

 26 26  0  0  1  0  0  0  0  0999 V2000
    8.3360  -18.3256   18.9817 N   0  0  0  0  0  0  0  0  0  0  0  0
    8.3716  -16.9254   19.4084 C   0  0  1  0  0  0  0  0  0  0  0  0
    7.6751  -16.0554   18.3841 C   0  0  0  0  0  0  0  0  0  0  0  0
    8.4173  -16.0439   17.1224 C   0  0  0  0  0  0  0  0  0  0  0  0
    9.6513  -16.2829   17.1341 O   0  0  0  0  0  0  0  0  0  0  0  0
    7.6027  -16.8039   20.6737 C   0  0  0  0  0  0  0  0  0  0  0  0
    6.3963  -16.4541   20.6494 O   0  0  0  0  0  0  0  0  0  0  0  0
    7.7725  -15.7744   15.9340 O   0  0  0  0  0  0  0  0  0  0  0  0
    8.2759  -19.2746   23.6572 O   0  0  0  0  0  0  0  0  0  0  0  0
    7.0735  -18.5659   23.5090 C   0  0  0  0  0  0  0  0  0  0  0  0
    7.4391  -17.1140   23.1689 C   0  0  2  0  0  0  0  0  0  0  0  0
    8.2088  -17.0790   21.9415 N   0  0  0  0  0  0  0  0  0  0  0  0
    8.3026  -16.6418   24.2715 C   0  0  0  0  0  0  0  0  0  0  0  0
    9.5385  -16.5968   24.0993 O   0  0  0  0  0  0  0  0  0  0  0  0
    7.7679  -16.2389   25.5184 N   0  0  0  0  0  0  0  0  0  0  0  0
    8.7228  -15.8220   26.5661 C   0  0  1  0  0  0  0  0  0  0  0  0
    7.9239  -15.0000   27.5520 C   0  0  0  0  0  0  0  0  0  0  0  0
    7.4914  -13.7487   26.9213 C   0  0  0  0  0  0  0  0  0  0  0  0
    8.4040  -12.7346   26.7398 C   0  0  0  0  0  0  0  0  0  0  0  0
    8.0480  -11.5439   26.1263 C   0  0  0  0  0  0  0  0  0  0  0  0
    6.7472  -11.3972   25.6981 C   0  0  0  0  0  0  0  0  0  0  0  0
    5.8064  -12.3836   25.8596 C   0  0  0  0  0  0  0  0  0  0  0  0
    6.2043  -13.5726   26.4840 C   0  0  0  0  0  0  0  0  0  0  0  0
    9.2487  -17.0132   27.2411 C   0  0  0  0  0  0  0  0  0  0  0  0
   10.2810  -16.8844   28.1419 O   0  0  0  0  0  0  0  0  0  0  0  0
    8.7742  -18.1368   27.0098 O   0  0  0  0  0  0  0  0  0  0  0  0
  2  1  1  6
  2  3  1  0
  3  4  1  0
  4  8  1  0
  5  4  2  0
  6  2  1  0
  7  6  2  0
  9 10  1  0
 11 10  1  1
 11 13  1  0
 11 12  1  0
 12  6  1  0
 13 14  2  0
 15 16  1  0
 15 13  1  0
 16 17  1  1
 16 24  1  0
 17 18  1  0
 18 23  2  0
 19 20  2  0
 19 18  1  0
 20 21  1  0
 21 22  2  0
 23 22  1  0
 24 26  2  0
 24 25  1  0
M  END
$$$$
