DSF.pdb
     RDKit          3D

 26 26  0  0  1  0  0  0  0  0999 V2000
    8.6356  -15.4103   18.0968 N   0  0  0  0  0  0  0  0  0  0  0  0
    9.5340  -15.4112   19.2530 C   0  0  1  0  0  0  0  0  0  0  0  0
   10.3652  -14.1461   19.2623 C   0  0  0  0  0  0  0  0  0  0  0  0
   11.7911  -14.4613   19.1616 C   0  0  0  0  0  0  0  0  0  0  0  0
   12.1516  -15.6645   19.1115 O   0  0  0  0  0  0  0  0  0  0  0  0
    8.7065  -15.3942   20.4866 C   0  0  0  0  0  0  0  0  0  0  0  0
    7.8846  -14.4648   20.6839 O   0  0  0  0  0  0  0  0  0  0  0  0
   12.7295  -13.4521   19.1219 O   0  0  0  0  0  0  0  0  0  0  0  0
    8.4807  -18.8444   22.5915 O   0  0  0  0  0  0  0  0  0  0  0  0
    7.3593  -18.0010   22.6292 C   0  0  0  0  0  0  0  0  0  0  0  0
    7.8734  -16.5558   22.5616 C   0  0  2  0  0  0  0  0  0  0  0  0
    8.8217  -16.4253   21.4736 N   0  0  0  0  0  0  0  0  0  0  0  0
    8.5897  -16.3179   23.8323 C   0  0  0  0  0  0  0  0  0  0  0  0
    9.8361  -16.3891   23.8501 O   0  0  0  0  0  0  0  0  0  0  0  0
    7.9022  -16.0113   25.0307 N   0  0  0  0  0  0  0  0  0  0  0  0
    8.7155  -15.7833   26.2432 C   0  0  1  0  0  0  0  0  0  0  0  0
    7.7797  -15.1723   27.2614 C   0  0  0  0  0  0  0  0  0  0  0  0
    7.3081  -13.8683   26.7843 C   0  0  0  0  0  0  0  0  0  0  0  0
    5.9707  -13.5584   26.8809 C   0  0  0  0  0  0  0  0  0  0  0  0
    5.4823  -12.3294   26.4664 C   0  0  0  0  0  0  0  0  0  0  0  0
    6.3748  -11.4161   25.9503 C   0  0  0  0  0  0  0  0  0  0  0  0
    7.7160  -11.6852   25.8368 C   0  0  0  0  0  0  0  0  0  0  0  0
    8.1716  -12.9380   26.2666 C   0  0  0  0  0  0  0  0  0  0  0  0
    9.2047  -17.0717   26.7451 C   0  0  0  0  0  0  0  0  0  0  0  0
   10.1131  -17.0983   27.7785 O   0  0  0  0  0  0  0  0  0  0  0  0
    8.8095  -18.1389   26.2493 O   0  0  0  0  0  0  0  0  0  0  0  0
  2  1  1  6
  2  3  1  0
  3  4  1  0
  4  8  1  0
  5  4  2  0
  6  2  1  0
  7  6  2  0
  9 10  1  0
 11 10  1  1
 11 13  1  0
 11 12  1  0
 12  6  1  0
 13 14  2  0
 15 16  1  0
 15 13  1  0
 16 17  1  1
 16 24  1  0
 17 18  1  0
 18 23  2  0
 19 20  2  0
 19 18  1  0
 20 21  1  0
 21 22  2  0
 23 22  1  0
 24 26  2  0
 24 25  1  0
M  END
$$$$
