DSF.pdb
     RDKit          3D

 26 26  0  0  1  0  0  0  0  0999 V2000
   11.6583  -16.2314   19.0348 N   0  0  0  0  0  0  0  0  0  0  0  0
   11.4852  -17.1329   20.1755 C   0  0  1  0  0  0  0  0  0  0  0  0
   12.8246  -17.4066   20.8255 C   0  0  0  0  0  0  0  0  0  0  0  0
   13.6665  -18.2272   19.9534 C   0  0  0  0  0  0  0  0  0  0  0  0
   13.3943  -19.4457   19.8070 O   0  0  0  0  0  0  0  0  0  0  0  0
   10.6447  -16.4458   21.1895 C   0  0  0  0  0  0  0  0  0  0  0  0
   11.1199  -15.5039   21.8716 O   0  0  0  0  0  0  0  0  0  0  0  0
   14.7459  -17.6724   19.2992 O   0  0  0  0  0  0  0  0  0  0  0  0
    6.7780  -17.6288   21.5562 O   0  0  0  0  0  0  0  0  0  0  0  0
    6.9625  -16.2887   21.9307 C   0  0  0  0  0  0  0  0  0  0  0  0
    8.4308  -16.1308   22.3508 C   0  0  2  0  0  0  0  0  0  0  0  0
    9.2849  -16.8340   21.4147 N   0  0  0  0  0  0  0  0  0  0  0  0
    8.5503  -16.7860   23.6702 C   0  0  0  0  0  0  0  0  0  0  0  0
    9.2348  -17.8252   23.7731 O   0  0  0  0  0  0  0  0  0  0  0  0
    7.9103  -16.2685   24.8215 N   0  0  0  0  0  0  0  0  0  0  0  0
    8.0029  -17.0599   26.0659 C   0  0  1  0  0  0  0  0  0  0  0  0
    7.5300  -16.1468   27.1742 C   0  0  0  0  0  0  0  0  0  0  0  0
    8.5135  -15.0817   27.3951 C   0  0  0  0  0  0  0  0  0  0  0  0
    8.2341  -13.8056   26.9618 C   0  0  0  0  0  0  0  0  0  0  0  0
    9.1216  -12.7616   27.1699 C   0  0  0  0  0  0  0  0  0  0  0  0
   10.3013  -13.0330   27.8269 C   0  0  0  0  0  0  0  0  0  0  0  0
   10.6183  -14.2911   28.2752 C   0  0  0  0  0  0  0  0  0  0  0  0
    9.6960  -15.3199   28.0461 C   0  0  0  0  0  0  0  0  0  0  0  0
    7.1034  -18.2145   25.9712 C   0  0  0  0  0  0  0  0  0  0  0  0
    7.2686  -19.2774   26.8295 O   0  0  0  0  0  0  0  0  0  0  0  0
    6.1947  -18.2451   25.1261 O   0  0  0  0  0  0  0  0  0  0  0  0
  2  1  1  6
  2  3  1  0
  3  4  1  0
  4  8  1  0
  5  4  2  0
  6  2  1  0
  7  6  2  0
  9 10  1  0
 11 10  1  6
 11 13  1  0
 11 12  1  0
 12  6  1  0
 13 14  2  0
 15 16  1  0
 15 13  1  0
 16 17  1  1
 16 24  1  0
 17 18  1  0
 18 23  2  0
 19 20  2  0
 19 18  1  0
 20 21  1  0
 21 22  2  0
 23 22  1  0
 24 26  2  0
 24 25  1  0
M  END
$$$$
