DSF.pdb
     RDKit          3D

 26 26  0  0  1  0  0  0  0  0999 V2000
    9.1109  -15.8462   18.9654 N   0  0  0  0  0  0  0  0  0  0  0  0
    8.6233  -14.5938   19.5467 C   0  0  1  0  0  0  0  0  0  0  0  0
    7.7246  -13.8812   18.5589 C   0  0  0  0  0  0  0  0  0  0  0  0
    8.3292  -13.8644   17.2259 C   0  0  0  0  0  0  0  0  0  0  0  0
    9.4483  -14.4102   17.0526 O   0  0  0  0  0  0  0  0  0  0  0  0
    7.7890  -14.9232   20.7310 C   0  0  0  0  0  0  0  0  0  0  0  0
    6.8700  -14.1468   21.0926 O   0  0  0  0  0  0  0  0  0  0  0  0
    7.6809  -13.2576   16.1713 O   0  0  0  0  0  0  0  0  0  0  0  0
    8.1057  -18.6441   22.3968 O   0  0  0  0  0  0  0  0  0  0  0  0
    6.8826  -17.9834   22.5912 C   0  0  0  0  0  0  0  0  0  0  0  0
    7.1777  -16.4769   22.6181 C   0  0  2  0  0  0  0  0  0  0  0  0
    8.0071  -16.1214   21.4842 N   0  0  0  0  0  0  0  0  0  0  0  0
    7.9523  -16.2350   23.8534 C   0  0  0  0  0  0  0  0  0  0  0  0
    9.1828  -16.0397   23.7709 O   0  0  0  0  0  0  0  0  0  0  0  0
    7.3383  -16.2184   25.1284 N   0  0  0  0  0  0  0  0  0  0  0  0
    8.2148  -16.0371   26.3041 C   0  0  1  0  0  0  0  0  0  0  0  0
    7.3663  -15.3540   27.3526 C   0  0  0  0  0  0  0  0  0  0  0  0
    7.1628  -13.9480   26.9893 C   0  0  0  0  0  0  0  0  0  0  0  0
    8.2300  -13.0798   27.0298 C   0  0  0  0  0  0  0  0  0  0  0  0
    8.0918  -11.7481   26.6716 C   0  0  0  0  0  0  0  0  0  0  0  0
    6.8496  -11.3089   26.2701 C   0  0  0  0  0  0  0  0  0  0  0  0
    5.7598  -12.1417   26.2154 C   0  0  0  0  0  0  0  0  0  0  0  0
    5.9392  -13.4807   26.5850 C   0  0  0  0  0  0  0  0  0  0  0  0
    8.6344  -17.3520   26.8003 C   0  0  0  0  0  0  0  0  0  0  0  0
    9.6201  -17.4350   27.7570 O   0  0  0  0  0  0  0  0  0  0  0  0
    8.1113  -18.3914   26.3679 O   0  0  0  0  0  0  0  0  0  0  0  0
  2  1  1  6
  2  3  1  0
  3  4  1  0
  4  8  1  0
  5  4  2  0
  6  2  1  0
  7  6  2  0
  9 10  1  0
 11 10  1  6
 11 13  1  0
 11 12  1  0
 12  6  1  0
 13 14  2  0
 15 16  1  0
 15 13  1  0
 16 17  1  1
 16 24  1  0
 17 18  1  0
 18 23  2  0
 19 20  2  0
 19 18  1  0
 20 21  1  0
 21 22  2  0
 23 22  1  0
 24 26  2  0
 24 25  1  0
M  END
$$$$
