DSF.pdb
     RDKit          3D

 26 26  0  0  1  0  0  0  0  0999 V2000
    7.4264  -17.9538   18.2838 N   0  0  0  0  0  0  0  0  0  0  0  0
    8.1555  -18.4721   19.4430 C   0  0  1  0  0  0  0  0  0  0  0  0
    9.6457  -18.4181   19.1824 C   0  0  0  0  0  0  0  0  0  0  0  0
   10.0332  -19.4109   18.1789 C   0  0  0  0  0  0  0  0  0  0  0  0
    9.6102  -20.5897   18.2866 O   0  0  0  0  0  0  0  0  0  0  0  0
    7.8862  -17.5803   20.6002 C   0  0  0  0  0  0  0  0  0  0  0  0
    8.0347  -16.3379   20.4890 O   0  0  0  0  0  0  0  0  0  0  0  0
   10.8524  -19.0595   17.1272 O   0  0  0  0  0  0  0  0  0  0  0  0
    6.4994  -19.2715   24.0593 O   0  0  0  0  0  0  0  0  0  0  0  0
    5.9740  -17.9966   23.7971 C   0  0  0  0  0  0  0  0  0  0  0  0
    7.0017  -17.2483   22.9361 C   0  0  2  0  0  0  0  0  0  0  0  0
    7.4548  -18.1068   21.8601 N   0  0  0  0  0  0  0  0  0  0  0  0
    8.1510  -16.9697   23.8226 C   0  0  0  0  0  0  0  0  0  0  0  0
    9.1124  -17.7663   23.8399 O   0  0  0  0  0  0  0  0  0  0  0  0
    8.1928  -15.8246   24.6532 N   0  0  0  0  0  0  0  0  0  0  0  0
    9.4179  -15.6056   25.4498 C   0  0  1  0  0  0  0  0  0  0  0  0
    9.5893  -14.1064   25.5432 C   0  0  0  0  0  0  0  0  0  0  0  0
    8.3319  -13.4878   25.9752 C   0  0  0  0  0  0  0  0  0  0  0  0
    8.2097  -13.0433   27.2720 C   0  0  0  0  0  0  0  0  0  0  0  0
    7.0500  -12.4300   27.7191 C   0  0  0  0  0  0  0  0  0  0  0  0
    6.0123  -12.2739   26.8271 C   0  0  0  0  0  0  0  0  0  0  0  0
    6.0932  -12.7026   25.5256 C   0  0  0  0  0  0  0  0  0  0  0  0
    7.2814  -13.3176   25.1112 C   0  0  0  0  0  0  0  0  0  0  0  0
    9.2234  -16.1567   26.7951 C   0  0  0  0  0  0  0  0  0  0  0  0
   10.2764  -16.1760   27.6808 O   0  0  0  0  0  0  0  0  0  0  0  0
    8.1205  -16.6063   27.1449 O   0  0  0  0  0  0  0  0  0  0  0  0
  2  1  1  6
  2  3  1  0
  3  4  1  0
  4  8  1  0
  5  4  2  0
  6  2  1  0
  7  6  2  0
  9 10  1  0
 11 10  1  1
 11 13  1  0
 11 12  1  0
 12  6  1  0
 13 14  2  0
 15 16  1  0
 15 13  1  0
 16 17  1  1
 16 24  1  0
 17 18  1  0
 18 23  2  0
 19 20  2  0
 19 18  1  0
 20 21  1  0
 21 22  2  0
 23 22  1  0
 24 26  2  0
 24 25  1  0
M  END
$$$$
