SAD.pdb
     RDKit          3D

 20 19  0  0  1  0  0  0  0  0999 V2000
   15.1696  -14.0442  -16.5147 O   0  0  0  0  0  0  0  0  0  0  0  0
   16.1198  -13.1184  -16.1528 C   0  0  0  0  0  0  0  0  0  0  0  0
   17.4833  -13.8156  -16.2054 C   0  0  2  0  0  0  0  0  0  0  0  0
   17.5337  -14.8880  -15.2565 N   0  0  0  0  0  0  0  0  0  0  0  0
   18.5824  -12.8717  -15.9401 C   0  0  0  0  0  0  0  0  0  0  0  0
   18.7496  -12.4230  -14.7840 O   0  0  0  0  0  0  0  0  0  0  0  0
   21.3841  -11.4498  -17.9598 C   0  0  0  0  0  0  0  0  0  0  0  0
   20.4580  -11.4415  -16.7854 C   0  0  2  0  0  0  0  0  0  0  0  0
   19.4451  -12.4696  -16.9710 N   0  0  0  0  0  0  0  0  0  0  0  0
   19.8202  -10.1085  -16.5799 C   0  0  0  0  0  0  0  0  0  0  0  0
   18.6807   -9.9276  -17.0381 O   0  0  0  0  0  0  0  0  0  0  0  0
   20.4501   -9.0521  -15.8933 N   0  0  0  0  0  0  0  0  0  0  0  0
   19.8619   -7.7220  -15.7179 C   0  0  1  0  0  0  0  0  0  0  0  0
   18.6147   -7.7816  -14.9002 C   0  0  0  0  0  0  0  0  0  0  0  0
   18.0411   -6.4525  -14.6896 C   0  0  0  0  0  0  0  0  0  0  0  0
   18.0578   -5.9400  -13.5476 O   0  0  0  0  0  0  0  0  0  0  0  0
   20.8902   -6.8102  -15.1237 C   0  0  0  0  0  0  0  0  0  0  0  0
   22.1262   -7.3641  -14.8049 O   0  0  0  0  0  0  0  0  0  0  0  0
   17.4770   -5.7478  -15.7236 O   0  0  0  0  0  0  0  0  0  0  0  0
   20.7353   -5.5986  -14.8897 O   0  0  0  0  0  0  0  0  0  0  0  0
  2  1  1  0
  3  5  1  0
  3  2  1  0
  3  4  1  1
  5  6  2  0
  8  7  1  6
  9  8  1  0
  9  5  1  0
 10 11  2  0
 10  8  1  0
 12 10  1  0
 13 12  1  0
 13 17  1  0
 13 14  1  1
 15 16  2  0
 15 14  1  0
 17 18  1  0
 19 15  1  0
 20 17  2  0
M  END
$$$$
