SAD.pdb
     RDKit          3D

 20 19  0  0  1  0  0  0  0  0999 V2000
   17.7106   -8.8342  -17.4110 O   0  0  0  0  0  0  0  0  0  0  0  0
   18.2295  -10.0472  -17.7989 C   0  0  0  0  0  0  0  0  0  0  0  0
   18.5475  -10.8385  -16.5258 C   0  0  2  0  0  0  0  0  0  0  0  0
   17.3382  -11.2160  -15.8562 N   0  0  0  0  0  0  0  0  0  0  0  0
   19.3973  -10.0627  -15.6064 C   0  0  0  0  0  0  0  0  0  0  0  0
   18.9221   -9.6420  -14.5280 O   0  0  0  0  0  0  0  0  0  0  0  0
   23.0293   -9.4485  -15.2944 C   0  0  0  0  0  0  0  0  0  0  0  0
   21.6132   -9.0381  -15.0429 C   0  0  2  0  0  0  0  0  0  0  0  0
   20.7357   -9.7898  -15.9273 N   0  0  0  0  0  0  0  0  0  0  0  0
   21.4105   -7.5714  -15.2261 C   0  0  0  0  0  0  0  0  0  0  0  0
   22.0321   -6.7968  -14.4813 O   0  0  0  0  0  0  0  0  0  0  0  0
   20.5499   -7.0297  -16.2007 N   0  0  0  0  0  0  0  0  0  0  0  0
   20.4155   -5.5961  -16.4704 C   0  0  1  0  0  0  0  0  0  0  0  0
   20.2806   -5.3273  -17.9323 C   0  0  0  0  0  0  0  0  0  0  0  0
   21.5113   -5.6436  -18.6570 C   0  0  0  0  0  0  0  0  0  0  0  0
   22.5884   -5.0994  -18.3240 O   0  0  0  0  0  0  0  0  0  0  0  0
   19.2605   -5.0594  -15.6831 C   0  0  0  0  0  0  0  0  0  0  0  0
   18.4071   -5.9852  -15.0906 O   0  0  0  0  0  0  0  0  0  0  0  0
   21.5134   -6.5294  -19.7055 O   0  0  0  0  0  0  0  0  0  0  0  0
   18.9969   -3.8561  -15.5125 O   0  0  0  0  0  0  0  0  0  0  0  0
  2  1  1  0
  3  5  1  0
  3  2  1  0
  3  4  1  1
  5  6  2  0
  8  7  1  6
  9  8  1  0
  9  5  1  0
 10 11  2  0
 10  8  1  0
 12 10  1  0
 13 12  1  0
 13 17  1  0
 13 14  1  6
 15 16  2  0
 15 14  1  0
 17 18  1  0
 19 15  1  0
 20 17  2  0
M  END
$$$$
