SAD.pdb
     RDKit          3D

 20 19  0  0  1  0  0  0  0  0999 V2000
   16.9256   -9.3617  -16.9423 O   0  0  0  0  0  0  0  0  0  0  0  0
   17.5720  -10.3443  -17.6548 C   0  0  0  0  0  0  0  0  0  0  0  0
   18.3281  -11.2186  -16.6489 C   0  0  2  0  0  0  0  0  0  0  0  0
   17.4118  -11.8458  -15.7432 N   0  0  0  0  0  0  0  0  0  0  0  0
   19.3143  -10.4341  -15.8864 C   0  0  0  0  0  0  0  0  0  0  0  0
   18.9713   -9.8724  -14.8221 O   0  0  0  0  0  0  0  0  0  0  0  0
   22.9768   -9.7758  -16.2313 C   0  0  0  0  0  0  0  0  0  0  0  0
   21.6273   -9.5011  -15.6480 C   0  0  2  0  0  0  0  0  0  0  0  0
   20.6358  -10.3095  -16.3412 N   0  0  0  0  0  0  0  0  0  0  0  0
   21.2667   -8.0551  -15.7182 C   0  0  0  0  0  0  0  0  0  0  0  0
   20.5490   -7.6755  -16.6573 O   0  0  0  0  0  0  0  0  0  0  0  0
   21.7021   -7.1069  -14.7719 N   0  0  0  0  0  0  0  0  0  0  0  0
   21.3250   -5.6916  -14.7959 C   0  0  1  0  0  0  0  0  0  0  0  0
   19.8453   -5.5205  -14.7016 C   0  0  0  0  0  0  0  0  0  0  0  0
   19.4614   -4.1090  -14.7126 C   0  0  0  0  0  0  0  0  0  0  0  0
   20.1573   -3.2785  -15.3396 O   0  0  0  0  0  0  0  0  0  0  0  0
   22.0526   -4.9758  -13.7003 C   0  0  0  0  0  0  0  0  0  0  0  0
   21.9206   -3.5917  -13.6450 O   0  0  0  0  0  0  0  0  0  0  0  0
   18.3470   -3.6683  -14.0434 O   0  0  0  0  0  0  0  0  0  0  0  0
   22.7660   -5.5117  -12.8340 O   0  0  0  0  0  0  0  0  0  0  0  0
  2  1  1  0
  3  5  1  0
  3  2  1  0
  3  4  1  1
  5  6  2  0
  8  7  1  6
  9  8  1  0
  9  5  1  0
 10 11  2  0
 10  8  1  0
 12 10  1  0
 13 12  1  0
 13 17  1  0
 13 14  1  1
 15 16  2  0
 15 14  1  0
 17 18  1  0
 19 15  1  0
 20 17  2  0
M  END
$$$$
