SAD.pdb
     RDKit          3D

 20 19  0  0  1  0  0  0  0  0999 V2000
   18.7731  -11.7421  -19.6092 O   0  0  0  0  0  0  0  0  0  0  0  0
   19.0325  -10.9917  -18.4865 C   0  0  0  0  0  0  0  0  0  0  0  0
   19.5496  -11.9468  -17.4055 C   0  0  2  0  0  0  0  0  0  0  0  0
   18.4932  -12.7966  -16.9417 N   0  0  0  0  0  0  0  0  0  0  0  0
   20.1256  -11.2115  -16.2667 C   0  0  0  0  0  0  0  0  0  0  0  0
   19.3684  -10.6947  -15.4149 O   0  0  0  0  0  0  0  0  0  0  0  0
   23.5696  -10.6368  -14.9604 C   0  0  0  0  0  0  0  0  0  0  0  0
   22.1244  -10.2718  -15.0837 C   0  0  2  0  0  0  0  0  0  0  0  0
   21.5159  -11.0841  -16.1263 N   0  0  0  0  0  0  0  0  0  0  0  0
   21.9321   -8.8205  -15.3707 C   0  0  0  0  0  0  0  0  0  0  0  0
   21.6642   -8.4843  -16.5354 O   0  0  0  0  0  0  0  0  0  0  0  0
   22.0407   -7.8204  -14.3847 N   0  0  0  0  0  0  0  0  0  0  0  0
   21.8776   -6.3885  -14.6475 C   0  0  1  0  0  0  0  0  0  0  0  0
   20.5260   -6.0877  -15.2048 C   0  0  0  0  0  0  0  0  0  0  0  0
   20.3155   -4.6493  -15.3684 C   0  0  0  0  0  0  0  0  0  0  0  0
   21.2583   -3.9209  -15.7528 O   0  0  0  0  0  0  0  0  0  0  0  0
   22.1572   -5.6280  -13.3884 C   0  0  0  0  0  0  0  0  0  0  0  0
   22.3435   -6.3675  -12.2245 O   0  0  0  0  0  0  0  0  0  0  0  0
   19.0979   -4.0729  -15.1056 O   0  0  0  0  0  0  0  0  0  0  0  0
   22.2376   -4.3907  -13.2921 O   0  0  0  0  0  0  0  0  0  0  0  0
  2  1  1  0
  3  5  1  0
  3  2  1  0
  3  4  1  1
  5  6  2  0
  8  7  1  6
  9  8  1  0
  9  5  1  0
 10 11  2  0
 10  8  1  0
 12 10  1  0
 13 12  1  0
 13 17  1  0
 13 14  1  1
 15 16  2  0
 15 14  1  0
 17 18  1  0
 19 15  1  0
 20 17  2  0
M  END
$$$$
