SAD.pdb
     RDKit          3D

 20 19  0  0  1  0  0  0  0  0999 V2000
   17.7749  -10.7722  -17.9308 O   0  0  0  0  0  0  0  0  0  0  0  0
   18.9054  -11.4953  -18.2309 C   0  0  0  0  0  0  0  0  0  0  0  0
   19.3795  -12.1641  -16.9363 C   0  0  2  0  0  0  0  0  0  0  0  0
   18.2716  -12.7476  -16.2399 N   0  0  0  0  0  0  0  0  0  0  0  0
   20.0657  -11.2052  -16.0537 C   0  0  0  0  0  0  0  0  0  0  0  0
   19.4080  -10.5632  -15.2044 O   0  0  0  0  0  0  0  0  0  0  0  0
   23.6253  -10.2382  -15.4752 C   0  0  0  0  0  0  0  0  0  0  0  0
   22.1527   -9.9980  -15.3719 C   0  0  2  0  0  0  0  0  0  0  0  0
   21.4505  -11.0034  -16.1551 N   0  0  0  0  0  0  0  0  0  0  0  0
   21.7727   -8.6262  -15.8185 C   0  0  0  0  0  0  0  0  0  0  0  0
   21.5015   -8.4549  -17.0178 O   0  0  0  0  0  0  0  0  0  0  0  0
   21.7086   -7.5230  -14.9450 N   0  0  0  0  0  0  0  0  0  0  0  0
   21.2788   -6.1818  -15.3480 C   0  0  1  0  0  0  0  0  0  0  0  0
   20.5169   -5.5037  -14.2583 C   0  0  0  0  0  0  0  0  0  0  0  0
   20.1275   -4.1447  -14.6343 C   0  0  0  0  0  0  0  0  0  0  0  0
   19.5122   -3.9465  -15.7063 O   0  0  0  0  0  0  0  0  0  0  0  0
   22.4780   -5.3959  -15.7794 C   0  0  0  0  0  0  0  0  0  0  0  0
   23.7209   -5.8290  -15.3275 O   0  0  0  0  0  0  0  0  0  0  0  0
   20.4256   -3.0706  -13.8334 O   0  0  0  0  0  0  0  0  0  0  0  0
   22.4601   -4.3879  -16.5076 O   0  0  0  0  0  0  0  0  0  0  0  0
  2  1  1  0
  3  5  1  0
  3  2  1  0
  3  4  1  1
  5  6  2  0
  8  7  1  6
  9  8  1  0
  9  5  1  0
 10 11  2  0
 10  8  1  0
 12 10  1  0
 13 12  1  0
 13 17  1  0
 13 14  1  1
 15 16  2  0
 15 14  1  0
 17 18  1  0
 19 15  1  0
 20 17  2  0
M  END
$$$$
