SAD.pdb
     RDKit          3D

 20 19  0  0  1  0  0  0  0  0999 V2000
   15.2492  -11.6629  -17.6274 O   0  0  0  0  0  0  0  0  0  0  0  0
   15.5493  -11.1750  -16.3773 C   0  0  0  0  0  0  0  0  0  0  0  0
   16.9825  -11.6061  -16.0483 C   0  0  2  0  0  0  0  0  0  0  0  0
   17.0048  -12.9662  -15.5978 N   0  0  0  0  0  0  0  0  0  0  0  0
   17.5849  -10.7380  -15.0223 C   0  0  0  0  0  0  0  0  0  0  0  0
   17.3374  -10.9429  -13.8128 O   0  0  0  0  0  0  0  0  0  0  0  0
   20.2026   -8.0805  -15.0958 C   0  0  0  0  0  0  0  0  0  0  0  0
   19.1378   -8.8713  -14.4046 C   0  0  2  0  0  0  0  0  0  0  0  0
   18.4342   -9.6822  -15.3867 N   0  0  0  0  0  0  0  0  0  0  0  0
   18.1810   -8.0000  -13.6621 C   0  0  0  0  0  0  0  0  0  0  0  0
   17.1720   -7.5948  -14.2611 O   0  0  0  0  0  0  0  0  0  0  0  0
   18.3708   -7.6185  -12.3195 N   0  0  0  0  0  0  0  0  0  0  0  0
   17.4332   -6.7847  -11.5635 C   0  0  1  0  0  0  0  0  0  0  0  0
   17.5300   -7.0483  -10.0976 C   0  0  0  0  0  0  0  0  0  0  0  0
   16.6563   -6.1618   -9.3290 C   0  0  0  0  0  0  0  0  0  0  0  0
   15.7158   -5.5648   -9.9001 O   0  0  0  0  0  0  0  0  0  0  0  0
   17.6793   -5.3470  -11.9016 C   0  0  0  0  0  0  0  0  0  0  0  0
   16.6242   -4.4586  -11.7172 O   0  0  0  0  0  0  0  0  0  0  0  0
   16.8462   -5.9647   -7.9840 O   0  0  0  0  0  0  0  0  0  0  0  0
   18.7464   -4.8769  -12.3339 O   0  0  0  0  0  0  0  0  0  0  0  0
  2  1  1  0
  3  5  1  0
  3  2  1  0
  3  4  1  1
  5  6  2  0
  8  7  1  6
  9  8  1  0
  9  5  1  0
 10 11  2  0
 10  8  1  0
 12 10  1  0
 13 12  1  0
 13 17  1  0
 13 14  1  1
 15 16  2  0
 15 14  1  0
 17 18  1  0
 19 15  1  0
 20 17  2  0
M  END
$$$$
