SAD.pdb
     RDKit          3D

 20 19  0  0  1  0  0  0  0  0999 V2000
   16.3061  -10.2045  -17.6949 O   0  0  0  0  0  0  0  0  0  0  0  0
   16.6484   -9.4943  -16.5683 C   0  0  0  0  0  0  0  0  0  0  0  0
   17.3417  -10.4652  -15.6066 C   0  0  2  0  0  0  0  0  0  0  0  0
   16.4112  -10.9550  -14.6332 N   0  0  0  0  0  0  0  0  0  0  0  0
   18.4791   -9.8269  -14.9224 C   0  0  0  0  0  0  0  0  0  0  0  0
   18.2744   -9.1000  -13.9245 O   0  0  0  0  0  0  0  0  0  0  0  0
   22.1903   -9.8779  -15.3898 C   0  0  0  0  0  0  0  0  0  0  0  0
   20.9298   -9.3174  -14.8122 C   0  0  2  0  0  0  0  0  0  0  0  0
   19.7913  -10.0251  -15.3780 N   0  0  0  0  0  0  0  0  0  0  0  0
   20.8051   -7.8497  -15.0491 C   0  0  0  0  0  0  0  0  0  0  0  0
   20.1044   -7.4674  -15.9999 O   0  0  0  0  0  0  0  0  0  0  0  0
   21.4437   -6.8840  -14.2468 N   0  0  0  0  0  0  0  0  0  0  0  0
   21.3349   -5.4388  -14.4599 C   0  0  1  0  0  0  0  0  0  0  0  0
   19.9142   -4.9850  -14.4005 C   0  0  0  0  0  0  0  0  0  0  0  0
   19.7985   -3.5401  -14.5976 C   0  0  0  0  0  0  0  0  0  0  0  0
   20.7793   -2.8882  -15.0220 O   0  0  0  0  0  0  0  0  0  0  0  0
   22.2008   -4.7336  -13.4625 C   0  0  0  0  0  0  0  0  0  0  0  0
   22.6997   -3.4850  -13.8208 O   0  0  0  0  0  0  0  0  0  0  0  0
   18.6297   -2.8748  -14.3232 O   0  0  0  0  0  0  0  0  0  0  0  0
   22.5136   -5.1675  -12.3398 O   0  0  0  0  0  0  0  0  0  0  0  0
  2  1  1  0
  3  5  1  0
  3  2  1  0
  3  4  1  1
  5  6  2  0
  8  7  1  6
  9  8  1  0
  9  5  1  0
 10 11  2  0
 10  8  1  0
 12 10  1  0
 13 12  1  0
 13 17  1  0
 13 14  1  1
 15 16  2  0
 15 14  1  0
 17 18  1  0
 19 15  1  0
 20 17  2  0
M  END
$$$$
