SAD.pdb
     RDKit          3D

 20 19  0  0  1  0  0  0  0  0999 V2000
   15.4300  -12.6636  -10.3237 O   0  0  0  0  0  0  0  0  0  0  0  0
   15.7586  -11.4230  -10.8174 C   0  0  0  0  0  0  0  0  0  0  0  0
   14.7849  -10.4118  -10.2029 C   0  0  2  0  0  0  0  0  0  0  0  0
   13.4587  -10.6285  -10.7001 N   0  0  0  0  0  0  0  0  0  0  0  0
   15.1962   -9.0262  -10.4859 C   0  0  0  0  0  0  0  0  0  0  0  0
   15.0021   -8.5412  -11.6231 O   0  0  0  0  0  0  0  0  0  0  0  0
   16.3269   -6.1161   -8.5029 C   0  0  0  0  0  0  0  0  0  0  0  0
   16.3447   -6.9195   -9.7643 C   0  0  2  0  0  0  0  0  0  0  0  0
   15.8043   -8.2430   -9.4931 N   0  0  0  0  0  0  0  0  0  0  0  0
   17.7139   -7.0220  -10.3480 C   0  0  0  0  0  0  0  0  0  0  0  0
   18.4527   -7.9375   -9.9514 O   0  0  0  0  0  0  0  0  0  0  0  0
   18.2030   -6.1310  -11.3233 N   0  0  0  0  0  0  0  0  0  0  0  0
   19.4687   -6.3119  -12.0382 C   0  0  1  0  0  0  0  0  0  0  0  0
   19.5441   -7.6573  -12.6801 C   0  0  0  0  0  0  0  0  0  0  0  0
   20.7109   -7.7757  -13.5545 C   0  0  0  0  0  0  0  0  0  0  0  0
   21.8061   -7.2814  -13.2031 O   0  0  0  0  0  0  0  0  0  0  0  0
   19.6325   -5.1990  -13.0263 C   0  0  0  0  0  0  0  0  0  0  0  0
   20.8847   -4.5977  -13.1083 O   0  0  0  0  0  0  0  0  0  0  0  0
   20.6326   -8.4198  -14.7640 O   0  0  0  0  0  0  0  0  0  0  0  0
   18.7451   -4.7642  -13.7814 O   0  0  0  0  0  0  0  0  0  0  0  0
  2  1  1  0
  3  5  1  0
  3  2  1  0
  3  4  1  6
  5  6  2  0
  8  7  1  1
  9  8  1  0
  9  5  1  0
 10 11  2  0
 10  8  1  0
 12 10  1  0
 13 12  1  0
 13 17  1  0
 13 14  1  6
 15 16  2  0
 15 14  1  0
 17 18  1  0
 19 15  1  0
 20 17  2  0
M  END
$$$$
