SAD.pdb
     RDKit          3D

 20 19  0  0  1  0  0  0  0  0999 V2000
   15.0207   -6.1021   -7.2265 O   0  0  0  0  0  0  0  0  0  0  0  0
   15.8346   -6.0968   -8.3348 C   0  0  0  0  0  0  0  0  0  0  0  0
   15.0482   -6.7348   -9.4849 C   0  0  2  0  0  0  0  0  0  0  0  0
   14.8612   -8.1353   -9.2467 N   0  0  0  0  0  0  0  0  0  0  0  0
   15.7293   -6.5419  -10.7765 C   0  0  0  0  0  0  0  0  0  0  0  0
   16.4873   -7.4345  -11.2177 O   0  0  0  0  0  0  0  0  0  0  0  0
   15.6849   -3.8597  -13.3852 C   0  0  0  0  0  0  0  0  0  0  0  0
   16.2157   -5.1212  -12.7821 C   0  0  2  0  0  0  0  0  0  0  0  0
   15.5374   -5.3666  -11.5184 N   0  0  0  0  0  0  0  0  0  0  0  0
   17.6934   -5.0724  -12.5829 C   0  0  0  0  0  0  0  0  0  0  0  0
   18.1252   -4.6195  -11.5107 O   0  0  0  0  0  0  0  0  0  0  0  0
   18.6152   -5.5145  -13.5520 N   0  0  0  0  0  0  0  0  0  0  0  0
   20.0668   -5.5309  -13.3557 C   0  0  1  0  0  0  0  0  0  0  0  0
   20.6620   -6.8252  -13.8010 C   0  0  0  0  0  0  0  0  0  0  0  0
   22.1053   -6.8669  -13.5661 C   0  0  0  0  0  0  0  0  0  0  0  0
   22.6348   -6.0396  -12.7901 O   0  0  0  0  0  0  0  0  0  0  0  0
   20.6663   -4.3547  -14.0622 C   0  0  0  0  0  0  0  0  0  0  0  0
   21.7487   -3.7279  -13.4524 O   0  0  0  0  0  0  0  0  0  0  0  0
   22.9012   -7.7990  -14.1839 O   0  0  0  0  0  0  0  0  0  0  0  0
   20.2803   -3.8883  -15.1485 O   0  0  0  0  0  0  0  0  0  0  0  0
  2  1  1  0
  3  5  1  0
  3  2  1  0
  3  4  1  1
  5  6  2  0
  8  7  1  1
  9  8  1  0
  9  5  1  0
 10 11  2  0
 10  8  1  0
 12 10  1  0
 13 12  1  0
 13 17  1  0
 13 14  1  6
 15 16  2  0
 15 14  1  0
 17 18  1  0
 19 15  1  0
 20 17  2  0
M  END
$$$$
