SAD.pdb
     RDKit          3D

 20 19  0  0  1  0  0  0  0  0999 V2000
   18.3563  -13.5519  -18.0610 O   0  0  0  0  0  0  0  0  0  0  0  0
   19.6169  -13.7009  -17.5324 C   0  0  0  0  0  0  0  0  0  0  0  0
   19.7050  -12.8016  -16.2948 C   0  0  2  0  0  0  0  0  0  0  0  0
   18.5806  -13.0230  -15.4346 N   0  0  0  0  0  0  0  0  0  0  0  0
   19.7677  -11.3777  -16.6660 C   0  0  0  0  0  0  0  0  0  0  0  0
   20.7479  -10.9481  -17.3146 O   0  0  0  0  0  0  0  0  0  0  0  0
   17.3594   -8.5518  -16.6030 C   0  0  0  0  0  0  0  0  0  0  0  0
   18.7555   -9.0857  -16.6558 C   0  0  2  0  0  0  0  0  0  0  0  0
   18.7391  -10.4965  -16.2996 N   0  0  0  0  0  0  0  0  0  0  0  0
   19.6819   -8.3305  -15.7629 C   0  0  0  0  0  0  0  0  0  0  0  0
   19.8342   -8.7359  -14.5994 O   0  0  0  0  0  0  0  0  0  0  0  0
   20.3871   -7.1843  -16.1789 N   0  0  0  0  0  0  0  0  0  0  0  0
   21.3112   -6.4349  -15.3242 C   0  0  1  0  0  0  0  0  0  0  0  0
   22.0822   -5.4262  -16.1089 C   0  0  0  0  0  0  0  0  0  0  0  0
   23.0426   -4.7074  -15.2716 C   0  0  0  0  0  0  0  0  0  0  0  0
   23.6125   -3.6845  -15.7142 O   0  0  0  0  0  0  0  0  0  0  0  0
   20.5401   -5.8149  -14.2005 C   0  0  0  0  0  0  0  0  0  0  0  0
   20.9785   -6.0753  -12.9058 O   0  0  0  0  0  0  0  0  0  0  0  0
   23.3388   -5.1332  -14.0008 O   0  0  0  0  0  0  0  0  0  0  0  0
   19.5399   -5.0861  -14.3238 O   0  0  0  0  0  0  0  0  0  0  0  0
  2  1  1  0
  3  5  1  0
  3  2  1  0
  3  4  1  1
  5  6  2  0
  8  7  1  1
  9  8  1  0
  9  5  1  0
 10 11  2  0
 10  8  1  0
 12 10  1  0
 13 12  1  0
 13 17  1  0
 13 14  1  6
 15 16  2  0
 15 14  1  0
 17 18  1  0
 19 15  1  0
 20 17  2  0
M  END
$$$$
