SAD.pdb
     RDKit          3D

 20 19  0  0  1  0  0  0  0  0999 V2000
   17.9884  -10.8606  -18.6924 O   0  0  0  0  0  0  0  0  0  0  0  0
   18.5399  -10.3489  -17.5414 C   0  0  0  0  0  0  0  0  0  0  0  0
   19.3970  -11.4527  -16.9130 C   0  0  2  0  0  0  0  0  0  0  0  0
   18.6027  -12.6171  -16.6551 N   0  0  0  0  0  0  0  0  0  0  0  0
   20.0271  -10.9997  -15.6612 C   0  0  0  0  0  0  0  0  0  0  0  0
   19.3232  -10.8175  -14.6427 O   0  0  0  0  0  0  0  0  0  0  0  0
   23.5280  -10.5038  -14.4936 C   0  0  0  0  0  0  0  0  0  0  0  0
   22.0592  -10.2338  -14.4115 C   0  0  2  0  0  0  0  0  0  0  0  0
   21.4098  -10.7698  -15.5982 N   0  0  0  0  0  0  0  0  0  0  0  0
   21.7609   -8.7796  -14.2625 C   0  0  0  0  0  0  0  0  0  0  0  0
   22.1531   -8.2036  -13.2351 O   0  0  0  0  0  0  0  0  0  0  0  0
   21.0578   -8.0355  -15.2300 N   0  0  0  0  0  0  0  0  0  0  0  0
   20.6371   -6.6442  -15.0481 C   0  0  1  0  0  0  0  0  0  0  0  0
   21.3147   -5.7386  -16.0221 C   0  0  0  0  0  0  0  0  0  0  0  0
   20.8357   -4.3614  -15.9048 C   0  0  0  0  0  0  0  0  0  0  0  0
   20.1654   -3.8533  -16.8320 O   0  0  0  0  0  0  0  0  0  0  0  0
   19.1447   -6.5708  -15.1446 C   0  0  0  0  0  0  0  0  0  0  0  0
   18.5210   -5.4715  -14.5625 O   0  0  0  0  0  0  0  0  0  0  0  0
   21.1084   -3.6043  -14.7929 O   0  0  0  0  0  0  0  0  0  0  0  0
   18.4127   -7.4085  -15.7005 O   0  0  0  0  0  0  0  0  0  0  0  0
  2  1  1  0
  3  5  1  0
  3  2  1  0
  3  4  1  1
  5  6  2  0
  8  7  1  6
  9  8  1  0
  9  5  1  0
 10 11  2  0
 10  8  1  0
 12 10  1  0
 13 12  1  0
 13 17  1  0
 13 14  1  6
 15 16  2  0
 15 14  1  0
 17 18  1  0
 19 15  1  0
 20 17  2  0
M  END
$$$$
