SAD.pdb
     RDKit          3D

 20 19  0  0  1  0  0  0  0  0999 V2000
   26.1422  -13.3974  -17.1854 O   0  0  0  0  0  0  0  0  0  0  0  0
   25.6888  -12.1000  -17.1389 C   0  0  0  0  0  0  0  0  0  0  0  0
   26.9159  -11.1832  -17.1838 C   0  0  2  0  0  0  0  0  0  0  0  0
   27.8323  -11.5222  -16.1358 N   0  0  0  0  0  0  0  0  0  0  0  0
   26.5347   -9.7655  -17.0647 C   0  0  0  0  0  0  0  0  0  0  0  0
   26.3361   -9.2693  -15.9332 O   0  0  0  0  0  0  0  0  0  0  0  0
   26.0318   -6.9739  -19.5061 C   0  0  0  0  0  0  0  0  0  0  0  0
   25.9571   -7.5773  -18.1396 C   0  0  2  0  0  0  0  0  0  0  0  0
   26.3916   -8.9643  -18.2076 N   0  0  0  0  0  0  0  0  0  0  0  0
   24.5867   -7.4853  -17.5571 C   0  0  0  0  0  0  0  0  0  0  0  0
   23.7735   -8.3832  -17.8284 O   0  0  0  0  0  0  0  0  0  0  0  0
   24.1767   -6.4307  -16.7180 N   0  0  0  0  0  0  0  0  0  0  0  0
   22.8567   -6.3498  -16.0881 C   0  0  1  0  0  0  0  0  0  0  0  0
   22.5869   -7.5435  -15.2337 C   0  0  0  0  0  0  0  0  0  0  0  0
   21.2825   -7.4562  -14.5773 C   0  0  0  0  0  0  0  0  0  0  0  0
   20.3159   -6.9345  -15.1780 O   0  0  0  0  0  0  0  0  0  0  0  0
   22.7614   -5.0670  -15.3217 C   0  0  0  0  0  0  0  0  0  0  0  0
   21.5369   -4.7642  -14.7342 O   0  0  0  0  0  0  0  0  0  0  0  0
   21.0914   -7.9348  -13.3052 O   0  0  0  0  0  0  0  0  0  0  0  0
   23.6832   -4.2471  -15.1643 O   0  0  0  0  0  0  0  0  0  0  0  0
  2  1  1  0
  3  5  1  0
  3  2  1  0
  3  4  1  1
  5  6  2  0
  8  7  1  6
  9  8  1  0
  9  5  1  0
 10 11  2  0
 10  8  1  0
 12 10  1  0
 13 12  1  0
 13 17  1  0
 13 14  1  1
 15 16  2  0
 15 14  1  0
 17 18  1  0
 19 15  1  0
 20 17  2  0
M  END
$$$$
