SAD.pdb
     RDKit          3D

 20 19  0  0  1  0  0  0  0  0999 V2000
   17.6165  -11.5521  -18.6391 O   0  0  0  0  0  0  0  0  0  0  0  0
   18.3602  -10.6955  -17.8620 C   0  0  0  0  0  0  0  0  0  0  0  0
   18.8385  -11.4841  -16.6383 C   0  0  2  0  0  0  0  0  0  0  0  0
   17.7191  -11.9801  -15.8939 N   0  0  0  0  0  0  0  0  0  0  0  0
   19.6855  -10.6579  -15.7613 C   0  0  0  0  0  0  0  0  0  0  0  0
   19.1536   -9.8606  -14.9567 O   0  0  0  0  0  0  0  0  0  0  0  0
   23.3683  -10.3730  -15.1751 C   0  0  0  0  0  0  0  0  0  0  0  0
   21.9594   -9.8886  -15.0436 C   0  0  2  0  0  0  0  0  0  0  0  0
   21.0841  -10.7550  -15.8183 N   0  0  0  0  0  0  0  0  0  0  0  0
   21.8088   -8.4689  -15.4768 C   0  0  0  0  0  0  0  0  0  0  0  0
   21.4503   -8.2479  -16.6446 O   0  0  0  0  0  0  0  0  0  0  0  0
   22.0543   -7.3745  -14.6247 N   0  0  0  0  0  0  0  0  0  0  0  0
   21.8932   -5.9737  -15.0219 C   0  0  1  0  0  0  0  0  0  0  0  0
   20.4904   -5.6845  -15.4418 C   0  0  0  0  0  0  0  0  0  0  0  0
   20.2929   -4.2638  -15.7291 C   0  0  0  0  0  0  0  0  0  0  0  0
   21.2377   -3.5836  -16.1891 O   0  0  0  0  0  0  0  0  0  0  0  0
   22.3442   -5.0944  -13.8970 C   0  0  0  0  0  0  0  0  0  0  0  0
   22.3401   -3.7208  -14.1199 O   0  0  0  0  0  0  0  0  0  0  0  0
   19.0854   -3.6520  -15.5018 O   0  0  0  0  0  0  0  0  0  0  0  0
   22.7230   -5.4855  -12.7789 O   0  0  0  0  0  0  0  0  0  0  0  0
  2  1  1  0
  3  5  1  0
  3  2  1  0
  3  4  1  1
  5  6  2  0
  8  7  1  6
  9  8  1  0
  9  5  1  0
 10 11  2  0
 10  8  1  0
 12 10  1  0
 13 12  1  0
 13 17  1  0
 13 14  1  1
 15 16  2  0
 15 14  1  0
 17 18  1  0
 19 15  1  0
 20 17  2  0
M  END
$$$$
