SAD.pdb
     RDKit          3D

 20 19  0  0  1  0  0  0  0  0999 V2000
   23.7926  -10.0783  -19.2669 O   0  0  0  0  0  0  0  0  0  0  0  0
   23.0869   -9.0616  -18.6675 C   0  0  0  0  0  0  0  0  0  0  0  0
   21.8548   -9.6867  -18.0049 C   0  0  2  0  0  0  0  0  0  0  0  0
   20.8895  -10.0606  -18.9956 N   0  0  0  0  0  0  0  0  0  0  0  0
   21.2356   -8.7639  -17.0382 C   0  0  0  0  0  0  0  0  0  0  0  0
   20.2976   -8.0204  -17.4033 O   0  0  0  0  0  0  0  0  0  0  0  0
   21.5744   -8.1765  -13.3696 C   0  0  0  0  0  0  0  0  0  0  0  0
   21.1561   -7.7602  -14.7439 C   0  0  2  0  0  0  0  0  0  0  0  0
   21.6867   -8.7094  -15.7107 N   0  0  0  0  0  0  0  0  0  0  0  0
   21.5996   -6.3741  -15.0724 C   0  0  0  0  0  0  0  0  0  0  0  0
   22.6838   -6.2299  -15.6597 O   0  0  0  0  0  0  0  0  0  0  0  0
   20.8474   -5.2284  -14.7474 N   0  0  0  0  0  0  0  0  0  0  0  0
   21.2838   -3.8567  -15.0188 C   0  0  1  0  0  0  0  0  0  0  0  0
   20.1362   -2.9882  -15.4145 C   0  0  0  0  0  0  0  0  0  0  0  0
   20.5625   -1.6139  -15.6779 C   0  0  0  0  0  0  0  0  0  0  0  0
   21.1974   -1.3476  -16.7235 O   0  0  0  0  0  0  0  0  0  0  0  0
   22.0095   -3.3309  -13.8193 C   0  0  0  0  0  0  0  0  0  0  0  0
   22.8261   -2.2195  -14.0040 O   0  0  0  0  0  0  0  0  0  0  0  0
   20.2827   -0.5996  -14.7966 O   0  0  0  0  0  0  0  0  0  0  0  0
   21.9458   -3.8020  -12.6700 O   0  0  0  0  0  0  0  0  0  0  0  0
  2  1  1  0
  3  5  1  0
  3  2  1  0
  3  4  1  6
  5  6  2  0
  8  7  1  1
  9  8  1  0
  9  5  1  0
 10 11  2  0
 10  8  1  0
 12 10  1  0
 13 12  1  0
 13 17  1  0
 13 14  1  1
 15 16  2  0
 15 14  1  0
 17 18  1  0
 19 15  1  0
 20 17  2  0
M  END
$$$$
