SAD.pdb
     RDKit          3D

 20 19  0  0  1  0  0  0  0  0999 V2000
   27.5983  -21.9771  -19.4492 O   0  0  0  0  0  0  0  0  0  0  0  0
   26.9041  -21.6867  -18.2983 C   0  0  0  0  0  0  0  0  0  0  0  0
   27.8407  -21.9586  -17.1164 C   0  0  2  0  0  0  0  0  0  0  0  0
   28.0239  -23.3684  -16.9373 N   0  0  0  0  0  0  0  0  0  0  0  0
   27.3230  -21.3675  -15.8706 C   0  0  0  0  0  0  0  0  0  0  0  0
   26.8822  -22.1123  -14.9668 O   0  0  0  0  0  0  0  0  0  0  0  0
   27.3938  -17.9902  -14.3350 C   0  0  0  0  0  0  0  0  0  0  0  0
   26.7889  -19.3498  -14.4845 C   0  0  2  0  0  0  0  0  0  0  0  0
   27.3184  -19.9766  -15.6862 N   0  0  0  0  0  0  0  0  0  0  0  0
   25.2985  -19.3015  -14.5319 C   0  0  0  0  0  0  0  0  0  0  0  0
   24.6924  -18.9211  -13.5174 O   0  0  0  0  0  0  0  0  0  0  0  0
   24.5528  -19.6665  -15.6698 N   0  0  0  0  0  0  0  0  0  0  0  0
   23.0971  -19.5378  -15.7723 C   0  0  1  0  0  0  0  0  0  0  0  0
   22.7041  -18.7392  -16.9704 C   0  0  0  0  0  0  0  0  0  0  0  0
   23.1600  -17.3528  -16.8707 C   0  0  0  0  0  0  0  0  0  0  0  0
   24.1791  -16.9849  -17.4978 O   0  0  0  0  0  0  0  0  0  0  0  0
   22.4869  -20.9051  -15.7733 C   0  0  0  0  0  0  0  0  0  0  0  0
   21.1001  -20.9849  -15.6908 O   0  0  0  0  0  0  0  0  0  0  0  0
   22.4923  -16.4370  -16.0964 O   0  0  0  0  0  0  0  0  0  0  0  0
   23.1128  -21.9777  -15.8414 O   0  0  0  0  0  0  0  0  0  0  0  0
  2  1  1  0
  3  5  1  0
  3  2  1  0
  3  4  1  1
  5  6  2  0
  8  7  1  6
  9  8  1  0
  9  5  1  0
 10 11  2  0
 10  8  1  0
 12 10  1  0
 13 12  1  0
 13 17  1  0
 13 14  1  6
 15 16  2  0
 15 14  1  0
 17 18  1  0
 19 15  1  0
 20 17  2  0
M  END
$$$$
