QNW.pdb
     RDKit          3D

 32 33  0  0  1  0  0  0  0  0999 V2000
    5.1737  -18.6671   19.3747 N   0  0  0  0  0  0  0  0  0  0  0  0
    6.2652  -18.1489   18.6550 C   0  0  0  0  0  0  0  0  0  0  0  0
    6.4437  -18.5184   17.4653 O   0  0  0  0  0  0  0  0  0  0  0  0
    7.1796  -17.1919   19.2866 C   0  0  0  0  0  0  0  0  0  0  0  0
    6.7003  -16.7946   20.6773 C   0  0  0  0  0  0  0  0  0  0  0  0
    7.7467  -15.8436   21.2608 C   0  0  2  0  0  0  0  0  0  0  0  0
    8.6440  -15.5103   20.1808 N   0  0  0  0  0  0  0  0  0  0  0  0
    8.5054  -16.5621   22.3018 C   0  0  0  0  0  0  0  0  0  0  0  0
    7.8138  -17.1808   23.1802 O   0  0  0  0  0  0  0  0  0  0  0  0
   12.8566  -16.4200   21.0213 N   0  0  0  0  0  0  0  0  0  0  0  0
   12.8107  -16.7067   22.4031 C   0  0  0  0  0  0  0  0  0  0  0  0
   13.5256  -15.9958   23.1539 O   0  0  0  0  0  0  0  0  0  0  0  0
   11.9768  -17.7806   22.9799 C   0  0  0  0  0  0  0  0  0  0  0  0
   10.5987  -17.3271   23.3793 C   0  0  2  0  0  0  0  0  0  0  0  0
    9.9185  -16.5761   22.3411 N   0  0  0  0  0  0  0  0  0  0  0  0
   10.7036  -16.4740   24.5898 C   0  0  0  0  0  0  0  0  0  0  0  0
   11.4539  -15.4900   24.6483 O   0  0  0  0  0  0  0  0  0  0  0  0
    9.9321  -16.7465   25.7718 N   0  0  0  0  0  0  0  0  0  0  0  0
   10.2629  -16.2193   27.0660 C   0  0  1  0  0  0  0  0  0  0  0  0
    9.1361  -15.5227   27.7522 C   0  0  0  0  0  0  0  0  0  0  0  0
    8.0828  -15.0260   26.8691 C   0  0  0  0  0  0  0  0  0  0  0  0
    7.1688  -15.8228   26.1919 C   0  0  0  0  0  0  0  0  0  0  0  0
    6.3275  -15.0699   25.4642 N   0  0  0  0  0  0  0  0  0  0  0  0
    6.6764  -13.7710   25.6529 C   0  0  0  0  0  0  0  0  0  0  0  0
    6.1928  -12.5708   25.1806 C   0  0  0  0  0  0  0  0  0  0  0  0
    6.7471  -11.3434   25.5389 C   0  0  0  0  0  0  0  0  0  0  0  0
    7.8206  -11.3646   26.4015 C   0  0  0  0  0  0  0  0  0  0  0  0
    8.3387  -12.5343   26.8993 C   0  0  0  0  0  0  0  0  0  0  0  0
    7.7534  -13.7306   26.5140 C   0  0  0  0  0  0  0  0  0  0  0  0
   10.6783  -17.4018   27.8834 C   0  0  0  0  0  0  0  0  0  0  0  0
   10.5416  -18.5486   27.3796 O   0  0  0  0  0  0  0  0  0  0  0  0
   11.2023  -17.3150   29.1562 O   0  0  0  0  0  0  0  0  0  0  0  0
  1  2  1  0
  2  3  2  0
  2  4  1  0
  4  5  1  0
  6  5  1  0
  6  7  1  6
  8  9  2  0
  8  6  1  0
 11 10  1  0
 11 13  1  0
 12 11  2  0
 14 13  1  6
 14 15  1  0
 15  8  1  0
 16 14  1  0
 16 18  1  0
 17 16  2  0
 19 18  1  0
 19 30  1  0
 19 20  1  1
 21 20  1  0
 21 29  1  0
 22 21  2  0
 23 22  1  0
 23 24  1  0
 24 25  1  0
 24 29  2  0
 25 26  2  0
 26 27  1  0
 28 27  2  0
 29 28  1  0
 30 31  2  0
 30 32  1  0
M  END
$$$$
