QNW.pdb
     RDKit          3D

 32 33  0  0  1  0  0  0  0  0999 V2000
   12.3951  -16.7469   16.4502 N   0  0  0  0  0  0  0  0  0  0  0  0
   12.0823  -18.1104   16.5948 C   0  0  0  0  0  0  0  0  0  0  0  0
   12.6642  -18.9520   15.8621 O   0  0  0  0  0  0  0  0  0  0  0  0
   11.0914  -18.5402   17.5869 C   0  0  0  0  0  0  0  0  0  0  0  0
   10.4534  -17.3498   18.2922 C   0  0  0  0  0  0  0  0  0  0  0  0
   10.4486  -17.6618   19.7897 C   0  0  2  0  0  0  0  0  0  0  0  0
    9.6353  -18.8419   19.9591 N   0  0  0  0  0  0  0  0  0  0  0  0
    9.8082  -16.5396   20.5011 C   0  0  0  0  0  0  0  0  0  0  0  0
   10.3476  -15.3915   20.3481 O   0  0  0  0  0  0  0  0  0  0  0  0
    7.0304  -18.0003   23.0010 N   0  0  0  0  0  0  0  0  0  0  0  0
    6.1242  -17.0000   22.5863 C   0  0  0  0  0  0  0  0  0  0  0  0
    4.9003  -17.2757   22.6645 O   0  0  0  0  0  0  0  0  0  0  0  0
    6.5515  -15.6803   22.0791 C   0  0  0  0  0  0  0  0  0  0  0  0
    8.0423  -15.5465   21.9236 C   0  0  2  0  0  0  0  0  0  0  0  0
    8.6617  -16.7066   21.3112 N   0  0  0  0  0  0  0  0  0  0  0  0
    8.6498  -15.3360   23.2617 C   0  0  0  0  0  0  0  0  0  0  0  0
    8.5968  -14.2492   23.8539 O   0  0  0  0  0  0  0  0  0  0  0  0
    9.3396  -16.3930   23.9498 N   0  0  0  0  0  0  0  0  0  0  0  0
   10.3624  -16.1573   24.9299 C   0  0  1  0  0  0  0  0  0  0  0  0
    9.9065  -15.3816   26.1199 C   0  0  0  0  0  0  0  0  0  0  0  0
    8.5110  -14.9486   26.0818 C   0  0  0  0  0  0  0  0  0  0  0  0
    7.4163  -15.7962   25.9716 C   0  0  0  0  0  0  0  0  0  0  0  0
    6.2700  -15.0958   25.9664 N   0  0  0  0  0  0  0  0  0  0  0  0
    6.5954  -13.7814   26.0727 C   0  0  0  0  0  0  0  0  0  0  0  0
    5.8650  -12.6146   26.1191 C   0  0  0  0  0  0  0  0  0  0  0  0
    6.4595  -11.3593   26.2339 C   0  0  0  0  0  0  0  0  0  0  0  0
    7.8345  -11.3172   26.3014 C   0  0  0  0  0  0  0  0  0  0  0  0
    8.6062  -12.4517   26.2591 C   0  0  0  0  0  0  0  0  0  0  0  0
    7.9691  -13.6778   26.1444 C   0  0  0  0  0  0  0  0  0  0  0  0
   10.8103  -17.5149   25.3724 C   0  0  0  0  0  0  0  0  0  0  0  0
   10.2397  -18.5203   24.8713 O   0  0  0  0  0  0  0  0  0  0  0  0
   11.8104  -17.7350   26.2962 O   0  0  0  0  0  0  0  0  0  0  0  0
  1  2  1  0
  2  3  2  0
  2  4  1  0
  4  5  1  0
  6  5  1  0
  6  7  1  6
  8  9  2  0
  8  6  1  0
 11 10  1  0
 11 13  1  0
 12 11  2  0
 14 13  1  1
 14 15  1  0
 15  8  1  0
 16 14  1  0
 16 18  1  0
 17 16  2  0
 19 18  1  0
 19 30  1  0
 19 20  1  1
 21 20  1  0
 21 29  1  0
 22 21  2  0
 23 22  1  0
 23 24  1  0
 24 25  1  0
 24 29  2  0
 25 26  2  0
 26 27  1  0
 28 27  2  0
 29 28  1  0
 30 31  2  0
 30 32  1  0
M  END
$$$$
