QNW.pdb
     RDKit          3D

 32 33  0  0  1  0  0  0  0  0999 V2000
   14.8953  -13.4123   20.4015 N   0  0  0  0  0  0  0  0  0  0  0  0
   14.4806  -13.6911   19.0869 C   0  0  0  0  0  0  0  0  0  0  0  0
   14.7407  -12.8632   18.1754 O   0  0  0  0  0  0  0  0  0  0  0  0
   13.7555  -14.9303   18.7876 C   0  0  0  0  0  0  0  0  0  0  0  0
   12.3437  -14.9044   19.3601 C   0  0  0  0  0  0  0  0  0  0  0  0
   11.6745  -16.2236   18.9708 C   0  0  2  0  0  0  0  0  0  0  0  0
   10.9488  -15.9695   17.7496 N   0  0  0  0  0  0  0  0  0  0  0  0
   10.7114  -16.5908   20.0259 C   0  0  0  0  0  0  0  0  0  0  0  0
    9.5367  -16.1004   19.9149 O   0  0  0  0  0  0  0  0  0  0  0  0
   11.3144  -20.4959   24.0822 N   0  0  0  0  0  0  0  0  0  0  0  0
   11.1586  -19.8481   22.8372 C   0  0  0  0  0  0  0  0  0  0  0  0
   12.1521  -19.8529   22.0671 O   0  0  0  0  0  0  0  0  0  0  0  0
    9.9064  -19.1850   22.4206 C   0  0  0  0  0  0  0  0  0  0  0  0
   10.0666  -17.7164   22.1344 C   0  0  2  0  0  0  0  0  0  0  0  0
   11.0515  -17.4363   21.1067 N   0  0  0  0  0  0  0  0  0  0  0  0
   10.4740  -17.0234   23.3825 C   0  0  0  0  0  0  0  0  0  0  0  0
   11.3395  -16.1372   23.4003 O   0  0  0  0  0  0  0  0  0  0  0  0
    9.8800  -17.3464   24.6510 N   0  0  0  0  0  0  0  0  0  0  0  0
   10.2663  -16.7183   25.8834 C   0  0  1  0  0  0  0  0  0  0  0  0
   10.0305  -15.2458   25.9231 C   0  0  0  0  0  0  0  0  0  0  0  0
    8.6403  -14.8340   25.7383 C   0  0  0  0  0  0  0  0  0  0  0  0
    7.5936  -15.6859   25.4105 C   0  0  0  0  0  0  0  0  0  0  0  0
    6.4386  -15.0068   25.3146 N   0  0  0  0  0  0  0  0  0  0  0  0
    6.7102  -13.7023   25.5775 C   0  0  0  0  0  0  0  0  0  0  0  0
    5.9475  -12.5565   25.6285 C   0  0  0  0  0  0  0  0  0  0  0  0
    6.4864  -11.3072   25.9303 C   0  0  0  0  0  0  0  0  0  0  0  0
    7.8391  -11.2488   26.1829 C   0  0  0  0  0  0  0  0  0  0  0  0
    8.6413  -12.3621   26.1443 C   0  0  0  0  0  0  0  0  0  0  0  0
    8.0593  -13.5830   25.8394 C   0  0  0  0  0  0  0  0  0  0  0  0
    9.4380  -17.3758   26.9421 C   0  0  0  0  0  0  0  0  0  0  0  0
    9.6108  -17.0179   28.1378 O   0  0  0  0  0  0  0  0  0  0  0  0
    8.4955  -18.3508   26.6908 O   0  0  0  0  0  0  0  0  0  0  0  0
  1  2  1  0
  2  3  2  0
  2  4  1  0
  4  5  1  0
  6  5  1  0
  6  7  1  6
  8  9  2  0
  8  6  1  0
 11 10  1  0
 11 13  1  0
 12 11  2  0
 14 13  1  1
 14 15  1  0
 15  8  1  0
 16 14  1  0
 16 18  1  0
 17 16  2  0
 19 18  1  0
 19 30  1  0
 19 20  1  6
 21 20  1  0
 21 29  1  0
 22 21  2  0
 23 22  1  0
 23 24  1  0
 24 25  1  0
 24 29  2  0
 25 26  2  0
 26 27  1  0
 28 27  2  0
 29 28  1  0
 30 31  2  0
 30 32  1  0
M  END
$$$$
