QNW.pdb
     RDKit          3D

 32 33  0  0  1  0  0  0  0  0999 V2000
    9.9034  -18.5595   17.4601 N   0  0  0  0  0  0  0  0  0  0  0  0
   10.1508  -19.8523   17.9555 C   0  0  0  0  0  0  0  0  0  0  0  0
    9.5909  -20.8355   17.4043 O   0  0  0  0  0  0  0  0  0  0  0  0
   11.0492  -20.0466   19.0983 C   0  0  0  0  0  0  0  0  0  0  0  0
   11.7133  -18.7404   19.5160 C   0  0  0  0  0  0  0  0  0  0  0  0
   11.5793  -18.6319   21.0359 C   0  0  2  0  0  0  0  0  0  0  0  0
   10.4825  -19.4910   21.4123 N   0  0  0  0  0  0  0  0  0  0  0  0
   11.2294  -17.2404   21.3781 C   0  0  0  0  0  0  0  0  0  0  0  0
   12.1147  -16.3554   21.1222 O   0  0  0  0  0  0  0  0  0  0  0  0
    7.4776  -17.2638   22.5706 N   0  0  0  0  0  0  0  0  0  0  0  0
    7.3042  -16.0318   21.9029 C   0  0  0  0  0  0  0  0  0  0  0  0
    6.1693  -15.8082   21.4108 O   0  0  0  0  0  0  0  0  0  0  0  0
    8.3777  -15.0266   21.7666 C   0  0  0  0  0  0  0  0  0  0  0  0
    9.7146  -15.4981   22.2714 C   0  0  2  0  0  0  0  0  0  0  0  0
    9.9890  -16.8876   21.9573 N   0  0  0  0  0  0  0  0  0  0  0  0
    9.7611  -15.3274   23.7454 C   0  0  0  0  0  0  0  0  0  0  0  0
    9.6771  -14.2181   24.2905 O   0  0  0  0  0  0  0  0  0  0  0  0
    9.9076  -16.4518   24.6290 N   0  0  0  0  0  0  0  0  0  0  0  0
   10.1299  -16.3185   26.0415 C   0  0  1  0  0  0  0  0  0  0  0  0
    8.8867  -16.3537   26.8655 C   0  0  0  0  0  0  0  0  0  0  0  0
    7.7830  -15.5398   26.3598 C   0  0  0  0  0  0  0  0  0  0  0  0
    6.6555  -16.0360   25.7183 C   0  0  0  0  0  0  0  0  0  0  0  0
    5.8238  -15.0380   25.3765 N   0  0  0  0  0  0  0  0  0  0  0  0
    6.3924  -13.8752   25.7879 C   0  0  0  0  0  0  0  0  0  0  0  0
    6.0208  -12.5506   25.7197 C   0  0  0  0  0  0  0  0  0  0  0  0
    6.8078  -11.5214   26.2330 C   0  0  0  0  0  0  0  0  0  0  0  0
    7.9994  -11.8753   26.8264 C   0  0  0  0  0  0  0  0  0  0  0  0
    8.4135  -13.1808   26.9189 C   0  0  0  0  0  0  0  0  0  0  0  0
    7.5963  -14.1699   26.3935 C   0  0  0  0  0  0  0  0  0  0  0  0
   11.0003  -17.4758   26.4186 C   0  0  0  0  0  0  0  0  0  0  0  0
   11.3623  -17.5787   27.6211 O   0  0  0  0  0  0  0  0  0  0  0  0
   11.4321  -18.4388   25.5307 O   0  0  0  0  0  0  0  0  0  0  0  0
  1  2  1  0
  2  3  2  0
  2  4  1  0
  4  5  1  0
  6  5  1  0
  6  7  1  6
  8  9  2  0
  8  6  1  0
 11 10  1  0
 11 13  1  0
 12 11  2  0
 14 13  1  1
 14 15  1  0
 15  8  1  0
 16 14  1  0
 16 18  1  0
 17 16  2  0
 19 18  1  0
 19 30  1  0
 19 20  1  1
 21 20  1  0
 21 29  1  0
 22 21  2  0
 23 22  1  0
 23 24  1  0
 24 25  1  0
 24 29  2  0
 25 26  2  0
 26 27  1  0
 28 27  2  0
 29 28  1  0
 30 31  2  0
 30 32  1  0
M  END
$$$$
