QNW.pdb
     RDKit          3D

 32 33  0  0  1  0  0  0  0  0999 V2000
   14.1458  -13.0430   19.1641 N   0  0  0  0  0  0  0  0  0  0  0  0
   14.5630  -14.2044   18.4894 C   0  0  0  0  0  0  0  0  0  0  0  0
   15.6545  -14.1886   17.8631 O   0  0  0  0  0  0  0  0  0  0  0  0
   13.7342  -15.4140   18.5183 C   0  0  0  0  0  0  0  0  0  0  0  0
   12.4709  -15.2068   19.3446 C   0  0  0  0  0  0  0  0  0  0  0  0
   11.6627  -16.5032   19.2664 C   0  0  2  0  0  0  0  0  0  0  0  0
   11.0197  -16.5071   17.9744 N   0  0  0  0  0  0  0  0  0  0  0  0
   10.6232  -16.4721   20.3123 C   0  0  0  0  0  0  0  0  0  0  0  0
    9.8208  -15.4782   20.2829 O   0  0  0  0  0  0  0  0  0  0  0  0
    8.9208  -19.0280   20.2528 N   0  0  0  0  0  0  0  0  0  0  0  0
    8.4427  -19.3150   21.5500 C   0  0  0  0  0  0  0  0  0  0  0  0
    7.6983  -20.3207   21.6705 O   0  0  0  0  0  0  0  0  0  0  0  0
    8.7767  -18.4990   22.7350 C   0  0  0  0  0  0  0  0  0  0  0  0
    9.6018  -17.2814   22.4171 C   0  0  2  0  0  0  0  0  0  0  0  0
   10.5064  -17.4769   21.2999 N   0  0  0  0  0  0  0  0  0  0  0  0
   10.3995  -16.9135   23.6139 C   0  0  0  0  0  0  0  0  0  0  0  0
   11.4301  -17.5188   23.9394 O   0  0  0  0  0  0  0  0  0  0  0  0
   10.0151  -15.8233   24.4686 N   0  0  0  0  0  0  0  0  0  0  0  0
    9.9919  -15.9175   25.9014 C   0  0  1  0  0  0  0  0  0  0  0  0
    8.6528  -16.2398   26.4745 C   0  0  0  0  0  0  0  0  0  0  0  0
    7.6050  -15.2600   26.1944 C   0  0  0  0  0  0  0  0  0  0  0  0
    6.3005  -15.5696   25.8324 C   0  0  0  0  0  0  0  0  0  0  0  0
    5.5795  -14.4516   25.6462 N   0  0  0  0  0  0  0  0  0  0  0  0
    6.3987  -13.3945   25.8829 C   0  0  0  0  0  0  0  0  0  0  0  0
    6.2321  -12.0276   25.8516 C   0  0  0  0  0  0  0  0  0  0  0  0
    7.2635  -11.1374   26.1446 C   0  0  0  0  0  0  0  0  0  0  0  0
    8.4868  -11.6771   26.4751 C   0  0  0  0  0  0  0  0  0  0  0  0
    8.7028  -13.0320   26.5200 C   0  0  0  0  0  0  0  0  0  0  0  0
    7.6459  -13.8778   26.2205 C   0  0  0  0  0  0  0  0  0  0  0  0
   10.9485  -17.0162   26.2438 C   0  0  0  0  0  0  0  0  0  0  0  0
   11.1754  -17.2469   27.4615 O   0  0  0  0  0  0  0  0  0  0  0  0
   11.5986  -17.7935   25.3082 O   0  0  0  0  0  0  0  0  0  0  0  0
  1  2  1  0
  2  3  2  0
  2  4  1  0
  4  5  1  0
  6  5  1  0
  6  7  1  6
  8  9  2  0
  8  6  1  0
 11 10  1  0
 11 13  1  0
 12 11  2  0
 14 13  1  1
 14 15  1  0
 15  8  1  0
 16 14  1  0
 16 18  1  0
 17 16  2  0
 19 18  1  0
 19 30  1  0
 19 20  1  6
 21 20  1  0
 21 29  1  0
 22 21  2  0
 23 22  1  0
 23 24  1  0
 24 25  1  0
 24 29  2  0
 25 26  2  0
 26 27  1  0
 28 27  2  0
 29 28  1  0
 30 31  2  0
 30 32  1  0
M  END
$$$$
