QNW.pdb
     RDKit          3D

 32 33  0  0  1  0  0  0  0  0999 V2000
   13.9026  -19.0190   17.8778 N   0  0  0  0  0  0  0  0  0  0  0  0
   12.7095  -19.2626   18.5814 C   0  0  0  0  0  0  0  0  0  0  0  0
   11.6174  -19.2484   17.9561 O   0  0  0  0  0  0  0  0  0  0  0  0
   12.7429  -19.5288   20.0232 C   0  0  0  0  0  0  0  0  0  0  0  0
   13.3052  -18.3434   20.7979 C   0  0  0  0  0  0  0  0  0  0  0  0
   12.6476  -18.3538   22.1789 C   0  0  2  0  0  0  0  0  0  0  0  0
   11.6988  -19.4412   22.1721 N   0  0  0  0  0  0  0  0  0  0  0  0
   11.9140  -17.0869   22.3591 C   0  0  0  0  0  0  0  0  0  0  0  0
   12.6109  -16.0173   22.3059 O   0  0  0  0  0  0  0  0  0  0  0  0
    8.0483  -17.9116   23.3334 N   0  0  0  0  0  0  0  0  0  0  0  0
    7.6595  -16.8639   22.4703 C   0  0  0  0  0  0  0  0  0  0  0  0
    6.5421  -16.9790   21.9061 O   0  0  0  0  0  0  0  0  0  0  0  0
    8.4948  -15.6729   22.2151 C   0  0  0  0  0  0  0  0  0  0  0  0
    9.8728  -15.7618   22.8132 C   0  0  2  0  0  0  0  0  0  0  0  0
   10.5183  -17.0399   22.5794 N   0  0  0  0  0  0  0  0  0  0  0  0
    9.7780  -15.5398   24.2780 C   0  0  0  0  0  0  0  0  0  0  0  0
    9.4592  -14.4471   24.7669 O   0  0  0  0  0  0  0  0  0  0  0  0
   10.0539  -16.5918   25.2181 N   0  0  0  0  0  0  0  0  0  0  0  0
   10.4244  -16.3488   26.5841 C   0  0  1  0  0  0  0  0  0  0  0  0
    9.2858  -15.9749   27.4726 C   0  0  0  0  0  0  0  0  0  0  0  0
    8.1207  -15.4179   26.7882 C   0  0  0  0  0  0  0  0  0  0  0  0
    7.1563  -16.1626   26.1218 C   0  0  0  0  0  0  0  0  0  0  0  0
    6.2125  -15.3619   25.5997 N   0  0  0  0  0  0  0  0  0  0  0  0
    6.5434  -14.0829   25.9152 C   0  0  0  0  0  0  0  0  0  0  0  0
    5.9721  -12.8554   25.6621 C   0  0  0  0  0  0  0  0  0  0  0  0
    6.5290  -11.6597   26.1118 C   0  0  0  0  0  0  0  0  0  0  0  0
    7.6978  -11.7420   26.8358 C   0  0  0  0  0  0  0  0  0  0  0  0
    8.3055  -12.9410   27.1141 C   0  0  0  0  0  0  0  0  0  0  0  0
    7.7136  -14.1038   26.6453 C   0  0  0  0  0  0  0  0  0  0  0  0
   11.0229  -17.6319   27.0686 C   0  0  0  0  0  0  0  0  0  0  0  0
   11.4087  -17.6913   28.2666 O   0  0  0  0  0  0  0  0  0  0  0  0
   11.1791  -18.7557   26.2845 O   0  0  0  0  0  0  0  0  0  0  0  0
  1  2  1  0
  2  3  2  0
  2  4  1  0
  4  5  1  0
  6  5  1  0
  6  7  1  6
  8  9  2  0
  8  6  1  0
 11 10  1  0
 11 13  1  0
 12 11  2  0
 14 13  1  1
 14 15  1  0
 15  8  1  0
 16 14  1  0
 16 18  1  0
 17 16  2  0
 19 18  1  0
 19 30  1  0
 19 20  1  1
 21 20  1  0
 21 29  1  0
 22 21  2  0
 23 22  1  0
 23 24  1  0
 24 25  1  0
 24 29  2  0
 25 26  2  0
 26 27  1  0
 28 27  2  0
 29 28  1  0
 30 31  2  0
 30 32  1  0
M  END
$$$$
