QNW.pdb
     RDKit          3D

 32 33  0  0  1  0  0  0  0  0999 V2000
    6.3144  -16.6410   17.7283 N   0  0  0  0  0  0  0  0  0  0  0  0
    7.1664  -15.5341   17.5647 C   0  0  0  0  0  0  0  0  0  0  0  0
    7.0679  -14.8358   16.5223 O   0  0  0  0  0  0  0  0  0  0  0  0
    8.1539  -15.2025   18.5970 C   0  0  0  0  0  0  0  0  0  0  0  0
    8.0464  -16.1380   19.7949 C   0  0  0  0  0  0  0  0  0  0  0  0
    9.0523  -15.6512   20.8395 C   0  0  2  0  0  0  0  0  0  0  0  0
   10.1170  -15.0038   20.1116 N   0  0  0  0  0  0  0  0  0  0  0  0
    9.6046  -16.8247   21.5419 C   0  0  0  0  0  0  0  0  0  0  0  0
    9.7256  -17.8924   20.8507 O   0  0  0  0  0  0  0  0  0  0  0  0
   14.6227  -16.2402   23.7872 N   0  0  0  0  0  0  0  0  0  0  0  0
   13.7687  -16.8692   22.8551 C   0  0  0  0  0  0  0  0  0  0  0  0
   14.2252  -17.8764   22.2574 O   0  0  0  0  0  0  0  0  0  0  0  0
   12.3987  -16.3989   22.5664 C   0  0  0  0  0  0  0  0  0  0  0  0
   11.3290  -17.1780   23.2827 C   0  0  2  0  0  0  0  0  0  0  0  0
    9.9840  -16.7883   22.9033 N   0  0  0  0  0  0  0  0  0  0  0  0
   11.4851  -16.9790   24.7455 C   0  0  0  0  0  0  0  0  0  0  0  0
   12.5156  -17.2974   25.3550 O   0  0  0  0  0  0  0  0  0  0  0  0
   10.4381  -16.3998   25.5423 N   0  0  0  0  0  0  0  0  0  0  0  0
   10.4886  -16.3278   26.9757 C   0  0  1  0  0  0  0  0  0  0  0  0
    9.5044  -15.3826   27.5788 C   0  0  0  0  0  0  0  0  0  0  0  0
    8.3160  -15.1227   26.7687 C   0  0  0  0  0  0  0  0  0  0  0  0
    7.4538  -16.0971   26.2829 C   0  0  0  0  0  0  0  0  0  0  0  0
    6.4558  -15.5410   25.5764 N   0  0  0  0  0  0  0  0  0  0  0  0
    6.6484  -14.1966   25.5882 C   0  0  0  0  0  0  0  0  0  0  0  0
    5.9694  -13.1269   25.0480 C   0  0  0  0  0  0  0  0  0  0  0  0
    6.3900  -11.8085   25.2125 C   0  0  0  0  0  0  0  0  0  0  0  0
    7.5343  -11.5996   25.9501 C   0  0  0  0  0  0  0  0  0  0  0  0
    8.2458  -12.6322   26.5086 C   0  0  0  0  0  0  0  0  0  0  0  0
    7.7878  -13.9268   26.3174 C   0  0  0  0  0  0  0  0  0  0  0  0
   10.1931  -17.7143   27.4548 C   0  0  0  0  0  0  0  0  0  0  0  0
    9.7318  -18.5428   26.6250 O   0  0  0  0  0  0  0  0  0  0  0  0
   10.3943  -18.1431   28.7500 O   0  0  0  0  0  0  0  0  0  0  0  0
  1  2  1  0
  2  3  2  0
  2  4  1  0
  4  5  1  0
  6  5  1  0
  6  7  1  6
  8  9  2  0
  8  6  1  0
 11 10  1  0
 11 13  1  0
 12 11  2  0
 14 13  1  6
 14 15  1  0
 15  8  1  0
 16 14  1  0
 16 18  1  0
 17 16  2  0
 19 18  1  0
 19 30  1  0
 19 20  1  1
 21 20  1  0
 21 29  1  0
 22 21  2  0
 23 22  1  0
 23 24  1  0
 24 25  1  0
 24 29  2  0
 25 26  2  0
 26 27  1  0
 28 27  2  0
 29 28  1  0
 30 31  2  0
 30 32  1  0
M  END
$$$$
