QNW.pdb
     RDKit          3D

 32 33  0  0  1  0  0  0  0  0999 V2000
    9.6171  -13.0854   19.3016 N   0  0  0  0  0  0  0  0  0  0  0  0
    8.3347  -13.0463   18.7256 C   0  0  0  0  0  0  0  0  0  0  0  0
    8.1874  -12.5074   17.5979 O   0  0  0  0  0  0  0  0  0  0  0  0
    7.1886  -13.6267   19.4331 C   0  0  0  0  0  0  0  0  0  0  0  0
    7.6327  -14.4535   20.6335 C   0  0  0  0  0  0  0  0  0  0  0  0
    8.2859  -15.7249   20.0889 C   0  0  2  0  0  0  0  0  0  0  0  0
    7.2508  -16.4512   19.3934 N   0  0  0  0  0  0  0  0  0  0  0  0
    8.7511  -16.5385   21.2279 C   0  0  0  0  0  0  0  0  0  0  0  0
    7.9353  -17.4198   21.6640 O   0  0  0  0  0  0  0  0  0  0  0  0
   11.9306  -20.1290   23.6622 N   0  0  0  0  0  0  0  0  0  0  0  0
   12.3301  -18.7755   23.6140 C   0  0  0  0  0  0  0  0  0  0  0  0
   13.1244  -18.3865   24.5072 O   0  0  0  0  0  0  0  0  0  0  0  0
   11.8611  -17.8291   22.5816 C   0  0  0  0  0  0  0  0  0  0  0  0
   10.4758  -17.2981   22.8332 C   0  0  2  0  0  0  0  0  0  0  0  0
   10.0250  -16.3665   21.8165 N   0  0  0  0  0  0  0  0  0  0  0  0
   10.4544  -16.6105   24.1488 C   0  0  0  0  0  0  0  0  0  0  0  0
   11.0012  -15.5148   24.3367 O   0  0  0  0  0  0  0  0  0  0  0  0
    9.7912  -17.1848   25.2876 N   0  0  0  0  0  0  0  0  0  0  0  0
    9.8270  -16.5975   26.5976 C   0  0  1  0  0  0  0  0  0  0  0  0
    8.4848  -16.3888   27.2145 C   0  0  0  0  0  0  0  0  0  0  0  0
    7.5814  -15.5235   26.4586 C   0  0  0  0  0  0  0  0  0  0  0  0
    6.6131  -15.9669   25.5673 C   0  0  0  0  0  0  0  0  0  0  0  0
    5.9447  -14.9303   25.0352 N   0  0  0  0  0  0  0  0  0  0  0  0
    6.4638  -13.7941   25.5686 C   0  0  0  0  0  0  0  0  0  0  0  0
    6.1949  -12.4524   25.4115 C   0  0  0  0  0  0  0  0  0  0  0  0
    6.8939  -11.4601   26.0963 C   0  0  0  0  0  0  0  0  0  0  0  0
    7.8877  -11.8697   26.9576 C   0  0  0  0  0  0  0  0  0  0  0  0
    8.1932  -13.1943   27.1483 C   0  0  0  0  0  0  0  0  0  0  0  0
    7.4700  -14.1451   26.4446 C   0  0  0  0  0  0  0  0  0  0  0  0
   10.6106  -17.5534   27.4412 C   0  0  0  0  0  0  0  0  0  0  0  0
   10.9159  -18.6702   26.9443 O   0  0  0  0  0  0  0  0  0  0  0  0
   11.0203  -17.2880   28.7311 O   0  0  0  0  0  0  0  0  0  0  0  0
  1  2  1  0
  2  3  2  0
  2  4  1  0
  4  5  1  0
  6  5  1  0
  6  7  1  1
  8  9  2  0
  8  6  1  0
 11 10  1  0
 11 13  1  0
 12 11  2  0
 14 13  1  6
 14 15  1  0
 15  8  1  0
 16 14  1  0
 16 18  1  0
 17 16  2  0
 19 18  1  0
 19 30  1  0
 19 20  1  1
 21 20  1  0
 21 29  1  0
 22 21  2  0
 23 22  1  0
 23 24  1  0
 24 25  1  0
 24 29  2  0
 25 26  2  0
 26 27  1  0
 28 27  2  0
 29 28  1  0
 30 31  2  0
 30 32  1  0
M  END
$$$$
