QNW.pdb
     RDKit          3D

 32 33  0  0  1  0  0  0  0  0999 V2000
    8.5707  -21.0136   18.4660 N   0  0  0  0  0  0  0  0  0  0  0  0
    7.7394  -19.9196   18.7663 C   0  0  0  0  0  0  0  0  0  0  0  0
    7.0206  -19.4303   17.8566 O   0  0  0  0  0  0  0  0  0  0  0  0
    7.7143  -19.3607   20.1221 C   0  0  0  0  0  0  0  0  0  0  0  0
    8.5814  -20.1714   21.0773 C   0  0  0  0  0  0  0  0  0  0  0  0
    8.4805  -19.5079   22.4519 C   0  0  2  0  0  0  0  0  0  0  0  0
    7.5572  -18.4080   22.3085 N   0  0  0  0  0  0  0  0  0  0  0  0
    9.8057  -18.9694   22.8117 C   0  0  0  0  0  0  0  0  0  0  0  0
   10.7630  -19.8137   22.8677 O   0  0  0  0  0  0  0  0  0  0  0  0
   14.2022  -15.8614   22.1701 N   0  0  0  0  0  0  0  0  0  0  0  0
   13.1167  -15.4201   22.9578 C   0  0  0  0  0  0  0  0  0  0  0  0
   13.3825  -14.6285   23.8973 O   0  0  0  0  0  0  0  0  0  0  0  0
   11.7213  -15.8435   22.7233 C   0  0  0  0  0  0  0  0  0  0  0  0
   11.3592  -17.1355   23.4046 C   0  0  2  0  0  0  0  0  0  0  0  0
   10.0227  -17.5990   23.0828 N   0  0  0  0  0  0  0  0  0  0  0  0
   11.4550  -16.9490   24.8743 C   0  0  0  0  0  0  0  0  0  0  0  0
   12.5116  -16.6324   25.4382 O   0  0  0  0  0  0  0  0  0  0  0  0
   10.3149  -17.1275   25.7315 N   0  0  0  0  0  0  0  0  0  0  0  0
   10.3788  -17.0061   27.1611 C   0  0  1  0  0  0  0  0  0  0  0  0
    9.4690  -15.9704   27.7313 C   0  0  0  0  0  0  0  0  0  0  0  0
    8.3380  -15.6015   26.8821 C   0  0  0  0  0  0  0  0  0  0  0  0
    7.4917  -16.5010   26.2468 C   0  0  0  0  0  0  0  0  0  0  0  0
    6.5493  -15.8526   25.5427 N   0  0  0  0  0  0  0  0  0  0  0  0
    6.7631  -14.5213   25.7054 C   0  0  0  0  0  0  0  0  0  0  0  0
    6.1371  -13.3865   25.2389 C   0  0  0  0  0  0  0  0  0  0  0  0
    6.5686  -12.1019   25.5643 C   0  0  0  0  0  0  0  0  0  0  0  0
    7.6679  -11.9960   26.3874 C   0  0  0  0  0  0  0  0  0  0  0  0
    8.3257  -13.0965   26.8778 C   0  0  0  0  0  0  0  0  0  0  0  0
    7.8591  -14.3539   26.5262 C   0  0  0  0  0  0  0  0  0  0  0  0
    9.9865  -18.3488   27.6926 C   0  0  0  0  0  0  0  0  0  0  0  0
    9.5438  -19.2027   26.8788 O   0  0  0  0  0  0  0  0  0  0  0  0
   10.0795  -18.7110   29.0201 O   0  0  0  0  0  0  0  0  0  0  0  0
  1  2  1  0
  2  3  2  0
  2  4  1  0
  4  5  1  0
  6  5  1  0
  6  7  1  6
  8  9  2  0
  8  6  1  0
 11 10  1  0
 11 13  1  0
 12 11  2  0
 14 13  1  6
 14 15  1  0
 15  8  1  0
 16 14  1  0
 16 18  1  0
 17 16  2  0
 19 18  1  0
 19 30  1  0
 19 20  1  1
 21 20  1  0
 21 29  1  0
 22 21  2  0
 23 22  1  0
 23 24  1  0
 24 25  1  0
 24 29  2  0
 25 26  2  0
 26 27  1  0
 28 27  2  0
 29 28  1  0
 30 31  2  0
 30 32  1  0
M  END
$$$$
