QNW.pdb
     RDKit          3D

 32 33  0  0  1  0  0  0  0  0999 V2000
    7.0332  -14.7939   15.4558 N   0  0  0  0  0  0  0  0  0  0  0  0
    7.8100  -13.7539   15.9971 C   0  0  0  0  0  0  0  0  0  0  0  0
    8.5073  -13.0462   15.2246 O   0  0  0  0  0  0  0  0  0  0  0  0
    7.8040  -13.5017   17.4418 C   0  0  0  0  0  0  0  0  0  0  0  0
    8.2981  -14.7130   18.2230 C   0  0  0  0  0  0  0  0  0  0  0  0
    8.8341  -14.1996   19.5605 C   0  0  2  0  0  0  0  0  0  0  0  0
   10.2178  -13.8534   19.3410 N   0  0  0  0  0  0  0  0  0  0  0  0
    8.7711  -15.2971   20.5439 C   0  0  0  0  0  0  0  0  0  0  0  0
    7.6154  -15.5668   21.0172 O   0  0  0  0  0  0  0  0  0  0  0  0
   11.8179  -18.6311   19.5589 N   0  0  0  0  0  0  0  0  0  0  0  0
   10.5203  -18.4886   20.0970 C   0  0  0  0  0  0  0  0  0  0  0  0
    9.5683  -18.4435   19.2774 O   0  0  0  0  0  0  0  0  0  0  0  0
   10.2506  -18.3934   21.5460 C   0  0  0  0  0  0  0  0  0  0  0  0
    9.7931  -17.0294   21.9872 C   0  0  2  0  0  0  0  0  0  0  0  0
    9.9152  -16.0206   20.9518 N   0  0  0  0  0  0  0  0  0  0  0  0
   10.6001  -16.6057   23.1590 C   0  0  0  0  0  0  0  0  0  0  0  0
   11.6708  -17.1499   23.4624 O   0  0  0  0  0  0  0  0  0  0  0  0
   10.1783  -15.5297   24.0139 N   0  0  0  0  0  0  0  0  0  0  0  0
    9.4966  -15.7366   25.2608 C   0  0  1  0  0  0  0  0  0  0  0  0
    8.0506  -16.0761   25.1218 C   0  0  0  0  0  0  0  0  0  0  0  0
    7.1242  -14.9924   25.4439 C   0  0  0  0  0  0  0  0  0  0  0  0
    5.7431  -15.1194   25.5159 C   0  0  0  0  0  0  0  0  0  0  0  0
    5.1727  -13.9460   25.8355 N   0  0  0  0  0  0  0  0  0  0  0  0
    6.1691  -13.0340   25.9774 C   0  0  0  0  0  0  0  0  0  0  0  0
    6.2030  -11.6934   26.2917 C   0  0  0  0  0  0  0  0  0  0  0  0
    7.3915  -10.9703   26.3746 C   0  0  0  0  0  0  0  0  0  0  0  0
    8.5624  -11.6519   26.1269 C   0  0  0  0  0  0  0  0  0  0  0  0
    8.5808  -12.9874   25.8100 C   0  0  0  0  0  0  0  0  0  0  0  0
    7.3729  -13.6644   25.7394 C   0  0  0  0  0  0  0  0  0  0  0  0
   10.2068  -16.8779   25.9183 C   0  0  0  0  0  0  0  0  0  0  0  0
   10.1604  -16.9607   27.1747 O   0  0  0  0  0  0  0  0  0  0  0  0
   10.9102  -17.8469   25.2339 O   0  0  0  0  0  0  0  0  0  0  0  0
  1  2  1  0
  2  3  2  0
  2  4  1  0
  4  5  1  0
  6  5  1  0
  6  7  1  6
  8  9  2  0
  8  6  1  0
 11 10  1  0
 11 13  1  0
 12 11  2  0
 14 13  1  6
 14 15  1  0
 15  8  1  0
 16 14  1  0
 16 18  1  0
 17 16  2  0
 19 18  1  0
 19 30  1  0
 19 20  1  6
 21 20  1  0
 21 29  1  0
 22 21  2  0
 23 22  1  0
 23 24  1  0
 24 25  1  0
 24 29  2  0
 25 26  2  0
 26 27  1  0
 28 27  2  0
 29 28  1  0
 30 31  2  0
 30 32  1  0
M  END
$$$$
