QNW.pdb
     RDKit          3D

 32 33  0  0  1  0  0  0  0  0999 V2000
    6.9963  -13.7212   17.2467 N   0  0  0  0  0  0  0  0  0  0  0  0
    8.3538  -13.8528   16.9036 C   0  0  0  0  0  0  0  0  0  0  0  0
    8.6714  -13.9414   15.6890 O   0  0  0  0  0  0  0  0  0  0  0  0
    9.3808  -13.8859   17.9500 C   0  0  0  0  0  0  0  0  0  0  0  0
    8.7653  -13.7947   19.3408 C   0  0  0  0  0  0  0  0  0  0  0  0
    9.9107  -13.8999   20.3492 C   0  0  2  0  0  0  0  0  0  0  0  0
   11.1210  -14.0559   19.5787 N   0  0  0  0  0  0  0  0  0  0  0  0
    9.7089  -15.1127   21.1640 C   0  0  0  0  0  0  0  0  0  0  0  0
    8.5132  -15.3408   21.5522 O   0  0  0  0  0  0  0  0  0  0  0  0
   12.6459  -16.7671   20.5385 N   0  0  0  0  0  0  0  0  0  0  0  0
   12.5857  -17.9354   21.3291 C   0  0  0  0  0  0  0  0  0  0  0  0
   13.4548  -18.8159   21.1070 O   0  0  0  0  0  0  0  0  0  0  0  0
   11.5674  -18.1525   22.3767 C   0  0  0  0  0  0  0  0  0  0  0  0
   10.5310  -17.0638   22.4468 C   0  0  2  0  0  0  0  0  0  0  0  0
   10.7675  -15.9850   21.5061 N   0  0  0  0  0  0  0  0  0  0  0  0
   10.5158  -16.5001   23.8201 C   0  0  0  0  0  0  0  0  0  0  0  0
   11.1983  -15.5186   24.1449 O   0  0  0  0  0  0  0  0  0  0  0  0
    9.6998  -17.0687   24.8581 N   0  0  0  0  0  0  0  0  0  0  0  0
    9.7150  -16.6008   26.2158 C   0  0  1  0  0  0  0  0  0  0  0  0
    8.3711  -16.2488   26.7596 C   0  0  0  0  0  0  0  0  0  0  0  0
    7.6896  -15.1541   26.0715 C   0  0  0  0  0  0  0  0  0  0  0  0
    7.1277  -15.2365   24.8041 C   0  0  0  0  0  0  0  0  0  0  0  0
    6.5736  -14.0648   24.4515 N   0  0  0  0  0  0  0  0  0  0  0  0
    6.7635  -13.1985   25.4801 C   0  0  0  0  0  0  0  0  0  0  0  0
    6.4262  -11.8808   25.6976 C   0  0  0  0  0  0  0  0  0  0  0  0
    6.7486  -11.2062   26.8736 C   0  0  0  0  0  0  0  0  0  0  0  0
    7.4323  -11.9128   27.8382 C   0  0  0  0  0  0  0  0  0  0  0  0
    7.7909  -13.2270   27.6687 C   0  0  0  0  0  0  0  0  0  0  0  0
    7.4479  -13.8556   26.4815 C   0  0  0  0  0  0  0  0  0  0  0  0
   10.2889  -17.7258   27.0184 C   0  0  0  0  0  0  0  0  0  0  0  0
   10.4204  -17.5614   28.2606 O   0  0  0  0  0  0  0  0  0  0  0  0
   10.6836  -18.9338   26.4825 O   0  0  0  0  0  0  0  0  0  0  0  0
  1  2  1  0
  2  3  2  0
  2  4  1  0
  4  5  1  0
  6  5  1  0
  6  7  1  6
  8  9  2  0
  8  6  1  0
 11 10  1  0
 11 13  1  0
 12 11  2  0
 14 13  1  1
 14 15  1  0
 15  8  1  0
 16 14  1  0
 16 18  1  0
 17 16  2  0
 19 18  1  0
 19 30  1  0
 19 20  1  1
 21 20  1  0
 21 29  1  0
 22 21  2  0
 23 22  1  0
 23 24  1  0
 24 25  1  0
 24 29  2  0
 25 26  2  0
 26 27  1  0
 28 27  2  0
 29 28  1  0
 30 31  2  0
 30 32  1  0
M  END
$$$$
