QNW.pdb
     RDKit          3D

 32 33  0  0  1  0  0  0  0  0999 V2000
    9.7056  -18.3678   16.0309 N   0  0  0  0  0  0  0  0  0  0  0  0
   10.6909  -19.2814   16.4464 C   0  0  0  0  0  0  0  0  0  0  0  0
   10.9149  -20.3005   15.7428 O   0  0  0  0  0  0  0  0  0  0  0  0
   11.4437  -19.0452   17.6827 C   0  0  0  0  0  0  0  0  0  0  0  0
   11.0158  -17.7487   18.3590 C   0  0  0  0  0  0  0  0  0  0  0  0
   11.7939  -17.6463   19.6720 C   0  0  2  0  0  0  0  0  0  0  0  0
   11.4740  -18.8316   20.4306 N   0  0  0  0  0  0  0  0  0  0  0  0
   11.3113  -16.4658   20.4129 C   0  0  0  0  0  0  0  0  0  0  0  0
   11.5043  -15.3315   19.8573 O   0  0  0  0  0  0  0  0  0  0  0  0
    6.6363  -14.4623   21.0552 N   0  0  0  0  0  0  0  0  0  0  0  0
    7.0363  -15.5186   21.9024 C   0  0  0  0  0  0  0  0  0  0  0  0
    6.3415  -15.7145   22.9314 O   0  0  0  0  0  0  0  0  0  0  0  0
    8.2078  -16.3758   21.6298 C   0  0  0  0  0  0  0  0  0  0  0  0
    9.5236  -15.7224   21.9556 C   0  0  2  0  0  0  0  0  0  0  0  0
   10.6692  -16.5649   21.6685 N   0  0  0  0  0  0  0  0  0  0  0  0
    9.5435  -15.3709   23.3978 C   0  0  0  0  0  0  0  0  0  0  0  0
    9.7248  -14.2129   23.7988 O   0  0  0  0  0  0  0  0  0  0  0  0
    9.3515  -16.3657   24.4177 N   0  0  0  0  0  0  0  0  0  0  0  0
    9.9514  -16.2833   25.7199 C   0  0  1  0  0  0  0  0  0  0  0  0
    8.9949  -15.9590   26.8179 C   0  0  0  0  0  0  0  0  0  0  0  0
    7.8466  -15.1462   26.4217 C   0  0  0  0  0  0  0  0  0  0  0  0
    6.6494  -15.6460   25.9261 C   0  0  0  0  0  0  0  0  0  0  0  0
    5.7914  -14.6480   25.6569 N   0  0  0  0  0  0  0  0  0  0  0  0
    6.4120  -13.4815   25.9712 C   0  0  0  0  0  0  0  0  0  0  0  0
    6.0449  -12.1552   25.9129 C   0  0  0  0  0  0  0  0  0  0  0  0
    6.8933  -11.1221   26.3069 C   0  0  0  0  0  0  0  0  0  0  0  0
    8.1423  -11.4739   26.7687 C   0  0  0  0  0  0  0  0  0  0  0  0
    8.5546  -12.7810   26.8457 C   0  0  0  0  0  0  0  0  0  0  0  0
    7.6752  -13.7740   26.4422 C   0  0  0  0  0  0  0  0  0  0  0  0
   10.5456  -17.6336   25.9708 C   0  0  0  0  0  0  0  0  0  0  0  0
   11.2053  -17.8036   27.0307 O   0  0  0  0  0  0  0  0  0  0  0  0
   10.4161  -18.7056   25.1129 O   0  0  0  0  0  0  0  0  0  0  0  0
  1  2  1  0
  2  3  2  0
  2  4  1  0
  4  5  1  0
  6  5  1  0
  6  7  1  1
  8  9  2  0
  8  6  1  0
 11 10  1  0
 11 13  1  0
 12 11  2  0
 14 13  1  1
 14 15  1  0
 15  8  1  0
 16 14  1  0
 16 18  1  0
 17 16  2  0
 19 18  1  0
 19 30  1  0
 19 20  1  1
 21 20  1  0
 21 29  1  0
 22 21  2  0
 23 22  1  0
 23 24  1  0
 24 25  1  0
 24 29  2  0
 25 26  2  0
 26 27  1  0
 28 27  2  0
 29 28  1  0
 30 31  2  0
 30 32  1  0
M  END
$$$$
