QNW.pdb
     RDKit          3D

 32 33  0  0  1  0  0  0  0  0999 V2000
    9.8640  -12.5748   18.5687 N   0  0  0  0  0  0  0  0  0  0  0  0
    8.6635  -12.9209   17.9229 C   0  0  0  0  0  0  0  0  0  0  0  0
    8.6493  -13.0136   16.6679 O   0  0  0  0  0  0  0  0  0  0  0  0
    7.4482  -13.1692   18.7054 C   0  0  0  0  0  0  0  0  0  0  0  0
    7.7327  -14.0500   19.9158 C   0  0  0  0  0  0  0  0  0  0  0  0
    8.2028  -15.4061   19.3867 C   0  0  2  0  0  0  0  0  0  0  0  0
    7.1127  -15.9414   18.6072 N   0  0  0  0  0  0  0  0  0  0  0  0
    8.4468  -16.2991   20.5349 C   0  0  0  0  0  0  0  0  0  0  0  0
    7.4663  -16.4712   21.3359 O   0  0  0  0  0  0  0  0  0  0  0  0
   10.3515  -20.9199   23.2338 N   0  0  0  0  0  0  0  0  0  0  0  0
   11.0645  -19.7565   22.8709 C   0  0  0  0  0  0  0  0  0  0  0  0
   11.9958  -19.4002   23.6363 O   0  0  0  0  0  0  0  0  0  0  0  0
   10.7633  -18.9670   21.6595 C   0  0  0  0  0  0  0  0  0  0  0  0
    9.8635  -17.7882   21.9148 C   0  0  2  0  0  0  0  0  0  0  0  0
    9.6894  -16.9371   20.7529 N   0  0  0  0  0  0  0  0  0  0  0  0
   10.4356  -16.9745   23.0168 C   0  0  0  0  0  0  0  0  0  0  0  0
   11.3870  -16.1992   22.8478 O   0  0  0  0  0  0  0  0  0  0  0  0
    9.9111  -17.0428   24.3535 N   0  0  0  0  0  0  0  0  0  0  0  0
   10.3640  -16.1950   25.4205 C   0  0  1  0  0  0  0  0  0  0  0  0
    9.8806  -14.7863   25.3338 C   0  0  0  0  0  0  0  0  0  0  0  0
    8.4289  -14.6236   25.3821 C   0  0  0  0  0  0  0  0  0  0  0  0
    7.5060  -15.6474   25.2114 C   0  0  0  0  0  0  0  0  0  0  0  0
    6.2510  -15.1797   25.3144 N   0  0  0  0  0  0  0  0  0  0  0  0
    6.3321  -13.8451   25.5536 C   0  0  0  0  0  0  0  0  0  0  0  0
    5.4013  -12.8484   25.7469 C   0  0  0  0  0  0  0  0  0  0  0  0
    5.7579  -11.5215   25.9805 C   0  0  0  0  0  0  0  0  0  0  0  0
    7.1030  -11.2270   26.0135 C   0  0  0  0  0  0  0  0  0  0  0  0
    8.0685  -12.1849   25.8267 C   0  0  0  0  0  0  0  0  0  0  0  0
    7.6646  -13.4912   25.5975 C   0  0  0  0  0  0  0  0  0  0  0  0
    9.8365  -16.8175   26.6749 C   0  0  0  0  0  0  0  0  0  0  0  0
    9.1569  -17.8736   26.5726 O   0  0  0  0  0  0  0  0  0  0  0  0
   10.0480  -16.3069   27.9384 O   0  0  0  0  0  0  0  0  0  0  0  0
  1  2  1  0
  2  3  2  0
  2  4  1  0
  4  5  1  0
  6  5  1  0
  6  7  1  6
  8  9  2  0
  8  6  1  0
 11 10  1  0
 11 13  1  0
 12 11  2  0
 14 13  1  6
 14 15  1  0
 15  8  1  0
 16 14  1  0
 16 18  1  0
 17 16  2  0
 19 18  1  0
 19 30  1  0
 19 20  1  6
 21 20  1  0
 21 29  1  0
 22 21  2  0
 23 22  1  0
 23 24  1  0
 24 25  1  0
 24 29  2  0
 25 26  2  0
 26 27  1  0
 28 27  2  0
 29 28  1  0
 30 31  2  0
 30 32  1  0
M  END
$$$$
