QNW.pdb
     RDKit          3D

 32 33  0  0  1  0  0  0  0  0999 V2000
   13.8367  -17.4965   16.6398 N   0  0  0  0  0  0  0  0  0  0  0  0
   13.5375  -18.8282   16.9788 C   0  0  0  0  0  0  0  0  0  0  0  0
   14.1231  -19.7604   16.3689 O   0  0  0  0  0  0  0  0  0  0  0  0
   12.5563  -19.1212   18.0287 C   0  0  0  0  0  0  0  0  0  0  0  0
   11.9527  -17.8449   18.6019 C   0  0  0  0  0  0  0  0  0  0  0  0
   11.2820  -18.2176   19.9252 C   0  0  2  0  0  0  0  0  0  0  0  0
   10.3278  -19.2568   19.6218 N   0  0  0  0  0  0  0  0  0  0  0  0
   10.5534  -17.0389   20.4305 C   0  0  0  0  0  0  0  0  0  0  0  0
   10.7909  -15.9311   19.8398 O   0  0  0  0  0  0  0  0  0  0  0  0
    6.0748  -17.6884   23.2594 N   0  0  0  0  0  0  0  0  0  0  0  0
    6.9649  -17.3956   22.2031 C   0  0  0  0  0  0  0  0  0  0  0  0
    7.3394  -18.3625   21.4926 O   0  0  0  0  0  0  0  0  0  0  0  0
    7.4564  -16.0335   21.9126 C   0  0  0  0  0  0  0  0  0  0  0  0
    8.9559  -15.9116   21.9489 C   0  0  2  0  0  0  0  0  0  0  0  0
    9.6399  -17.1122   21.5070 N   0  0  0  0  0  0  0  0  0  0  0  0
    9.3816  -15.6080   23.3384 C   0  0  0  0  0  0  0  0  0  0  0  0
    9.6354  -14.4574   23.7209 O   0  0  0  0  0  0  0  0  0  0  0  0
    9.5237  -16.6435   24.3253 N   0  0  0  0  0  0  0  0  0  0  0  0
   10.3875  -16.5290   25.4668 C   0  0  1  0  0  0  0  0  0  0  0  0
   10.0201  -15.4315   26.4081 C   0  0  0  0  0  0  0  0  0  0  0  0
    8.6169  -15.0243   26.3702 C   0  0  0  0  0  0  0  0  0  0  0  0
    7.5376  -15.8923   26.2666 C   0  0  0  0  0  0  0  0  0  0  0  0
    6.3788  -15.2130   26.2596 N   0  0  0  0  0  0  0  0  0  0  0  0
    6.6802  -13.8924   26.3583 C   0  0  0  0  0  0  0  0  0  0  0  0
    5.9287  -12.7388   26.3998 C   0  0  0  0  0  0  0  0  0  0  0  0
    6.5004  -11.4723   26.5067 C   0  0  0  0  0  0  0  0  0  0  0  0
    7.8745  -11.4047   26.5716 C   0  0  0  0  0  0  0  0  0  0  0  0
    8.6667  -12.5252   26.5340 C   0  0  0  0  0  0  0  0  0  0  0  0
    8.0519  -13.7632   26.4270 C   0  0  0  0  0  0  0  0  0  0  0  0
   10.2822  -17.8409   26.1790 C   0  0  0  0  0  0  0  0  0  0  0  0
    9.4481  -18.6828   25.7512 O   0  0  0  0  0  0  0  0  0  0  0  0
   11.0424  -18.1870   27.2764 O   0  0  0  0  0  0  0  0  0  0  0  0
  1  2  1  0
  2  3  2  0
  2  4  1  0
  4  5  1  0
  6  5  1  0
  6  7  1  6
  8  9  2  0
  8  6  1  0
 11 10  1  0
 11 13  1  0
 12 11  2  0
 14 13  1  1
 14 15  1  0
 15  8  1  0
 16 14  1  0
 16 18  1  0
 17 16  2  0
 19 18  1  0
 19 30  1  0
 19 20  1  1
 21 20  1  0
 21 29  1  0
 22 21  2  0
 23 22  1  0
 23 24  1  0
 24 25  1  0
 24 29  2  0
 25 26  2  0
 26 27  1  0
 28 27  2  0
 29 28  1  0
 30 31  2  0
 30 32  1  0
M  END
$$$$
