QNW.pdb
     RDKit          3D

 32 33  0  0  1  0  0  0  0  0999 V2000
   14.6880  -18.8800   17.7788 N   0  0  0  0  0  0  0  0  0  0  0  0
   13.9137  -19.9868   18.1705 C   0  0  0  0  0  0  0  0  0  0  0  0
   14.1056  -21.0965   17.6087 O   0  0  0  0  0  0  0  0  0  0  0  0
   12.8983  -19.8445   19.2192 C   0  0  0  0  0  0  0  0  0  0  0  0
   12.7991  -18.4055   19.7100 C   0  0  0  0  0  0  0  0  0  0  0  0
   12.1656  -18.4460   21.1018 C   0  0  2  0  0  0  0  0  0  0  0  0
   11.1903  -19.5094   21.0766 N   0  0  0  0  0  0  0  0  0  0  0  0
   11.4669  -17.1685   21.3369 C   0  0  0  0  0  0  0  0  0  0  0  0
   12.1793  -16.1110   21.2556 O   0  0  0  0  0  0  0  0  0  0  0  0
    8.6052  -17.0300   19.4299 N   0  0  0  0  0  0  0  0  0  0  0  0
    7.6459  -16.4562   20.2926 C   0  0  0  0  0  0  0  0  0  0  0  0
    6.4434  -16.5328   19.9346 O   0  0  0  0  0  0  0  0  0  0  0  0
    7.9957  -15.7892   21.5631 C   0  0  0  0  0  0  0  0  0  0  0  0
    9.4688  -15.8077   21.8698 C   0  0  2  0  0  0  0  0  0  0  0  0
   10.0871  -17.0992   21.6368 N   0  0  0  0  0  0  0  0  0  0  0  0
    9.6699  -15.4360   23.2929 C   0  0  0  0  0  0  0  0  0  0  0  0
    9.6497  -14.2606   23.6837 O   0  0  0  0  0  0  0  0  0  0  0  0
    9.9012  -16.4302   24.3051 N   0  0  0  0  0  0  0  0  0  0  0  0
   10.1775  -16.1069   25.6768 C   0  0  1  0  0  0  0  0  0  0  0  0
    9.0245  -16.3121   26.6010 C   0  0  0  0  0  0  0  0  0  0  0  0
    7.8779  -15.4361   26.3678 C   0  0  0  0  0  0  0  0  0  0  0  0
    6.6317  -15.8563   25.9214 C   0  0  0  0  0  0  0  0  0  0  0  0
    5.7900  -14.8155   25.8091 N   0  0  0  0  0  0  0  0  0  0  0  0
    6.4703  -13.6997   26.1792 C   0  0  0  0  0  0  0  0  0  0  0  0
    6.1442  -12.3645   26.2686 C   0  0  0  0  0  0  0  0  0  0  0  0
    7.0529  -11.3949   26.6886 C   0  0  0  0  0  0  0  0  0  0  0  0
    8.3200  -11.8206   27.0207 C   0  0  0  0  0  0  0  0  0  0  0  0
    8.6932  -13.1397   26.9482 C   0  0  0  0  0  0  0  0  0  0  0  0
    7.7541  -14.0676   26.5248 C   0  0  0  0  0  0  0  0  0  0  0  0
   11.2972  -17.0134   26.0818 C   0  0  0  0  0  0  0  0  0  0  0  0
   11.7189  -17.8486   25.2379 O   0  0  0  0  0  0  0  0  0  0  0  0
   11.8976  -16.9918   27.3232 O   0  0  0  0  0  0  0  0  0  0  0  0
  1  2  1  0
  2  3  2  0
  2  4  1  0
  4  5  1  0
  6  5  1  0
  6  7  1  6
  8  9  2  0
  8  6  1  0
 11 10  1  0
 11 13  1  0
 12 11  2  0
 14 13  1  1
 14 15  1  0
 15  8  1  0
 16 14  1  0
 16 18  1  0
 17 16  2  0
 19 18  1  0
 19 30  1  0
 19 20  1  1
 21 20  1  0
 21 29  1  0
 22 21  2  0
 23 22  1  0
 23 24  1  0
 24 25  1  0
 24 29  2  0
 25 26  2  0
 26 27  1  0
 28 27  2  0
 29 28  1  0
 30 31  2  0
 30 32  1  0
M  END
$$$$
