SEF.pdb
     RDKit          3D

 27 27  0  0  1  0  0  0  0  0999 V2000
    7.4914  -12.7647   21.7779 O   0  0  0  0  0  0  0  0  0  0  0  0
    8.1580  -13.2740   20.6751 C   0  0  0  0  0  0  0  0  0  0  0  0
    7.6054  -14.6449   20.2735 C   0  0  2  0  0  0  0  0  0  0  0  0
    6.2101  -14.5485   19.9795 N   0  0  0  0  0  0  0  0  0  0  0  0
    7.8638  -15.5349   21.4629 C   0  0  0  0  0  0  0  0  0  0  0  0
    6.9005  -15.9074   22.1780 O   0  0  0  0  0  0  0  0  0  0  0  0
    9.2201  -15.8842   21.6755 N   0  0  0  0  0  0  0  0  0  0  0  0
    9.5147  -16.9493   22.6395 C   0  0  1  0  0  0  0  0  0  0  0  0
   10.7245  -17.6651   22.1318 C   0  0  0  0  0  0  0  0  0  0  0  0
   11.1999  -18.8266   22.9244 C   0  0  0  0  0  0  0  0  0  0  0  0
   12.3678  -19.4574   22.1887 C   0  0  0  0  0  0  0  0  0  0  0  0
   13.4549  -19.4864   22.7901 O   0  0  0  0  0  0  0  0  0  0  0  0
    9.5960  -16.4080   23.9959 C   0  0  0  0  0  0  0  0  0  0  0  0
   10.3358  -15.4009   24.2880 O   0  0  0  0  0  0  0  0  0  0  0  0
   12.2413  -19.9722   20.9245 O   0  0  0  0  0  0  0  0  0  0  0  0
    8.8359  -16.9951   25.0420 N   0  0  0  0  0  0  0  0  0  0  0  0
    9.1046  -16.5298   26.4148 C   0  0  1  0  0  0  0  0  0  0  0  0
    7.7603  -16.0307   26.9150 C   0  0  0  0  0  0  0  0  0  0  0  0
    7.6244  -14.5758   26.6812 C   0  0  0  0  0  0  0  0  0  0  0  0
    6.4678  -14.0078   26.1902 C   0  0  0  0  0  0  0  0  0  0  0  0
    6.3644  -12.6328   25.9861 C   0  0  0  0  0  0  0  0  0  0  0  0
    7.4125  -11.7831   26.2657 C   0  0  0  0  0  0  0  0  0  0  0  0
    8.5747  -12.3377   26.7569 C   0  0  0  0  0  0  0  0  0  0  0  0
    8.6764  -13.6963   26.9585 C   0  0  0  0  0  0  0  0  0  0  0  0
    9.6106  -17.6527   27.2167 C   0  0  0  0  0  0  0  0  0  0  0  0
    9.5288  -18.8154   26.7944 O   0  0  0  0  0  0  0  0  0  0  0  0
   10.1852  -17.4314   28.4520 O   0  0  0  0  0  0  0  0  0  0  0  0
  2  1  1  0
  3  2  1  0
  3  4  1  1
  5  3  1  0
  5  6  2  0
  7  5  1  0
  8  7  1  0
  8  9  1  6
 10  9  1  0
 10 11  1  0
 11 15  1  0
 12 11  2  0
 13  8  1  0
 14 13  2  0
 16 13  1  0
 17 16  1  0
 17 18  1  1
 18 19  1  0
 19 20  2  0
 20 21  1  0
 22 21  2  0
 23 22  1  0
 24 19  1  0
 24 23  2  0
 25 27  1  0
 25 17  1  0
 26 25  2  0
M  END
$$$$
