SEF.pdb
     RDKit          3D

 27 27  0  0  1  0  0  0  0  0999 V2000
    8.3603  -12.3908   19.4294 O   0  0  0  0  0  0  0  0  0  0  0  0
    9.2874  -13.0710   18.6564 C   0  0  0  0  0  0  0  0  0  0  0  0
    8.7808  -14.4658   18.2768 C   0  0  2  0  0  0  0  0  0  0  0  0
    7.4869  -14.3753   17.6766 N   0  0  0  0  0  0  0  0  0  0  0  0
    8.7409  -15.2341   19.5736 C   0  0  0  0  0  0  0  0  0  0  0  0
    7.6432  -15.3985   20.1619 O   0  0  0  0  0  0  0  0  0  0  0  0
    9.9911  -15.7198   20.0293 N   0  0  0  0  0  0  0  0  0  0  0  0
   10.0126  -16.5261   21.2541 C   0  0  1  0  0  0  0  0  0  0  0  0
   11.2475  -17.3658   21.1935 C   0  0  0  0  0  0  0  0  0  0  0  0
   11.5741  -18.1681   22.3988 C   0  0  0  0  0  0  0  0  0  0  0  0
   12.8555  -18.9342   22.1264 C   0  0  0  0  0  0  0  0  0  0  0  0
   13.8909  -18.4935   22.6537 O   0  0  0  0  0  0  0  0  0  0  0  0
    9.8574  -15.6750   22.4335 C   0  0  0  0  0  0  0  0  0  0  0  0
   10.4426  -14.5378   22.5389 O   0  0  0  0  0  0  0  0  0  0  0  0
   12.8811  -20.0567   21.3400 O   0  0  0  0  0  0  0  0  0  0  0  0
    9.0321  -16.0959   23.5098 N   0  0  0  0  0  0  0  0  0  0  0  0
    8.8704  -15.1642   24.6408 C   0  0  1  0  0  0  0  0  0  0  0  0
    7.5759  -14.4281   24.3426 C   0  0  0  0  0  0  0  0  0  0  0  0
    7.2427  -13.4934   25.4403 C   0  0  0  0  0  0  0  0  0  0  0  0
    7.9199  -12.3084   25.6374 C   0  0  0  0  0  0  0  0  0  0  0  0
    7.5805  -11.4426   26.6757 C   0  0  0  0  0  0  0  0  0  0  0  0
    6.5549  -11.7333   27.5489 C   0  0  0  0  0  0  0  0  0  0  0  0
    5.8698  -12.9148   27.3634 C   0  0  0  0  0  0  0  0  0  0  0  0
    6.2055  -13.7699   26.3374 C   0  0  0  0  0  0  0  0  0  0  0  0
    8.7949  -15.9304   25.8926 C   0  0  0  0  0  0  0  0  0  0  0  0
    9.3221  -15.4986   26.9282 O   0  0  0  0  0  0  0  0  0  0  0  0
    8.1357  -17.1423   25.9361 O   0  0  0  0  0  0  0  0  0  0  0  0
  2  1  1  0
  3  2  1  0
  3  4  1  1
  5  3  1  0
  5  6  2  0
  7  5  1  0
  8  7  1  0
  8  9  1  1
 10  9  1  0
 10 11  1  0
 11 15  1  0
 12 11  2  0
 13  8  1  0
 14 13  2  0
 16 13  1  0
 17 16  1  0
 17 18  1  6
 18 19  1  0
 19 20  2  0
 20 21  1  0
 22 21  2  0
 23 22  1  0
 24 19  1  0
 24 23  2  0
 25 27  1  0
 25 17  1  0
 26 25  2  0
M  END
$$$$
