SEF.pdb
     RDKit          3D

 27 27  0  0  1  0  0  0  0  0999 V2000
    9.2798  -12.4499   20.8027 O   0  0  0  0  0  0  0  0  0  0  0  0
    8.1111  -12.5170   20.0615 C   0  0  0  0  0  0  0  0  0  0  0  0
    7.8903  -13.9227   19.4945 C   0  0  2  0  0  0  0  0  0  0  0  0
    6.7234  -13.9453   18.6696 N   0  0  0  0  0  0  0  0  0  0  0  0
    7.7360  -14.8122   20.7022 C   0  0  0  0  0  0  0  0  0  0  0  0
    6.6059  -14.9415   21.2353 O   0  0  0  0  0  0  0  0  0  0  0  0
    8.9233  -15.4460   21.1441 N   0  0  0  0  0  0  0  0  0  0  0  0
    8.8058  -16.5036   22.1532 C   0  0  1  0  0  0  0  0  0  0  0  0
    9.5281  -17.6950   21.6124 C   0  0  0  0  0  0  0  0  0  0  0  0
    8.7526  -18.9553   21.4967 C   0  0  0  0  0  0  0  0  0  0  0  0
    9.6793  -20.0367   20.9724 C   0  0  0  0  0  0  0  0  0  0  0  0
    9.8792  -21.0095   21.7193 O   0  0  0  0  0  0  0  0  0  0  0  0
    9.2372  -16.0158   23.4629 C   0  0  0  0  0  0  0  0  0  0  0  0
   10.2881  -15.2946   23.6127 O   0  0  0  0  0  0  0  0  0  0  0  0
   10.2714  -19.9547   19.7387 O   0  0  0  0  0  0  0  0  0  0  0  0
    8.4819  -16.3321   24.6231 N   0  0  0  0  0  0  0  0  0  0  0  0
    9.0501  -15.9408   25.9260 C   0  0  1  0  0  0  0  0  0  0  0  0
    7.8530  -15.4757   26.7365 C   0  0  0  0  0  0  0  0  0  0  0  0
    7.5504  -14.0554   26.4517 C   0  0  0  0  0  0  0  0  0  0  0  0
    8.4080  -13.0309   26.7931 C   0  0  0  0  0  0  0  0  0  0  0  0
    8.1013  -11.7018   26.5065 C   0  0  0  0  0  0  0  0  0  0  0  0
    6.9291  -11.3548   25.8706 C   0  0  0  0  0  0  0  0  0  0  0  0
    6.0626  -12.3691   25.5239 C   0  0  0  0  0  0  0  0  0  0  0  0
    6.3662  -13.6823   25.8073 C   0  0  0  0  0  0  0  0  0  0  0  0
    9.7119  -17.1033   26.5347 C   0  0  0  0  0  0  0  0  0  0  0  0
    9.5980  -18.2293   26.0288 O   0  0  0  0  0  0  0  0  0  0  0  0
   10.4712  -16.9605   27.6785 O   0  0  0  0  0  0  0  0  0  0  0  0
  2  1  1  0
  3  2  1  0
  3  4  1  6
  5  3  1  0
  5  6  2  0
  7  5  1  0
  8  7  1  0
  8  9  1  6
 10  9  1  0
 10 11  1  0
 11 15  1  0
 12 11  2  0
 13  8  1  0
 14 13  2  0
 16 13  1  0
 17 16  1  0
 17 18  1  1
 18 19  1  0
 19 20  2  0
 20 21  1  0
 22 21  2  0
 23 22  1  0
 24 19  1  0
 24 23  2  0
 25 27  1  0
 25 17  1  0
 26 25  2  0
M  END
$$$$
