SEF.pdb
     RDKit          3D

 27 27  0  0  1  0  0  0  0  0999 V2000
    5.4888  -16.1560   22.4963 O   0  0  0  0  0  0  0  0  0  0  0  0
    6.1694  -15.3927   21.5615 C   0  0  0  0  0  0  0  0  0  0  0  0
    7.0607  -16.2646   20.6719 C   0  0  2  0  0  0  0  0  0  0  0  0
    6.2946  -17.3207   20.0884 N   0  0  0  0  0  0  0  0  0  0  0  0
    8.1315  -16.7955   21.5911 C   0  0  0  0  0  0  0  0  0  0  0  0
    8.0678  -17.9835   21.9945 O   0  0  0  0  0  0  0  0  0  0  0  0
    9.1516  -15.8728   21.9302 N   0  0  0  0  0  0  0  0  0  0  0  0
   10.2893  -16.3610   22.7164 C   0  0  1  0  0  0  0  0  0  0  0  0
   11.5255  -15.9071   22.0097 C   0  0  0  0  0  0  0  0  0  0  0  0
   12.8225  -16.3839   22.5518 C   0  0  0  0  0  0  0  0  0  0  0  0
   13.3365  -17.4902   21.6490 C   0  0  0  0  0  0  0  0  0  0  0  0
   13.8704  -17.1372   20.5838 O   0  0  0  0  0  0  0  0  0  0  0  0
   10.1541  -15.9652   24.1180 C   0  0  0  0  0  0  0  0  0  0  0  0
   10.7742  -14.9534   24.6065 O   0  0  0  0  0  0  0  0  0  0  0  0
   13.2229  -18.8152   21.9818 O   0  0  0  0  0  0  0  0  0  0  0  0
    9.3098  -16.7056   24.9872 N   0  0  0  0  0  0  0  0  0  0  0  0
    9.4013  -16.4121   26.4291 C   0  0  1  0  0  0  0  0  0  0  0  0
    7.9943  -15.9953   26.8203 C   0  0  0  0  0  0  0  0  0  0  0  0
    7.8152  -14.5367   26.6463 C   0  0  0  0  0  0  0  0  0  0  0  0
    6.8992  -14.0011   25.7656 C   0  0  0  0  0  0  0  0  0  0  0  0
    6.7461  -12.6227   25.6267 C   0  0  0  0  0  0  0  0  0  0  0  0
    7.5028  -11.7369   26.3625 C   0  0  0  0  0  0  0  0  0  0  0  0
    8.4226  -12.2588   27.2465 C   0  0  0  0  0  0  0  0  0  0  0  0
    8.5734  -13.6208   27.3835 C   0  0  0  0  0  0  0  0  0  0  0  0
    9.8385  -17.6202   27.1426 C   0  0  0  0  0  0  0  0  0  0  0  0
   10.0024  -17.6014   28.3713 O   0  0  0  0  0  0  0  0  0  0  0  0
   10.0733  -18.7950   26.4571 O   0  0  0  0  0  0  0  0  0  0  0  0
  2  1  1  0
  3  2  1  0
  3  4  1  1
  5  3  1  0
  5  6  2  0
  7  5  1  0
  8  7  1  0
  8  9  1  6
 10  9  1  0
 10 11  1  0
 11 15  1  0
 12 11  2  0
 13  8  1  0
 14 13  2  0
 16 13  1  0
 17 16  1  0
 17 18  1  1
 18 19  1  0
 19 20  2  0
 20 21  1  0
 22 21  2  0
 23 22  1  0
 24 19  1  0
 24 23  2  0
 25 27  1  0
 25 17  1  0
 26 25  2  0
M  END
$$$$
