SEF.pdb
     RDKit          3D

 27 27  0  0  1  0  0  0  0  0999 V2000
    7.5839  -14.3611   18.5060 O   0  0  0  0  0  0  0  0  0  0  0  0
    6.9962  -13.5568   19.4691 C   0  0  0  0  0  0  0  0  0  0  0  0
    7.9550  -13.2899   20.6334 C   0  0  2  0  0  0  0  0  0  0  0  0
    9.2256  -12.8613   20.1390 N   0  0  0  0  0  0  0  0  0  0  0  0
    8.0568  -14.6040   21.3658 C   0  0  0  0  0  0  0  0  0  0  0  0
    7.0088  -15.1852   21.7427 O   0  0  0  0  0  0  0  0  0  0  0  0
    9.3739  -15.0833   21.5710 N   0  0  0  0  0  0  0  0  0  0  0  0
    9.5432  -16.3407   22.3066 C   0  0  1  0  0  0  0  0  0  0  0  0
   10.7306  -17.0281   21.7138 C   0  0  0  0  0  0  0  0  0  0  0  0
   10.5308  -17.7103   20.4108 C   0  0  0  0  0  0  0  0  0  0  0  0
   11.8298  -18.3963   20.0298 C   0  0  0  0  0  0  0  0  0  0  0  0
   12.4242  -19.0059   20.9349 O   0  0  0  0  0  0  0  0  0  0  0  0
    9.5824  -16.0930   23.7475 C   0  0  0  0  0  0  0  0  0  0  0  0
   10.4658  -15.3354   24.2882 O   0  0  0  0  0  0  0  0  0  0  0  0
   12.3313  -18.3522   18.7547 O   0  0  0  0  0  0  0  0  0  0  0  0
    8.6178  -16.6949   24.5985 N   0  0  0  0  0  0  0  0  0  0  0  0
    8.7508  -16.4533   26.0467 C   0  0  1  0  0  0  0  0  0  0  0  0
    7.3610  -16.0298   26.4888 C   0  0  0  0  0  0  0  0  0  0  0  0
    7.2196  -14.5581   26.4258 C   0  0  0  0  0  0  0  0  0  0  0  0
    6.3487  -13.9325   25.5589 C   0  0  0  0  0  0  0  0  0  0  0  0
    6.2303  -12.5441   25.5254 C   0  0  0  0  0  0  0  0  0  0  0  0
    6.9778  -11.7379   26.3560 C   0  0  0  0  0  0  0  0  0  0  0  0
    7.8526  -12.3503   27.2275 C   0  0  0  0  0  0  0  0  0  0  0  0
    7.9692  -13.7222   27.2603 C   0  0  0  0  0  0  0  0  0  0  0  0
    9.1873  -17.6919   26.7064 C   0  0  0  0  0  0  0  0  0  0  0  0
    9.1592  -18.7725   26.0993 O   0  0  0  0  0  0  0  0  0  0  0  0
    9.6358  -17.6726   28.0116 O   0  0  0  0  0  0  0  0  0  0  0  0
  2  1  1  0
  3  2  1  0
  3  4  1  6
  5  3  1  0
  5  6  2  0
  7  5  1  0
  8  7  1  0
  8  9  1  6
 10  9  1  0
 10 11  1  0
 11 15  1  0
 12 11  2  0
 13  8  1  0
 14 13  2  0
 16 13  1  0
 17 16  1  0
 17 18  1  1
 18 19  1  0
 19 20  2  0
 20 21  1  0
 22 21  2  0
 23 22  1  0
 24 19  1  0
 24 23  2  0
 25 27  1  0
 25 17  1  0
 26 25  2  0
M  END
$$$$
