SEF.pdb
     RDKit          3D

 27 27  0  0  1  0  0  0  0  0999 V2000
    5.5995  -15.4795   21.9266 O   0  0  0  0  0  0  0  0  0  0  0  0
    6.6787  -14.7616   21.4371 C   0  0  0  0  0  0  0  0  0  0  0  0
    7.5691  -15.6321   20.5451 C   0  0  2  0  0  0  0  0  0  0  0  0
    6.7675  -16.3940   19.6398 N   0  0  0  0  0  0  0  0  0  0  0  0
    8.3295  -16.5194   21.4979 C   0  0  0  0  0  0  0  0  0  0  0  0
    7.9666  -17.7115   21.6569 O   0  0  0  0  0  0  0  0  0  0  0  0
    9.4259  -15.9065   22.1530 N   0  0  0  0  0  0  0  0  0  0  0  0
   10.2020  -16.7137   23.1001 C   0  0  1  0  0  0  0  0  0  0  0  0
   11.5983  -16.7727   22.5702 C   0  0  0  0  0  0  0  0  0  0  0  0
   11.7930  -17.4505   21.2641 C   0  0  0  0  0  0  0  0  0  0  0  0
   13.2771  -17.4530   20.9470 C   0  0  0  0  0  0  0  0  0  0  0  0
   13.8853  -18.5200   21.1358 O   0  0  0  0  0  0  0  0  0  0  0  0
   10.0401  -16.2063   24.4623 C   0  0  0  0  0  0  0  0  0  0  0  0
   10.6094  -15.1285   24.8637 O   0  0  0  0  0  0  0  0  0  0  0  0
   13.9242  -16.3401   20.4758 O   0  0  0  0  0  0  0  0  0  0  0  0
    9.2258  -16.9085   25.3900 N   0  0  0  0  0  0  0  0  0  0  0  0
    9.2407  -16.4431   26.7888 C   0  0  1  0  0  0  0  0  0  0  0  0
    7.7982  -16.0655   27.0772 C   0  0  0  0  0  0  0  0  0  0  0  0
    7.4855  -14.7329   26.5148 C   0  0  0  0  0  0  0  0  0  0  0  0
    7.8978  -13.5601   27.1114 C   0  0  0  0  0  0  0  0  0  0  0  0
    7.5954  -12.3179   26.5561 C   0  0  0  0  0  0  0  0  0  0  0  0
    6.8719  -12.2087   25.3884 C   0  0  0  0  0  0  0  0  0  0  0  0
    6.4533  -13.3733   24.7816 C   0  0  0  0  0  0  0  0  0  0  0  0
    6.7525  -14.6004   25.3306 C   0  0  0  0  0  0  0  0  0  0  0  0
    9.7113  -17.5317   27.6566 C   0  0  0  0  0  0  0  0  0  0  0  0
    9.8128  -17.3624   28.8805 O   0  0  0  0  0  0  0  0  0  0  0  0
   10.0474  -18.7599   27.1238 O   0  0  0  0  0  0  0  0  0  0  0  0
  2  1  1  0
  3  2  1  0
  3  4  1  6
  5  3  1  0
  5  6  2  0
  7  5  1  0
  8  7  1  0
  8  9  1  6
 10  9  1  0
 10 11  1  0
 11 15  1  0
 12 11  2  0
 13  8  1  0
 14 13  2  0
 16 13  1  0
 17 16  1  0
 17 18  1  1
 18 19  1  0
 19 20  2  0
 20 21  1  0
 22 21  2  0
 23 22  1  0
 24 19  1  0
 24 23  2  0
 25 27  1  0
 25 17  1  0
 26 25  2  0
M  END
$$$$
