SEF.pdb
     RDKit          3D

 27 27  0  0  1  0  0  0  0  0999 V2000
    9.4728  -12.1534   20.0552 O   0  0  0  0  0  0  0  0  0  0  0  0
    9.4281  -13.1255   19.0689 C   0  0  0  0  0  0  0  0  0  0  0  0
    8.1161  -13.9142   19.1223 C   0  0  2  0  0  0  0  0  0  0  0  0
    7.0094  -13.0227   19.2741 N   0  0  0  0  0  0  0  0  0  0  0  0
    8.2591  -14.8319   20.3101 C   0  0  0  0  0  0  0  0  0  0  0  0
    7.5303  -14.6574   21.3183 O   0  0  0  0  0  0  0  0  0  0  0  0
    9.2390  -15.8463   20.1780 N   0  0  0  0  0  0  0  0  0  0  0  0
    9.3415  -16.8488   21.2435 C   0  0  1  0  0  0  0  0  0  0  0  0
   10.0559  -18.0244   20.6593 C   0  0  0  0  0  0  0  0  0  0  0  0
   10.3759  -19.1423   21.5819 C   0  0  0  0  0  0  0  0  0  0  0  0
   11.3322  -20.0838   20.8733 C   0  0  0  0  0  0  0  0  0  0  0  0
   12.4198  -20.2996   21.4343 O   0  0  0  0  0  0  0  0  0  0  0  0
    9.9256  -16.2610   22.4488 C   0  0  0  0  0  0  0  0  0  0  0  0
   10.8518  -15.3741   22.3983 O   0  0  0  0  0  0  0  0  0  0  0  0
   11.0221  -20.6721   19.6745 O   0  0  0  0  0  0  0  0  0  0  0  0
    9.4658  -16.6641   23.7305 N   0  0  0  0  0  0  0  0  0  0  0  0
   10.0332  -15.9695   24.9005 C   0  0  1  0  0  0  0  0  0  0  0  0
    8.8649  -15.8294   25.8607 C   0  0  0  0  0  0  0  0  0  0  0  0
    9.2849  -15.1278   27.0941 C   0  0  0  0  0  0  0  0  0  0  0  0
    9.8313  -15.7882   28.1742 C   0  0  0  0  0  0  0  0  0  0  0  0
   10.2250  -15.1014   29.3215 C   0  0  0  0  0  0  0  0  0  0  0  0
   10.0850  -13.7345   29.4255 C   0  0  0  0  0  0  0  0  0  0  0  0
    9.5399  -13.0619   28.3530 C   0  0  0  0  0  0  0  0  0  0  0  0
    9.1511  -13.7409   27.2196 C   0  0  0  0  0  0  0  0  0  0  0  0
   11.1195  -16.7817   25.4663 C   0  0  0  0  0  0  0  0  0  0  0  0
   12.1645  -16.2465   25.8643 O   0  0  0  0  0  0  0  0  0  0  0  0
   10.9940  -18.1528   25.5644 O   0  0  0  0  0  0  0  0  0  0  0  0
  2  1  1  0
  3  2  1  0
  3  4  1  1
  5  3  1  0
  5  6  2  0
  7  5  1  0
  8  7  1  0
  8  9  1  6
 10  9  1  0
 10 11  1  0
 11 15  1  0
 12 11  2  0
 13  8  1  0
 14 13  2  0
 16 13  1  0
 17 16  1  0
 17 18  1  1
 18 19  1  0
 19 20  2  0
 20 21  1  0
 22 21  2  0
 23 22  1  0
 24 19  1  0
 24 23  2  0
 25 27  1  0
 25 17  1  0
 26 25  2  0
M  END
$$$$
