SEF.pdb
     RDKit          3D

 27 27  0  0  1  0  0  0  0  0999 V2000
    8.4480  -12.6568   18.9457 O   0  0  0  0  0  0  0  0  0  0  0  0
    9.3871  -13.4299   18.2823 C   0  0  0  0  0  0  0  0  0  0  0  0
    8.8321  -14.8183   17.9499 C   0  0  2  0  0  0  0  0  0  0  0  0
    7.6259  -14.7000   17.1926 N   0  0  0  0  0  0  0  0  0  0  0  0
    8.5889  -15.4729   19.2863 C   0  0  0  0  0  0  0  0  0  0  0  0
    7.4332  -15.4641   19.7786 O   0  0  0  0  0  0  0  0  0  0  0  0
    9.7277  -16.0611   19.8895 N   0  0  0  0  0  0  0  0  0  0  0  0
    9.5402  -16.7994   21.1427 C   0  0  1  0  0  0  0  0  0  0  0  0
   10.5783  -17.8743   21.1670 C   0  0  0  0  0  0  0  0  0  0  0  0
   11.9806  -17.4487   21.4026 C   0  0  0  0  0  0  0  0  0  0  0  0
   12.8754  -18.6672   21.2697 C   0  0  0  0  0  0  0  0  0  0  0  0
   13.7290  -18.6360   20.3672 O   0  0  0  0  0  0  0  0  0  0  0  0
    9.5208  -15.8827   22.2822 C   0  0  0  0  0  0  0  0  0  0  0  0
   10.2792  -14.8492   22.3425 O   0  0  0  0  0  0  0  0  0  0  0  0
   12.7567  -19.7530   22.0981 O   0  0  0  0  0  0  0  0  0  0  0  0
    8.6378  -16.1186   23.3691 N   0  0  0  0  0  0  0  0  0  0  0  0
    8.5865  -15.0975   24.4312 C   0  0  1  0  0  0  0  0  0  0  0  0
    7.2670  -14.3808   24.2036 C   0  0  0  0  0  0  0  0  0  0  0  0
    7.0246  -13.3836   25.2698 C   0  0  0  0  0  0  0  0  0  0  0  0
    7.5953  -12.1284   25.2557 C   0  0  0  0  0  0  0  0  0  0  0  0
    7.3441  -11.2056   26.2697 C   0  0  0  0  0  0  0  0  0  0  0  0
    6.5158  -11.5077   27.3286 C   0  0  0  0  0  0  0  0  0  0  0  0
    5.9389  -12.7591   27.3552 C   0  0  0  0  0  0  0  0  0  0  0  0
    6.1872  -13.6706   26.3531 C   0  0  0  0  0  0  0  0  0  0  0  0
    8.6371  -15.7594   25.7424 C   0  0  0  0  0  0  0  0  0  0  0  0
    9.2071  -15.2168   26.7003 O   0  0  0  0  0  0  0  0  0  0  0  0
    8.0508  -16.9950   25.9290 O   0  0  0  0  0  0  0  0  0  0  0  0
  2  1  1  0
  3  2  1  0
  3  4  1  1
  5  3  1  0
  5  6  2  0
  7  5  1  0
  8  7  1  0
  8  9  1  1
 10  9  1  0
 10 11  1  0
 11 15  1  0
 12 11  2  0
 13  8  1  0
 14 13  2  0
 16 13  1  0
 17 16  1  0
 17 18  1  1
 18 19  1  0
 19 20  2  0
 20 21  1  0
 22 21  2  0
 23 22  1  0
 24 19  1  0
 24 23  2  0
 25 27  1  0
 25 17  1  0
 26 25  2  0
M  END
$$$$
