SEF.pdb
     RDKit          3D

 27 27  0  0  1  0  0  0  0  0999 V2000
    8.5623  -13.0842   21.4269 O   0  0  0  0  0  0  0  0  0  0  0  0
    7.3077  -13.6168   21.1781 C   0  0  0  0  0  0  0  0  0  0  0  0
    7.3989  -15.0881   20.7621 C   0  0  2  0  0  0  0  0  0  0  0  0
    6.1176  -15.5641   20.3447 N   0  0  0  0  0  0  0  0  0  0  0  0
    7.8892  -15.8124   21.9903 C   0  0  0  0  0  0  0  0  0  0  0  0
    7.0567  -16.3008   22.7944 O   0  0  0  0  0  0  0  0  0  0  0  0
    9.2970  -15.8800   22.1329 N   0  0  0  0  0  0  0  0  0  0  0  0
    9.8423  -16.7300   23.1963 C   0  0  1  0  0  0  0  0  0  0  0  0
   11.0672  -17.3809   22.6396 C   0  0  0  0  0  0  0  0  0  0  0  0
   10.8931  -18.2068   21.4186 C   0  0  0  0  0  0  0  0  0  0  0  0
   12.2478  -18.7684   21.0282 C   0  0  0  0  0  0  0  0  0  0  0  0
   12.2810  -19.4921   20.0186 O   0  0  0  0  0  0  0  0  0  0  0  0
   10.0117  -15.9647   24.4311 C   0  0  0  0  0  0  0  0  0  0  0  0
   10.7565  -14.9215   24.4933 O   0  0  0  0  0  0  0  0  0  0  0  0
   13.3840  -18.4974   21.7457 O   0  0  0  0  0  0  0  0  0  0  0  0
    9.3356  -16.3654   25.6139 N   0  0  0  0  0  0  0  0  0  0  0  0
    9.5659  -15.5619   26.8283 C   0  0  1  0  0  0  0  0  0  0  0  0
    8.1743  -15.2954   27.3750 C   0  0  0  0  0  0  0  0  0  0  0  0
    7.6182  -14.0500   26.8009 C   0  0  0  0  0  0  0  0  0  0  0  0
    6.3123  -13.9500   26.3696 C   0  0  0  0  0  0  0  0  0  0  0  0
    5.8121  -12.7620   25.8391 C   0  0  0  0  0  0  0  0  0  0  0  0
    6.6004  -11.6379   25.7227 C   0  0  0  0  0  0  0  0  0  0  0  0
    7.9080  -11.7240   26.1499 C   0  0  0  0  0  0  0  0  0  0  0  0
    8.4017  -12.8980   26.6741 C   0  0  0  0  0  0  0  0  0  0  0  0
   10.3914  -16.3319   27.7693 C   0  0  0  0  0  0  0  0  0  0  0  0
   10.6515  -17.5239   27.5495 O   0  0  0  0  0  0  0  0  0  0  0  0
   10.8909  -15.7408   28.9123 O   0  0  0  0  0  0  0  0  0  0  0  0
  2  1  1  0
  3  2  1  0
  3  4  1  1
  5  3  1  0
  5  6  2  0
  7  5  1  0
  8  7  1  0
  8  9  1  6
 10  9  1  0
 10 11  1  0
 11 15  1  0
 12 11  2  0
 13  8  1  0
 14 13  2  0
 16 13  1  0
 17 16  1  0
 17 18  1  1
 18 19  1  0
 19 20  2  0
 20 21  1  0
 22 21  2  0
 23 22  1  0
 24 19  1  0
 24 23  2  0
 25 27  1  0
 25 17  1  0
 26 25  2  0
M  END
$$$$
