SEF.pdb
     RDKit          3D

 27 27  0  0  1  0  0  0  0  0999 V2000
    7.7772  -12.2642   19.6726 O   0  0  0  0  0  0  0  0  0  0  0  0
    8.7770  -13.1982   19.8915 C   0  0  0  0  0  0  0  0  0  0  0  0
    8.3613  -14.5866   19.3959 C   0  0  2  0  0  0  0  0  0  0  0  0
    7.0972  -14.5167   18.7329 N   0  0  0  0  0  0  0  0  0  0  0  0
    8.2931  -15.4408   20.6366 C   0  0  0  0  0  0  0  0  0  0  0  0
    7.1768  -15.8379   21.0540 O   0  0  0  0  0  0  0  0  0  0  0  0
    9.5403  -15.7298   21.2431 N   0  0  0  0  0  0  0  0  0  0  0  0
    9.5926  -16.8138   22.2294 C   0  0  1  0  0  0  0  0  0  0  0  0
   10.6952  -17.7286   21.8036 C   0  0  0  0  0  0  0  0  0  0  0  0
   10.9230  -18.9378   22.6337 C   0  0  0  0  0  0  0  0  0  0  0  0
   12.0518  -19.7369   22.0088 C   0  0  0  0  0  0  0  0  0  0  0  0
   13.0966  -19.8392   22.6737 O   0  0  0  0  0  0  0  0  0  0  0  0
    9.6786  -16.2724   23.5854 C   0  0  0  0  0  0  0  0  0  0  0  0
   10.4646  -15.3040   23.8874 O   0  0  0  0  0  0  0  0  0  0  0  0
   11.9355  -20.3207   20.7739 O   0  0  0  0  0  0  0  0  0  0  0  0
    8.8711  -16.8152   24.6198 N   0  0  0  0  0  0  0  0  0  0  0  0
    9.1224  -16.3397   25.9924 C   0  0  1  0  0  0  0  0  0  0  0  0
    7.7620  -15.8831   26.4897 C   0  0  0  0  0  0  0  0  0  0  0  0
    7.5910  -14.4284   26.2787 C   0  0  0  0  0  0  0  0  0  0  0  0
    6.9455  -13.9091   25.1764 C   0  0  0  0  0  0  0  0  0  0  0  0
    6.7921  -12.5342   25.0061 C   0  0  0  0  0  0  0  0  0  0  0  0
    7.2786  -11.6359   25.9307 C   0  0  0  0  0  0  0  0  0  0  0  0
    7.9263  -12.1415   27.0374 C   0  0  0  0  0  0  0  0  0  0  0  0
    8.0775  -13.5001   27.2053 C   0  0  0  0  0  0  0  0  0  0  0  0
    9.6627  -17.4448   26.7966 C   0  0  0  0  0  0  0  0  0  0  0  0
    9.6602  -18.6038   26.3567 O   0  0  0  0  0  0  0  0  0  0  0  0
   10.1819  -17.2105   28.0540 O   0  0  0  0  0  0  0  0  0  0  0  0
  2  1  1  0
  3  2  1  0
  3  4  1  1
  5  3  1  0
  5  6  2  0
  7  5  1  0
  8  7  1  0
  8  9  1  6
 10  9  1  0
 10 11  1  0
 11 15  1  0
 12 11  2  0
 13  8  1  0
 14 13  2  0
 16 13  1  0
 17 16  1  0
 17 18  1  1
 18 19  1  0
 19 20  2  0
 20 21  1  0
 22 21  2  0
 23 22  1  0
 24 19  1  0
 24 23  2  0
 25 27  1  0
 25 17  1  0
 26 25  2  0
M  END
$$$$
