SEF.pdb
     RDKit          3D

 27 27  0  0  1  0  0  0  0  0999 V2000
    7.3886  -12.7271   22.0102 O   0  0  0  0  0  0  0  0  0  0  0  0
    8.0401  -13.1748   20.8723 C   0  0  0  0  0  0  0  0  0  0  0  0
    7.5589  -14.5715   20.4674 C   0  0  2  0  0  0  0  0  0  0  0  0
    6.1415  -14.5721   20.2842 N   0  0  0  0  0  0  0  0  0  0  0  0
    7.9743  -15.4729   21.6025 C   0  0  0  0  0  0  0  0  0  0  0  0
    7.0952  -15.9882   22.3371 O   0  0  0  0  0  0  0  0  0  0  0  0
    9.3706  -15.6653   21.7440 N   0  0  0  0  0  0  0  0  0  0  0  0
    9.8331  -16.7005   22.6743 C   0  0  1  0  0  0  0  0  0  0  0  0
   11.1188  -17.2281   22.1245 C   0  0  0  0  0  0  0  0  0  0  0  0
   11.7549  -18.3487   22.8613 C   0  0  0  0  0  0  0  0  0  0  0  0
   13.0123  -18.7547   22.1149 C   0  0  0  0  0  0  0  0  0  0  0  0
   13.4707  -19.8818   22.3673 O   0  0  0  0  0  0  0  0  0  0  0  0
    9.8694  -16.1842   24.0423 C   0  0  0  0  0  0  0  0  0  0  0  0
   10.5810  -15.1685   24.3721 O   0  0  0  0  0  0  0  0  0  0  0  0
   13.6201  -17.9277   21.2061 O   0  0  0  0  0  0  0  0  0  0  0  0
    9.0956  -16.8066   25.0575 N   0  0  0  0  0  0  0  0  0  0  0  0
    9.2505  -16.2972   26.4322 C   0  0  1  0  0  0  0  0  0  0  0  0
    7.8338  -15.9857   26.8821 C   0  0  0  0  0  0  0  0  0  0  0  0
    7.4814  -14.5846   26.5622 C   0  0  0  0  0  0  0  0  0  0  0  0
    8.2983  -13.5215   26.8846 C   0  0  0  0  0  0  0  0  0  0  0  0
    7.9450  -12.2116   26.5649 C   0  0  0  0  0  0  0  0  0  0  0  0
    6.7653  -11.9230   25.9139 C   0  0  0  0  0  0  0  0  0  0  0  0
    5.9391  -12.9764   25.5859 C   0  0  0  0  0  0  0  0  0  0  0  0
    6.2887  -14.2705   25.9018 C   0  0  0  0  0  0  0  0  0  0  0  0
    9.8798  -17.3323   27.2644 C   0  0  0  0  0  0  0  0  0  0  0  0
   10.0286  -18.4843   26.8313 O   0  0  0  0  0  0  0  0  0  0  0  0
   10.3158  -17.0389   28.5408 O   0  0  0  0  0  0  0  0  0  0  0  0
  2  1  1  0
  3  2  1  0
  3  4  1  1
  5  3  1  0
  5  6  2  0
  7  5  1  0
  8  7  1  0
  8  9  1  6
 10  9  1  0
 10 11  1  0
 11 15  1  0
 12 11  2  0
 13  8  1  0
 14 13  2  0
 16 13  1  0
 17 16  1  0
 17 18  1  1
 18 19  1  0
 19 20  2  0
 20 21  1  0
 22 21  2  0
 23 22  1  0
 24 19  1  0
 24 23  2  0
 25 27  1  0
 25 17  1  0
 26 25  2  0
M  END
$$$$
