SEF.pdb
     RDKit          3D

 27 27  0  0  1  0  0  0  0  0999 V2000
    7.1819  -12.8332   22.1158 O   0  0  0  0  0  0  0  0  0  0  0  0
    8.0009  -13.3371   21.1182 C   0  0  0  0  0  0  0  0  0  0  0  0
    7.6059  -14.7686   20.7425 C   0  0  2  0  0  0  0  0  0  0  0  0
    6.1994  -14.8459   20.5007 N   0  0  0  0  0  0  0  0  0  0  0  0
    8.0150  -15.6105   21.9246 C   0  0  0  0  0  0  0  0  0  0  0  0
    7.1314  -16.1600   22.6285 O   0  0  0  0  0  0  0  0  0  0  0  0
    9.4110  -15.7103   22.1437 N   0  0  0  0  0  0  0  0  0  0  0  0
    9.8854  -16.6797   23.1366 C   0  0  1  0  0  0  0  0  0  0  0  0
   11.1250  -17.2976   22.5749 C   0  0  0  0  0  0  0  0  0  0  0  0
   11.7412  -18.3979   23.3578 C   0  0  0  0  0  0  0  0  0  0  0  0
   12.9974  -18.8489   22.6354 C   0  0  0  0  0  0  0  0  0  0  0  0
   12.8533  -19.7120   21.7531 O   0  0  0  0  0  0  0  0  0  0  0  0
   10.0056  -16.0522   24.4523 C   0  0  0  0  0  0  0  0  0  0  0  0
   10.7354  -15.0158   24.6525 O   0  0  0  0  0  0  0  0  0  0  0  0
   14.2336  -18.3367   22.9331 O   0  0  0  0  0  0  0  0  0  0  0  0
    9.2962  -16.5850   25.5612 N   0  0  0  0  0  0  0  0  0  0  0  0
    9.5626  -15.9885   26.8828 C   0  0  1  0  0  0  0  0  0  0  0  0
    8.1948  -15.5663   27.3900 C   0  0  0  0  0  0  0  0  0  0  0  0
    7.7787  -14.2901   26.7670 C   0  0  0  0  0  0  0  0  0  0  0  0
    6.7157  -14.2026   25.8930 C   0  0  0  0  0  0  0  0  0  0  0  0
    6.3407  -12.9858   25.3259 C   0  0  0  0  0  0  0  0  0  0  0  0
    7.0156  -11.8194   25.6137 C   0  0  0  0  0  0  0  0  0  0  0  0
    8.0805  -11.8926   26.4857 C   0  0  0  0  0  0  0  0  0  0  0  0
    8.4505  -13.0951   27.0459 C   0  0  0  0  0  0  0  0  0  0  0  0
   10.1877  -16.9955   27.7517 C   0  0  0  0  0  0  0  0  0  0  0  0
   10.4761  -16.7225   28.9261 O   0  0  0  0  0  0  0  0  0  0  0  0
   10.4634  -18.2612   27.2751 O   0  0  0  0  0  0  0  0  0  0  0  0
  2  1  1  0
  3  2  1  0
  3  4  1  1
  5  3  1  0
  5  6  2  0
  7  5  1  0
  8  7  1  0
  8  9  1  6
 10  9  1  0
 10 11  1  0
 11 15  1  0
 12 11  2  0
 13  8  1  0
 14 13  2  0
 16 13  1  0
 17 16  1  0
 17 18  1  1
 18 19  1  0
 19 20  2  0
 20 21  1  0
 22 21  2  0
 23 22  1  0
 24 19  1  0
 24 23  2  0
 25 27  1  0
 25 17  1  0
 26 25  2  0
M  END
$$$$
