SEF.pdb
     RDKit          3D

 27 27  0  0  1  0  0  0  0  0999 V2000
    8.1247  -12.1837   21.4320 O   0  0  0  0  0  0  0  0  0  0  0  0
    8.5883  -13.0225   20.4314 C   0  0  0  0  0  0  0  0  0  0  0  0
    7.6197  -14.1828   20.1831 C   0  0  2  0  0  0  0  0  0  0  0  0
    6.2772  -13.6983   20.1075 N   0  0  0  0  0  0  0  0  0  0  0  0
    7.8117  -15.1108   21.3558 C   0  0  0  0  0  0  0  0  0  0  0  0
    6.8745  -15.2735   22.1763 O   0  0  0  0  0  0  0  0  0  0  0  0
    9.0789  -15.7397   21.4302 N   0  0  0  0  0  0  0  0  0  0  0  0
    9.2718  -16.7845   22.4411 C   0  0  1  0  0  0  0  0  0  0  0  0
   10.3713  -17.6658   21.9429 C   0  0  0  0  0  0  0  0  0  0  0  0
   10.7038  -18.8555   22.7660 C   0  0  0  0  0  0  0  0  0  0  0  0
   11.8691  -19.5747   22.1120 C   0  0  0  0  0  0  0  0  0  0  0  0
   13.0083  -19.1931   22.4293 O   0  0  0  0  0  0  0  0  0  0  0  0
    9.4576  -16.1917   23.7652 C   0  0  0  0  0  0  0  0  0  0  0  0
   10.2361  -15.1911   23.9643 O   0  0  0  0  0  0  0  0  0  0  0  0
   11.6858  -20.5951   21.2151 O   0  0  0  0  0  0  0  0  0  0  0  0
    8.7599  -16.7190   24.8841 N   0  0  0  0  0  0  0  0  0  0  0  0
    9.1065  -16.1792   26.2115 C   0  0  1  0  0  0  0  0  0  0  0  0
    7.7693  -15.8162   26.8332 C   0  0  0  0  0  0  0  0  0  0  0  0
    7.3786  -14.4380   26.4621 C   0  0  0  0  0  0  0  0  0  0  0  0
    6.2326  -14.1581   25.7481 C   0  0  0  0  0  0  0  0  0  0  0  0
    5.8847  -12.8494   25.4179 C   0  0  0  0  0  0  0  0  0  0  0  0
    6.6702  -11.7803   25.7902 C   0  0  0  0  0  0  0  0  0  0  0  0
    7.8189  -12.0459   26.5042 C   0  0  0  0  0  0  0  0  0  0  0  0
    8.1622  -13.3391   26.8303 C   0  0  0  0  0  0  0  0  0  0  0  0
    9.8137  -17.2102   26.9840 C   0  0  0  0  0  0  0  0  0  0  0  0
    9.9316  -18.3610   26.5385 O   0  0  0  0  0  0  0  0  0  0  0  0
   10.3585  -16.9141   28.2172 O   0  0  0  0  0  0  0  0  0  0  0  0
  2  1  1  0
  3  2  1  0
  3  4  1  1
  5  3  1  0
  5  6  2  0
  7  5  1  0
  8  7  1  0
  8  9  1  6
 10  9  1  0
 10 11  1  0
 11 15  1  0
 12 11  2  0
 13  8  1  0
 14 13  2  0
 16 13  1  0
 17 16  1  0
 17 18  1  1
 18 19  1  0
 19 20  2  0
 20 21  1  0
 22 21  2  0
 23 22  1  0
 24 19  1  0
 24 23  2  0
 25 27  1  0
 25 17  1  0
 26 25  2  0
M  END
$$$$
