SEF.pdb
     RDKit          3D

 27 27  0  0  1  0  0  0  0  0999 V2000
    9.4695  -13.7184   19.1815 O   0  0  0  0  0  0  0  0  0  0  0  0
    8.1436  -14.0505   18.9546 C   0  0  0  0  0  0  0  0  0  0  0  0
    7.2424  -13.5543   20.0893 C   0  0  2  0  0  0  0  0  0  0  0  0
    7.6239  -12.2342   20.4821 N   0  0  0  0  0  0  0  0  0  0  0  0
    7.4384  -14.5467   21.2074 C   0  0  0  0  0  0  0  0  0  0  0  0
    6.6510  -14.5397   22.1862 O   0  0  0  0  0  0  0  0  0  0  0  0
    8.5335  -15.4310   21.0481 N   0  0  0  0  0  0  0  0  0  0  0  0
    8.6890  -16.5180   22.0202 C   0  0  1  0  0  0  0  0  0  0  0  0
    9.6509  -17.4936   21.4229 C   0  0  0  0  0  0  0  0  0  0  0  0
    9.9792  -18.6942   22.2316 C   0  0  0  0  0  0  0  0  0  0  0  0
   10.9535  -19.5476   21.4407 C   0  0  0  0  0  0  0  0  0  0  0  0
   10.5544  -20.6717   21.0928 O   0  0  0  0  0  0  0  0  0  0  0  0
    9.0317  -15.9848   23.3383 C   0  0  0  0  0  0  0  0  0  0  0  0
    9.9081  -15.0609   23.4964 O   0  0  0  0  0  0  0  0  0  0  0  0
   12.2128  -19.1103   21.1207 O   0  0  0  0  0  0  0  0  0  0  0  0
    8.3828  -16.4855   24.4981 N   0  0  0  0  0  0  0  0  0  0  0  0
    8.8695  -16.0055   25.8043 C   0  0  1  0  0  0  0  0  0  0  0  0
    7.6121  -15.5867   26.5459 C   0  0  0  0  0  0  0  0  0  0  0  0
    7.3775  -14.1334   26.3952 C   0  0  0  0  0  0  0  0  0  0  0  0
    6.1259  -13.6037   26.1619 C   0  0  0  0  0  0  0  0  0  0  0  0
    5.9321  -12.2296   26.0311 C   0  0  0  0  0  0  0  0  0  0  0  0
    6.9818  -11.3424   26.1289 C   0  0  0  0  0  0  0  0  0  0  0  0
    8.2385  -11.8584   26.3618 C   0  0  0  0  0  0  0  0  0  0  0  0
    8.4295  -13.2162   26.4911 C   0  0  0  0  0  0  0  0  0  0  0  0
    9.5772  -17.0968   26.4884 C   0  0  0  0  0  0  0  0  0  0  0  0
   10.0607  -16.9241   27.6168 O   0  0  0  0  0  0  0  0  0  0  0  0
    9.7147  -18.3314   25.8866 O   0  0  0  0  0  0  0  0  0  0  0  0
  2  1  1  0
  3  2  1  0
  3  4  1  1
  5  3  1  0
  5  6  2  0
  7  5  1  0
  8  7  1  0
  8  9  1  6
 10  9  1  0
 10 11  1  0
 11 15  1  0
 12 11  2  0
 13  8  1  0
 14 13  2  0
 16 13  1  0
 17 16  1  0
 17 18  1  1
 18 19  1  0
 19 20  2  0
 20 21  1  0
 22 21  2  0
 23 22  1  0
 24 19  1  0
 24 23  2  0
 25 27  1  0
 25 17  1  0
 26 25  2  0
M  END
$$$$
