MMT.pdb
     RDKit          3D

 24 23  0  0  1  0  0  0  0  0999 V2000
    8.1170  -11.4423   26.7747 C   0  0  0  0  0  0  0  0  0  0  0  0
    6.5707  -12.3228   27.0267 S   0  0  0  0  0  0  0  0  0  0  0  0
    6.9068  -14.1170   27.0280 C   0  0  0  0  0  0  0  0  0  0  0  0
    6.5779  -14.6466   25.6592 C   0  0  0  0  0  0  0  0  0  0  0  0
    7.3434  -15.8885   25.2803 C   0  0  2  0  0  0  0  0  0  0  0  0
    8.7600  -15.5321   25.4432 N   0  0  0  0  0  0  0  0  0  0  0  0
    7.1690  -16.1157   23.8183 C   0  0  0  0  0  0  0  0  0  0  0  0
    6.0259  -16.5520   23.4548 O   0  0  0  0  0  0  0  0  0  0  0  0
    8.2992  -11.0248   20.5687 C   0  0  0  0  0  0  0  0  0  0  0  0
    8.3899  -12.7000   19.9578 S   0  0  0  0  0  0  0  0  0  0  0  0
    7.5482  -13.9010   20.9556 C   0  0  0  0  0  0  0  0  0  0  0  0
    7.6143  -15.3208   20.5679 C   0  0  0  0  0  0  0  0  0  0  0  0
    8.0760  -16.3504   21.5198 C   0  0  2  0  0  0  0  0  0  0  0  0
    8.1919  -15.8711   22.8673 N   0  0  0  0  0  0  0  0  0  0  0  0
    9.1724  -17.2199   21.0870 C   0  0  0  0  0  0  0  0  0  0  0  0
    9.2377  -17.7558   19.9461 O   0  0  0  0  0  0  0  0  0  0  0  0
   12.5009  -17.0476   20.1494 C   0  0  0  0  0  0  0  0  0  0  0  0
   12.5244  -17.8923   21.4014 C   0  0  1  0  0  0  0  0  0  0  0  0
   12.9252  -17.0897   22.4557 O   0  0  0  0  0  0  0  0  0  0  0  0
   11.1982  -18.5750   21.6462 C   0  0  2  0  0  0  0  0  0  0  0  0
   10.2445  -17.5045   21.9642 N   0  0  0  0  0  0  0  0  0  0  0  0
   11.3162  -19.5295   22.7568 C   0  0  0  0  0  0  0  0  0  0  0  0
   12.1845  -20.6195   22.7287 O   0  0  0  0  0  0  0  0  0  0  0  0
   10.5904  -19.3327   23.7671 O   0  0  0  0  0  0  0  0  0  0  0  0
  1  2  1  0
  3  2  1  0
  4  3  1  0
  5  4  1  0
  5  6  1  6
  7  8  2  0
  7  5  1  0
  9 10  1  0
 10 11  1  0
 11 12  1  0
 13 12  1  6
 13 14  1  0
 14  7  1  0
 15 21  1  0
 15 13  1  0
 16 15  2  0
 18 17  1  6
 18 20  1  0
 19 18  1  0
 20 21  1  1
 20 22  1  0
 22 23  1  0
 24 22  2  0
M  END
$$$$
