MMT.pdb
     RDKit          3D

 24 23  0  0  1  0  0  0  0  0999 V2000
    8.9211  -11.5427   19.8151 C   0  0  0  0  0  0  0  0  0  0  0  0
    7.7447  -12.5408   18.8933 S   0  0  0  0  0  0  0  0  0  0  0  0
    7.9039  -14.2803   19.4233 C   0  0  0  0  0  0  0  0  0  0  0  0
    8.4534  -14.2851   20.8234 C   0  0  0  0  0  0  0  0  0  0  0  0
    8.7394  -15.6616   21.3668 C   0  0  2  0  0  0  0  0  0  0  0  0
    7.4795  -16.4037   21.2177 N   0  0  0  0  0  0  0  0  0  0  0  0
    8.9480  -15.5481   22.8376 C   0  0  0  0  0  0  0  0  0  0  0  0
   10.1539  -15.3724   23.2173 O   0  0  0  0  0  0  0  0  0  0  0  0
    7.1672  -11.7389   27.7681 C   0  0  0  0  0  0  0  0  0  0  0  0
    6.2707  -11.9630   26.2404 S   0  0  0  0  0  0  0  0  0  0  0  0
    6.8527  -13.2972   25.2266 C   0  0  0  0  0  0  0  0  0  0  0  0
    7.2563  -14.5583   25.8723 C   0  0  0  0  0  0  0  0  0  0  0  0
    8.1481  -15.5146   25.1870 C   0  0  2  0  0  0  0  0  0  0  0  0
    7.8912  -15.6266   23.7797 N   0  0  0  0  0  0  0  0  0  0  0  0
    8.4097  -16.7885   25.8610 C   0  0  0  0  0  0  0  0  0  0  0  0
    7.5191  -17.4823   26.4253 O   0  0  0  0  0  0  0  0  0  0  0  0
    9.7388  -19.7825   24.3359 C   0  0  0  0  0  0  0  0  0  0  0  0
   10.6616  -19.4593   25.4874 C   0  0  1  0  0  0  0  0  0  0  0  0
   11.8026  -18.8681   24.9727 O   0  0  0  0  0  0  0  0  0  0  0  0
    9.9779  -18.6147   26.5381 C   0  0  2  0  0  0  0  0  0  0  0  0
    9.7220  -17.3132   25.9076 N   0  0  0  0  0  0  0  0  0  0  0  0
   10.8426  -18.4736   27.7174 C   0  0  0  0  0  0  0  0  0  0  0  0
   11.3926  -17.2548   28.1110 O   0  0  0  0  0  0  0  0  0  0  0  0
   11.0826  -19.5140   28.3853 O   0  0  0  0  0  0  0  0  0  0  0  0
  1  2  1  0
  3  2  1  0
  4  3  1  0
  5  4  1  0
  5  6  1  1
  7  8  2  0
  7  5  1  0
  9 10  1  0
 10 11  1  0
 11 12  1  0
 13 12  1  1
 13 14  1  0
 14  7  1  0
 15 21  1  0
 15 13  1  0
 16 15  2  0
 18 17  1  6
 18 20  1  0
 19 18  1  0
 20 21  1  6
 20 22  1  0
 22 23  1  0
 24 22  2  0
M  END
$$$$
