MMT.pdb
     RDKit          3D

 24 23  0  0  1  0  0  0  0  0999 V2000
    1.6107  -20.0249   23.6111 C   0  0  0  0  0  0  0  0  0  0  0  0
    1.6476  -19.1188   22.0595 S   0  0  0  0  0  0  0  0  0  0  0  0
    3.1886  -19.5311   21.1720 C   0  0  0  0  0  0  0  0  0  0  0  0
    4.3403  -19.0015   21.9815 C   0  0  0  0  0  0  0  0  0  0  0  0
    4.7284  -17.5846   21.6442 C   0  0  2  0  0  0  0  0  0  0  0  0
    5.3114  -17.6557   20.2968 N   0  0  0  0  0  0  0  0  0  0  0  0
    5.8569  -17.1866   22.5317 C   0  0  0  0  0  0  0  0  0  0  0  0
    7.0265  -17.4728   22.1081 O   0  0  0  0  0  0  0  0  0  0  0  0
    5.9432  -11.8517   26.5257 C   0  0  0  0  0  0  0  0  0  0  0  0
    7.1537  -12.9373   27.2630 S   0  0  0  0  0  0  0  0  0  0  0  0
    7.5429  -14.3770   26.3026 C   0  0  0  0  0  0  0  0  0  0  0  0
    6.5325  -14.9046   25.3692 C   0  0  0  0  0  0  0  0  0  0  0  0
    6.7969  -16.1122   24.5622 C   0  0  2  0  0  0  0  0  0  0  0  0
    5.6724  -16.5298   23.7746 N   0  0  0  0  0  0  0  0  0  0  0  0
    7.5252  -17.2053   25.2103 C   0  0  0  0  0  0  0  0  0  0  0  0
    7.0084  -17.9979   26.0456 O   0  0  0  0  0  0  0  0  0  0  0  0
    9.2710  -20.0774   23.7210 C   0  0  0  0  0  0  0  0  0  0  0  0
   10.2900  -19.3129   24.5328 C   0  0  1  0  0  0  0  0  0  0  0  0
   11.0639  -18.5666   23.6609 O   0  0  0  0  0  0  0  0  0  0  0  0
    9.6398  -18.4781   25.6123 C   0  0  2  0  0  0  0  0  0  0  0  0
    8.8902  -17.4259   24.9138 N   0  0  0  0  0  0  0  0  0  0  0  0
   10.6637  -17.9046   26.4961 C   0  0  0  0  0  0  0  0  0  0  0  0
   11.4750  -18.6835   27.3194 O   0  0  0  0  0  0  0  0  0  0  0  0
   10.7946  -16.6519   26.4916 O   0  0  0  0  0  0  0  0  0  0  0  0
  1  2  1  0
  3  2  1  0
  4  3  1  0
  5  4  1  0
  5  6  1  6
  7  8  2  0
  7  5  1  0
  9 10  1  0
 10 11  1  0
 11 12  1  0
 13 12  1  1
 13 14  1  0
 14  7  1  0
 15 21  1  0
 15 13  1  0
 16 15  2  0
 18 17  1  6
 18 20  1  0
 19 18  1  0
 20 21  1  6
 20 22  1  0
 22 23  1  0
 24 22  2  0
M  END
$$$$
