MMT.pdb
     RDKit          3D

 24 23  0  0  1  0  0  0  0  0999 V2000
    8.2341  -11.6297   19.8302 C   0  0  0  0  0  0  0  0  0  0  0  0
    7.9837  -12.9184   18.6028 S   0  0  0  0  0  0  0  0  0  0  0  0
    7.8978  -14.5325   19.4511 C   0  0  0  0  0  0  0  0  0  0  0  0
    8.9496  -14.5425   20.5262 C   0  0  0  0  0  0  0  0  0  0  0  0
    8.9480  -15.7874   21.3760 C   0  0  2  0  0  0  0  0  0  0  0  0
    7.5657  -16.2846   21.3277 N   0  0  0  0  0  0  0  0  0  0  0  0
    9.1630  -15.3840   22.7940 C   0  0  0  0  0  0  0  0  0  0  0  0
   10.3585  -15.0651   23.1073 O   0  0  0  0  0  0  0  0  0  0  0  0
    5.0379  -11.7516   26.5360 C   0  0  0  0  0  0  0  0  0  0  0  0
    6.6802  -11.7291   27.2361 S   0  0  0  0  0  0  0  0  0  0  0  0
    7.6796  -13.1375   26.8308 C   0  0  0  0  0  0  0  0  0  0  0  0
    7.5730  -13.7219   25.4827 C   0  0  0  0  0  0  0  0  0  0  0  0
    8.3737  -14.9007   25.0971 C   0  0  2  0  0  0  0  0  0  0  0  0
    8.1227  -15.3475   23.7568 N   0  0  0  0  0  0  0  0  0  0  0  0
    8.5010  -15.9762   26.0832 C   0  0  0  0  0  0  0  0  0  0  0  0
    8.7078  -15.7829   27.3132 O   0  0  0  0  0  0  0  0  0  0  0  0
    6.5732  -19.5675   25.8127 C   0  0  0  0  0  0  0  0  0  0  0  0
    8.0672  -19.6618   26.0145 C   0  0  1  0  0  0  0  0  0  0  0  0
    8.6487  -19.9657   24.7956 O   0  0  0  0  0  0  0  0  0  0  0  0
    8.6314  -18.4093   26.6453 C   0  0  2  0  0  0  0  0  0  0  0  0
    8.3922  -17.3276   25.6812 N   0  0  0  0  0  0  0  0  0  0  0  0
   10.0664  -18.5772   26.9113 C   0  0  0  0  0  0  0  0  0  0  0  0
   10.5652  -19.5296   27.7985 O   0  0  0  0  0  0  0  0  0  0  0  0
   10.8604  -17.8152   26.2987 O   0  0  0  0  0  0  0  0  0  0  0  0
  1  2  1  0
  3  2  1  0
  4  3  1  0
  5  4  1  0
  5  6  1  1
  7  8  2  0
  7  5  1  0
  9 10  1  0
 10 11  1  0
 11 12  1  0
 13 12  1  1
 13 14  1  0
 14  7  1  0
 15 21  1  0
 15 13  1  0
 16 15  2  0
 18 17  1  6
 18 20  1  0
 19 18  1  0
 20 21  1  6
 20 22  1  0
 22 23  1  0
 24 22  2  0
M  END
$$$$
