MMT.pdb
     RDKit          3D

 24 23  0  0  1  0  0  0  0  0999 V2000
    7.2005  -18.0740   18.9855 C   0  0  0  0  0  0  0  0  0  0  0  0
    7.3574  -16.9188   17.6178 S   0  0  0  0  0  0  0  0  0  0  0  0
    7.2267  -15.2169   18.2650 C   0  0  0  0  0  0  0  0  0  0  0  0
    7.7191  -15.2272   19.6861 C   0  0  0  0  0  0  0  0  0  0  0  0
    7.4768  -13.9388   20.4299 C   0  0  2  0  0  0  0  0  0  0  0  0
    8.3642  -12.9547   19.7942 N   0  0  0  0  0  0  0  0  0  0  0  0
    8.0032  -14.0941   21.8150 C   0  0  0  0  0  0  0  0  0  0  0  0
    9.2709  -14.0150   21.9412 O   0  0  0  0  0  0  0  0  0  0  0  0
    6.7768  -11.3573   27.9606 C   0  0  0  0  0  0  0  0  0  0  0  0
    5.8313  -11.4866   26.4517 S   0  0  0  0  0  0  0  0  0  0  0  0
    6.6560  -12.3330   25.1287 C   0  0  0  0  0  0  0  0  0  0  0  0
    7.0106  -13.7522   25.3032 C   0  0  0  0  0  0  0  0  0  0  0  0
    7.7326  -14.4928   24.2498 C   0  0  2  0  0  0  0  0  0  0  0  0
    7.1710  -14.3167   22.9412 N   0  0  0  0  0  0  0  0  0  0  0  0
    8.1425  -15.8652   24.5563 C   0  0  0  0  0  0  0  0  0  0  0  0
    7.3611  -16.8560   24.5299 O   0  0  0  0  0  0  0  0  0  0  0  0
   10.5044  -17.9248   22.8794 C   0  0  0  0  0  0  0  0  0  0  0  0
   10.9879  -17.8915   24.3101 C   0  0  1  0  0  0  0  0  0  0  0  0
   12.0805  -17.0439   24.3764 O   0  0  0  0  0  0  0  0  0  0  0  0
    9.8836  -17.5121   25.2700 C   0  0  2  0  0  0  0  0  0  0  0  0
    9.4833  -16.1465   24.9072 N   0  0  0  0  0  0  0  0  0  0  0  0
   10.3713  -17.5734   26.6545 C   0  0  0  0  0  0  0  0  0  0  0  0
   10.8107  -18.7544   27.2503 O   0  0  0  0  0  0  0  0  0  0  0  0
   10.3831  -16.4985   27.3108 O   0  0  0  0  0  0  0  0  0  0  0  0
  1  2  1  0
  3  2  1  0
  4  3  1  0
  5  4  1  0
  5  6  1  6
  7  8  2  0
  7  5  1  0
  9 10  1  0
 10 11  1  0
 11 12  1  0
 13 12  1  1
 13 14  1  0
 14  7  1  0
 15 21  1  0
 15 13  1  0
 16 15  2  0
 18 17  1  6
 18 20  1  0
 19 18  1  0
 20 21  1  6
 20 22  1  0
 22 23  1  0
 24 22  2  0
M  END
$$$$
