MMT.pdb
     RDKit          3D

 24 23  0  0  1  0  0  0  0  0999 V2000
    8.2768  -12.1124   18.7920 C   0  0  0  0  0  0  0  0  0  0  0  0
    6.8684  -13.1678   19.1561 S   0  0  0  0  0  0  0  0  0  0  0  0
    7.4733  -14.7278   19.8862 C   0  0  0  0  0  0  0  0  0  0  0  0
    8.8133  -14.4527   20.5113 C   0  0  0  0  0  0  0  0  0  0  0  0
    9.4856  -15.6732   21.0860 C   0  0  2  0  0  0  0  0  0  0  0  0
    9.2845  -16.7306   20.0851 N   0  0  0  0  0  0  0  0  0  0  0  0
    8.7077  -16.1168   22.2766 C   0  0  0  0  0  0  0  0  0  0  0  0
    8.9352  -17.3065   22.6791 O   0  0  0  0  0  0  0  0  0  0  0  0
    6.6212  -11.2906   28.2827 C   0  0  0  0  0  0  0  0  0  0  0  0
    6.4245  -11.7943   26.5812 S   0  0  0  0  0  0  0  0  0  0  0  0
    7.2489  -13.3058   26.1540 C   0  0  0  0  0  0  0  0  0  0  0  0
    7.1910  -13.7788   24.7600 C   0  0  0  0  0  0  0  0  0  0  0  0
    7.8918  -15.0094   24.3427 C   0  0  2  0  0  0  0  0  0  0  0  0
    7.7668  -15.2899   22.9411 N   0  0  0  0  0  0  0  0  0  0  0  0
    7.7632  -16.1815   25.2116 C   0  0  0  0  0  0  0  0  0  0  0  0
    6.6579  -16.6765   25.5670 O   0  0  0  0  0  0  0  0  0  0  0  0
    8.3449  -19.5240   24.6610 C   0  0  0  0  0  0  0  0  0  0  0  0
    9.2805  -19.1823   25.7967 C   0  0  1  0  0  0  0  0  0  0  0  0
   10.5477  -18.9981   25.2709 O   0  0  0  0  0  0  0  0  0  0  0  0
    8.7903  -17.9949   26.5934 C   0  0  2  0  0  0  0  0  0  0  0  0
    8.9175  -16.8316   25.7060 N   0  0  0  0  0  0  0  0  0  0  0  0
    9.6007  -17.8290   27.8075 C   0  0  0  0  0  0  0  0  0  0  0  0
    9.6105  -18.7610   28.8440 O   0  0  0  0  0  0  0  0  0  0  0  0
   10.3090  -16.7910   27.8918 O   0  0  0  0  0  0  0  0  0  0  0  0
  1  2  1  0
  3  2  1  0
  4  3  1  0
  5  4  1  0
  5  6  1  6
  7  8  2  0
  7  5  1  0
  9 10  1  0
 10 11  1  0
 11 12  1  0
 13 12  1  1
 13 14  1  0
 14  7  1  0
 15 21  1  0
 15 13  1  0
 16 15  2  0
 18 17  1  6
 18 20  1  0
 19 18  1  0
 20 21  1  6
 20 22  1  0
 22 23  1  0
 24 22  2  0
M  END
$$$$
