MMT.pdb
     RDKit          3D

 24 23  0  0  1  0  0  0  0  0999 V2000
    5.6099  -18.8768   20.6831 C   0  0  0  0  0  0  0  0  0  0  0  0
    7.1134  -19.1239   19.7300 S   0  0  0  0  0  0  0  0  0  0  0  0
    8.2196  -17.6956   19.9922 C   0  0  0  0  0  0  0  0  0  0  0  0
    7.3813  -16.4484   19.9298 C   0  0  0  0  0  0  0  0  0  0  0  0
    8.1640  -15.1724   20.1061 C   0  0  2  0  0  0  0  0  0  0  0  0
    9.4447  -15.4091   19.4250 N   0  0  0  0  0  0  0  0  0  0  0  0
    8.5139  -15.0356   21.5478 C   0  0  0  0  0  0  0  0  0  0  0  0
    9.7246  -15.2986   21.8546 O   0  0  0  0  0  0  0  0  0  0  0  0
    6.9469  -11.6362   28.5752 C   0  0  0  0  0  0  0  0  0  0  0  0
    6.5676  -11.8649   26.8456 S   0  0  0  0  0  0  0  0  0  0  0  0
    7.4762  -13.1651   26.0516 C   0  0  0  0  0  0  0  0  0  0  0  0
    7.2544  -13.4152   24.6168 C   0  0  0  0  0  0  0  0  0  0  0  0
    7.9788  -14.4893   23.9091 C   0  0  2  0  0  0  0  0  0  0  0  0
    7.5804  -14.6397   22.5389 N   0  0  0  0  0  0  0  0  0  0  0  0
    8.1760  -15.7506   24.6273 C   0  0  0  0  0  0  0  0  0  0  0  0
    7.2339  -16.5025   25.0015 O   0  0  0  0  0  0  0  0  0  0  0  0
    9.9843  -18.6985   23.6330 C   0  0  0  0  0  0  0  0  0  0  0  0
   10.5973  -18.2969   24.9539 C   0  0  1  0  0  0  0  0  0  0  0  0
   11.8301  -17.7207   24.6996 O   0  0  0  0  0  0  0  0  0  0  0  0
    9.6780  -17.4025   25.7536 C   0  0  2  0  0  0  0  0  0  0  0  0
    9.4813  -16.1946   24.9417 N   0  0  0  0  0  0  0  0  0  0  0  0
   10.2871  -17.0783   27.0506 C   0  0  0  0  0  0  0  0  0  0  0  0
   10.4980  -18.0304   28.0466 O   0  0  0  0  0  0  0  0  0  0  0  0
   10.6250  -15.8810   27.2469 O   0  0  0  0  0  0  0  0  0  0  0  0
  1  2  1  0
  3  2  1  0
  4  3  1  0
  5  4  1  0
  5  6  1  6
  7  8  2  0
  7  5  1  0
  9 10  1  0
 10 11  1  0
 11 12  1  0
 13 12  1  1
 13 14  1  0
 14  7  1  0
 15 21  1  0
 15 13  1  0
 16 15  2  0
 18 17  1  6
 18 20  1  0
 19 18  1  0
 20 21  1  6
 20 22  1  0
 22 23  1  0
 24 22  2  0
M  END
$$$$
