MMT.pdb
     RDKit          3D

 24 23  0  0  1  0  0  0  0  0999 V2000
    8.6948  -11.5524   19.3189 C   0  0  0  0  0  0  0  0  0  0  0  0
    7.0623  -12.2920   19.4516 S   0  0  0  0  0  0  0  0  0  0  0  0
    7.1880  -13.8276   20.4306 C   0  0  0  0  0  0  0  0  0  0  0  0
    8.5391  -14.4323   20.1645 C   0  0  0  0  0  0  0  0  0  0  0  0
    8.7959  -15.7161   20.9113 C   0  0  2  0  0  0  0  0  0  0  0  0
    7.5600  -16.4986   20.7679 N   0  0  0  0  0  0  0  0  0  0  0  0
    8.8854  -15.4001   22.3645 C   0  0  0  0  0  0  0  0  0  0  0  0
    9.9926  -14.9027   22.7593 O   0  0  0  0  0  0  0  0  0  0  0  0
    6.7402  -11.1048   26.7040 C   0  0  0  0  0  0  0  0  0  0  0  0
    6.2133  -12.7052   27.2945 S   0  0  0  0  0  0  0  0  0  0  0  0
    7.1716  -14.0713   26.6926 C   0  0  0  0  0  0  0  0  0  0  0  0
    7.1754  -14.3561   25.2472 C   0  0  0  0  0  0  0  0  0  0  0  0
    8.0069  -15.4390   24.6856 C   0  0  2  0  0  0  0  0  0  0  0  0
    7.8225  -15.6273   23.2751 N   0  0  0  0  0  0  0  0  0  0  0  0
    8.1021  -16.6801   25.4577 C   0  0  0  0  0  0  0  0  0  0  0  0
    7.1143  -17.2514   25.9969 O   0  0  0  0  0  0  0  0  0  0  0  0
    9.2623  -19.9405   24.3435 C   0  0  0  0  0  0  0  0  0  0  0  0
   10.1308  -19.5603   25.5196 C   0  0  1  0  0  0  0  0  0  0  0  0
   11.3490  -19.1199   25.0314 O   0  0  0  0  0  0  0  0  0  0  0  0
    9.4526  -18.5523   26.4189 C   0  0  2  0  0  0  0  0  0  0  0  0
    9.3538  -17.3135   25.6364 N   0  0  0  0  0  0  0  0  0  0  0  0
   10.2437  -18.3485   27.6400 C   0  0  0  0  0  0  0  0  0  0  0  0
   10.3860  -19.3278   28.6216 O   0  0  0  0  0  0  0  0  0  0  0  0
   10.8083  -17.2318   27.7827 O   0  0  0  0  0  0  0  0  0  0  0  0
  1  2  1  0
  3  2  1  0
  4  3  1  0
  5  4  1  0
  5  6  1  1
  7  8  2  0
  7  5  1  0
  9 10  1  0
 10 11  1  0
 11 12  1  0
 13 12  1  1
 13 14  1  0
 14  7  1  0
 15 21  1  0
 15 13  1  0
 16 15  2  0
 18 17  1  6
 18 20  1  0
 19 18  1  0
 20 21  1  6
 20 22  1  0
 22 23  1  0
 24 22  2  0
M  END
$$$$
