MMT.pdb
     RDKit          3D

 24 23  0  0  1  0  0  0  0  0999 V2000
    8.3260  -20.2639   21.4632 C   0  0  0  0  0  0  0  0  0  0  0  0
    7.3839  -19.8057   20.0030 S   0  0  0  0  0  0  0  0  0  0  0  0
    7.7242  -18.0566   19.6062 C   0  0  0  0  0  0  0  0  0  0  0  0
    8.0584  -17.3510   20.8917 C   0  0  0  0  0  0  0  0  0  0  0  0
    8.1411  -15.8512   20.7661 C   0  0  2  0  0  0  0  0  0  0  0  0
    9.3590  -15.5971   19.9835 N   0  0  0  0  0  0  0  0  0  0  0  0
    8.4247  -15.2854   22.1148 C   0  0  0  0  0  0  0  0  0  0  0  0
    9.6556  -15.0861   22.3877 O   0  0  0  0  0  0  0  0  0  0  0  0
    6.4114  -10.3259   27.8312 C   0  0  0  0  0  0  0  0  0  0  0  0
    5.8504  -11.3729   26.4984 S   0  0  0  0  0  0  0  0  0  0  0  0
    6.9606  -12.6883   26.0695 C   0  0  0  0  0  0  0  0  0  0  0  0
    6.8310  -13.3269   24.7483 C   0  0  0  0  0  0  0  0  0  0  0  0
    7.7373  -14.4169   24.3360 C   0  0  2  0  0  0  0  0  0  0  0  0
    7.4102  -14.9780   23.0565 N   0  0  0  0  0  0  0  0  0  0  0  0
    8.1087  -15.4013   25.3551 C   0  0  0  0  0  0  0  0  0  0  0  0
    8.3733  -15.1082   26.5538 O   0  0  0  0  0  0  0  0  0  0  0  0
    6.6076  -19.1466   25.1943 C   0  0  0  0  0  0  0  0  0  0  0  0
    8.0877  -19.1051   25.4935 C   0  0  1  0  0  0  0  0  0  0  0  0
    8.7706  -19.4515   24.3402 O   0  0  0  0  0  0  0  0  0  0  0  0
    8.5123  -17.7677   26.0554 C   0  0  2  0  0  0  0  0  0  0  0  0
    8.1880  -16.7739   25.0239 N   0  0  0  0  0  0  0  0  0  0  0  0
    9.9510  -17.7758   26.3526 C   0  0  0  0  0  0  0  0  0  0  0  0
   10.5227  -18.6208   27.3024 O   0  0  0  0  0  0  0  0  0  0  0  0
   10.6785  -16.9751   25.7078 O   0  0  0  0  0  0  0  0  0  0  0  0
  1  2  1  0
  3  2  1  0
  4  3  1  0
  5  4  1  0
  5  6  1  6
  7  8  2  0
  7  5  1  0
  9 10  1  0
 10 11  1  0
 11 12  1  0
 13 12  1  1
 13 14  1  0
 14  7  1  0
 15 21  1  0
 15 13  1  0
 16 15  2  0
 18 17  1  6
 18 20  1  0
 19 18  1  0
 20 21  1  6
 20 22  1  0
 22 23  1  0
 24 22  2  0
M  END
$$$$
