MMT.pdb
     RDKit          3D

 24 23  0  0  1  0  0  0  0  0999 V2000
    8.1552  -11.4215   19.2103 C   0  0  0  0  0  0  0  0  0  0  0  0
    7.7460  -12.7326   18.0513 S   0  0  0  0  0  0  0  0  0  0  0  0
    7.5463  -14.2948   18.9743 C   0  0  0  0  0  0  0  0  0  0  0  0
    8.3682  -14.1944   20.2299 C   0  0  0  0  0  0  0  0  0  0  0  0
    8.3747  -15.4508   21.0625 C   0  0  2  0  0  0  0  0  0  0  0  0
    7.0329  -16.0280   20.8986 N   0  0  0  0  0  0  0  0  0  0  0  0
    8.4528  -15.0586   22.4976 C   0  0  0  0  0  0  0  0  0  0  0  0
    9.0857  -13.9785   22.7463 O   0  0  0  0  0  0  0  0  0  0  0  0
    6.2821  -11.4897   26.3282 C   0  0  0  0  0  0  0  0  0  0  0  0
    6.8478  -12.6472   27.5642 S   0  0  0  0  0  0  0  0  0  0  0  0
    7.7054  -14.0605   26.9210 C   0  0  0  0  0  0  0  0  0  0  0  0
    7.4777  -14.4545   25.5198 C   0  0  0  0  0  0  0  0  0  0  0  0
    8.2192  -15.5779   24.9135 C   0  0  2  0  0  0  0  0  0  0  0  0
    7.8696  -15.8188   23.5428 N   0  0  0  0  0  0  0  0  0  0  0  0
    8.3807  -16.7886   25.7220 C   0  0  0  0  0  0  0  0  0  0  0  0
    7.4174  -17.4784   26.1569 O   0  0  0  0  0  0  0  0  0  0  0  0
   10.1128  -19.7931   24.6917 C   0  0  0  0  0  0  0  0  0  0  0  0
   10.7567  -19.3698   25.9910 C   0  0  1  0  0  0  0  0  0  0  0  0
   11.9638  -18.7601   25.6954 O   0  0  0  0  0  0  0  0  0  0  0  0
    9.8388  -18.4990   26.8180 C   0  0  2  0  0  0  0  0  0  0  0  0
    9.6732  -17.2517   26.0605 N   0  0  0  0  0  0  0  0  0  0  0  0
   10.4328  -18.2451   28.1375 C   0  0  0  0  0  0  0  0  0  0  0  0
   10.5781  -19.2375   29.1054 O   0  0  0  0  0  0  0  0  0  0  0  0
   10.8199  -17.0715   28.3805 O   0  0  0  0  0  0  0  0  0  0  0  0
  1  2  1  0
  3  2  1  0
  4  3  1  0
  5  4  1  0
  5  6  1  1
  7  8  2  0
  7  5  1  0
  9 10  1  0
 10 11  1  0
 11 12  1  0
 13 12  1  1
 13 14  1  0
 14  7  1  0
 15 21  1  0
 15 13  1  0
 16 15  2  0
 18 17  1  6
 18 20  1  0
 19 18  1  0
 20 21  1  6
 20 22  1  0
 22 23  1  0
 24 22  2  0
M  END
$$$$
