MMT.pdb
     RDKit          3D

 24 23  0  0  1  0  0  0  0  0999 V2000
    5.9607  -19.3892   20.9565 C   0  0  0  0  0  0  0  0  0  0  0  0
    6.5955  -18.9296   19.3392 S   0  0  0  0  0  0  0  0  0  0  0  0
    7.0959  -17.1745   19.3787 C   0  0  0  0  0  0  0  0  0  0  0  0
    7.7318  -16.9085   20.7156 C   0  0  0  0  0  0  0  0  0  0  0  0
    7.9303  -15.4461   21.0217 C   0  0  2  0  0  0  0  0  0  0  0  0
    8.9121  -14.9760   20.0341 N   0  0  0  0  0  0  0  0  0  0  0  0
    8.6226  -15.3348   22.3362 C   0  0  0  0  0  0  0  0  0  0  0  0
    9.8874  -15.5050   22.3158 O   0  0  0  0  0  0  0  0  0  0  0  0
    5.2301  -10.8079   25.9728 C   0  0  0  0  0  0  0  0  0  0  0  0
    6.6133  -11.8058   26.5006 S   0  0  0  0  0  0  0  0  0  0  0  0
    7.0796  -13.0879   25.3669 C   0  0  0  0  0  0  0  0  0  0  0  0
    8.2418  -13.9343   25.6882 C   0  0  0  0  0  0  0  0  0  0  0  0
    8.6465  -15.0426   24.8009 C   0  0  2  0  0  0  0  0  0  0  0  0
    7.9438  -15.0580   23.5499 N   0  0  0  0  0  0  0  0  0  0  0  0
    8.8261  -16.3607   25.4140 C   0  0  0  0  0  0  0  0  0  0  0  0
    7.8732  -17.0999   25.7860 O   0  0  0  0  0  0  0  0  0  0  0  0
   10.5608  -19.2838   24.0168 C   0  0  0  0  0  0  0  0  0  0  0  0
   11.2211  -18.9729   25.3394 C   0  0  1  0  0  0  0  0  0  0  0  0
   12.4175  -18.3257   25.0824 O   0  0  0  0  0  0  0  0  0  0  0  0
   10.3081  -18.1906   26.2555 C   0  0  2  0  0  0  0  0  0  0  0  0
   10.1256  -16.8787   25.6212 N   0  0  0  0  0  0  0  0  0  0  0  0
   10.9166  -18.0582   27.5861 C   0  0  0  0  0  0  0  0  0  0  0  0
   11.1536  -19.1484   28.4217 O   0  0  0  0  0  0  0  0  0  0  0  0
   11.2289  -16.8985   27.9655 O   0  0  0  0  0  0  0  0  0  0  0  0
  1  2  1  0
  3  2  1  0
  4  3  1  0
  5  4  1  0
  5  6  1  6
  7  8  2  0
  7  5  1  0
  9 10  1  0
 10 11  1  0
 11 12  1  0
 13 12  1  1
 13 14  1  0
 14  7  1  0
 15 21  1  0
 15 13  1  0
 16 15  2  0
 18 17  1  6
 18 20  1  0
 19 18  1  0
 20 21  1  6
 20 22  1  0
 22 23  1  0
 24 22  2  0
M  END
$$$$
