MMT.pdb
     RDKit          3D

 24 23  0  0  1  0  0  0  0  0999 V2000
    8.5638  -11.5166   19.5742 C   0  0  0  0  0  0  0  0  0  0  0  0
    8.1443  -12.7216   18.3086 S   0  0  0  0  0  0  0  0  0  0  0  0
    8.0947  -14.3812   19.0674 C   0  0  0  0  0  0  0  0  0  0  0  0
    8.9036  -14.3309   20.3344 C   0  0  0  0  0  0  0  0  0  0  0  0
    8.9801  -15.6458   21.0673 C   0  0  2  0  0  0  0  0  0  0  0  0
    7.6370  -16.2309   20.9495 N   0  0  0  0  0  0  0  0  0  0  0  0
    9.1501  -15.3606   22.5197 C   0  0  0  0  0  0  0  0  0  0  0  0
   10.3025  -14.9416   22.8741 O   0  0  0  0  0  0  0  0  0  0  0  0
    6.0668  -10.9857   25.9262 C   0  0  0  0  0  0  0  0  0  0  0  0
    6.1956  -12.3165   27.1094 S   0  0  0  0  0  0  0  0  0  0  0  0
    7.3356  -13.6000   26.6623 C   0  0  0  0  0  0  0  0  0  0  0  0
    7.3054  -14.1324   25.2890 C   0  0  0  0  0  0  0  0  0  0  0  0
    8.2916  -15.1339   24.8375 C   0  0  2  0  0  0  0  0  0  0  0  0
    8.1135  -15.5348   23.4713 N   0  0  0  0  0  0  0  0  0  0  0  0
    8.6028  -16.2302   25.7577 C   0  0  0  0  0  0  0  0  0  0  0  0
    8.4282  -16.1724   27.0063 O   0  0  0  0  0  0  0  0  0  0  0  0
    7.8153  -20.0525   25.1223 C   0  0  0  0  0  0  0  0  0  0  0  0
    9.2753  -19.8157   25.4289 C   0  0  1  0  0  0  0  0  0  0  0  0
    9.9798  -19.8670   24.2384 O   0  0  0  0  0  0  0  0  0  0  0  0
    9.4900  -18.5277   26.1904 C   0  0  2  0  0  0  0  0  0  0  0  0
    9.1315  -17.4455   25.2645 N   0  0  0  0  0  0  0  0  0  0  0  0
   10.8911  -18.4190   26.6188 C   0  0  0  0  0  0  0  0  0  0  0  0
   11.7750  -17.4825   26.0853 O   0  0  0  0  0  0  0  0  0  0  0  0
   11.2867  -19.2181   27.5083 O   0  0  0  0  0  0  0  0  0  0  0  0
  1  2  1  0
  3  2  1  0
  4  3  1  0
  5  4  1  0
  5  6  1  1
  7  8  2  0
  7  5  1  0
  9 10  1  0
 10 11  1  0
 11 12  1  0
 13 12  1  1
 13 14  1  0
 14  7  1  0
 15 21  1  0
 15 13  1  0
 16 15  2  0
 18 17  1  6
 18 20  1  0
 19 18  1  0
 20 21  1  6
 20 22  1  0
 22 23  1  0
 24 22  2  0
M  END
$$$$
