GYQ.pdb
     RDKit          3D

 26 26  0  0  1  0  0  0  0  0999 V2000
   36.7525  -11.5042  -23.1615 N   0  0  0  0  0  0  0  0  0  0  0  0
   36.0222  -10.2554  -23.0655 C   0  0  0  0  0  0  0  0  0  0  0  0
   35.8343   -9.8949  -21.6326 C   0  0  0  0  0  0  0  0  0  0  0  0
   35.7477  -10.8048  -20.7686 O   0  0  0  0  0  0  0  0  0  0  0  0
   36.0969   -5.9203  -13.8897 O   0  0  0  0  0  0  0  0  0  0  0  0
   36.1780   -6.2198  -15.2542 C   0  0  0  0  0  0  0  0  0  0  0  0
   35.2387   -5.6715  -16.0988 C   0  0  0  0  0  0  0  0  0  0  0  0
   35.3499   -5.9892  -17.4400 C   0  0  0  0  0  0  0  0  0  0  0  0
   36.3398   -6.8095  -17.9317 C   0  0  0  0  0  0  0  0  0  0  0  0
   36.4328   -7.1283  -19.3563 C   0  0  0  0  0  0  0  0  0  0  0  0
   35.5046   -8.2278  -19.7935 C   0  0  2  0  0  0  0  0  0  0  0  0
   35.7464   -8.5536  -21.1847 N   0  0  0  0  0  0  0  0  0  0  0  0
   34.0864   -7.9447  -19.5166 C   0  0  0  0  0  0  0  0  0  0  0  0
   33.4886   -7.1459  -20.2820 O   0  0  0  0  0  0  0  0  0  0  0  0
   37.2618   -7.3398  -17.0578 C   0  0  0  0  0  0  0  0  0  0  0  0
   37.1797   -7.0408  -15.7002 C   0  0  0  0  0  0  0  0  0  0  0  0
   29.3035  -10.7233  -19.9451 N   0  0  0  0  0  0  0  0  0  0  0  0
   28.8483  -10.1116  -18.7330 C   0  0  0  0  0  0  0  0  0  0  0  0
   27.6028  -10.0845  -18.4236 O   0  0  0  0  0  0  0  0  0  0  0  0
   29.7773   -9.4859  -17.7683 C   0  0  0  0  0  0  0  0  0  0  0  0
   31.2205   -9.5798  -18.1065 C   0  0  0  0  0  0  0  0  0  0  0  0
   31.9100   -8.2753  -18.2280 C   0  0  2  0  0  0  0  0  0  0  0  0
   33.3532   -8.5077  -18.4526 N   0  0  0  0  0  0  0  0  0  0  0  0
   31.7976   -7.3467  -17.1361 C   0  0  0  0  0  0  0  0  0  0  0  0
   32.5827   -6.2127  -17.0445 O   0  0  0  0  0  0  0  0  0  0  0  0
   30.9796   -7.5303  -16.2001 O   0  0  0  0  0  0  0  0  0  0  0  0
  1  2  1  0
  2  3  1  0
  3  4  2  0
  6  7  2  0
  6  5  1  0
  8  7  1  0
  9  8  2  0
 11 10  1  6
 10  9  1  0
 12 11  1  0
 12  3  1  0
 13 11  1  0
 14 13  2  0
 15  9  1  0
 15 16  2  0
 16  6  1  0
 18 19  2  0
 18 17  1  0
 20 18  1  0
 21 20  1  0
 22 21  1  1
 22 23  1  0
 23 13  1  0
 24 25  1  0
 24 22  1  0
 26 24  2  0
M  END
$$$$
