GYQ.pdb
     RDKit          3D

 26 26  0  0  1  0  0  0  0  0999 V2000
   31.3071  -22.3103  -10.5022 N   0  0  0  0  0  0  0  0  0  0  0  0
   30.6522  -21.0319  -10.3052 C   0  0  0  0  0  0  0  0  0  0  0  0
   29.2088  -21.2498  -10.0094 C   0  0  0  0  0  0  0  0  0  0  0  0
   28.7393  -22.4166  -10.0286 O   0  0  0  0  0  0  0  0  0  0  0  0
   29.1185  -20.2035   -3.4158 O   0  0  0  0  0  0  0  0  0  0  0  0
   28.4610  -20.0206   -4.6373 C   0  0  0  0  0  0  0  0  0  0  0  0
   28.8381  -18.9580   -5.4278 C   0  0  0  0  0  0  0  0  0  0  0  0
   28.1668  -18.8084   -6.6275 C   0  0  0  0  0  0  0  0  0  0  0  0
   27.1686  -19.6642   -7.0343 C   0  0  0  0  0  0  0  0  0  0  0  0
   26.4754  -19.4812   -8.3095 C   0  0  0  0  0  0  0  0  0  0  0  0
   26.9266  -20.4290   -9.3863 C   0  0  2  0  0  0  0  0  0  0  0  0
   28.3207  -20.1897   -9.7018 N   0  0  0  0  0  0  0  0  0  0  0  0
   26.0655  -20.4149  -10.5806 C   0  0  0  0  0  0  0  0  0  0  0  0
   26.1547  -19.4284  -11.3551 O   0  0  0  0  0  0  0  0  0  0  0  0
   26.8179  -20.7158   -6.2181 C   0  0  0  0  0  0  0  0  0  0  0  0
   27.4732  -20.8965   -5.0028 C   0  0  0  0  0  0  0  0  0  0  0  0
   25.3551  -24.6275  -15.6627 N   0  0  0  0  0  0  0  0  0  0  0  0
   24.2872  -24.4161  -14.7324 C   0  0  0  0  0  0  0  0  0  0  0  0
   23.4987  -25.3696  -14.3904 O   0  0  0  0  0  0  0  0  0  0  0  0
   24.0338  -23.1001  -14.1085 C   0  0  0  0  0  0  0  0  0  0  0  0
   24.6850  -22.8720  -12.7932 C   0  0  0  0  0  0  0  0  0  0  0  0
   24.4574  -21.5265  -12.2192 C   0  0  2  0  0  0  0  0  0  0  0  0
   25.1481  -21.4316  -10.9150 N   0  0  0  0  0  0  0  0  0  0  0  0
   23.1000  -21.1016  -12.0091 C   0  0  0  0  0  0  0  0  0  0  0  0
   22.3047  -20.6285  -13.0359 O   0  0  0  0  0  0  0  0  0  0  0  0
   22.5720  -21.1315  -10.8692 O   0  0  0  0  0  0  0  0  0  0  0  0
  1  2  1  0
  2  3  1  0
  3  4  2  0
  6  7  2  0
  6  5  1  0
  8  7  1  0
  9  8  2  0
 11 10  1  1
 10  9  1  0
 12 11  1  0
 12  3  1  0
 13 11  1  0
 14 13  2  0
 15  9  1  0
 15 16  2  0
 16  6  1  0
 18 19  2  0
 18 17  1  0
 20 18  1  0
 21 20  1  0
 22 21  1  1
 22 23  1  0
 23 13  1  0
 24 25  1  0
 24 22  1  0
 26 24  2  0
M  END
$$$$
