GYQ.pdb
     RDKit          3D

 26 26  0  0  1  0  0  0  0  0999 V2000
   26.5833  -22.0929  -14.5625 N   0  0  0  0  0  0  0  0  0  0  0  0
   25.2906  -22.4311  -15.1251 C   0  0  0  0  0  0  0  0  0  0  0  0
   24.2181  -21.7151  -14.3799 C   0  0  0  0  0  0  0  0  0  0  0  0
   24.4955  -21.1259  -13.3038 O   0  0  0  0  0  0  0  0  0  0  0  0
   17.5206  -16.7720  -12.0520 O   0  0  0  0  0  0  0  0  0  0  0  0
   18.4890  -17.5143  -12.7371 C   0  0  0  0  0  0  0  0  0  0  0  0
   19.8157  -17.2500  -12.4795 C   0  0  0  0  0  0  0  0  0  0  0  0
   20.7443  -18.0027  -13.1746 C   0  0  0  0  0  0  0  0  0  0  0  0
   20.3872  -18.9727  -14.0834 C   0  0  0  0  0  0  0  0  0  0  0  0
   21.3921  -19.7539  -14.8045 C   0  0  0  0  0  0  0  0  0  0  0  0
   21.8420  -20.9873  -14.0713 C   0  0  2  0  0  0  0  0  0  0  0  0
   22.8757  -21.6628  -14.8300 N   0  0  0  0  0  0  0  0  0  0  0  0
   20.7365  -21.8850  -13.6971 C   0  0  0  0  0  0  0  0  0  0  0  0
   20.2789  -22.6511  -14.5831 O   0  0  0  0  0  0  0  0  0  0  0  0
   19.0511  -19.2096  -14.3157 C   0  0  0  0  0  0  0  0  0  0  0  0
   18.0887  -18.4701  -13.6330 C   0  0  0  0  0  0  0  0  0  0  0  0
   19.3049  -23.9959   -7.8166 N   0  0  0  0  0  0  0  0  0  0  0  0
   18.1982  -24.4034   -8.6287 C   0  0  0  0  0  0  0  0  0  0  0  0
   17.2459  -25.1201   -8.1517 O   0  0  0  0  0  0  0  0  0  0  0  0
   18.0814  -24.0211  -10.0519 C   0  0  0  0  0  0  0  0  0  0  0  0
   19.2003  -23.2112  -10.5977 C   0  0  0  0  0  0  0  0  0  0  0  0
   19.0777  -22.8832  -12.0362 C   0  0  2  0  0  0  0  0  0  0  0  0
   20.1561  -21.9443  -12.4139 N   0  0  0  0  0  0  0  0  0  0  0  0
   17.8412  -22.3120  -12.4966 C   0  0  0  0  0  0  0  0  0  0  0  0
   17.4254  -21.0476  -12.1239 O   0  0  0  0  0  0  0  0  0  0  0  0
   17.0689  -22.9462  -13.2583 O   0  0  0  0  0  0  0  0  0  0  0  0
  1  2  1  0
  2  3  1  0
  3  4  2  0
  6  7  2  0
  6  5  1  0
  8  7  1  0
  9  8  2  0
 11 10  1  6
 10  9  1  0
 12 11  1  0
 12  3  1  0
 13 11  1  0
 14 13  2  0
 15  9  1  0
 15 16  2  0
 16  6  1  0
 18 19  2  0
 18 17  1  0
 20 18  1  0
 21 20  1  0
 22 21  1  1
 22 23  1  0
 23 13  1  0
 24 25  1  0
 24 22  1  0
 26 24  2  0
M  END
$$$$
