GYQ.pdb
     RDKit          3D

 26 26  0  0  1  0  0  0  0  0999 V2000
   23.5242  -20.7485   -8.3582 N   0  0  0  0  0  0  0  0  0  0  0  0
   24.6795  -21.1611   -9.1309 C   0  0  0  0  0  0  0  0  0  0  0  0
   24.7174  -20.4074  -10.4150 C   0  0  0  0  0  0  0  0  0  0  0  0
   23.8043  -19.5838  -10.6799 O   0  0  0  0  0  0  0  0  0  0  0  0
   27.8594  -16.6052  -17.7042 O   0  0  0  0  0  0  0  0  0  0  0  0
   27.7059  -17.3646  -16.5388 C   0  0  0  0  0  0  0  0  0  0  0  0
   27.8105  -18.7343  -16.6349 C   0  0  0  0  0  0  0  0  0  0  0  0
   27.6533  -19.4520  -15.4635 C   0  0  0  0  0  0  0  0  0  0  0  0
   27.4044  -18.8522  -14.2500 C   0  0  0  0  0  0  0  0  0  0  0  0
   27.2425  -19.6374  -13.0264 C   0  0  0  0  0  0  0  0  0  0  0  0
   25.8146  -19.7652  -12.5723 C   0  0  2  0  0  0  0  0  0  0  0  0
   25.7492  -20.5739  -11.3715 N   0  0  0  0  0  0  0  0  0  0  0  0
   24.9030  -20.2415  -13.6260 C   0  0  0  0  0  0  0  0  0  0  0  0
   24.8467  -21.4801  -13.8354 O   0  0  0  0  0  0  0  0  0  0  0  0
   27.3062  -17.4803  -14.1917 C   0  0  0  0  0  0  0  0  0  0  0  0
   27.4592  -16.7261  -15.3523 C   0  0  0  0  0  0  0  0  0  0  0  0
   19.9262  -21.3792  -14.1387 N   0  0  0  0  0  0  0  0  0  0  0  0
   19.6765  -20.6129  -15.3223 C   0  0  0  0  0  0  0  0  0  0  0  0
   18.6536  -20.8405  -16.0638 O   0  0  0  0  0  0  0  0  0  0  0  0
   20.5694  -19.5172  -15.7552 C   0  0  0  0  0  0  0  0  0  0  0  0
   21.7260  -19.2363  -14.8667 C   0  0  0  0  0  0  0  0  0  0  0  0
   22.9891  -19.8914  -15.2755 C   0  0  2  0  0  0  0  0  0  0  0  0
   24.0894  -19.4042  -14.4158 N   0  0  0  0  0  0  0  0  0  0  0  0
   23.4200  -19.7384  -16.6386 C   0  0  0  0  0  0  0  0  0  0  0  0
   24.2846  -18.7349  -17.0338 O   0  0  0  0  0  0  0  0  0  0  0  0
   23.0184  -20.5111  -17.5445 O   0  0  0  0  0  0  0  0  0  0  0  0
  1  2  1  0
  2  3  1  0
  3  4  2  0
  6  7  2  0
  6  5  1  0
  8  7  1  0
  9  8  2  0
 11 10  1  6
 10  9  1  0
 12 11  1  0
 12  3  1  0
 13 11  1  0
 14 13  2  0
 15  9  1  0
 15 16  2  0
 16  6  1  0
 18 19  2  0
 18 17  1  0
 20 18  1  0
 21 20  1  0
 22 21  1  6
 22 23  1  0
 23 13  1  0
 24 25  1  0
 24 22  1  0
 26 24  2  0
M  END
$$$$
