GYQ.pdb
     RDKit          3D

 26 26  0  0  1  0  0  0  0  0999 V2000
   22.6925  -16.3929  -19.4320 N   0  0  0  0  0  0  0  0  0  0  0  0
   22.6440  -16.1026  -18.0124 C   0  0  0  0  0  0  0  0  0  0  0  0
   23.5059  -17.0680  -17.2750 C   0  0  0  0  0  0  0  0  0  0  0  0
   23.9026  -18.1134  -17.8510 O   0  0  0  0  0  0  0  0  0  0  0  0
   29.9255  -15.8357  -18.3235 O   0  0  0  0  0  0  0  0  0  0  0  0
   28.9253  -16.1569  -17.3991 C   0  0  0  0  0  0  0  0  0  0  0  0
   28.0692  -15.1581  -16.9918 C   0  0  0  0  0  0  0  0  0  0  0  0
   27.0936  -15.5119  -16.0780 C   0  0  0  0  0  0  0  0  0  0  0  0
   26.9631  -16.7903  -15.5848 C   0  0  0  0  0  0  0  0  0  0  0  0
   25.9208  -17.1357  -14.6183 C   0  0  0  0  0  0  0  0  0  0  0  0
   24.7332  -17.8275  -15.2287 C   0  0  2  0  0  0  0  0  0  0  0  0
   23.9093  -16.8649  -15.9321 N   0  0  0  0  0  0  0  0  0  0  0  0
   23.9644  -18.6347  -14.2666 C   0  0  0  0  0  0  0  0  0  0  0  0
   23.0400  -18.0657  -13.6319 O   0  0  0  0  0  0  0  0  0  0  0  0
   27.8370  -17.7633  -16.0146 C   0  0  0  0  0  0  0  0  0  0  0  0
   28.8318  -17.4421  -16.9345 C   0  0  0  0  0  0  0  0  0  0  0  0
   26.0128  -22.2284   -9.9440 N   0  0  0  0  0  0  0  0  0  0  0  0
   24.9193  -21.3047   -9.9825 C   0  0  0  0  0  0  0  0  0  0  0  0
   23.9410  -21.3906   -9.1558 O   0  0  0  0  0  0  0  0  0  0  0  0
   24.8540  -20.2005  -10.9632 C   0  0  0  0  0  0  0  0  0  0  0  0
   23.5627  -20.0490  -11.6812 C   0  0  0  0  0  0  0  0  0  0  0  0
   23.4852  -20.7772  -12.9680 C   0  0  2  0  0  0  0  0  0  0  0  0
   24.1939  -20.0013  -14.0086 N   0  0  0  0  0  0  0  0  0  0  0  0
   22.1828  -21.0911  -13.4900 C   0  0  0  0  0  0  0  0  0  0  0  0
   21.2546  -20.1152  -13.8009 O   0  0  0  0  0  0  0  0  0  0  0  0
   21.8209  -22.2793  -13.6799 O   0  0  0  0  0  0  0  0  0  0  0  0
  1  2  1  0
  2  3  1  0
  3  4  2  0
  6  7  2  0
  6  5  1  0
  8  7  1  0
  9  8  2  0
 11 10  1  1
 10  9  1  0
 12 11  1  0
 12  3  1  0
 13 11  1  0
 14 13  2  0
 15  9  1  0
 15 16  2  0
 16  6  1  0
 18 19  2  0
 18 17  1  0
 20 18  1  0
 21 20  1  0
 22 21  1  1
 22 23  1  0
 23 13  1  0
 24 25  1  0
 24 22  1  0
 26 24  2  0
M  END
$$$$
