GYQ.pdb
     RDKit          3D

 26 26  0  0  1  0  0  0  0  0999 V2000
   15.7437  -13.1039  -14.6900 N   0  0  0  0  0  0  0  0  0  0  0  0
   16.7174  -12.5101  -15.5851 C   0  0  0  0  0  0  0  0  0  0  0  0
   17.4952  -11.4686  -14.8579 C   0  0  0  0  0  0  0  0  0  0  0  0
   18.6828  -11.7041  -14.5171 O   0  0  0  0  0  0  0  0  0  0  0  0
   21.8874   -4.4046  -13.0182 O   0  0  0  0  0  0  0  0  0  0  0  0
   21.1526   -5.5128  -13.4541 C   0  0  0  0  0  0  0  0  0  0  0  0
   21.3516   -6.7179  -12.8181 C   0  0  0  0  0  0  0  0  0  0  0  0
   20.6085   -7.7907  -13.2754 C   0  0  0  0  0  0  0  0  0  0  0  0
   19.7090   -7.6861  -14.3119 C   0  0  0  0  0  0  0  0  0  0  0  0
   18.9363   -8.8388  -14.7746 C   0  0  0  0  0  0  0  0  0  0  0  0
   17.7588   -9.1701  -13.8999 C   0  0  2  0  0  0  0  0  0  0  0  0
   16.9552  -10.2019  -14.5241 N   0  0  0  0  0  0  0  0  0  0  0  0
   16.9653   -7.9922  -13.5112 C   0  0  0  0  0  0  0  0  0  0  0  0
   16.2509   -7.4507  -14.3931 O   0  0  0  0  0  0  0  0  0  0  0  0
   19.5361   -6.4654  -14.9244 C   0  0  0  0  0  0  0  0  0  0  0  0
   20.2681   -5.3635  -14.4894 C   0  0  0  0  0  0  0  0  0  0  0  0
   15.3804   -6.6260   -7.5828 N   0  0  0  0  0  0  0  0  0  0  0  0
   14.5419   -7.2579   -8.5565 C   0  0  0  0  0  0  0  0  0  0  0  0
   13.5596   -8.0075   -8.2086 O   0  0  0  0  0  0  0  0  0  0  0  0
   14.7496   -7.0816  -10.0095 C   0  0  0  0  0  0  0  0  0  0  0  0
   15.9087   -6.2387  -10.3993 C   0  0  0  0  0  0  0  0  0  0  0  0
   16.1916   -6.2157  -11.8524 C   0  0  2  0  0  0  0  0  0  0  0  0
   16.9516   -7.4303  -12.2186 N   0  0  0  0  0  0  0  0  0  0  0  0
   16.9131   -5.0910  -12.3831 C   0  0  0  0  0  0  0  0  0  0  0  0
   16.2809   -3.9320  -12.7927 O   0  0  0  0  0  0  0  0  0  0  0  0
   18.1630   -5.1139  -12.5100 O   0  0  0  0  0  0  0  0  0  0  0  0
  1  2  1  0
  2  3  1  0
  3  4  2  0
  6  7  2  0
  6  5  1  0
  8  7  1  0
  9  8  2  0
 11 10  1  6
 10  9  1  0
 12 11  1  0
 12  3  1  0
 13 11  1  0
 14 13  2  0
 15  9  1  0
 15 16  2  0
 16  6  1  0
 18 19  2  0
 18 17  1  0
 20 18  1  0
 21 20  1  0
 22 21  1  1
 22 23  1  0
 23 13  1  0
 24 25  1  0
 24 22  1  0
 26 24  2  0
M  END
$$$$
