GYQ.pdb
     RDKit          3D

 26 26  0  0  1  0  0  0  0  0999 V2000
   26.1075  -24.2472  -15.6851 N   0  0  0  0  0  0  0  0  0  0  0  0
   25.6397  -22.8767  -15.7533 C   0  0  0  0  0  0  0  0  0  0  0  0
   24.5715  -22.6619  -14.7377 C   0  0  0  0  0  0  0  0  0  0  0  0
   24.1215  -23.6427  -14.0915 O   0  0  0  0  0  0  0  0  0  0  0  0
   26.9138  -20.7826   -8.4716 O   0  0  0  0  0  0  0  0  0  0  0  0
   26.0017  -20.5781   -9.5129 C   0  0  0  0  0  0  0  0  0  0  0  0
   24.6685  -20.4452   -9.1949 C   0  0  0  0  0  0  0  0  0  0  0  0
   23.7964  -20.2444  -10.2491 C   0  0  0  0  0  0  0  0  0  0  0  0
   24.2139  -20.1768  -11.5588 C   0  0  0  0  0  0  0  0  0  0  0  0
   23.2681  -19.9633  -12.6542 C   0  0  0  0  0  0  0  0  0  0  0  0
   22.9880  -21.1997  -13.4630 C   0  0  2  0  0  0  0  0  0  0  0  0
   24.0261  -21.3847  -14.4571 N   0  0  0  0  0  0  0  0  0  0  0  0
   21.6356  -21.2278  -14.0449 C   0  0  0  0  0  0  0  0  0  0  0  0
   21.4513  -20.6152  -15.1275 O   0  0  0  0  0  0  0  0  0  0  0  0
   25.5547  -20.3140  -11.8394 C   0  0  0  0  0  0  0  0  0  0  0  0
   26.4611  -20.5174  -10.8020 C   0  0  0  0  0  0  0  0  0  0  0  0
   15.3965  -24.7481  -15.3564 N   0  0  0  0  0  0  0  0  0  0  0  0
   16.7069  -24.5560  -14.8120 C   0  0  0  0  0  0  0  0  0  0  0  0
   17.6065  -25.4679  -14.8949 O   0  0  0  0  0  0  0  0  0  0  0  0
   17.1030  -23.3038  -14.1334 C   0  0  0  0  0  0  0  0  0  0  0  0
   18.5294  -23.2104  -13.7299 C   0  0  0  0  0  0  0  0  0  0  0  0
   19.1826  -21.9265  -14.0716 C   0  0  2  0  0  0  0  0  0  0  0  0
   20.5338  -21.8941  -13.4714 N   0  0  0  0  0  0  0  0  0  0  0  0
   18.5218  -20.7085  -13.6881 C   0  0  0  0  0  0  0  0  0  0  0  0
   17.6073  -20.0727  -14.5067 O   0  0  0  0  0  0  0  0  0  0  0  0
   18.7551  -20.1548  -12.5846 O   0  0  0  0  0  0  0  0  0  0  0  0
  1  2  1  0
  2  3  1  0
  3  4  2  0
  6  7  2  0
  6  5  1  0
  8  7  1  0
  9  8  2  0
 11 10  1  6
 10  9  1  0
 12 11  1  0
 12  3  1  0
 13 11  1  0
 14 13  2  0
 15  9  1  0
 15 16  2  0
 16  6  1  0
 18 19  2  0
 18 17  1  0
 20 18  1  0
 21 20  1  0
 22 21  1  1
 22 23  1  0
 23 13  1  0
 24 25  1  0
 24 22  1  0
 26 24  2  0
M  END
$$$$
