GYQ.pdb
     RDKit          3D

 26 26  0  0  1  0  0  0  0  0999 V2000
   28.5979  -22.9417  -17.3747 N   0  0  0  0  0  0  0  0  0  0  0  0
   27.8276  -21.7373  -17.1337 C   0  0  0  0  0  0  0  0  0  0  0  0
   26.9398  -21.9390  -15.9550 C   0  0  0  0  0  0  0  0  0  0  0  0
   26.4831  -23.0849  -15.7092 O   0  0  0  0  0  0  0  0  0  0  0  0
   22.9212  -20.8092   -8.2288 O   0  0  0  0  0  0  0  0  0  0  0  0
   23.7015  -20.6443   -9.3785 C   0  0  0  0  0  0  0  0  0  0  0  0
   24.9776  -21.1621   -9.3800 C   0  0  0  0  0  0  0  0  0  0  0  0
   25.7193  -20.9802  -10.5328 C   0  0  0  0  0  0  0  0  0  0  0  0
   25.2307  -20.3190  -11.6366 C   0  0  0  0  0  0  0  0  0  0  0  0
   26.0388  -20.1416  -12.8430 C   0  0  0  0  0  0  0  0  0  0  0  0
   25.6974  -21.1026  -13.9482 C   0  0  2  0  0  0  0  0  0  0  0  0
   26.5766  -20.8858  -15.0797 N   0  0  0  0  0  0  0  0  0  0  0  0
   24.2742  -21.0833  -14.3253 C   0  0  0  0  0  0  0  0  0  0  0  0
   23.8750  -20.1413  -15.0564 O   0  0  0  0  0  0  0  0  0  0  0  0
   23.9504  -19.8145  -11.5992 C   0  0  0  0  0  0  0  0  0  0  0  0
   23.1751  -19.9795  -10.4543 C   0  0  0  0  0  0  0  0  0  0  0  0
   18.8701  -25.8182  -14.5603 N   0  0  0  0  0  0  0  0  0  0  0  0
   19.6496  -24.9629  -15.4037 C   0  0  0  0  0  0  0  0  0  0  0  0
   20.0198  -25.3348  -16.5753 O   0  0  0  0  0  0  0  0  0  0  0  0
   20.0659  -23.6080  -14.9839 C   0  0  0  0  0  0  0  0  0  0  0  0
   21.5068  -23.4448  -14.6630 C   0  0  0  0  0  0  0  0  0  0  0  0
   21.9159  -22.0547  -14.3593 C   0  0  2  0  0  0  0  0  0  0  0  0
   23.3289  -22.0484  -13.9230 N   0  0  0  0  0  0  0  0  0  0  0  0
   21.1659  -21.3300  -13.3696 C   0  0  0  0  0  0  0  0  0  0  0  0
   20.1278  -20.4803  -13.7026 O   0  0  0  0  0  0  0  0  0  0  0  0
   21.4288  -21.4287  -12.1448 O   0  0  0  0  0  0  0  0  0  0  0  0
  1  2  1  0
  2  3  1  0
  3  4  2  0
  6  7  2  0
  6  5  1  0
  8  7  1  0
  9  8  2  0
 11 10  1  1
 10  9  1  0
 12 11  1  0
 12  3  1  0
 13 11  1  0
 14 13  2  0
 15  9  1  0
 15 16  2  0
 16  6  1  0
 18 19  2  0
 18 17  1  0
 20 18  1  0
 21 20  1  0
 22 21  1  1
 22 23  1  0
 23 13  1  0
 24 25  1  0
 24 22  1  0
 26 24  2  0
M  END
$$$$
