GYQ.pdb
     RDKit          3D

 26 26  0  0  1  0  0  0  0  0999 V2000
   18.0760  -29.6417   -5.2043 N   0  0  0  0  0  0  0  0  0  0  0  0
   18.4668  -28.3366   -4.7084 C   0  0  0  0  0  0  0  0  0  0  0  0
   18.6929  -28.4075   -3.2380 C   0  0  0  0  0  0  0  0  0  0  0  0
   18.0789  -29.2670   -2.5551 O   0  0  0  0  0  0  0  0  0  0  0  0
   20.8883  -25.6421    4.8533 O   0  0  0  0  0  0  0  0  0  0  0  0
   20.8651  -25.8912    3.4765 C   0  0  0  0  0  0  0  0  0  0  0  0
   20.8280  -24.8138    2.6197 C   0  0  0  0  0  0  0  0  0  0  0  0
   20.8059  -25.0978    1.2666 C   0  0  0  0  0  0  0  0  0  0  0  0
   20.8198  -26.3833    0.7749 C   0  0  0  0  0  0  0  0  0  0  0  0
   20.7958  -26.6538   -0.6626 C   0  0  0  0  0  0  0  0  0  0  0  0
   19.6009  -27.4497   -1.1099 C   0  0  2  0  0  0  0  0  0  0  0  0
   19.5814  -27.5396   -2.5562 N   0  0  0  0  0  0  0  0  0  0  0  0
   18.3275  -26.9601   -0.5560 C   0  0  0  0  0  0  0  0  0  0  0  0
   17.8189  -25.9342   -1.0756 O   0  0  0  0  0  0  0  0  0  0  0  0
   20.8571  -27.4360    1.6612 C   0  0  0  0  0  0  0  0  0  0  0  0
   20.8801  -27.1865    3.0309 C   0  0  0  0  0  0  0  0  0  0  0  0
   13.9920  -25.2463   -0.2766 N   0  0  0  0  0  0  0  0  0  0  0  0
   13.3494  -26.1049    0.6722 C   0  0  0  0  0  0  0  0  0  0  0  0
   12.2422  -25.7746    1.2316 O   0  0  0  0  0  0  0  0  0  0  0  0
   13.9127  -27.4163    1.0570 C   0  0  0  0  0  0  0  0  0  0  0  0
   15.2355  -27.7493    0.4696 C   0  0  0  0  0  0  0  0  0  0  0  0
   16.3792  -27.0417    1.0885 C   0  0  2  0  0  0  0  0  0  0  0  0
   17.6398  -27.5626    0.5168 N   0  0  0  0  0  0  0  0  0  0  0  0
   16.5123  -27.0932    2.5192 C   0  0  0  0  0  0  0  0  0  0  0  0
   16.9147  -28.2358    3.1848 O   0  0  0  0  0  0  0  0  0  0  0  0
   16.2566  -26.0950    3.2383 O   0  0  0  0  0  0  0  0  0  0  0  0
  1  2  1  0
  2  3  1  0
  3  4  2  0
  6  7  2  0
  6  5  1  0
  8  7  1  0
  9  8  2  0
 11 10  1  6
 10  9  1  0
 12 11  1  0
 12  3  1  0
 13 11  1  0
 14 13  2  0
 15  9  1  0
 15 16  2  0
 16  6  1  0
 18 19  2  0
 18 17  1  0
 20 18  1  0
 21 20  1  0
 22 21  1  1
 22 23  1  0
 23 13  1  0
 24 25  1  0
 24 22  1  0
 26 24  2  0
M  END
$$$$
