GYQ.pdb
     RDKit          3D

 26 26  0  0  1  0  0  0  0  0999 V2000
   28.9619  -23.2389  -17.8638 N   0  0  0  0  0  0  0  0  0  0  0  0
   28.5460  -21.9262  -17.4102 C   0  0  0  0  0  0  0  0  0  0  0  0
   27.7741  -22.0564  -16.1430 C   0  0  0  0  0  0  0  0  0  0  0  0
   27.3965  -23.1930  -15.7589 O   0  0  0  0  0  0  0  0  0  0  0  0
   24.1886  -20.6758   -8.2884 O   0  0  0  0  0  0  0  0  0  0  0  0
   24.8927  -20.5353   -9.4895 C   0  0  0  0  0  0  0  0  0  0  0  0
   26.1325  -21.1260   -9.5912 C   0  0  0  0  0  0  0  0  0  0  0  0
   26.7989  -20.9663  -10.7922 C   0  0  0  0  0  0  0  0  0  0  0  0
   26.2722  -20.2578  -11.8481 C   0  0  0  0  0  0  0  0  0  0  0  0
   27.0005  -20.1054  -13.1076 C   0  0  0  0  0  0  0  0  0  0  0  0
   26.5760  -21.0762  -14.1747 C   0  0  2  0  0  0  0  0  0  0  0  0
   27.4371  -20.9440  -15.3328 N   0  0  0  0  0  0  0  0  0  0  0  0
   25.1471  -20.9844  -14.5184 C   0  0  0  0  0  0  0  0  0  0  0  0
   24.7924  -20.0727  -15.3084 O   0  0  0  0  0  0  0  0  0  0  0  0
   25.0299  -19.6808  -11.7106 C   0  0  0  0  0  0  0  0  0  0  0  0
   24.3305  -19.8215  -10.5147 C   0  0  0  0  0  0  0  0  0  0  0  0
   21.2059  -23.8322  -17.2379 N   0  0  0  0  0  0  0  0  0  0  0  0
   20.3729  -23.1861  -16.2689 C   0  0  0  0  0  0  0  0  0  0  0  0
   19.2840  -22.5972  -16.6084 O   0  0  0  0  0  0  0  0  0  0  0  0
   20.7089  -23.1640  -14.8295 C   0  0  0  0  0  0  0  0  0  0  0  0
   22.1574  -23.1192  -14.5042 C   0  0  0  0  0  0  0  0  0  0  0  0
   22.7191  -21.7547  -14.3843 C   0  0  2  0  0  0  0  0  0  0  0  0
   24.1500  -21.8485  -14.0224 N   0  0  0  0  0  0  0  0  0  0  0  0
   22.1062  -20.8508  -13.4492 C   0  0  0  0  0  0  0  0  0  0  0  0
   21.2761  -19.8209  -13.8501 O   0  0  0  0  0  0  0  0  0  0  0  0
   22.3071  -20.9500  -12.2127 O   0  0  0  0  0  0  0  0  0  0  0  0
  1  2  1  0
  2  3  1  0
  3  4  2  0
  6  7  2  0
  6  5  1  0
  8  7  1  0
  9  8  2  0
 11 10  1  1
 10  9  1  0
 12 11  1  0
 12  3  1  0
 13 11  1  0
 14 13  2  0
 15  9  1  0
 15 16  2  0
 16  6  1  0
 18 19  2  0
 18 17  1  0
 20 18  1  0
 21 20  1  0
 22 21  1  1
 22 23  1  0
 23 13  1  0
 24 25  1  0
 24 22  1  0
 26 24  2  0
M  END
$$$$
