GYQ.pdb
     RDKit          3D

 26 26  0  0  1  0  0  0  0  0999 V2000
   27.2823  -21.8917  -16.3532 N   0  0  0  0  0  0  0  0  0  0  0  0
   26.5643  -20.7293  -15.8682 C   0  0  0  0  0  0  0  0  0  0  0  0
   25.8006  -21.0894  -14.6412 C   0  0  0  0  0  0  0  0  0  0  0  0
   25.6146  -22.3006  -14.3575 O   0  0  0  0  0  0  0  0  0  0  0  0
   30.4627  -21.6503  -10.6615 O   0  0  0  0  0  0  0  0  0  0  0  0
   29.1421  -21.2219  -10.8362 C   0  0  0  0  0  0  0  0  0  0  0  0
   28.8734  -20.3375  -11.8569 C   0  0  0  0  0  0  0  0  0  0  0  0
   27.5578  -19.9361  -11.9996 C   0  0  0  0  0  0  0  0  0  0  0  0
   26.5492  -20.3829  -11.1766 C   0  0  0  0  0  0  0  0  0  0  0  0
   25.1657  -19.9409  -11.3513 C   0  0  0  0  0  0  0  0  0  0  0  0
   24.5039  -20.4927  -12.5838 C   0  0  2  0  0  0  0  0  0  0  0  0
   25.2626  -20.1187  -13.7606 N   0  0  0  0  0  0  0  0  0  0  0  0
   23.0785  -20.1402  -12.6936 C   0  0  0  0  0  0  0  0  0  0  0  0
   22.7907  -18.9814  -13.0878 O   0  0  0  0  0  0  0  0  0  0  0  0
   26.8548  -21.2668  -10.1665 C   0  0  0  0  0  0  0  0  0  0  0  0
   28.1695  -21.6922   -9.9939 C   0  0  0  0  0  0  0  0  0  0  0  0
   22.0030  -21.3629  -17.2052 N   0  0  0  0  0  0  0  0  0  0  0  0
   20.7847  -21.2807  -16.4572 C   0  0  0  0  0  0  0  0  0  0  0  0
   19.6787  -20.9425  -17.0142 O   0  0  0  0  0  0  0  0  0  0  0  0
   20.7248  -21.5849  -15.0118 C   0  0  0  0  0  0  0  0  0  0  0  0
   20.4405  -20.4320  -14.1197 C   0  0  0  0  0  0  0  0  0  0  0  0
   20.5943  -20.7191  -12.6755 C   0  0  2  0  0  0  0  0  0  0  0  0
   22.0148  -21.0129  -12.3872 N   0  0  0  0  0  0  0  0  0  0  0  0
   19.8196  -21.7917  -12.1130 C   0  0  0  0  0  0  0  0  0  0  0  0
   18.4574  -21.6895  -11.9014 O   0  0  0  0  0  0  0  0  0  0  0  0
   20.3519  -22.8785  -11.7748 O   0  0  0  0  0  0  0  0  0  0  0  0
  1  2  1  0
  2  3  1  0
  3  4  2  0
  6  7  2  0
  6  5  1  0
  8  7  1  0
  9  8  2  0
 11 10  1  1
 10  9  1  0
 12 11  1  0
 12  3  1  0
 13 11  1  0
 14 13  2  0
 15  9  1  0
 15 16  2  0
 16  6  1  0
 18 19  2  0
 18 17  1  0
 20 18  1  0
 21 20  1  0
 22 21  1  6
 22 23  1  0
 23 13  1  0
 24 25  1  0
 24 22  1  0
 26 24  2  0
M  END
$$$$
