GYQ.pdb
     RDKit          3D

 26 26  0  0  1  0  0  0  0  0999 V2000
   28.4978  -22.5359  -18.3008 N   0  0  0  0  0  0  0  0  0  0  0  0
   28.2313  -21.3010  -17.5896 C   0  0  0  0  0  0  0  0  0  0  0  0
   27.4226  -21.5894  -16.3725 C   0  0  0  0  0  0  0  0  0  0  0  0
   26.6397  -22.5737  -16.3649 O   0  0  0  0  0  0  0  0  0  0  0  0
   23.9824  -21.1400   -8.2812 O   0  0  0  0  0  0  0  0  0  0  0  0
   24.7739  -20.9494   -9.4193 C   0  0  0  0  0  0  0  0  0  0  0  0
   24.5948  -19.7975  -10.1523 C   0  0  0  0  0  0  0  0  0  0  0  0
   25.3941  -19.6431  -11.2701 C   0  0  0  0  0  0  0  0  0  0  0  0
   26.3288  -20.5782  -11.6525 C   0  0  0  0  0  0  0  0  0  0  0  0
   27.1609  -20.3879  -12.8406 C   0  0  0  0  0  0  0  0  0  0  0  0
   26.5839  -20.9966  -14.0888 C   0  0  2  0  0  0  0  0  0  0  0  0
   27.4917  -20.7963  -15.2005 N   0  0  0  0  0  0  0  0  0  0  0  0
   25.2155  -20.5416  -14.3864 C   0  0  0  0  0  0  0  0  0  0  0  0
   25.0615  -19.3475  -14.7492 O   0  0  0  0  0  0  0  0  0  0  0  0
   26.4804  -21.7180  -10.8955 C   0  0  0  0  0  0  0  0  0  0  0  0
   25.6920  -21.9061   -9.7633 C   0  0  0  0  0  0  0  0  0  0  0  0
   20.7494  -19.8507  -18.6439 N   0  0  0  0  0  0  0  0  0  0  0  0
   21.4144  -19.7023  -17.3845 C   0  0  0  0  0  0  0  0  0  0  0  0
   21.1525  -18.7198  -16.6008 O   0  0  0  0  0  0  0  0  0  0  0  0
   22.4292  -20.6669  -16.9100 C   0  0  0  0  0  0  0  0  0  0  0  0
   22.0869  -21.4074  -15.6688 C   0  0  0  0  0  0  0  0  0  0  0  0
   22.6837  -20.8485  -14.4346 C   0  0  2  0  0  0  0  0  0  0  0  0
   24.0666  -21.3528  -14.2923 N   0  0  0  0  0  0  0  0  0  0  0  0
   22.0139  -21.0971  -13.1869 C   0  0  0  0  0  0  0  0  0  0  0  0
   20.9740  -20.3069  -12.7343 O   0  0  0  0  0  0  0  0  0  0  0  0
   22.3530  -22.0475  -12.4381 O   0  0  0  0  0  0  0  0  0  0  0  0
  1  2  1  0
  2  3  1  0
  3  4  2  0
  6  7  2  0
  6  5  1  0
  8  7  1  0
  9  8  2  0
 11 10  1  1
 10  9  1  0
 12 11  1  0
 12  3  1  0
 13 11  1  0
 14 13  2  0
 15  9  1  0
 15 16  2  0
 16  6  1  0
 18 19  2  0
 18 17  1  0
 20 18  1  0
 21 20  1  0
 22 21  1  6
 22 23  1  0
 23 13  1  0
 24 25  1  0
 24 22  1  0
 26 24  2  0
M  END
$$$$
