PTN.pdb
     RDKit          3D

 23 23  0  0  1  0  0  0  0  0999 V2000
    8.4230  -14.8106   19.1812 N   0  0  0  0  0  0  0  0  0  0  0  0
    8.5187  -13.9323   18.0454 C   0  0  0  0  0  0  0  0  0  0  0  0
    7.6493  -12.7755   18.4238 C   0  0  0  0  0  0  0  0  0  0  0  0
    7.8578  -12.6313   19.9096 C   0  0  0  0  0  0  0  0  0  0  0  0
    8.5693  -13.9088   20.3025 C   0  0  1  0  0  0  0  0  0  0  0  0
    7.9903  -14.5279   21.5011 C   0  0  0  0  0  0  0  0  0  0  0  0
    6.7440  -14.6447   21.5989 O   0  0  0  0  0  0  0  0  0  0  0  0
    6.5140  -16.7055   22.2193 C   0  0  0  0  0  0  0  0  0  0  0  0
    7.5721  -17.0152   23.2539 C   0  0  1  0  0  0  0  0  0  0  0  0
    8.5703  -17.8265   22.7210 O   0  0  0  0  0  0  0  0  0  0  0  0
    8.1616  -15.6834   23.7316 C   0  0  2  0  0  0  0  0  0  0  0  0
    8.7608  -15.0191   22.5922 N   0  0  0  0  0  0  0  0  0  0  0  0
    9.1629  -15.9295   24.8034 C   0  0  0  0  0  0  0  0  0  0  0  0
   10.3804  -15.9728   24.4930 O   0  0  0  0  0  0  0  0  0  0  0  0
   10.4867  -13.0752   28.9518 N   0  0  0  0  0  0  0  0  0  0  0  0
   10.3317  -14.4841   28.9875 C   0  0  0  0  0  0  0  0  0  0  0  0
   11.1425  -15.1752   29.6492 O   0  0  0  0  0  0  0  0  0  0  0  0
    9.2432  -15.1352   28.2654 C   0  0  0  0  0  0  0  0  0  0  0  0
    9.6894  -16.1654   27.2492 C   0  0  2  0  0  0  0  0  0  0  0  0
    8.7708  -16.1139   26.1541 N   0  0  0  0  0  0  0  0  0  0  0  0
    9.8021  -17.5236   27.7865 C   0  0  0  0  0  0  0  0  0  0  0  0
   10.9336  -18.0192   28.4157 O   0  0  0  0  0  0  0  0  0  0  0  0
    8.8207  -18.3019   27.6789 O   0  0  0  0  0  0  0  0  0  0  0  0
  1  5  1  0
  1  2  1  0
  2  3  1  0
  4  3  1  0
  5  4  1  0
  6 12  1  0
  5  6  1  1
  7  6  2  0
  9  8  1  6
  9 11  1  0
 10  9  1  0
 11 12  1  6
 11 13  1  0
 13 20  1  0
 14 13  2  0
 16 15  1  0
 16 17  2  0
 18 16  1  0
 19 18  1  1
 20 19  1  0
 21 19  1  0
 21 22  1  0
 23 21  2  0
M  END
$$$$
