PTN.pdb
     RDKit          3D

 23 23  0  0  1  0  0  0  0  0999 V2000
    7.5759  -15.2076   19.6841 N   0  0  0  0  0  0  0  0  0  0  0  0
    6.9905  -14.6776   18.4812 C   0  0  0  0  0  0  0  0  0  0  0  0
    7.1852  -13.2009   18.6190 C   0  0  0  0  0  0  0  0  0  0  0  0
    8.5193  -13.0703   19.3084 C   0  0  0  0  0  0  0  0  0  0  0  0
    8.8177  -14.4738   19.7917 C   0  0  1  0  0  0  0  0  0  0  0  0
    9.2777  -14.5014   21.1856 C   0  0  0  0  0  0  0  0  0  0  0  0
   10.3538  -13.9333   21.4954 O   0  0  0  0  0  0  0  0  0  0  0  0
    7.3745  -13.4229   24.2147 C   0  0  0  0  0  0  0  0  0  0  0  0
    7.8456  -14.8260   24.5234 C   0  0  1  0  0  0  0  0  0  0  0  0
    6.8277  -15.7527   24.3142 O   0  0  0  0  0  0  0  0  0  0  0  0
    9.0410  -15.1278   23.6128 C   0  0  2  0  0  0  0  0  0  0  0  0
    8.5729  -15.1439   22.2419 N   0  0  0  0  0  0  0  0  0  0  0  0
    9.6494  -16.4307   23.9926 C   0  0  0  0  0  0  0  0  0  0  0  0
    9.1978  -17.4820   23.4718 O   0  0  0  0  0  0  0  0  0  0  0  0
   12.9026  -17.6720   23.0394 N   0  0  0  0  0  0  0  0  0  0  0  0
   13.5511  -17.4896   24.2868 C   0  0  0  0  0  0  0  0  0  0  0  0
   14.7941  -17.3253   24.3153 O   0  0  0  0  0  0  0  0  0  0  0  0
   12.7905  -17.4910   25.5325 C   0  0  0  0  0  0  0  0  0  0  0  0
   11.3053  -17.7328   25.3629 C   0  0  2  0  0  0  0  0  0  0  0  0
   10.7183  -16.5051   24.9223 N   0  0  0  0  0  0  0  0  0  0  0  0
   10.6417  -18.2385   26.5671 C   0  0  0  0  0  0  0  0  0  0  0  0
   10.7456  -19.5440   27.0217 O   0  0  0  0  0  0  0  0  0  0  0  0
    9.9295  -17.4530   27.2426 O   0  0  0  0  0  0  0  0  0  0  0  0
  1  5  1  0
  1  2  1  0
  2  3  1  0
  4  3  1  0
  5  4  1  0
  6 12  1  0
  5  6  1  1
  7  6  2  0
  9  8  1  6
  9 11  1  0
 10  9  1  0
 11 12  1  6
 11 13  1  0
 13 20  1  0
 14 13  2  0
 16 15  1  0
 16 17  2  0
 18 16  1  0
 19 18  1  1
 20 19  1  0
 21 19  1  0
 21 22  1  0
 23 21  2  0
M  END
$$$$
