PTN.pdb
     RDKit          3D

 23 23  0  0  1  0  0  0  0  0999 V2000
    7.4767  -16.3699   16.6501 N   0  0  0  0  0  0  0  0  0  0  0  0
    6.9840  -16.3376   15.2985 C   0  0  0  0  0  0  0  0  0  0  0  0
    7.4002  -14.9877   14.8069 C   0  0  0  0  0  0  0  0  0  0  0  0
    8.7355  -14.7537   15.4658 C   0  0  0  0  0  0  0  0  0  0  0  0
    8.8150  -15.8368   16.5208 C   0  0  1  0  0  0  0  0  0  0  0  0
    9.2593  -15.3216   17.8218 C   0  0  0  0  0  0  0  0  0  0  0  0
   10.4575  -14.9802   17.9778 O   0  0  0  0  0  0  0  0  0  0  0  0
    7.4344  -12.7043   19.8764 C   0  0  0  0  0  0  0  0  0  0  0  0
    7.7592  -13.8206   20.8430 C   0  0  1  0  0  0  0  0  0  0  0  0
    6.6377  -14.6068   21.0941 O   0  0  0  0  0  0  0  0  0  0  0  0
    8.8778  -14.6647   20.2223 C   0  0  2  0  0  0  0  0  0  0  0  0
    8.4064  -15.1768   18.9518 N   0  0  0  0  0  0  0  0  0  0  0  0
    9.2502  -15.7686   21.1468 C   0  0  0  0  0  0  0  0  0  0  0  0
    8.7259  -16.8987   20.9788 O   0  0  0  0  0  0  0  0  0  0  0  0
   13.6147  -16.3099   21.2869 N   0  0  0  0  0  0  0  0  0  0  0  0
   12.7000  -17.1190   22.0072 C   0  0  0  0  0  0  0  0  0  0  0  0
   12.4495  -18.2776   21.5977 O   0  0  0  0  0  0  0  0  0  0  0  0
   12.0499  -16.6194   23.2148 C   0  0  0  0  0  0  0  0  0  0  0  0
   10.5377  -16.5814   23.1458 C   0  0  2  0  0  0  0  0  0  0  0  0
   10.1765  -15.5689   22.2024 N   0  0  0  0  0  0  0  0  0  0  0  0
    9.8869  -16.3605   24.4396 C   0  0  0  0  0  0  0  0  0  0  0  0
    9.8889  -17.2794   25.4776 O   0  0  0  0  0  0  0  0  0  0  0  0
    9.2841  -15.2753   24.6381 O   0  0  0  0  0  0  0  0  0  0  0  0
  1  5  1  0
  1  2  1  0
  2  3  1  0
  4  3  1  0
  5  4  1  0
  6 12  1  0
  5  6  1  1
  7  6  2  0
  9  8  1  6
  9 11  1  0
 10  9  1  0
 11 12  1  6
 11 13  1  0
 13 20  1  0
 14 13  2  0
 16 15  1  0
 16 17  2  0
 18 16  1  0
 19 18  1  1
 20 19  1  0
 21 19  1  0
 21 22  1  0
 23 21  2  0
M  END
$$$$
