PTN.pdb
     RDKit          3D

 23 23  0  0  1  0  0  0  0  0999 V2000
    7.9381  -15.4226   16.4265 N   0  0  0  0  0  0  0  0  0  0  0  0
    7.1766  -15.1381   15.2392 C   0  0  0  0  0  0  0  0  0  0  0  0
    7.0363  -13.6490   15.2624 C   0  0  0  0  0  0  0  0  0  0  0  0
    8.3436  -13.1670   15.8373 C   0  0  0  0  0  0  0  0  0  0  0  0
    8.9832  -14.4235   16.3893 C   0  0  1  0  0  0  0  0  0  0  0  0
    9.5194  -14.2323   17.7426 C   0  0  0  0  0  0  0  0  0  0  0  0
   10.6055  -13.6221   17.8993 O   0  0  0  0  0  0  0  0  0  0  0  0
    7.2013  -13.6512   20.9507 C   0  0  0  0  0  0  0  0  0  0  0  0
    8.2851  -14.6575   21.2648 C   0  0  1  0  0  0  0  0  0  0  0  0
    7.7937  -15.9586   21.1993 O   0  0  0  0  0  0  0  0  0  0  0  0
    9.4148  -14.4592   20.2480 C   0  0  2  0  0  0  0  0  0  0  0  0
    8.8797  -14.7020   18.9238 N   0  0  0  0  0  0  0  0  0  0  0  0
   10.5393  -15.3827   20.5555 C   0  0  0  0  0  0  0  0  0  0  0  0
   10.5473  -16.5216   20.0234 O   0  0  0  0  0  0  0  0  0  0  0  0
   13.3045  -15.2049   19.0078 N   0  0  0  0  0  0  0  0  0  0  0  0
   14.2046  -14.7301   19.9949 C   0  0  0  0  0  0  0  0  0  0  0  0
   15.2181  -14.0813   19.6417 O   0  0  0  0  0  0  0  0  0  0  0  0
   13.9648  -14.9874   21.4115 C   0  0  0  0  0  0  0  0  0  0  0  0
   12.7332  -15.8197   21.7004 C   0  0  2  0  0  0  0  0  0  0  0  0
   11.5904  -15.0034   21.4294 N   0  0  0  0  0  0  0  0  0  0  0  0
   12.6875  -16.3659   23.0590 C   0  0  0  0  0  0  0  0  0  0  0  0
   13.5109  -17.3833   23.5159 O   0  0  0  0  0  0  0  0  0  0  0  0
   11.8554  -15.8942   23.8749 O   0  0  0  0  0  0  0  0  0  0  0  0
  1  5  1  0
  1  2  1  0
  2  3  1  0
  4  3  1  0
  5  4  1  0
  6 12  1  0
  5  6  1  1
  7  6  2  0
  9  8  1  6
  9 11  1  0
 10  9  1  0
 11 12  1  6
 11 13  1  0
 13 20  1  0
 14 13  2  0
 16 15  1  0
 16 17  2  0
 18 16  1  0
 19 18  1  1
 20 19  1  0
 21 19  1  0
 21 22  1  0
 23 21  2  0
M  END
$$$$
