PTN.pdb
     RDKit          3D

 23 23  0  0  1  0  0  0  0  0999 V2000
    8.1422  -15.0011   18.4673 N   0  0  0  0  0  0  0  0  0  0  0  0
    7.6060  -14.4029   17.2735 C   0  0  0  0  0  0  0  0  0  0  0  0
    7.6577  -12.9364   17.5638 C   0  0  0  0  0  0  0  0  0  0  0  0
    8.9180  -12.7676   18.3731 C   0  0  0  0  0  0  0  0  0  0  0  0
    9.3020  -14.1835   18.7476 C   0  0  1  0  0  0  0  0  0  0  0  0
    9.6544  -14.3127   20.1669 C   0  0  0  0  0  0  0  0  0  0  0  0
   10.7465  -13.8506   20.5797 O   0  0  0  0  0  0  0  0  0  0  0  0
    7.4202  -13.4493   23.1202 C   0  0  0  0  0  0  0  0  0  0  0  0
    7.9374  -14.8456   23.3818 C   0  0  1  0  0  0  0  0  0  0  0  0
    6.9788  -15.8026   23.0593 O   0  0  0  0  0  0  0  0  0  0  0  0
    9.1985  -15.0427   22.5331 C   0  0  2  0  0  0  0  0  0  0  0  0
    8.8248  -14.9419   21.1371 N   0  0  0  0  0  0  0  0  0  0  0  0
    9.8101  -16.3641   22.8360 C   0  0  0  0  0  0  0  0  0  0  0  0
    9.9936  -17.1744   21.8925 O   0  0  0  0  0  0  0  0  0  0  0  0
   12.4892  -20.3774   24.2150 N   0  0  0  0  0  0  0  0  0  0  0  0
   13.0390  -19.0832   24.0333 C   0  0  0  0  0  0  0  0  0  0  0  0
   14.2796  -18.9240   24.1249 O   0  0  0  0  0  0  0  0  0  0  0  0
   12.1800  -17.9398   23.7421 C   0  0  0  0  0  0  0  0  0  0  0  0
   10.8638  -17.9344   24.4909 C   0  0  2  0  0  0  0  0  0  0  0  0
   10.1851  -16.7205   24.1569 N   0  0  0  0  0  0  0  0  0  0  0  0
   11.0020  -18.0855   25.9415 C   0  0  0  0  0  0  0  0  0  0  0  0
   10.5093  -17.1794   26.8679 O   0  0  0  0  0  0  0  0  0  0  0  0
   11.6023  -19.0940   26.3920 O   0  0  0  0  0  0  0  0  0  0  0  0
  1  5  1  0
  1  2  1  0
  2  3  1  0
  4  3  1  0
  5  4  1  0
  6 12  1  0
  5  6  1  1
  7  6  2  0
  9  8  1  6
  9 11  1  0
 10  9  1  0
 11 12  1  6
 11 13  1  0
 13 20  1  0
 14 13  2  0
 16 15  1  0
 16 17  2  0
 18 16  1  0
 19 18  1  6
 20 19  1  0
 21 19  1  0
 21 22  1  0
 23 21  2  0
M  END
$$$$
