PTN.pdb
     RDKit          3D

 23 23  0  0  1  0  0  0  0  0999 V2000
    7.2492  -14.8398   19.7672 N   0  0  0  0  0  0  0  0  0  0  0  0
    6.7068  -14.2111   18.5920 C   0  0  0  0  0  0  0  0  0  0  0  0
    7.1196  -12.7809   18.7387 C   0  0  0  0  0  0  0  0  0  0  0  0
    8.4810  -12.8568   19.3809 C   0  0  0  0  0  0  0  0  0  0  0  0
    8.5876  -14.2964   19.8380 C   0  0  1  0  0  0  0  0  0  0  0  0
    9.0859  -14.4129   21.2140 C   0  0  0  0  0  0  0  0  0  0  0  0
   10.2746  -14.1014   21.4721 O   0  0  0  0  0  0  0  0  0  0  0  0
    7.1268  -13.2833   24.3737 C   0  0  0  0  0  0  0  0  0  0  0  0
    7.6427  -14.6818   24.6262 C   0  0  1  0  0  0  0  0  0  0  0  0
    6.6396  -15.6276   24.4316 O   0  0  0  0  0  0  0  0  0  0  0  0
    8.8084  -14.9302   23.6624 C   0  0  2  0  0  0  0  0  0  0  0  0
    8.2974  -14.8666   22.3083 N   0  0  0  0  0  0  0  0  0  0  0  0
    9.4260  -16.2530   23.9467 C   0  0  0  0  0  0  0  0  0  0  0  0
    9.0550  -17.2488   23.2751 O   0  0  0  0  0  0  0  0  0  0  0  0
   12.7239  -19.8512   25.8098 N   0  0  0  0  0  0  0  0  0  0  0  0
   13.3129  -18.7043   25.2199 C   0  0  0  0  0  0  0  0  0  0  0  0
   14.5403  -18.7074   24.9621 O   0  0  0  0  0  0  0  0  0  0  0  0
   12.5093  -17.5257   24.9112 C   0  0  0  0  0  0  0  0  0  0  0  0
   11.0426  -17.6534   25.2659 C   0  0  2  0  0  0  0  0  0  0  0  0
   10.4152  -16.4070   24.9517 N   0  0  0  0  0  0  0  0  0  0  0  0
   10.7967  -18.0375   26.6580 C   0  0  0  0  0  0  0  0  0  0  0  0
   11.0593  -19.2968   27.1749 O   0  0  0  0  0  0  0  0  0  0  0  0
   10.3177  -17.1842   27.4473 O   0  0  0  0  0  0  0  0  0  0  0  0
  1  5  1  0
  1  2  1  0
  2  3  1  0
  4  3  1  0
  5  4  1  0
  6 12  1  0
  5  6  1  1
  7  6  2  0
  9  8  1  6
  9 11  1  0
 10  9  1  0
 11 12  1  6
 11 13  1  0
 13 20  1  0
 14 13  2  0
 16 15  1  0
 16 17  2  0
 18 16  1  0
 19 18  1  1
 20 19  1  0
 21 19  1  0
 21 22  1  0
 23 21  2  0
M  END
$$$$
