PTN.pdb
     RDKit          3D

 23 23  0  0  1  0  0  0  0  0999 V2000
    7.0896  -11.8752   24.8657 N   0  0  0  0  0  0  0  0  0  0  0  0
    6.4221  -10.7488   25.4623 C   0  0  0  0  0  0  0  0  0  0  0  0
    5.3660  -11.3790   26.3137 C   0  0  0  0  0  0  0  0  0  0  0  0
    6.0157  -12.6364   26.8320 C   0  0  0  0  0  0  0  0  0  0  0  0
    7.2598  -12.7801   25.9811 C   0  0  1  0  0  0  0  0  0  0  0  0
    7.4382  -14.1463   25.4741 C   0  0  0  0  0  0  0  0  0  0  0  0
    7.1893  -15.1234   26.2223 O   0  0  0  0  0  0  0  0  0  0  0  0
    8.4678  -17.2800   21.8456 C   0  0  0  0  0  0  0  0  0  0  0  0
    8.4625  -15.8247   22.2556 C   0  0  1  0  0  0  0  0  0  0  0  0
    7.3989  -15.1438   21.6691 O   0  0  0  0  0  0  0  0  0  0  0  0
    8.3565  -15.7708   23.7837 C   0  0  2  0  0  0  0  0  0  0  0  0
    7.8860  -14.4529   24.1585 N   0  0  0  0  0  0  0  0  0  0  0  0
    9.6806  -16.0668   24.3929 C   0  0  0  0  0  0  0  0  0  0  0  0
   10.3066  -15.1344   24.9579 O   0  0  0  0  0  0  0  0  0  0  0  0
   12.1958  -19.0037   27.7288 N   0  0  0  0  0  0  0  0  0  0  0  0
   10.9361  -18.3645   27.8504 C   0  0  0  0  0  0  0  0  0  0  0  0
   10.3928  -18.2862   28.9780 O   0  0  0  0  0  0  0  0  0  0  0  0
   10.2684  -17.7995   26.6820 C   0  0  0  0  0  0  0  0  0  0  0  0
   11.0476  -17.9248   25.3896 C   0  0  2  0  0  0  0  0  0  0  0  0
   10.2417  -17.3688   24.3470 N   0  0  0  0  0  0  0  0  0  0  0  0
   11.4594  -19.2943   25.0717 C   0  0  0  0  0  0  0  0  0  0  0  0
   12.7149  -19.8127   25.3492 O   0  0  0  0  0  0  0  0  0  0  0  0
   10.6354  -20.0612   24.5119 O   0  0  0  0  0  0  0  0  0  0  0  0
  1  5  1  0
  1  2  1  0
  2  3  1  0
  4  3  1  0
  5  4  1  0
  6 12  1  0
  5  6  1  6
  7  6  2  0
  9  8  1  6
  9 11  1  0
 10  9  1  0
 11 12  1  6
 11 13  1  0
 13 20  1  0
 14 13  2  0
 16 15  1  0
 16 17  2  0
 18 16  1  0
 19 18  1  1
 20 19  1  0
 21 19  1  0
 21 22  1  0
 23 21  2  0
M  END
$$$$
