PTN.pdb
     RDKit          3D

 23 23  0  0  1  0  0  0  0  0999 V2000
    8.7535  -15.0731   17.4842 N   0  0  0  0  0  0  0  0  0  0  0  0
    8.1464  -14.6343   16.2557 C   0  0  0  0  0  0  0  0  0  0  0  0
    7.7991  -13.2052   16.5282 C   0  0  0  0  0  0  0  0  0  0  0  0
    8.9259  -12.7146   17.4008 C   0  0  0  0  0  0  0  0  0  0  0  0
    9.6437  -13.9820   17.8145 C   0  0  1  0  0  0  0  0  0  0  0  0
    9.9393  -14.0158   19.2520 C   0  0  0  0  0  0  0  0  0  0  0  0
   10.8981  -13.3430   19.7045 O   0  0  0  0  0  0  0  0  0  0  0  0
    7.2983  -13.8846   22.1070 C   0  0  0  0  0  0  0  0  0  0  0  0
    8.2326  -15.0374   22.3970 C   0  0  1  0  0  0  0  0  0  0  0  0
    7.6563  -16.2517   22.0335 O   0  0  0  0  0  0  0  0  0  0  0  0
    9.5253  -14.8001   21.6086 C   0  0  2  0  0  0  0  0  0  0  0  0
    9.1973  -14.7777   20.1977 N   0  0  0  0  0  0  0  0  0  0  0  0
   10.5102  -15.8705   21.9188 C   0  0  0  0  0  0  0  0  0  0  0  0
   11.0323  -16.5041   20.9668 O   0  0  0  0  0  0  0  0  0  0  0  0
   15.6014  -15.6785   22.5526 N   0  0  0  0  0  0  0  0  0  0  0  0
   14.2937  -16.2094   22.4175 C   0  0  0  0  0  0  0  0  0  0  0  0
   14.1012  -17.1814   21.6488 O   0  0  0  0  0  0  0  0  0  0  0  0
   13.1745  -15.6389   23.1606 C   0  0  0  0  0  0  0  0  0  0  0  0
   12.1594  -16.6522   23.6462 C   0  0  2  0  0  0  0  0  0  0  0  0
   10.8654  -16.1841   23.2559 N   0  0  0  0  0  0  0  0  0  0  0  0
   12.2192  -16.9134   25.0864 C   0  0  0  0  0  0  0  0  0  0  0  0
   13.0184  -17.8858   25.6675 O   0  0  0  0  0  0  0  0  0  0  0  0
   11.5076  -16.2220   25.8585 O   0  0  0  0  0  0  0  0  0  0  0  0
  1  5  1  0
  1  2  1  0
  2  3  1  0
  4  3  1  0
  5  4  1  0
  6 12  1  0
  5  6  1  1
  7  6  2  0
  9  8  1  6
  9 11  1  0
 10  9  1  0
 11 12  1  6
 11 13  1  0
 13 20  1  0
 14 13  2  0
 16 15  1  0
 16 17  2  0
 18 16  1  0
 19 18  1  1
 20 19  1  0
 21 19  1  0
 21 22  1  0
 23 21  2  0
M  END
$$$$
