PTN.pdb
     RDKit          3D

 23 23  0  0  1  0  0  0  0  0999 V2000
    7.3001  -15.1262   19.5598 N   0  0  0  0  0  0  0  0  0  0  0  0
    6.6927  -14.5510   18.3890 C   0  0  0  0  0  0  0  0  0  0  0  0
    7.0451  -13.1007   18.4890 C   0  0  0  0  0  0  0  0  0  0  0  0
    8.4284  -13.1005   19.0877 C   0  0  0  0  0  0  0  0  0  0  0  0
    8.6143  -14.5223   19.5740 C   0  0  1  0  0  0  0  0  0  0  0  0
    9.1609  -14.5830   20.9351 C   0  0  0  0  0  0  0  0  0  0  0  0
   10.3077  -14.1259   21.1644 O   0  0  0  0  0  0  0  0  0  0  0  0
    7.2785  -13.3554   23.9507 C   0  0  0  0  0  0  0  0  0  0  0  0
    7.7955  -14.7247   24.3295 C   0  0  1  0  0  0  0  0  0  0  0  0
    6.7964  -15.6871   24.2100 O   0  0  0  0  0  0  0  0  0  0  0  0
    8.9702  -15.0531   23.4014 C   0  0  2  0  0  0  0  0  0  0  0  0
    8.4660  -15.1384   22.0459 N   0  0  0  0  0  0  0  0  0  0  0  0
    9.6066  -16.3293   23.8238 C   0  0  0  0  0  0  0  0  0  0  0  0
    9.2082  -17.4027   23.3047 O   0  0  0  0  0  0  0  0  0  0  0  0
   14.1498  -15.9206   23.6648 N   0  0  0  0  0  0  0  0  0  0  0  0
   13.3045  -17.0378   23.8828 C   0  0  0  0  0  0  0  0  0  0  0  0
   13.0150  -17.7869   22.9195 O   0  0  0  0  0  0  0  0  0  0  0  0
   12.7702  -17.3235   25.2106 C   0  0  0  0  0  0  0  0  0  0  0  0
   11.2739  -17.5529   25.2512 C   0  0  2  0  0  0  0  0  0  0  0  0
   10.6434  -16.3542   24.7916 N   0  0  0  0  0  0  0  0  0  0  0  0
   10.7668  -17.9509   26.5667 C   0  0  0  0  0  0  0  0  0  0  0  0
   11.1029  -19.1355   27.2035 O   0  0  0  0  0  0  0  0  0  0  0  0
    9.9761  -17.1820   27.1701 O   0  0  0  0  0  0  0  0  0  0  0  0
  1  5  1  0
  1  2  1  0
  2  3  1  0
  4  3  1  0
  5  4  1  0
  6 12  1  0
  5  6  1  1
  7  6  2  0
  9  8  1  6
  9 11  1  0
 10  9  1  0
 11 12  1  6
 11 13  1  0
 13 20  1  0
 14 13  2  0
 16 15  1  0
 16 17  2  0
 18 16  1  0
 19 18  1  1
 20 19  1  0
 21 19  1  0
 21 22  1  0
 23 21  2  0
M  END
$$$$
