NGM.pdb
     RDKit          3D

 21 20  0  0  1  0  0  0  0  0999 V2000
   19.7797  -16.0934  -19.8947 N   0  0  0  0  0  0  0  0  0  0  0  0
   20.5910  -15.7140  -18.7898 C   0  0  0  0  0  0  0  0  0  0  0  0
   21.2237  -16.6296  -18.2069 O   0  0  0  0  0  0  0  0  0  0  0  0
   20.6347  -14.2978  -18.4089 C   0  0  0  0  0  0  0  0  0  0  0  0
   19.7290  -13.4297  -19.2368 C   0  0  2  0  0  0  0  0  0  0  0  0
   20.2459  -13.3955  -20.5888 N   0  0  0  0  0  0  0  0  0  0  0  0
   19.6016  -12.0613  -18.7402 C   0  0  0  0  0  0  0  0  0  0  0  0
   19.0566  -11.8480  -17.6171 O   0  0  0  0  0  0  0  0  0  0  0  0
   20.0624  -10.9148  -19.4536 N   0  0  0  0  0  0  0  0  0  0  0  0
   19.9254   -9.6162  -18.8609 C   0  0  0  0  0  0  0  0  0  0  0  0
   20.7198   -9.3739  -17.6559 C   0  0  0  0  0  0  0  0  0  0  0  0
   20.7846  -10.3545  -16.8470 O   0  0  0  0  0  0  0  0  0  0  0  0
   26.9696  -10.5952  -14.5067 C   0  0  0  0  0  0  0  0  0  0  0  0
   25.7633  -10.3108  -15.8264 S   0  0  0  0  0  0  0  0  0  0  0  0
   24.4564   -9.1392  -15.2915 C   0  0  0  0  0  0  0  0  0  0  0  0
   23.4903   -9.0140  -16.4195 C   0  0  0  0  0  0  0  0  0  0  0  0
   22.3294   -8.1169  -16.1926 C   0  0  2  0  0  0  0  0  0  0  0  0
   21.4054   -8.1935  -17.3064 N   0  0  0  0  0  0  0  0  0  0  0  0
   22.6882   -6.7038  -15.8669 C   0  0  0  0  0  0  0  0  0  0  0  0
   22.6891   -5.7924  -16.7270 O   0  0  0  0  0  0  0  0  0  0  0  0
   23.0431   -6.3194  -14.5806 O   0  0  0  0  0  0  0  0  0  0  0  0
  2  1  1  0
  2  3  2  0
  4  2  1  0
  5  4  1  0
  5  6  1  6
  7  5  1  0
  7  8  2  0
  9  7  1  0
 10  9  1  0
 10 11  1  0
 11 18  1  0
 12 11  2  0
 14 13  1  0
 14 15  1  0
 15 16  1  0
 17 16  1  6
 17 19  1  0
 18 17  1  0
 19 21  1  0
 20 19  2  0
M  END
$$$$
