NGM.pdb
     RDKit          3D

 21 20  0  0  1  0  0  0  0  0999 V2000
   23.8661  -22.8752  -18.5120 N   0  0  0  0  0  0  0  0  0  0  0  0
   23.4746  -22.4418  -17.2152 C   0  0  0  0  0  0  0  0  0  0  0  0
   22.5755  -23.1051  -16.6404 O   0  0  0  0  0  0  0  0  0  0  0  0
   24.1372  -21.2649  -16.6421 C   0  0  0  0  0  0  0  0  0  0  0  0
   25.4830  -21.5699  -16.0461 C   0  0  2  0  0  0  0  0  0  0  0  0
   25.4957  -22.9609  -15.6443 N   0  0  0  0  0  0  0  0  0  0  0  0
   25.8246  -20.7377  -14.8946 C   0  0  0  0  0  0  0  0  0  0  0  0
   25.7140  -19.4786  -14.9736 O   0  0  0  0  0  0  0  0  0  0  0  0
   26.2875  -21.2605  -13.6503 N   0  0  0  0  0  0  0  0  0  0  0  0
   26.5683  -20.3598  -12.5704 C   0  0  0  0  0  0  0  0  0  0  0  0
   26.3587  -20.8894  -11.2223 C   0  0  0  0  0  0  0  0  0  0  0  0
   25.8442  -22.0525  -11.1743 O   0  0  0  0  0  0  0  0  0  0  0  0
   27.9713  -17.9705   -5.5944 C   0  0  0  0  0  0  0  0  0  0  0  0
   27.9201  -19.7169   -5.1198 S   0  0  0  0  0  0  0  0  0  0  0  0
   26.8411  -20.6812   -6.2479 C   0  0  0  0  0  0  0  0  0  0  0  0
   27.1002  -20.1889   -7.6308 C   0  0  0  0  0  0  0  0  0  0  0  0
   26.3001  -20.8178   -8.7116 C   0  0  2  0  0  0  0  0  0  0  0  0
   26.6609  -20.2586   -9.9991 N   0  0  0  0  0  0  0  0  0  0  0  0
   24.8230  -20.7903   -8.4903 C   0  0  0  0  0  0  0  0  0  0  0  0
   24.0567  -20.0435   -9.1427 O   0  0  0  0  0  0  0  0  0  0  0  0
   24.2127  -21.5989   -7.5406 O   0  0  0  0  0  0  0  0  0  0  0  0
  2  1  1  0
  2  3  2  0
  4  2  1  0
  5  4  1  0
  5  6  1  1
  7  5  1  0
  7  8  2  0
  9  7  1  0
 10  9  1  0
 10 11  1  0
 11 18  1  0
 12 11  2  0
 14 13  1  0
 14 15  1  0
 15 16  1  0
 17 16  1  1
 17 19  1  0
 18 17  1  0
 19 21  1  0
 20 19  2  0
M  END
$$$$
