NGM.pdb
     RDKit          3D

 21 20  0  0  1  0  0  0  0  0999 V2000
   16.4889  -11.7825  -14.5818 N   0  0  0  0  0  0  0  0  0  0  0  0
   17.2913  -12.3138  -13.5345 C   0  0  0  0  0  0  0  0  0  0  0  0
   17.5269  -13.5475  -13.5676 O   0  0  0  0  0  0  0  0  0  0  0  0
   17.7841  -11.3987  -12.4990 C   0  0  0  0  0  0  0  0  0  0  0  0
   17.2983   -9.9867  -12.6711 C   0  0  2  0  0  0  0  0  0  0  0  0
   18.3116   -9.2437  -13.3905 N   0  0  0  0  0  0  0  0  0  0  0  0
   17.0072   -9.3017  -11.4136 C   0  0  0  0  0  0  0  0  0  0  0  0
   16.0650   -9.7154  -10.6755 O   0  0  0  0  0  0  0  0  0  0  0  0
   17.7325   -8.1656  -10.9454 N   0  0  0  0  0  0  0  0  0  0  0  0
   17.3724   -7.5696   -9.6919 C   0  0  0  0  0  0  0  0  0  0  0  0
   16.2941   -6.5812   -9.7376 C   0  0  0  0  0  0  0  0  0  0  0  0
   15.7880   -6.3889  -10.8895 O   0  0  0  0  0  0  0  0  0  0  0  0
   10.7265   -6.8874   -5.6961 C   0  0  0  0  0  0  0  0  0  0  0  0
   11.8970   -5.5433   -6.0141 S   0  0  0  0  0  0  0  0  0  0  0  0
   12.9324   -5.8979   -7.4869 C   0  0  0  0  0  0  0  0  0  0  0  0
   13.8712   -4.7518   -7.6499 C   0  0  0  0  0  0  0  0  0  0  0  0
   14.7693   -4.8022   -8.8309 C   0  0  2  0  0  0  0  0  0  0  0  0
   15.7697   -5.8371   -8.6621 N   0  0  0  0  0  0  0  0  0  0  0  0
   15.3845   -3.4926   -9.2024 C   0  0  0  0  0  0  0  0  0  0  0  0
   16.5250   -3.1482   -8.8133 O   0  0  0  0  0  0  0  0  0  0  0  0
   14.7200   -2.5767  -10.0072 O   0  0  0  0  0  0  0  0  0  0  0  0
  2  1  1  0
  2  3  2  0
  4  2  1  0
  5  4  1  0
  5  6  1  1
  7  5  1  0
  7  8  2  0
  9  7  1  0
 10  9  1  0
 10 11  1  0
 11 18  1  0
 12 11  2  0
 14 13  1  0
 14 15  1  0
 15 16  1  0
 17 16  1  1
 17 19  1  0
 18 17  1  0
 19 21  1  0
 20 19  2  0
M  END
$$$$
