NGM.pdb
     RDKit          3D

 21 20  0  0  1  0  0  0  0  0999 V2000
   27.3279  -15.9425  -17.2280 N   0  0  0  0  0  0  0  0  0  0  0  0
   26.6758  -17.1879  -17.4440 C   0  0  0  0  0  0  0  0  0  0  0  0
   26.9017  -17.7670  -18.5360 O   0  0  0  0  0  0  0  0  0  0  0  0
   25.7945  -17.7070  -16.3921 C   0  0  0  0  0  0  0  0  0  0  0  0
   26.4881  -18.6418  -15.4411 C   0  0  2  0  0  0  0  0  0  0  0  0
   26.4994  -19.9634  -16.0324 N   0  0  0  0  0  0  0  0  0  0  0  0
   25.8656  -18.7151  -14.1211 C   0  0  0  0  0  0  0  0  0  0  0  0
   25.7700  -17.6704  -13.4118 O   0  0  0  0  0  0  0  0  0  0  0  0
   25.3420  -19.9177  -13.5592 N   0  0  0  0  0  0  0  0  0  0  0  0
   24.6646  -19.8666  -12.2963 C   0  0  0  0  0  0  0  0  0  0  0  0
   25.3655  -20.4793  -11.1671 C   0  0  0  0  0  0  0  0  0  0  0  0
   25.4669  -21.7469  -11.2196 O   0  0  0  0  0  0  0  0  0  0  0  0
   28.7495  -19.5475   -4.0065 C   0  0  0  0  0  0  0  0  0  0  0  0
   28.3031  -18.9595   -5.6596 S   0  0  0  0  0  0  0  0  0  0  0  0
   27.1567  -20.1249   -6.4928 C   0  0  0  0  0  0  0  0  0  0  0  0
   26.9461  -19.6184   -7.8787 C   0  0  0  0  0  0  0  0  0  0  0  0
   26.1305  -20.4768   -8.7741 C   0  0  2  0  0  0  0  0  0  0  0  0
   25.9274  -19.8254  -10.0526 N   0  0  0  0  0  0  0  0  0  0  0  0
   24.8427  -20.9486   -8.1820 C   0  0  0  0  0  0  0  0  0  0  0  0
   23.7288  -20.5099   -8.5528 O   0  0  0  0  0  0  0  0  0  0  0  0
   24.8093  -21.9084   -7.1792 O   0  0  0  0  0  0  0  0  0  0  0  0
  2  1  1  0
  2  3  2  0
  4  2  1  0
  5  4  1  0
  5  6  1  6
  7  5  1  0
  7  8  2  0
  9  7  1  0
 10  9  1  0
 10 11  1  0
 11 18  1  0
 12 11  2  0
 14 13  1  0
 14 15  1  0
 15 16  1  0
 17 16  1  1
 17 19  1  0
 18 17  1  0
 19 21  1  0
 20 19  2  0
M  END
$$$$
