NGM.pdb
     RDKit          3D

 21 20  0  0  1  0  0  0  0  0999 V2000
   28.3994  -17.3708  -16.2178 N   0  0  0  0  0  0  0  0  0  0  0  0
   27.5330  -16.9543  -15.1696 C   0  0  0  0  0  0  0  0  0  0  0  0
   27.0989  -15.7765  -15.2238 O   0  0  0  0  0  0  0  0  0  0  0  0
   27.2078  -17.9143  -14.1088 C   0  0  0  0  0  0  0  0  0  0  0  0
   26.0472  -18.8071  -14.4483 C   0  0  2  0  0  0  0  0  0  0  0  0
   24.8455  -17.9998  -14.4688 N   0  0  0  0  0  0  0  0  0  0  0  0
   25.8601  -19.9173  -13.5168 C   0  0  0  0  0  0  0  0  0  0  0  0
   26.6704  -20.8904  -13.5271 O   0  0  0  0  0  0  0  0  0  0  0  0
   24.7965  -19.9830  -12.5678 N   0  0  0  0  0  0  0  0  0  0  0  0
   24.6915  -21.1255  -11.7077 C   0  0  0  0  0  0  0  0  0  0  0  0
   25.6181  -21.1637  -10.5756 C   0  0  0  0  0  0  0  0  0  0  0  0
   26.5555  -22.0190  -10.6752 O   0  0  0  0  0  0  0  0  0  0  0  0
   28.1490  -19.2056   -3.8225 C   0  0  0  0  0  0  0  0  0  0  0  0
   27.1432  -19.4635   -5.3057 S   0  0  0  0  0  0  0  0  0  0  0  0
   28.1816  -19.4822   -6.8183 C   0  0  0  0  0  0  0  0  0  0  0  0
   27.2591  -19.3927   -7.9855 C   0  0  0  0  0  0  0  0  0  0  0  0
   26.4427  -20.5994   -8.2705 C   0  0  2  0  0  0  0  0  0  0  0  0
   25.5808  -20.3691   -9.4126 N   0  0  0  0  0  0  0  0  0  0  0  0
   25.6806  -21.1272   -7.0991 C   0  0  0  0  0  0  0  0  0  0  0  0
   24.4631  -20.8879   -6.9228 O   0  0  0  0  0  0  0  0  0  0  0  0
   26.2855  -21.9196   -6.1325 O   0  0  0  0  0  0  0  0  0  0  0  0
  2  1  1  0
  2  3  2  0
  4  2  1  0
  5  4  1  0
  5  6  1  1
  7  5  1  0
  7  8  2  0
  9  7  1  0
 10  9  1  0
 10 11  1  0
 11 18  1  0
 12 11  2  0
 14 13  1  0
 14 15  1  0
 15 16  1  0
 17 16  1  1
 17 19  1  0
 18 17  1  0
 19 21  1  0
 20 19  2  0
M  END
$$$$
