NGM.pdb
     RDKit          3D

 21 20  0  0  1  0  0  0  0  0999 V2000
   26.2571  -16.7276  -20.6027 N   0  0  0  0  0  0  0  0  0  0  0  0
   26.0836  -18.1047  -20.9132 C   0  0  0  0  0  0  0  0  0  0  0  0
   26.0506  -18.4141  -22.1305 O   0  0  0  0  0  0  0  0  0  0  0  0
   25.9564  -19.0598  -19.8068 C   0  0  0  0  0  0  0  0  0  0  0  0
   26.0585  -18.4185  -18.4512 C   0  0  2  0  0  0  0  0  0  0  0  0
   27.1850  -19.0053  -17.7562 N   0  0  0  0  0  0  0  0  0  0  0  0
   24.8594  -18.5716  -17.6302 C   0  0  0  0  0  0  0  0  0  0  0  0
   23.9567  -19.3874  -17.9814 O   0  0  0  0  0  0  0  0  0  0  0  0
   24.6281  -17.8445  -16.4245 N   0  0  0  0  0  0  0  0  0  0  0  0
   23.4146  -18.0646  -15.6929 C   0  0  0  0  0  0  0  0  0  0  0  0
   23.4032  -19.2271  -14.8040 C   0  0  0  0  0  0  0  0  0  0  0  0
   24.3097  -20.0904  -15.0343 O   0  0  0  0  0  0  0  0  0  0  0  0
   26.4732  -20.4699   -9.9940 C   0  0  0  0  0  0  0  0  0  0  0  0
   24.7891  -20.7900   -9.4116 S   0  0  0  0  0  0  0  0  0  0  0  0
   23.7340  -21.4512  -10.7593 C   0  0  0  0  0  0  0  0  0  0  0  0
   23.4300  -20.3161  -11.6762 C   0  0  0  0  0  0  0  0  0  0  0  0
   22.6246  -20.6425  -12.8798 C   0  0  2  0  0  0  0  0  0  0  0  0
   22.5122  -19.4838  -13.7430 N   0  0  0  0  0  0  0  0  0  0  0  0
   21.2906  -21.2496  -12.5911 C   0  0  0  0  0  0  0  0  0  0  0  0
   20.2309  -20.5805  -12.5891 O   0  0  0  0  0  0  0  0  0  0  0  0
   21.1505  -22.6015  -12.3070 O   0  0  0  0  0  0  0  0  0  0  0  0
  2  1  1  0
  2  3  2  0
  4  2  1  0
  5  4  1  0
  5  6  1  1
  7  5  1  0
  7  8  2  0
  9  7  1  0
 10  9  1  0
 10 11  1  0
 11 18  1  0
 12 11  2  0
 14 13  1  0
 14 15  1  0
 15 16  1  0
 17 16  1  1
 17 19  1  0
 18 17  1  0
 19 21  1  0
 20 19  2  0
M  END
$$$$
