NGM.pdb
     RDKit          3D

 21 20  0  0  1  0  0  0  0  0999 V2000
   24.4217  -20.7690  -16.2970 N   0  0  0  0  0  0  0  0  0  0  0  0
   25.2505  -20.3885  -17.3884 C   0  0  0  0  0  0  0  0  0  0  0  0
   24.7104  -19.7268  -18.3099 O   0  0  0  0  0  0  0  0  0  0  0  0
   26.6619  -20.7885  -17.3665 C   0  0  0  0  0  0  0  0  0  0  0  0
   27.0553  -21.5179  -16.1125 C   0  0  2  0  0  0  0  0  0  0  0  0
   26.1235  -22.6077  -15.9112 N   0  0  0  0  0  0  0  0  0  0  0  0
   27.0716  -20.6774  -14.9173 C   0  0  0  0  0  0  0  0  0  0  0  0
   27.3722  -19.4511  -15.0148 O   0  0  0  0  0  0  0  0  0  0  0  0
   26.7629  -21.1564  -13.6092 N   0  0  0  0  0  0  0  0  0  0  0  0
   26.6293  -20.2201  -12.5313 C   0  0  0  0  0  0  0  0  0  0  0  0
   26.3914  -20.7960  -11.2070 C   0  0  0  0  0  0  0  0  0  0  0  0
   25.7743  -21.9092  -11.2065 O   0  0  0  0  0  0  0  0  0  0  0  0
   28.1713  -18.1004   -5.6041 C   0  0  0  0  0  0  0  0  0  0  0  0
   27.7245  -19.7509   -5.0092 S   0  0  0  0  0  0  0  0  0  0  0  0
   26.6265  -20.6124   -6.2004 C   0  0  0  0  0  0  0  0  0  0  0  0
   27.0400  -20.1850   -7.5671 C   0  0  0  0  0  0  0  0  0  0  0  0
   26.2794  -20.7750   -8.6973 C   0  0  2  0  0  0  0  0  0  0  0  0
   26.7667  -20.2575   -9.9602 N   0  0  0  0  0  0  0  0  0  0  0  0
   24.7953  -20.6490   -8.5828 C   0  0  0  0  0  0  0  0  0  0  0  0
   24.1336  -19.8273   -9.2594 O   0  0  0  0  0  0  0  0  0  0  0  0
   24.0608  -21.4434   -7.7125 O   0  0  0  0  0  0  0  0  0  0  0  0
  2  1  1  0
  2  3  2  0
  4  2  1  0
  5  4  1  0
  5  6  1  1
  7  5  1  0
  7  8  2  0
  9  7  1  0
 10  9  1  0
 10 11  1  0
 11 18  1  0
 12 11  2  0
 14 13  1  0
 14 15  1  0
 15 16  1  0
 17 16  1  1
 17 19  1  0
 18 17  1  0
 19 21  1  0
 20 19  2  0
M  END
$$$$
