NGM.pdb
     RDKit          3D

 21 20  0  0  1  0  0  0  0  0999 V2000
   16.9966  -12.3639  -14.9398 N   0  0  0  0  0  0  0  0  0  0  0  0
   16.3918  -11.3978  -15.7906 C   0  0  0  0  0  0  0  0  0  0  0  0
   15.3362  -11.7396  -16.3802 O   0  0  0  0  0  0  0  0  0  0  0  0
   17.0316  -10.0841  -15.9218 C   0  0  0  0  0  0  0  0  0  0  0  0
   18.3003   -9.9569  -15.1257 C   0  0  2  0  0  0  0  0  0  0  0  0
   18.4999  -11.1889  -14.3918 N   0  0  0  0  0  0  0  0  0  0  0  0
   18.3022   -8.8369  -14.1871 C   0  0  0  0  0  0  0  0  0  0  0  0
   18.1297   -7.6575  -14.6148 O   0  0  0  0  0  0  0  0  0  0  0  0
   18.4903   -8.9842  -12.7804 N   0  0  0  0  0  0  0  0  0  0  0  0
   18.5241   -7.8158  -11.9497 C   0  0  0  0  0  0  0  0  0  0  0  0
   17.2406   -7.3878  -11.3918 C   0  0  0  0  0  0  0  0  0  0  0  0
   16.2334   -7.5850  -12.1445 O   0  0  0  0  0  0  0  0  0  0  0  0
   11.5507   -8.3237   -6.6027 C   0  0  0  0  0  0  0  0  0  0  0  0
   13.1895   -8.5797   -7.3282 S   0  0  0  0  0  0  0  0  0  0  0  0
   13.7302   -7.1101   -8.2846 C   0  0  0  0  0  0  0  0  0  0  0  0
   15.0998   -7.3990   -8.7967 C   0  0  0  0  0  0  0  0  0  0  0  0
   15.6963   -6.3736   -9.6893 C   0  0  2  0  0  0  0  0  0  0  0  0
   17.0098   -6.7933  -10.1353 N   0  0  0  0  0  0  0  0  0  0  0  0
   15.7192   -4.9915   -9.1229 C   0  0  0  0  0  0  0  0  0  0  0  0
   14.6872   -4.4166   -8.7042 O   0  0  0  0  0  0  0  0  0  0  0  0
   16.8966   -4.2615   -9.0282 O   0  0  0  0  0  0  0  0  0  0  0  0
  2  1  1  0
  2  3  2  0
  4  2  1  0
  5  4  1  0
  5  6  1  1
  7  5  1  0
  7  8  2  0
  9  7  1  0
 10  9  1  0
 10 11  1  0
 11 18  1  0
 12 11  2  0
 14 13  1  0
 14 15  1  0
 15 16  1  0
 17 16  1  1
 17 19  1  0
 18 17  1  0
 19 21  1  0
 20 19  2  0
M  END
$$$$
