NGM.pdb
     RDKit          3D

 21 20  0  0  1  0  0  0  0  0999 V2000
   11.0048  -11.3234  -10.2298 N   0  0  0  0  0  0  0  0  0  0  0  0
   11.7051  -11.4738  -11.4586 C   0  0  0  0  0  0  0  0  0  0  0  0
   11.6612  -12.6047  -12.0043 O   0  0  0  0  0  0  0  0  0  0  0  0
   12.4226  -10.3144  -12.0004 C   0  0  0  0  0  0  0  0  0  0  0  0
   13.6276  -10.6878  -12.8176 C   0  0  2  0  0  0  0  0  0  0  0  0
   14.5680  -11.3690  -11.9528 N   0  0  0  0  0  0  0  0  0  0  0  0
   14.2951   -9.5495  -13.4453 C   0  0  0  0  0  0  0  0  0  0  0  0
   13.6451   -8.7892  -14.2220 O   0  0  0  0  0  0  0  0  0  0  0  0
   15.6689   -9.2251  -13.2375 N   0  0  0  0  0  0  0  0  0  0  0  0
   16.2254   -8.0741  -13.8871 C   0  0  0  0  0  0  0  0  0  0  0  0
   17.6465   -7.8241  -13.6430 C   0  0  0  0  0  0  0  0  0  0  0  0
   18.0816   -8.2388  -12.5211 O   0  0  0  0  0  0  0  0  0  0  0  0
   23.9244  -11.1521  -14.1024 C   0  0  0  0  0  0  0  0  0  0  0  0
   22.1784  -10.7335  -14.3349 S   0  0  0  0  0  0  0  0  0  0  0  0
   21.9019   -8.9260  -14.1816 C   0  0  0  0  0  0  0  0  0  0  0  0
   20.4433   -8.6870  -14.3739 C   0  0  0  0  0  0  0  0  0  0  0  0
   19.9991   -7.2712  -14.3299 C   0  0  2  0  0  0  0  0  0  0  0  0
   18.5627   -7.1859  -14.5026 N   0  0  0  0  0  0  0  0  0  0  0  0
   20.7244   -6.3611  -15.2665 C   0  0  0  0  0  0  0  0  0  0  0  0
   21.8482   -5.8745  -14.9997 O   0  0  0  0  0  0  0  0  0  0  0  0
   20.1881   -6.0015  -16.4957 O   0  0  0  0  0  0  0  0  0  0  0  0
  2  1  1  0
  2  3  2  0
  4  2  1  0
  5  4  1  0
  5  6  1  1
  7  5  1  0
  7  8  2  0
  9  7  1  0
 10  9  1  0
 10 11  1  0
 11 18  1  0
 12 11  2  0
 14 13  1  0
 14 15  1  0
 15 16  1  0
 17 16  1  6
 17 19  1  0
 18 17  1  0
 19 21  1  0
 20 19  2  0
M  END
$$$$
