NGM.pdb
     RDKit          3D

 21 20  0  0  1  0  0  0  0  0999 V2000
   22.2888  -18.6215  -18.1836 N   0  0  0  0  0  0  0  0  0  0  0  0
   23.4547  -19.4230  -18.0380 C   0  0  0  0  0  0  0  0  0  0  0  0
   23.6692  -20.2832  -18.9283 O   0  0  0  0  0  0  0  0  0  0  0  0
   24.3179  -19.1956  -16.8736 C   0  0  0  0  0  0  0  0  0  0  0  0
   23.7970  -19.8274  -15.6131 C   0  0  2  0  0  0  0  0  0  0  0  0
   22.6091  -19.1082  -15.2034 N   0  0  0  0  0  0  0  0  0  0  0  0
   24.7563  -19.8310  -14.5108 C   0  0  0  0  0  0  0  0  0  0  0  0
   25.7940  -20.5533  -14.5824 O   0  0  0  0  0  0  0  0  0  0  0  0
   24.6006  -19.0540  -13.3242 N   0  0  0  0  0  0  0  0  0  0  0  0
   25.6283  -19.0841  -12.3245 C   0  0  0  0  0  0  0  0  0  0  0  0
   25.5511  -20.1800  -11.3578 C   0  0  0  0  0  0  0  0  0  0  0  0
   24.4646  -20.8427  -11.3801 O   0  0  0  0  0  0  0  0  0  0  0  0
   28.1477  -18.1805   -5.7017 C   0  0  0  0  0  0  0  0  0  0  0  0
   28.3042  -19.9841   -5.7129 S   0  0  0  0  0  0  0  0  0  0  0  0
   26.9498  -20.7631   -6.6749 C   0  0  0  0  0  0  0  0  0  0  0  0
   27.1890  -20.4408   -8.1103 C   0  0  0  0  0  0  0  0  0  0  0  0
   26.2172  -21.0053   -9.0803 C   0  0  2  0  0  0  0  0  0  0  0  0
   26.5335  -20.5691  -10.4256 N   0  0  0  0  0  0  0  0  0  0  0  0
   24.7834  -20.7591   -8.7409 C   0  0  0  0  0  0  0  0  0  0  0  0
   24.2015  -19.6822   -9.0102 O   0  0  0  0  0  0  0  0  0  0  0  0
   24.0096  -21.7193   -8.1027 O   0  0  0  0  0  0  0  0  0  0  0  0
  2  1  1  0
  2  3  2  0
  4  2  1  0
  5  4  1  0
  5  6  1  1
  7  5  1  0
  7  8  2  0
  9  7  1  0
 10  9  1  0
 10 11  1  0
 11 18  1  0
 12 11  2  0
 14 13  1  0
 14 15  1  0
 15 16  1  0
 17 16  1  1
 17 19  1  0
 18 17  1  0
 19 21  1  0
 20 19  2  0
M  END
$$$$
