NGM.pdb
     RDKit          3D

 21 20  0  0  1  0  0  0  0  0999 V2000
   25.2976  -23.3380  -17.9489 N   0  0  0  0  0  0  0  0  0  0  0  0
   25.5844  -21.9838  -18.2755 C   0  0  0  0  0  0  0  0  0  0  0  0
   25.4335  -21.6432  -19.4755 O   0  0  0  0  0  0  0  0  0  0  0  0
   26.0315  -21.0863  -17.2045 C   0  0  0  0  0  0  0  0  0  0  0  0
   26.1864  -21.7736  -15.8767 C   0  0  2  0  0  0  0  0  0  0  0  0
   25.2804  -22.9025  -15.8427 N   0  0  0  0  0  0  0  0  0  0  0  0
   25.9180  -20.9120  -14.7274 C   0  0  0  0  0  0  0  0  0  0  0  0
   25.5457  -19.7157  -14.9116 O   0  0  0  0  0  0  0  0  0  0  0  0
   26.0499  -21.3375  -13.3719 N   0  0  0  0  0  0  0  0  0  0  0  0
   25.7055  -20.4323  -12.3144 C   0  0  0  0  0  0  0  0  0  0  0  0
   26.0094  -20.8864  -10.9568 C   0  0  0  0  0  0  0  0  0  0  0  0
   25.9042  -22.1413  -10.7721 O   0  0  0  0  0  0  0  0  0  0  0  0
   28.5900  -19.2592   -3.6130 C   0  0  0  0  0  0  0  0  0  0  0  0
   28.2235  -18.7731   -5.3180 S   0  0  0  0  0  0  0  0  0  0  0  0
   27.1984  -20.0379   -6.1643 C   0  0  0  0  0  0  0  0  0  0  0  0
   27.1401  -19.6633   -7.6057 C   0  0  0  0  0  0  0  0  0  0  0  0
   26.3730  -20.5761   -8.4903 C   0  0  2  0  0  0  0  0  0  0  0  0
   26.3981  -20.0954   -9.8573 N   0  0  0  0  0  0  0  0  0  0  0  0
   24.9815  -20.8659   -8.0306 C   0  0  0  0  0  0  0  0  0  0  0  0
   24.7370  -21.5449   -7.0060 O   0  0  0  0  0  0  0  0  0  0  0  0
   23.8725  -20.3937   -8.7199 O   0  0  0  0  0  0  0  0  0  0  0  0
  2  1  1  0
  2  3  2  0
  4  2  1  0
  5  4  1  0
  5  6  1  6
  7  5  1  0
  7  8  2  0
  9  7  1  0
 10  9  1  0
 10 11  1  0
 11 18  1  0
 12 11  2  0
 14 13  1  0
 14 15  1  0
 15 16  1  0
 17 16  1  1
 17 19  1  0
 18 17  1  0
 19 21  1  0
 20 19  2  0
M  END
$$$$
