NGM.pdb
     RDKit          3D

 21 20  0  0  1  0  0  0  0  0999 V2000
   20.3311   -9.6365  -17.1490 N   0  0  0  0  0  0  0  0  0  0  0  0
   19.1671   -8.8229  -17.0702 C   0  0  0  0  0  0  0  0  0  0  0  0
   18.7182   -8.3651  -18.1507 O   0  0  0  0  0  0  0  0  0  0  0  0
   18.5758   -8.5754  -15.7505 C   0  0  0  0  0  0  0  0  0  0  0  0
   19.3349   -9.2229  -14.6263 C   0  0  2  0  0  0  0  0  0  0  0  0
   18.7576  -10.5281  -14.3827 N   0  0  0  0  0  0  0  0  0  0  0  0
   19.3221   -8.4561  -13.3825 C   0  0  0  0  0  0  0  0  0  0  0  0
   19.9466   -7.3564  -13.3150 O   0  0  0  0  0  0  0  0  0  0  0  0
   18.6342   -8.8722  -12.2037 N   0  0  0  0  0  0  0  0  0  0  0  0
   18.5698   -7.9865  -11.0778 C   0  0  0  0  0  0  0  0  0  0  0  0
   17.2474   -7.4445  -10.7627 C   0  0  0  0  0  0  0  0  0  0  0  0
   16.4863   -7.2631  -11.7666 O   0  0  0  0  0  0  0  0  0  0  0  0
   11.1327   -7.7406   -5.9149 C   0  0  0  0  0  0  0  0  0  0  0  0
   12.8356   -8.0974   -6.4154 S   0  0  0  0  0  0  0  0  0  0  0  0
   13.3512   -7.0375   -7.8217 C   0  0  0  0  0  0  0  0  0  0  0  0
   14.7632   -7.3904   -8.1431 C   0  0  0  0  0  0  0  0  0  0  0  0
   15.3811   -6.6572   -9.2764 C   0  0  2  0  0  0  0  0  0  0  0  0
   16.7409   -7.1103   -9.4910 N   0  0  0  0  0  0  0  0  0  0  0  0
   15.3030   -5.1691   -9.1725 C   0  0  0  0  0  0  0  0  0  0  0  0
   16.2931   -4.4605   -8.8752 O   0  0  0  0  0  0  0  0  0  0  0  0
   14.1179   -4.4830   -9.4023 O   0  0  0  0  0  0  0  0  0  0  0  0
  2  1  1  0
  2  3  2  0
  4  2  1  0
  5  4  1  0
  5  6  1  1
  7  5  1  0
  7  8  2  0
  9  7  1  0
 10  9  1  0
 10 11  1  0
 11 18  1  0
 12 11  2  0
 14 13  1  0
 14 15  1  0
 15 16  1  0
 17 16  1  1
 17 19  1  0
 18 17  1  0
 19 21  1  0
 20 19  2  0
M  END
$$$$
