SSE.pdb
     RDKit          3D

 22 21  0  0  1  0  0  0  0  0999 V2000
   17.6713  -13.1577  -14.6099 O   0  0  0  0  0  0  0  0  0  0  0  0
   18.2118  -11.8592  -14.6758 C   0  0  0  0  0  0  0  0  0  0  0  0
   17.1461  -10.8680  -15.1022 C   0  0  2  0  0  0  0  0  0  0  0  0
   16.8979  -11.0829  -16.5005 N   0  0  0  0  0  0  0  0  0  0  0  0
   17.4943   -9.4861  -14.7650 C   0  0  0  0  0  0  0  0  0  0  0  0
   18.1117   -8.7694  -15.5984 O   0  0  0  0  0  0  0  0  0  0  0  0
   17.4089   -7.9180  -10.8770 O   0  0  0  0  0  0  0  0  0  0  0  0
   16.9628   -7.0556  -11.8638 C   0  0  0  0  0  0  0  0  0  0  0  0
   17.5563   -7.5082  -13.1890 C   0  0  2  0  0  0  0  0  0  0  0  0
   17.1802   -8.8518  -13.5176 N   0  0  0  0  0  0  0  0  0  0  0  0
   19.0180   -7.2951  -13.2014 C   0  0  0  0  0  0  0  0  0  0  0  0
   19.8495   -8.2329  -13.1176 O   0  0  0  0  0  0  0  0  0  0  0  0
   19.5149   -5.9746  -13.3139 N   0  0  0  0  0  0  0  0  0  0  0  0
   20.9678   -5.7127  -13.5365 C   0  0  1  0  0  0  0  0  0  0  0  0
   21.4116   -6.5165  -14.7061 C   0  0  0  0  0  0  0  0  0  0  0  0
   22.8051   -6.3152  -15.1187 C   0  0  0  0  0  0  0  0  0  0  0  0
   23.2769   -7.0584  -16.2978 C   0  0  0  0  0  0  0  0  0  0  0  0
   23.5467   -6.4758  -17.3785 O   0  0  0  0  0  0  0  0  0  0  0  0
   21.2400   -4.3135  -13.5304 C   0  0  0  0  0  0  0  0  0  0  0  0
   22.5148   -3.8236  -13.1957 O   0  0  0  0  0  0  0  0  0  0  0  0
   23.4310   -8.4301  -16.2281 O   0  0  0  0  0  0  0  0  0  0  0  0
   20.3805   -3.4146  -13.8176 O   0  0  0  0  0  0  0  0  0  0  0  0
  1  2  1  0
  3  2  1  0
  3  5  1  0
  3  4  1  6
  5  6  2  0
  5 10  1  0
  8  7  1  0
  9  8  1  1
 10  9  1  0
 11  9  1  0
 11 13  1  0
 12 11  2  0
 14 19  1  0
 14 13  1  0
 14 15  1  6
 16 15  1  0
 17 16  1  0
 18 17  2  0
 19 20  1  0
 21 17  1  0
 22 19  2  0
M  END
$$$$
