SSE.pdb
     RDKit          3D

 22 21  0  0  1  0  0  0  0  0999 V2000
   17.8863  -11.4079  -18.9400 O   0  0  0  0  0  0  0  0  0  0  0  0
   18.3595  -10.6220  -17.8720 C   0  0  0  0  0  0  0  0  0  0  0  0
   19.0334  -11.4982  -16.8337 C   0  0  2  0  0  0  0  0  0  0  0  0
   18.0280  -12.3695  -16.2925 N   0  0  0  0  0  0  0  0  0  0  0  0
   19.7546  -10.7216  -15.8230 C   0  0  0  0  0  0  0  0  0  0  0  0
   19.1225  -10.1649  -14.8851 O   0  0  0  0  0  0  0  0  0  0  0  0
   23.9531  -10.0273  -15.8931 O   0  0  0  0  0  0  0  0  0  0  0  0
   23.3015  -10.0804  -14.6728 C   0  0  0  0  0  0  0  0  0  0  0  0
   21.8553   -9.6634  -14.8921 C   0  0  2  0  0  0  0  0  0  0  0  0
   21.1763  -10.5326  -15.8075 N   0  0  0  0  0  0  0  0  0  0  0  0
   21.7800   -8.2398  -15.2790 C   0  0  0  0  0  0  0  0  0  0  0  0
   21.9095   -7.8423  -16.4636 O   0  0  0  0  0  0  0  0  0  0  0  0
   21.5500   -7.2700  -14.2742 N   0  0  0  0  0  0  0  0  0  0  0  0
   21.4879   -5.8153  -14.6047 C   0  0  1  0  0  0  0  0  0  0  0  0
   20.0636   -5.4480  -14.8226 C   0  0  0  0  0  0  0  0  0  0  0  0
   19.8122   -4.0291  -15.0980 C   0  0  0  0  0  0  0  0  0  0  0  0
   18.4113   -3.6069  -15.2544 C   0  0  0  0  0  0  0  0  0  0  0  0
   17.4790   -4.4439  -15.3563 O   0  0  0  0  0  0  0  0  0  0  0  0
   22.2535   -5.0492  -13.6780 C   0  0  0  0  0  0  0  0  0  0  0  0
   22.7032   -3.7568  -14.0016 O   0  0  0  0  0  0  0  0  0  0  0  0
   18.1003   -2.2608  -15.2918 O   0  0  0  0  0  0  0  0  0  0  0  0
   22.5865   -5.4552  -12.5146 O   0  0  0  0  0  0  0  0  0  0  0  0
  1  2  1  0
  3  2  1  0
  3  5  1  0
  3  4  1  1
  5  6  2  0
  5 10  1  0
  8  7  1  0
  9  8  1  6
 10  9  1  0
 11  9  1  0
 11 13  1  0
 12 11  2  0
 14 19  1  0
 14 13  1  0
 14 15  1  1
 16 15  1  0
 17 16  1  0
 18 17  2  0
 19 20  1  0
 21 17  1  0
 22 19  2  0
M  END
$$$$
