SSE.pdb
     RDKit          3D

 22 21  0  0  1  0  0  0  0  0999 V2000
   16.7194  -10.6645  -18.9671 O   0  0  0  0  0  0  0  0  0  0  0  0
   17.0933   -9.8975  -17.8472 C   0  0  0  0  0  0  0  0  0  0  0  0
   17.8019  -10.7682  -16.8275 C   0  0  2  0  0  0  0  0  0  0  0  0
   16.7968  -11.5446  -16.1567 N   0  0  0  0  0  0  0  0  0  0  0  0
   18.6582   -9.9959  -15.9247 C   0  0  0  0  0  0  0  0  0  0  0  0
   18.1458   -9.1744  -15.1173 O   0  0  0  0  0  0  0  0  0  0  0  0
   22.8614  -10.0928  -16.0791 O   0  0  0  0  0  0  0  0  0  0  0  0
   22.2958   -9.9245  -14.8268 C   0  0  0  0  0  0  0  0  0  0  0  0
   20.9159   -9.3118  -15.0113 C   0  0  2  0  0  0  0  0  0  0  0  0
   20.0880  -10.0982  -15.8778 N   0  0  0  0  0  0  0  0  0  0  0  0
   21.0283   -7.9020  -15.4380 C   0  0  0  0  0  0  0  0  0  0  0  0
   20.9368   -7.5379  -16.6367 O   0  0  0  0  0  0  0  0  0  0  0  0
   21.2486   -6.9066  -14.4562 N   0  0  0  0  0  0  0  0  0  0  0  0
   21.3474   -5.4640  -14.8278 C   0  0  1  0  0  0  0  0  0  0  0  0
   19.9692   -4.9283  -14.9843 C   0  0  0  0  0  0  0  0  0  0  0  0
   19.8793   -3.4983  -15.2993 C   0  0  0  0  0  0  0  0  0  0  0  0
   18.5345   -2.9086  -15.3957 C   0  0  0  0  0  0  0  0  0  0  0  0
   18.3678   -1.6793  -15.5988 O   0  0  0  0  0  0  0  0  0  0  0  0
   22.2503   -4.7764  -13.9653 C   0  0  0  0  0  0  0  0  0  0  0  0
   22.9769   -3.6602  -14.4161 O   0  0  0  0  0  0  0  0  0  0  0  0
   17.4203   -3.7151  -15.2611 O   0  0  0  0  0  0  0  0  0  0  0  0
   22.4707   -5.1026  -12.7511 O   0  0  0  0  0  0  0  0  0  0  0  0
  1  2  1  0
  3  2  1  0
  3  5  1  0
  3  4  1  1
  5  6  2  0
  5 10  1  0
  8  7  1  0
  9  8  1  6
 10  9  1  0
 11  9  1  0
 11 13  1  0
 12 11  2  0
 14 19  1  0
 14 13  1  0
 14 15  1  1
 16 15  1  0
 17 16  1  0
 18 17  2  0
 19 20  1  0
 21 17  1  0
 22 19  2  0
M  END
$$$$
