SSE.pdb
     RDKit          3D

 22 21  0  0  1  0  0  0  0  0999 V2000
   17.3329  -12.4258  -14.8087 O   0  0  0  0  0  0  0  0  0  0  0  0
   17.8169  -11.1668  -15.2124 C   0  0  0  0  0  0  0  0  0  0  0  0
   18.5728  -11.2901  -16.5214 C   0  0  2  0  0  0  0  0  0  0  0  0
   19.6489  -12.2171  -16.3075 N   0  0  0  0  0  0  0  0  0  0  0  0
   19.0009   -9.9930  -17.0495 C   0  0  0  0  0  0  0  0  0  0  0  0
   20.1662   -9.5709  -16.8188 O   0  0  0  0  0  0  0  0  0  0  0  0
   18.1877   -6.1611  -19.9293 O   0  0  0  0  0  0  0  0  0  0  0  0
   17.6115   -7.2766  -19.3459 C   0  0  0  0  0  0  0  0  0  0  0  0
   18.6155   -7.8695  -18.3692 C   0  0  2  0  0  0  0  0  0  0  0  0
   18.1749   -9.1263  -17.8393 N   0  0  0  0  0  0  0  0  0  0  0  0
   18.9610   -6.8868  -17.3217 C   0  0  0  0  0  0  0  0  0  0  0  0
   18.3886   -6.8442  -16.2044 O   0  0  0  0  0  0  0  0  0  0  0  0
   19.9855   -5.9451  -17.5797 N   0  0  0  0  0  0  0  0  0  0  0  0
   20.4367   -4.9871  -16.5271 C   0  0  1  0  0  0  0  0  0  0  0  0
   21.0895   -5.7637  -15.4400 C   0  0  0  0  0  0  0  0  0  0  0  0
   21.7063   -4.9646  -14.3756 C   0  0  0  0  0  0  0  0  0  0  0  0
   22.4457   -5.6864  -13.3279 C   0  0  0  0  0  0  0  0  0  0  0  0
   23.0442   -5.0768  -12.4057 O   0  0  0  0  0  0  0  0  0  0  0  0
   21.1479   -3.8946  -17.1037 C   0  0  0  0  0  0  0  0  0  0  0  0
   21.7069   -3.9906  -18.3904 O   0  0  0  0  0  0  0  0  0  0  0  0
   22.4909   -7.0676  -13.3474 O   0  0  0  0  0  0  0  0  0  0  0  0
   21.3334   -2.7732  -16.5228 O   0  0  0  0  0  0  0  0  0  0  0  0
  1  2  1  0
  3  2  1  0
  3  5  1  0
  3  4  1  1
  5  6  2  0
  5 10  1  0
  8  7  1  0
  9  8  1  1
 10  9  1  0
 11  9  1  0
 11 13  1  0
 12 11  2  0
 14 19  1  0
 14 13  1  0
 14 15  1  1
 16 15  1  0
 17 16  1  0
 18 17  2  0
 19 20  1  0
 21 17  1  0
 22 19  2  0
M  END
$$$$
