SSE.pdb
     RDKit          3D

 22 21  0  0  1  0  0  0  0  0999 V2000
   17.2832  -10.9519  -18.9677 O   0  0  0  0  0  0  0  0  0  0  0  0
   17.7621  -10.1931  -17.8827 C   0  0  0  0  0  0  0  0  0  0  0  0
   18.4668  -11.0914  -16.8843 C   0  0  2  0  0  0  0  0  0  0  0  0
   17.4658  -11.9241  -16.2782 N   0  0  0  0  0  0  0  0  0  0  0  0
   19.2770  -10.3396  -15.9236 C   0  0  0  0  0  0  0  0  0  0  0  0
   18.7187   -9.5965  -15.0719 O   0  0  0  0  0  0  0  0  0  0  0  0
   23.4756  -10.1763  -16.0912 O   0  0  0  0  0  0  0  0  0  0  0  0
   22.9131  -10.0971  -14.8287 C   0  0  0  0  0  0  0  0  0  0  0  0
   21.4937   -9.5711  -14.9773 C   0  0  2  0  0  0  0  0  0  0  0  0
   20.7096  -10.3780  -15.8654 N   0  0  0  0  0  0  0  0  0  0  0  0
   21.5076   -8.1420  -15.3511 C   0  0  0  0  0  0  0  0  0  0  0  0
   21.2347   -7.7317  -16.5065 O   0  0  0  0  0  0  0  0  0  0  0  0
   21.8422   -7.1817  -14.3667 N   0  0  0  0  0  0  0  0  0  0  0  0
   21.8288   -5.7213  -14.6767 C   0  0  1  0  0  0  0  0  0  0  0  0
   20.4932   -5.3755  -15.2315 C   0  0  0  0  0  0  0  0  0  0  0  0
   20.2998   -3.9633  -15.5787 C   0  0  0  0  0  0  0  0  0  0  0  0
   18.9851   -3.5699  -16.1098 C   0  0  0  0  0  0  0  0  0  0  0  0
   18.1626   -2.9200  -15.4160 O   0  0  0  0  0  0  0  0  0  0  0  0
   22.3254   -4.9624  -13.5769 C   0  0  0  0  0  0  0  0  0  0  0  0
   22.7868   -3.6459  -13.7530 O   0  0  0  0  0  0  0  0  0  0  0  0
   18.6343   -3.9174  -17.4006 O   0  0  0  0  0  0  0  0  0  0  0  0
   22.3928   -5.3965  -12.3785 O   0  0  0  0  0  0  0  0  0  0  0  0
  1  2  1  0
  3  2  1  0
  3  5  1  0
  3  4  1  1
  5  6  2  0
  5 10  1  0
  8  7  1  0
  9  8  1  6
 10  9  1  0
 11  9  1  0
 11 13  1  0
 12 11  2  0
 14 19  1  0
 14 13  1  0
 14 15  1  1
 16 15  1  0
 17 16  1  0
 18 17  2  0
 19 20  1  0
 21 17  1  0
 22 19  2  0
M  END
$$$$
