SSE.pdb
     RDKit          3D

 22 21  0  0  1  0  0  0  0  0999 V2000
   17.3979  -11.0257  -19.7442 O   0  0  0  0  0  0  0  0  0  0  0  0
   17.6096  -10.0836  -18.7196 C   0  0  0  0  0  0  0  0  0  0  0  0
   18.1469  -10.7698  -17.4784 C   0  0  2  0  0  0  0  0  0  0  0  0
   17.0830  -11.5691  -16.9378 N   0  0  0  0  0  0  0  0  0  0  0  0
   18.7290   -9.8273  -16.5205 C   0  0  0  0  0  0  0  0  0  0  0  0
   17.9794   -9.0853  -15.8300 O   0  0  0  0  0  0  0  0  0  0  0  0
   22.4971   -8.2939  -13.8995 O   0  0  0  0  0  0  0  0  0  0  0  0
   22.0718   -9.1898  -14.8656 C   0  0  0  0  0  0  0  0  0  0  0  0
   20.6904   -8.7582  -15.3332 C   0  0  2  0  0  0  0  0  0  0  0  0
   20.1359   -9.6697  -16.2906 N   0  0  0  0  0  0  0  0  0  0  0  0
   20.7187   -7.3607  -15.8110 C   0  0  0  0  0  0  0  0  0  0  0  0
   21.0664   -7.0396  -16.9746 O   0  0  0  0  0  0  0  0  0  0  0  0
   20.3364   -6.3272  -14.9228 N   0  0  0  0  0  0  0  0  0  0  0  0
   20.4548   -4.8909  -15.3127 C   0  0  1  0  0  0  0  0  0  0  0  0
   19.0911   -4.2983  -15.3257 C   0  0  0  0  0  0  0  0  0  0  0  0
   19.0258   -2.8710  -15.6586 C   0  0  0  0  0  0  0  0  0  0  0  0
   17.7064   -2.2217  -15.6029 C   0  0  0  0  0  0  0  0  0  0  0  0
   16.6696   -2.8631  -15.2967 O   0  0  0  0  0  0  0  0  0  0  0  0
   21.4719   -4.2397  -14.5555 C   0  0  0  0  0  0  0  0  0  0  0  0
   22.1370   -3.1068  -15.0570 O   0  0  0  0  0  0  0  0  0  0  0  0
   17.5913   -0.8753  -15.8925 O   0  0  0  0  0  0  0  0  0  0  0  0
   21.8548   -4.6150  -13.3972 O   0  0  0  0  0  0  0  0  0  0  0  0
  1  2  1  0
  3  2  1  0
  3  5  1  0
  3  4  1  1
  5  6  2  0
  5 10  1  0
  8  7  1  0
  9  8  1  6
 10  9  1  0
 11  9  1  0
 11 13  1  0
 12 11  2  0
 14 19  1  0
 14 13  1  0
 14 15  1  1
 16 15  1  0
 17 16  1  0
 18 17  2  0
 19 20  1  0
 21 17  1  0
 22 19  2  0
M  END
$$$$
