SSE.pdb
     RDKit          3D

 22 21  0  0  1  0  0  0  0  0999 V2000
   17.0220  -12.7864  -14.0923 O   0  0  0  0  0  0  0  0  0  0  0  0
   18.0338  -11.8442  -14.3587 C   0  0  0  0  0  0  0  0  0  0  0  0
   18.2178  -11.6805  -15.8552 C   0  0  2  0  0  0  0  0  0  0  0  0
   19.0122  -12.7867  -16.3114 N   0  0  0  0  0  0  0  0  0  0  0  0
   18.7605  -10.3691  -16.2162 C   0  0  0  0  0  0  0  0  0  0  0  0
   19.8790  -10.2854  -16.7917 O   0  0  0  0  0  0  0  0  0  0  0  0
   17.0321   -6.7886  -14.9730 O   0  0  0  0  0  0  0  0  0  0  0  0
   17.6094   -6.7345  -16.2302 C   0  0  0  0  0  0  0  0  0  0  0  0
   18.6457   -7.8441  -16.3212 C   0  0  2  0  0  0  0  0  0  0  0  0
   18.1020   -9.1207  -15.9614 N   0  0  0  0  0  0  0  0  0  0  0  0
   19.8536   -7.4890  -15.5486 C   0  0  0  0  0  0  0  0  0  0  0  0
   20.0859   -7.9306  -14.3958 O   0  0  0  0  0  0  0  0  0  0  0  0
   20.8009   -6.6109  -16.1271 N   0  0  0  0  0  0  0  0  0  0  0  0
   22.1102   -6.3409  -15.4624 C   0  0  1  0  0  0  0  0  0  0  0  0
   23.1183   -6.0572  -16.5180 C   0  0  0  0  0  0  0  0  0  0  0  0
   24.4748   -5.7740  -16.0362 C   0  0  0  0  0  0  0  0  0  0  0  0
   25.4617   -5.3096  -17.0240 C   0  0  0  0  0  0  0  0  0  0  0  0
   25.2536   -5.4100  -18.2596 O   0  0  0  0  0  0  0  0  0  0  0  0
   21.9579   -5.4046  -14.3984 C   0  0  0  0  0  0  0  0  0  0  0  0
   22.6808   -5.5434  -13.2004 O   0  0  0  0  0  0  0  0  0  0  0  0
   26.6497   -4.7483  -16.5956 O   0  0  0  0  0  0  0  0  0  0  0  0
   21.1791   -4.3941  -14.4385 O   0  0  0  0  0  0  0  0  0  0  0  0
  1  2  1  0
  3  2  1  0
  3  5  1  0
  3  4  1  1
  5  6  2  0
  5 10  1  0
  8  7  1  0
  9  8  1  1
 10  9  1  0
 11  9  1  0
 11 13  1  0
 12 11  2  0
 14 19  1  0
 14 13  1  0
 14 15  1  6
 16 15  1  0
 17 16  1  0
 18 17  2  0
 19 20  1  0
 21 17  1  0
 22 19  2  0
M  END
$$$$
