SSE.pdb
     RDKit          3D

 22 21  0  0  1  0  0  0  0  0999 V2000
   13.0527   -6.9396  -10.4500 O   0  0  0  0  0  0  0  0  0  0  0  0
   14.4053   -7.2168  -10.7256 C   0  0  0  0  0  0  0  0  0  0  0  0
   14.6837   -8.6975  -10.5518 C   0  0  2  0  0  0  0  0  0  0  0  0
   14.7077   -8.9647   -9.1408 N   0  0  0  0  0  0  0  0  0  0  0  0
   15.8896   -9.1313  -11.2603 C   0  0  0  0  0  0  0  0  0  0  0  0
   17.0274   -8.9081  -10.7653 O   0  0  0  0  0  0  0  0  0  0  0  0
   18.0405  -11.8539  -14.6131 O   0  0  0  0  0  0  0  0  0  0  0  0
   16.8207  -11.4197  -14.1229 C   0  0  0  0  0  0  0  0  0  0  0  0
   17.0769  -10.2374  -13.2011 C   0  0  2  0  0  0  0  0  0  0  0  0
   15.8877   -9.8167  -12.5202 N   0  0  0  0  0  0  0  0  0  0  0  0
   17.7430   -9.1427  -13.9360 C   0  0  0  0  0  0  0  0  0  0  0  0
   17.1167   -8.2864  -14.6086 O   0  0  0  0  0  0  0  0  0  0  0  0
   19.1540   -9.0453  -13.8850 N   0  0  0  0  0  0  0  0  0  0  0  0
   19.8865   -8.0185  -14.6840 C   0  0  1  0  0  0  0  0  0  0  0  0
   20.6222   -7.1338  -13.7423 C   0  0  0  0  0  0  0  0  0  0  0  0
   21.3582   -6.0257  -14.3610 C   0  0  0  0  0  0  0  0  0  0  0  0
   22.1741   -5.1772  -13.4780 C   0  0  0  0  0  0  0  0  0  0  0  0
   22.9036   -4.2612  -13.9353 O   0  0  0  0  0  0  0  0  0  0  0  0
   20.6094   -8.6250  -15.7526 C   0  0  0  0  0  0  0  0  0  0  0  0
   21.0014   -7.8797  -16.8786 O   0  0  0  0  0  0  0  0  0  0  0  0
   22.1468   -5.3826  -12.1116 O   0  0  0  0  0  0  0  0  0  0  0  0
   20.9516   -9.8544  -15.7798 O   0  0  0  0  0  0  0  0  0  0  0  0
  1  2  1  0
  3  2  1  0
  3  5  1  0
  3  4  1  1
  5  6  2  0
  5 10  1  0
  8  7  1  0
  9  8  1  6
 10  9  1  0
 11  9  1  0
 11 13  1  0
 12 11  2  0
 14 19  1  0
 14 13  1  0
 14 15  1  1
 16 15  1  0
 17 16  1  0
 18 17  2  0
 19 20  1  0
 21 17  1  0
 22 19  2  0
M  END
$$$$
