SSE.pdb
     RDKit          3D

 22 21  0  0  1  0  0  0  0  0999 V2000
   15.0604   -7.5150  -18.4521 O   0  0  0  0  0  0  0  0  0  0  0  0
   15.6809   -7.1631  -17.2383 C   0  0  0  0  0  0  0  0  0  0  0  0
   16.0719   -8.4095  -16.4679 C   0  0  2  0  0  0  0  0  0  0  0  0
   14.9460   -8.7814  -15.6573 N   0  0  0  0  0  0  0  0  0  0  0  0
   17.3168   -8.2398  -15.7154 C   0  0  0  0  0  0  0  0  0  0  0  0
   17.3497   -7.4750  -14.7138 O   0  0  0  0  0  0  0  0  0  0  0  0
   20.1290  -10.9978  -14.8626 O   0  0  0  0  0  0  0  0  0  0  0  0
   20.7158   -9.8902  -15.4505 C   0  0  0  0  0  0  0  0  0  0  0  0
   19.7654   -8.7133  -15.2917 C   0  0  2  0  0  0  0  0  0  0  0  0
   18.5520   -8.8961  -16.0326 N   0  0  0  0  0  0  0  0  0  0  0  0
   20.4539   -7.4454  -15.6091 C   0  0  0  0  0  0  0  0  0  0  0  0
   20.6111   -7.0243  -16.7820 O   0  0  0  0  0  0  0  0  0  0  0  0
   20.9631   -6.6602  -14.5474 N   0  0  0  0  0  0  0  0  0  0  0  0
   21.6676   -5.3703  -14.8099 C   0  0  1  0  0  0  0  0  0  0  0  0
   20.7198   -4.4540  -15.4977 C   0  0  0  0  0  0  0  0  0  0  0  0
   19.6881   -3.8551  -14.6438 C   0  0  0  0  0  0  0  0  0  0  0  0
   18.8013   -2.8520  -15.2542 C   0  0  0  0  0  0  0  0  0  0  0  0
   18.7466   -2.6930  -16.5000 O   0  0  0  0  0  0  0  0  0  0  0  0
   22.3331   -4.9057  -13.6381 C   0  0  0  0  0  0  0  0  0  0  0  0
   23.2236   -3.8188  -13.6919 O   0  0  0  0  0  0  0  0  0  0  0  0
   18.0050   -2.0594  -14.4494 O   0  0  0  0  0  0  0  0  0  0  0  0
   22.1845   -5.4178  -12.4784 O   0  0  0  0  0  0  0  0  0  0  0  0
  1  2  1  0
  3  2  1  0
  3  5  1  0
  3  4  1  1
  5  6  2  0
  5 10  1  0
  8  7  1  0
  9  8  1  6
 10  9  1  0
 11  9  1  0
 11 13  1  0
 12 11  2  0
 14 19  1  0
 14 13  1  0
 14 15  1  1
 16 15  1  0
 17 16  1  0
 18 17  2  0
 19 20  1  0
 21 17  1  0
 22 19  2  0
M  END
$$$$
