SSE.pdb
     RDKit          3D

 22 21  0  0  1  0  0  0  0  0999 V2000
   14.9399   -7.2778   -7.4395 O   0  0  0  0  0  0  0  0  0  0  0  0
   13.7843   -7.5489   -8.1967 C   0  0  0  0  0  0  0  0  0  0  0  0
   13.8668   -8.9372   -8.8016 C   0  0  2  0  0  0  0  0  0  0  0  0
   13.8773   -9.8765   -7.7151 N   0  0  0  0  0  0  0  0  0  0  0  0
   14.9934   -9.0835   -9.7257 C   0  0  0  0  0  0  0  0  0  0  0  0
   16.0776   -9.5864   -9.3247 O   0  0  0  0  0  0  0  0  0  0  0  0
   16.8538  -10.0237  -13.9028 O   0  0  0  0  0  0  0  0  0  0  0  0
   15.7065   -9.7967  -13.1621 C   0  0  0  0  0  0  0  0  0  0  0  0
   16.0657   -8.8742  -12.0074 C   0  0  2  0  0  0  0  0  0  0  0  0
   14.9683   -8.6881  -11.1042 N   0  0  0  0  0  0  0  0  0  0  0  0
   16.6225   -7.6032  -12.5140 C   0  0  0  0  0  0  0  0  0  0  0  0
   15.9075   -6.6326  -12.8672 O   0  0  0  0  0  0  0  0  0  0  0  0
   18.0276   -7.4624  -12.6085 N   0  0  0  0  0  0  0  0  0  0  0  0
   18.6439   -6.2154  -13.1510 C   0  0  1  0  0  0  0  0  0  0  0  0
   20.1037   -6.2582  -12.8714 C   0  0  0  0  0  0  0  0  0  0  0  0
   20.8722   -5.1030  -13.3483 C   0  0  0  0  0  0  0  0  0  0  0  0
   22.3355   -5.1556  -13.2025 C   0  0  0  0  0  0  0  0  0  0  0  0
   22.8933   -6.0061  -12.4637 O   0  0  0  0  0  0  0  0  0  0  0  0
   18.2146   -5.9753  -14.4889 C   0  0  0  0  0  0  0  0  0  0  0  0
   18.1159   -7.0252  -15.4189 O   0  0  0  0  0  0  0  0  0  0  0  0
   23.1265   -4.2536  -13.8886 O   0  0  0  0  0  0  0  0  0  0  0  0
   17.8938   -4.8266  -14.9437 O   0  0  0  0  0  0  0  0  0  0  0  0
  1  2  1  0
  3  2  1  0
  3  5  1  0
  3  4  1  1
  5  6  2  0
  5 10  1  0
  8  7  1  0
  9  8  1  6
 10  9  1  0
 11  9  1  0
 11 13  1  0
 12 11  2  0
 14 19  1  0
 14 13  1  0
 14 15  1  6
 16 15  1  0
 17 16  1  0
 18 17  2  0
 19 20  1  0
 21 17  1  0
 22 19  2  0
M  END
$$$$
