VPG.pdb
     RDKit          3D

 19 19  0  0  1  0  0  0  0  0999 V2000
    8.5016  -13.7130   26.8640 C   0  0  0  0  0  0  0  0  0  0  0  0
    7.5371  -13.0093   25.9333 C   0  0  2  0  0  0  0  0  0  0  0  0
    6.8673  -11.8628   26.6733 C   0  0  0  0  0  0  0  0  0  0  0  0
    6.4929  -14.0570   25.5272 C   0  0  2  0  0  0  0  0  0  0  0  0
    6.0030  -14.6466   26.7303 N   0  0  0  0  0  0  0  0  0  0  0  0
    7.0128  -14.9925   24.5353 C   0  0  0  0  0  0  0  0  0  0  0  0
    7.0958  -16.2116   24.8212 O   0  0  0  0  0  0  0  0  0  0  0  0
    7.4334  -14.5830   23.2491 N   0  0  0  0  0  0  0  0  0  0  0  0
    7.5145  -13.1958   22.8367 C   0  0  0  0  0  0  0  0  0  0  0  0
    7.9208  -13.2346   21.3625 C   0  0  0  0  0  0  0  0  0  0  0  0
    7.3554  -14.5807   20.9586 C   0  0  0  0  0  0  0  0  0  0  0  0
    7.8462  -15.4254   22.1421 C   0  0  1  0  0  0  0  0  0  0  0  0
    9.3233  -15.5174   22.1238 C   0  0  0  0  0  0  0  0  0  0  0  0
    9.9664  -15.3518   21.0334 O   0  0  0  0  0  0  0  0  0  0  0  0
   10.0763  -15.7866   23.2843 N   0  0  0  0  0  0  0  0  0  0  0  0
   11.5037  -15.9484   23.2460 C   0  0  0  0  0  0  0  0  0  0  0  0
   12.0272  -16.2824   24.5826 C   0  0  0  0  0  0  0  0  0  0  0  0
   13.2060  -16.0023   24.8894 O   0  0  0  0  0  0  0  0  0  0  0  0
   11.2091  -16.9121   25.5100 O   0  0  0  0  0  0  0  0  0  0  0  0
  2  3  1  1
  2  1  1  0
  4  2  1  0
  4  5  1  1
  6  4  1  0
  6  7  2  0
  8  6  1  0
  9  8  1  0
 10 11  1  0
 10  9  1  0
 11 12  1  0
 12  8  1  0
 12 13  1  6
 13 15  1  0
 14 13  2  0
 15 16  1  0
 17 16  1  0
 17 19  1  0
 18 17  2  0
M  END
$$$$
