VPG.pdb
     RDKit          3D

 19 19  0  0  1  0  0  0  0  0999 V2000
    8.3839  -14.0472   26.8937 C   0  0  0  0  0  0  0  0  0  0  0  0
    7.5966  -13.1455   25.9671 C   0  0  2  0  0  0  0  0  0  0  0  0
    7.0227  -11.9832   26.7612 C   0  0  0  0  0  0  0  0  0  0  0  0
    6.4622  -14.0052   25.3952 C   0  0  2  0  0  0  0  0  0  0  0  0
    5.7633  -14.5664   26.5050 N   0  0  0  0  0  0  0  0  0  0  0  0
    6.9463  -14.9639   24.4074 C   0  0  0  0  0  0  0  0  0  0  0  0
    6.8634  -16.1927   24.6483 O   0  0  0  0  0  0  0  0  0  0  0  0
    7.5123  -14.5667   23.1742 N   0  0  0  0  0  0  0  0  0  0  0  0
    7.7810  -13.1861   22.8239 C   0  0  0  0  0  0  0  0  0  0  0  0
    8.2980  -13.2268   21.3847 C   0  0  0  0  0  0  0  0  0  0  0  0
    7.6201  -14.4865   20.8863 C   0  0  0  0  0  0  0  0  0  0  0  0
    7.9163  -15.4171   22.0701 C   0  0  1  0  0  0  0  0  0  0  0  0
    9.3704  -15.6771   22.1616 C   0  0  0  0  0  0  0  0  0  0  0  0
   10.1119  -14.9431   22.8975 O   0  0  0  0  0  0  0  0  0  0  0  0
    9.9948  -16.7252   21.4558 N   0  0  0  0  0  0  0  0  0  0  0  0
   10.8502  -17.6788   22.1070 C   0  0  0  0  0  0  0  0  0  0  0  0
   12.2493  -17.2156   22.0996 C   0  0  0  0  0  0  0  0  0  0  0  0
   12.7299  -16.6679   21.0841 O   0  0  0  0  0  0  0  0  0  0  0  0
   13.0419  -17.3867   23.2257 O   0  0  0  0  0  0  0  0  0  0  0  0
  2  3  1  1
  2  1  1  0
  4  2  1  0
  4  5  1  1
  6  4  1  0
  6  7  2  0
  8  6  1  0
  9  8  1  0
 10 11  1  0
 10  9  1  0
 11 12  1  0
 12  8  1  0
 12 13  1  1
 13 15  1  0
 14 13  2  0
 15 16  1  0
 17 16  1  0
 17 19  1  0
 18 17  2  0
M  END
$$$$
