VPG.pdb
     RDKit          3D

 19 19  0  0  1  0  0  0  0  0999 V2000
   11.1965  -14.8726   27.6249 C   0  0  0  0  0  0  0  0  0  0  0  0
   10.0433  -14.3379   28.4469 C   0  0  2  0  0  0  0  0  0  0  0  0
   10.5285  -14.0241   29.8529 C   0  0  0  0  0  0  0  0  0  0  0  0
    8.9929  -15.4551   28.4881 C   0  0  2  0  0  0  0  0  0  0  0  0
    9.6268  -16.6040   29.0478 N   0  0  0  0  0  0  0  0  0  0  0  0
    8.3577  -15.6575   27.1901 C   0  0  0  0  0  0  0  0  0  0  0  0
    8.2819  -16.8164   26.7145 O   0  0  0  0  0  0  0  0  0  0  0  0
    7.8161  -14.5934   26.4330 N   0  0  0  0  0  0  0  0  0  0  0  0
    7.8583  -13.2074   26.8549 C   0  0  0  0  0  0  0  0  0  0  0  0
    7.0841  -12.4347   25.7855 C   0  0  0  0  0  0  0  0  0  0  0  0
    6.1448  -13.5164   25.2931 C   0  0  0  0  0  0  0  0  0  0  0  0
    7.1446  -14.6717   25.1490 C   0  0  1  0  0  0  0  0  0  0  0  0
    8.1151  -14.3735   24.0722 C   0  0  0  0  0  0  0  0  0  0  0  0
    9.0497  -13.5249   24.2629 O   0  0  0  0  0  0  0  0  0  0  0  0
    8.0566  -14.9984   22.8102 N   0  0  0  0  0  0  0  0  0  0  0  0
    9.0981  -14.8407   21.8327 C   0  0  0  0  0  0  0  0  0  0  0  0
   10.0935  -15.9211   21.9514 C   0  0  0  0  0  0  0  0  0  0  0  0
   10.0273  -16.7430   22.8906 O   0  0  0  0  0  0  0  0  0  0  0  0
   11.1128  -16.0301   21.0161 O   0  0  0  0  0  0  0  0  0  0  0  0
  2  3  1  1
  2  1  1  0
  4  2  1  0
  4  5  1  6
  6  4  1  0
  6  7  2  0
  8  6  1  0
  9  8  1  0
 10 11  1  0
 10  9  1  0
 11 12  1  0
 12  8  1  0
 12 13  1  6
 13 15  1  0
 14 13  2  0
 15 16  1  0
 17 16  1  0
 17 19  1  0
 18 17  2  0
M  END
$$$$
