VPG.pdb
     RDKit          3D

 19 19  0  0  1  0  0  0  0  0999 V2000
    6.3365  -11.9307   27.0545 C   0  0  0  0  0  0  0  0  0  0  0  0
    7.1047  -13.1454   26.5791 C   0  0  2  0  0  0  0  0  0  0  0  0
    8.3484  -12.6947   25.8302 C   0  0  0  0  0  0  0  0  0  0  0  0
    6.1646  -13.9031   25.6331 C   0  0  2  0  0  0  0  0  0  0  0  0
    5.0434  -14.3249   26.4079 N   0  0  0  0  0  0  0  0  0  0  0  0
    6.8573  -14.9598   24.9032 C   0  0  0  0  0  0  0  0  0  0  0  0
    6.8928  -16.1192   25.3822 O   0  0  0  0  0  0  0  0  0  0  0  0
    7.4993  -14.7345   23.6639 N   0  0  0  0  0  0  0  0  0  0  0  0
    7.6618  -13.4210   23.0729 C   0  0  0  0  0  0  0  0  0  0  0  0
    8.3193  -13.6669   21.7138 C   0  0  0  0  0  0  0  0  0  0  0  0
    7.8232  -15.0676   21.4196 C   0  0  0  0  0  0  0  0  0  0  0  0
    8.0931  -15.7216   22.7814 C   0  0  1  0  0  0  0  0  0  0  0  0
    9.5498  -15.7882   23.0342 C   0  0  0  0  0  0  0  0  0  0  0  0
   10.2106  -14.7245   23.2831 O   0  0  0  0  0  0  0  0  0  0  0  0
   10.2639  -17.0031   23.0130 N   0  0  0  0  0  0  0  0  0  0  0  0
   11.5654  -17.1325   23.6085 C   0  0  0  0  0  0  0  0  0  0  0  0
   12.6214  -16.8275   22.6267 C   0  0  0  0  0  0  0  0  0  0  0  0
   13.3831  -15.8517   22.7983 O   0  0  0  0  0  0  0  0  0  0  0  0
   12.7743  -17.6267   21.5026 O   0  0  0  0  0  0  0  0  0  0  0  0
  2  3  1  6
  2  1  1  0
  4  2  1  0
  4  5  1  1
  6  4  1  0
  6  7  2  0
  8  6  1  0
  9  8  1  0
 10 11  1  0
 10  9  1  0
 11 12  1  0
 12  8  1  0
 12 13  1  1
 13 15  1  0
 14 13  2  0
 15 16  1  0
 17 16  1  0
 17 19  1  0
 18 17  2  0
M  END
$$$$
