VPG.pdb
     RDKit          3D

 19 19  0  0  1  0  0  0  0  0999 V2000
    7.2880  -16.0769   21.8925 C   0  0  0  0  0  0  0  0  0  0  0  0
    6.9128  -14.6104   21.8857 C   0  0  2  0  0  0  0  0  0  0  0  0
    6.4702  -14.2091   20.4879 C   0  0  0  0  0  0  0  0  0  0  0  0
    8.1812  -13.8423   22.2785 C   0  0  2  0  0  0  0  0  0  0  0  0
    9.1511  -14.0899   21.2621 N   0  0  0  0  0  0  0  0  0  0  0  0
    8.6064  -14.1475   23.6406 C   0  0  0  0  0  0  0  0  0  0  0  0
    9.6999  -14.7337   23.8287 O   0  0  0  0  0  0  0  0  0  0  0  0
    7.8323  -13.8085   24.7741 N   0  0  0  0  0  0  0  0  0  0  0  0
    6.5452  -13.1465   24.6963 C   0  0  0  0  0  0  0  0  0  0  0  0
    6.1272  -12.9019   26.1473 C   0  0  0  0  0  0  0  0  0  0  0  0
    7.4855  -12.8211   26.8131 C   0  0  0  0  0  0  0  0  0  0  0  0
    8.1546  -14.0430   26.1694 C   0  0  1  0  0  0  0  0  0  0  0  0
    7.4886  -15.2850   26.6216 C   0  0  0  0  0  0  0  0  0  0  0  0
    6.3155  -15.5747   26.2094 O   0  0  0  0  0  0  0  0  0  0  0  0
    8.1036  -16.1896   27.5103 N   0  0  0  0  0  0  0  0  0  0  0  0
    8.2907  -17.5753   27.1789 C   0  0  0  0  0  0  0  0  0  0  0  0
    9.0468  -18.2678   28.2376 C   0  0  0  0  0  0  0  0  0  0  0  0
   10.2640  -18.0364   28.4014 O   0  0  0  0  0  0  0  0  0  0  0  0
    8.4067  -19.1838   29.0603 O   0  0  0  0  0  0  0  0  0  0  0  0
  2  3  1  6
  2  1  1  0
  4  2  1  0
  4  5  1  6
  6  4  1  0
  6  7  2  0
  8  6  1  0
  9  8  1  0
 10 11  1  0
 10  9  1  0
 11 12  1  0
 12  8  1  0
 12 13  1  1
 13 15  1  0
 14 13  2  0
 15 16  1  0
 17 16  1  0
 17 19  1  0
 18 17  2  0
M  END
$$$$
