VPG.pdb
     RDKit          3D

 19 19  0  0  1  0  0  0  0  0999 V2000
    7.9515  -13.1479   27.1529 C   0  0  0  0  0  0  0  0  0  0  0  0
    7.2806  -12.4523   25.9878 C   0  0  2  0  0  0  0  0  0  0  0  0
    6.5566  -11.2130   26.4888 C   0  0  0  0  0  0  0  0  0  0  0  0
    6.2730  -13.4558   25.4128 C   0  0  2  0  0  0  0  0  0  0  0  0
    5.3317  -13.7412   26.4460 N   0  0  0  0  0  0  0  0  0  0  0  0
    6.9320  -14.6173   24.8246 C   0  0  0  0  0  0  0  0  0  0  0  0
    6.9322  -15.7071   25.4468 O   0  0  0  0  0  0  0  0  0  0  0  0
    7.5792  -14.5709   23.5685 N   0  0  0  0  0  0  0  0  0  0  0  0
    7.7122  -13.3618   22.7801 C   0  0  0  0  0  0  0  0  0  0  0  0
    8.3886  -13.7988   21.4795 C   0  0  0  0  0  0  0  0  0  0  0  0
    7.9326  -15.2415   21.4057 C   0  0  0  0  0  0  0  0  0  0  0  0
    8.2072  -15.6669   22.8543 C   0  0  1  0  0  0  0  0  0  0  0  0
    9.6628  -15.6527   23.1217 C   0  0  0  0  0  0  0  0  0  0  0  0
   10.1756  -14.7396   23.8519 O   0  0  0  0  0  0  0  0  0  0  0  0
   10.5356  -16.6258   22.5946 N   0  0  0  0  0  0  0  0  0  0  0  0
   11.0488  -17.7030   23.3954 C   0  0  0  0  0  0  0  0  0  0  0  0
   12.1315  -17.2291   24.2758 C   0  0  0  0  0  0  0  0  0  0  0  0
   11.9676  -17.1851   25.5141 O   0  0  0  0  0  0  0  0  0  0  0  0
   13.3429  -16.8282   23.7304 O   0  0  0  0  0  0  0  0  0  0  0  0
  2  3  1  1
  2  1  1  0
  4  2  1  0
  4  5  1  1
  6  4  1  0
  6  7  2  0
  8  6  1  0
  9  8  1  0
 10 11  1  0
 10  9  1  0
 11 12  1  0
 12  8  1  0
 12 13  1  6
 13 15  1  0
 14 13  2  0
 15 16  1  0
 17 16  1  0
 17 19  1  0
 18 17  2  0
M  END
$$$$
