VPG.pdb
     RDKit          3D

 19 19  0  0  1  0  0  0  0  0999 V2000
    6.3229  -11.8026   26.9857 C   0  0  0  0  0  0  0  0  0  0  0  0
    7.2208  -12.9000   26.4556 C   0  0  2  0  0  0  0  0  0  0  0  0
    8.3303  -12.2841   25.6187 C   0  0  0  0  0  0  0  0  0  0  0  0
    6.3333  -13.7936   25.5800 C   0  0  2  0  0  0  0  0  0  0  0  0
    5.2761  -14.2732   26.4093 N   0  0  0  0  0  0  0  0  0  0  0  0
    7.1043  -14.8209   24.8877 C   0  0  0  0  0  0  0  0  0  0  0  0
    7.2611  -15.9430   25.4272 O   0  0  0  0  0  0  0  0  0  0  0  0
    7.6910  -14.6074   23.6191 N   0  0  0  0  0  0  0  0  0  0  0  0
    7.7448  -13.3130   22.9690 C   0  0  0  0  0  0  0  0  0  0  0  0
    8.3756  -13.5733   21.6000 C   0  0  0  0  0  0  0  0  0  0  0  0
    7.9679  -15.0158   21.3810 C   0  0  0  0  0  0  0  0  0  0  0  0
    8.3237  -15.5900   22.7590 C   0  0  1  0  0  0  0  0  0  0  0  0
    9.7887  -15.5474   22.9653 C   0  0  0  0  0  0  0  0  0  0  0  0
   10.3014  -14.7076   23.7788 O   0  0  0  0  0  0  0  0  0  0  0  0
   10.6709  -16.4132   22.2882 N   0  0  0  0  0  0  0  0  0  0  0  0
   11.1333  -17.6410   22.8746 C   0  0  0  0  0  0  0  0  0  0  0  0
   12.2188  -17.3832   23.8375 C   0  0  0  0  0  0  0  0  0  0  0  0
   13.4058  -17.6317   23.5354 O   0  0  0  0  0  0  0  0  0  0  0  0
   11.9253  -16.8611   25.0893 O   0  0  0  0  0  0  0  0  0  0  0  0
  2  3  1  6
  2  1  1  0
  4  2  1  0
  4  5  1  1
  6  4  1  0
  6  7  2  0
  8  6  1  0
  9  8  1  0
 10 11  1  0
 10  9  1  0
 11 12  1  0
 12  8  1  0
 12 13  1  1
 13 15  1  0
 14 13  2  0
 15 16  1  0
 17 16  1  0
 17 19  1  0
 18 17  2  0
M  END
$$$$
