VPG.pdb
     RDKit          3D

 19 19  0  0  1  0  0  0  0  0999 V2000
    6.7906  -17.7191   21.8532 C   0  0  0  0  0  0  0  0  0  0  0  0
    5.9045  -16.6542   21.2430 C   0  0  2  0  0  0  0  0  0  0  0  0
    4.4467  -17.0403   21.4339 C   0  0  0  0  0  0  0  0  0  0  0  0
    6.2490  -16.6155   19.7488 C   0  0  2  0  0  0  0  0  0  0  0  0
    5.8462  -17.8669   19.1947 N   0  0  0  0  0  0  0  0  0  0  0  0
    7.6411  -16.2446   19.5172 C   0  0  0  0  0  0  0  0  0  0  0  0
    8.4668  -17.1276   19.1804 O   0  0  0  0  0  0  0  0  0  0  0  0
    8.1092  -14.9178   19.6567 N   0  0  0  0  0  0  0  0  0  0  0  0
    7.2564  -13.8007   20.0113 C   0  0  0  0  0  0  0  0  0  0  0  0
    8.1603  -12.5678   19.9566 C   0  0  0  0  0  0  0  0  0  0  0  0
    9.1859  -13.0258   18.9401 C   0  0  0  0  0  0  0  0  0  0  0  0
    9.4660  -14.4340   19.4818 C   0  0  1  0  0  0  0  0  0  0  0  0
   10.1274  -14.3488   20.8031 C   0  0  0  0  0  0  0  0  0  0  0  0
    9.4379  -14.1408   21.8573 O   0  0  0  0  0  0  0  0  0  0  0  0
   11.5210  -14.4900   20.9591 N   0  0  0  0  0  0  0  0  0  0  0  0
   12.0931  -15.3064   21.9940 C   0  0  0  0  0  0  0  0  0  0  0  0
   13.5604  -15.3589   21.8664 C   0  0  0  0  0  0  0  0  0  0  0  0
   14.2562  -15.8797   22.7645 O   0  0  0  0  0  0  0  0  0  0  0  0
   14.1778  -14.8274   20.7429 O   0  0  0  0  0  0  0  0  0  0  0  0
  2  3  1  6
  2  1  1  0
  4  2  1  0
  4  5  1  1
  6  4  1  0
  6  7  2  0
  8  6  1  0
  9  8  1  0
 10 11  1  0
 10  9  1  0
 11 12  1  0
 12  8  1  0
 12 13  1  1
 13 15  1  0
 14 13  2  0
 15 16  1  0
 17 16  1  0
 17 19  1  0
 18 17  2  0
M  END
$$$$
