VPG.pdb
     RDKit          3D

 19 19  0  0  1  0  0  0  0  0999 V2000
    3.4908  -18.7987   21.0459 C   0  0  0  0  0  0  0  0  0  0  0  0
    4.9160  -18.4240   21.3923 C   0  0  2  0  0  0  0  0  0  0  0  0
    4.9141  -17.4771   22.5815 C   0  0  0  0  0  0  0  0  0  0  0  0
    5.4852  -17.7171   20.1556 C   0  0  2  0  0  0  0  0  0  0  0  0
    5.2341  -18.5658   19.0368 N   0  0  0  0  0  0  0  0  0  0  0  0
    6.8767  -17.3204   20.3437 C   0  0  0  0  0  0  0  0  0  0  0  0
    7.7911  -18.1465   20.1064 O   0  0  0  0  0  0  0  0  0  0  0  0
    7.2476  -16.0302   20.7872 N   0  0  0  0  0  0  0  0  0  0  0  0
    6.2921  -15.0044   21.1559 C   0  0  0  0  0  0  0  0  0  0  0  0
    7.1310  -13.7664   21.4778 C   0  0  0  0  0  0  0  0  0  0  0  0
    8.3455  -14.0262   20.6104 C   0  0  0  0  0  0  0  0  0  0  0  0
    8.5889  -15.5020   20.9534 C   0  0  1  0  0  0  0  0  0  0  0  0
    8.9932  -15.6351   22.3709 C   0  0  0  0  0  0  0  0  0  0  0  0
    8.1104  -15.7674   23.2838 O   0  0  0  0  0  0  0  0  0  0  0  0
   10.3436  -15.6224   22.7741 N   0  0  0  0  0  0  0  0  0  0  0  0
   10.8984  -16.6495   23.6122 C   0  0  0  0  0  0  0  0  0  0  0  0
   12.3460  -16.4456   23.7991 C   0  0  0  0  0  0  0  0  0  0  0  0
   13.1455  -16.6924   22.8707 O   0  0  0  0  0  0  0  0  0  0  0  0
   12.8288  -15.9764   25.0126 O   0  0  0  0  0  0  0  0  0  0  0  0
  2  3  1  1
  2  1  1  0
  4  2  1  0
  4  5  1  6
  6  4  1  0
  6  7  2  0
  8  6  1  0
  9  8  1  0
 10 11  1  0
 10  9  1  0
 11 12  1  0
 12  8  1  0
 12 13  1  1
 13 15  1  0
 14 13  2  0
 15 16  1  0
 17 16  1  0
 17 19  1  0
 18 17  2  0
M  END
$$$$
