VPG.pdb
     RDKit          3D

 19 19  0  0  1  0  0  0  0  0999 V2000
    7.8658  -13.0498   27.2450 C   0  0  0  0  0  0  0  0  0  0  0  0
    7.1023  -12.4542   26.0815 C   0  0  2  0  0  0  0  0  0  0  0  0
    6.3050  -11.2528   26.5630 C   0  0  0  0  0  0  0  0  0  0  0  0
    6.1536  -13.5525   25.5849 C   0  0  2  0  0  0  0  0  0  0  0  0
    5.3218  -13.9151   26.6858 N   0  0  0  0  0  0  0  0  0  0  0  0
    6.8733  -14.6528   24.9521 C   0  0  0  0  0  0  0  0  0  0  0  0
    6.9138  -15.7711   25.5200 O   0  0  0  0  0  0  0  0  0  0  0  0
    7.5365  -14.5151   23.7110 N   0  0  0  0  0  0  0  0  0  0  0  0
    7.6720  -13.2533   23.0108 C   0  0  0  0  0  0  0  0  0  0  0  0
    8.3680  -13.5946   21.6920 C   0  0  0  0  0  0  0  0  0  0  0  0
    7.9222  -15.0311   21.5116 C   0  0  0  0  0  0  0  0  0  0  0  0
    8.1807  -15.5552   22.9306 C   0  0  1  0  0  0  0  0  0  0  0  0
    9.6326  -15.5518   23.2178 C   0  0  0  0  0  0  0  0  0  0  0  0
   10.2204  -14.4705   23.5575 O   0  0  0  0  0  0  0  0  0  0  0  0
   10.4207  -16.7171   23.1322 N   0  0  0  0  0  0  0  0  0  0  0  0
   11.6150  -16.8883   23.9129 C   0  0  0  0  0  0  0  0  0  0  0  0
   12.8126  -16.5907   23.1070 C   0  0  0  0  0  0  0  0  0  0  0  0
   13.9549  -16.7323   23.5939 O   0  0  0  0  0  0  0  0  0  0  0  0
   12.6753  -16.1500   21.7983 O   0  0  0  0  0  0  0  0  0  0  0  0
  2  3  1  1
  2  1  1  0
  4  2  1  0
  4  5  1  1
  6  4  1  0
  6  7  2  0
  8  6  1  0
  9  8  1  0
 10 11  1  0
 10  9  1  0
 11 12  1  0
 12  8  1  0
 12 13  1  1
 13 15  1  0
 14 13  2  0
 15 16  1  0
 17 16  1  0
 17 19  1  0
 18 17  2  0
M  END
$$$$
