VPG.pdb
     RDKit          3D

 19 19  0  0  1  0  0  0  0  0999 V2000
    9.7552  -15.4437   23.9809 C   0  0  0  0  0  0  0  0  0  0  0  0
    8.6352  -14.4699   23.6827 C   0  0  2  0  0  0  0  0  0  0  0  0
    7.8629  -14.1825   24.9601 C   0  0  0  0  0  0  0  0  0  0  0  0
    7.7256  -15.1637   22.6609 C   0  0  2  0  0  0  0  0  0  0  0  0
    7.1933  -16.3250   23.2960 N   0  0  0  0  0  0  0  0  0  0  0  0
    8.4065  -15.3979   21.3918 C   0  0  0  0  0  0  0  0  0  0  0  0
    8.7062  -16.5704   21.0597 O   0  0  0  0  0  0  0  0  0  0  0  0
    8.7491  -14.3501   20.5065 N   0  0  0  0  0  0  0  0  0  0  0  0
    8.3609  -12.9687   20.7119 C   0  0  0  0  0  0  0  0  0  0  0  0
    8.8643  -12.2187   19.4774 C   0  0  0  0  0  0  0  0  0  0  0  0
    8.8486  -13.3354   18.4539 C   0  0  0  0  0  0  0  0  0  0  0  0
    9.5176  -14.4429   19.2792 C   0  0  1  0  0  0  0  0  0  0  0  0
   10.9271  -14.0884   19.5585 C   0  0  0  0  0  0  0  0  0  0  0  0
   11.2217  -13.3588   20.5640 O   0  0  0  0  0  0  0  0  0  0  0  0
   11.9908  -14.5293   18.7457 N   0  0  0  0  0  0  0  0  0  0  0  0
   13.3280  -14.6727   19.2519 C   0  0  0  0  0  0  0  0  0  0  0  0
   14.2312  -15.1807   18.2039 C   0  0  0  0  0  0  0  0  0  0  0  0
   14.3926  -16.4102   18.0481 O   0  0  0  0  0  0  0  0  0  0  0  0
   14.9092  -14.2912   17.3824 O   0  0  0  0  0  0  0  0  0  0  0  0
  2  3  1  1
  2  1  1  0
  4  2  1  0
  4  5  1  1
  6  4  1  0
  6  7  2  0
  8  6  1  0
  9  8  1  0
 10 11  1  0
 10  9  1  0
 11 12  1  0
 12  8  1  0
 12 13  1  1
 13 15  1  0
 14 13  2  0
 15 16  1  0
 17 16  1  0
 17 19  1  0
 18 17  2  0
M  END
$$$$
