VPG.pdb
     RDKit          3D

 19 19  0  0  1  0  0  0  0  0999 V2000
    8.0526  -13.4060   27.3001 C   0  0  0  0  0  0  0  0  0  0  0  0
    7.3820  -12.5795   26.2237 C   0  0  2  0  0  0  0  0  0  0  0  0
    6.7524  -11.3470   26.8524 C   0  0  0  0  0  0  0  0  0  0  0  0
    6.2958  -13.4734   25.6122 C   0  0  2  0  0  0  0  0  0  0  0  0
    5.4318  -13.8683   26.6765 N   0  0  0  0  0  0  0  0  0  0  0  0
    6.8627  -14.5638   24.8255 C   0  0  0  0  0  0  0  0  0  0  0  0
    6.8179  -15.7353   25.2729 O   0  0  0  0  0  0  0  0  0  0  0  0
    7.4687  -14.3582   23.5647 N   0  0  0  0  0  0  0  0  0  0  0  0
    7.6239  -13.0530   22.9538 C   0  0  0  0  0  0  0  0  0  0  0  0
    8.2379  -13.3200   21.5784 C   0  0  0  0  0  0  0  0  0  0  0  0
    7.7215  -14.7198   21.3157 C   0  0  0  0  0  0  0  0  0  0  0  0
    8.0272  -15.3604   22.6763 C   0  0  1  0  0  0  0  0  0  0  0  0
    9.4904  -15.4366   22.8857 C   0  0  0  0  0  0  0  0  0  0  0  0
   10.1025  -14.5042   23.5070 O   0  0  0  0  0  0  0  0  0  0  0  0
   10.2634  -16.5189   22.4195 N   0  0  0  0  0  0  0  0  0  0  0  0
   10.8620  -17.4697   23.3155 C   0  0  0  0  0  0  0  0  0  0  0  0
   12.0529  -16.8954   23.9666 C   0  0  0  0  0  0  0  0  0  0  0  0
   12.8720  -16.2204   23.3067 O   0  0  0  0  0  0  0  0  0  0  0  0
   12.2700  -17.1030   25.3214 O   0  0  0  0  0  0  0  0  0  0  0  0
  2  3  1  1
  2  1  1  0
  4  2  1  0
  4  5  1  1
  6  4  1  0
  6  7  2  0
  8  6  1  0
  9  8  1  0
 10 11  1  0
 10  9  1  0
 11 12  1  0
 12  8  1  0
 12 13  1  1
 13 15  1  0
 14 13  2  0
 15 16  1  0
 17 16  1  0
 17 19  1  0
 18 17  2  0
M  END
$$$$
