VPG.pdb
     RDKit          3D

 19 19  0  0  1  0  0  0  0  0999 V2000
   11.1888  -14.9215   27.8459 C   0  0  0  0  0  0  0  0  0  0  0  0
    9.9177  -14.3480   28.4349 C   0  0  2  0  0  0  0  0  0  0  0  0
   10.1693  -13.9398   29.8775 C   0  0  0  0  0  0  0  0  0  0  0  0
    8.8749  -15.4715   28.3785 C   0  0  2  0  0  0  0  0  0  0  0  0
    9.4341  -16.5948   29.0572 N   0  0  0  0  0  0  0  0  0  0  0  0
    8.4158  -15.7246   27.0168 C   0  0  0  0  0  0  0  0  0  0  0  0
    8.5266  -16.8771   26.5327 O   0  0  0  0  0  0  0  0  0  0  0  0
    7.8439  -14.7172   26.2062 N   0  0  0  0  0  0  0  0  0  0  0  0
    7.6397  -13.3523   26.6494 C   0  0  0  0  0  0  0  0  0  0  0  0
    6.9219  -12.6542   25.4930 C   0  0  0  0  0  0  0  0  0  0  0  0
    6.2143  -13.8338   24.8585 C   0  0  0  0  0  0  0  0  0  0  0  0
    7.3716  -14.8414   24.8398 C   0  0  1  0  0  0  0  0  0  0  0  0
    8.4311  -14.3824   23.9140 C   0  0  0  0  0  0  0  0  0  0  0  0
    9.4563  -13.7667   24.3613 O   0  0  0  0  0  0  0  0  0  0  0  0
    8.3618  -14.5977   22.5228 N   0  0  0  0  0  0  0  0  0  0  0  0
    8.6649  -15.8725   21.9330 C   0  0  0  0  0  0  0  0  0  0  0  0
   10.1216  -16.0898   21.8793 C   0  0  0  0  0  0  0  0  0  0  0  0
   10.6443  -16.6367   20.8844 O   0  0  0  0  0  0  0  0  0  0  0  0
   10.9221  -15.6859   22.9385 O   0  0  0  0  0  0  0  0  0  0  0  0
  2  3  1  1
  2  1  1  0
  4  2  1  0
  4  5  1  6
  6  4  1  0
  6  7  2  0
  8  6  1  0
  9  8  1  0
 10 11  1  0
 10  9  1  0
 11 12  1  0
 12  8  1  0
 12 13  1  6
 13 15  1  0
 14 13  2  0
 15 16  1  0
 17 16  1  0
 17 19  1  0
 18 17  2  0
M  END
$$$$
