VPG.pdb
     RDKit          3D

 19 19  0  0  1  0  0  0  0  0999 V2000
    8.1183  -13.6322   27.0733 C   0  0  0  0  0  0  0  0  0  0  0  0
    7.4452  -12.7130   26.0766 C   0  0  2  0  0  0  0  0  0  0  0  0
    6.8857  -11.5017   26.8050 C   0  0  0  0  0  0  0  0  0  0  0  0
    6.3049  -13.5243   25.4485 C   0  0  2  0  0  0  0  0  0  0  0  0
    5.4335  -13.9109   26.5097 N   0  0  0  0  0  0  0  0  0  0  0  0
    6.8026  -14.6140   24.6154 C   0  0  0  0  0  0  0  0  0  0  0  0
    6.6403  -15.8006   24.9903 O   0  0  0  0  0  0  0  0  0  0  0  0
    7.4686  -14.3916   23.3883 N   0  0  0  0  0  0  0  0  0  0  0  0
    7.7519  -13.0726   22.8582 C   0  0  0  0  0  0  0  0  0  0  0  0
    8.3914  -13.3149   21.4898 C   0  0  0  0  0  0  0  0  0  0  0  0
    7.7723  -14.6502   21.1314 C   0  0  0  0  0  0  0  0  0  0  0  0
    7.9752  -15.3872   22.4621 C   0  0  1  0  0  0  0  0  0  0  0  0
    9.4187  -15.5966   22.7129 C   0  0  0  0  0  0  0  0  0  0  0  0
   10.0812  -14.7558   23.4087 O   0  0  0  0  0  0  0  0  0  0  0  0
   10.1180  -16.7107   22.2067 N   0  0  0  0  0  0  0  0  0  0  0  0
   11.0829  -17.4271   22.9946 C   0  0  0  0  0  0  0  0  0  0  0  0
   12.4173  -16.8141   22.8699 C   0  0  0  0  0  0  0  0  0  0  0  0
   12.8669  -16.4982   21.7474 O   0  0  0  0  0  0  0  0  0  0  0  0
   13.1832  -16.5843   24.0041 O   0  0  0  0  0  0  0  0  0  0  0  0
  2  3  1  1
  2  1  1  0
  4  2  1  0
  4  5  1  1
  6  4  1  0
  6  7  2  0
  8  6  1  0
  9  8  1  0
 10 11  1  0
 10  9  1  0
 11 12  1  0
 12  8  1  0
 12 13  1  1
 13 15  1  0
 14 13  2  0
 15 16  1  0
 17 16  1  0
 17 19  1  0
 18 17  2  0
M  END
$$$$
