SWW.pdb
     RDKit          3D

 35 38  0  0  1  0  0  0  0  0999 V2000
    7.1794  -20.9478   22.7339 O   0  0  0  0  0  0  0  0  0  0  0  0
    6.5773  -20.9718   23.9711 C   0  0  0  0  0  0  0  0  0  0  0  0
    5.6238  -19.8111   24.1660 C   0  0  2  0  0  0  0  0  0  0  0  0
    4.4145  -19.9568   23.4195 N   0  0  0  0  0  0  0  0  0  0  0  0
    6.2855  -18.5131   23.8687 C   0  0  0  0  0  0  0  0  0  0  0  0
    5.9425  -17.8459   22.8450 O   0  0  0  0  0  0  0  0  0  0  0  0
    7.3019  -17.9927   24.7071 N   0  0  0  0  0  0  0  0  0  0  0  0
    7.9932  -16.7804   24.4109 C   0  0  1  0  0  0  0  0  0  0  0  0
    8.2705  -16.0092   25.6882 C   0  0  0  0  0  0  0  0  0  0  0  0
    7.2749  -14.9741   25.9639 C   0  0  0  0  0  0  0  0  0  0  0  0
    5.9040  -15.2103   26.0675 C   0  0  0  0  0  0  0  0  0  0  0  0
    5.3164  -14.0416   26.3235 N   0  0  0  0  0  0  0  0  0  0  0  0
    6.2186  -13.0586   26.3930 C   0  0  0  0  0  0  0  0  0  0  0  0
    6.1260  -11.6928   26.6310 C   0  0  0  0  0  0  0  0  0  0  0  0
    7.2751  -10.9261   26.6400 C   0  0  0  0  0  0  0  0  0  0  0  0
    8.5229  -11.4850   26.4169 C   0  0  0  0  0  0  0  0  0  0  0  0
    8.5937  -12.8344   26.1838 C   0  0  0  0  0  0  0  0  0  0  0  0
    7.4548  -13.6261   26.1696 C   0  0  0  0  0  0  0  0  0  0  0  0
    9.3260  -17.0237   23.7847 C   0  0  0  0  0  0  0  0  0  0  0  0
    9.9145  -18.0773   24.1247 O   0  0  0  0  0  0  0  0  0  0  0  0
    9.9143  -16.1426   22.8641 N   0  0  0  0  0  0  0  0  0  0  0  0
   11.0970  -16.5052   22.1196 C   0  0  1  0  0  0  0  0  0  0  0  0
   11.1177  -15.8433   20.7817 C   0  0  0  0  0  0  0  0  0  0  0  0
    9.7515  -15.6276   20.2345 C   0  0  0  0  0  0  0  0  0  0  0  0
    8.9493  -16.5388   19.5810 C   0  0  0  0  0  0  0  0  0  0  0  0
    7.8005  -15.9497   19.2522 N   0  0  0  0  0  0  0  0  0  0  0  0
    7.7897  -14.6553   19.6619 C   0  0  0  0  0  0  0  0  0  0  0  0
    6.8559  -13.6433   19.5655 C   0  0  0  0  0  0  0  0  0  0  0  0
    7.1418  -12.4020   20.0925 C   0  0  0  0  0  0  0  0  0  0  0  0
    8.3724  -12.1989   20.7122 C   0  0  0  0  0  0  0  0  0  0  0  0
    9.3019  -13.2224   20.8025 C   0  0  0  0  0  0  0  0  0  0  0  0
    9.0095  -14.4533   20.2764 C   0  0  0  0  0  0  0  0  0  0  0  0
   12.2887  -16.1463   22.9473 C   0  0  0  0  0  0  0  0  0  0  0  0
   12.1724  -15.5744   24.0361 O   0  0  0  0  0  0  0  0  0  0  0  0
   13.5837  -16.4451   22.5184 O   0  0  0  0  0  0  0  0  0  0  0  0
  2  1  1  0
  3  2  1  0
  3  4  1  6
  5  6  2  0
  5  3  1  0
  7  5  1  0
  8  7  1  0
  8  9  1  1
 10 18  1  0
 10  9  1  0
 11 10  2  0
 12 11  1  0
 12 13  1  0
 13 18  2  0
 14 13  1  0
 14 15  2  0
 15 16  1  0
 16 17  2  0
 18 17  1  0
 19 21  1  0
 19  8  1  0
 20 19  2  0
 22 21  1  0
 22 33  1  0
 22 23  1  6
 24 32  1  0
 24 23  1  0
 25 24  2  0
 26 25  1  0
 26 27  1  0
 27 32  2  0
 28 27  1  0
 28 29  2  0
 29 30  1  0
 30 31  2  0
 32 31  1  0
 33 35  1  0
 34 33  2  0
M  END
$$$$
