SWW.pdb
     RDKit          3D

 35 38  0  0  1  0  0  0  0  0999 V2000
    5.6423  -20.1736   25.3581 O   0  0  0  0  0  0  0  0  0  0  0  0
    4.9325  -19.5607   24.3510 C   0  0  0  0  0  0  0  0  0  0  0  0
    5.4587  -19.9233   22.9777 C   0  0  2  0  0  0  0  0  0  0  0  0
    5.2717  -21.3037   22.6600 N   0  0  0  0  0  0  0  0  0  0  0  0
    6.8828  -19.5245   22.8225 C   0  0  0  0  0  0  0  0  0  0  0  0
    7.8025  -20.3871   22.9670 O   0  0  0  0  0  0  0  0  0  0  0  0
    7.2472  -18.1910   22.5138 N   0  0  0  0  0  0  0  0  0  0  0  0
    8.6073  -17.7731   22.4097 C   0  0  1  0  0  0  0  0  0  0  0  0
    8.8523  -17.1149   21.0643 C   0  0  0  0  0  0  0  0  0  0  0  0
    7.8970  -16.0498   20.7615 C   0  0  0  0  0  0  0  0  0  0  0  0
    6.5305  -16.2518   20.5676 C   0  0  0  0  0  0  0  0  0  0  0  0
    5.9837  -15.0628   20.3146 N   0  0  0  0  0  0  0  0  0  0  0  0
    6.9085  -14.0987   20.3314 C   0  0  0  0  0  0  0  0  0  0  0  0
    6.8584  -12.7241   20.1344 C   0  0  0  0  0  0  0  0  0  0  0  0
    8.0211  -11.9833   20.2219 C   0  0  0  0  0  0  0  0  0  0  0  0
    9.2412  -12.5767   20.5020 C   0  0  0  0  0  0  0  0  0  0  0  0
    9.2701  -13.9342   20.6932 C   0  0  0  0  0  0  0  0  0  0  0  0
    8.1168  -14.7004   20.6108 C   0  0  0  0  0  0  0  0  0  0  0  0
    8.9685  -16.7503   23.4349 C   0  0  0  0  0  0  0  0  0  0  0  0
    8.1826  -15.7804   23.5517 O   0  0  0  0  0  0  0  0  0  0  0  0
   10.1156  -16.8405   24.2387 N   0  0  0  0  0  0  0  0  0  0  0  0
   10.4367  -15.8263   25.2150 C   0  0  1  0  0  0  0  0  0  0  0  0
    9.6660  -16.0281   26.4775 C   0  0  0  0  0  0  0  0  0  0  0  0
    8.2663  -15.5361   26.3723 C   0  0  0  0  0  0  0  0  0  0  0  0
    7.1250  -16.2763   26.1470 C   0  0  0  0  0  0  0  0  0  0  0  0
    6.0738  -15.4583   26.1235 N   0  0  0  0  0  0  0  0  0  0  0  0
    6.4605  -14.1727   26.3266 C   0  0  0  0  0  0  0  0  0  0  0  0
    5.7701  -12.9792   26.3918 C   0  0  0  0  0  0  0  0  0  0  0  0
    6.4591  -11.8068   26.6172 C   0  0  0  0  0  0  0  0  0  0  0  0
    7.8420  -11.8559   26.7742 C   0  0  0  0  0  0  0  0  0  0  0  0
    8.5241  -13.0600   26.7064 C   0  0  0  0  0  0  0  0  0  0  0  0
    7.8315  -14.2208   26.4823 C   0  0  0  0  0  0  0  0  0  0  0  0
   11.9137  -15.8588   25.4420 C   0  0  0  0  0  0  0  0  0  0  0  0
   12.4797  -15.0149   26.1444 O   0  0  0  0  0  0  0  0  0  0  0  0
   12.7123  -16.8488   24.8654 O   0  0  0  0  0  0  0  0  0  0  0  0
  2  1  1  0
  3  2  1  0
  3  4  1  1
  5  6  2  0
  5  3  1  0
  7  5  1  0
  8  7  1  0
  8  9  1  6
 10 18  1  0
 10  9  1  0
 11 10  2  0
 12 11  1  0
 12 13  1  0
 13 18  2  0
 14 13  1  0
 14 15  2  0
 15 16  1  0
 16 17  2  0
 18 17  1  0
 19 21  1  0
 19  8  1  0
 20 19  2  0
 22 21  1  0
 22 33  1  0
 22 23  1  1
 24 32  1  0
 24 23  1  0
 25 24  2  0
 26 25  1  0
 26 27  1  0
 27 32  2  0
 28 27  1  0
 28 29  2  0
 29 30  1  0
 30 31  2  0
 32 31  1  0
 33 35  1  0
 34 33  2  0
M  END
$$$$
