SWW.pdb
     RDKit          3D

 35 38  0  0  1  0  0  0  0  0999 V2000
    7.8580  -21.8236   25.5769 O   0  0  0  0  0  0  0  0  0  0  0  0
    7.9558  -20.6311   24.8970 C   0  0  0  0  0  0  0  0  0  0  0  0
    7.5834  -20.7735   23.4357 C   0  0  2  0  0  0  0  0  0  0  0  0
    7.9686  -22.0349   22.8866 N   0  0  0  0  0  0  0  0  0  0  0  0
    8.1250  -19.6482   22.6285 C   0  0  0  0  0  0  0  0  0  0  0  0
    9.2186  -19.7874   21.9996 O   0  0  0  0  0  0  0  0  0  0  0  0
    7.4458  -18.4083   22.5401 N   0  0  0  0  0  0  0  0  0  0  0  0
    8.0512  -17.2410   21.9866 C   0  0  1  0  0  0  0  0  0  0  0  0
    6.9847  -16.2845   21.4855 C   0  0  0  0  0  0  0  0  0  0  0  0
    7.4898  -15.3176   20.5116 C   0  0  0  0  0  0  0  0  0  0  0  0
    7.8025  -15.6262   19.1876 C   0  0  0  0  0  0  0  0  0  0  0  0
    8.2287  -14.5046   18.6068 N   0  0  0  0  0  0  0  0  0  0  0  0
    8.2133  -13.4846   19.4696 C   0  0  0  0  0  0  0  0  0  0  0  0
    8.5515  -12.1409   19.3654 C   0  0  0  0  0  0  0  0  0  0  0  0
    8.4192  -11.3203   20.4688 C   0  0  0  0  0  0  0  0  0  0  0  0
    7.9565  -11.8034   21.6820 C   0  0  0  0  0  0  0  0  0  0  0  0
    7.6280  -13.1321   21.7648 C   0  0  0  0  0  0  0  0  0  0  0  0
    7.7517  -13.9768   20.6716 C   0  0  0  0  0  0  0  0  0  0  0  0
    8.8416  -16.4768   22.9959 C   0  0  0  0  0  0  0  0  0  0  0  0
    8.8563  -15.2304   22.8608 O   0  0  0  0  0  0  0  0  0  0  0  0
    9.5398  -17.0891   24.0484 N   0  0  0  0  0  0  0  0  0  0  0  0
   10.3672  -16.3257   24.9525 C   0  0  1  0  0  0  0  0  0  0  0  0
    9.7523  -16.2450   26.3104 C   0  0  0  0  0  0  0  0  0  0  0  0
    8.3353  -15.7950   26.2655 C   0  0  0  0  0  0  0  0  0  0  0  0
    7.2086  -16.5679   26.0797 C   0  0  0  0  0  0  0  0  0  0  0  0
    6.1332  -15.7821   26.1053 N   0  0  0  0  0  0  0  0  0  0  0  0
    6.4889  -14.4868   26.3037 C   0  0  0  0  0  0  0  0  0  0  0  0
    5.7661  -13.3154   26.4066 C   0  0  0  0  0  0  0  0  0  0  0  0
    6.4280  -12.1242   26.6142 C   0  0  0  0  0  0  0  0  0  0  0  0
    7.8170  -12.1324   26.7153 C   0  0  0  0  0  0  0  0  0  0  0  0
    8.5317  -13.3147   26.6100 C   0  0  0  0  0  0  0  0  0  0  0  0
    7.8659  -14.4943   26.4040 C   0  0  0  0  0  0  0  0  0  0  0  0
   11.7212  -16.9582   24.9808 C   0  0  0  0  0  0  0  0  0  0  0  0
   12.6360  -16.4994   25.6726 O   0  0  0  0  0  0  0  0  0  0  0  0
   12.0036  -18.0963   24.2223 O   0  0  0  0  0  0  0  0  0  0  0  0
  2  1  1  0
  3  2  1  0
  3  4  1  6
  5  6  2  0
  5  3  1  0
  7  5  1  0
  8  7  1  0
  8  9  1  1
 10 18  1  0
 10  9  1  0
 11 10  2  0
 12 11  1  0
 12 13  1  0
 13 18  2  0
 14 13  1  0
 14 15  2  0
 15 16  1  0
 16 17  2  0
 18 17  1  0
 19 21  1  0
 19  8  1  0
 20 19  2  0
 22 21  1  0
 22 33  1  0
 22 23  1  1
 24 32  1  0
 24 23  1  0
 25 24  2  0
 26 25  1  0
 26 27  1  0
 27 32  2  0
 28 27  1  0
 28 29  2  0
 29 30  1  0
 30 31  2  0
 32 31  1  0
 33 35  1  0
 34 33  2  0
M  END
$$$$
