SWW.pdb
     RDKit          3D

 35 38  0  0  1  0  0  0  0  0999 V2000
    9.6704  -20.3875   23.1048 O   0  0  0  0  0  0  0  0  0  0  0  0
    8.6994  -20.1443   22.1604 C   0  0  0  0  0  0  0  0  0  0  0  0
    9.1986  -19.2514   21.0433 C   0  0  2  0  0  0  0  0  0  0  0  0
   10.0977  -19.9221   20.1584 N   0  0  0  0  0  0  0  0  0  0  0  0
    9.8036  -18.0033   21.5793 C   0  0  0  0  0  0  0  0  0  0  0  0
   11.0580  -17.8244   21.5068 O   0  0  0  0  0  0  0  0  0  0  0  0
    9.0088  -16.9943   22.1767 N   0  0  0  0  0  0  0  0  0  0  0  0
    9.5624  -15.7767   22.6730 C   0  0  1  0  0  0  0  0  0  0  0  0
    8.4991  -14.6945   22.7116 C   0  0  0  0  0  0  0  0  0  0  0  0
    7.7731  -14.5550   21.4498 C   0  0  0  0  0  0  0  0  0  0  0  0
    6.6357  -15.2888   21.1125 C   0  0  0  0  0  0  0  0  0  0  0  0
    6.2531  -14.8952   19.8978 N   0  0  0  0  0  0  0  0  0  0  0  0
    7.0700  -13.9509   19.4225 C   0  0  0  0  0  0  0  0  0  0  0  0
    7.1067  -13.2292   18.2357 C   0  0  0  0  0  0  0  0  0  0  0  0
    8.1063  -12.2962   18.0395 C   0  0  0  0  0  0  0  0  0  0  0  0
    9.0776  -12.0597   18.9986 C   0  0  0  0  0  0  0  0  0  0  0  0
    9.0245  -12.7818   20.1631 C   0  0  0  0  0  0  0  0  0  0  0  0
    8.0311  -13.7243   20.3843 C   0  0  0  0  0  0  0  0  0  0  0  0
   10.0610  -15.9075   24.0736 C   0  0  0  0  0  0  0  0  0  0  0  0
   10.8628  -15.0251   24.4616 O   0  0  0  0  0  0  0  0  0  0  0  0
    9.6734  -16.9474   24.9329 N   0  0  0  0  0  0  0  0  0  0  0  0
   10.1820  -17.0443   26.2808 C   0  0  1  0  0  0  0  0  0  0  0  0
    9.9006  -15.7995   27.0554 C   0  0  0  0  0  0  0  0  0  0  0  0
    8.5239  -15.2864   26.8236 C   0  0  0  0  0  0  0  0  0  0  0  0
    7.3788  -16.0164   26.5853 C   0  0  0  0  0  0  0  0  0  0  0  0
    6.3537  -15.1796   26.4313 N   0  0  0  0  0  0  0  0  0  0  0  0
    6.7622  -13.8909   26.5571 C   0  0  0  0  0  0  0  0  0  0  0  0
    6.1020  -12.6809   26.4847 C   0  0  0  0  0  0  0  0  0  0  0  0
    6.8076  -11.5098   26.6606 C   0  0  0  0  0  0  0  0  0  0  0  0
    8.1765  -11.5772   26.9081 C   0  0  0  0  0  0  0  0  0  0  0  0
    8.8283  -12.7978   26.9782 C   0  0  0  0  0  0  0  0  0  0  0  0
    8.1193  -13.9570   26.8025 C   0  0  0  0  0  0  0  0  0  0  0  0
    9.5757  -18.2547   26.9144 C   0  0  0  0  0  0  0  0  0  0  0  0
    9.8512  -18.5864   28.0720 O   0  0  0  0  0  0  0  0  0  0  0  0
    8.6714  -19.0593   26.2179 O   0  0  0  0  0  0  0  0  0  0  0  0
  2  1  1  0
  3  2  1  0
  3  4  1  1
  5  6  2  0
  5  3  1  0
  7  5  1  0
  8  7  1  0
  8  9  1  1
 10 18  1  0
 10  9  1  0
 11 10  2  0
 12 11  1  0
 12 13  1  0
 13 18  2  0
 14 13  1  0
 14 15  2  0
 15 16  1  0
 16 17  2  0
 18 17  1  0
 19 21  1  0
 19  8  1  0
 20 19  2  0
 22 21  1  0
 22 33  1  0
 22 23  1  1
 24 32  1  0
 24 23  1  0
 25 24  2  0
 26 25  1  0
 26 27  1  0
 27 32  2  0
 28 27  1  0
 28 29  2  0
 29 30  1  0
 30 31  2  0
 32 31  1  0
 33 35  1  0
 34 33  2  0
M  END
$$$$
