SWW.pdb
     RDKit          3D

 35 38  0  0  1  0  0  0  0  0999 V2000
   11.4683  -18.7358   18.9737 O   0  0  0  0  0  0  0  0  0  0  0  0
   10.3241  -19.4714   18.7647 C   0  0  0  0  0  0  0  0  0  0  0  0
    9.0751  -18.6168   18.8268 C   0  0  2  0  0  0  0  0  0  0  0  0
    9.0578  -17.5889   17.8347 N   0  0  0  0  0  0  0  0  0  0  0  0
    8.8740  -18.0530   20.1880 C   0  0  0  0  0  0  0  0  0  0  0  0
    9.0773  -16.8182   20.3997 O   0  0  0  0  0  0  0  0  0  0  0  0
    8.4562  -18.8660   21.2702 N   0  0  0  0  0  0  0  0  0  0  0  0
    8.1758  -18.3343   22.5640 C   0  0  1  0  0  0  0  0  0  0  0  0
    7.4391  -19.3611   23.4046 C   0  0  0  0  0  0  0  0  0  0  0  0
    7.1106  -18.8790   24.7456 C   0  0  0  0  0  0  0  0  0  0  0  0
    6.2920  -17.7802   25.0069 C   0  0  0  0  0  0  0  0  0  0  0  0
    6.2205  -17.6421   26.3307 N   0  0  0  0  0  0  0  0  0  0  0  0
    6.9415  -18.5821   26.9484 C   0  0  0  0  0  0  0  0  0  0  0  0
    7.1896  -18.8706   28.2848 C   0  0  0  0  0  0  0  0  0  0  0  0
    8.0000  -19.9414   28.6087 C   0  0  0  0  0  0  0  0  0  0  0  0
    8.5748  -20.7388   27.6325 C   0  0  0  0  0  0  0  0  0  0  0  0
    8.3182  -20.4380   26.3195 C   0  0  0  0  0  0  0  0  0  0  0  0
    7.5079  -19.3685   25.9681 C   0  0  0  0  0  0  0  0  0  0  0  0
    9.4165  -18.0010   23.3236 C   0  0  0  0  0  0  0  0  0  0  0  0
   10.4471  -18.6435   23.0119 O   0  0  0  0  0  0  0  0  0  0  0  0
    9.4600  -17.0287   24.3349 N   0  0  0  0  0  0  0  0  0  0  0  0
   10.7054  -16.4342   24.7596 C   0  0  1  0  0  0  0  0  0  0  0  0
   10.5643  -14.9599   24.9469 C   0  0  0  0  0  0  0  0  0  0  0  0
    9.3718  -14.6031   25.7612 C   0  0  0  0  0  0  0  0  0  0  0  0
    8.9812  -15.1418   26.9688 C   0  0  0  0  0  0  0  0  0  0  0  0
    7.8574  -14.5473   27.3669 N   0  0  0  0  0  0  0  0  0  0  0  0
    7.4626  -13.6124   26.4648 C   0  0  0  0  0  0  0  0  0  0  0  0
    6.3903  -12.7447   26.4138 C   0  0  0  0  0  0  0  0  0  0  0  0
    6.2567  -11.8915   25.3394 C   0  0  0  0  0  0  0  0  0  0  0  0
    7.2120  -11.9267   24.3266 C   0  0  0  0  0  0  0  0  0  0  0  0
    8.2840  -12.8024   24.3888 C   0  0  0  0  0  0  0  0  0  0  0  0
    8.4093  -13.6468   25.4605 C   0  0  0  0  0  0  0  0  0  0  0  0
   11.1405  -17.1249   26.0117 C   0  0  0  0  0  0  0  0  0  0  0  0
   12.2092  -16.8481   26.5660 O   0  0  0  0  0  0  0  0  0  0  0  0
   10.3516  -18.1135   26.6037 O   0  0  0  0  0  0  0  0  0  0  0  0
  2  1  1  0
  3  2  1  0
  3  4  1  6
  5  6  2  0
  5  3  1  0
  7  5  1  0
  8  7  1  0
  8  9  1  1
 10 18  1  0
 10  9  1  0
 11 10  2  0
 12 11  1  0
 12 13  1  0
 13 18  2  0
 14 13  1  0
 14 15  2  0
 15 16  1  0
 16 17  2  0
 18 17  1  0
 19 21  1  0
 19  8  1  0
 20 19  2  0
 22 21  1  0
 22 33  1  0
 22 23  1  1
 24 32  1  0
 24 23  1  0
 25 24  2  0
 26 25  1  0
 26 27  1  0
 27 32  2  0
 28 27  1  0
 28 29  2  0
 29 30  1  0
 30 31  2  0
 32 31  1  0
 33 35  1  0
 34 33  2  0
M  END
$$$$
