SWW.pdb
     RDKit          3D

 35 38  0  0  1  0  0  0  0  0999 V2000
    8.4975  -16.9736   19.9009 O   0  0  0  0  0  0  0  0  0  0  0  0
    9.5455  -16.0883   20.0091 C   0  0  0  0  0  0  0  0  0  0  0  0
   10.8289  -16.7702   20.4359 C   0  0  2  0  0  0  0  0  0  0  0  0
   11.1735  -17.8752   19.5986 N   0  0  0  0  0  0  0  0  0  0  0  0
   10.7752  -17.1757   21.8655 C   0  0  0  0  0  0  0  0  0  0  0  0
   10.6938  -18.4042   22.1738 O   0  0  0  0  0  0  0  0  0  0  0  0
   10.8127  -16.2168   22.9075 N   0  0  0  0  0  0  0  0  0  0  0  0
   10.7052  -16.5766   24.2838 C   0  0  1  0  0  0  0  0  0  0  0  0
   11.2344  -15.4572   25.1614 C   0  0  0  0  0  0  0  0  0  0  0  0
   11.2185  -15.7858   26.5864 C   0  0  0  0  0  0  0  0  0  0  0  0
   11.5717  -17.0296   27.1099 C   0  0  0  0  0  0  0  0  0  0  0  0
   11.4369  -16.9577   28.4340 N   0  0  0  0  0  0  0  0  0  0  0  0
   11.0178  -15.7448   28.8061 C   0  0  0  0  0  0  0  0  0  0  0  0
   10.7310  -15.1702   30.0383 C   0  0  0  0  0  0  0  0  0  0  0  0
   10.3078  -13.8563   30.0923 C   0  0  0  0  0  0  0  0  0  0  0  0
   10.1608  -13.0928   28.9456 C   0  0  0  0  0  0  0  0  0  0  0  0
   10.4486  -13.6777   27.7393 C   0  0  0  0  0  0  0  0  0  0  0  0
   10.8753  -14.9950   27.6582 C   0  0  0  0  0  0  0  0  0  0  0  0
    9.2902  -16.7914   24.7071 C   0  0  0  0  0  0  0  0  0  0  0  0
    8.7805  -15.8913   25.4156 O   0  0  0  0  0  0  0  0  0  0  0  0
    8.5452  -17.9257   24.3489 N   0  0  0  0  0  0  0  0  0  0  0  0
    7.3866  -18.3395   25.1047 C   0  0  1  0  0  0  0  0  0  0  0  0
    6.1965  -17.5024   24.7711 C   0  0  0  0  0  0  0  0  0  0  0  0
    6.5659  -16.2487   24.0610 C   0  0  0  0  0  0  0  0  0  0  0  0
    7.0698  -16.1177   22.7843 C   0  0  0  0  0  0  0  0  0  0  0  0
    7.2669  -14.8259   22.5250 N   0  0  0  0  0  0  0  0  0  0  0  0
    6.9121  -14.0623   23.5902 C   0  0  0  0  0  0  0  0  0  0  0  0
    6.9247  -12.7015   23.8211 C   0  0  0  0  0  0  0  0  0  0  0  0
    6.4910  -12.2139   25.0353 C   0  0  0  0  0  0  0  0  0  0  0  0
    6.0487  -13.1114   26.0041 C   0  0  0  0  0  0  0  0  0  0  0  0
    6.0411  -14.4754   25.7608 C   0  0  0  0  0  0  0  0  0  0  0  0
    6.4736  -14.9515   24.5510 C   0  0  0  0  0  0  0  0  0  0  0  0
    7.1534  -19.7901   24.8302 C   0  0  0  0  0  0  0  0  0  0  0  0
    6.2331  -20.4118   25.3712 O   0  0  0  0  0  0  0  0  0  0  0  0
    7.9712  -20.4998   23.9483 O   0  0  0  0  0  0  0  0  0  0  0  0
  2  1  1  0
  3  2  1  0
  3  4  1  6
  5  6  2  0
  5  3  1  0
  7  5  1  0
  8  7  1  0
  8  9  1  1
 10 18  1  0
 10  9  1  0
 11 10  2  0
 12 11  1  0
 12 13  1  0
 13 18  2  0
 14 13  1  0
 14 15  2  0
 15 16  1  0
 16 17  2  0
 18 17  1  0
 19 21  1  0
 19  8  1  0
 20 19  2  0
 22 21  1  0
 22 33  1  0
 22 23  1  6
 24 32  1  0
 24 23  1  0
 25 24  2  0
 26 25  1  0
 26 27  1  0
 27 32  2  0
 28 27  1  0
 28 29  2  0
 29 30  1  0
 30 31  2  0
 32 31  1  0
 33 35  1  0
 34 33  2  0
M  END
$$$$
