SWW.pdb
     RDKit          3D

 35 38  0  0  1  0  0  0  0  0999 V2000
   10.4769  -17.4187   17.8756 O   0  0  0  0  0  0  0  0  0  0  0  0
   11.7717  -17.7005   18.2472 C   0  0  0  0  0  0  0  0  0  0  0  0
   11.8574  -18.2364   19.6613 C   0  0  2  0  0  0  0  0  0  0  0  0
   11.2037  -19.4974   19.8160 N   0  0  0  0  0  0  0  0  0  0  0  0
   11.3506  -17.2443   20.6462 C   0  0  0  0  0  0  0  0  0  0  0  0
   11.8712  -16.0884   20.7075 O   0  0  0  0  0  0  0  0  0  0  0  0
   10.2889  -17.5568   21.5303 N   0  0  0  0  0  0  0  0  0  0  0  0
    9.7296  -16.5969   22.4253 C   0  0  1  0  0  0  0  0  0  0  0  0
    8.2166  -16.7149   22.4424 C   0  0  0  0  0  0  0  0  0  0  0  0
    7.5636  -15.8994   21.4191 C   0  0  0  0  0  0  0  0  0  0  0  0
    6.5264  -16.3475   20.6011 C   0  0  0  0  0  0  0  0  0  0  0  0
    6.1868  -15.3385   19.7990 N   0  0  0  0  0  0  0  0  0  0  0  0
    6.9381  -14.2610   20.0431 C   0  0  0  0  0  0  0  0  0  0  0  0
    6.9818  -12.9840   19.4972 C   0  0  0  0  0  0  0  0  0  0  0  0
    7.8975  -12.0700   19.9812 C   0  0  0  0  0  0  0  0  0  0  0  0
    8.7776  -12.3940   21.0010 C   0  0  0  0  0  0  0  0  0  0  0  0
    8.7191  -13.6590   21.5267 C   0  0  0  0  0  0  0  0  0  0  0  0
    7.8088  -14.5950   21.0582 C   0  0  0  0  0  0  0  0  0  0  0  0
   10.1704  -16.8090   23.8354 C   0  0  0  0  0  0  0  0  0  0  0  0
   10.8843  -17.8176   24.0476 O   0  0  0  0  0  0  0  0  0  0  0  0
    9.8227  -15.9465   24.8866 N   0  0  0  0  0  0  0  0  0  0  0  0
   10.2995  -16.1632   26.2322 C   0  0  1  0  0  0  0  0  0  0  0  0
    9.7455  -15.1448   27.1726 C   0  0  0  0  0  0  0  0  0  0  0  0
    8.3122  -14.8485   26.9076 C   0  0  0  0  0  0  0  0  0  0  0  0
    7.2946  -15.7464   26.6637 C   0  0  0  0  0  0  0  0  0  0  0  0
    6.1588  -15.0759   26.4763 N   0  0  0  0  0  0  0  0  0  0  0  0
    6.3666  -13.7385   26.5844 C   0  0  0  0  0  0  0  0  0  0  0  0
    5.5337  -12.6429   26.4776 C   0  0  0  0  0  0  0  0  0  0  0  0
    6.0519  -11.3764   26.6432 C   0  0  0  0  0  0  0  0  0  0  0  0
    7.4102  -11.2329   26.9153 C   0  0  0  0  0  0  0  0  0  0  0  0
    8.2364  -12.3403   27.0198 C   0  0  0  0  0  0  0  0  0  0  0  0
    7.7131  -13.5957   26.8542 C   0  0  0  0  0  0  0  0  0  0  0  0
    9.9358  -17.5576   26.6291 C   0  0  0  0  0  0  0  0  0  0  0  0
    9.0995  -18.2130   25.9990 O   0  0  0  0  0  0  0  0  0  0  0  0
   10.5303  -18.1737   27.7324 O   0  0  0  0  0  0  0  0  0  0  0  0
  2  1  1  0
  3  2  1  0
  3  4  1  6
  5  6  2  0
  5  3  1  0
  7  5  1  0
  8  7  1  0
  8  9  1  1
 10 18  1  0
 10  9  1  0
 11 10  2  0
 12 11  1  0
 12 13  1  0
 13 18  2  0
 14 13  1  0
 14 15  2  0
 15 16  1  0
 16 17  2  0
 18 17  1  0
 19 21  1  0
 19  8  1  0
 20 19  2  0
 22 21  1  0
 22 33  1  0
 22 23  1  1
 24 32  1  0
 24 23  1  0
 25 24  2  0
 26 25  1  0
 26 27  1  0
 27 32  2  0
 28 27  1  0
 28 29  2  0
 29 30  1  0
 30 31  2  0
 32 31  1  0
 33 35  1  0
 34 33  2  0
M  END
$$$$
