SWW.pdb
     RDKit          3D

 35 38  0  0  1  0  0  0  0  0999 V2000
    9.1702  -15.1661   17.3836 O   0  0  0  0  0  0  0  0  0  0  0  0
    7.8201  -15.1867   17.6493 C   0  0  0  0  0  0  0  0  0  0  0  0
    7.4251  -14.1555   18.6861 C   0  0  2  0  0  0  0  0  0  0  0  0
    7.6437  -12.8146   18.2443 N   0  0  0  0  0  0  0  0  0  0  0  0
    8.1016  -14.4100   19.9856 C   0  0  0  0  0  0  0  0  0  0  0  0
    9.1814  -13.8057   20.2678 O   0  0  0  0  0  0  0  0  0  0  0  0
    7.5680  -15.3204   20.9306 N   0  0  0  0  0  0  0  0  0  0  0  0
    8.1956  -15.5774   22.1857 C   0  0  1  0  0  0  0  0  0  0  0  0
    7.3060  -16.4549   23.0471 C   0  0  0  0  0  0  0  0  0  0  0  0
    6.8426  -15.7877   24.2631 C   0  0  0  0  0  0  0  0  0  0  0  0
    6.0881  -16.4066   25.2599 C   0  0  0  0  0  0  0  0  0  0  0  0
    5.8541  -15.4967   26.2055 N   0  0  0  0  0  0  0  0  0  0  0  0
    6.4088  -14.3237   25.8871 C   0  0  0  0  0  0  0  0  0  0  0  0
    6.4558  -13.0871   26.5189 C   0  0  0  0  0  0  0  0  0  0  0  0
    7.1291  -12.0423   25.9161 C   0  0  0  0  0  0  0  0  0  0  0  0
    7.7615  -12.1950   24.6930 C   0  0  0  0  0  0  0  0  0  0  0  0
    7.7038  -13.4229   24.0853 C   0  0  0  0  0  0  0  0  0  0  0  0
    7.0343  -14.4878   24.6698 C   0  0  0  0  0  0  0  0  0  0  0  0
    9.4808  -16.3216   22.0375 C   0  0  0  0  0  0  0  0  0  0  0  0
   10.0149  -16.2859   20.9037 O   0  0  0  0  0  0  0  0  0  0  0  0
   10.0832  -17.0307   23.0884 N   0  0  0  0  0  0  0  0  0  0  0  0
   11.3682  -16.6454   23.6222 C   0  0  1  0  0  0  0  0  0  0  0  0
   11.2369  -15.5062   24.5780 C   0  0  0  0  0  0  0  0  0  0  0  0
   10.7077  -15.9338   25.9007 C   0  0  0  0  0  0  0  0  0  0  0  0
   10.2545  -17.1838   26.2657 C   0  0  0  0  0  0  0  0  0  0  0  0
    9.8663  -17.1508   27.5396 N   0  0  0  0  0  0  0  0  0  0  0  0
   10.0400  -15.9100   28.0630 C   0  0  0  0  0  0  0  0  0  0  0  0
    9.7979  -15.3701   29.3101 C   0  0  0  0  0  0  0  0  0  0  0  0
   10.0861  -14.0424   29.5436 C   0  0  0  0  0  0  0  0  0  0  0  0
   10.6168  -13.2749   28.5099 C   0  0  0  0  0  0  0  0  0  0  0  0
   10.8552  -13.8280   27.2620 C   0  0  0  0  0  0  0  0  0  0  0  0
   10.5662  -15.1486   27.0386 C   0  0  0  0  0  0  0  0  0  0  0  0
   11.9812  -17.8508   24.2588 C   0  0  0  0  0  0  0  0  0  0  0  0
   13.1462  -17.8445   24.6694 O   0  0  0  0  0  0  0  0  0  0  0  0
   11.2563  -19.0344   24.4134 O   0  0  0  0  0  0  0  0  0  0  0  0
  2  1  1  0
  3  2  1  0
  3  4  1  6
  5  6  2  0
  5  3  1  0
  7  5  1  0
  8  7  1  0
  8  9  1  1
 10 18  1  0
 10  9  1  0
 11 10  2  0
 12 11  1  0
 12 13  1  0
 13 18  2  0
 14 13  1  0
 14 15  2  0
 15 16  1  0
 16 17  2  0
 18 17  1  0
 19 21  1  0
 19  8  1  0
 20 19  2  0
 22 21  1  0
 22 33  1  0
 22 23  1  1
 24 32  1  0
 24 23  1  0
 25 24  2  0
 26 25  1  0
 26 27  1  0
 27 32  2  0
 28 27  1  0
 28 29  2  0
 29 30  1  0
 30 31  2  0
 32 31  1  0
 33 35  1  0
 34 33  2  0
M  END
$$$$
