SWW.pdb
     RDKit          3D

 35 38  0  0  1  0  0  0  0  0999 V2000
   10.5808  -18.8489   19.2916 O   0  0  0  0  0  0  0  0  0  0  0  0
   10.6615  -17.7236   18.5036 C   0  0  0  0  0  0  0  0  0  0  0  0
    9.5684  -16.7239   18.8199 C   0  0  2  0  0  0  0  0  0  0  0  0
    9.5617  -15.6096   17.9258 N   0  0  0  0  0  0  0  0  0  0  0  0
    9.6398  -16.2760   20.2360 C   0  0  0  0  0  0  0  0  0  0  0  0
   10.3973  -15.3100   20.5584 O   0  0  0  0  0  0  0  0  0  0  0  0
    8.8759  -16.9053   21.2495 N   0  0  0  0  0  0  0  0  0  0  0  0
    8.9829  -16.5437   22.6253 C   0  0  1  0  0  0  0  0  0  0  0  0
    7.8365  -17.1461   23.4167 C   0  0  0  0  0  0  0  0  0  0  0  0
    7.1800  -16.1850   24.3021 C   0  0  0  0  0  0  0  0  0  0  0  0
    6.1960  -16.5190   25.2326 C   0  0  0  0  0  0  0  0  0  0  0  0
    5.8358  -15.3953   25.8526 N   0  0  0  0  0  0  0  0  0  0  0  0
    6.5235  -14.3501   25.3842 C   0  0  0  0  0  0  0  0  0  0  0  0
    6.5247  -12.9943   25.6883 C   0  0  0  0  0  0  0  0  0  0  0  0
    7.3779  -12.1470   25.0082 C   0  0  0  0  0  0  0  0  0  0  0  0
    8.2362  -12.6150   24.0265 C   0  0  0  0  0  0  0  0  0  0  0  0
    8.2202  -13.9559   23.7407 C   0  0  0  0  0  0  0  0  0  0  0  0
    7.3731  -14.8274   24.4093 C   0  0  0  0  0  0  0  0  0  0  0  0
   10.2311  -17.0656   23.2556 C   0  0  0  0  0  0  0  0  0  0  0  0
   10.7546  -18.0635   22.7059 O   0  0  0  0  0  0  0  0  0  0  0  0
   10.8112  -16.4940   24.3988 N   0  0  0  0  0  0  0  0  0  0  0  0
   12.0310  -17.0152   24.9691 C   0  0  1  0  0  0  0  0  0  0  0  0
   12.5235  -16.1458   26.0783 C   0  0  0  0  0  0  0  0  0  0  0  0
   11.5775  -16.0991   27.2251 C   0  0  0  0  0  0  0  0  0  0  0  0
   11.2683  -17.1125   28.1075 C   0  0  0  0  0  0  0  0  0  0  0  0
   10.3767  -16.6639   28.9898 N   0  0  0  0  0  0  0  0  0  0  0  0
   10.0626  -15.3670   28.7387 C   0  0  0  0  0  0  0  0  0  0  0  0
    9.2115  -14.4676   29.3487 C   0  0  0  0  0  0  0  0  0  0  0  0
    9.1047  -13.1870   28.8498 C   0  0  0  0  0  0  0  0  0  0  0  0
    9.8621  -12.8308   27.7367 C   0  0  0  0  0  0  0  0  0  0  0  0
   10.7129  -13.7426   27.1328 C   0  0  0  0  0  0  0  0  0  0  0  0
   10.8132  -15.0133   27.6353 C   0  0  0  0  0  0  0  0  0  0  0  0
   11.7649  -18.4145   25.4221 C   0  0  0  0  0  0  0  0  0  0  0  0
   10.6191  -18.8740   25.4663 O   0  0  0  0  0  0  0  0  0  0  0  0
   12.8065  -19.2580   25.8142 O   0  0  0  0  0  0  0  0  0  0  0  0
  2  1  1  0
  3  2  1  0
  3  4  1  6
  5  6  2  0
  5  3  1  0
  7  5  1  0
  8  7  1  0
  8  9  1  1
 10 18  1  0
 10  9  1  0
 11 10  2  0
 12 11  1  0
 12 13  1  0
 13 18  2  0
 14 13  1  0
 14 15  2  0
 15 16  1  0
 16 17  2  0
 18 17  1  0
 19 21  1  0
 19  8  1  0
 20 19  2  0
 22 21  1  0
 22 33  1  0
 22 23  1  1
 24 32  1  0
 24 23  1  0
 25 24  2  0
 26 25  1  0
 26 27  1  0
 27 32  2  0
 28 27  1  0
 28 29  2  0
 29 30  1  0
 30 31  2  0
 32 31  1  0
 33 35  1  0
 34 33  2  0
M  END
$$$$
