SWW.pdb
     RDKit          3D

 35 38  0  0  1  0  0  0  0  0999 V2000
    6.7283  -16.4268   17.7401 O   0  0  0  0  0  0  0  0  0  0  0  0
    7.7244  -15.8340   18.4819 C   0  0  0  0  0  0  0  0  0  0  0  0
    8.5641  -16.8502   19.2278 C   0  0  2  0  0  0  0  0  0  0  0  0
    7.8993  -18.1040   19.3922 N   0  0  0  0  0  0  0  0  0  0  0  0
    9.0276  -16.3126   20.5345 C   0  0  0  0  0  0  0  0  0  0  0  0
    9.6317  -15.1975   20.5834 O   0  0  0  0  0  0  0  0  0  0  0  0
    8.8113  -17.0194   21.7429 N   0  0  0  0  0  0  0  0  0  0  0  0
    9.1926  -16.4971   23.0145 C   0  0  1  0  0  0  0  0  0  0  0  0
    8.3032  -17.0678   24.1039 C   0  0  0  0  0  0  0  0  0  0  0  0
    7.2484  -16.1476   24.5273 C   0  0  0  0  0  0  0  0  0  0  0  0
    5.9185  -16.5167   24.7300 C   0  0  0  0  0  0  0  0  0  0  0  0
    5.2548  -15.4244   25.1082 N   0  0  0  0  0  0  0  0  0  0  0  0
    6.0690  -14.3666   25.1645 C   0  0  0  0  0  0  0  0  0  0  0  0
    5.8774  -13.0309   25.4961 C   0  0  0  0  0  0  0  0  0  0  0  0
    6.9503  -12.1616   25.4577 C   0  0  0  0  0  0  0  0  0  0  0  0
    8.2178  -12.5876   25.0958 C   0  0  0  0  0  0  0  0  0  0  0  0
    8.3868  -13.9093   24.7721 C   0  0  0  0  0  0  0  0  0  0  0  0
    7.3258  -14.8023   24.8028 C   0  0  0  0  0  0  0  0  0  0  0  0
   10.5875  -16.8731   23.3893 C   0  0  0  0  0  0  0  0  0  0  0  0
   11.1582  -17.7023   22.6418 O   0  0  0  0  0  0  0  0  0  0  0  0
   11.2505  -16.3462   24.5085 N   0  0  0  0  0  0  0  0  0  0  0  0
   12.6336  -16.6562   24.7837 C   0  0  1  0  0  0  0  0  0  0  0  0
   13.1119  -15.9516   26.0097 C   0  0  0  0  0  0  0  0  0  0  0  0
   12.3025  -16.2904   27.2108 C   0  0  0  0  0  0  0  0  0  0  0  0
   12.2422  -17.4964   27.8765 C   0  0  0  0  0  0  0  0  0  0  0  0
   11.3992  -17.3852   28.9021 N   0  0  0  0  0  0  0  0  0  0  0  0
   10.8763  -16.1336   28.9609 C   0  0  0  0  0  0  0  0  0  0  0  0
    9.9781  -15.5259   29.8150 C   0  0  0  0  0  0  0  0  0  0  0  0
    9.6338  -14.2065   29.6128 C   0  0  0  0  0  0  0  0  0  0  0  0
   10.2036  -13.5159   28.5460 C   0  0  0  0  0  0  0  0  0  0  0  0
   11.1038  -14.1369   27.6952 C   0  0  0  0  0  0  0  0  0  0  0  0
   11.4408  -15.4485   27.9035 C   0  0  0  0  0  0  0  0  0  0  0  0
   12.7570  -18.1413   24.8998 C   0  0  0  0  0  0  0  0  0  0  0  0
   13.8582  -18.7008   24.9098 O   0  0  0  0  0  0  0  0  0  0  0  0
   11.6266  -18.9550   25.0013 O   0  0  0  0  0  0  0  0  0  0  0  0
  2  1  1  0
  3  2  1  0
  3  4  1  1
  5  6  2  0
  5  3  1  0
  7  5  1  0
  8  7  1  0
  8  9  1  1
 10 18  1  0
 10  9  1  0
 11 10  2  0
 12 11  1  0
 12 13  1  0
 13 18  2  0
 14 13  1  0
 14 15  2  0
 15 16  1  0
 16 17  2  0
 18 17  1  0
 19 21  1  0
 19  8  1  0
 20 19  2  0
 22 21  1  0
 22 33  1  0
 22 23  1  1
 24 32  1  0
 24 23  1  0
 25 24  2  0
 26 25  1  0
 26 27  1  0
 27 32  2  0
 28 27  1  0
 28 29  2  0
 29 30  1  0
 30 31  2  0
 32 31  1  0
 33 35  1  0
 34 33  2  0
M  END
$$$$
