SWW.pdb
     RDKit          3D

 35 38  0  0  1  0  0  0  0  0999 V2000
   14.4186  -19.2645   20.5321 O   0  0  0  0  0  0  0  0  0  0  0  0
   13.3447  -19.7170   19.8000 C   0  0  0  0  0  0  0  0  0  0  0  0
   12.7136  -18.6177   18.9708 C   0  0  2  0  0  0  0  0  0  0  0  0
   13.6554  -17.9479   18.1309 N   0  0  0  0  0  0  0  0  0  0  0  0
   11.9754  -17.6518   19.8270 C   0  0  0  0  0  0  0  0  0  0  0  0
   12.4830  -16.5182   20.0876 O   0  0  0  0  0  0  0  0  0  0  0  0
   10.7041  -17.9652   20.3676 N   0  0  0  0  0  0  0  0  0  0  0  0
    9.9674  -17.0477   21.1742 C   0  0  1  0  0  0  0  0  0  0  0  0
    8.4875  -17.3813   21.1297 C   0  0  0  0  0  0  0  0  0  0  0  0
    7.6338  -16.2717   21.5523 C   0  0  0  0  0  0  0  0  0  0  0  0
    6.5850  -16.3904   22.4642 C   0  0  0  0  0  0  0  0  0  0  0  0
    6.0389  -15.1824   22.6033 N   0  0  0  0  0  0  0  0  0  0  0  0
    6.6663  -14.2840   21.8388 C   0  0  0  0  0  0  0  0  0  0  0  0
    6.4910  -12.9220   21.6271 C   0  0  0  0  0  0  0  0  0  0  0  0
    7.3276  -12.2583   20.7508 C   0  0  0  0  0  0  0  0  0  0  0  0
    8.3411  -12.9173   20.0742 C   0  0  0  0  0  0  0  0  0  0  0  0
    8.4981  -14.2612   20.2964 C   0  0  0  0  0  0  0  0  0  0  0  0
    7.6714  -14.9505   21.1713 C   0  0  0  0  0  0  0  0  0  0  0  0
   10.3568  -17.1153   22.6134 C   0  0  0  0  0  0  0  0  0  0  0  0
   10.9472  -18.1589   22.9798 O   0  0  0  0  0  0  0  0  0  0  0  0
   10.0915  -16.0859   23.5299 N   0  0  0  0  0  0  0  0  0  0  0  0
   10.6735  -16.0810   24.8513 C   0  0  1  0  0  0  0  0  0  0  0  0
   10.2621  -14.8683   25.6186 C   0  0  0  0  0  0  0  0  0  0  0  0
    8.7999  -14.8376   25.8894 C   0  0  0  0  0  0  0  0  0  0  0  0
    7.9477  -15.9093   26.0519 C   0  0  0  0  0  0  0  0  0  0  0  0
    6.7161  -15.4550   26.2789 N   0  0  0  0  0  0  0  0  0  0  0  0
    6.6966  -14.0974   26.2770 C   0  0  0  0  0  0  0  0  0  0  0  0
    5.6923  -13.1684   26.4600 C   0  0  0  0  0  0  0  0  0  0  0  0
    5.9906  -11.8239   26.3997 C   0  0  0  0  0  0  0  0  0  0  0  0
    7.3050  -11.4345   26.1541 C   0  0  0  0  0  0  0  0  0  0  0  0
    8.3046  -12.3764   25.9717 C   0  0  0  0  0  0  0  0  0  0  0  0
    7.9994  -13.7107   26.0336 C   0  0  0  0  0  0  0  0  0  0  0  0
   10.2705  -17.3475   25.5353 C   0  0  0  0  0  0  0  0  0  0  0  0
   10.6972  -17.6420   26.6565 O   0  0  0  0  0  0  0  0  0  0  0  0
    9.3928  -18.2489   24.9291 O   0  0  0  0  0  0  0  0  0  0  0  0
  2  1  1  0
  3  2  1  0
  3  4  1  1
  5  6  2  0
  5  3  1  0
  7  5  1  0
  8  7  1  0
  8  9  1  1
 10 18  1  0
 10  9  1  0
 11 10  2  0
 12 11  1  0
 12 13  1  0
 13 18  2  0
 14 13  1  0
 14 15  2  0
 15 16  1  0
 16 17  2  0
 18 17  1  0
 19 21  1  0
 19  8  1  0
 20 19  2  0
 22 21  1  0
 22 33  1  0
 22 23  1  1
 24 32  1  0
 24 23  1  0
 25 24  2  0
 26 25  1  0
 26 27  1  0
 27 32  2  0
 28 27  1  0
 28 29  2  0
 29 30  1  0
 30 31  2  0
 32 31  1  0
 33 35  1  0
 34 33  2  0
M  END
$$$$
