SWW.pdb
     RDKit          3D

 35 38  0  0  1  0  0  0  0  0999 V2000
   10.8368  -18.9797   18.4800 O   0  0  0  0  0  0  0  0  0  0  0  0
    9.4746  -19.0463   18.2961 C   0  0  0  0  0  0  0  0  0  0  0  0
    8.8428  -17.6733   18.1966 C   0  0  2  0  0  0  0  0  0  0  0  0
    9.3830  -16.8914   17.1299 N   0  0  0  0  0  0  0  0  0  0  0  0
    8.9252  -16.9460   19.4909 C   0  0  0  0  0  0  0  0  0  0  0  0
    9.7093  -15.9555   19.6133 O   0  0  0  0  0  0  0  0  0  0  0  0
    8.1427  -17.3324   20.6068 N   0  0  0  0  0  0  0  0  0  0  0  0
    8.2033  -16.6499   21.8580 C   0  0  1  0  0  0  0  0  0  0  0  0
    7.1305  -17.1750   22.7944 C   0  0  0  0  0  0  0  0  0  0  0  0
    6.8033  -16.2451   23.8746 C   0  0  0  0  0  0  0  0  0  0  0  0
    6.2363  -16.6230   25.0918 C   0  0  0  0  0  0  0  0  0  0  0  0
    6.0828  -15.5174   25.8204 N   0  0  0  0  0  0  0  0  0  0  0  0
    6.5141  -14.4428   25.1541 C   0  0  0  0  0  0  0  0  0  0  0  0
    6.5741  -13.0891   25.4619 C   0  0  0  0  0  0  0  0  0  0  0  0
    7.0904  -12.2047   24.5348 C   0  0  0  0  0  0  0  0  0  0  0  0
    7.5520  -12.6330   23.3008 C   0  0  0  0  0  0  0  0  0  0  0  0
    7.4845  -13.9726   23.0158 C   0  0  0  0  0  0  0  0  0  0  0  0
    6.9705  -14.8809   23.9294 C   0  0  0  0  0  0  0  0  0  0  0  0
    9.5008  -16.8675   22.5628 C   0  0  0  0  0  0  0  0  0  0  0  0
   10.1622  -17.8723   22.2094 O   0  0  0  0  0  0  0  0  0  0  0  0
    9.9811  -16.0141   23.5683 N   0  0  0  0  0  0  0  0  0  0  0  0
   11.3261  -16.1306   24.0806 C   0  0  1  0  0  0  0  0  0  0  0  0
   11.5545  -15.1910   25.2179 C   0  0  0  0  0  0  0  0  0  0  0  0
   11.0624  -15.7360   26.5114 C   0  0  0  0  0  0  0  0  0  0  0  0
   11.2527  -17.0026   27.0219 C   0  0  0  0  0  0  0  0  0  0  0  0
   10.6511  -17.0885   28.2075 N   0  0  0  0  0  0  0  0  0  0  0  0
   10.0505  -15.9137   28.5280 C   0  0  0  0  0  0  0  0  0  0  0  0
    9.3156  -15.4971   29.6196 C   0  0  0  0  0  0  0  0  0  0  0  0
    8.8252  -14.2094   29.6576 C   0  0  0  0  0  0  0  0  0  0  0  0
    9.0846  -13.3563   28.5879 C   0  0  0  0  0  0  0  0  0  0  0  0
    9.8234  -13.7860   27.4972 C   0  0  0  0  0  0  0  0  0  0  0  0
   10.3074  -15.0675   27.4677 C   0  0  0  0  0  0  0  0  0  0  0  0
   11.5469  -17.5564   24.4710 C   0  0  0  0  0  0  0  0  0  0  0  0
   12.6627  -17.9726   24.7992 O   0  0  0  0  0  0  0  0  0  0  0  0
   10.4951  -18.4751   24.4789 O   0  0  0  0  0  0  0  0  0  0  0  0
  2  1  1  0
  3  2  1  0
  3  4  1  6
  5  6  2  0
  5  3  1  0
  7  5  1  0
  8  7  1  0
  8  9  1  1
 10 18  1  0
 10  9  1  0
 11 10  2  0
 12 11  1  0
 12 13  1  0
 13 18  2  0
 14 13  1  0
 14 15  2  0
 15 16  1  0
 16 17  2  0
 18 17  1  0
 19 21  1  0
 19  8  1  0
 20 19  2  0
 22 21  1  0
 22 33  1  0
 22 23  1  1
 24 32  1  0
 24 23  1  0
 25 24  2  0
 26 25  1  0
 26 27  1  0
 27 32  2  0
 28 27  1  0
 28 29  2  0
 29 30  1  0
 30 31  2  0
 32 31  1  0
 33 35  1  0
 34 33  2  0
M  END
$$$$
