SWW.pdb
     RDKit          3D

 35 38  0  0  1  0  0  0  0  0999 V2000
    9.8332  -20.2678   22.4509 O   0  0  0  0  0  0  0  0  0  0  0  0
    9.0401  -20.2061   21.3280 C   0  0  0  0  0  0  0  0  0  0  0  0
    9.4177  -19.0512   20.4236 C   0  0  2  0  0  0  0  0  0  0  0  0
   10.5527  -19.3376   19.6045 N   0  0  0  0  0  0  0  0  0  0  0  0
    9.6185  -17.7998   21.2014 C   0  0  0  0  0  0  0  0  0  0  0  0
   10.7909  -17.3522   21.3914 O   0  0  0  0  0  0  0  0  0  0  0  0
    8.5236  -17.0832   21.7438 N   0  0  0  0  0  0  0  0  0  0  0  0
    8.6905  -15.8783   22.4893 C   0  0  1  0  0  0  0  0  0  0  0  0
    7.5217  -14.9423   22.2418 C   0  0  0  0  0  0  0  0  0  0  0  0
    7.3827  -14.5528   20.8391 C   0  0  0  0  0  0  0  0  0  0  0  0
    6.4167  -15.0656   19.9733 C   0  0  0  0  0  0  0  0  0  0  0  0
    6.5942  -14.4830   18.7877 N   0  0  0  0  0  0  0  0  0  0  0  0
    7.6157  -13.6226   18.8267 C   0  0  0  0  0  0  0  0  0  0  0  0
    8.1937  -12.7834   17.8821 C   0  0  0  0  0  0  0  0  0  0  0  0
    9.2677  -11.9932   18.2432 C   0  0  0  0  0  0  0  0  0  0  0  0
    9.7865  -12.0154   19.5276 C   0  0  0  0  0  0  0  0  0  0  0  0
    9.2025  -12.8500   20.4454 C   0  0  0  0  0  0  0  0  0  0  0  0
    8.1231  -13.6532   20.1080 C   0  0  0  0  0  0  0  0  0  0  0  0
    8.7145  -16.1190   23.9620 C   0  0  0  0  0  0  0  0  0  0  0  0
    7.6849  -15.7860   24.5953 O   0  0  0  0  0  0  0  0  0  0  0  0
    9.8118  -16.6843   24.6300 N   0  0  0  0  0  0  0  0  0  0  0  0
   10.2949  -16.1474   25.8803 C   0  0  1  0  0  0  0  0  0  0  0  0
    9.2364  -16.1905   26.9320 C   0  0  0  0  0  0  0  0  0  0  0  0
    8.0423  -15.3815   26.5685 C   0  0  0  0  0  0  0  0  0  0  0  0
    6.7894  -15.8358   26.2152 C   0  0  0  0  0  0  0  0  0  0  0  0
    6.0024  -14.7903   25.9652 N   0  0  0  0  0  0  0  0  0  0  0  0
    6.6802  -13.6265   26.1367 C   0  0  0  0  0  0  0  0  0  0  0  0
    6.3240  -12.2994   26.0056 C   0  0  0  0  0  0  0  0  0  0  0  0
    7.2579  -11.3169   26.2557 C   0  0  0  0  0  0  0  0  0  0  0  0
    8.5447  -11.6897   26.6363 C   0  0  0  0  0  0  0  0  0  0  0  0
    8.8906  -13.0253   26.7642 C   0  0  0  0  0  0  0  0  0  0  0  0
    7.9560  -13.9955   26.5141 C   0  0  0  0  0  0  0  0  0  0  0  0
   11.5134  -16.9196   26.2714 C   0  0  0  0  0  0  0  0  0  0  0  0
   12.0661  -16.7483   27.3629 O   0  0  0  0  0  0  0  0  0  0  0  0
   12.0751  -17.8675   25.4133 O   0  0  0  0  0  0  0  0  0  0  0  0
  2  1  1  0
  3  2  1  0
  3  4  1  1
  5  6  2  0
  5  3  1  0
  7  5  1  0
  8  7  1  0
  8  9  1  1
 10 18  1  0
 10  9  1  0
 11 10  2  0
 12 11  1  0
 12 13  1  0
 13 18  2  0
 14 13  1  0
 14 15  2  0
 15 16  1  0
 16 17  2  0
 18 17  1  0
 19 21  1  0
 19  8  1  0
 20 19  2  0
 22 21  1  0
 22 33  1  0
 22 23  1  1
 24 32  1  0
 24 23  1  0
 25 24  2  0
 26 25  1  0
 26 27  1  0
 27 32  2  0
 28 27  1  0
 28 29  2  0
 29 30  1  0
 30 31  2  0
 32 31  1  0
 33 35  1  0
 34 33  2  0
M  END
$$$$
