QIQ.pdb
     RDKit          3D

 27 26  0  0  1  0  0  0  0  0999 V2000
    6.5632  -17.2975   17.6759 N   0  0  0  0  0  0  0  0  0  0  0  0
    7.1963  -17.5715   18.9092 C   0  0  0  0  0  0  0  0  0  0  0  0
    8.4242  -17.8066   18.9191 O   0  0  0  0  0  0  0  0  0  0  0  0
    6.4507  -17.5881   20.1829 C   0  0  0  0  0  0  0  0  0  0  0  0
    7.3120  -17.0879   21.3088 C   0  0  0  0  0  0  0  0  0  0  0  0
    7.1942  -15.5857   21.4662 C   0  0  2  0  0  0  0  0  0  0  0  0
    7.9916  -14.9750   20.4138 N   0  0  0  0  0  0  0  0  0  0  0  0
    7.7909  -15.1475   22.7558 C   0  0  0  0  0  0  0  0  0  0  0  0
    9.0622  -15.0824   22.7902 O   0  0  0  0  0  0  0  0  0  0  0  0
    5.7631  -11.2605   25.6872 C   0  0  0  0  0  0  0  0  0  0  0  0
    6.7627  -12.1999   25.0332 C   0  0  0  0  0  0  0  0  0  0  0  0
    6.9704  -13.4409   25.8291 C   0  0  2  0  0  0  0  0  0  0  0  0
    7.6033  -13.1845   27.1761 C   0  0  0  0  0  0  0  0  0  0  0  0
    7.7778  -14.5186   25.1571 C   0  0  2  0  0  0  0  0  0  0  0  0
    7.0473  -14.8119   23.9028 N   0  0  0  0  0  0  0  0  0  0  0  0
    7.8114  -15.7196   25.9972 C   0  0  0  0  0  0  0  0  0  0  0  0
    6.7985  -16.4259   26.2014 O   0  0  0  0  0  0  0  0  0  0  0  0
    8.2414  -20.3663   24.0837 N   0  0  0  0  0  0  0  0  0  0  0  0
    9.5261  -19.7665   24.1033 C   0  0  0  0  0  0  0  0  0  0  0  0
   10.3362  -20.0085   23.1688 O   0  0  0  0  0  0  0  0  0  0  0  0
    9.9018  -18.8737   25.1917 C   0  0  0  0  0  0  0  0  0  0  0  0
    8.8447  -18.4261   26.1132 C   0  0  0  0  0  0  0  0  0  0  0  0
    9.1817  -17.4897   27.2102 C   0  0  2  0  0  0  0  0  0  0  0  0
    9.0153  -16.1394   26.6250 N   0  0  0  0  0  0  0  0  0  0  0  0
   10.4450  -17.6081   27.8961 C   0  0  0  0  0  0  0  0  0  0  0  0
   10.6849  -18.6129   28.6309 O   0  0  0  0  0  0  0  0  0  0  0  0
   11.4539  -16.6648   27.7967 O   0  0  0  0  0  0  0  0  0  0  0  0
  2  1  1  0
  3  2  2  0
  4  2  1  0
  5  4  1  0
  6  7  1  6
  6  5  1  0
  8  6  1  0
  9  8  2  0
 10 11  1  0
 11 12  1  0
 12 14  1  0
 12 13  1  1
 14 15  1  6
 15  8  1  0
 16 14  1  0
 16 17  2  0
 18 19  1  0
 19 21  1  0
 20 19  2  0
 21 22  1  0
 23 22  1  6
 23 24  1  0
 24 16  1  0
 25 23  1  0
 26 25  2  0
 27 25  1  0
M  END
$$$$
