QIQ.pdb
     RDKit          3D

 27 26  0  0  1  0  0  0  0  0999 V2000
    7.8835  -17.3496   15.0830 N   0  0  0  0  0  0  0  0  0  0  0  0
    8.7760  -18.4321   14.9134 C   0  0  0  0  0  0  0  0  0  0  0  0
    8.3167  -19.5944   14.8794 O   0  0  0  0  0  0  0  0  0  0  0  0
   10.2316  -18.2296   14.7756 C   0  0  0  0  0  0  0  0  0  0  0  0
   10.7958  -17.5781   16.0071 C   0  0  0  0  0  0  0  0  0  0  0  0
   10.7207  -16.0678   15.9142 C   0  0  2  0  0  0  0  0  0  0  0  0
   11.9224  -15.6145   15.2310 N   0  0  0  0  0  0  0  0  0  0  0  0
   10.7516  -15.4590   17.2706 C   0  0  0  0  0  0  0  0  0  0  0  0
   11.9029  -15.3288   17.7990 O   0  0  0  0  0  0  0  0  0  0  0  0
    6.7009  -12.1405   19.0209 C   0  0  0  0  0  0  0  0  0  0  0  0
    8.1120  -12.6379   18.7544 C   0  0  0  0  0  0  0  0  0  0  0  0
    8.4799  -13.7807   19.6349 C   0  0  2  0  0  0  0  0  0  0  0  0
    8.4989  -13.4197   21.1011 C   0  0  0  0  0  0  0  0  0  0  0  0
    9.7937  -14.4460   19.3244 C   0  0  2  0  0  0  0  0  0  0  0  0
    9.6112  -15.0333   17.9773 N   0  0  0  0  0  0  0  0  0  0  0  0
   10.0580  -15.5140   20.2932 C   0  0  0  0  0  0  0  0  0  0  0  0
    9.4040  -16.5810   20.3129 O   0  0  0  0  0  0  0  0  0  0  0  0
   15.7867  -16.9371   21.8130 N   0  0  0  0  0  0  0  0  0  0  0  0
   15.2703  -15.7496   22.3907 C   0  0  0  0  0  0  0  0  0  0  0  0
   16.0654  -14.8422   22.7546 O   0  0  0  0  0  0  0  0  0  0  0  0
   13.8327  -15.5796   22.5555 C   0  0  0  0  0  0  0  0  0  0  0  0
   12.9469  -16.6138   21.9962 C   0  0  0  0  0  0  0  0  0  0  0  0
   11.4809  -16.4885   22.1663 C   0  0  2  0  0  0  0  0  0  0  0  0
   11.0849  -15.3806   21.2666 N   0  0  0  0  0  0  0  0  0  0  0  0
   10.9205  -16.3151   23.4839 C   0  0  0  0  0  0  0  0  0  0  0  0
   10.3120  -15.2452   23.7872 O   0  0  0  0  0  0  0  0  0  0  0  0
   11.0003  -17.2786   24.4754 O   0  0  0  0  0  0  0  0  0  0  0  0
  2  1  1  0
  3  2  2  0
  4  2  1  0
  5  4  1  0
  6  7  1  6
  6  5  1  0
  8  6  1  0
  9  8  2  0
 10 11  1  0
 11 12  1  0
 12 14  1  0
 12 13  1  1
 14 15  1  6
 15  8  1  0
 16 14  1  0
 16 17  2  0
 18 19  1  0
 19 21  1  0
 20 19  2  0
 21 22  1  0
 23 22  1  1
 23 24  1  0
 24 16  1  0
 25 23  1  0
 26 25  2  0
 27 25  1  0
M  END
$$$$
