QIQ.pdb
     RDKit          3D

 27 26  0  0  1  0  0  0  0  0999 V2000
    7.9251  -19.1560   21.3234 N   0  0  0  0  0  0  0  0  0  0  0  0
    8.0073  -18.2097   20.2771 C   0  0  0  0  0  0  0  0  0  0  0  0
    8.0244  -18.6159   19.0948 O   0  0  0  0  0  0  0  0  0  0  0  0
    8.0732  -16.7587   20.5400 C   0  0  0  0  0  0  0  0  0  0  0  0
    6.7411  -16.2430   21.0080 C   0  0  0  0  0  0  0  0  0  0  0  0
    6.7718  -14.7416   21.2083 C   0  0  2  0  0  0  0  0  0  0  0  0
    7.5268  -14.1715   20.1032 N   0  0  0  0  0  0  0  0  0  0  0  0
    7.5141  -14.3955   22.4494 C   0  0  0  0  0  0  0  0  0  0  0  0
    8.7619  -14.1810   22.3132 O   0  0  0  0  0  0  0  0  0  0  0  0
    5.1162  -11.6777   26.4843 C   0  0  0  0  0  0  0  0  0  0  0  0
    6.2027  -12.0871   25.5038 C   0  0  0  0  0  0  0  0  0  0  0  0
    6.8629  -13.3621   25.8977 C   0  0  2  0  0  0  0  0  0  0  0  0
    7.6301  -13.2587   27.1943 C   0  0  0  0  0  0  0  0  0  0  0  0
    7.7950  -13.9561   24.8763 C   0  0  2  0  0  0  0  0  0  0  0  0
    6.9278  -14.2960   23.7251 N   0  0  0  0  0  0  0  0  0  0  0  0
    8.4086  -15.1778   25.4056 C   0  0  0  0  0  0  0  0  0  0  0  0
    7.7455  -16.2096   25.6550 O   0  0  0  0  0  0  0  0  0  0  0  0
   14.3098  -16.1622   23.8912 N   0  0  0  0  0  0  0  0  0  0  0  0
   14.0621  -17.3216   24.6689 C   0  0  0  0  0  0  0  0  0  0  0  0
   14.9705  -18.1853   24.7987 O   0  0  0  0  0  0  0  0  0  0  0  0
   12.7702  -17.5077   25.3165 C   0  0  0  0  0  0  0  0  0  0  0  0
   11.7662  -16.4408   25.1729 C   0  0  0  0  0  0  0  0  0  0  0  0
   10.5058  -16.5162   25.9470 C   0  0  2  0  0  0  0  0  0  0  0  0
    9.8050  -15.2430   25.6617 N   0  0  0  0  0  0  0  0  0  0  0  0
   10.5451  -16.7830   27.3638 C   0  0  0  0  0  0  0  0  0  0  0  0
   10.3982  -15.8406   28.1989 O   0  0  0  0  0  0  0  0  0  0  0  0
   10.7334  -18.0488   27.8929 O   0  0  0  0  0  0  0  0  0  0  0  0
  2  1  1  0
  3  2  2  0
  4  2  1  0
  5  4  1  0
  6  7  1  6
  6  5  1  0
  8  6  1  0
  9  8  2  0
 10 11  1  0
 11 12  1  0
 12 14  1  0
 12 13  1  1
 14 15  1  6
 15  8  1  0
 16 14  1  0
 16 17  2  0
 18 19  1  0
 19 21  1  0
 20 19  2  0
 21 22  1  0
 23 22  1  1
 23 24  1  0
 24 16  1  0
 25 23  1  0
 26 25  2  0
 27 25  1  0
M  END
$$$$
