QIQ.pdb
     RDKit          3D

 27 26  0  0  1  0  0  0  0  0999 V2000
    8.4238  -18.6151   18.8640 N   0  0  0  0  0  0  0  0  0  0  0  0
    7.5180  -17.5669   18.5850 C   0  0  0  0  0  0  0  0  0  0  0  0
    7.5728  -17.0013   17.4714 O   0  0  0  0  0  0  0  0  0  0  0  0
    6.5116  -17.1221   19.5688 C   0  0  0  0  0  0  0  0  0  0  0  0
    7.1731  -16.6998   20.8509 C   0  0  0  0  0  0  0  0  0  0  0  0
    7.1692  -15.1923   21.0015 C   0  0  2  0  0  0  0  0  0  0  0  0
    7.8964  -14.6409   19.8686 N   0  0  0  0  0  0  0  0  0  0  0  0
    7.9178  -14.7875   22.2208 C   0  0  0  0  0  0  0  0  0  0  0  0
    9.1877  -14.7977   22.1264 O   0  0  0  0  0  0  0  0  0  0  0  0
    7.2683  -11.4950   27.3158 C   0  0  0  0  0  0  0  0  0  0  0  0
    8.1185  -12.5113   26.5717 C   0  0  0  0  0  0  0  0  0  0  0  0
    7.4216  -13.0569   25.3745 C   0  0  2  0  0  0  0  0  0  0  0  0
    6.0722  -13.6553   25.6931 C   0  0  0  0  0  0  0  0  0  0  0  0
    8.1881  -14.0845   24.5861 C   0  0  2  0  0  0  0  0  0  0  0  0
    7.3150  -14.4061   23.4342 N   0  0  0  0  0  0  0  0  0  0  0  0
    8.3944  -15.2888   25.3963 C   0  0  0  0  0  0  0  0  0  0  0  0
    7.4633  -16.0752   25.6810 O   0  0  0  0  0  0  0  0  0  0  0  0
   12.8214  -18.5976   23.5260 N   0  0  0  0  0  0  0  0  0  0  0  0
   12.5867  -19.3114   24.7285 C   0  0  0  0  0  0  0  0  0  0  0  0
   13.2425  -20.3617   24.9626 O   0  0  0  0  0  0  0  0  0  0  0  0
   11.6001  -18.8296   25.6863 C   0  0  0  0  0  0  0  0  0  0  0  0
   10.9510  -17.5361   25.4168 C   0  0  0  0  0  0  0  0  0  0  0  0
   10.0153  -16.9677   26.4144 C   0  0  2  0  0  0  0  0  0  0  0  0
    9.6813  -15.6193   25.9005 N   0  0  0  0  0  0  0  0  0  0  0  0
   10.3896  -16.9166   27.8063 C   0  0  0  0  0  0  0  0  0  0  0  0
   10.6801  -15.8103   28.3529 O   0  0  0  0  0  0  0  0  0  0  0  0
   10.4489  -18.0371   28.6179 O   0  0  0  0  0  0  0  0  0  0  0  0
  2  1  1  0
  3  2  2  0
  4  2  1  0
  5  4  1  0
  6  7  1  6
  6  5  1  0
  8  6  1  0
  9  8  2  0
 10 11  1  0
 11 12  1  0
 12 14  1  0
 12 13  1  1
 14 15  1  6
 15  8  1  0
 16 14  1  0
 16 17  2  0
 18 19  1  0
 19 21  1  0
 20 19  2  0
 21 22  1  0
 23 22  1  6
 23 24  1  0
 24 16  1  0
 25 23  1  0
 26 25  2  0
 27 25  1  0
M  END
$$$$
