QIQ.pdb
     RDKit          3D

 27 26  0  0  1  0  0  0  0  0999 V2000
    4.6543  -18.8463   22.2371 N   0  0  0  0  0  0  0  0  0  0  0  0
    4.6263  -18.3743   20.9054 C   0  0  0  0  0  0  0  0  0  0  0  0
    3.7938  -18.8604   20.1093 O   0  0  0  0  0  0  0  0  0  0  0  0
    5.5501  -17.3263   20.4290 C   0  0  0  0  0  0  0  0  0  0  0  0
    6.3848  -16.7992   21.5625 C   0  0  0  0  0  0  0  0  0  0  0  0
    6.4892  -15.2886   21.5129 C   0  0  2  0  0  0  0  0  0  0  0  0
    7.1273  -14.9386   20.2533 N   0  0  0  0  0  0  0  0  0  0  0  0
    7.3839  -14.7913   22.5916 C   0  0  0  0  0  0  0  0  0  0  0  0
    8.6339  -14.8698   22.3618 O   0  0  0  0  0  0  0  0  0  0  0  0
    5.9673  -11.0414   26.3350 C   0  0  0  0  0  0  0  0  0  0  0  0
    6.7977  -11.8291   25.3354 C   0  0  0  0  0  0  0  0  0  0  0  0
    7.2330  -13.1445   25.8804 C   0  0  2  0  0  0  0  0  0  0  0  0
    8.1369  -13.0199   27.0836 C   0  0  0  0  0  0  0  0  0  0  0  0
    7.9188  -14.0603   24.9027 C   0  0  2  0  0  0  0  0  0  0  0  0
    6.9350  -14.2559   23.8134 N   0  0  0  0  0  0  0  0  0  0  0  0
    8.2087  -15.3489   25.5388 C   0  0  0  0  0  0  0  0  0  0  0  0
    7.3157  -16.0642   26.0463 O   0  0  0  0  0  0  0  0  0  0  0  0
   12.3833  -18.8231   22.9059 N   0  0  0  0  0  0  0  0  0  0  0  0
   12.9949  -18.2108   24.0291 C   0  0  0  0  0  0  0  0  0  0  0  0
   14.2493  -18.0957   24.0645 O   0  0  0  0  0  0  0  0  0  0  0  0
   12.1779  -17.7142   25.1286 C   0  0  0  0  0  0  0  0  0  0  0  0
   10.7143  -17.7852   24.9877 C   0  0  0  0  0  0  0  0  0  0  0  0
    9.8508  -17.2255   26.0529 C   0  0  2  0  0  0  0  0  0  0  0  0
    9.5374  -15.8484   25.6070 N   0  0  0  0  0  0  0  0  0  0  0  0
   10.2973  -17.2400   27.4243 C   0  0  0  0  0  0  0  0  0  0  0  0
   10.5755  -16.1563   28.0204 O   0  0  0  0  0  0  0  0  0  0  0  0
   10.4418  -18.4022   28.1633 O   0  0  0  0  0  0  0  0  0  0  0  0
  2  1  1  0
  3  2  2  0
  4  2  1  0
  5  4  1  0
  6  7  1  6
  6  5  1  0
  8  6  1  0
  9  8  2  0
 10 11  1  0
 11 12  1  0
 12 14  1  0
 12 13  1  1
 14 15  1  6
 15  8  1  0
 16 14  1  0
 16 17  2  0
 18 19  1  0
 19 21  1  0
 20 19  2  0
 21 22  1  0
 23 22  1  6
 23 24  1  0
 24 16  1  0
 25 23  1  0
 26 25  2  0
 27 25  1  0
M  END
$$$$
