QIQ.pdb
     RDKit          3D

 27 26  0  0  1  0  0  0  0  0999 V2000
    7.5070  -18.7884   20.1418 N   0  0  0  0  0  0  0  0  0  0  0  0
    6.5648  -17.9863   19.4593 C   0  0  0  0  0  0  0  0  0  0  0  0
    5.9045  -18.4916   18.5257 O   0  0  0  0  0  0  0  0  0  0  0  0
    6.3387  -16.5721   19.8168 C   0  0  0  0  0  0  0  0  0  0  0  0
    7.1409  -16.1969   21.0314 C   0  0  0  0  0  0  0  0  0  0  0  0
    7.0041  -14.7214   21.3469 C   0  0  2  0  0  0  0  0  0  0  0  0
    7.6295  -13.9850   20.2592 N   0  0  0  0  0  0  0  0  0  0  0  0
    7.7624  -14.3785   22.5792 C   0  0  0  0  0  0  0  0  0  0  0  0
    9.0223  -14.2522   22.4435 O   0  0  0  0  0  0  0  0  0  0  0  0
    5.8312  -11.3498   26.6828 C   0  0  0  0  0  0  0  0  0  0  0  0
    6.7483  -11.9632   25.6379 C   0  0  0  0  0  0  0  0  0  0  0  0
    7.2361  -13.3110   26.0409 C   0  0  2  0  0  0  0  0  0  0  0  0
    8.0236  -13.2976   27.3293 C   0  0  0  0  0  0  0  0  0  0  0  0
    8.0699  -14.0350   25.0183 C   0  0  2  0  0  0  0  0  0  0  0  0
    7.1786  -14.1924   23.8463 N   0  0  0  0  0  0  0  0  0  0  0  0
    8.4517  -15.3565   25.5251 C   0  0  0  0  0  0  0  0  0  0  0  0
    7.6089  -16.1993   25.9074 O   0  0  0  0  0  0  0  0  0  0  0  0
   12.2475  -18.2276   21.5838 N   0  0  0  0  0  0  0  0  0  0  0  0
   12.4033  -17.8455   22.9403 C   0  0  0  0  0  0  0  0  0  0  0  0
   13.5589  -17.7977   23.4408 O   0  0  0  0  0  0  0  0  0  0  0  0
   11.2370  -17.5057   23.7448 C   0  0  0  0  0  0  0  0  0  0  0  0
   11.4049  -17.4277   25.2052 C   0  0  0  0  0  0  0  0  0  0  0  0
   10.2412  -17.0881   26.0561 C   0  0  2  0  0  0  0  0  0  0  0  0
    9.8171  -15.7427   25.6047 N   0  0  0  0  0  0  0  0  0  0  0  0
   10.3586  -17.1425   27.4926 C   0  0  0  0  0  0  0  0  0  0  0  0
   10.3724  -18.2585   28.0938 O   0  0  0  0  0  0  0  0  0  0  0  0
   10.4677  -16.0146   28.2885 O   0  0  0  0  0  0  0  0  0  0  0  0
  2  1  1  0
  3  2  2  0
  4  2  1  0
  5  4  1  0
  6  7  1  6
  6  5  1  0
  8  6  1  0
  9  8  2  0
 10 11  1  0
 11 12  1  0
 12 14  1  0
 12 13  1  1
 14 15  1  6
 15  8  1  0
 16 14  1  0
 16 17  2  0
 18 19  1  0
 19 21  1  0
 20 19  2  0
 21 22  1  0
 23 22  1  6
 23 24  1  0
 24 16  1  0
 25 23  1  0
 26 25  2  0
 27 25  1  0
M  END
$$$$
