QIQ.pdb
     RDKit          3D

 27 26  0  0  1  0  0  0  0  0999 V2000
    6.7887  -17.4115   18.7381 N   0  0  0  0  0  0  0  0  0  0  0  0
    7.2968  -16.3163   18.0038 C   0  0  0  0  0  0  0  0  0  0  0  0
    7.5348  -16.4638   16.7853 O   0  0  0  0  0  0  0  0  0  0  0  0
    7.5539  -15.0061   18.6332 C   0  0  0  0  0  0  0  0  0  0  0  0
    7.1974  -15.0395   20.0931 C   0  0  0  0  0  0  0  0  0  0  0  0
    7.3100  -13.6643   20.7187 C   0  0  2  0  0  0  0  0  0  0  0  0
    8.2643  -12.9039   19.9267 N   0  0  0  0  0  0  0  0  0  0  0  0
    7.8797  -13.7591   22.0890 C   0  0  0  0  0  0  0  0  0  0  0  0
    9.1507  -13.7588   22.1674 O   0  0  0  0  0  0  0  0  0  0  0  0
    5.9246  -11.1966   26.3234 C   0  0  0  0  0  0  0  0  0  0  0  0
    6.8590  -11.8571   25.3233 C   0  0  0  0  0  0  0  0  0  0  0  0
    7.0013  -13.3187   25.5687 C   0  0  2  0  0  0  0  0  0  0  0  0
    7.5802  -13.6402   26.9260 C   0  0  0  0  0  0  0  0  0  0  0  0
    7.8113  -14.0747   24.5502 C   0  0  2  0  0  0  0  0  0  0  0  0
    7.1116  -13.8461   23.2652 N   0  0  0  0  0  0  0  0  0  0  0  0
    7.8043  -15.5066   24.8643 C   0  0  0  0  0  0  0  0  0  0  0  0
    6.9739  -16.3001   24.3670 O   0  0  0  0  0  0  0  0  0  0  0  0
   11.3443  -16.2077   21.5374 N   0  0  0  0  0  0  0  0  0  0  0  0
   10.7195  -17.4704   21.6977 C   0  0  0  0  0  0  0  0  0  0  0  0
   10.7032  -18.2797   20.7318 O   0  0  0  0  0  0  0  0  0  0  0  0
   10.1079  -17.8294   22.9705 C   0  0  0  0  0  0  0  0  0  0  0  0
   10.1831  -16.8550   24.0714 C   0  0  0  0  0  0  0  0  0  0  0  0
    9.6231  -17.2070   25.3966 C   0  0  2  0  0  0  0  0  0  0  0  0
    8.7559  -16.0631   25.7613 N   0  0  0  0  0  0  0  0  0  0  0  0
   10.5059  -17.5582   26.4818 C   0  0  0  0  0  0  0  0  0  0  0  0
   11.0738  -18.6913   26.5064 O   0  0  0  0  0  0  0  0  0  0  0  0
   10.7904  -16.7054   27.5351 O   0  0  0  0  0  0  0  0  0  0  0  0
  2  1  1  0
  3  2  2  0
  4  2  1  0
  5  4  1  0
  6  7  1  6
  6  5  1  0
  8  6  1  0
  9  8  2  0
 10 11  1  0
 11 12  1  0
 12 14  1  0
 12 13  1  1
 14 15  1  6
 15  8  1  0
 16 14  1  0
 16 17  2  0
 18 19  1  0
 19 21  1  0
 20 19  2  0
 21 22  1  0
 23 22  1  6
 23 24  1  0
 24 16  1  0
 25 23  1  0
 26 25  2  0
 27 25  1  0
M  END
$$$$
