QIQ.pdb
     RDKit          3D

 27 26  0  0  1  0  0  0  0  0999 V2000
    8.4117  -19.3455   18.7667 N   0  0  0  0  0  0  0  0  0  0  0  0
    7.9790  -18.9494   20.0524 C   0  0  0  0  0  0  0  0  0  0  0  0
    8.0959  -19.7525   21.0034 O   0  0  0  0  0  0  0  0  0  0  0  0
    7.3945  -17.6175   20.3035 C   0  0  0  0  0  0  0  0  0  0  0  0
    8.1596  -16.8959   21.3774 C   0  0  0  0  0  0  0  0  0  0  0  0
    7.4595  -15.6162   21.7866 C   0  0  2  0  0  0  0  0  0  0  0  0
    7.5755  -14.6836   20.6762 N   0  0  0  0  0  0  0  0  0  0  0  0
    8.1548  -14.9867   22.9406 C   0  0  0  0  0  0  0  0  0  0  0  0
    9.2912  -14.4679   22.6934 O   0  0  0  0  0  0  0  0  0  0  0  0
    5.4788  -12.0570   26.3750 C   0  0  0  0  0  0  0  0  0  0  0  0
    6.6191  -12.5443   25.4967 C   0  0  0  0  0  0  0  0  0  0  0  0
    7.4490  -13.5771   26.1760 C   0  0  2  0  0  0  0  0  0  0  0  0
    8.2000  -13.0439   27.3727 C   0  0  0  0  0  0  0  0  0  0  0  0
    8.4495  -14.2864   25.3037 C   0  0  2  0  0  0  0  0  0  0  0  0
    7.6384  -14.9362   24.2489 N   0  0  0  0  0  0  0  0  0  0  0  0
    9.1564  -15.3102   26.0792 C   0  0  0  0  0  0  0  0  0  0  0  0
    8.5560  -16.1690   26.7637 O   0  0  0  0  0  0  0  0  0  0  0  0
   15.2357  -16.4336   24.9505 N   0  0  0  0  0  0  0  0  0  0  0  0
   14.0889  -16.6528   24.1459 C   0  0  0  0  0  0  0  0  0  0  0  0
   14.2285  -16.8407   22.9077 O   0  0  0  0  0  0  0  0  0  0  0  0
   12.7624  -16.6664   24.7485 C   0  0  0  0  0  0  0  0  0  0  0  0
   12.6618  -16.4473   26.2007 C   0  0  0  0  0  0  0  0  0  0  0  0
   11.3270  -16.4016   26.8408 C   0  0  2  0  0  0  0  0  0  0  0  0
   10.5762  -15.3716   26.0864 N   0  0  0  0  0  0  0  0  0  0  0  0
   11.2167  -16.1891   28.2632 C   0  0  0  0  0  0  0  0  0  0  0  0
   11.3412  -17.1599   29.0689 O   0  0  0  0  0  0  0  0  0  0  0  0
   10.9815  -14.9474   28.8291 O   0  0  0  0  0  0  0  0  0  0  0  0
  2  1  1  0
  3  2  2  0
  4  2  1  0
  5  4  1  0
  6  7  1  6
  6  5  1  0
  8  6  1  0
  9  8  2  0
 10 11  1  0
 11 12  1  0
 12 14  1  0
 12 13  1  1
 14 15  1  6
 15  8  1  0
 16 14  1  0
 16 17  2  0
 18 19  1  0
 19 21  1  0
 20 19  2  0
 21 22  1  0
 23 22  1  6
 23 24  1  0
 24 16  1  0
 25 23  1  0
 26 25  2  0
 27 25  1  0
M  END
$$$$
