QIQ.pdb
     RDKit          3D

 27 26  0  0  1  0  0  0  0  0999 V2000
    7.1686  -14.6392   19.0232 N   0  0  0  0  0  0  0  0  0  0  0  0
    7.7431  -15.8915   18.7089 C   0  0  0  0  0  0  0  0  0  0  0  0
    7.3826  -16.4767   17.6645 O   0  0  0  0  0  0  0  0  0  0  0  0
    8.7543  -16.5265   19.5766 C   0  0  0  0  0  0  0  0  0  0  0  0
    8.9869  -15.7020   20.8118 C   0  0  0  0  0  0  0  0  0  0  0  0
    8.3212  -16.3243   22.0222 C   0  0  2  0  0  0  0  0  0  0  0  0
    6.8964  -16.0471   21.9246 N   0  0  0  0  0  0  0  0  0  0  0  0
    8.7935  -15.6706   23.2715 C   0  0  0  0  0  0  0  0  0  0  0  0
   10.0560  -15.5897   23.4175 O   0  0  0  0  0  0  0  0  0  0  0  0
    5.7628  -12.0241   25.8543 C   0  0  0  0  0  0  0  0  0  0  0  0
    7.0447  -12.6441   25.3234 C   0  0  0  0  0  0  0  0  0  0  0  0
    7.4968  -13.7951   26.1525 C   0  0  2  0  0  0  0  0  0  0  0  0
    8.0054  -13.3841   27.5137 C   0  0  0  0  0  0  0  0  0  0  0  0
    8.5503  -14.6720   25.5310 C   0  0  2  0  0  0  0  0  0  0  0  0
    7.9449  -15.1536   24.2683 N   0  0  0  0  0  0  0  0  0  0  0  0
    8.8343  -15.8138   26.4055 C   0  0  0  0  0  0  0  0  0  0  0  0
    7.9404  -16.5932   26.8053 O   0  0  0  0  0  0  0  0  0  0  0  0
   12.1072  -20.9429   25.5298 N   0  0  0  0  0  0  0  0  0  0  0  0
   12.7274  -20.1887   26.5580 C   0  0  0  0  0  0  0  0  0  0  0  0
   13.9770  -20.2555   26.7065 O   0  0  0  0  0  0  0  0  0  0  0  0
   11.9258  -19.3400   27.4298 C   0  0  0  0  0  0  0  0  0  0  0  0
   11.3225  -18.1291   26.8496 C   0  0  0  0  0  0  0  0  0  0  0  0
   10.4910  -17.2482   27.7018 C   0  0  2  0  0  0  0  0  0  0  0  0
   10.1583  -16.0883   26.8430 N   0  0  0  0  0  0  0  0  0  0  0  0
   10.9808  -16.8197   28.9890 C   0  0  0  0  0  0  0  0  0  0  0  0
   11.4270  -15.6437   29.1472 O   0  0  0  0  0  0  0  0  0  0  0  0
   10.9904  -17.6360   30.1076 O   0  0  0  0  0  0  0  0  0  0  0  0
  2  1  1  0
  3  2  2  0
  4  2  1  0
  5  4  1  0
  6  7  1  6
  6  5  1  0
  8  6  1  0
  9  8  2  0
 10 11  1  0
 11 12  1  0
 12 14  1  0
 12 13  1  1
 14 15  1  6
 15  8  1  0
 16 14  1  0
 16 17  2  0
 18 19  1  0
 19 21  1  0
 20 19  2  0
 21 22  1  0
 23 22  1  6
 23 24  1  0
 24 16  1  0
 25 23  1  0
 26 25  2  0
 27 25  1  0
M  END
$$$$
