QIQ.pdb
     RDKit          3D

 27 26  0  0  1  0  0  0  0  0999 V2000
    7.5277  -19.1908   20.3710 N   0  0  0  0  0  0  0  0  0  0  0  0
    6.9446  -18.2735   19.4679 C   0  0  0  0  0  0  0  0  0  0  0  0
    6.4449  -18.7053   18.4063 O   0  0  0  0  0  0  0  0  0  0  0  0
    6.9088  -16.8236   19.7419 C   0  0  0  0  0  0  0  0  0  0  0  0
    7.4547  -16.5285   21.1111 C   0  0  0  0  0  0  0  0  0  0  0  0
    7.4573  -15.0400   21.3934 C   0  0  2  0  0  0  0  0  0  0  0  0
    8.2994  -14.4090   20.3888 N   0  0  0  0  0  0  0  0  0  0  0  0
    8.0891  -14.7594   22.7100 C   0  0  0  0  0  0  0  0  0  0  0  0
    9.3613  -14.7047   22.7194 O   0  0  0  0  0  0  0  0  0  0  0  0
    6.3717  -11.2024   26.1632 C   0  0  0  0  0  0  0  0  0  0  0  0
    7.3141  -12.1100   25.3903 C   0  0  0  0  0  0  0  0  0  0  0  0
    7.4194  -13.4627   26.0035 C   0  0  2  0  0  0  0  0  0  0  0  0
    8.0730  -13.4491   27.3648 C   0  0  0  0  0  0  0  0  0  0  0  0
    8.1339  -14.4986   25.1781 C   0  0  2  0  0  0  0  0  0  0  0  0
    7.3766  -14.5577   23.9070 N   0  0  0  0  0  0  0  0  0  0  0  0
    8.0741  -15.8024   25.8456 C   0  0  0  0  0  0  0  0  0  0  0  0
    7.1353  -16.6096   25.6616 O   0  0  0  0  0  0  0  0  0  0  0  0
   10.9142  -18.0624   22.5428 N   0  0  0  0  0  0  0  0  0  0  0  0
   11.3117  -19.0387   23.4911 C   0  0  0  0  0  0  0  0  0  0  0  0
   12.0226  -20.0101   23.1182 O   0  0  0  0  0  0  0  0  0  0  0  0
   10.9060  -18.9146   24.8850 C   0  0  0  0  0  0  0  0  0  0  0  0
   10.1361  -17.7224   25.2762 C   0  0  0  0  0  0  0  0  0  0  0  0
    9.7191  -17.5540   26.6873 C   0  0  2  0  0  0  0  0  0  0  0  0
    9.0962  -16.2115   26.7444 N   0  0  0  0  0  0  0  0  0  0  0  0
   10.6804  -17.7277   27.7485 C   0  0  0  0  0  0  0  0  0  0  0  0
   11.3831  -16.7497   28.1446 O   0  0  0  0  0  0  0  0  0  0  0  0
   10.8904  -18.9356   28.3922 O   0  0  0  0  0  0  0  0  0  0  0  0
  2  1  1  0
  3  2  2  0
  4  2  1  0
  5  4  1  0
  6  7  1  6
  6  5  1  0
  8  6  1  0
  9  8  2  0
 10 11  1  0
 11 12  1  0
 12 14  1  0
 12 13  1  1
 14 15  1  6
 15  8  1  0
 16 14  1  0
 16 17  2  0
 18 19  1  0
 19 21  1  0
 20 19  2  0
 21 22  1  0
 23 22  1  6
 23 24  1  0
 24 16  1  0
 25 23  1  0
 26 25  2  0
 27 25  1  0
M  END
$$$$
