QIQ.pdb
     RDKit          3D

 27 26  0  0  1  0  0  0  0  0999 V2000
    7.3036  -18.4982   17.7475 N   0  0  0  0  0  0  0  0  0  0  0  0
    7.1322  -18.2954   19.1355 C   0  0  0  0  0  0  0  0  0  0  0  0
    7.4448  -19.2142   19.9236 O   0  0  0  0  0  0  0  0  0  0  0  0
    6.5960  -17.0325   19.6797 C   0  0  0  0  0  0  0  0  0  0  0  0
    7.6861  -16.2319   20.3356 C   0  0  0  0  0  0  0  0  0  0  0  0
    7.1347  -14.9775   20.9821 C   0  0  2  0  0  0  0  0  0  0  0  0
    7.4431  -13.8628   20.0997 N   0  0  0  0  0  0  0  0  0  0  0  0
    7.8306  -14.7034   22.2673 C   0  0  0  0  0  0  0  0  0  0  0  0
    9.0878  -14.5149   22.1933 O   0  0  0  0  0  0  0  0  0  0  0  0
    5.8561  -11.3650   25.7601 C   0  0  0  0  0  0  0  0  0  0  0  0
    6.8101  -12.1818   24.9045 C   0  0  0  0  0  0  0  0  0  0  0  0
    7.2071  -13.4552   25.5659 C   0  0  2  0  0  0  0  0  0  0  0  0
    7.9633  -13.2447   26.8559 C   0  0  0  0  0  0  0  0  0  0  0  0
    8.0202  -14.4011   24.7238 C   0  0  2  0  0  0  0  0  0  0  0  0
    7.1922  -14.6433   23.5202 N   0  0  0  0  0  0  0  0  0  0  0  0
    8.2247  -15.6636   25.4404 C   0  0  0  0  0  0  0  0  0  0  0  0
    7.4464  -16.6367   25.3236 O   0  0  0  0  0  0  0  0  0  0  0  0
   11.8756  -19.8829   24.3554 N   0  0  0  0  0  0  0  0  0  0  0  0
   12.1874  -18.5254   24.0902 C   0  0  0  0  0  0  0  0  0  0  0  0
   13.1666  -18.2494   23.3464 O   0  0  0  0  0  0  0  0  0  0  0  0
   11.3780  -17.4608   24.6684 C   0  0  0  0  0  0  0  0  0  0  0  0
   10.1618  -17.8414   25.4054 C   0  0  0  0  0  0  0  0  0  0  0  0
    9.8489  -17.1744   26.6903 C   0  0  2  0  0  0  0  0  0  0  0  0
    9.3336  -15.8383   26.3120 N   0  0  0  0  0  0  0  0  0  0  0  0
   10.8597  -17.0721   27.7141 C   0  0  0  0  0  0  0  0  0  0  0  0
   11.4250  -15.9621   27.9495 O   0  0  0  0  0  0  0  0  0  0  0  0
   11.2646  -18.1446   28.4908 O   0  0  0  0  0  0  0  0  0  0  0  0
  2  1  1  0
  3  2  2  0
  4  2  1  0
  5  4  1  0
  6  7  1  6
  6  5  1  0
  8  6  1  0
  9  8  2  0
 10 11  1  0
 11 12  1  0
 12 14  1  0
 12 13  1  1
 14 15  1  6
 15  8  1  0
 16 14  1  0
 16 17  2  0
 18 19  1  0
 19 21  1  0
 20 19  2  0
 21 22  1  0
 23 22  1  6
 23 24  1  0
 24 16  1  0
 25 23  1  0
 26 25  2  0
 27 25  1  0
M  END
$$$$
