QIQ.pdb
     RDKit          3D

 27 26  0  0  1  0  0  0  0  0999 V2000
    9.2710  -21.9061   18.6162 N   0  0  0  0  0  0  0  0  0  0  0  0
   10.2697  -21.2857   17.8321 C   0  0  0  0  0  0  0  0  0  0  0  0
   11.4119  -21.7929   17.7964 O   0  0  0  0  0  0  0  0  0  0  0  0
   10.0030  -20.0588   17.0560 C   0  0  0  0  0  0  0  0  0  0  0  0
    9.2695  -19.0494   17.8942 C   0  0  0  0  0  0  0  0  0  0  0  0
    9.6421  -17.6341   17.5027 C   0  0  2  0  0  0  0  0  0  0  0  0
   10.9165  -17.6981   16.8040 N   0  0  0  0  0  0  0  0  0  0  0  0
    9.8658  -16.7994   18.7128 C   0  0  0  0  0  0  0  0  0  0  0  0
   11.0557  -16.7792   19.1660 O   0  0  0  0  0  0  0  0  0  0  0  0
    6.8039  -12.3729   19.7970 C   0  0  0  0  0  0  0  0  0  0  0  0
    8.0202  -13.2694   19.6350 C   0  0  0  0  0  0  0  0  0  0  0  0
    8.1294  -14.2708   20.7313 C   0  0  2  0  0  0  0  0  0  0  0  0
    8.2929  -13.6438   22.0953 C   0  0  0  0  0  0  0  0  0  0  0  0
    9.2262  -15.2897   20.5765 C   0  0  2  0  0  0  0  0  0  0  0  0
    8.8631  -16.0547   19.3617 N   0  0  0  0  0  0  0  0  0  0  0  0
    9.2450  -16.1883   21.7346 C   0  0  0  0  0  0  0  0  0  0  0  0
    8.2824  -16.9347   22.0222 O   0  0  0  0  0  0  0  0  0  0  0  0
   13.7228  -19.8797   22.6085 N   0  0  0  0  0  0  0  0  0  0  0  0
   13.1042  -20.0473   23.8733 C   0  0  0  0  0  0  0  0  0  0  0  0
   13.5302  -20.9370   24.6574 O   0  0  0  0  0  0  0  0  0  0  0  0
   11.9901  -19.1931   24.2633 C   0  0  0  0  0  0  0  0  0  0  0  0
   11.5784  -18.1284   23.3339 C   0  0  0  0  0  0  0  0  0  0  0  0
   10.4755  -17.2154   23.7129 C   0  0  2  0  0  0  0  0  0  0  0  0
   10.3757  -16.2509   22.5934 N   0  0  0  0  0  0  0  0  0  0  0  0
   10.5074  -16.5358   24.9847 C   0  0  0  0  0  0  0  0  0  0  0  0
   10.0846  -17.1123   26.0315 O   0  0  0  0  0  0  0  0  0  0  0  0
   10.9935  -15.2491   25.1457 O   0  0  0  0  0  0  0  0  0  0  0  0
  2  1  1  0
  3  2  2  0
  4  2  1  0
  5  4  1  0
  6  7  1  6
  6  5  1  0
  8  6  1  0
  9  8  2  0
 10 11  1  0
 11 12  1  0
 12 14  1  0
 12 13  1  1
 14 15  1  6
 15  8  1  0
 16 14  1  0
 16 17  2  0
 18 19  1  0
 19 21  1  0
 20 19  2  0
 21 22  1  0
 23 22  1  6
 23 24  1  0
 24 16  1  0
 25 23  1  0
 26 25  2  0
 27 25  1  0
M  END
$$$$
