QIQ.pdb
     RDKit          3D

 27 26  0  0  1  0  0  0  0  0999 V2000
   11.9976  -21.5928   16.5965 N   0  0  0  0  0  0  0  0  0  0  0  0
   10.7210  -21.1465   16.1864 C   0  0  0  0  0  0  0  0  0  0  0  0
    9.8492  -21.9940   15.8954 O   0  0  0  0  0  0  0  0  0  0  0  0
   10.3887  -19.7114   16.0920 C   0  0  0  0  0  0  0  0  0  0  0  0
    9.8237  -19.2108   17.3919 C   0  0  0  0  0  0  0  0  0  0  0  0
    9.1651  -17.8573   17.2207 C   0  0  2  0  0  0  0  0  0  0  0  0
    9.7170  -17.2550   16.0170 N   0  0  0  0  0  0  0  0  0  0  0  0
    9.5249  -16.9553   18.3469 C   0  0  0  0  0  0  0  0  0  0  0  0
   10.7703  -16.7777   18.5450 O   0  0  0  0  0  0  0  0  0  0  0  0
    6.1295  -12.8786   19.9326 C   0  0  0  0  0  0  0  0  0  0  0  0
    7.3844  -13.6201   19.5027 C   0  0  0  0  0  0  0  0  0  0  0  0
    7.8935  -14.5266   20.5683 C   0  0  2  0  0  0  0  0  0  0  0  0
    8.2319  -13.8052   21.8511 C   0  0  0  0  0  0  0  0  0  0  0  0
    9.0911  -15.3596   20.1981 C   0  0  2  0  0  0  0  0  0  0  0  0
    8.5907  -16.3090   19.1778 N   0  0  0  0  0  0  0  0  0  0  0  0
    9.5676  -16.1033   21.3681 C   0  0  0  0  0  0  0  0  0  0  0  0
    8.9761  -17.1145   21.8087 O   0  0  0  0  0  0  0  0  0  0  0  0
   16.0596  -17.0682   24.8523 N   0  0  0  0  0  0  0  0  0  0  0  0
   15.1360  -16.5267   23.9227 C   0  0  0  0  0  0  0  0  0  0  0  0
   15.5548  -15.7808   22.9974 O   0  0  0  0  0  0  0  0  0  0  0  0
   13.7166  -16.8363   24.0346 C   0  0  0  0  0  0  0  0  0  0  0  0
   12.8063  -16.2765   23.0221 C   0  0  0  0  0  0  0  0  0  0  0  0
   11.3493  -16.5147   23.1399 C   0  0  2  0  0  0  0  0  0  0  0  0
   10.7405  -15.7009   22.0625 N   0  0  0  0  0  0  0  0  0  0  0  0
   10.6825  -16.2938   24.3996 C   0  0  0  0  0  0  0  0  0  0  0  0
   10.0788  -15.2018   24.6237 O   0  0  0  0  0  0  0  0  0  0  0  0
   10.6510  -17.2330   25.4167 O   0  0  0  0  0  0  0  0  0  0  0  0
  2  1  1  0
  3  2  2  0
  4  2  1  0
  5  4  1  0
  6  7  1  6
  6  5  1  0
  8  6  1  0
  9  8  2  0
 10 11  1  0
 11 12  1  0
 12 14  1  0
 12 13  1  1
 14 15  1  6
 15  8  1  0
 16 14  1  0
 16 17  2  0
 18 19  1  0
 19 21  1  0
 20 19  2  0
 21 22  1  0
 23 22  1  1
 23 24  1  0
 24 16  1  0
 25 23  1  0
 26 25  2  0
 27 25  1  0
M  END
$$$$
