QIQ.pdb
     RDKit          3D

 27 26  0  0  1  0  0  0  0  0999 V2000
    6.0361  -19.0195   18.5061 N   0  0  0  0  0  0  0  0  0  0  0  0
    6.6197  -18.3927   19.6301 C   0  0  0  0  0  0  0  0  0  0  0  0
    7.0501  -19.1045   20.5634 O   0  0  0  0  0  0  0  0  0  0  0  0
    6.7351  -16.9247   19.7331 C   0  0  0  0  0  0  0  0  0  0  0  0
    7.4595  -16.5363   20.9916 C   0  0  0  0  0  0  0  0  0  0  0  0
    7.4078  -15.0389   21.2165 C   0  0  2  0  0  0  0  0  0  0  0  0
    8.2476  -14.4185   20.2035 N   0  0  0  0  0  0  0  0  0  0  0  0
    8.0047  -14.6876   22.5323 C   0  0  0  0  0  0  0  0  0  0  0  0
    9.2769  -14.6902   22.5878 O   0  0  0  0  0  0  0  0  0  0  0  0
    5.4639  -11.4749   26.1799 C   0  0  0  0  0  0  0  0  0  0  0  0
    6.5128  -12.1095   25.2819 C   0  0  0  0  0  0  0  0  0  0  0  0
    7.0130  -13.4008   25.8289 C   0  0  2  0  0  0  0  0  0  0  0  0
    7.6530  -13.2620   27.1896 C   0  0  0  0  0  0  0  0  0  0  0  0
    7.9855  -14.1458   24.9547 C   0  0  2  0  0  0  0  0  0  0  0  0
    7.2604  -14.3631   23.6820 N   0  0  0  0  0  0  0  0  0  0  0  0
    8.3149  -15.4404   25.5586 C   0  0  0  0  0  0  0  0  0  0  0  0
    7.4459  -16.3050   25.8114 O   0  0  0  0  0  0  0  0  0  0  0  0
   13.2696  -20.4159   24.4963 N   0  0  0  0  0  0  0  0  0  0  0  0
   13.0680  -19.0861   24.9452 C   0  0  0  0  0  0  0  0  0  0  0  0
   13.8882  -18.1894   24.6114 O   0  0  0  0  0  0  0  0  0  0  0  0
   11.9189  -18.7603   25.7797 C   0  0  0  0  0  0  0  0  0  0  0  0
   11.2178  -17.4915   25.5238 C   0  0  0  0  0  0  0  0  0  0  0  0
   10.0522  -17.1208   26.3590 C   0  0  2  0  0  0  0  0  0  0  0  0
    9.6568  -15.7737   25.8874 N   0  0  0  0  0  0  0  0  0  0  0  0
   10.1545  -17.1600   27.7972 C   0  0  0  0  0  0  0  0  0  0  0  0
   10.0847  -18.2642   28.4160 O   0  0  0  0  0  0  0  0  0  0  0  0
   10.3374  -16.0298   28.5762 O   0  0  0  0  0  0  0  0  0  0  0  0
  2  1  1  0
  3  2  2  0
  4  2  1  0
  5  4  1  0
  6  7  1  6
  6  5  1  0
  8  6  1  0
  9  8  2  0
 10 11  1  0
 11 12  1  0
 12 14  1  0
 12 13  1  1
 14 15  1  6
 15  8  1  0
 16 14  1  0
 16 17  2  0
 18 19  1  0
 19 21  1  0
 20 19  2  0
 21 22  1  0
 23 22  1  6
 23 24  1  0
 24 16  1  0
 25 23  1  0
 26 25  2  0
 27 25  1  0
M  END
$$$$
