QIQ.pdb
     RDKit          3D

 27 26  0  0  1  0  0  0  0  0999 V2000
   12.3143  -19.5976   16.5476 N   0  0  0  0  0  0  0  0  0  0  0  0
   11.1850  -20.3127   16.0890 C   0  0  0  0  0  0  0  0  0  0  0  0
   11.3525  -21.4348   15.5637 O   0  0  0  0  0  0  0  0  0  0  0  0
    9.8165  -19.7736   16.2125 C   0  0  0  0  0  0  0  0  0  0  0  0
    9.8396  -18.4028   16.8289 C   0  0  0  0  0  0  0  0  0  0  0  0
    9.1438  -18.3927   18.1746 C   0  0  2  0  0  0  0  0  0  0  0  0
    7.7135  -18.3064   17.9232 N   0  0  0  0  0  0  0  0  0  0  0  0
    9.5112  -17.1740   18.9433 C   0  0  0  0  0  0  0  0  0  0  0  0
   10.7507  -16.8829   18.9710 O   0  0  0  0  0  0  0  0  0  0  0  0
    6.4351  -12.7020   19.4912 C   0  0  0  0  0  0  0  0  0  0  0  0
    7.6348  -13.6213   19.3335 C   0  0  0  0  0  0  0  0  0  0  0  0
    8.0039  -14.2870   20.6131 C   0  0  2  0  0  0  0  0  0  0  0  0
    8.3795  -13.3124   21.7037 C   0  0  0  0  0  0  0  0  0  0  0  0
    9.1114  -15.3021   20.5238 C   0  0  2  0  0  0  0  0  0  0  0  0
    8.5899  -16.3525   19.6197 N   0  0  0  0  0  0  0  0  0  0  0  0
    9.3729  -15.8788   21.8461 C   0  0  0  0  0  0  0  0  0  0  0  0
    8.5097  -16.5270   22.4795 O   0  0  0  0  0  0  0  0  0  0  0  0
   11.8438  -20.6172   21.1430 N   0  0  0  0  0  0  0  0  0  0  0  0
   11.4050  -20.5109   22.4871 C   0  0  0  0  0  0  0  0  0  0  0  0
   10.8530  -21.5008   23.0378 O   0  0  0  0  0  0  0  0  0  0  0  0
   11.5974  -19.2693   23.2250 C   0  0  0  0  0  0  0  0  0  0  0  0
   11.0912  -18.0242   22.6246 C   0  0  0  0  0  0  0  0  0  0  0  0
   11.2154  -16.7512   23.3714 C   0  0  2  0  0  0  0  0  0  0  0  0
   10.6382  -15.7237   22.4743 N   0  0  0  0  0  0  0  0  0  0  0  0
   12.4998  -16.3364   23.8800 C   0  0  0  0  0  0  0  0  0  0  0  0
   12.9083  -16.7502   25.0065 O   0  0  0  0  0  0  0  0  0  0  0  0
   13.3515  -15.4895   23.1909 O   0  0  0  0  0  0  0  0  0  0  0  0
  2  1  1  0
  3  2  2  0
  4  2  1  0
  5  4  1  0
  6  7  1  6
  6  5  1  0
  8  6  1  0
  9  8  2  0
 10 11  1  0
 11 12  1  0
 12 14  1  0
 12 13  1  1
 14 15  1  6
 15  8  1  0
 16 14  1  0
 16 17  2  0
 18 19  1  0
 19 21  1  0
 20 19  2  0
 21 22  1  0
 23 22  1  6
 23 24  1  0
 24 16  1  0
 25 23  1  0
 26 25  2  0
 27 25  1  0
M  END
$$$$
