DDK.pdb
     RDKit          3D

 26 25  0  0  1  0  0  0  0  0999 V2000
    9.6988  -16.3955   19.5867 N   0  0  0  0  0  0  0  0  0  0  0  0
    8.6430  -16.6069   20.5532 C   0  0  1  0  0  0  0  0  0  0  0  0
    7.6920  -17.6353   20.0409 C   0  0  0  0  0  0  0  0  0  0  0  0
    7.4487  -17.4018   18.6073 C   0  0  0  0  0  0  0  0  0  0  0  0
    7.5052  -16.2433   18.1502 O   0  0  0  0  0  0  0  0  0  0  0  0
    9.2783  -17.0031   21.8416 C   0  0  0  0  0  0  0  0  0  0  0  0
    8.5461  -17.3186   22.7853 O   0  0  0  0  0  0  0  0  0  0  0  0
    7.1573  -18.4459   17.7524 O   0  0  0  0  0  0  0  0  0  0  0  0
   10.6843  -17.0269   22.0106 N   0  0  0  0  0  0  0  0  0  0  0  0
   11.4215  -17.2236   23.2069 C   0  0  1  0  0  0  0  0  0  0  0  0
   12.8632  -17.4231   22.9382 C   0  0  0  0  0  0  0  0  0  0  0  0
   13.0440  -18.5490   21.9857 C   0  0  0  0  0  0  0  0  0  0  0  0
   13.6201  -18.4428   20.8756 O   0  0  0  0  0  0  0  0  0  0  0  0
   11.1142  -16.2736   24.3141 C   0  0  0  0  0  0  0  0  0  0  0  0
   11.5277  -15.1000   24.2034 O   0  0  0  0  0  0  0  0  0  0  0  0
   12.5643  -19.8383   22.2845 O   0  0  0  0  0  0  0  0  0  0  0  0
   10.3732  -16.6863   25.4633 N   0  0  0  0  0  0  0  0  0  0  0  0
   10.1106  -15.7963   26.5753 C   0  0  1  0  0  0  0  0  0  0  0  0
    8.6976  -15.2958   26.4681 C   0  0  0  0  0  0  0  0  0  0  0  0
    8.5578  -13.8218   26.3070 C   0  0  0  0  0  0  0  0  0  0  0  0
    7.1247  -13.3595   26.3490 C   0  0  0  0  0  0  0  0  0  0  0  0
    7.0840  -11.8560   26.1621 C   0  0  0  0  0  0  0  0  0  0  0  0
    5.7325  -11.3356   26.3163 N   0  0  0  0  0  0  0  0  0  0  0  0
   10.3836  -16.4543   27.8771 C   0  0  0  0  0  0  0  0  0  0  0  0
   10.5439  -15.7010   29.0513 O   0  0  0  0  0  0  0  0  0  0  0  0
   10.4867  -17.6971   28.0110 O   0  0  0  0  0  0  0  0  0  0  0  0
  2  1  1  6
  2  3  1  0
  4  3  1  0
  5  4  2  0
  6  7  2  0
  6  2  1  0
  8  4  1  0
  9  6  1  0
 10  9  1  0
 10 11  1  6
 12 11  1  0
 13 12  2  0
 14 10  1  0
 14 15  2  0
 16 12  1  0
 17 14  1  0
 18 17  1  0
 18 19  1  1
 19 20  1  0
 20 21  1  0
 21 22  1  0
 23 22  1  0
 24 18  1  0
 25 24  1  0
 26 24  2  0
M  END
$$$$
