DDK.pdb
     RDKit          3D

 26 25  0  0  1  0  0  0  0  0999 V2000
   12.0440  -15.6999   17.8808 N   0  0  0  0  0  0  0  0  0  0  0  0
   12.5500  -15.7701   19.2346 C   0  0  1  0  0  0  0  0  0  0  0  0
   13.3247  -14.5343   19.5457 C   0  0  0  0  0  0  0  0  0  0  0  0
   14.6286  -14.5927   18.8633 C   0  0  0  0  0  0  0  0  0  0  0  0
   14.9068  -13.7514   17.9864 O   0  0  0  0  0  0  0  0  0  0  0  0
   11.3867  -15.9635   20.1456 C   0  0  0  0  0  0  0  0  0  0  0  0
   10.3511  -15.3291   19.9192 O   0  0  0  0  0  0  0  0  0  0  0  0
   15.5560  -15.5664   19.1761 O   0  0  0  0  0  0  0  0  0  0  0  0
   11.4371  -16.8459   21.2524 N   0  0  0  0  0  0  0  0  0  0  0  0
   10.4173  -17.1273   22.1979 C   0  0  1  0  0  0  0  0  0  0  0  0
   10.3654  -18.5664   22.5393 C   0  0  0  0  0  0  0  0  0  0  0  0
    9.9657  -19.3510   21.3426 C   0  0  0  0  0  0  0  0  0  0  0  0
    8.9343  -19.1206   20.6654 O   0  0  0  0  0  0  0  0  0  0  0  0
   10.3503  -16.2017   23.3648 C   0  0  0  0  0  0  0  0  0  0  0  0
   11.4138  -15.9563   23.9725 O   0  0  0  0  0  0  0  0  0  0  0  0
   10.7459  -20.4306   20.8871 O   0  0  0  0  0  0  0  0  0  0  0  0
    9.1157  -15.6136   23.7772 N   0  0  0  0  0  0  0  0  0  0  0  0
    9.0140  -14.7705   24.9503 C   0  0  1  0  0  0  0  0  0  0  0  0
    7.7136  -14.0194   24.8922 C   0  0  0  0  0  0  0  0  0  0  0  0
    7.4643  -13.0944   26.0325 C   0  0  0  0  0  0  0  0  0  0  0  0
    6.1545  -12.3594   25.9174 C   0  0  0  0  0  0  0  0  0  0  0  0
    6.0332  -11.3808   27.0684 C   0  0  0  0  0  0  0  0  0  0  0  0
    4.8532  -10.5384   26.9303 N   0  0  0  0  0  0  0  0  0  0  0  0
    9.1620  -15.5555   26.2010 C   0  0  0  0  0  0  0  0  0  0  0  0
    9.7733  -15.0014   27.3372 O   0  0  0  0  0  0  0  0  0  0  0  0
    8.7602  -16.7374   26.3224 O   0  0  0  0  0  0  0  0  0  0  0  0
  2  1  1  6
  2  3  1  0
  4  3  1  0
  5  4  2  0
  6  7  2  0
  6  2  1  0
  8  4  1  0
  9  6  1  0
 10  9  1  0
 10 11  1  1
 12 11  1  0
 13 12  2  0
 14 10  1  0
 14 15  2  0
 16 12  1  0
 17 14  1  0
 18 17  1  0
 18 19  1  1
 19 20  1  0
 20 21  1  0
 21 22  1  0
 23 22  1  0
 24 18  1  0
 25 24  1  0
 26 24  2  0
M  END
$$$$
