DDK.pdb
     RDKit          3D

 26 25  0  0  1  0  0  0  0  0999 V2000
   11.7480  -17.4885   16.4175 N   0  0  0  0  0  0  0  0  0  0  0  0
   11.0980  -18.2051   17.4934 C   0  0  1  0  0  0  0  0  0  0  0  0
   10.5391  -19.4877   16.9766 C   0  0  0  0  0  0  0  0  0  0  0  0
    9.5873  -19.2009   15.8899 C   0  0  0  0  0  0  0  0  0  0  0  0
    8.8304  -18.2138   15.9742 O   0  0  0  0  0  0  0  0  0  0  0  0
   12.1020  -18.4104   18.5752 C   0  0  0  0  0  0  0  0  0  0  0  0
   11.7783  -19.0872   19.5567 O   0  0  0  0  0  0  0  0  0  0  0  0
    9.5146  -20.0076   14.7720 O   0  0  0  0  0  0  0  0  0  0  0  0
   13.4035  -17.8557   18.5082 N   0  0  0  0  0  0  0  0  0  0  0  0
   14.4462  -17.9449   19.4663 C   0  0  1  0  0  0  0  0  0  0  0  0
   15.7763  -18.0416   18.8245 C   0  0  0  0  0  0  0  0  0  0  0  0
   16.8005  -18.3864   19.8441 C   0  0  0  0  0  0  0  0  0  0  0  0
   17.4556  -17.5366   20.4953 O   0  0  0  0  0  0  0  0  0  0  0  0
   14.3631  -16.9777   20.5978 C   0  0  0  0  0  0  0  0  0  0  0  0
   14.7447  -15.8066   20.3894 O   0  0  0  0  0  0  0  0  0  0  0  0
   17.1029  -19.7277   20.1462 O   0  0  0  0  0  0  0  0  0  0  0  0
   13.8653  -17.3716   21.8773 N   0  0  0  0  0  0  0  0  0  0  0  0
   13.7475  -16.4418   22.9815 C   0  0  1  0  0  0  0  0  0  0  0  0
   12.7445  -16.9824   23.9613 C   0  0  0  0  0  0  0  0  0  0  0  0
   12.5039  -16.1292   25.1581 C   0  0  0  0  0  0  0  0  0  0  0  0
   11.3912  -16.6445   26.0331 C   0  0  0  0  0  0  0  0  0  0  0  0
   11.2815  -15.7658   27.2632 C   0  0  0  0  0  0  0  0  0  0  0  0
   10.1329  -16.1327   28.0800 N   0  0  0  0  0  0  0  0  0  0  0  0
   15.0649  -16.1692   23.6081 C   0  0  0  0  0  0  0  0  0  0  0  0
   15.9540  -17.2130   23.9110 O   0  0  0  0  0  0  0  0  0  0  0  0
   15.4612  -15.0159   23.9013 O   0  0  0  0  0  0  0  0  0  0  0  0
  2  1  1  6
  2  3  1  0
  4  3  1  0
  5  4  2  0
  6  7  2  0
  6  2  1  0
  8  4  1  0
  9  6  1  0
 10  9  1  0
 10 11  1  6
 12 11  1  0
 13 12  2  0
 14 10  1  0
 14 15  2  0
 16 12  1  0
 17 14  1  0
 18 17  1  0
 18 19  1  1
 19 20  1  0
 20 21  1  0
 21 22  1  0
 23 22  1  0
 24 18  1  0
 25 24  1  0
 26 24  2  0
M  END
$$$$
