DDK.pdb
     RDKit          3D

 26 25  0  0  1  0  0  0  0  0999 V2000
   12.5943  -15.8973   20.1235 N   0  0  0  0  0  0  0  0  0  0  0  0
   11.7698  -17.0711   19.9334 C   0  0  1  0  0  0  0  0  0  0  0  0
   12.5553  -18.1283   19.2337 C   0  0  0  0  0  0  0  0  0  0  0  0
   11.6716  -19.2643   18.9209 C   0  0  0  0  0  0  0  0  0  0  0  0
   10.6182  -19.0717   18.2824 O   0  0  0  0  0  0  0  0  0  0  0  0
   11.2843  -17.5079   21.2728 C   0  0  0  0  0  0  0  0  0  0  0  0
   10.1245  -17.2315   21.5963 O   0  0  0  0  0  0  0  0  0  0  0  0
   11.9869  -20.5469   19.3225 O   0  0  0  0  0  0  0  0  0  0  0  0
   12.1090  -18.2237   22.1747 N   0  0  0  0  0  0  0  0  0  0  0  0
   11.7999  -18.6614   23.4885 C   0  0  1  0  0  0  0  0  0  0  0  0
   12.6020  -19.8427   23.8779 C   0  0  0  0  0  0  0  0  0  0  0  0
   12.1545  -20.3363   25.2059 C   0  0  0  0  0  0  0  0  0  0  0  0
   12.7914  -20.1555   26.2723 O   0  0  0  0  0  0  0  0  0  0  0  0
   11.7193  -17.5885   24.5206 C   0  0  0  0  0  0  0  0  0  0  0  0
   12.6869  -16.8045   24.6193 O   0  0  0  0  0  0  0  0  0  0  0  0
   10.9535  -21.0570   25.3468 O   0  0  0  0  0  0  0  0  0  0  0  0
   10.5779  -17.4575   25.3691 N   0  0  0  0  0  0  0  0  0  0  0  0
   10.4615  -16.4000   26.3518 C   0  0  1  0  0  0  0  0  0  0  0  0
    9.2343  -15.5893   26.0437 C   0  0  0  0  0  0  0  0  0  0  0  0
    9.0014  -14.4249   26.9428 C   0  0  0  0  0  0  0  0  0  0  0  0
    7.7001  -13.7190   26.6649 C   0  0  0  0  0  0  0  0  0  0  0  0
    7.4883  -12.6419   27.7100 C   0  0  0  0  0  0  0  0  0  0  0  0
    6.3257  -11.8206   27.4017 N   0  0  0  0  0  0  0  0  0  0  0  0
   10.4550  -16.9385   27.7347 C   0  0  0  0  0  0  0  0  0  0  0  0
   10.2116  -18.2991   27.9822 O   0  0  0  0  0  0  0  0  0  0  0  0
   10.6617  -16.2305   28.7491 O   0  0  0  0  0  0  0  0  0  0  0  0
  2  1  1  1
  2  3  1  0
  4  3  1  0
  5  4  2  0
  6  7  2  0
  6  2  1  0
  8  4  1  0
  9  6  1  0
 10  9  1  0
 10 11  1  1
 12 11  1  0
 13 12  2  0
 14 10  1  0
 14 15  2  0
 16 12  1  0
 17 14  1  0
 18 17  1  0
 18 19  1  6
 19 20  1  0
 20 21  1  0
 21 22  1  0
 23 22  1  0
 24 18  1  0
 25 24  1  0
 26 24  2  0
M  END
$$$$
