DDK.pdb
     RDKit          3D

 26 25  0  0  1  0  0  0  0  0999 V2000
    8.9397  -16.6378   18.3694 N   0  0  0  0  0  0  0  0  0  0  0  0
    8.5204  -17.7518   19.1920 C   0  0  1  0  0  0  0  0  0  0  0  0
    8.7068  -19.0276   18.4424 C   0  0  0  0  0  0  0  0  0  0  0  0
    7.9757  -18.9532   17.1660 C   0  0  0  0  0  0  0  0  0  0  0  0
    8.5804  -18.6328   16.1239 O   0  0  0  0  0  0  0  0  0  0  0  0
    9.3097  -17.7071   20.4551 C   0  0  0  0  0  0  0  0  0  0  0  0
    9.1652  -18.6233   21.2712 O   0  0  0  0  0  0  0  0  0  0  0  0
    6.6254  -19.2324   17.0983 O   0  0  0  0  0  0  0  0  0  0  0  0
   10.2114  -16.6530   20.7413 N   0  0  0  0  0  0  0  0  0  0  0  0
   11.0050  -16.4676   21.9029 C   0  0  1  0  0  0  0  0  0  0  0  0
   11.9768  -15.3641   21.7349 C   0  0  0  0  0  0  0  0  0  0  0  0
   13.0285  -15.7662   20.7655 C   0  0  0  0  0  0  0  0  0  0  0  0
   13.2391  -15.1797   19.6759 O   0  0  0  0  0  0  0  0  0  0  0  0
   10.2604  -16.4582   23.1945 C   0  0  0  0  0  0  0  0  0  0  0  0
    9.6115  -15.4303   23.4828 O   0  0  0  0  0  0  0  0  0  0  0  0
   13.8742  -16.8617   21.0230 O   0  0  0  0  0  0  0  0  0  0  0  0
   10.2851  -17.5826   24.0749 N   0  0  0  0  0  0  0  0  0  0  0  0
    9.5802  -17.5904   25.3401 C   0  0  1  0  0  0  0  0  0  0  0  0
    9.2159  -19.0084   25.6795 C   0  0  0  0  0  0  0  0  0  0  0  0
    8.4364  -19.1789   26.9371 C   0  0  0  0  0  0  0  0  0  0  0  0
    8.0778  -20.6152   27.2159 C   0  0  0  0  0  0  0  0  0  0  0  0
    7.1683  -20.6721   28.4270 C   0  0  0  0  0  0  0  0  0  0  0  0
    6.6129  -22.0053   28.6148 N   0  0  0  0  0  0  0  0  0  0  0  0
   10.3723  -16.9349   26.4102 C   0  0  0  0  0  0  0  0  0  0  0  0
   11.7755  -16.9883   26.4102 O   0  0  0  0  0  0  0  0  0  0  0  0
    9.8528  -16.3050   27.3622 O   0  0  0  0  0  0  0  0  0  0  0  0
  2  1  1  6
  2  3  1  0
  4  3  1  0
  5  4  2  0
  6  7  2  0
  6  2  1  0
  8  4  1  0
  9  6  1  0
 10  9  1  0
 10 11  1  6
 12 11  1  0
 13 12  2  0
 14 10  1  0
 14 15  2  0
 16 12  1  0
 17 14  1  0
 18 17  1  0
 18 19  1  1
 19 20  1  0
 20 21  1  0
 21 22  1  0
 23 22  1  0
 24 18  1  0
 25 24  1  0
 26 24  2  0
M  END
$$$$
