DDK.pdb
     RDKit          3D

 26 25  0  0  1  0  0  0  0  0999 V2000
   15.2082  -13.3445   17.4643 N   0  0  0  0  0  0  0  0  0  0  0  0
   14.3884  -14.5318   17.3562 C   0  0  1  0  0  0  0  0  0  0  0  0
   15.2593  -15.7422   17.3269 C   0  0  0  0  0  0  0  0  0  0  0  0
   16.0215  -15.7628   16.0668 C   0  0  0  0  0  0  0  0  0  0  0  0
   15.5940  -15.1413   15.0743 O   0  0  0  0  0  0  0  0  0  0  0  0
   13.4387  -14.5352   18.5044 C   0  0  0  0  0  0  0  0  0  0  0  0
   13.7886  -13.9933   19.5581 O   0  0  0  0  0  0  0  0  0  0  0  0
   17.2079  -16.4608   15.9604 O   0  0  0  0  0  0  0  0  0  0  0  0
   12.1593  -15.1369   18.4202 N   0  0  0  0  0  0  0  0  0  0  0  0
   11.2024  -15.3134   19.4529 C   0  0  1  0  0  0  0  0  0  0  0  0
    9.8257  -15.4059   18.9175 C   0  0  0  0  0  0  0  0  0  0  0  0
    9.3521  -14.0556   18.5177 C   0  0  0  0  0  0  0  0  0  0  0  0
    9.8844  -12.9846   18.8984 O   0  0  0  0  0  0  0  0  0  0  0  0
   11.5475  -16.3377   20.4798 C   0  0  0  0  0  0  0  0  0  0  0  0
   12.1276  -17.3744   20.0933 O   0  0  0  0  0  0  0  0  0  0  0  0
    8.2450  -13.8970   17.6628 O   0  0  0  0  0  0  0  0  0  0  0  0
   11.2281  -16.1450   21.8585 N   0  0  0  0  0  0  0  0  0  0  0  0
   11.4273  -17.1807   22.8511 C   0  0  1  0  0  0  0  0  0  0  0  0
   11.2268  -16.5846   24.2159 C   0  0  0  0  0  0  0  0  0  0  0  0
   11.4381  -17.5215   25.3542 C   0  0  0  0  0  0  0  0  0  0  0  0
   11.1224  -16.9028   26.6909 C   0  0  0  0  0  0  0  0  0  0  0  0
   11.2605  -17.9583   27.7698 C   0  0  0  0  0  0  0  0  0  0  0  0
   10.9979  -17.4071   29.0921 N   0  0  0  0  0  0  0  0  0  0  0  0
   10.5455  -18.3488   22.6055 C   0  0  0  0  0  0  0  0  0  0  0  0
   10.9144  -19.6371   23.0249 O   0  0  0  0  0  0  0  0  0  0  0  0
    9.4390  -18.2639   22.0210 O   0  0  0  0  0  0  0  0  0  0  0  0
  2  1  1  1
  2  3  1  0
  4  3  1  0
  5  4  2  0
  6  7  2  0
  6  2  1  0
  8  4  1  0
  9  6  1  0
 10  9  1  0
 10 11  1  6
 12 11  1  0
 13 12  2  0
 14 10  1  0
 14 15  2  0
 16 12  1  0
 17 14  1  0
 18 17  1  0
 18 19  1  1
 19 20  1  0
 20 21  1  0
 21 22  1  0
 23 22  1  0
 24 18  1  0
 25 24  1  0
 26 24  2  0
M  END
$$$$
