DDK.pdb
     RDKit          3D

 26 25  0  0  1  0  0  0  0  0999 V2000
   16.0771  -16.9908   20.1851 N   0  0  0  0  0  0  0  0  0  0  0  0
   15.5750  -15.9142   21.0111 C   0  0  1  0  0  0  0  0  0  0  0  0
   16.0084  -14.6038   20.4460 C   0  0  0  0  0  0  0  0  0  0  0  0
   17.4794  -14.5324   20.4555 C   0  0  0  0  0  0  0  0  0  0  0  0
   18.1118  -14.6462   19.3871 O   0  0  0  0  0  0  0  0  0  0  0  0
   14.0924  -16.0476   21.0808 C   0  0  0  0  0  0  0  0  0  0  0  0
   13.4505  -15.1707   21.6685 O   0  0  0  0  0  0  0  0  0  0  0  0
   18.1781  -14.3410   21.6307 O   0  0  0  0  0  0  0  0  0  0  0  0
   13.4078  -17.1416   20.4974 N   0  0  0  0  0  0  0  0  0  0  0  0
   12.0241  -17.4485   20.5656 C   0  0  1  0  0  0  0  0  0  0  0  0
   11.6283  -18.4359   19.5366 C   0  0  0  0  0  0  0  0  0  0  0  0
   10.1619  -18.6660   19.6011 C   0  0  0  0  0  0  0  0  0  0  0  0
    9.3048  -17.8477   19.1873 O   0  0  0  0  0  0  0  0  0  0  0  0
   11.4926  -17.7176   21.9323 C   0  0  0  0  0  0  0  0  0  0  0  0
   10.2535  -17.8017   22.0668 O   0  0  0  0  0  0  0  0  0  0  0  0
    9.6353  -19.8518   20.1472 O   0  0  0  0  0  0  0  0  0  0  0  0
   12.3657  -17.8747   23.0517 N   0  0  0  0  0  0  0  0  0  0  0  0
   11.8698  -18.0817   24.3967 C   0  0  1  0  0  0  0  0  0  0  0  0
   12.5670  -19.2742   24.9886 C   0  0  0  0  0  0  0  0  0  0  0  0
   12.1679  -19.6144   26.3826 C   0  0  0  0  0  0  0  0  0  0  0  0
   12.8963  -20.8159   26.9256 C   0  0  0  0  0  0  0  0  0  0  0  0
   12.4540  -21.0586   28.3549 C   0  0  0  0  0  0  0  0  0  0  0  0
   13.1416  -22.2017   28.9393 N   0  0  0  0  0  0  0  0  0  0  0  0
   12.0232  -16.8623   25.2285 C   0  0  0  0  0  0  0  0  0  0  0  0
   12.6583  -15.7157   24.7248 O   0  0  0  0  0  0  0  0  0  0  0  0
   11.6054  -16.7778   26.4080 O   0  0  0  0  0  0  0  0  0  0  0  0
  2  1  1  6
  2  3  1  0
  4  3  1  0
  5  4  2  0
  6  7  2  0
  6  2  1  0
  8  4  1  0
  9  6  1  0
 10  9  1  0
 10 11  1  6
 12 11  1  0
 13 12  2  0
 14 10  1  0
 14 15  2  0
 16 12  1  0
 17 14  1  0
 18 17  1  0
 18 19  1  1
 19 20  1  0
 20 21  1  0
 21 22  1  0
 23 22  1  0
 24 18  1  0
 25 24  1  0
 26 24  2  0
M  END
$$$$
