DDK.pdb
     RDKit          3D

 26 25  0  0  1  0  0  0  0  0999 V2000
   10.2810  -17.5930   18.1543 N   0  0  0  0  0  0  0  0  0  0  0  0
    9.1079  -16.8090   18.4745 C   0  0  1  0  0  0  0  0  0  0  0  0
    7.9503  -17.2829   17.6622 C   0  0  0  0  0  0  0  0  0  0  0  0
    8.3449  -17.3485   16.2448 C   0  0  0  0  0  0  0  0  0  0  0  0
    9.2682  -18.1092   15.8937 O   0  0  0  0  0  0  0  0  0  0  0  0
    8.8678  -16.9272   19.9404 C   0  0  0  0  0  0  0  0  0  0  0  0
    7.8735  -16.3723   20.4197 O   0  0  0  0  0  0  0  0  0  0  0  0
    7.7099  -16.5802   15.2897 O   0  0  0  0  0  0  0  0  0  0  0  0
    9.7404  -17.6512   20.7891 N   0  0  0  0  0  0  0  0  0  0  0  0
    9.6379  -17.8493   22.1904 C   0  0  1  0  0  0  0  0  0  0  0  0
   10.4498  -19.0006   22.6441 C   0  0  0  0  0  0  0  0  0  0  0  0
    9.8844  -20.2598   22.0943 C   0  0  0  0  0  0  0  0  0  0  0  0
   10.5154  -21.0424   21.3428 O   0  0  0  0  0  0  0  0  0  0  0  0
    9.7694  -16.6202   23.0240 C   0  0  0  0  0  0  0  0  0  0  0  0
   10.8627  -16.0164   22.9991 O   0  0  0  0  0  0  0  0  0  0  0  0
    8.5680  -20.6580   22.3949 O   0  0  0  0  0  0  0  0  0  0  0  0
    8.6860  -16.1458   23.8247 N   0  0  0  0  0  0  0  0  0  0  0  0
    8.8249  -15.0211   24.7265 C   0  0  1  0  0  0  0  0  0  0  0  0
    7.4956  -14.3296   24.8422 C   0  0  0  0  0  0  0  0  0  0  0  0
    7.4847  -13.1176   25.7077 C   0  0  0  0  0  0  0  0  0  0  0  0
    6.1331  -12.4560   25.7752 C   0  0  0  0  0  0  0  0  0  0  0  0
    6.2456  -11.1825   26.5895 C   0  0  0  0  0  0  0  0  0  0  0  0
    4.9717  -10.4802   26.6601 N   0  0  0  0  0  0  0  0  0  0  0  0
    9.3639  -15.4413   26.0438 C   0  0  0  0  0  0  0  0  0  0  0  0
   10.1480  -14.5708   26.8178 O   0  0  0  0  0  0  0  0  0  0  0  0
    9.1592  -16.5746   26.5405 O   0  0  0  0  0  0  0  0  0  0  0  0
  2  1  1  6
  2  3  1  0
  4  3  1  0
  5  4  2  0
  6  7  2  0
  6  2  1  0
  8  4  1  0
  9  6  1  0
 10  9  1  0
 10 11  1  1
 12 11  1  0
 13 12  2  0
 14 10  1  0
 14 15  2  0
 16 12  1  0
 17 14  1  0
 18 17  1  0
 18 19  1  1
 19 20  1  0
 20 21  1  0
 21 22  1  0
 23 22  1  0
 24 18  1  0
 25 24  1  0
 26 24  2  0
M  END
$$$$
