DDK.pdb
     RDKit          3D

 26 25  0  0  1  0  0  0  0  0999 V2000
   11.8608  -16.9113   20.9459 N   0  0  0  0  0  0  0  0  0  0  0  0
   10.4908  -16.4776   21.1148 C   0  0  1  0  0  0  0  0  0  0  0  0
    9.6065  -17.2320   20.1803 C   0  0  0  0  0  0  0  0  0  0  0  0
    9.9674  -16.8974   18.7922 C   0  0  0  0  0  0  0  0  0  0  0  0
   11.1280  -16.5280   18.5260 O   0  0  0  0  0  0  0  0  0  0  0  0
   10.1222  -16.6806   22.5443 C   0  0  0  0  0  0  0  0  0  0  0  0
    9.0246  -16.2675   22.9326 O   0  0  0  0  0  0  0  0  0  0  0  0
    9.0413  -16.9845   17.7721 O   0  0  0  0  0  0  0  0  0  0  0  0
   10.9882  -17.3278   23.4594 N   0  0  0  0  0  0  0  0  0  0  0  0
   10.7909  -17.5515   24.8466 C   0  0  1  0  0  0  0  0  0  0  0  0
   11.4820  -18.7754   25.3102 C   0  0  0  0  0  0  0  0  0  0  0  0
   11.3243  -19.8530   24.2995 C   0  0  0  0  0  0  0  0  0  0  0  0
   10.2578  -20.4877   24.1118 O   0  0  0  0  0  0  0  0  0  0  0  0
   10.9716  -16.3581   25.7216 C   0  0  0  0  0  0  0  0  0  0  0  0
   12.1160  -15.8631   25.7989 O   0  0  0  0  0  0  0  0  0  0  0  0
   12.3959  -20.2344   23.4701 O   0  0  0  0  0  0  0  0  0  0  0  0
    9.8776  -15.7965   26.4481 N   0  0  0  0  0  0  0  0  0  0  0  0
   10.0715  -14.8894   27.5604 C   0  0  1  0  0  0  0  0  0  0  0  0
    8.7680  -14.2014   27.8535 C   0  0  0  0  0  0  0  0  0  0  0  0
    8.2777  -13.2897   26.7827 C   0  0  0  0  0  0  0  0  0  0  0  0
    6.8995  -12.7476   27.0582 C   0  0  0  0  0  0  0  0  0  0  0  0
    6.4914  -11.8321   25.9213 C   0  0  0  0  0  0  0  0  0  0  0  0
    5.1503  -11.3001   26.1199 N   0  0  0  0  0  0  0  0  0  0  0  0
   10.6239  -15.5903   28.7462 C   0  0  0  0  0  0  0  0  0  0  0  0
   11.3255  -14.8904   29.7409 O   0  0  0  0  0  0  0  0  0  0  0  0
   10.5032  -16.8246   28.9332 O   0  0  0  0  0  0  0  0  0  0  0  0
  2  1  1  1
  2  3  1  0
  4  3  1  0
  5  4  2  0
  6  7  2  0
  6  2  1  0
  8  4  1  0
  9  6  1  0
 10  9  1  0
 10 11  1  1
 12 11  1  0
 13 12  2  0
 14 10  1  0
 14 15  2  0
 16 12  1  0
 17 14  1  0
 18 17  1  0
 18 19  1  1
 19 20  1  0
 20 21  1  0
 21 22  1  0
 23 22  1  0
 24 18  1  0
 25 24  1  0
 26 24  2  0
M  END
$$$$
