DDK.pdb
     RDKit          3D

 26 25  0  0  1  0  0  0  0  0999 V2000
   13.5726  -17.6561   15.5538 N   0  0  0  0  0  0  0  0  0  0  0  0
   13.1396  -18.6198   16.5423 C   0  0  1  0  0  0  0  0  0  0  0  0
   13.2428  -19.9972   15.9795 C   0  0  0  0  0  0  0  0  0  0  0  0
   12.2564  -20.1558   14.8974 C   0  0  0  0  0  0  0  0  0  0  0  0
   12.4690  -19.6353   13.7846 O   0  0  0  0  0  0  0  0  0  0  0  0
   13.9791  -18.4320   17.7591 C   0  0  0  0  0  0  0  0  0  0  0  0
   13.6413  -19.0048   18.8002 O   0  0  0  0  0  0  0  0  0  0  0  0
   11.0930  -20.8735   15.0903 O   0  0  0  0  0  0  0  0  0  0  0  0
   15.1414  -17.6227   17.7530 N   0  0  0  0  0  0  0  0  0  0  0  0
   16.0548  -17.3902   18.8136 C   0  0  1  0  0  0  0  0  0  0  0  0
   17.3570  -16.8905   18.3186 C   0  0  0  0  0  0  0  0  0  0  0  0
   18.0576  -17.9692   17.5750 C   0  0  0  0  0  0  0  0  0  0  0  0
   18.1661  -19.1494   17.9883 O   0  0  0  0  0  0  0  0  0  0  0  0
   15.5032  -16.6528   19.9861 C   0  0  0  0  0  0  0  0  0  0  0  0
   15.3890  -15.4125   19.8902 O   0  0  0  0  0  0  0  0  0  0  0  0
   18.6576  -17.7201   16.3262 O   0  0  0  0  0  0  0  0  0  0  0  0
   15.1174  -17.3361   21.1795 N   0  0  0  0  0  0  0  0  0  0  0  0
   14.6360  -16.6348   22.3516 C   0  0  1  0  0  0  0  0  0  0  0  0
   13.4732  -17.3954   22.9241 C   0  0  0  0  0  0  0  0  0  0  0  0
   12.8591  -16.7936   24.1403 C   0  0  0  0  0  0  0  0  0  0  0  0
   11.6851  -17.5831   24.6576 C   0  0  0  0  0  0  0  0  0  0  0  0
   11.0453  -16.8251   25.8036 C   0  0  0  0  0  0  0  0  0  0  0  0
    9.9043  -17.5469   26.3496 N   0  0  0  0  0  0  0  0  0  0  0  0
   15.7194  -16.4211   23.3430 C   0  0  0  0  0  0  0  0  0  0  0  0
   16.8701  -17.2259   23.3448 O   0  0  0  0  0  0  0  0  0  0  0  0
   15.6794  -15.5287   24.2235 O   0  0  0  0  0  0  0  0  0  0  0  0
  2  1  1  6
  2  3  1  0
  4  3  1  0
  5  4  2  0
  6  7  2  0
  6  2  1  0
  8  4  1  0
  9  6  1  0
 10  9  1  0
 10 11  1  6
 12 11  1  0
 13 12  2  0
 14 10  1  0
 14 15  2  0
 16 12  1  0
 17 14  1  0
 18 17  1  0
 18 19  1  1
 19 20  1  0
 20 21  1  0
 21 22  1  0
 23 22  1  0
 24 18  1  0
 25 24  1  0
 26 24  2  0
M  END
$$$$
