DDK.pdb
     RDKit          3D

 26 25  0  0  1  0  0  0  0  0999 V2000
   14.4124  -14.2941   19.6360 N   0  0  0  0  0  0  0  0  0  0  0  0
   13.9926  -14.2555   18.2519 C   0  0  1  0  0  0  0  0  0  0  0  0
   14.7136  -15.3078   17.4791 C   0  0  0  0  0  0  0  0  0  0  0  0
   16.1482  -14.9781   17.4295 C   0  0  0  0  0  0  0  0  0  0  0  0
   16.6083  -14.3617   16.4483 O   0  0  0  0  0  0  0  0  0  0  0  0
   12.5133  -14.4315   18.2199 C   0  0  0  0  0  0  0  0  0  0  0  0
   11.9362  -14.3592   17.1300 O   0  0  0  0  0  0  0  0  0  0  0  0
   17.0005  -15.3396   18.4535 O   0  0  0  0  0  0  0  0  0  0  0  0
   11.7598  -14.6766   19.3939 N   0  0  0  0  0  0  0  0  0  0  0  0
   10.8482  -15.7340   19.6472 C   0  0  1  0  0  0  0  0  0  0  0  0
   10.5462  -16.5057   18.4208 C   0  0  0  0  0  0  0  0  0  0  0  0
    9.3944  -17.4106   18.6694 C   0  0  0  0  0  0  0  0  0  0  0  0
    8.4780  -17.6238   17.8386 O   0  0  0  0  0  0  0  0  0  0  0  0
   11.1418  -16.5600   20.8531 C   0  0  0  0  0  0  0  0  0  0  0  0
   11.0567  -17.8013   20.7410 O   0  0  0  0  0  0  0  0  0  0  0  0
    9.2623  -18.1012   19.8890 O   0  0  0  0  0  0  0  0  0  0  0  0
   11.5081  -15.9578   22.0954 N   0  0  0  0  0  0  0  0  0  0  0  0
   12.1856  -16.6943   23.1423 C   0  0  1  0  0  0  0  0  0  0  0  0
   13.5616  -16.1179   23.3234 C   0  0  0  0  0  0  0  0  0  0  0  0
   14.6838  -17.0487   23.0191 C   0  0  0  0  0  0  0  0  0  0  0  0
   16.0385  -16.4253   23.2325 C   0  0  0  0  0  0  0  0  0  0  0  0
   17.1101  -17.4416   22.8918 C   0  0  0  0  0  0  0  0  0  0  0  0
   18.4442  -16.9161   23.1475 N   0  0  0  0  0  0  0  0  0  0  0  0
   11.4007  -16.6989   24.4018 C   0  0  0  0  0  0  0  0  0  0  0  0
   11.8307  -17.4284   25.5219 O   0  0  0  0  0  0  0  0  0  0  0  0
   10.3271  -16.0665   24.5450 O   0  0  0  0  0  0  0  0  0  0  0  0
  2  1  1  1
  2  3  1  0
  4  3  1  0
  5  4  2  0
  6  7  2  0
  6  2  1  0
  8  4  1  0
  9  6  1  0
 10  9  1  0
 10 11  1  6
 12 11  1  0
 13 12  2  0
 14 10  1  0
 14 15  2  0
 16 12  1  0
 17 14  1  0
 18 17  1  0
 18 19  1  1
 19 20  1  0
 20 21  1  0
 21 22  1  0
 23 22  1  0
 24 18  1  0
 25 24  1  0
 26 24  2  0
M  END
$$$$
