DDK.pdb
     RDKit          3D

 26 25  0  0  1  0  0  0  0  0999 V2000
    9.1525  -19.7146   21.2768 N   0  0  0  0  0  0  0  0  0  0  0  0
    9.9970  -20.4613   22.1839 C   0  0  1  0  0  0  0  0  0  0  0  0
   10.8329  -21.4259   21.4125 C   0  0  0  0  0  0  0  0  0  0  0  0
    9.9602  -22.4330   20.7853 C   0  0  0  0  0  0  0  0  0  0  0  0
    9.2204  -23.1405   21.4969 O   0  0  0  0  0  0  0  0  0  0  0  0
   10.8136  -19.4823   22.9553 C   0  0  0  0  0  0  0  0  0  0  0  0
   10.8304  -19.5725   24.1873 O   0  0  0  0  0  0  0  0  0  0  0  0
    9.9438  -22.6117   19.4165 O   0  0  0  0  0  0  0  0  0  0  0  0
   11.5628  -18.4621   22.3197 N   0  0  0  0  0  0  0  0  0  0  0  0
   11.4421  -17.0571   22.4764 C   0  0  1  0  0  0  0  0  0  0  0  0
   10.3891  -16.4944   21.6017 C   0  0  0  0  0  0  0  0  0  0  0  0
   10.8794  -16.4381   20.2003 C   0  0  0  0  0  0  0  0  0  0  0  0
   10.6747  -17.3375   19.3490 O   0  0  0  0  0  0  0  0  0  0  0  0
   11.4172  -16.5677   23.8845 C   0  0  0  0  0  0  0  0  0  0  0  0
   10.7809  -15.5196   24.1234 O   0  0  0  0  0  0  0  0  0  0  0  0
   11.6244  -15.3383   19.7342 O   0  0  0  0  0  0  0  0  0  0  0  0
   12.0956  -17.2694   24.9273 N   0  0  0  0  0  0  0  0  0  0  0  0
   12.0461  -16.8386   26.3092 C   0  0  1  0  0  0  0  0  0  0  0  0
   12.4894  -17.9769   27.1845 C   0  0  0  0  0  0  0  0  0  0  0  0
   12.1560  -17.8329   28.6289 C   0  0  0  0  0  0  0  0  0  0  0  0
   12.6575  -18.9812   29.4650 C   0  0  0  0  0  0  0  0  0  0  0  0
   12.2371  -18.7655   30.9051 C   0  0  0  0  0  0  0  0  0  0  0  0
   12.6139  -19.8937   31.7455 N   0  0  0  0  0  0  0  0  0  0  0  0
   12.8475  -15.6086   26.5264 C   0  0  0  0  0  0  0  0  0  0  0  0
   13.9245  -15.2866   25.6849 O   0  0  0  0  0  0  0  0  0  0  0  0
   12.6207  -14.7952   27.4537 O   0  0  0  0  0  0  0  0  0  0  0  0
  2  1  1  6
  2  3  1  0
  4  3  1  0
  5  4  2  0
  6  7  2  0
  6  2  1  0
  8  4  1  0
  9  6  1  0
 10  9  1  0
 10 11  1  1
 12 11  1  0
 13 12  2  0
 14 10  1  0
 14 15  2  0
 16 12  1  0
 17 14  1  0
 18 17  1  0
 18 19  1  1
 19 20  1  0
 20 21  1  0
 21 22  1  0
 23 22  1  0
 24 18  1  0
 25 24  1  0
 26 24  2  0
M  END
$$$$
