DDK.pdb
     RDKit          3D

 26 25  0  0  1  0  0  0  0  0999 V2000
    9.2089  -16.1806   17.6684 N   0  0  0  0  0  0  0  0  0  0  0  0
    9.0628  -14.9987   18.4901 C   0  0  1  0  0  0  0  0  0  0  0  0
    7.9281  -14.1731   17.9849 C   0  0  0  0  0  0  0  0  0  0  0  0
    8.0549  -14.0124   16.5264 C   0  0  0  0  0  0  0  0  0  0  0  0
    9.0195  -14.5282   15.9282 O   0  0  0  0  0  0  0  0  0  0  0  0
    8.8661  -15.4450   19.8982 C   0  0  0  0  0  0  0  0  0  0  0  0
    7.9029  -14.9959   20.5280 O   0  0  0  0  0  0  0  0  0  0  0  0
    7.1220  -13.2976   15.8023 O   0  0  0  0  0  0  0  0  0  0  0  0
    9.7454  -16.3606   20.5264 N   0  0  0  0  0  0  0  0  0  0  0  0
    9.6436  -16.9263   21.8237 C   0  0  1  0  0  0  0  0  0  0  0  0
   10.4077  -18.1889   21.9349 C   0  0  0  0  0  0  0  0  0  0  0  0
    9.8427  -19.1999   21.0043 C   0  0  0  0  0  0  0  0  0  0  0  0
   10.3230  -19.4583   19.8738 O   0  0  0  0  0  0  0  0  0  0  0  0
    9.8335  -15.9750   22.9558 C   0  0  0  0  0  0  0  0  0  0  0  0
   10.9912  -15.5619   23.1787 O   0  0  0  0  0  0  0  0  0  0  0  0
    8.7013  -19.9481   21.3493 O   0  0  0  0  0  0  0  0  0  0  0  0
    8.7333  -15.5479   23.7603 N   0  0  0  0  0  0  0  0  0  0  0  0
    8.9059  -14.6920   24.9158 C   0  0  1  0  0  0  0  0  0  0  0  0
    7.6558  -13.8795   25.1043 C   0  0  0  0  0  0  0  0  0  0  0  0
    7.6538  -12.9867   26.2964 C   0  0  0  0  0  0  0  0  0  0  0  0
    6.3743  -12.2054   26.4432 C   0  0  0  0  0  0  0  0  0  0  0  0
    6.4956  -11.2763   27.6345 C   0  0  0  0  0  0  0  0  0  0  0  0
    5.2286  -10.6228   27.9325 N   0  0  0  0  0  0  0  0  0  0  0  0
    9.2639  -15.4739   26.1253 C   0  0  0  0  0  0  0  0  0  0  0  0
    9.1798  -16.8755   26.1342 O   0  0  0  0  0  0  0  0  0  0  0  0
    9.6558  -14.9466   27.1937 O   0  0  0  0  0  0  0  0  0  0  0  0
  2  1  1  6
  2  3  1  0
  4  3  1  0
  5  4  2  0
  6  7  2  0
  6  2  1  0
  8  4  1  0
  9  6  1  0
 10  9  1  0
 10 11  1  6
 12 11  1  0
 13 12  2  0
 14 10  1  0
 14 15  2  0
 16 12  1  0
 17 14  1  0
 18 17  1  0
 18 19  1  1
 19 20  1  0
 20 21  1  0
 21 22  1  0
 23 22  1  0
 24 18  1  0
 25 24  1  0
 26 24  2  0
M  END
$$$$
