DDK.pdb
     RDKit          3D

 26 25  0  0  1  0  0  0  0  0999 V2000
    9.4652  -18.3401   17.5550 N   0  0  0  0  0  0  0  0  0  0  0  0
    8.7520  -17.1588   17.9901 C   0  0  1  0  0  0  0  0  0  0  0  0
    7.5289  -16.9752   17.1565 C   0  0  0  0  0  0  0  0  0  0  0  0
    7.8398  -17.3095   15.7563 C   0  0  0  0  0  0  0  0  0  0  0  0
    8.9782  -17.7190   15.4555 O   0  0  0  0  0  0  0  0  0  0  0  0
    8.4410  -17.3227   19.4382 C   0  0  0  0  0  0  0  0  0  0  0  0
    7.2648  -17.2201   19.8019 O   0  0  0  0  0  0  0  0  0  0  0  0
    6.8907  -17.1781   14.7624 O   0  0  0  0  0  0  0  0  0  0  0  0
    9.4478  -17.5900   20.3978 N   0  0  0  0  0  0  0  0  0  0  0  0
    9.2982  -17.7908   21.7945 C   0  0  1  0  0  0  0  0  0  0  0  0
    9.9828  -19.0214   22.2498 C   0  0  0  0  0  0  0  0  0  0  0  0
    9.0542  -19.8344   23.0769 C   0  0  0  0  0  0  0  0  0  0  0  0
    8.4254  -20.8329   22.6491 O   0  0  0  0  0  0  0  0  0  0  0  0
    9.5340  -16.5891   22.6449 C   0  0  0  0  0  0  0  0  0  0  0  0
   10.6129  -15.9768   22.4979 O   0  0  0  0  0  0  0  0  0  0  0  0
    8.8202  -19.5202   24.4291 O   0  0  0  0  0  0  0  0  0  0  0  0
    8.5633  -16.1495   23.5959 N   0  0  0  0  0  0  0  0  0  0  0  0
    8.7982  -15.0252   24.4782 C   0  0  1  0  0  0  0  0  0  0  0  0
    7.4721  -14.4472   24.8851 C   0  0  0  0  0  0  0  0  0  0  0  0
    7.5426  -13.3246   25.8614 C   0  0  0  0  0  0  0  0  0  0  0  0
    6.1851  -12.8182   26.2736 C   0  0  0  0  0  0  0  0  0  0  0  0
    6.3595  -11.6904   27.2710 C   0  0  0  0  0  0  0  0  0  0  0  0
    5.0802  -11.0961   27.6333 N   0  0  0  0  0  0  0  0  0  0  0  0
    9.6322  -15.4111   25.6435 C   0  0  0  0  0  0  0  0  0  0  0  0
    9.7063  -16.7462   26.0721 O   0  0  0  0  0  0  0  0  0  0  0  0
   10.3096  -14.5896   26.3062 O   0  0  0  0  0  0  0  0  0  0  0  0
  2  1  1  6
  2  3  1  0
  4  3  1  0
  5  4  2  0
  6  7  2  0
  6  2  1  0
  8  4  1  0
  9  6  1  0
 10  9  1  0
 10 11  1  1
 12 11  1  0
 13 12  2  0
 14 10  1  0
 14 15  2  0
 16 12  1  0
 17 14  1  0
 18 17  1  0
 18 19  1  1
 19 20  1  0
 20 21  1  0
 21 22  1  0
 23 22  1  0
 24 18  1  0
 25 24  1  0
 26 24  2  0
M  END
$$$$
