DDK.pdb
     RDKit          3D

 26 25  0  0  1  0  0  0  0  0999 V2000
    4.6106  -21.4902   18.3263 N   0  0  0  0  0  0  0  0  0  0  0  0
    4.9351  -22.7644   18.9300 C   0  0  1  0  0  0  0  0  0  0  0  0
    6.3738  -23.0796   18.6948 C   0  0  0  0  0  0  0  0  0  0  0  0
    6.6032  -23.2570   17.2508 C   0  0  0  0  0  0  0  0  0  0  0  0
    7.4948  -24.0341   16.8565 O   0  0  0  0  0  0  0  0  0  0  0  0
    4.5945  -22.6816   20.3783 C   0  0  0  0  0  0  0  0  0  0  0  0
    5.2395  -21.9048   21.0902 O   0  0  0  0  0  0  0  0  0  0  0  0
    5.8468  -22.5764   16.3179 O   0  0  0  0  0  0  0  0  0  0  0  0
    3.5620  -23.4619   20.9537 N   0  0  0  0  0  0  0  0  0  0  0  0
    3.1039  -23.4591   22.2966 C   0  0  1  0  0  0  0  0  0  0  0  0
    1.7251  -23.9850   22.4087 C   0  0  0  0  0  0  0  0  0  0  0  0
    1.2538  -23.8597   23.8122 C   0  0  0  0  0  0  0  0  0  0  0  0
    1.2459  -24.8063   24.6364 O   0  0  0  0  0  0  0  0  0  0  0  0
    4.0644  -23.9937   23.3038 C   0  0  0  0  0  0  0  0  0  0  0  0
    4.6663  -25.0527   23.0266 O   0  0  0  0  0  0  0  0  0  0  0  0
    0.7748  -22.6338   24.3116 O   0  0  0  0  0  0  0  0  0  0  0  0
    4.2917  -23.3222   24.5437 N   0  0  0  0  0  0  0  0  0  0  0  0
    5.2343  -23.8127   25.5279 C   0  0  1  0  0  0  0  0  0  0  0  0
    6.1601  -22.6918   25.9084 C   0  0  0  0  0  0  0  0  0  0  0  0
    7.3120  -23.0848   26.7668 C   0  0  0  0  0  0  0  0  0  0  0  0
    8.1665  -21.9135   27.1759 C   0  0  0  0  0  0  0  0  0  0  0  0
    9.2672  -22.4015   28.0964 C   0  0  0  0  0  0  0  0  0  0  0  0
   10.0565  -21.2941   28.6180 N   0  0  0  0  0  0  0  0  0  0  0  0
    4.5415  -24.4013   26.7010 C   0  0  0  0  0  0  0  0  0  0  0  0
    5.1702  -25.3640   27.5069 O   0  0  0  0  0  0  0  0  0  0  0  0
    3.3767  -24.0848   27.0415 O   0  0  0  0  0  0  0  0  0  0  0  0
  2  1  1  6
  2  3  1  0
  4  3  1  0
  5  4  2  0
  6  7  2  0
  6  2  1  0
  8  4  1  0
  9  6  1  0
 10  9  1  0
 10 11  1  6
 12 11  1  0
 13 12  2  0
 14 10  1  0
 14 15  2  0
 16 12  1  0
 17 14  1  0
 18 17  1  0
 18 19  1  1
 19 20  1  0
 20 21  1  0
 21 22  1  0
 23 22  1  0
 24 18  1  0
 25 24  1  0
 26 24  2  0
M  END
$$$$
