AGR.pdb
     RDKit          3D

 21 20  0  0  1  0  0  0  0  0999 V2000
   23.7034  -16.3289  -20.1354 C   0  0  0  0  0  0  0  0  0  0  0  0
   24.1529  -17.5791  -19.3681 C   0  0  2  0  0  0  0  0  0  0  0  0
   23.6498  -18.7700  -20.0204 N   0  0  0  0  0  0  0  0  0  0  0  0
   23.6122  -17.5172  -18.0002 C   0  0  0  0  0  0  0  0  0  0  0  0
   24.1357  -16.6596  -17.2029 O   0  0  0  0  0  0  0  0  0  0  0  0
   22.5624  -18.3416  -17.5294 N   0  0  0  0  0  0  0  0  0  0  0  0
   22.0585  -18.1559  -16.2061 C   0  0  0  0  0  0  0  0  0  0  0  0
   22.2415  -19.3321  -15.3343 C   0  0  0  0  0  0  0  0  0  0  0  0
   21.9466  -20.4868  -15.7798 O   0  0  0  0  0  0  0  0  0  0  0  0
   27.6418  -20.7599   -8.6601 N   0  0  0  0  0  0  0  0  0  0  0  0
   27.6457  -21.0566  -10.0464 C   0  0  0  0  0  0  0  0  0  0  0  0
   28.7711  -21.1900  -10.6441 N   0  0  0  0  0  0  0  0  0  0  0  0
   26.4498  -21.2066  -10.7761 N   0  0  0  0  0  0  0  0  0  0  0  0
   25.1822  -21.0956  -10.1136 C   0  0  0  0  0  0  0  0  0  0  0  0
   24.1146  -21.3428  -11.1838 C   0  0  0  0  0  0  0  0  0  0  0  0
   23.8355  -20.1391  -12.0231 C   0  0  0  0  0  0  0  0  0  0  0  0
   22.9240  -20.4413  -13.1524 C   0  0  2  0  0  0  0  0  0  0  0  0
   22.7312  -19.2675  -14.0132 N   0  0  0  0  0  0  0  0  0  0  0  0
   21.6729  -21.0392  -12.7492 C   0  0  0  0  0  0  0  0  0  0  0  0
   21.5240  -22.3033  -12.8721 O   0  0  0  0  0  0  0  0  0  0  0  0
   20.6202  -20.3378  -12.2347 O   0  0  0  0  0  0  0  0  0  0  0  0
  2  1  1  6
  2  4  1  0
  2  3  1  0
  4  5  2  0
  6  4  1  0
  6  7  1  0
  7  8  1  0
  8  9  2  0
 10 11  1  0
 11 13  1  0
 11 12  2  0
 13 14  1  0
 14 15  1  0
 15 16  1  0
 17 16  1  1
 17 19  1  0
 18  8  1  0
 18 17  1  0
 19 21  1  0
 20 19  2  0
M  END
$$$$
