AGR.pdb
     RDKit          3D

 21 20  0  0  1  0  0  0  0  0999 V2000
   33.5136   -9.1659  -16.7107 C   0  0  0  0  0  0  0  0  0  0  0  0
   32.9264   -8.5257  -17.9753 C   0  0  2  0  0  0  0  0  0  0  0  0
   32.6380   -7.1270  -17.7360 N   0  0  0  0  0  0  0  0  0  0  0  0
   31.6757   -9.2202  -18.3228 C   0  0  0  0  0  0  0  0  0  0  0  0
   31.7719  -10.4397  -18.7087 O   0  0  0  0  0  0  0  0  0  0  0  0
   30.3955   -8.6205  -18.2535 N   0  0  0  0  0  0  0  0  0  0  0  0
   29.2376   -9.3886  -18.5834 C   0  0  0  0  0  0  0  0  0  0  0  0
   27.9680   -8.6807  -18.3307 C   0  0  0  0  0  0  0  0  0  0  0  0
   27.9997   -7.4848  -17.8975 O   0  0  0  0  0  0  0  0  0  0  0  0
   19.2205  -10.0172  -20.4216 N   0  0  0  0  0  0  0  0  0  0  0  0
   19.4686   -8.6858  -20.0023 C   0  0  0  0  0  0  0  0  0  0  0  0
   18.5049   -7.8419  -20.0307 N   0  0  0  0  0  0  0  0  0  0  0  0
   20.7405   -8.2728  -19.5586 N   0  0  0  0  0  0  0  0  0  0  0  0
   21.8336   -9.2015  -19.5382 C   0  0  0  0  0  0  0  0  0  0  0  0
   23.0452   -8.4281  -19.0089 C   0  0  0  0  0  0  0  0  0  0  0  0
   24.2979   -9.2414  -18.9904 C   0  0  0  0  0  0  0  0  0  0  0  0
   25.4332   -8.5096  -18.3794 C   0  0  2  0  0  0  0  0  0  0  0  0
   26.6931   -9.2465  -18.5397 N   0  0  0  0  0  0  0  0  0  0  0  0
   25.2010   -8.1081  -17.0119 C   0  0  0  0  0  0  0  0  0  0  0  0
   25.5414   -8.9015  -16.0685 O   0  0  0  0  0  0  0  0  0  0  0  0
   24.6356   -6.9192  -16.6488 O   0  0  0  0  0  0  0  0  0  0  0  0
  2  1  1  1
  2  4  1  0
  2  3  1  0
  4  5  2  0
  6  4  1  0
  6  7  1  0
  7  8  1  0
  8  9  2  0
 10 11  1  0
 11 13  1  0
 11 12  2  0
 13 14  1  0
 14 15  1  0
 15 16  1  0
 17 16  1  1
 17 19  1  0
 18  8  1  0
 18 17  1  0
 19 21  1  0
 20 19  2  0
M  END
$$$$
