AGR.pdb
     RDKit          3D

 21 20  0  0  1  0  0  0  0  0999 V2000
   26.9897  -19.5474  -18.6763 C   0  0  0  0  0  0  0  0  0  0  0  0
   27.7395  -20.5559  -17.7961 C   0  0  2  0  0  0  0  0  0  0  0  0
   26.8659  -21.6568  -17.4475 N   0  0  0  0  0  0  0  0  0  0  0  0
   28.1737  -19.8796  -16.5626 C   0  0  0  0  0  0  0  0  0  0  0  0
   28.4379  -18.6271  -16.6446 O   0  0  0  0  0  0  0  0  0  0  0  0
   28.3115  -20.5305  -15.3133 N   0  0  0  0  0  0  0  0  0  0  0  0
   28.5741  -19.7588  -14.1407 C   0  0  0  0  0  0  0  0  0  0  0  0
   27.3893  -19.5669  -13.2828 C   0  0  0  0  0  0  0  0  0  0  0  0
   26.8294  -18.4251  -13.2440 O   0  0  0  0  0  0  0  0  0  0  0  0
   19.5876  -21.9990  -14.9556 N   0  0  0  0  0  0  0  0  0  0  0  0
   19.5667  -21.2393  -13.7589 C   0  0  0  0  0  0  0  0  0  0  0  0
   18.4515  -20.7516  -13.3588 N   0  0  0  0  0  0  0  0  0  0  0  0
   20.7351  -21.0099  -13.0055 N   0  0  0  0  0  0  0  0  0  0  0  0
   22.0258  -21.2212  -13.5946 C   0  0  0  0  0  0  0  0  0  0  0  0
   23.0536  -20.7772  -12.5492 C   0  0  0  0  0  0  0  0  0  0  0  0
   24.4643  -20.9007  -13.0242 C   0  0  0  0  0  0  0  0  0  0  0  0
   25.4445  -20.5434  -11.9709 C   0  0  2  0  0  0  0  0  0  0  0  0
   26.8194  -20.5807  -12.4847 N   0  0  0  0  0  0  0  0  0  0  0  0
   25.2925  -21.3007  -10.7507 C   0  0  0  0  0  0  0  0  0  0  0  0
   24.4931  -20.8689   -9.8508 O   0  0  0  0  0  0  0  0  0  0  0  0
   25.9522  -22.4668  -10.4865 O   0  0  0  0  0  0  0  0  0  0  0  0
  2  1  1  6
  2  4  1  0
  2  3  1  0
  4  5  2  0
  6  4  1  0
  6  7  1  0
  7  8  1  0
  8  9  2  0
 10 11  1  0
 11 13  1  0
 11 12  2  0
 13 14  1  0
 14 15  1  0
 15 16  1  0
 17 16  1  6
 17 19  1  0
 18  8  1  0
 18 17  1  0
 19 21  1  0
 20 19  2  0
M  END
$$$$
