AGR.pdb
     RDKit          3D

 21 20  0  0  1  0  0  0  0  0999 V2000
   18.4564  -18.4350  -15.3752 C   0  0  0  0  0  0  0  0  0  0  0  0
   19.5609  -19.4893  -15.5247 C   0  0  2  0  0  0  0  0  0  0  0  0
   19.0164  -20.8135  -15.3082 N   0  0  0  0  0  0  0  0  0  0  0  0
   20.6046  -19.2302  -14.5191 C   0  0  0  0  0  0  0  0  0  0  0  0
   20.2610  -18.5636  -13.4785 O   0  0  0  0  0  0  0  0  0  0  0  0
   21.9437  -19.6719  -14.6409 N   0  0  0  0  0  0  0  0  0  0  0  0
   22.5622  -19.7032  -15.9278 C   0  0  0  0  0  0  0  0  0  0  0  0
   23.6823  -18.7530  -16.0676 C   0  0  0  0  0  0  0  0  0  0  0  0
   23.4921  -17.5249  -15.7948 O   0  0  0  0  0  0  0  0  0  0  0  0
   27.7131  -21.1847  -12.0506 N   0  0  0  0  0  0  0  0  0  0  0  0
   26.6044  -20.6598  -12.7612 C   0  0  0  0  0  0  0  0  0  0  0  0
   25.4334  -21.1034  -12.4899 N   0  0  0  0  0  0  0  0  0  0  0  0
   26.7596  -19.6694  -13.7513 N   0  0  0  0  0  0  0  0  0  0  0  0
   27.9700  -18.9025  -13.8205 C   0  0  0  0  0  0  0  0  0  0  0  0
   27.8157  -17.9627  -15.0202 C   0  0  0  0  0  0  0  0  0  0  0  0
   27.3611  -18.6626  -16.2589 C   0  0  0  0  0  0  0  0  0  0  0  0
   26.0566  -18.1530  -16.7451 C   0  0  2  0  0  0  0  0  0  0  0  0
   24.9777  -19.1160  -16.4911 N   0  0  0  0  0  0  0  0  0  0  0  0
   26.0803  -17.7025  -18.1169 C   0  0  0  0  0  0  0  0  0  0  0  0
   26.0202  -18.5709  -19.0537 O   0  0  0  0  0  0  0  0  0  0  0  0
   26.1613  -16.3915  -18.4906 O   0  0  0  0  0  0  0  0  0  0  0  0
  2  1  1  1
  2  4  1  0
  2  3  1  0
  4  5  2  0
  6  4  1  0
  6  7  1  0
  7  8  1  0
  8  9  2  0
 10 11  1  0
 11 13  1  0
 11 12  2  0
 13 14  1  0
 14 15  1  0
 15 16  1  0
 17 16  1  6
 17 19  1  0
 18  8  1  0
 18 17  1  0
 19 21  1  0
 20 19  2  0
M  END
$$$$
