AGR.pdb
     RDKit          3D

 21 20  0  0  1  0  0  0  0  0999 V2000
   21.5738  -15.3205  -20.1307 C   0  0  0  0  0  0  0  0  0  0  0  0
   20.8405  -16.3043  -19.2098 C   0  0  2  0  0  0  0  0  0  0  0  0
   20.6901  -15.7304  -17.8889 N   0  0  0  0  0  0  0  0  0  0  0  0
   21.6330  -17.5408  -19.1077 C   0  0  0  0  0  0  0  0  0  0  0  0
   21.1932  -18.5704  -19.7335 O   0  0  0  0  0  0  0  0  0  0  0  0
   22.8345  -17.6481  -18.3673 N   0  0  0  0  0  0  0  0  0  0  0  0
   23.5201  -18.8997  -18.3122 C   0  0  0  0  0  0  0  0  0  0  0  0
   23.0723  -19.7699  -17.2081 C   0  0  0  0  0  0  0  0  0  0  0  0
   22.6051  -20.9225  -17.4766 O   0  0  0  0  0  0  0  0  0  0  0  0
   25.7729  -21.4224   -9.0946 N   0  0  0  0  0  0  0  0  0  0  0  0
   26.1743  -21.1192  -10.4201 C   0  0  0  0  0  0  0  0  0  0  0  0
   27.3888  -21.3427  -10.7618 N   0  0  0  0  0  0  0  0  0  0  0  0
   25.2754  -20.5818  -11.3627 N   0  0  0  0  0  0  0  0  0  0  0  0
   23.8721  -20.5258  -11.0702 C   0  0  0  0  0  0  0  0  0  0  0  0
   23.1470  -20.8801  -12.3721 C   0  0  0  0  0  0  0  0  0  0  0  0
   23.5226  -19.9922  -13.5130 C   0  0  0  0  0  0  0  0  0  0  0  0
   22.7596  -20.3074  -14.7444 C   0  0  2  0  0  0  0  0  0  0  0  0
   23.1262  -19.4084  -15.8458 N   0  0  0  0  0  0  0  0  0  0  0  0
   21.3312  -20.3781  -14.5442 C   0  0  0  0  0  0  0  0  0  0  0  0
   20.7947  -21.5162  -14.3157 O   0  0  0  0  0  0  0  0  0  0  0  0
   20.4989  -19.2960  -14.5802 O   0  0  0  0  0  0  0  0  0  0  0  0
  2  1  1  6
  2  4  1  0
  2  3  1  0
  4  5  2  0
  6  4  1  0
  6  7  1  0
  7  8  1  0
  8  9  2  0
 10 11  1  0
 11 13  1  0
 11 12  2  0
 13 14  1  0
 14 15  1  0
 15 16  1  0
 17 16  1  1
 17 19  1  0
 18  8  1  0
 18 17  1  0
 19 21  1  0
 20 19  2  0
M  END
$$$$
