AGR.pdb
     RDKit          3D

 21 20  0  0  1  0  0  0  0  0999 V2000
   27.9151  -14.0043  -18.0235 C   0  0  0  0  0  0  0  0  0  0  0  0
   26.6344  -14.4751  -17.3220 C   0  0  2  0  0  0  0  0  0  0  0  0
   25.6472  -14.8720  -18.3042 N   0  0  0  0  0  0  0  0  0  0  0  0
   26.0945  -13.3634  -16.5220 C   0  0  0  0  0  0  0  0  0  0  0  0
   26.7822  -12.9853  -15.5075 O   0  0  0  0  0  0  0  0  0  0  0  0
   24.8766  -12.7028  -16.8113 N   0  0  0  0  0  0  0  0  0  0  0  0
   24.3810  -11.7106  -15.9117 C   0  0  0  0  0  0  0  0  0  0  0  0
   23.1887  -11.0013  -16.4138 C   0  0  0  0  0  0  0  0  0  0  0  0
   22.8143  -11.1898  -17.6151 O   0  0  0  0  0  0  0  0  0  0  0  0
   14.8215  -10.6566  -14.2480 N   0  0  0  0  0  0  0  0  0  0  0  0
   15.0352   -9.7787  -15.3404 C   0  0  0  0  0  0  0  0  0  0  0  0
   14.0207   -9.2208  -15.8894 N   0  0  0  0  0  0  0  0  0  0  0  0
   16.3274   -9.5079  -15.8324 N   0  0  0  0  0  0  0  0  0  0  0  0
   17.4699  -10.1514  -15.2507 C   0  0  0  0  0  0  0  0  0  0  0  0
   18.6962   -9.5880  -15.9754 C   0  0  0  0  0  0  0  0  0  0  0  0
   19.9869  -10.1215  -15.4458 C   0  0  0  0  0  0  0  0  0  0  0  0
   21.1624   -9.5002  -16.1016 C   0  0  2  0  0  0  0  0  0  0  0  0
   22.4163  -10.1095  -15.6408 N   0  0  0  0  0  0  0  0  0  0  0  0
   21.1862   -8.0589  -16.0134 C   0  0  0  0  0  0  0  0  0  0  0  0
   21.9935   -7.5032  -15.1920 O   0  0  0  0  0  0  0  0  0  0  0  0
   20.3951   -7.2334  -16.7601 O   0  0  0  0  0  0  0  0  0  0  0  0
  2  1  1  6
  2  4  1  0
  2  3  1  0
  4  5  2  0
  6  4  1  0
  6  7  1  0
  7  8  1  0
  8  9  2  0
 10 11  1  0
 11 13  1  0
 11 12  2  0
 13 14  1  0
 14 15  1  0
 15 16  1  0
 17 16  1  1
 17 19  1  0
 18  8  1  0
 18 17  1  0
 19 21  1  0
 20 19  2  0
M  END
$$$$
