AGR.pdb
     RDKit          3D

 21 20  0  0  1  0  0  0  0  0999 V2000
   26.7129  -15.4681  -15.1877 C   0  0  0  0  0  0  0  0  0  0  0  0
   26.0474  -16.4831  -16.1262 C   0  0  2  0  0  0  0  0  0  0  0  0
   25.9255  -15.9241  -17.4564 N   0  0  0  0  0  0  0  0  0  0  0  0
   24.7034  -16.7951  -15.6126 C   0  0  0  0  0  0  0  0  0  0  0  0
   24.6247  -17.2362  -14.4107 O   0  0  0  0  0  0  0  0  0  0  0  0
   23.5152  -16.6353  -16.3650 N   0  0  0  0  0  0  0  0  0  0  0  0
   23.0165  -17.7284  -17.1370 C   0  0  0  0  0  0  0  0  0  0  0  0
   22.3303  -18.7560  -16.3306 C   0  0  0  0  0  0  0  0  0  0  0  0
   21.9859  -19.8498  -16.8819 O   0  0  0  0  0  0  0  0  0  0  0  0
   26.4067  -21.4260  -10.9420 N   0  0  0  0  0  0  0  0  0  0  0  0
   25.2455  -21.1115  -10.1919 C   0  0  0  0  0  0  0  0  0  0  0  0
   25.3749  -20.8165   -8.9517 N   0  0  0  0  0  0  0  0  0  0  0  0
   23.9625  -21.1163  -10.7743 N   0  0  0  0  0  0  0  0  0  0  0  0
   23.7943  -21.5056  -12.1447 C   0  0  0  0  0  0  0  0  0  0  0  0
   23.5135  -20.2184  -12.9261 C   0  0  0  0  0  0  0  0  0  0  0  0
   22.0953  -19.7629  -12.8159 C   0  0  0  0  0  0  0  0  0  0  0  0
   21.4306  -19.6718  -14.1378 C   0  0  2  0  0  0  0  0  0  0  0  0
   22.0219  -18.6103  -14.9621 N   0  0  0  0  0  0  0  0  0  0  0  0
   19.9918  -19.5726  -14.0624 C   0  0  0  0  0  0  0  0  0  0  0  0
   19.4605  -18.4250  -13.8732 O   0  0  0  0  0  0  0  0  0  0  0  0
   19.1441  -20.6363  -14.1833 O   0  0  0  0  0  0  0  0  0  0  0  0
  2  1  1  1
  2  4  1  0
  2  3  1  0
  4  5  2  0
  6  4  1  0
  6  7  1  0
  7  8  1  0
  8  9  2  0
 10 11  1  0
 11 13  1  0
 11 12  2  0
 13 14  1  0
 14 15  1  0
 15 16  1  0
 17 16  1  1
 17 19  1  0
 18  8  1  0
 18 17  1  0
 19 21  1  0
 20 19  2  0
M  END
$$$$
