AGR.pdb
     RDKit          3D

 21 20  0  0  1  0  0  0  0  0999 V2000
   19.9490  -19.7551  -20.4578 C   0  0  0  0  0  0  0  0  0  0  0  0
   20.5093  -20.7548  -19.4377 C   0  0  2  0  0  0  0  0  0  0  0  0
   20.1035  -20.3791  -18.0995 N   0  0  0  0  0  0  0  0  0  0  0  0
   21.9794  -20.7390  -19.5149 C   0  0  0  0  0  0  0  0  0  0  0  0
   22.5094  -21.0636  -20.6369 O   0  0  0  0  0  0  0  0  0  0  0  0
   22.8219  -20.3896  -18.4325 N   0  0  0  0  0  0  0  0  0  0  0  0
   24.2360  -20.3409  -18.6262 C   0  0  0  0  0  0  0  0  0  0  0  0
   24.9813  -19.9088  -17.4284 C   0  0  0  0  0  0  0  0  0  0  0  0
   24.9511  -18.6835  -17.0870 O   0  0  0  0  0  0  0  0  0  0  0  0
   24.1187  -20.5177   -9.6455 N   0  0  0  0  0  0  0  0  0  0  0  0
   25.5120  -20.7739   -9.5904 C   0  0  0  0  0  0  0  0  0  0  0  0
   26.0559  -20.9761   -8.4480 N   0  0  0  0  0  0  0  0  0  0  0  0
   26.3059  -20.8107  -10.7538 N   0  0  0  0  0  0  0  0  0  0  0  0
   25.7657  -21.3247  -11.9793 C   0  0  0  0  0  0  0  0  0  0  0  0
   26.8611  -21.1553  -13.0366 C   0  0  0  0  0  0  0  0  0  0  0  0
   26.4195  -21.5515  -14.4074 C   0  0  0  0  0  0  0  0  0  0  0  0
   26.3196  -20.3896  -15.3226 C   0  0  2  0  0  0  0  0  0  0  0  0
   25.7417  -20.7755  -16.6160 N   0  0  0  0  0  0  0  0  0  0  0  0
   27.5535  -19.6537  -15.4690 C   0  0  0  0  0  0  0  0  0  0  0  0
   27.8372  -18.7465  -14.6136 O   0  0  0  0  0  0  0  0  0  0  0  0
   28.4553  -19.8637  -16.4727 O   0  0  0  0  0  0  0  0  0  0  0  0
  2  1  1  6
  2  4  1  0
  2  3  1  0
  4  5  2  0
  6  4  1  0
  6  7  1  0
  7  8  1  0
  8  9  2  0
 10 11  1  0
 11 13  1  0
 11 12  2  0
 13 14  1  0
 14 15  1  0
 15 16  1  0
 17 16  1  1
 17 19  1  0
 18  8  1  0
 18 17  1  0
 19 21  1  0
 20 19  2  0
M  END
$$$$
