AGR.pdb
     RDKit          3D

 21 20  0  0  1  0  0  0  0  0999 V2000
   28.2432  -17.5924  -19.5411 C   0  0  0  0  0  0  0  0  0  0  0  0
   28.4694  -18.1475  -18.1287 C   0  0  2  0  0  0  0  0  0  0  0  0
   28.5686  -19.5914  -18.1724 N   0  0  0  0  0  0  0  0  0  0  0  0
   27.3259  -17.7711  -17.2814 C   0  0  0  0  0  0  0  0  0  0  0  0
   27.5902  -17.2164  -16.1554 O   0  0  0  0  0  0  0  0  0  0  0  0
   25.9738  -17.9866  -17.6405 N   0  0  0  0  0  0  0  0  0  0  0  0
   24.9330  -17.5495  -16.7658 C   0  0  0  0  0  0  0  0  0  0  0  0
   24.0391  -18.6363  -16.3227 C   0  0  0  0  0  0  0  0  0  0  0  0
   23.0370  -18.9480  -17.0422 O   0  0  0  0  0  0  0  0  0  0  0  0
   24.6162  -26.2304  -15.1351 N   0  0  0  0  0  0  0  0  0  0  0  0
   23.4258  -26.0575  -14.3848 C   0  0  0  0  0  0  0  0  0  0  0  0
   22.6335  -27.0553  -14.2488 N   0  0  0  0  0  0  0  0  0  0  0  0
   23.0965  -24.8233  -13.7902 N   0  0  0  0  0  0  0  0  0  0  0  0
   23.9564  -23.6880  -13.9623 C   0  0  0  0  0  0  0  0  0  0  0  0
   23.2463  -22.5058  -13.2956 C   0  0  0  0  0  0  0  0  0  0  0  0
   23.9230  -21.1980  -13.5463 C   0  0  0  0  0  0  0  0  0  0  0  0
   23.3649  -20.4943  -14.7258 C   0  0  2  0  0  0  0  0  0  0  0  0
   24.2192  -19.3716  -15.1326 N   0  0  0  0  0  0  0  0  0  0  0  0
   21.9821  -20.1067  -14.5742 C   0  0  0  0  0  0  0  0  0  0  0  0
   21.7059  -19.0489  -13.9108 O   0  0  0  0  0  0  0  0  0  0  0  0
   20.9306  -20.8010  -15.1004 O   0  0  0  0  0  0  0  0  0  0  0  0
  2  1  1  6
  2  4  1  0
  2  3  1  0
  4  5  2  0
  6  4  1  0
  6  7  1  0
  7  8  1  0
  8  9  2  0
 10 11  1  0
 11 13  1  0
 11 12  2  0
 13 14  1  0
 14 15  1  0
 15 16  1  0
 17 16  1  1
 17 19  1  0
 18  8  1  0
 18 17  1  0
 19 21  1  0
 20 19  2  0
M  END
$$$$
