AGR.pdb
     RDKit          3D

 21 20  0  0  1  0  0  0  0  0999 V2000
   23.9299  -17.2693  -15.7030 C   0  0  0  0  0  0  0  0  0  0  0  0
   23.4458  -18.6410  -16.1908 C   0  0  2  0  0  0  0  0  0  0  0  0
   22.3333  -18.4794  -17.1035 N   0  0  0  0  0  0  0  0  0  0  0  0
   23.0021  -19.4291  -15.0292 C   0  0  0  0  0  0  0  0  0  0  0  0
   23.8494  -19.6018  -14.0818 O   0  0  0  0  0  0  0  0  0  0  0  0
   21.7106  -19.9954  -14.9076 N   0  0  0  0  0  0  0  0  0  0  0  0
   21.3362  -20.6444  -13.6918 C   0  0  0  0  0  0  0  0  0  0  0  0
   19.9623  -21.1817  -13.7083 C   0  0  0  0  0  0  0  0  0  0  0  0
   19.1283  -20.7276  -14.5552 O   0  0  0  0  0  0  0  0  0  0  0  0
   19.3856  -24.9274   -7.4625 N   0  0  0  0  0  0  0  0  0  0  0  0
   18.0715  -24.4196   -7.3039 C   0  0  0  0  0  0  0  0  0  0  0  0
   17.6724  -24.1012   -6.1287 N   0  0  0  0  0  0  0  0  0  0  0  0
   17.2013  -24.2587   -8.4002 N   0  0  0  0  0  0  0  0  0  0  0  0
   17.5561  -24.7867   -9.6859 C   0  0  0  0  0  0  0  0  0  0  0  0
   17.7108  -23.5811  -10.6182 C   0  0  0  0  0  0  0  0  0  0  0  0
   18.0413  -23.9649  -12.0234 C   0  0  0  0  0  0  0  0  0  0  0  0
   18.1587  -22.7859  -12.9143 C   0  0  2  0  0  0  0  0  0  0  0  0
   19.4961  -22.1853  -12.8338 N   0  0  0  0  0  0  0  0  0  0  0  0
   17.1069  -21.8124  -12.7363 C   0  0  0  0  0  0  0  0  0  0  0  0
   17.3104  -20.8179  -11.9586 O   0  0  0  0  0  0  0  0  0  0  0  0
   15.8900  -21.8792  -13.3524 O   0  0  0  0  0  0  0  0  0  0  0  0
  2  1  1  1
  2  4  1  0
  2  3  1  0
  4  5  2  0
  6  4  1  0
  6  7  1  0
  7  8  1  0
  8  9  2  0
 10 11  1  0
 11 13  1  0
 11 12  2  0
 13 14  1  0
 14 15  1  0
 15 16  1  0
 17 16  1  1
 17 19  1  0
 18  8  1  0
 18 17  1  0
 19 21  1  0
 20 19  2  0
M  END
$$$$
