AGR.pdb
     RDKit          3D

 21 20  0  0  1  0  0  0  0  0999 V2000
   18.7257  -16.1749  -17.6263 C   0  0  0  0  0  0  0  0  0  0  0  0
   20.0434  -16.7153  -18.1969 C   0  0  2  0  0  0  0  0  0  0  0  0
   19.7761  -17.7772  -19.1444 N   0  0  0  0  0  0  0  0  0  0  0  0
   20.8551  -17.2520  -17.0921 C   0  0  0  0  0  0  0  0  0  0  0  0
   20.2262  -17.7948  -16.1147 O   0  0  0  0  0  0  0  0  0  0  0  0
   22.2691  -17.2001  -17.0552 N   0  0  0  0  0  0  0  0  0  0  0  0
   22.9655  -17.7313  -15.9272 C   0  0  0  0  0  0  0  0  0  0  0  0
   24.4337  -17.6878  -16.0659 C   0  0  0  0  0  0  0  0  0  0  0  0
   24.9420  -17.3378  -17.1786 O   0  0  0  0  0  0  0  0  0  0  0  0
   24.7020  -21.9422  -11.4825 N   0  0  0  0  0  0  0  0  0  0  0  0
   25.8198  -21.2340  -10.9735 C   0  0  0  0  0  0  0  0  0  0  0  0
   25.6799  -20.5560   -9.8953 N   0  0  0  0  0  0  0  0  0  0  0  0
   27.0708  -21.2584  -11.6212 N   0  0  0  0  0  0  0  0  0  0  0  0
   27.6849  -20.0347  -12.0493 C   0  0  0  0  0  0  0  0  0  0  0  0
   26.9917  -19.6402  -13.3570 C   0  0  0  0  0  0  0  0  0  0  0  0
   27.4725  -18.3368  -13.9058 C   0  0  0  0  0  0  0  0  0  0  0  0
   26.7957  -17.9783  -15.1751 C   0  0  2  0  0  0  0  0  0  0  0  0
   25.3349  -18.0132  -15.0309 N   0  0  0  0  0  0  0  0  0  0  0  0
   27.2541  -18.7362  -16.3157 C   0  0  0  0  0  0  0  0  0  0  0  0
   26.7464  -19.8890  -16.5363 O   0  0  0  0  0  0  0  0  0  0  0  0
   28.2065  -18.3000  -17.1917 O   0  0  0  0  0  0  0  0  0  0  0  0
  2  1  1  1
  2  4  1  0
  2  3  1  0
  4  5  2  0
  6  4  1  0
  6  7  1  0
  7  8  1  0
  8  9  2  0
 10 11  1  0
 11 13  1  0
 11 12  2  0
 13 14  1  0
 14 15  1  0
 15 16  1  0
 17 16  1  1
 17 19  1  0
 18  8  1  0
 18 17  1  0
 19 21  1  0
 20 19  2  0
M  END
$$$$
