AGR.pdb
     RDKit          3D

 21 20  0  0  1  0  0  0  0  0999 V2000
   18.0926  -27.1845   -2.0346 C   0  0  0  0  0  0  0  0  0  0  0  0
   16.9285  -27.8753   -1.3124 C   0  0  2  0  0  0  0  0  0  0  0  0
   16.3386  -28.8816   -2.1705 N   0  0  0  0  0  0  0  0  0  0  0  0
   15.9072  -26.8669   -0.9843 C   0  0  0  0  0  0  0  0  0  0  0  0
   14.7353  -27.0404   -1.4760 O   0  0  0  0  0  0  0  0  0  0  0  0
   16.1494  -25.7363   -0.1680 N   0  0  0  0  0  0  0  0  0  0  0  0
   15.0585  -24.9020    0.2237 C   0  0  0  0  0  0  0  0  0  0  0  0
   15.4646  -23.7473    1.0475 C   0  0  0  0  0  0  0  0  0  0  0  0
   16.7021  -23.5402    1.2589 O   0  0  0  0  0  0  0  0  0  0  0  0
   10.2252  -17.0387    1.2305 N   0  0  0  0  0  0  0  0  0  0  0  0
   10.9592  -17.5212    0.1177 C   0  0  0  0  0  0  0  0  0  0  0  0
   10.6767  -17.0709   -1.0481 N   0  0  0  0  0  0  0  0  0  0  0  0
   11.9840  -18.4772    0.2632 N   0  0  0  0  0  0  0  0  0  0  0  0
   12.2736  -19.0329    1.5536 C   0  0  0  0  0  0  0  0  0  0  0  0
   13.4419  -20.0028    1.3518 C   0  0  0  0  0  0  0  0  0  0  0  0
   13.8285  -20.7235    2.6017 C   0  0  0  0  0  0  0  0  0  0  0  0
   14.9690  -21.6462    2.3877 C   0  0  2  0  0  0  0  0  0  0  0  0
   14.5599  -22.8357    1.6303 N   0  0  0  0  0  0  0  0  0  0  0  0
   15.6828  -21.9827    3.5971 C   0  0  0  0  0  0  0  0  0  0  0  0
   15.5571  -23.1593    4.0819 O   0  0  0  0  0  0  0  0  0  0  0  0
   16.4984  -21.1185    4.2699 O   0  0  0  0  0  0  0  0  0  0  0  0
  2  1  1  6
  2  4  1  0
  2  3  1  0
  4  5  2  0
  6  4  1  0
  6  7  1  0
  7  8  1  0
  8  9  2  0
 10 11  1  0
 11 13  1  0
 11 12  2  0
 13 14  1  0
 14 15  1  0
 15 16  1  0
 17 16  1  1
 17 19  1  0
 18  8  1  0
 18 17  1  0
 19 21  1  0
 20 19  2  0
M  END
$$$$
