AGR.pdb
     RDKit          3D

 21 20  0  0  1  0  0  0  0  0999 V2000
   32.8752  -12.3197  -18.8810 C   0  0  0  0  0  0  0  0  0  0  0  0
   31.4746  -12.8435  -19.2240 C   0  0  2  0  0  0  0  0  0  0  0  0
   30.8635  -12.0040  -20.2332 N   0  0  0  0  0  0  0  0  0  0  0  0
   30.6447  -12.8126  -18.0084 C   0  0  0  0  0  0  0  0  0  0  0  0
   30.9462  -13.6377  -17.0736 O   0  0  0  0  0  0  0  0  0  0  0  0
   29.5509  -11.9338  -17.8227 N   0  0  0  0  0  0  0  0  0  0  0  0
   28.7939  -11.9950  -16.6133 C   0  0  0  0  0  0  0  0  0  0  0  0
   27.4497  -12.5779  -16.7871 C   0  0  0  0  0  0  0  0  0  0  0  0
   26.8445  -12.4229  -17.8955 O   0  0  0  0  0  0  0  0  0  0  0  0
   23.7035  -20.0203  -14.9746 N   0  0  0  0  0  0  0  0  0  0  0  0
   22.6538  -19.1518  -15.3667 C   0  0  0  0  0  0  0  0  0  0  0  0
   21.5221  -19.6596  -15.6877 N   0  0  0  0  0  0  0  0  0  0  0  0
   22.8254  -17.7540  -15.4112 N   0  0  0  0  0  0  0  0  0  0  0  0
   24.0966  -17.1730  -15.0881 C   0  0  0  0  0  0  0  0  0  0  0  0
   23.8951  -15.6548  -15.1159 C   0  0  0  0  0  0  0  0  0  0  0  0
   25.1566  -14.8912  -14.8777 C   0  0  0  0  0  0  0  0  0  0  0  0
   25.4819  -13.9803  -16.0011 C   0  0  2  0  0  0  0  0  0  0  0  0
   26.7719  -13.3113  -15.7911 N   0  0  0  0  0  0  0  0  0  0  0  0
   24.4256  -13.0496  -16.3230 C   0  0  0  0  0  0  0  0  0  0  0  0
   24.4821  -11.8629  -15.8500 O   0  0  0  0  0  0  0  0  0  0  0  0
   23.3532  -13.3524  -17.1124 O   0  0  0  0  0  0  0  0  0  0  0  0
  2  1  1  1
  2  4  1  0
  2  3  1  0
  4  5  2  0
  6  4  1  0
  6  7  1  0
  7  8  1  0
  8  9  2  0
 10 11  1  0
 11 13  1  0
 11 12  2  0
 13 14  1  0
 14 15  1  0
 15 16  1  0
 17 16  1  1
 17 19  1  0
 18  8  1  0
 18 17  1  0
 19 21  1  0
 20 19  2  0
M  END
$$$$
