CKV.pdb
     RDKit          3D

 23 22  0  0  1  0  0  0  0  0999 V2000
    8.3484  -17.0101   19.0499 N   0  0  0  0  0  0  0  0  0  0  0  0
    8.9663  -17.4497   20.2640 C   0  0  1  0  0  0  0  0  0  0  0  0
   10.4156  -16.9675   20.3557 C   0  0  0  0  0  0  0  0  0  0  0  0
   10.5086  -15.1846   20.5660 S   0  0  0  0  0  0  0  0  0  0  0  0
    8.1993  -16.9482   21.4336 C   0  0  0  0  0  0  0  0  0  0  0  0
    7.4355  -15.9430   21.2583 O   0  0  0  0  0  0  0  0  0  0  0  0
    8.2808  -17.5356   22.7244 N   0  0  0  0  0  0  0  0  0  0  0  0
    7.4102  -17.0993   23.7871 C   0  0  1  0  0  0  0  0  0  0  0  0
    6.9514  -18.2448   24.6597 C   0  0  0  0  0  0  0  0  0  0  0  0
    5.6543  -18.8485   24.1764 C   0  0  0  0  0  0  0  0  0  0  0  0
    6.0099  -19.9895   23.2463 C   0  0  0  0  0  0  0  0  0  0  0  0
    4.7720  -20.6351   22.6613 C   0  0  0  0  0  0  0  0  0  0  0  0
    5.1644  -21.7070   21.7700 N   0  0  0  0  0  0  0  0  0  0  0  0
    8.0259  -16.0110   24.5840 C   0  0  0  0  0  0  0  0  0  0  0  0
    9.2793  -15.9636   24.6276 O   0  0  0  0  0  0  0  0  0  0  0  0
    7.5399  -11.9211   27.3887 C   0  0  0  0  0  0  0  0  0  0  0  0
    6.8675  -12.9922   26.5681 C   0  0  1  0  0  0  0  0  0  0  0  0
    6.1111  -12.3280   25.4624 C   0  0  0  0  0  0  0  0  0  0  0  0
    7.9006  -13.9741   26.0726 C   0  0  2  0  0  0  0  0  0  0  0  0
    7.3007  -15.0384   25.2868 N   0  0  0  0  0  0  0  0  0  0  0  0
    8.6556  -14.5097   27.2261 C   0  0  0  0  0  0  0  0  0  0  0  0
    8.2984  -15.5977   27.7294 O   0  0  0  0  0  0  0  0  0  0  0  0
    9.7410  -13.8617   27.7754 O   0  0  0  0  0  0  0  0  0  0  0  0
  2  1  1  6
  2  5  1  0
  3  2  1  0
  4  3  1  0
  5  6  2  0
  5  7  1  0
  7  8  1  0
  8  9  1  1
  9 10  1  0
 10 11  1  0
 11 12  1  0
 13 12  1  0
 14 15  2  0
 14  8  1  0
 17 16  1  6
 17 18  1  0
 19 17  1  0
 19 20  1  1
 20 14  1  0
 21 19  1  0
 22 21  2  0
 23 21  1  0
M  END
$$$$
