CKV.pdb
     RDKit          3D

 23 22  0  0  1  0  0  0  0  0999 V2000
    7.5992  -21.5127   24.4585 N   0  0  0  0  0  0  0  0  0  0  0  0
    6.7550  -20.4373   24.8829 C   0  0  1  0  0  0  0  0  0  0  0  0
    6.4318  -20.5408   26.3750 C   0  0  0  0  0  0  0  0  0  0  0  0
    5.4818  -22.0211   26.7461 S   0  0  0  0  0  0  0  0  0  0  0  0
    7.4146  -19.1352   24.6050 C   0  0  0  0  0  0  0  0  0  0  0  0
    8.6045  -18.9676   25.0298 O   0  0  0  0  0  0  0  0  0  0  0  0
    6.7814  -18.0813   23.8935 N   0  0  0  0  0  0  0  0  0  0  0  0
    7.4254  -16.7996   23.7509 C   0  0  1  0  0  0  0  0  0  0  0  0
    6.8902  -16.0165   22.5743 C   0  0  0  0  0  0  0  0  0  0  0  0
    7.6574  -14.7367   22.3420 C   0  0  0  0  0  0  0  0  0  0  0  0
    7.3271  -14.2636   20.9419 C   0  0  0  0  0  0  0  0  0  0  0  0
    8.1193  -13.0279   20.5721 C   0  0  0  0  0  0  0  0  0  0  0  0
    7.7002  -12.5608   19.2669 N   0  0  0  0  0  0  0  0  0  0  0  0
    7.3652  -16.0164   25.0083 C   0  0  0  0  0  0  0  0  0  0  0  0
    6.3722  -16.1955   25.7548 O   0  0  0  0  0  0  0  0  0  0  0  0
    9.6111  -14.3450   28.8755 C   0  0  0  0  0  0  0  0  0  0  0  0
    9.4731  -15.1183   27.5888 C   0  0  1  0  0  0  0  0  0  0  0  0
    9.1876  -16.5458   27.9298 C   0  0  0  0  0  0  0  0  0  0  0  0
    8.4027  -14.4885   26.7316 C   0  0  2  0  0  0  0  0  0  0  0  0
    8.3411  -15.0945   25.4129 N   0  0  0  0  0  0  0  0  0  0  0  0
    8.6401  -13.0310   26.6493 C   0  0  0  0  0  0  0  0  0  0  0  0
    9.3735  -12.5889   25.7376 O   0  0  0  0  0  0  0  0  0  0  0  0
    8.0873  -12.1320   27.5358 O   0  0  0  0  0  0  0  0  0  0  0  0
  2  1  1  1
  2  5  1  0
  3  2  1  0
  4  3  1  0
  5  6  2  0
  5  7  1  0
  7  8  1  0
  8  9  1  6
  9 10  1  0
 10 11  1  0
 11 12  1  0
 13 12  1  0
 14 15  2  0
 14  8  1  0
 17 16  1  1
 17 18  1  0
 19 17  1  0
 19 20  1  6
 20 14  1  0
 21 19  1  0
 22 21  2  0
 23 21  1  0
M  END
$$$$
