CKV.pdb
     RDKit          3D

 23 22  0  0  1  0  0  0  0  0999 V2000
    7.7580  -16.0233   18.0042 N   0  0  0  0  0  0  0  0  0  0  0  0
    8.3190  -15.2089   19.0393 C   0  0  1  0  0  0  0  0  0  0  0  0
    8.1016  -13.7213   18.7545 C   0  0  0  0  0  0  0  0  0  0  0  0
    8.6995  -12.6942   20.1033 S   0  0  0  0  0  0  0  0  0  0  0  0
    7.7086  -15.5603   20.3476 C   0  0  0  0  0  0  0  0  0  0  0  0
    6.4366  -15.5690   20.4282 O   0  0  0  0  0  0  0  0  0  0  0  0
    8.4748  -15.8834   21.4993 N   0  0  0  0  0  0  0  0  0  0  0  0
    7.8275  -16.2403   22.7367 C   0  0  1  0  0  0  0  0  0  0  0  0
    8.0073  -17.7018   23.0774 C   0  0  0  0  0  0  0  0  0  0  0  0
    7.3467  -18.0702   24.3844 C   0  0  0  0  0  0  0  0  0  0  0  0
    7.6648  -19.5263   24.6529 C   0  0  0  0  0  0  0  0  0  0  0  0
    7.0094  -20.0117   25.9281 C   0  0  0  0  0  0  0  0  0  0  0  0
    7.3173  -21.4132   26.1235 N   0  0  0  0  0  0  0  0  0  0  0  0
    8.2541  -15.3580   23.8493 C   0  0  0  0  0  0  0  0  0  0  0  0
    9.4870  -15.1957   24.0193 O   0  0  0  0  0  0  0  0  0  0  0  0
    7.1142  -12.0045   27.3368 C   0  0  0  0  0  0  0  0  0  0  0  0
    6.6190  -13.0004   26.3193 C   0  0  1  0  0  0  0  0  0  0  0  0
    5.8632  -12.2556   25.2658 C   0  0  0  0  0  0  0  0  0  0  0  0
    7.7847  -13.7850   25.7692 C   0  0  2  0  0  0  0  0  0  0  0  0
    7.3726  -14.6981   24.7174 N   0  0  0  0  0  0  0  0  0  0  0  0
    8.4566  -14.4990   26.8765 C   0  0  0  0  0  0  0  0  0  0  0  0
    8.0096  -15.6099   27.2383 O   0  0  0  0  0  0  0  0  0  0  0  0
    9.5589  -13.9943   27.5320 O   0  0  0  0  0  0  0  0  0  0  0  0
  2  1  1  6
  2  5  1  0
  3  2  1  0
  4  3  1  0
  5  6  2  0
  5  7  1  0
  7  8  1  0
  8  9  1  1
  9 10  1  0
 10 11  1  0
 11 12  1  0
 13 12  1  0
 14 15  2  0
 14  8  1  0
 17 16  1  1
 17 18  1  0
 19 17  1  0
 19 20  1  6
 20 14  1  0
 21 19  1  0
 22 21  2  0
 23 21  1  0
M  END
$$$$
