CKV.pdb
     RDKit          3D

 23 22  0  0  1  0  0  0  0  0999 V2000
    7.1602  -15.5846   18.4160 N   0  0  0  0  0  0  0  0  0  0  0  0
    7.9028  -14.8554   19.3988 C   0  0  1  0  0  0  0  0  0  0  0  0
    7.7857  -13.3460   19.1760 C   0  0  0  0  0  0  0  0  0  0  0  0
    8.7240  -12.4209   20.3988 S   0  0  0  0  0  0  0  0  0  0  0  0
    7.4146  -15.1975   20.7598 C   0  0  0  0  0  0  0  0  0  0  0  0
    6.1653  -15.0910   20.9887 O   0  0  0  0  0  0  0  0  0  0  0  0
    8.2725  -15.6336   21.8047 N   0  0  0  0  0  0  0  0  0  0  0  0
    7.7426  -15.9498   23.1074 C   0  0  1  0  0  0  0  0  0  0  0  0
    7.9138  -17.4101   23.4573 C   0  0  0  0  0  0  0  0  0  0  0  0
    7.1500  -17.7936   24.7023 C   0  0  0  0  0  0  0  0  0  0  0  0
    7.9116  -18.9218   25.3659 C   0  0  0  0  0  0  0  0  0  0  0  0
    7.2465  -19.3584   26.6537 C   0  0  0  0  0  0  0  0  0  0  0  0
    7.9987  -20.4497   27.2373 N   0  0  0  0  0  0  0  0  0  0  0  0
    8.3036  -15.0622   24.1542 C   0  0  0  0  0  0  0  0  0  0  0  0
    9.5467  -14.8894   24.1612 O   0  0  0  0  0  0  0  0  0  0  0  0
    6.7997  -11.6085   25.5858 C   0  0  0  0  0  0  0  0  0  0  0  0
    7.1123  -12.5735   26.7010 C   0  0  1  0  0  0  0  0  0  0  0  0
    5.8253  -13.1608   27.1853 C   0  0  0  0  0  0  0  0  0  0  0  0
    8.0909  -13.6129   26.2121 C   0  0  2  0  0  0  0  0  0  0  0  0
    7.5378  -14.4084   25.1299 N   0  0  0  0  0  0  0  0  0  0  0  0
    8.5103  -14.4598   27.3498 C   0  0  0  0  0  0  0  0  0  0  0  0
    9.1752  -13.9431   28.2747 O   0  0  0  0  0  0  0  0  0  0  0  0
    8.2004  -15.7998   27.4386 O   0  0  0  0  0  0  0  0  0  0  0  0
  2  1  1  6
  2  5  1  0
  3  2  1  0
  4  3  1  0
  5  6  2  0
  5  7  1  0
  7  8  1  0
  8  9  1  1
  9 10  1  0
 10 11  1  0
 11 12  1  0
 13 12  1  0
 14 15  2  0
 14  8  1  0
 17 16  1  6
 17 18  1  0
 19 17  1  0
 19 20  1  6
 20 14  1  0
 21 19  1  0
 22 21  2  0
 23 21  1  0
M  END
$$$$
