CKV.pdb
     RDKit          3D

 23 22  0  0  1  0  0  0  0  0999 V2000
    9.4171  -15.6206   19.5816 N   0  0  0  0  0  0  0  0  0  0  0  0
    8.6697  -14.4986   20.0631 C   0  0  1  0  0  0  0  0  0  0  0  0
    7.5864  -14.0837   19.0653 C   0  0  0  0  0  0  0  0  0  0  0  0
    6.4137  -15.4137   18.7693 S   0  0  0  0  0  0  0  0  0  0  0  0
    8.0437  -14.8295   21.3693 C   0  0  0  0  0  0  0  0  0  0  0  0
    7.2940  -13.9518   21.9098 O   0  0  0  0  0  0  0  0  0  0  0  0
    8.2438  -16.0692   22.0335 N   0  0  0  0  0  0  0  0  0  0  0  0
    7.6692  -16.3078   23.3338 C   0  0  1  0  0  0  0  0  0  0  0  0
    7.8667  -17.7334   23.7953 C   0  0  0  0  0  0  0  0  0  0  0  0
    7.3598  -17.9554   25.2004 C   0  0  0  0  0  0  0  0  0  0  0  0
    7.5868  -19.4152   25.5335 C   0  0  0  0  0  0  0  0  0  0  0  0
    6.9670  -19.7836   26.8645 C   0  0  0  0  0  0  0  0  0  0  0  0
    7.2648  -21.1683   27.1666 N   0  0  0  0  0  0  0  0  0  0  0  0
    8.1609  -15.3307   24.3347 C   0  0  0  0  0  0  0  0  0  0  0  0
    9.4034  -15.2181   24.4717 O   0  0  0  0  0  0  0  0  0  0  0  0
    7.2992  -11.5833   27.4783 C   0  0  0  0  0  0  0  0  0  0  0  0
    6.7372  -12.5817   26.4985 C   0  0  1  0  0  0  0  0  0  0  0  0
    6.1846  -11.8297   25.3302 C   0  0  0  0  0  0  0  0  0  0  0  0
    7.8090  -13.5713   26.1127 C   0  0  2  0  0  0  0  0  0  0  0  0
    7.3306  -14.5302   25.1321 N   0  0  0  0  0  0  0  0  0  0  0  0
    8.3114  -14.2439   27.3303 C   0  0  0  0  0  0  0  0  0  0  0  0
    7.7889  -15.3244   27.6829 O   0  0  0  0  0  0  0  0  0  0  0  0
    9.3347  -13.7325   28.0989 O   0  0  0  0  0  0  0  0  0  0  0  0
  2  1  1  6
  2  5  1  0
  3  2  1  0
  4  3  1  0
  5  6  2  0
  5  7  1  0
  7  8  1  0
  8  9  1  1
  9 10  1  0
 10 11  1  0
 11 12  1  0
 13 12  1  0
 14 15  2  0
 14  8  1  0
 17 16  1  1
 17 18  1  0
 19 17  1  0
 19 20  1  6
 20 14  1  0
 21 19  1  0
 22 21  2  0
 23 21  1  0
M  END
$$$$
