CKV.pdb
     RDKit          3D

 23 22  0  0  1  0  0  0  0  0999 V2000
    9.9247  -16.8625   19.4012 N   0  0  0  0  0  0  0  0  0  0  0  0
   10.2222  -17.3462   20.7153 C   0  0  1  0  0  0  0  0  0  0  0  0
   11.6543  -16.9959   21.1250 C   0  0  0  0  0  0  0  0  0  0  0  0
   12.0136  -15.2553   20.8555 S   0  0  0  0  0  0  0  0  0  0  0  0
    9.2677  -16.7681   21.6963 C   0  0  0  0  0  0  0  0  0  0  0  0
    8.5717  -15.7650   21.3302 O   0  0  0  0  0  0  0  0  0  0  0  0
    9.1002  -17.2809   23.0104 N   0  0  0  0  0  0  0  0  0  0  0  0
    8.0378  -16.7999   23.8576 C   0  0  1  0  0  0  0  0  0  0  0  0
    7.2908  -17.9252   24.5357 C   0  0  0  0  0  0  0  0  0  0  0  0
    6.4625  -18.7302   23.5630 C   0  0  0  0  0  0  0  0  0  0  0  0
    5.8105  -19.8491   24.3480 C   0  0  0  0  0  0  0  0  0  0  0  0
    4.9753  -20.7408   23.4542 C   0  0  0  0  0  0  0  0  0  0  0  0
    5.8475  -21.6109   22.6930 N   0  0  0  0  0  0  0  0  0  0  0  0
    8.5299  -15.7976   24.8331 C   0  0  0  0  0  0  0  0  0  0  0  0
    9.7103  -15.9190   25.2421 O   0  0  0  0  0  0  0  0  0  0  0  0
    7.1653  -11.8904   25.0227 C   0  0  0  0  0  0  0  0  0  0  0  0
    7.3073  -12.5578   26.3669 C   0  0  1  0  0  0  0  0  0  0  0  0
    5.9442  -12.9491   26.8407 C   0  0  0  0  0  0  0  0  0  0  0  0
    8.2538  -13.7276   26.2543 C   0  0  2  0  0  0  0  0  0  0  0  0
    7.7646  -14.7302   25.3240 N   0  0  0  0  0  0  0  0  0  0  0  0
    8.4828  -14.2996   27.5988 C   0  0  0  0  0  0  0  0  0  0  0  0
    7.9842  -15.4132   27.8746 O   0  0  0  0  0  0  0  0  0  0  0  0
    9.2246  -13.6588   28.5676 O   0  0  0  0  0  0  0  0  0  0  0  0
  2  1  1  6
  2  5  1  0
  3  2  1  0
  4  3  1  0
  5  6  2  0
  5  7  1  0
  7  8  1  0
  8  9  1  1
  9 10  1  0
 10 11  1  0
 11 12  1  0
 13 12  1  0
 14 15  2  0
 14  8  1  0
 17 16  1  6
 17 18  1  0
 19 17  1  0
 19 20  1  6
 20 14  1  0
 21 19  1  0
 22 21  2  0
 23 21  1  0
M  END
$$$$
