CKV.pdb
     RDKit          3D

 23 22  0  0  1  0  0  0  0  0999 V2000
    6.3012  -17.0867   19.2536 N   0  0  0  0  0  0  0  0  0  0  0  0
    7.2776  -16.4426   20.0788 C   0  0  1  0  0  0  0  0  0  0  0  0
    7.4021  -14.9568   19.7348 C   0  0  0  0  0  0  0  0  0  0  0  0
    8.3074  -14.7050   18.2023 S   0  0  0  0  0  0  0  0  0  0  0  0
    6.9102  -16.5935   21.5105 C   0  0  0  0  0  0  0  0  0  0  0  0
    5.7058  -16.3452   21.8458 O   0  0  0  0  0  0  0  0  0  0  0  0
    7.8348  -16.9986   22.5101 N   0  0  0  0  0  0  0  0  0  0  0  0
    7.4519  -17.0225   23.8995 C   0  0  1  0  0  0  0  0  0  0  0  0
    7.7927  -18.3355   24.5659 C   0  0  0  0  0  0  0  0  0  0  0  0
    7.4037  -18.3547   26.0250 C   0  0  0  0  0  0  0  0  0  0  0  0
    7.7514  -19.7266   26.5637 C   0  0  0  0  0  0  0  0  0  0  0  0
    7.4615  -19.8307   28.0458 C   0  0  0  0  0  0  0  0  0  0  0  0
    7.6621  -21.1977   28.4800 N   0  0  0  0  0  0  0  0  0  0  0  0
    8.0126  -15.8664   24.6394 C   0  0  0  0  0  0  0  0  0  0  0  0
    9.2380  -15.6313   24.5033 O   0  0  0  0  0  0  0  0  0  0  0  0
    7.3136  -11.6927   27.2308 C   0  0  0  0  0  0  0  0  0  0  0  0
    6.7039  -12.9151   26.5931 C   0  0  1  0  0  0  0  0  0  0  0  0
    5.8295  -12.4672   25.4659 C   0  0  0  0  0  0  0  0  0  0  0  0
    7.7981  -13.8576   26.1557 C   0  0  2  0  0  0  0  0  0  0  0  0
    7.2650  -15.0252   25.4757 N   0  0  0  0  0  0  0  0  0  0  0  0
    8.6118  -14.2374   27.3309 C   0  0  0  0  0  0  0  0  0  0  0  0
    9.3019  -13.3608   27.8967 O   0  0  0  0  0  0  0  0  0  0  0  0
    8.6451  -15.5199   27.8345 O   0  0  0  0  0  0  0  0  0  0  0  0
  2  1  1  6
  2  5  1  0
  3  2  1  0
  4  3  1  0
  5  6  2  0
  5  7  1  0
  7  8  1  0
  8  9  1  1
  9 10  1  0
 10 11  1  0
 11 12  1  0
 13 12  1  0
 14 15  2  0
 14  8  1  0
 17 16  1  6
 17 18  1  0
 19 17  1  0
 19 20  1  1
 20 14  1  0
 21 19  1  0
 22 21  2  0
 23 21  1  0
M  END
$$$$
