FQN.pdb
     RDKit          3D

 29 29  0  0  1  0  0  0  0  0999 V2000
    7.9379  -15.7865   25.3830 N   0  0  0  0  0  0  0  0  0  0  0  0
    6.7377  -16.0864   24.6635 C   0  0  1  0  0  0  0  0  0  0  0  0
    5.9320  -14.8165   24.4817 C   0  0  0  0  0  0  0  0  0  0  0  0
    6.4551  -13.6783   25.2442 C   0  0  0  0  0  0  0  0  0  0  0  0
    6.1873  -13.6310   26.5896 C   0  0  0  0  0  0  0  0  0  0  0  0
    6.6123  -12.6224   27.4406 C   0  0  0  0  0  0  0  0  0  0  0  0
    7.3570  -11.6121   26.8460 C   0  0  0  0  0  0  0  0  0  0  0  0
    7.6396  -11.6352   25.5006 C   0  0  0  0  0  0  0  0  0  0  0  0
    7.1981  -12.6595   24.6818 C   0  0  0  0  0  0  0  0  0  0  0  0
    7.1308  -16.6124   23.3107 C   0  0  0  0  0  0  0  0  0  0  0  0
    6.2877  -16.9937   22.4628 O   0  0  0  0  0  0  0  0  0  0  0  0
    7.0746  -13.1497   20.1505 N   0  0  0  0  0  0  0  0  0  0  0  0
    7.9993  -13.7162   19.2141 C   0  0  0  0  0  0  0  0  0  0  0  0
    8.1112  -13.1380   18.1068 O   0  0  0  0  0  0  0  0  0  0  0  0
    8.7286  -14.9210   19.6391 C   0  0  0  0  0  0  0  0  0  0  0  0
    8.3409  -15.3216   21.0111 C   0  0  0  0  0  0  0  0  0  0  0  0
    8.9223  -16.6014   21.5249 C   0  0  2  0  0  0  0  0  0  0  0  0
    8.5025  -16.7029   22.9246 N   0  0  0  0  0  0  0  0  0  0  0  0
   10.3995  -16.6507   21.4045 C   0  0  0  0  0  0  0  0  0  0  0  0
   10.9271  -16.7250   20.2620 O   0  0  0  0  0  0  0  0  0  0  0  0
   13.2239  -14.6030   24.3169 N   0  0  0  0  0  0  0  0  0  0  0  0
   12.8962  -15.9233   24.5792 C   0  0  0  0  0  0  0  0  0  0  0  0
   12.1859  -16.1837   25.6164 O   0  0  0  0  0  0  0  0  0  0  0  0
   13.3031  -17.0529   23.7501 C   0  0  0  0  0  0  0  0  0  0  0  0
   12.6614  -17.0539   22.4022 C   0  0  2  0  0  0  0  0  0  0  0  0
   11.2858  -16.6200   22.5192 N   0  0  0  0  0  0  0  0  0  0  0  0
   12.7501  -18.3451   21.6818 C   0  0  0  0  0  0  0  0  0  0  0  0
   13.3701  -18.4003   20.4505 O   0  0  0  0  0  0  0  0  0  0  0  0
   12.2698  -19.3742   22.1852 O   0  0  0  0  0  0  0  0  0  0  0  0
  2  1  1  1
  2  3  1  0
  3  4  1  0
  4  9  2  0
  5  4  1  0
  5  6  2  0
  6  7  1  0
  7  8  2  0
  9  8  1  0
 10  2  1  0
 10 18  1  0
 11 10  2  0
 13 12  1  0
 13 15  1  0
 14 13  2  0
 16 15  1  0
 17 16  1  1
 17 18  1  0
 19 17  1  0
 20 19  2  0
 21 22  1  0
 22 23  2  0
 22 24  1  0
 25 24  1  1
 25 26  1  0
 25 27  1  0
 26 19  1  0
 27 28  1  0
 29 27  2  0
M  END
$$$$
