FQN.pdb
     RDKit          3D

 29 29  0  0  1  0  0  0  0  0999 V2000
    5.8767  -16.8204   24.9463 N   0  0  0  0  0  0  0  0  0  0  0  0
    6.7275  -15.7461   24.5336 C   0  0  1  0  0  0  0  0  0  0  0  0
    7.4446  -15.1821   25.7430 C   0  0  0  0  0  0  0  0  0  0  0  0
    7.0110  -13.8275   26.1004 C   0  0  0  0  0  0  0  0  0  0  0  0
    7.8467  -12.7842   25.7884 C   0  0  0  0  0  0  0  0  0  0  0  0
    7.5763  -11.4521   26.0615 C   0  0  0  0  0  0  0  0  0  0  0  0
    6.3653  -11.2049   26.6949 C   0  0  0  0  0  0  0  0  0  0  0  0
    5.5098  -12.2316   27.0183 C   0  0  0  0  0  0  0  0  0  0  0  0
    5.8139  -13.5503   26.7297 C   0  0  0  0  0  0  0  0  0  0  0  0
    7.7464  -16.3059   23.5797 C   0  0  0  0  0  0  0  0  0  0  0  0
    8.0662  -17.5194   23.5682 O   0  0  0  0  0  0  0  0  0  0  0  0
    9.0824  -13.1185   18.6041 N   0  0  0  0  0  0  0  0  0  0  0  0
    7.8386  -13.7942   18.8258 C   0  0  0  0  0  0  0  0  0  0  0  0
    6.8416  -13.3686   18.1952 O   0  0  0  0  0  0  0  0  0  0  0  0
    7.8484  -14.9212   19.7712 C   0  0  0  0  0  0  0  0  0  0  0  0
    9.1685  -15.0521   20.4296 C   0  0  0  0  0  0  0  0  0  0  0  0
    9.2554  -16.0171   21.5703 C   0  0  2  0  0  0  0  0  0  0  0  0
    8.4057  -15.4682   22.6297 N   0  0  0  0  0  0  0  0  0  0  0  0
   10.6446  -16.2177   22.0487 C   0  0  0  0  0  0  0  0  0  0  0  0
   11.5029  -16.7167   21.2718 O   0  0  0  0  0  0  0  0  0  0  0  0
   11.1477  -19.2347   25.0939 N   0  0  0  0  0  0  0  0  0  0  0  0
   12.0574  -18.1899   25.1010 C   0  0  0  0  0  0  0  0  0  0  0  0
   12.4056  -17.6886   26.2304 O   0  0  0  0  0  0  0  0  0  0  0  0
   12.6575  -17.6126   23.9029 C   0  0  0  0  0  0  0  0  0  0  0  0
   12.4436  -16.1395   23.7898 C   0  0  2  0  0  0  0  0  0  0  0  0
   11.0871  -15.8775   23.3592 N   0  0  0  0  0  0  0  0  0  0  0  0
   13.4194  -15.4433   22.9197 C   0  0  0  0  0  0  0  0  0  0  0  0
   14.4216  -14.6833   23.4869 O   0  0  0  0  0  0  0  0  0  0  0  0
   13.3366  -15.5446   21.6844 O   0  0  0  0  0  0  0  0  0  0  0  0
  2  1  1  1
  2  3  1  0
  3  4  1  0
  4  9  2  0
  5  4  1  0
  5  6  2  0
  6  7  1  0
  7  8  2  0
  9  8  1  0
 10  2  1  0
 10 18  1  0
 11 10  2  0
 13 12  1  0
 13 15  1  0
 14 13  2  0
 16 15  1  0
 17 16  1  6
 17 18  1  0
 19 17  1  0
 20 19  2  0
 21 22  1  0
 22 23  2  0
 22 24  1  0
 25 24  1  6
 25 26  1  0
 25 27  1  0
 26 19  1  0
 27 28  1  0
 29 27  2  0
M  END
$$$$
