FQN.pdb
     RDKit          3D

 29 29  0  0  1  0  0  0  0  0999 V2000
    6.7062  -16.4032   25.7275 N   0  0  0  0  0  0  0  0  0  0  0  0
    7.0892  -15.3001   24.9002 C   0  0  1  0  0  0  0  0  0  0  0  0
    7.9598  -14.3528   25.6998 C   0  0  0  0  0  0  0  0  0  0  0  0
    7.1985  -13.3287   26.4225 C   0  0  0  0  0  0  0  0  0  0  0  0
    7.7698  -12.7766   27.5419 C   0  0  0  0  0  0  0  0  0  0  0  0
    7.1757  -11.8010   28.3277 C   0  0  0  0  0  0  0  0  0  0  0  0
    5.9165  -11.3850   27.9149 C   0  0  0  0  0  0  0  0  0  0  0  0
    5.3217  -11.9215   26.7974 C   0  0  0  0  0  0  0  0  0  0  0  0
    5.9459  -12.8946   26.0371 C   0  0  0  0  0  0  0  0  0  0  0  0
    7.8896  -15.8438   23.7491 C   0  0  0  0  0  0  0  0  0  0  0  0
    8.2331  -17.0486   23.6742 O   0  0  0  0  0  0  0  0  0  0  0  0
    9.1728  -13.8670   16.7642 N   0  0  0  0  0  0  0  0  0  0  0  0
    8.4385  -14.0478   17.9812 C   0  0  0  0  0  0  0  0  0  0  0  0
    7.3419  -13.4466   18.0766 O   0  0  0  0  0  0  0  0  0  0  0  0
    9.0396  -14.9195   19.0024 C   0  0  0  0  0  0  0  0  0  0  0  0
    8.4661  -14.6458   20.3401 C   0  0  0  0  0  0  0  0  0  0  0  0
    8.9119  -15.5385   21.4555 C   0  0  2  0  0  0  0  0  0  0  0  0
    8.3010  -15.0000   22.6731 N   0  0  0  0  0  0  0  0  0  0  0  0
   10.3878  -15.6065   21.5824 C   0  0  0  0  0  0  0  0  0  0  0  0
   11.0762  -16.0190   20.6102 O   0  0  0  0  0  0  0  0  0  0  0  0
   13.7271  -18.6862   23.4386 N   0  0  0  0  0  0  0  0  0  0  0  0
   12.6983  -18.2346   24.2491 C   0  0  0  0  0  0  0  0  0  0  0  0
   12.6512  -18.6447   25.4647 O   0  0  0  0  0  0  0  0  0  0  0  0
   11.6531  -17.3131   23.8164 C   0  0  0  0  0  0  0  0  0  0  0  0
   12.1889  -16.0311   23.2705 C   0  0  2  0  0  0  0  0  0  0  0  0
   11.0992  -15.2290   22.7572 N   0  0  0  0  0  0  0  0  0  0  0  0
   13.2517  -16.1949   22.2518 C   0  0  0  0  0  0  0  0  0  0  0  0
   14.4988  -15.6466   22.4699 O   0  0  0  0  0  0  0  0  0  0  0  0
   13.0213  -16.8248   21.2063 O   0  0  0  0  0  0  0  0  0  0  0  0
  2  1  1  1
  2  3  1  0
  3  4  1  0
  4  9  2  0
  5  4  1  0
  5  6  2  0
  6  7  1  0
  7  8  2  0
  9  8  1  0
 10  2  1  0
 10 18  1  0
 11 10  2  0
 13 12  1  0
 13 15  1  0
 14 13  2  0
 16 15  1  0
 17 16  1  6
 17 18  1  0
 19 17  1  0
 20 19  2  0
 21 22  1  0
 22 23  2  0
 22 24  1  0
 25 24  1  6
 25 26  1  0
 25 27  1  0
 26 19  1  0
 27 28  1  0
 29 27  2  0
M  END
$$$$
