FQN.pdb
     RDKit          3D

 29 29  0  0  1  0  0  0  0  0999 V2000
    6.5251  -16.1040   24.4655 N   0  0  0  0  0  0  0  0  0  0  0  0
    7.6666  -15.3696   24.0120 C   0  0  1  0  0  0  0  0  0  0  0  0
    8.2899  -14.6388   25.1834 C   0  0  0  0  0  0  0  0  0  0  0  0
    7.4815  -13.5155   25.6686 C   0  0  0  0  0  0  0  0  0  0  0  0
    6.2324  -13.7928   26.1656 C   0  0  0  0  0  0  0  0  0  0  0  0
    5.3539  -12.8406   26.6593 C   0  0  0  0  0  0  0  0  0  0  0  0
    5.8126  -11.5301   26.6285 C   0  0  0  0  0  0  0  0  0  0  0  0
    7.0596  -11.2250   26.1360 C   0  0  0  0  0  0  0  0  0  0  0  0
    7.9097  -12.2031   25.6512 C   0  0  0  0  0  0  0  0  0  0  0  0
    8.6622  -16.3560   23.4670 C   0  0  0  0  0  0  0  0  0  0  0  0
    8.6203  -17.5800   23.7414 O   0  0  0  0  0  0  0  0  0  0  0  0
   12.5154  -15.4440   18.5711 N   0  0  0  0  0  0  0  0  0  0  0  0
   12.2304  -14.4345   19.5470 C   0  0  0  0  0  0  0  0  0  0  0  0
   12.4959  -13.2499   19.2320 O   0  0  0  0  0  0  0  0  0  0  0  0
   11.6547  -14.8821   20.8246 C   0  0  0  0  0  0  0  0  0  0  0  0
   11.1026  -16.2515   20.7088 C   0  0  0  0  0  0  0  0  0  0  0  0
   10.6338  -16.8942   21.9765 C   0  0  2  0  0  0  0  0  0  0  0  0
    9.7162  -15.9373   22.5995 N   0  0  0  0  0  0  0  0  0  0  0  0
   11.7481  -17.2405   22.8915 C   0  0  0  0  0  0  0  0  0  0  0  0
   12.6182  -18.0748   22.5224 O   0  0  0  0  0  0  0  0  0  0  0  0
   15.3813  -16.7343   23.4392 N   0  0  0  0  0  0  0  0  0  0  0  0
   14.7567  -15.7797   24.2253 C   0  0  0  0  0  0  0  0  0  0  0  0
   14.9230  -14.5409   23.9324 O   0  0  0  0  0  0  0  0  0  0  0  0
   13.9111  -16.0845   25.3745 C   0  0  0  0  0  0  0  0  0  0  0  0
   12.9199  -17.1676   25.1041 C   0  0  2  0  0  0  0  0  0  0  0  0
   11.9067  -16.6818   24.1921 N   0  0  0  0  0  0  0  0  0  0  0  0
   12.3038  -17.7520   26.3179 C   0  0  0  0  0  0  0  0  0  0  0  0
   10.9310  -17.7532   26.4554 O   0  0  0  0  0  0  0  0  0  0  0  0
   13.0203  -18.2403   27.2073 O   0  0  0  0  0  0  0  0  0  0  0  0
  2  1  1  1
  2  3  1  0
  3  4  1  0
  4  9  2  0
  5  4  1  0
  5  6  2  0
  6  7  1  0
  7  8  2  0
  9  8  1  0
 10  2  1  0
 10 18  1  0
 11 10  2  0
 13 12  1  0
 13 15  1  0
 14 13  2  0
 16 15  1  0
 17 16  1  6
 17 18  1  0
 19 17  1  0
 20 19  2  0
 21 22  1  0
 22 23  2  0
 22 24  1  0
 25 24  1  1
 25 26  1  0
 25 27  1  0
 26 19  1  0
 27 28  1  0
 29 27  2  0
M  END
$$$$
