FQN.pdb
     RDKit          3D

 29 29  0  0  1  0  0  0  0  0999 V2000
    7.6873  -15.6893   26.1837 N   0  0  0  0  0  0  0  0  0  0  0  0
    6.6914  -15.7777   25.1597 C   0  0  1  0  0  0  0  0  0  0  0  0
    6.1589  -14.3920   24.8579 C   0  0  0  0  0  0  0  0  0  0  0  0
    6.4535  -13.4112   25.9076 C   0  0  0  0  0  0  0  0  0  0  0  0
    7.5449  -12.5967   25.7353 C   0  0  0  0  0  0  0  0  0  0  0  0
    7.9499  -11.6243   26.6367 C   0  0  0  0  0  0  0  0  0  0  0  0
    7.1670  -11.5024   27.7773 C   0  0  0  0  0  0  0  0  0  0  0  0
    6.0684  -12.3055   27.9745 C   0  0  0  0  0  0  0  0  0  0  0  0
    5.6944  -13.2663   27.0516 C   0  0  0  0  0  0  0  0  0  0  0  0
    7.3488  -16.3273   23.9239 C   0  0  0  0  0  0  0  0  0  0  0  0
    7.1916  -17.5136   23.5457 O   0  0  0  0  0  0  0  0  0  0  0  0
    8.4058  -12.8003   19.2628 N   0  0  0  0  0  0  0  0  0  0  0  0
    8.9471  -13.9773   18.6510 C   0  0  0  0  0  0  0  0  0  0  0  0
    9.1534  -13.9303   17.4148 O   0  0  0  0  0  0  0  0  0  0  0  0
    9.2089  -15.1281   19.5291 C   0  0  0  0  0  0  0  0  0  0  0  0
    8.7687  -14.8506   20.9156 C   0  0  0  0  0  0  0  0  0  0  0  0
    8.7866  -16.0051   21.8679 C   0  0  2  0  0  0  0  0  0  0  0  0
    8.1946  -15.5110   23.1133 N   0  0  0  0  0  0  0  0  0  0  0  0
   10.1507  -16.5386   22.0987 C   0  0  0  0  0  0  0  0  0  0  0  0
   10.3860  -17.2133   23.1373 O   0  0  0  0  0  0  0  0  0  0  0  0
   13.4891  -18.8474   19.5600 N   0  0  0  0  0  0  0  0  0  0  0  0
   12.6581  -19.1646   20.6221 C   0  0  0  0  0  0  0  0  0  0  0  0
   12.0137  -20.2743   20.5853 O   0  0  0  0  0  0  0  0  0  0  0  0
   12.4619  -18.3192   21.7949 C   0  0  0  0  0  0  0  0  0  0  0  0
   12.5593  -16.8608   21.4913 C   0  0  2  0  0  0  0  0  0  0  0  0
   11.2415  -16.3354   21.2056 N   0  0  0  0  0  0  0  0  0  0  0  0
   13.5109  -16.5223   20.4078 C   0  0  0  0  0  0  0  0  0  0  0  0
   13.0727  -15.8110   19.3098 O   0  0  0  0  0  0  0  0  0  0  0  0
   14.6989  -16.8761   20.4883 O   0  0  0  0  0  0  0  0  0  0  0  0
  2  1  1  1
  2  3  1  0
  3  4  1  0
  4  9  2  0
  5  4  1  0
  5  6  2  0
  6  7  1  0
  7  8  2  0
  9  8  1  0
 10  2  1  0
 10 18  1  0
 11 10  2  0
 13 12  1  0
 13 15  1  0
 14 13  2  0
 16 15  1  0
 17 16  1  6
 17 18  1  0
 19 17  1  0
 20 19  2  0
 21 22  1  0
 22 23  2  0
 22 24  1  0
 25 24  1  6
 25 26  1  0
 25 27  1  0
 26 19  1  0
 27 28  1  0
 29 27  2  0
M  END
$$$$
