FQN.pdb
     RDKit          3D

 29 29  0  0  1  0  0  0  0  0999 V2000
    6.3828  -15.9865   24.0686 N   0  0  0  0  0  0  0  0  0  0  0  0
    7.8032  -15.8162   24.0276 C   0  0  1  0  0  0  0  0  0  0  0  0
    8.2677  -15.1705   25.3168 C   0  0  0  0  0  0  0  0  0  0  0  0
    7.6485  -13.8661   25.5733 C   0  0  0  0  0  0  0  0  0  0  0  0
    7.1169  -13.6432   26.8191 C   0  0  0  0  0  0  0  0  0  0  0  0
    6.5008  -12.4647   27.2112 C   0  0  0  0  0  0  0  0  0  0  0  0
    6.4408  -11.4701   26.2437 C   0  0  0  0  0  0  0  0  0  0  0  0
    6.9657  -11.6674   24.9882 C   0  0  0  0  0  0  0  0  0  0  0  0
    7.5739  -12.8583   24.6327 C   0  0  0  0  0  0  0  0  0  0  0  0
    8.4274  -17.1794   23.9125 C   0  0  0  0  0  0  0  0  0  0  0  0
    7.8109  -18.1677   23.4452 O   0  0  0  0  0  0  0  0  0  0  0  0
   10.7320  -17.9089   19.6314 N   0  0  0  0  0  0  0  0  0  0  0  0
   11.5875  -17.0185   20.3581 C   0  0  0  0  0  0  0  0  0  0  0  0
   12.2745  -16.2151   19.6832 O   0  0  0  0  0  0  0  0  0  0  0  0
   11.5798  -17.1311   21.8248 C   0  0  0  0  0  0  0  0  0  0  0  0
   10.6362  -18.1807   22.2731 C   0  0  0  0  0  0  0  0  0  0  0  0
   10.5991  -18.4653   23.7419 C   0  0  2  0  0  0  0  0  0  0  0  0
    9.7706  -17.4138   24.3366 N   0  0  0  0  0  0  0  0  0  0  0  0
   11.9486  -18.4946   24.3559 C   0  0  0  0  0  0  0  0  0  0  0  0
   12.6023  -19.5725   24.3672 O   0  0  0  0  0  0  0  0  0  0  0  0
   14.8009  -15.2579   23.6287 N   0  0  0  0  0  0  0  0  0  0  0  0
   15.1466  -16.2465   24.5355 C   0  0  0  0  0  0  0  0  0  0  0  0
   16.0374  -17.1058   24.1949 O   0  0  0  0  0  0  0  0  0  0  0  0
   14.5659  -16.3817   25.8672 C   0  0  0  0  0  0  0  0  0  0  0  0
   13.5878  -17.5048   25.9706 C   0  0  2  0  0  0  0  0  0  0  0  0
   12.5726  -17.3601   24.9495 N   0  0  0  0  0  0  0  0  0  0  0  0
   12.9739  -17.6619   27.3095 C   0  0  0  0  0  0  0  0  0  0  0  0
   13.7808  -17.7968   28.4205 O   0  0  0  0  0  0  0  0  0  0  0  0
   11.7378  -17.6707   27.4315 O   0  0  0  0  0  0  0  0  0  0  0  0
  2  1  1  1
  2  3  1  0
  3  4  1  0
  4  9  2  0
  5  4  1  0
  5  6  2  0
  6  7  1  0
  7  8  2  0
  9  8  1  0
 10  2  1  0
 10 18  1  0
 11 10  2  0
 13 12  1  0
 13 15  1  0
 14 13  2  0
 16 15  1  0
 17 16  1  6
 17 18  1  0
 19 17  1  0
 20 19  2  0
 21 22  1  0
 22 23  2  0
 22 24  1  0
 25 24  1  1
 25 26  1  0
 25 27  1  0
 26 19  1  0
 27 28  1  0
 29 27  2  0
M  END
$$$$
