FQN.pdb
     RDKit          3D

 29 29  0  0  1  0  0  0  0  0999 V2000
    5.8188  -16.4616   24.9221 N   0  0  0  0  0  0  0  0  0  0  0  0
    6.8332  -15.6119   24.3769 C   0  0  1  0  0  0  0  0  0  0  0  0
    7.6301  -14.9942   25.5075 C   0  0  0  0  0  0  0  0  0  0  0  0
    7.1023  -13.7017   25.9565 C   0  0  0  0  0  0  0  0  0  0  0  0
    7.8295  -12.5755   25.6618 C   0  0  0  0  0  0  0  0  0  0  0  0
    7.4616  -11.2870   26.0178 C   0  0  0  0  0  0  0  0  0  0  0  0
    6.2682  -11.1778   26.7196 C   0  0  0  0  0  0  0  0  0  0  0  0
    5.5205  -12.2898   27.0276 C   0  0  0  0  0  0  0  0  0  0  0  0
    5.9199  -13.5612   26.6552 C   0  0  0  0  0  0  0  0  0  0  0  0
    7.7495  -16.4646   23.5435 C   0  0  0  0  0  0  0  0  0  0  0  0
    7.9499  -17.6793   23.7875 O   0  0  0  0  0  0  0  0  0  0  0  0
    8.4568  -16.6511   17.6616 N   0  0  0  0  0  0  0  0  0  0  0  0
    7.4720  -15.9626   18.4417 C   0  0  0  0  0  0  0  0  0  0  0  0
    6.3645  -15.7462   17.8944 O   0  0  0  0  0  0  0  0  0  0  0  0
    7.8524  -15.5744   19.8087 C   0  0  0  0  0  0  0  0  0  0  0  0
    9.1660  -16.1494   20.1791 C   0  0  0  0  0  0  0  0  0  0  0  0
    9.2719  -16.7536   21.5442 C   0  0  2  0  0  0  0  0  0  0  0  0
    8.4434  -15.9216   22.4199 N   0  0  0  0  0  0  0  0  0  0  0  0
   10.6692  -16.8215   22.0358 C   0  0  0  0  0  0  0  0  0  0  0  0
   11.3387  -15.7596   22.1523 O   0  0  0  0  0  0  0  0  0  0  0  0
   12.9529  -18.4404   26.3246 N   0  0  0  0  0  0  0  0  0  0  0  0
   11.6870  -17.9276   26.0926 C   0  0  0  0  0  0  0  0  0  0  0  0
   10.9670  -17.5937   27.1017 O   0  0  0  0  0  0  0  0  0  0  0  0
   11.1067  -17.7351   24.7678 C   0  0  0  0  0  0  0  0  0  0  0  0
   12.0063  -18.1786   23.6621 C   0  0  2  0  0  0  0  0  0  0  0  0
   11.3240  -18.0347   22.3940 N   0  0  0  0  0  0  0  0  0  0  0  0
   12.5441  -19.5495   23.8216 C   0  0  0  0  0  0  0  0  0  0  0  0
   12.1176  -20.5543   22.9777 O   0  0  0  0  0  0  0  0  0  0  0  0
   13.3769  -19.7930   24.7106 O   0  0  0  0  0  0  0  0  0  0  0  0
  2  1  1  1
  2  3  1  0
  3  4  1  0
  4  9  2  0
  5  4  1  0
  5  6  2  0
  6  7  1  0
  7  8  2  0
  9  8  1  0
 10  2  1  0
 10 18  1  0
 11 10  2  0
 13 12  1  0
 13 15  1  0
 14 13  2  0
 16 15  1  0
 17 16  1  6
 17 18  1  0
 19 17  1  0
 20 19  2  0
 21 22  1  0
 22 23  2  0
 22 24  1  0
 25 24  1  1
 25 26  1  0
 25 27  1  0
 26 19  1  0
 27 28  1  0
 29 27  2  0
M  END
$$$$
