FQN.pdb
     RDKit          3D

 29 29  0  0  1  0  0  0  0  0999 V2000
    5.9475  -16.5055   24.9390 N   0  0  0  0  0  0  0  0  0  0  0  0
    7.1890  -15.9603   24.4812 C   0  0  1  0  0  0  0  0  0  0  0  0
    7.8572  -15.2131   25.6169 C   0  0  0  0  0  0  0  0  0  0  0  0
    7.4088  -13.8228   25.7457 C   0  0  0  0  0  0  0  0  0  0  0  0
    6.3467  -13.5666   26.5767 C   0  0  0  0  0  0  0  0  0  0  0  0
    5.8101  -12.3081   26.8009 C   0  0  0  0  0  0  0  0  0  0  0  0
    6.4219  -11.2660   26.1163 C   0  0  0  0  0  0  0  0  0  0  0  0
    7.4874  -11.4952   25.2779 C   0  0  0  0  0  0  0  0  0  0  0  0
    7.9962  -12.7664   25.0787 C   0  0  0  0  0  0  0  0  0  0  0  0
    8.0700  -17.1061   24.0662 C   0  0  0  0  0  0  0  0  0  0  0  0
    7.9051  -18.2746   24.4936 O   0  0  0  0  0  0  0  0  0  0  0  0
   13.9647  -18.3295   20.1594 N   0  0  0  0  0  0  0  0  0  0  0  0
   12.6587  -17.7473   20.0690 C   0  0  0  0  0  0  0  0  0  0  0  0
   12.5590  -16.6747   19.4266 O   0  0  0  0  0  0  0  0  0  0  0  0
   11.5600  -18.4611   20.7378 C   0  0  0  0  0  0  0  0  0  0  0  0
   10.6538  -17.5154   21.4290 C   0  0  0  0  0  0  0  0  0  0  0  0
    9.9415  -18.0333   22.6390 C   0  0  2  0  0  0  0  0  0  0  0  0
    9.1506  -16.9126   23.1531 N   0  0  0  0  0  0  0  0  0  0  0  0
   10.8685  -18.5527   23.6733 C   0  0  0  0  0  0  0  0  0  0  0  0
   11.6082  -19.5379   23.4056 O   0  0  0  0  0  0  0  0  0  0  0  0
   14.9098  -19.4266   27.0179 N   0  0  0  0  0  0  0  0  0  0  0  0
   14.2941  -18.9208   25.8847 C   0  0  0  0  0  0  0  0  0  0  0  0
   14.7011  -19.3228   24.7354 O   0  0  0  0  0  0  0  0  0  0  0  0
   13.2014  -17.9541   25.9034 C   0  0  0  0  0  0  0  0  0  0  0  0
   11.8536  -18.5920   25.9759 C   0  0  2  0  0  0  0  0  0  0  0  0
   10.9831  -18.0018   24.9818 N   0  0  0  0  0  0  0  0  0  0  0  0
   11.2281  -18.5528   27.3181 C   0  0  0  0  0  0  0  0  0  0  0  0
   10.0023  -17.9417   27.4840 O   0  0  0  0  0  0  0  0  0  0  0  0
   11.8043  -19.0694   28.2897 O   0  0  0  0  0  0  0  0  0  0  0  0
  2  1  1  1
  2  3  1  0
  3  4  1  0
  4  9  2  0
  5  4  1  0
  5  6  2  0
  6  7  1  0
  7  8  2  0
  9  8  1  0
 10  2  1  0
 10 18  1  0
 11 10  2  0
 13 12  1  0
 13 15  1  0
 14 13  2  0
 16 15  1  0
 17 16  1  6
 17 18  1  0
 19 17  1  0
 20 19  2  0
 21 22  1  0
 22 23  2  0
 22 24  1  0
 25 24  1  1
 25 26  1  0
 25 27  1  0
 26 19  1  0
 27 28  1  0
 29 27  2  0
M  END
$$$$
