FQN.pdb
     RDKit          3D

 29 29  0  0  1  0  0  0  0  0999 V2000
    6.0414  -18.1828   25.5398 N   0  0  0  0  0  0  0  0  0  0  0  0
    6.2141  -16.7812   25.3073 C   0  0  1  0  0  0  0  0  0  0  0  0
    6.6046  -16.1027   26.6042 C   0  0  0  0  0  0  0  0  0  0  0  0
    6.6471  -14.6399   26.5088 C   0  0  0  0  0  0  0  0  0  0  0  0
    5.4571  -13.9730   26.3564 C   0  0  0  0  0  0  0  0  0  0  0  0
    5.3359  -12.5958   26.2521 C   0  0  0  0  0  0  0  0  0  0  0  0
    6.5270  -11.8840   26.3111 C   0  0  0  0  0  0  0  0  0  0  0  0
    7.7326  -12.5274   26.4634 C   0  0  0  0  0  0  0  0  0  0  0  0
    7.8145  -13.9050   26.5642 C   0  0  0  0  0  0  0  0  0  0  0  0
    7.3302  -16.6132   24.3137 C   0  0  0  0  0  0  0  0  0  0  0  0
    8.3616  -17.3281   24.3287 O   0  0  0  0  0  0  0  0  0  0  0  0
    6.8141  -12.5900   19.6459 N   0  0  0  0  0  0  0  0  0  0  0  0
    7.9994  -13.2558   19.1937 C   0  0  0  0  0  0  0  0  0  0  0  0
    8.3607  -13.0318   18.0137 O   0  0  0  0  0  0  0  0  0  0  0  0
    8.6793  -14.1383   20.1544 C   0  0  0  0  0  0  0  0  0  0  0  0
    7.7946  -14.4635   21.2966 C   0  0  0  0  0  0  0  0  0  0  0  0
    8.2838  -15.5125   22.2455 C   0  0  2  0  0  0  0  0  0  0  0  0
    7.2651  -15.6170   23.2928 N   0  0  0  0  0  0  0  0  0  0  0  0
    9.6122  -15.1921   22.8213 C   0  0  0  0  0  0  0  0  0  0  0  0
    9.6907  -14.7814   24.0107 O   0  0  0  0  0  0  0  0  0  0  0  0
   12.7702  -16.2182   25.4386 N   0  0  0  0  0  0  0  0  0  0  0  0
   12.0881  -17.2303   24.7832 C   0  0  0  0  0  0  0  0  0  0  0  0
   11.7949  -18.2949   25.4379 O   0  0  0  0  0  0  0  0  0  0  0  0
   11.6715  -17.1717   23.3862 C   0  0  0  0  0  0  0  0  0  0  0  0
   12.0187  -15.8801   22.7229 C   0  0  2  0  0  0  0  0  0  0  0  0
   10.8367  -15.3188   22.1048 N   0  0  0  0  0  0  0  0  0  0  0  0
   13.1329  -15.9699   21.7511 C   0  0  0  0  0  0  0  0  0  0  0  0
   14.3010  -15.2732   21.9832 O   0  0  0  0  0  0  0  0  0  0  0  0
   13.0166  -16.6709   20.7323 O   0  0  0  0  0  0  0  0  0  0  0  0
  2  1  1  1
  2  3  1  0
  3  4  1  0
  4  9  2  0
  5  4  1  0
  5  6  2  0
  6  7  1  0
  7  8  2  0
  9  8  1  0
 10  2  1  0
 10 18  1  0
 11 10  2  0
 13 12  1  0
 13 15  1  0
 14 13  2  0
 16 15  1  0
 17 16  1  6
 17 18  1  0
 19 17  1  0
 20 19  2  0
 21 22  1  0
 22 23  2  0
 22 24  1  0
 25 24  1  6
 25 26  1  0
 25 27  1  0
 26 19  1  0
 27 28  1  0
 29 27  2  0
M  END
$$$$
