LAE.pdb
     RDKit          3D

 23 22  0  0  1  0  0  0  0  0999 V2000
   32.1593  -35.6379   -6.7295 C   0  0  0  0  0  0  0  0  0  0  0  0
   31.8896  -34.1612   -6.4112 C   0  0  2  0  0  0  0  0  0  0  0  0
   33.2655  -33.4948   -6.3998 C   0  0  0  0  0  0  0  0  0  0  0  0
   31.3430  -34.1162   -5.0110 C   0  0  0  0  0  0  0  0  0  0  0  0
   29.9359  -34.5875   -4.8640 C   0  0  2  0  0  0  0  0  0  0  0  0
   29.0860  -33.6326   -5.5668 N   0  0  0  0  0  0  0  0  0  0  0  0
   29.4591  -34.6646   -3.4640 C   0  0  0  0  0  0  0  0  0  0  0  0
   29.1910  -33.6560   -2.7690 O   0  0  0  0  0  0  0  0  0  0  0  0
   27.6640  -36.9803   -1.3047 C   0  0  0  0  0  0  0  0  0  0  0  0
   28.8604  -36.0759   -1.4541 C   0  0  2  0  0  0  0  0  0  0  0  0
   29.2820  -35.9388   -2.8302 N   0  0  0  0  0  0  0  0  0  0  0  0
   29.9943  -36.7047   -0.6844 C   0  0  0  0  0  0  0  0  0  0  0  0
   30.7359  -37.5233   -1.3123 O   0  0  0  0  0  0  0  0  0  0  0  0
   30.2556  -36.4228    0.6752 N   0  0  0  0  0  0  0  0  0  0  0  0
   31.4493  -36.9725    1.3443 C   0  0  1  0  0  0  0  0  0  0  0  0
   31.9952  -35.9671    2.2912 C   0  0  0  0  0  0  0  0  0  0  0  0
   33.1504  -36.3885    3.1287 C   0  0  0  0  0  0  0  0  0  0  0  0
   33.5002  -35.4131    4.1704 C   0  0  0  0  0  0  0  0  0  0  0  0
   32.7596  -34.4247    4.3757 O   0  0  0  0  0  0  0  0  0  0  0  0
   31.0908  -38.2601    2.0071 C   0  0  0  0  0  0  0  0  0  0  0  0
   29.8930  -38.5251    2.2474 O   0  0  0  0  0  0  0  0  0  0  0  0
   34.6431  -35.5441    4.9539 O   0  0  0  0  0  0  0  0  0  0  0  0
   32.0763  -39.1500    2.3509 O   0  0  0  0  0  0  0  0  0  0  0  0
  2  1  1  1
  2  3  1  0
  4  2  1  0
  5  7  1  0
  5  4  1  0
  5  6  1  6
  7 11  1  0
  7  8  2  0
 10  9  1  6
 11 10  1  0
 12 14  1  0
 12 10  1  0
 13 12  2  0
 15 20  1  0
 15 14  1  0
 15 16  1  1
 16 17  1  0
 18 17  1  0
 18 19  2  0
 20 23  1  0
 21 20  2  0
 22 18  1  0
M  END
$$$$
