LAE.pdb
     RDKit          3D

 23 22  0  0  1  0  0  0  0  0999 V2000
   27.3583  -18.7791   -6.3997 C   0  0  0  0  0  0  0  0  0  0  0  0
   27.4557  -20.3086   -6.3219 C   0  0  2  0  0  0  0  0  0  0  0  0
   28.9283  -20.6033   -6.0353 C   0  0  0  0  0  0  0  0  0  0  0  0
   27.1394  -20.8300   -7.6964 C   0  0  0  0  0  0  0  0  0  0  0  0
   26.0431  -20.1136   -8.4097 C   0  0  2  0  0  0  0  0  0  0  0  0
   24.8081  -20.3808   -7.6807 N   0  0  0  0  0  0  0  0  0  0  0  0
   25.8383  -20.5476   -9.8108 C   0  0  0  0  0  0  0  0  0  0  0  0
   26.7709  -20.6665  -10.6405 O   0  0  0  0  0  0  0  0  0  0  0  0
   22.9020  -21.9565  -11.7691 C   0  0  0  0  0  0  0  0  0  0  0  0
   24.2648  -21.3281  -11.6286 C   0  0  2  0  0  0  0  0  0  0  0  0
   24.5210  -20.8569  -10.2861 N   0  0  0  0  0  0  0  0  0  0  0  0
   24.3040  -20.1363  -12.5514 C   0  0  0  0  0  0  0  0  0  0  0  0
   23.8701  -19.0341  -12.0919 O   0  0  0  0  0  0  0  0  0  0  0  0
   24.7944  -20.1993  -13.8751 N   0  0  0  0  0  0  0  0  0  0  0  0
   24.8546  -18.9896  -14.7163 C   0  0  1  0  0  0  0  0  0  0  0  0
   26.1176  -18.9902  -15.4975 C   0  0  0  0  0  0  0  0  0  0  0  0
   26.3295  -17.8552  -16.4359 C   0  0  0  0  0  0  0  0  0  0  0  0
   27.5956  -17.9413  -17.1764 C   0  0  0  0  0  0  0  0  0  0  0  0
   27.7290  -17.3285  -18.2602 O   0  0  0  0  0  0  0  0  0  0  0  0
   23.6385  -18.9307  -15.5784 C   0  0  0  0  0  0  0  0  0  0  0  0
   22.9973  -19.9752  -15.8241 O   0  0  0  0  0  0  0  0  0  0  0  0
   28.6740  -18.6903  -16.7150 O   0  0  0  0  0  0  0  0  0  0  0  0
   23.2266  -17.7303  -16.0989 O   0  0  0  0  0  0  0  0  0  0  0  0
  2  1  1  6
  2  3  1  0
  4  2  1  0
  5  7  1  0
  5  4  1  0
  5  6  1  1
  7 11  1  0
  7  8  2  0
 10  9  1  1
 11 10  1  0
 12 14  1  0
 12 10  1  0
 13 12  2  0
 15 20  1  0
 15 14  1  0
 15 16  1  6
 16 17  1  0
 18 17  1  0
 18 19  2  0
 20 23  1  0
 21 20  2  0
 22 18  1  0
M  END
$$$$
