LAE.pdb
     RDKit          3D

 23 22  0  0  1  0  0  0  0  0999 V2000
   19.3097  -14.2059  -15.3759 C   0  0  0  0  0  0  0  0  0  0  0  0
   18.6836  -13.4883  -16.5792 C   0  0  2  0  0  0  0  0  0  0  0  0
   19.7373  -13.5633  -17.6845 C   0  0  0  0  0  0  0  0  0  0  0  0
   18.5286  -12.0452  -16.1861 C   0  0  0  0  0  0  0  0  0  0  0  0
   17.4742  -11.7754  -15.1667 C   0  0  2  0  0  0  0  0  0  0  0  0
   16.1884  -12.0762  -15.7866 N   0  0  0  0  0  0  0  0  0  0  0  0
   17.4251  -10.3730  -14.6930 C   0  0  0  0  0  0  0  0  0  0  0  0
   17.0069   -9.4213  -15.3942 O   0  0  0  0  0  0  0  0  0  0  0  0
   18.1042   -8.6077  -11.3907 C   0  0  0  0  0  0  0  0  0  0  0  0
   17.9375   -8.6803  -12.8870 C   0  0  2  0  0  0  0  0  0  0  0  0
   17.8703  -10.0410  -13.3708 N   0  0  0  0  0  0  0  0  0  0  0  0
   19.1505   -8.0306  -13.5033 C   0  0  0  0  0  0  0  0  0  0  0  0
   20.1164   -8.7925  -13.8211 O   0  0  0  0  0  0  0  0  0  0  0  0
   19.2490   -6.6402  -13.7351 N   0  0  0  0  0  0  0  0  0  0  0  0
   20.4536   -6.0624  -14.3594 C   0  0  1  0  0  0  0  0  0  0  0  0
   20.0568   -4.9832  -15.2993 C   0  0  0  0  0  0  0  0  0  0  0  0
   21.1506   -4.3034  -16.0444 C   0  0  0  0  0  0  0  0  0  0  0  0
   20.6658   -3.3004  -17.0025 C   0  0  0  0  0  0  0  0  0  0  0  0
   19.5564   -3.4550  -17.5619 O   0  0  0  0  0  0  0  0  0  0  0  0
   21.3812   -5.5900  -13.2908 C   0  0  0  0  0  0  0  0  0  0  0  0
   20.9246   -5.2209  -12.1873 O   0  0  0  0  0  0  0  0  0  0  0  0
   21.4028   -2.1636  -17.3210 O   0  0  0  0  0  0  0  0  0  0  0  0
   22.7330   -5.5622  -13.5218 O   0  0  0  0  0  0  0  0  0  0  0  0
  2  1  1  1
  2  3  1  0
  4  2  1  0
  5  7  1  0
  5  4  1  0
  5  6  1  6
  7 11  1  0
  7  8  2  0
 10  9  1  1
 11 10  1  0
 12 14  1  0
 12 10  1  0
 13 12  2  0
 15 20  1  0
 15 14  1  0
 15 16  1  6
 16 17  1  0
 18 17  1  0
 18 19  2  0
 20 23  1  0
 21 20  2  0
 22 18  1  0
M  END
$$$$
