LAE.pdb
     RDKit          3D

 23 22  0  0  1  0  0  0  0  0999 V2000
   24.3575  -12.6458  -14.5055 C   0  0  0  0  0  0  0  0  0  0  0  0
   23.7981  -13.3323  -15.7587 C   0  0  2  0  0  0  0  0  0  0  0  0
   25.0253  -13.7729  -16.5571 C   0  0  0  0  0  0  0  0  0  0  0  0
   23.0891  -12.2689  -16.5511 C   0  0  0  0  0  0  0  0  0  0  0  0
   21.9148  -11.6493  -15.8723 C   0  0  2  0  0  0  0  0  0  0  0  0
   20.9096  -12.6942  -15.7111 N   0  0  0  0  0  0  0  0  0  0  0  0
   21.2883  -10.5384  -16.6251 C   0  0  0  0  0  0  0  0  0  0  0  0
   21.9156   -9.5215  -17.0055 O   0  0  0  0  0  0  0  0  0  0  0  0
   17.8558   -9.9640  -18.1769 C   0  0  0  0  0  0  0  0  0  0  0  0
   19.2403   -9.5606  -17.7384 C   0  0  2  0  0  0  0  0  0  0  0  0
   19.8939  -10.5863  -16.9567 N   0  0  0  0  0  0  0  0  0  0  0  0
   19.0944   -8.3388  -16.8670 C   0  0  0  0  0  0  0  0  0  0  0  0
   19.0211   -8.5280  -15.6128 O   0  0  0  0  0  0  0  0  0  0  0  0
   19.0385   -7.0242  -17.3820 N   0  0  0  0  0  0  0  0  0  0  0  0
   18.9946   -5.8603  -16.4775 C   0  0  1  0  0  0  0  0  0  0  0  0
   19.8767   -4.7881  -17.0047 C   0  0  0  0  0  0  0  0  0  0  0  0
   19.8841   -3.4976  -16.2643 C   0  0  0  0  0  0  0  0  0  0  0  0
   20.7051   -2.4627  -16.9075 C   0  0  0  0  0  0  0  0  0  0  0  0
   21.4353   -2.7589  -17.8805 O   0  0  0  0  0  0  0  0  0  0  0  0
   17.5788   -5.4196  -16.3138 C   0  0  0  0  0  0  0  0  0  0  0  0
   16.7415   -5.6669  -17.2084 O   0  0  0  0  0  0  0  0  0  0  0  0
   20.7055   -1.1409  -16.4719 O   0  0  0  0  0  0  0  0  0  0  0  0
   17.1992   -4.7444  -15.1818 O   0  0  0  0  0  0  0  0  0  0  0  0
  2  1  1  1
  2  3  1  0
  4  2  1  0
  5  7  1  0
  5  4  1  0
  5  6  1  6
  7 11  1  0
  7  8  2  0
 10  9  1  1
 11 10  1  0
 12 14  1  0
 12 10  1  0
 13 12  2  0
 15 20  1  0
 15 14  1  0
 15 16  1  6
 16 17  1  0
 18 17  1  0
 18 19  2  0
 20 23  1  0
 21 20  2  0
 22 18  1  0
M  END
$$$$
