LAE.pdb
     RDKit          3D

 23 22  0  0  1  0  0  0  0  0999 V2000
   18.5993  -16.1349    1.7067 C   0  0  0  0  0  0  0  0  0  0  0  0
   17.6606  -15.0080    2.1581 C   0  0  2  0  0  0  0  0  0  0  0  0
   18.3748  -13.7120    1.7735 C   0  0  0  0  0  0  0  0  0  0  0  0
   17.6004  -15.0741    3.6592 C   0  0  0  0  0  0  0  0  0  0  0  0
   17.1729  -16.3883    4.2194 C   0  0  2  0  0  0  0  0  0  0  0  0
   15.7742  -16.5790    3.8517 N   0  0  0  0  0  0  0  0  0  0  0  0
   17.2646  -16.4840    5.6945 C   0  0  0  0  0  0  0  0  0  0  0  0
   18.3449  -16.4044    6.3261 O   0  0  0  0  0  0  0  0  0  0  0  0
   14.7365  -16.7758    8.5332 C   0  0  0  0  0  0  0  0  0  0  0  0
   16.1125  -16.8187    7.9194 C   0  0  2  0  0  0  0  0  0  0  0  0
   16.0812  -16.6790    6.4808 N   0  0  0  0  0  0  0  0  0  0  0  0
   16.7021  -18.1691    8.2393 C   0  0  0  0  0  0  0  0  0  0  0  0
   16.4322  -19.1217    7.4430 O   0  0  0  0  0  0  0  0  0  0  0  0
   17.5237  -18.4071    9.3639 N   0  0  0  0  0  0  0  0  0  0  0  0
   18.0615  -19.7533    9.6346 C   0  0  1  0  0  0  0  0  0  0  0  0
   19.5266  -19.7608    9.3918 C   0  0  0  0  0  0  0  0  0  0  0  0
   20.3647  -18.9376   10.3047 C   0  0  0  0  0  0  0  0  0  0  0  0
   21.7750  -19.3492   10.3294 C   0  0  0  0  0  0  0  0  0  0  0  0
   22.5335  -19.0390    9.3827 O   0  0  0  0  0  0  0  0  0  0  0  0
   17.7012  -20.1548   11.0255 C   0  0  0  0  0  0  0  0  0  0  0  0
   17.1623  -19.3285   11.7931 O   0  0  0  0  0  0  0  0  0  0  0  0
   22.3137  -20.0843   11.3812 O   0  0  0  0  0  0  0  0  0  0  0  0
   17.9618  -21.4300   11.4584 O   0  0  0  0  0  0  0  0  0  0  0  0
  2  1  1  1
  2  3  1  0
  4  2  1  0
  5  7  1  0
  5  4  1  0
  5  6  1  1
  7 11  1  0
  7  8  2  0
 10  9  1  6
 11 10  1  0
 12 14  1  0
 12 10  1  0
 13 12  2  0
 15 20  1  0
 15 14  1  0
 15 16  1  1
 16 17  1  0
 18 17  1  0
 18 19  2  0
 20 23  1  0
 21 20  2  0
 22 18  1  0
M  END
$$$$
