LAE.pdb
     RDKit          3D

 23 22  0  0  1  0  0  0  0  0999 V2000
   17.4544  -11.7052  -13.6833 C   0  0  0  0  0  0  0  0  0  0  0  0
   16.3495  -12.1315  -12.7074 C   0  0  2  0  0  0  0  0  0  0  0  0
   15.2971  -12.8271  -13.5711 C   0  0  0  0  0  0  0  0  0  0  0  0
   15.7413  -10.8666  -12.1675 C   0  0  0  0  0  0  0  0  0  0  0  0
   16.6288  -10.0669  -11.2750 C   0  0  2  0  0  0  0  0  0  0  0  0
   16.8847  -10.8737  -10.0867 N   0  0  0  0  0  0  0  0  0  0  0  0
   16.0472   -8.7811  -10.8258 C   0  0  0  0  0  0  0  0  0  0  0  0
   15.5588   -7.9327  -11.6093 O   0  0  0  0  0  0  0  0  0  0  0  0
   15.3579   -7.2100   -7.4169 C   0  0  0  0  0  0  0  0  0  0  0  0
   15.3755   -7.2582   -8.9233 C   0  0  2  0  0  0  0  0  0  0  0  0
   16.0217   -8.4476   -9.4312 N   0  0  0  0  0  0  0  0  0  0  0  0
   16.1651   -6.0651   -9.3990 C   0  0  0  0  0  0  0  0  0  0  0  0
   17.4042   -6.0420   -9.1187 O   0  0  0  0  0  0  0  0  0  0  0  0
   15.5913   -4.9990  -10.1276 N   0  0  0  0  0  0  0  0  0  0  0  0
   16.4211   -3.8758  -10.6016 C   0  0  1  0  0  0  0  0  0  0  0  0
   16.7697   -4.0843  -12.0301 C   0  0  0  0  0  0  0  0  0  0  0  0
   17.5136   -2.9888  -12.7084 C   0  0  0  0  0  0  0  0  0  0  0  0
   17.9338   -3.3298  -14.0744 C   0  0  0  0  0  0  0  0  0  0  0  0
   17.6604   -4.4552  -14.5502 O   0  0  0  0  0  0  0  0  0  0  0  0
   15.6954   -2.5946  -10.3619 C   0  0  0  0  0  0  0  0  0  0  0  0
   16.3150   -1.5097  -10.4047 O   0  0  0  0  0  0  0  0  0  0  0  0
   18.6373   -2.4369  -14.8775 O   0  0  0  0  0  0  0  0  0  0  0  0
   14.3499   -2.6100  -10.0955 O   0  0  0  0  0  0  0  0  0  0  0  0
  2  1  1  6
  2  3  1  0
  4  2  1  0
  5  7  1  0
  5  4  1  0
  5  6  1  1
  7 11  1  0
  7  8  2  0
 10  9  1  1
 11 10  1  0
 12 14  1  0
 12 10  1  0
 13 12  2  0
 15 20  1  0
 15 14  1  0
 15 16  1  6
 16 17  1  0
 18 17  1  0
 18 19  2  0
 20 23  1  0
 21 20  2  0
 22 18  1  0
M  END
$$$$
