LAE.pdb
     RDKit          3D

 23 22  0  0  1  0  0  0  0  0999 V2000
   35.4199  -19.7355    9.6471 C   0  0  0  0  0  0  0  0  0  0  0  0
   34.2415  -20.5725   10.1624 C   0  0  2  0  0  0  0  0  0  0  0  0
   34.5283  -20.7989   11.6469 C   0  0  0  0  0  0  0  0  0  0  0  0
   34.3237  -21.9038    9.4679 C   0  0  0  0  0  0  0  0  0  0  0  0
   34.0752  -21.8686    7.9980 C   0  0  2  0  0  0  0  0  0  0  0  0
   32.6851  -21.4702    7.8054 N   0  0  0  0  0  0  0  0  0  0  0  0
   34.2669  -23.1678    7.3133 C   0  0  0  0  0  0  0  0  0  0  0  0
   33.4175  -24.0900    7.3312 O   0  0  0  0  0  0  0  0  0  0  0  0
   36.8900  -24.5737    4.9360 C   0  0  0  0  0  0  0  0  0  0  0  0
   35.6934  -24.6545    5.8489 C   0  0  2  0  0  0  0  0  0  0  0  0
   35.4724  -23.4278    6.5813 N   0  0  0  0  0  0  0  0  0  0  0  0
   35.9693  -25.7470    6.8509 C   0  0  0  0  0  0  0  0  0  0  0  0
   36.5915  -25.4182    7.9088 O   0  0  0  0  0  0  0  0  0  0  0  0
   35.5701  -27.0890    6.6608 N   0  0  0  0  0  0  0  0  0  0  0  0
   35.9190  -28.1274    7.6480 C   0  0  1  0  0  0  0  0  0  0  0  0
   34.7189  -28.9483    7.9505 C   0  0  0  0  0  0  0  0  0  0  0  0
   33.6638  -28.3156    8.7872 C   0  0  0  0  0  0  0  0  0  0  0  0
   32.4885  -29.1741    8.9887 C   0  0  0  0  0  0  0  0  0  0  0  0
   32.5677  -30.4042    8.7692 O   0  0  0  0  0  0  0  0  0  0  0  0
   37.0595  -28.9359    7.1272 C   0  0  0  0  0  0  0  0  0  0  0  0
   37.3118  -28.9416    5.9029 O   0  0  0  0  0  0  0  0  0  0  0  0
   31.2666  -28.6673    9.4213 O   0  0  0  0  0  0  0  0  0  0  0  0
   37.8288  -29.6706    7.9932 O   0  0  0  0  0  0  0  0  0  0  0  0
  2  1  1  6
  2  3  1  0
  4  2  1  0
  5  7  1  0
  5  4  1  0
  5  6  1  1
  7 11  1  0
  7  8  2  0
 10  9  1  6
 11 10  1  0
 12 14  1  0
 12 10  1  0
 13 12  2  0
 15 20  1  0
 15 14  1  0
 15 16  1  6
 16 17  1  0
 18 17  1  0
 18 19  2  0
 20 23  1  0
 21 20  2  0
 22 18  1  0
M  END
$$$$
