LAE.pdb
     RDKit          3D

 23 22  0  0  1  0  0  0  0  0999 V2000
   38.7947  -12.1110   -8.4059 C   0  0  0  0  0  0  0  0  0  0  0  0
   38.9236  -11.3684   -7.0692 C   0  0  2  0  0  0  0  0  0  0  0  0
   37.4989  -11.2756   -6.5223 C   0  0  0  0  0  0  0  0  0  0  0  0
   39.3851   -9.9747   -7.3943 C   0  0  0  0  0  0  0  0  0  0  0  0
   40.7186   -9.8865   -8.0560 C   0  0  2  0  0  0  0  0  0  0  0  0
   41.7188  -10.2564   -7.0606 N   0  0  0  0  0  0  0  0  0  0  0  0
   41.0650   -8.5369   -8.5579 C   0  0  0  0  0  0  0  0  0  0  0  0
   41.4864   -7.6133   -7.8220 O   0  0  0  0  0  0  0  0  0  0  0  0
   41.4273   -6.9460  -11.9853 C   0  0  0  0  0  0  0  0  0  0  0  0
   41.2151   -6.9178  -10.4933 C   0  0  2  0  0  0  0  0  0  0  0  0
   40.9250   -8.2262   -9.9510 N   0  0  0  0  0  0  0  0  0  0  0  0
   40.0227   -6.0337  -10.2286 C   0  0  0  0  0  0  0  0  0  0  0  0
   38.8785   -6.5858  -10.2429 O   0  0  0  0  0  0  0  0  0  0  0  0
   40.1295   -4.6486   -9.9709 N   0  0  0  0  0  0  0  0  0  0  0  0
   38.9339   -3.8452   -9.6549 C   0  0  1  0  0  0  0  0  0  0  0  0
   39.3253   -2.6777   -8.8246 C   0  0  0  0  0  0  0  0  0  0  0  0
   38.2343   -1.7636   -8.3913 C   0  0  0  0  0  0  0  0  0  0  0  0
   38.7117   -0.6236   -7.5968 C   0  0  0  0  0  0  0  0  0  0  0  0
   39.9302   -0.5131   -7.3311 O   0  0  0  0  0  0  0  0  0  0  0  0
   38.2563   -3.4536  -10.9250 C   0  0  0  0  0  0  0  0  0  0  0  0
   38.8708   -3.5363  -12.0105 O   0  0  0  0  0  0  0  0  0  0  0  0
   37.8492    0.3579   -7.1172 O   0  0  0  0  0  0  0  0  0  0  0  0
   36.9606   -3.0042  -10.8986 O   0  0  0  0  0  0  0  0  0  0  0  0
  2  1  1  6
  2  3  1  0
  4  2  1  0
  5  7  1  0
  5  4  1  0
  5  6  1  1
  7 11  1  0
  7  8  2  0
 10  9  1  6
 11 10  1  0
 12 14  1  0
 12 10  1  0
 13 12  2  0
 15 20  1  0
 15 14  1  0
 15 16  1  6
 16 17  1  0
 18 17  1  0
 18 19  2  0
 20 23  1  0
 21 20  2  0
 22 18  1  0
M  END
$$$$
