LAE.pdb
     RDKit          3D

 23 22  0  0  1  0  0  0  0  0999 V2000
   15.4193  -10.5461  -13.4710 C   0  0  0  0  0  0  0  0  0  0  0  0
   14.7817   -9.2740  -12.8964 C   0  0  2  0  0  0  0  0  0  0  0  0
   14.2731   -8.4960  -14.1103 C   0  0  0  0  0  0  0  0  0  0  0  0
   15.8952   -8.4793  -12.2720 C   0  0  0  0  0  0  0  0  0  0  0  0
   17.0647   -9.2810  -11.8101 C   0  0  2  0  0  0  0  0  0  0  0  0
   16.8641   -9.5581  -10.3920 N   0  0  0  0  0  0  0  0  0  0  0  0
   18.3704   -8.5966  -11.9518 C   0  0  0  0  0  0  0  0  0  0  0  0
   18.6512   -7.5184  -11.3765 O   0  0  0  0  0  0  0  0  0  0  0  0
   21.6947   -9.4849  -13.5800 C   0  0  0  0  0  0  0  0  0  0  0  0
   20.7005   -8.5564  -12.9310 C   0  0  2  0  0  0  0  0  0  0  0  0
   19.3955   -9.1604  -12.7811 N   0  0  0  0  0  0  0  0  0  0  0  0
   20.5533   -7.3580  -13.8340 C   0  0  0  0  0  0  0  0  0  0  0  0
   19.7332   -7.4580  -14.7993 O   0  0  0  0  0  0  0  0  0  0  0  0
   21.2758   -6.1577  -13.6497 N   0  0  0  0  0  0  0  0  0  0  0  0
   21.0393   -4.9926  -14.5221 C   0  0  1  0  0  0  0  0  0  0  0  0
   19.9891   -4.1295  -13.9242 C   0  0  0  0  0  0  0  0  0  0  0  0
   19.7549   -2.8093  -14.5690 C   0  0  0  0  0  0  0  0  0  0  0  0
   18.5725   -2.1092  -14.0485 C   0  0  0  0  0  0  0  0  0  0  0  0
   17.8532   -2.6561  -13.1817 O   0  0  0  0  0  0  0  0  0  0  0  0
   22.3280   -4.2731  -14.7397 C   0  0  0  0  0  0  0  0  0  0  0  0
   23.2634   -4.4086  -13.9216 O   0  0  0  0  0  0  0  0  0  0  0  0
   18.2111   -0.8389  -14.4873 O   0  0  0  0  0  0  0  0  0  0  0  0
   22.4834   -3.4651  -15.8371 O   0  0  0  0  0  0  0  0  0  0  0  0
  2  1  1  6
  2  3  1  0
  4  2  1  0
  5  7  1  0
  5  4  1  0
  5  6  1  1
  7 11  1  0
  7  8  2  0
 10  9  1  6
 11 10  1  0
 12 14  1  0
 12 10  1  0
 13 12  2  0
 15 20  1  0
 15 14  1  0
 15 16  1  1
 16 17  1  0
 18 17  1  0
 18 19  2  0
 20 23  1  0
 21 20  2  0
 22 18  1  0
M  END
$$$$
