LAE.pdb
     RDKit          3D

 23 22  0  0  1  0  0  0  0  0999 V2000
   27.1239  -15.7211  -14.9037 C   0  0  0  0  0  0  0  0  0  0  0  0
   26.5188  -16.1239  -16.2552 C   0  0  2  0  0  0  0  0  0  0  0  0
   25.5980  -14.9670  -16.6439 C   0  0  0  0  0  0  0  0  0  0  0  0
   25.6601  -17.3315  -15.9989 C   0  0  0  0  0  0  0  0  0  0  0  0
   26.3706  -18.5004  -15.4051 C   0  0  2  0  0  0  0  0  0  0  0  0
   27.2491  -19.0404  -16.4370 N   0  0  0  0  0  0  0  0  0  0  0  0
   25.4798  -19.5958  -14.9579 C   0  0  0  0  0  0  0  0  0  0  0  0
   24.5510  -20.0610  -15.6601 O   0  0  0  0  0  0  0  0  0  0  0  0
   25.1503  -21.6413  -11.7500 C   0  0  0  0  0  0  0  0  0  0  0  0
   24.7536  -21.1838  -13.1303 C   0  0  2  0  0  0  0  0  0  0  0  0
   25.6522  -20.1835  -13.6612 N   0  0  0  0  0  0  0  0  0  0  0  0
   23.3847  -20.5617  -13.0181 C   0  0  0  0  0  0  0  0  0  0  0  0
   23.2776  -19.5262  -12.2896 O   0  0  0  0  0  0  0  0  0  0  0  0
   22.2457  -21.0753  -13.6780 N   0  0  0  0  0  0  0  0  0  0  0  0
   20.9267  -20.4363  -13.5150 C   0  0  1  0  0  0  0  0  0  0  0  0
   20.3832  -20.0720  -14.8482 C   0  0  0  0  0  0  0  0  0  0  0  0
   20.9947  -18.8975  -15.5266 C   0  0  0  0  0  0  0  0  0  0  0  0
   20.3413  -18.5542  -16.7970 C   0  0  0  0  0  0  0  0  0  0  0  0
   19.3660  -19.2277  -17.2007 O   0  0  0  0  0  0  0  0  0  0  0  0
   20.0290  -21.3519  -12.7523 C   0  0  0  0  0  0  0  0  0  0  0  0
   20.3290  -22.5591  -12.6291 O   0  0  0  0  0  0  0  0  0  0  0  0
   20.7696  -17.4910  -17.5865 O   0  0  0  0  0  0  0  0  0  0  0  0
   18.8770  -20.8666  -12.1877 O   0  0  0  0  0  0  0  0  0  0  0  0
  2  1  1  1
  2  3  1  0
  4  2  1  0
  5  7  1  0
  5  4  1  0
  5  6  1  6
  7 11  1  0
  7  8  2  0
 10  9  1  1
 11 10  1  0
 12 14  1  0
 12 10  1  0
 13 12  2  0
 15 20  1  0
 15 14  1  0
 15 16  1  6
 16 17  1  0
 18 17  1  0
 18 19  2  0
 20 23  1  0
 21 20  2  0
 22 18  1  0
M  END
$$$$
