LAE.pdb
     RDKit          3D

 23 22  0  0  1  0  0  0  0  0999 V2000
   27.9148  -13.6655  -15.1521 C   0  0  0  0  0  0  0  0  0  0  0  0
   27.6444  -13.7619  -16.6596 C   0  0  2  0  0  0  0  0  0  0  0  0
   29.0217  -13.6952  -17.3198 C   0  0  0  0  0  0  0  0  0  0  0  0
   26.8887  -12.5191  -17.0412 C   0  0  0  0  0  0  0  0  0  0  0  0
   25.5490  -12.3706  -16.4033 C   0  0  2  0  0  0  0  0  0  0  0  0
   24.7760  -13.5605  -16.7424 N   0  0  0  0  0  0  0  0  0  0  0  0
   24.7795  -11.1915  -16.8626 C   0  0  0  0  0  0  0  0  0  0  0  0
   25.2320  -10.0222  -16.8463 O   0  0  0  0  0  0  0  0  0  0  0  0
   21.3502  -10.6778  -18.4532 C   0  0  0  0  0  0  0  0  0  0  0  0
   22.6411  -10.2356  -17.8131 C   0  0  2  0  0  0  0  0  0  0  0  0
   23.4431  -11.3493  -17.3584 N   0  0  0  0  0  0  0  0  0  0  0  0
   22.2801   -9.4044  -16.6080 C   0  0  0  0  0  0  0  0  0  0  0  0
   22.1026  -10.0214  -15.5116 O   0  0  0  0  0  0  0  0  0  0  0  0
   22.1364   -7.9995  -16.6529 N   0  0  0  0  0  0  0  0  0  0  0  0
   21.8355   -7.2320  -15.4302 C   0  0  1  0  0  0  0  0  0  0  0  0
   22.1752   -5.8023  -15.6450 C   0  0  0  0  0  0  0  0  0  0  0  0
   21.8528   -4.8602  -14.5395 C   0  0  0  0  0  0  0  0  0  0  0  0
   22.0808   -3.4517  -14.8905 C   0  0  0  0  0  0  0  0  0  0  0  0
   22.7436   -3.1612  -15.9123 O   0  0  0  0  0  0  0  0  0  0  0  0
   20.4052   -7.4398  -15.0602 C   0  0  0  0  0  0  0  0  0  0  0  0
   19.5472   -7.6021  -15.9547 O   0  0  0  0  0  0  0  0  0  0  0  0
   21.5814   -2.4062  -14.1195 O   0  0  0  0  0  0  0  0  0  0  0  0
   20.0353   -7.4527  -13.7395 O   0  0  0  0  0  0  0  0  0  0  0  0
  2  1  1  1
  2  3  1  0
  4  2  1  0
  5  7  1  0
  5  4  1  0
  5  6  1  6
  7 11  1  0
  7  8  2  0
 10  9  1  1
 11 10  1  0
 12 14  1  0
 12 10  1  0
 13 12  2  0
 15 20  1  0
 15 14  1  0
 15 16  1  6
 16 17  1  0
 18 17  1  0
 18 19  2  0
 20 23  1  0
 21 20  2  0
 22 18  1  0
M  END
$$$$
