LAE.pdb
     RDKit          3D

 23 22  0  0  1  0  0  0  0  0999 V2000
   18.7074  -14.9630    2.2378 C   0  0  0  0  0  0  0  0  0  0  0  0
   17.8558  -14.2953    3.3258 C   0  0  2  0  0  0  0  0  0  0  0  0
   18.6802  -13.0998    3.8040 C   0  0  0  0  0  0  0  0  0  0  0  0
   17.7633  -15.2763    4.4617 C   0  0  0  0  0  0  0  0  0  0  0  0
   17.0055  -16.5250    4.1611 C   0  0  2  0  0  0  0  0  0  0  0  0
   15.6160  -16.1421    3.9359 N   0  0  0  0  0  0  0  0  0  0  0  0
   17.0220  -17.5284    5.2503 C   0  0  0  0  0  0  0  0  0  0  0  0
   16.3649  -17.4070    6.3113 O   0  0  0  0  0  0  0  0  0  0  0  0
   18.3153  -21.0658    5.6338 C   0  0  0  0  0  0  0  0  0  0  0  0
   17.8863  -19.7214    6.1632 C   0  0  2  0  0  0  0  0  0  0  0  0
   17.8179  -18.7150    5.1275 N   0  0  0  0  0  0  0  0  0  0  0  0
   18.9254  -19.2835    7.1643 C   0  0  0  0  0  0  0  0  0  0  0  0
   19.9906  -18.7661    6.7038 O   0  0  0  0  0  0  0  0  0  0  0  0
   18.7610  -19.4237    8.5606 N   0  0  0  0  0  0  0  0  0  0  0  0
   19.7847  -18.9210    9.4955 C   0  0  1  0  0  0  0  0  0  0  0  0
   19.1232  -18.2309   10.6321 C   0  0  0  0  0  0  0  0  0  0  0  0
   18.6247  -16.8512   10.3841 C   0  0  0  0  0  0  0  0  0  0  0  0
   17.2488  -16.6367   10.8530 C   0  0  0  0  0  0  0  0  0  0  0  0
   16.6474  -17.5488   11.4647 O   0  0  0  0  0  0  0  0  0  0  0  0
   20.6517  -20.0548    9.9296 C   0  0  0  0  0  0  0  0  0  0  0  0
   20.2804  -21.2328    9.7369 O   0  0  0  0  0  0  0  0  0  0  0  0
   16.5725  -15.4390   10.6412 O   0  0  0  0  0  0  0  0  0  0  0  0
   21.8545  -19.8019   10.5386 O   0  0  0  0  0  0  0  0  0  0  0  0
  2  1  1  6
  2  3  1  0
  4  2  1  0
  5  7  1  0
  5  4  1  0
  5  6  1  1
  7 11  1  0
  7  8  2  0
 10  9  1  6
 11 10  1  0
 12 14  1  0
 12 10  1  0
 13 12  2  0
 15 20  1  0
 15 14  1  0
 15 16  1  1
 16 17  1  0
 18 17  1  0
 18 19  2  0
 20 23  1  0
 21 20  2  0
 22 18  1  0
M  END
$$$$
