KLM.pdb
     RDKit          3D

 26 25  0  0  1  0  0  0  0  0999 V2000
   28.1000  -20.6289  -15.4559 N   0  0  0  0  0  0  0  0  0  0  0  0
   26.8030  -21.1272  -15.8311 C   0  0  1  0  0  0  0  0  0  0  0  0
   26.8480  -22.2367  -16.8504 C   0  0  0  0  0  0  0  0  0  0  0  0
   27.5840  -21.8721  -18.0797 C   0  0  0  0  0  0  0  0  0  0  0  0
   27.0285  -20.8196  -18.9489 C   0  0  0  0  0  0  0  0  0  0  0  0
   28.0364  -19.8947  -19.5635 C   0  0  0  0  0  0  0  0  0  0  0  0
   27.4002  -18.8537  -20.3679 N   0  0  0  0  0  0  0  0  0  0  0  0
   25.9726  -21.4824  -14.6563 C   0  0  0  0  0  0  0  0  0  0  0  0
   25.1338  -22.3953  -14.7219 O   0  0  0  0  0  0  0  0  0  0  0  0
   25.8725  -19.8181   -8.6877 C   0  0  0  0  0  0  0  0  0  0  0  0
   25.1140  -20.6355   -9.7468 C   0  0  2  0  0  0  0  0  0  0  0  0
   25.0790  -22.0395   -9.2107 C   0  0  0  0  0  0  0  0  0  0  0  0
   25.8701  -20.4756  -11.0269 C   0  0  0  0  0  0  0  0  0  0  0  0
   25.3082  -21.0378  -12.2538 C   0  0  2  0  0  0  0  0  0  0  0  0
   26.1140  -20.7964  -13.4417 N   0  0  0  0  0  0  0  0  0  0  0  0
   23.9713  -20.4974  -12.5607 C   0  0  0  0  0  0  0  0  0  0  0  0
   23.7421  -19.2485  -12.6393 O   0  0  0  0  0  0  0  0  0  0  0  0
   22.0672  -23.7280  -15.9985 C   0  0  0  0  0  0  0  0  0  0  0  0
   21.7696  -22.1228  -16.8216 S   0  0  0  0  0  0  0  0  0  0  0  0
   21.5316  -20.8864  -15.5227 C   0  0  0  0  0  0  0  0  0  0  0  0
   20.9525  -21.4988  -14.2889 C   0  0  0  0  0  0  0  0  0  0  0  0
   21.5050  -20.8109  -13.0400 C   0  0  2  0  0  0  0  0  0  0  0  0
   22.8244  -21.3393  -12.8043 N   0  0  0  0  0  0  0  0  0  0  0  0
   20.6204  -21.1497  -11.8851 C   0  0  0  0  0  0  0  0  0  0  0  0
   19.3761  -20.5035  -11.7759 O   0  0  0  0  0  0  0  0  0  0  0  0
   20.9213  -21.9789  -11.0034 O   0  0  0  0  0  0  0  0  0  0  0  0
  2  1  1  1
  2  8  1  0
  3  2  1  0
  3  4  1  0
  4  5  1  0
  5  6  1  0
  7  6  1  0
  8  9  2  0
 11 12  1  1
 11 10  1  0
 13 11  1  0
 14 13  1  1
 14 16  1  0
 15  8  1  0
 15 14  1  0
 16 17  2  0
 19 18  1  0
 19 20  1  0
 20 21  1  0
 22 21  1  6
 22 24  1  0
 23 16  1  0
 23 22  1  0
 24 25  1  0
 26 24  2  0
M  END
$$$$
