KLM.pdb
     RDKit          3D

 26 25  0  0  1  0  0  0  0  0999 V2000
   21.9603  -15.0762  -18.0682 N   0  0  0  0  0  0  0  0  0  0  0  0
   22.2641  -13.7389  -18.5047 C   0  0  1  0  0  0  0  0  0  0  0  0
   21.2485  -13.1637  -19.4584 C   0  0  0  0  0  0  0  0  0  0  0  0
   19.9941  -13.9440  -19.5176 C   0  0  0  0  0  0  0  0  0  0  0  0
   18.8388  -13.4840  -18.7267 C   0  0  0  0  0  0  0  0  0  0  0  0
   17.5712  -14.2595  -18.9291 C   0  0  0  0  0  0  0  0  0  0  0  0
   16.5538  -13.9065  -17.9411 N   0  0  0  0  0  0  0  0  0  0  0  0
   22.5462  -12.8254  -17.3725 C   0  0  0  0  0  0  0  0  0  0  0  0
   21.7696  -12.7491  -16.4070 O   0  0  0  0  0  0  0  0  0  0  0  0
   26.3987  -12.2917  -15.0038 C   0  0  0  0  0  0  0  0  0  0  0  0
   26.4739  -11.5781  -16.3640 C   0  0  2  0  0  0  0  0  0  0  0  0
   27.8643  -11.0112  -16.4356 C   0  0  0  0  0  0  0  0  0  0  0  0
   25.3829  -10.5556  -16.3669 C   0  0  0  0  0  0  0  0  0  0  0  0
   23.9924  -11.0068  -16.3662 C   0  0  2  0  0  0  0  0  0  0  0  0
   23.6973  -12.0250  -17.3638 N   0  0  0  0  0  0  0  0  0  0  0  0
   23.0433   -9.9084  -16.6229 C   0  0  0  0  0  0  0  0  0  0  0  0
   22.8391   -9.4418  -17.7887 O   0  0  0  0  0  0  0  0  0  0  0  0
   16.1827   -7.0074  -16.8553 C   0  0  0  0  0  0  0  0  0  0  0  0
   17.2870   -8.3804  -16.3678 S   0  0  0  0  0  0  0  0  0  0  0  0
   18.9604   -7.7059  -16.2359 C   0  0  0  0  0  0  0  0  0  0  0  0
   19.9679   -8.7891  -16.0255 C   0  0  0  0  0  0  0  0  0  0  0  0
   21.3613   -8.1922  -15.8247 C   0  0  2  0  0  0  0  0  0  0  0  0
   22.2673   -9.2848  -15.5775 N   0  0  0  0  0  0  0  0  0  0  0  0
   21.3231   -7.2982  -14.6287 C   0  0  0  0  0  0  0  0  0  0  0  0
   21.7696   -7.8030  -13.3944 O   0  0  0  0  0  0  0  0  0  0  0  0
   20.9154   -6.1199  -14.6588 O   0  0  0  0  0  0  0  0  0  0  0  0
  2  1  1  1
  2  8  1  0
  3  2  1  0
  3  4  1  0
  4  5  1  0
  5  6  1  0
  7  6  1  0
  8  9  2  0
 11 12  1  1
 11 10  1  0
 13 11  1  0
 14 13  1  6
 14 16  1  0
 15  8  1  0
 15 14  1  0
 16 17  2  0
 19 18  1  0
 19 20  1  0
 20 21  1  0
 22 21  1  1
 22 24  1  0
 23 16  1  0
 23 22  1  0
 24 25  1  0
 26 24  2  0
M  END
$$$$
