KLM.pdb
     RDKit          3D

 26 25  0  0  1  0  0  0  0  0999 V2000
   24.2678  -18.3869  -14.2168 N   0  0  0  0  0  0  0  0  0  0  0  0
   23.7732  -19.7328  -14.0934 C   0  0  1  0  0  0  0  0  0  0  0  0
   22.9209  -20.1775  -15.2543 C   0  0  0  0  0  0  0  0  0  0  0  0
   22.0489  -19.1072  -15.7835 C   0  0  0  0  0  0  0  0  0  0  0  0
   20.9391  -18.6215  -14.9443 C   0  0  0  0  0  0  0  0  0  0  0  0
   20.3197  -17.3279  -15.3827 C   0  0  0  0  0  0  0  0  0  0  0  0
   19.2808  -16.8810  -14.4573 N   0  0  0  0  0  0  0  0  0  0  0  0
   24.8493  -20.7044  -13.7871 C   0  0  0  0  0  0  0  0  0  0  0  0
   24.6277  -21.9258  -13.8022 O   0  0  0  0  0  0  0  0  0  0  0  0
   30.6978  -20.1307  -11.7733 C   0  0  0  0  0  0  0  0  0  0  0  0
   29.5521  -21.1402  -11.9561 C   0  0  2  0  0  0  0  0  0  0  0  0
   30.1310  -22.2464  -12.7933 C   0  0  0  0  0  0  0  0  0  0  0  0
   28.4283  -20.3934  -12.6004 C   0  0  0  0  0  0  0  0  0  0  0  0
   27.1430  -21.0669  -12.7776 C   0  0  2  0  0  0  0  0  0  0  0  0
   26.1442  -20.2681  -13.4728 N   0  0  0  0  0  0  0  0  0  0  0  0
   26.5262  -21.4507  -11.4948 C   0  0  0  0  0  0  0  0  0  0  0  0
   26.2972  -22.6628  -11.1837 O   0  0  0  0  0  0  0  0  0  0  0  0
   27.5672  -18.9206   -4.2166 C   0  0  0  0  0  0  0  0  0  0  0  0
   27.5738  -18.4981   -5.9953 S   0  0  0  0  0  0  0  0  0  0  0  0
   26.7947  -19.8709   -6.8789 C   0  0  0  0  0  0  0  0  0  0  0  0
   26.8794  -19.6827   -8.3587 C   0  0  0  0  0  0  0  0  0  0  0  0
   26.1184  -20.7933   -9.0838 C   0  0  2  0  0  0  0  0  0  0  0  0
   26.1439  -20.4861  -10.4912 N   0  0  0  0  0  0  0  0  0  0  0  0
   24.7052  -20.7897   -8.6000 C   0  0  0  0  0  0  0  0  0  0  0  0
   24.4282  -21.3070   -7.3221 O   0  0  0  0  0  0  0  0  0  0  0  0
   23.7469  -20.3515   -9.2673 O   0  0  0  0  0  0  0  0  0  0  0  0
  2  1  1  6
  2  8  1  0
  3  2  1  0
  3  4  1  0
  4  5  1  0
  5  6  1  0
  7  6  1  0
  8  9  2  0
 11 12  1  6
 11 10  1  0
 13 11  1  0
 14 13  1  1
 14 16  1  0
 15  8  1  0
 15 14  1  0
 16 17  2  0
 19 18  1  0
 19 20  1  0
 20 21  1  0
 22 21  1  1
 22 24  1  0
 23 16  1  0
 23 22  1  0
 24 25  1  0
 26 24  2  0
M  END
$$$$
