KLM.pdb
     RDKit          3D

 26 25  0  0  1  0  0  0  0  0999 V2000
   19.1530  -24.9531  -10.9219 N   0  0  0  0  0  0  0  0  0  0  0  0
   18.0709  -24.0972  -11.3315 C   0  0  1  0  0  0  0  0  0  0  0  0
   17.1968  -23.6336  -10.1944 C   0  0  0  0  0  0  0  0  0  0  0  0
   17.1201  -24.6047   -9.0822 C   0  0  0  0  0  0  0  0  0  0  0  0
   18.0277  -24.4353   -7.9335 C   0  0  0  0  0  0  0  0  0  0  0  0
   17.8174  -25.3953   -6.8006 C   0  0  0  0  0  0  0  0  0  0  0  0
   18.8829  -25.3035   -5.8048 N   0  0  0  0  0  0  0  0  0  0  0  0
   18.5306  -22.9703  -12.1768 C   0  0  0  0  0  0  0  0  0  0  0  0
   17.7392  -22.0892  -12.5490 O   0  0  0  0  0  0  0  0  0  0  0  0
   24.0344  -20.7399  -13.8937 C   0  0  0  0  0  0  0  0  0  0  0  0
   22.5251  -20.6048  -14.1560 C   0  0  2  0  0  0  0  0  0  0  0  0
   22.1910  -19.1800  -13.8126 C   0  0  0  0  0  0  0  0  0  0  0  0
   21.8526  -21.6273  -13.2969 C   0  0  0  0  0  0  0  0  0  0  0  0
   20.4084  -21.8156  -13.4227 C   0  0  2  0  0  0  0  0  0  0  0  0
   19.8707  -22.8715  -12.5771 N   0  0  0  0  0  0  0  0  0  0  0  0
   20.0023  -22.1586  -14.7977 C   0  0  0  0  0  0  0  0  0  0  0  0
   20.2079  -23.3079  -15.3030 O   0  0  0  0  0  0  0  0  0  0  0  0
   14.7087  -22.0440  -17.6035 C   0  0  0  0  0  0  0  0  0  0  0  0
   15.5706  -21.5435  -19.1362 S   0  0  0  0  0  0  0  0  0  0  0  0
   17.3469  -21.5960  -18.7981 C   0  0  0  0  0  0  0  0  0  0  0  0
   17.6284  -21.4179  -17.3415 C   0  0  0  0  0  0  0  0  0  0  0  0
   19.1331  -21.4768  -17.0761 C   0  0  2  0  0  0  0  0  0  0  0  0
   19.3339  -21.2244  -15.6719 N   0  0  0  0  0  0  0  0  0  0  0  0
   19.7948  -20.4012  -17.8739 C   0  0  0  0  0  0  0  0  0  0  0  0
   19.9419  -20.5832  -19.2605 O   0  0  0  0  0  0  0  0  0  0  0  0
   20.2289  -19.3414  -17.3799 O   0  0  0  0  0  0  0  0  0  0  0  0
  2  1  1  1
  2  8  1  0
  3  2  1  0
  3  4  1  0
  4  5  1  0
  5  6  1  0
  7  6  1  0
  8  9  2  0
 11 12  1  1
 11 10  1  0
 13 11  1  0
 14 13  1  6
 14 16  1  0
 15  8  1  0
 15 14  1  0
 16 17  2  0
 19 18  1  0
 19 20  1  0
 20 21  1  0
 22 21  1  1
 22 24  1  0
 23 16  1  0
 23 22  1  0
 24 25  1  0
 26 24  2  0
M  END
$$$$
