KLM.pdb
     RDKit          3D

 26 25  0  0  1  0  0  0  0  0999 V2000
   23.6926  -18.7405  -13.5249 N   0  0  0  0  0  0  0  0  0  0  0  0
   23.4795  -20.1637  -13.5073 C   0  0  1  0  0  0  0  0  0  0  0  0
   23.2521  -20.7627  -14.8716 C   0  0  0  0  0  0  0  0  0  0  0  0
   21.8218  -20.9352  -15.2037 C   0  0  0  0  0  0  0  0  0  0  0  0
   21.3101  -20.3400  -16.4509 C   0  0  0  0  0  0  0  0  0  0  0  0
   19.8218  -20.1667  -16.5175 C   0  0  0  0  0  0  0  0  0  0  0  0
   19.4102  -19.4581  -17.7275 N   0  0  0  0  0  0  0  0  0  0  0  0
   24.5308  -20.8832  -12.7504 C   0  0  0  0  0  0  0  0  0  0  0  0
   24.5715  -22.1239  -12.7394 O   0  0  0  0  0  0  0  0  0  0  0  0
   30.0883  -19.6918  -10.8485 C   0  0  0  0  0  0  0  0  0  0  0  0
   29.1013  -20.8697  -10.9060 C   0  0  2  0  0  0  0  0  0  0  0  0
   29.8675  -21.9955  -11.5427 C   0  0  0  0  0  0  0  0  0  0  0  0
   27.9212  -20.3957  -11.6923 C   0  0  0  0  0  0  0  0  0  0  0  0
   26.5817  -20.7990  -11.2678 C   0  0  2  0  0  0  0  0  0  0  0  0
   25.5057  -20.1803  -12.0282 N   0  0  0  0  0  0  0  0  0  0  0  0
   26.3147  -20.4692   -9.8559 C   0  0  0  0  0  0  0  0  0  0  0  0
   26.6358  -19.3495   -9.3446 O   0  0  0  0  0  0  0  0  0  0  0  0
   29.0526  -18.7256   -6.0658 C   0  0  0  0  0  0  0  0  0  0  0  0
   27.9507  -19.7857   -5.0635 S   0  0  0  0  0  0  0  0  0  0  0  0
   26.2794  -19.6128   -5.7339 C   0  0  0  0  0  0  0  0  0  0  0  0
   26.2583  -19.8502   -7.2090 C   0  0  0  0  0  0  0  0  0  0  0  0
   25.7574  -21.2618   -7.5167 C   0  0  2  0  0  0  0  0  0  0  0  0
   25.6622  -21.3833   -8.9491 N   0  0  0  0  0  0  0  0  0  0  0  0
   24.4004  -21.4223   -6.9132 C   0  0  0  0  0  0  0  0  0  0  0  0
   24.2842  -21.4515   -5.5121 O   0  0  0  0  0  0  0  0  0  0  0  0
   23.3543  -21.5330   -7.5833 O   0  0  0  0  0  0  0  0  0  0  0  0
  2  1  1  6
  2  8  1  0
  3  2  1  0
  3  4  1  0
  4  5  1  0
  5  6  1  0
  7  6  1  0
  8  9  2  0
 11 12  1  6
 11 10  1  0
 13 11  1  0
 14 13  1  6
 14 16  1  0
 15  8  1  0
 15 14  1  0
 16 17  2  0
 19 18  1  0
 19 20  1  0
 20 21  1  0
 22 21  1  6
 22 24  1  0
 23 16  1  0
 23 22  1  0
 24 25  1  0
 26 24  2  0
M  END
$$$$
