KLM.pdb
     RDKit          3D

 26 25  0  0  1  0  0  0  0  0999 V2000
   28.2335  -20.2260  -15.7262 N   0  0  0  0  0  0  0  0  0  0  0  0
   27.0740  -19.4978  -15.2828 C   0  0  1  0  0  0  0  0  0  0  0  0
   26.4181  -18.6789  -16.3650 C   0  0  0  0  0  0  0  0  0  0  0  0
   27.3302  -17.6972  -16.9896 C   0  0  0  0  0  0  0  0  0  0  0  0
   28.0437  -18.0805  -18.2207 C   0  0  0  0  0  0  0  0  0  0  0  0
   28.9263  -17.0203  -18.8091 C   0  0  0  0  0  0  0  0  0  0  0  0
   28.3826  -15.6805  -18.5974 N   0  0  0  0  0  0  0  0  0  0  0  0
   26.1029  -20.3611  -14.5705 C   0  0  0  0  0  0  0  0  0  0  0  0
   25.7907  -21.4749  -15.0212 O   0  0  0  0  0  0  0  0  0  0  0  0
   26.5435  -21.9930  -10.5414 C   0  0  0  0  0  0  0  0  0  0  0  0
   26.0682  -20.5322  -10.4688 C   0  0  2  0  0  0  0  0  0  0  0  0
   26.0675  -20.1901   -9.0050 C   0  0  0  0  0  0  0  0  0  0  0  0
   24.7224  -20.4918  -11.1191 C   0  0  0  0  0  0  0  0  0  0  0  0
   24.6233  -20.7546  -12.5537 C   0  0  2  0  0  0  0  0  0  0  0  0
   25.5128  -19.9413  -13.3699 N   0  0  0  0  0  0  0  0  0  0  0  0
   23.2669  -20.5137  -13.0785 C   0  0  0  0  0  0  0  0  0  0  0  0
   22.7347  -19.3583  -13.0885 O   0  0  0  0  0  0  0  0  0  0  0  0
   22.4265  -23.7530  -16.8484 C   0  0  0  0  0  0  0  0  0  0  0  0
   20.9493  -22.9252  -17.5376 S   0  0  0  0  0  0  0  0  0  0  0  0
   20.0750  -22.1458  -16.1589 C   0  0  0  0  0  0  0  0  0  0  0  0
   20.6435  -22.5720  -14.8445 C   0  0  0  0  0  0  0  0  0  0  0  0
   21.0748  -21.3535  -14.0276 C   0  0  2  0  0  0  0  0  0  0  0  0
   22.4431  -21.5637  -13.6286 N   0  0  0  0  0  0  0  0  0  0  0  0
   20.2101  -21.2706  -12.8125 C   0  0  0  0  0  0  0  0  0  0  0  0
   18.8562  -20.9248  -12.9701 O   0  0  0  0  0  0  0  0  0  0  0  0
   20.6201  -21.4916  -11.6555 O   0  0  0  0  0  0  0  0  0  0  0  0
  2  1  1  6
  2  8  1  0
  3  2  1  0
  3  4  1  0
  4  5  1  0
  5  6  1  0
  7  6  1  0
  8  9  2  0
 11 12  1  1
 11 10  1  0
 13 11  1  0
 14 13  1  1
 14 16  1  0
 15  8  1  0
 15 14  1  0
 16 17  2  0
 19 18  1  0
 19 20  1  0
 20 21  1  0
 22 21  1  6
 22 24  1  0
 23 16  1  0
 23 22  1  0
 24 25  1  0
 26 24  2  0
M  END
$$$$
