KLM.pdb
     RDKit          3D

 26 25  0  0  1  0  0  0  0  0999 V2000
   27.9651  -21.5709  -15.5961 N   0  0  0  0  0  0  0  0  0  0  0  0
   26.9137  -20.6381  -15.2870 C   0  0  1  0  0  0  0  0  0  0  0  0
   26.2752  -20.0150  -16.5019 C   0  0  0  0  0  0  0  0  0  0  0  0
   27.2528  -19.4069  -17.4294 C   0  0  0  0  0  0  0  0  0  0  0  0
   27.9114  -18.1488  -17.0354 C   0  0  0  0  0  0  0  0  0  0  0  0
   28.8507  -17.5692  -18.0508 C   0  0  0  0  0  0  0  0  0  0  0  0
   29.5655  -16.4062  -17.5292 N   0  0  0  0  0  0  0  0  0  0  0  0
   25.9087  -21.2068  -14.3584 C   0  0  0  0  0  0  0  0  0  0  0  0
   25.3774  -22.3048  -14.5897 O   0  0  0  0  0  0  0  0  0  0  0  0
   26.3204  -22.0325   -9.9016 C   0  0  0  0  0  0  0  0  0  0  0  0
   26.0999  -20.5392  -10.1959 C   0  0  2  0  0  0  0  0  0  0  0  0
   26.1804  -19.8576   -8.8585 C   0  0  0  0  0  0  0  0  0  0  0  0
   24.7701  -20.4324  -10.8711 C   0  0  0  0  0  0  0  0  0  0  0  0
   24.6019  -21.0239  -12.1973 C   0  0  2  0  0  0  0  0  0  0  0  0
   25.5331  -20.5191  -13.1958 N   0  0  0  0  0  0  0  0  0  0  0  0
   23.2559  -20.7913  -12.7517 C   0  0  0  0  0  0  0  0  0  0  0  0
   22.8068  -19.6242  -12.9853 O   0  0  0  0  0  0  0  0  0  0  0  0
   19.7638  -24.9736  -16.5458 C   0  0  0  0  0  0  0  0  0  0  0  0
   18.5090  -24.3854  -15.3533 S   0  0  0  0  0  0  0  0  0  0  0  0
   19.1170  -22.8325  -14.6523 C   0  0  0  0  0  0  0  0  0  0  0  0
   20.5278  -22.9656  -14.1786 C   0  0  0  0  0  0  0  0  0  0  0  0
   21.0299  -21.6368  -13.6126 C   0  0  2  0  0  0  0  0  0  0  0  0
   22.3491  -21.8653  -13.0806 N   0  0  0  0  0  0  0  0  0  0  0  0
   20.1145  -21.2188  -12.5088 C   0  0  0  0  0  0  0  0  0  0  0  0
   18.9064  -20.5796  -12.8396 O   0  0  0  0  0  0  0  0  0  0  0  0
   20.3591  -21.4042  -11.2999 O   0  0  0  0  0  0  0  0  0  0  0  0
  2  1  1  6
  2  8  1  0
  3  2  1  0
  3  4  1  0
  4  5  1  0
  5  6  1  0
  7  6  1  0
  8  9  2  0
 11 12  1  1
 11 10  1  0
 13 11  1  0
 14 13  1  1
 14 16  1  0
 15  8  1  0
 15 14  1  0
 16 17  2  0
 19 18  1  0
 19 20  1  0
 20 21  1  0
 22 21  1  1
 22 24  1  0
 23 16  1  0
 23 22  1  0
 24 25  1  0
 26 24  2  0
M  END
$$$$
