KLM.pdb
     RDKit          3D

 26 25  0  0  1  0  0  0  0  0999 V2000
   20.7464  -22.1827  -13.4958 N   0  0  0  0  0  0  0  0  0  0  0  0
   20.5835  -20.7619  -13.3341 C   0  0  1  0  0  0  0  0  0  0  0  0
   19.6753  -20.3786  -12.1939 C   0  0  0  0  0  0  0  0  0  0  0  0
   18.3264  -20.9756  -12.2946 C   0  0  0  0  0  0  0  0  0  0  0  0
   18.0572  -22.2356  -11.5794 C   0  0  0  0  0  0  0  0  0  0  0  0
   16.6540  -22.7527  -11.6934 C   0  0  0  0  0  0  0  0  0  0  0  0
   16.5069  -24.0682  -11.0742 N   0  0  0  0  0  0  0  0  0  0  0  0
   21.8804  -20.0471  -13.2787 C   0  0  0  0  0  0  0  0  0  0  0  0
   21.9247  -18.8228  -13.0783 O   0  0  0  0  0  0  0  0  0  0  0  0
   24.6068  -20.0359  -10.3515 C   0  0  0  0  0  0  0  0  0  0  0  0
   24.8838  -21.2765  -11.2170 C   0  0  2  0  0  0  0  0  0  0  0  0
   25.8983  -22.0757  -10.4477 C   0  0  0  0  0  0  0  0  0  0  0  0
   25.3618  -20.7714  -12.5408 C   0  0  0  0  0  0  0  0  0  0  0  0
   24.4068  -20.1173  -13.4336 C   0  0  2  0  0  0  0  0  0  0  0  0
   23.0893  -20.7361  -13.4510 N   0  0  0  0  0  0  0  0  0  0  0  0
   24.8622  -20.1063  -14.8356 C   0  0  0  0  0  0  0  0  0  0  0  0
   26.0188  -19.6986  -15.1738 O   0  0  0  0  0  0  0  0  0  0  0  0
   23.1506  -24.2520  -19.2002 C   0  0  0  0  0  0  0  0  0  0  0  0
   23.6122  -22.9797  -20.4294 S   0  0  0  0  0  0  0  0  0  0  0  0
   24.2305  -21.5461  -19.5157 C   0  0  0  0  0  0  0  0  0  0  0  0
   23.8722  -21.6288  -18.0675 C   0  0  0  0  0  0  0  0  0  0  0  0
   24.4251  -20.4212  -17.3097 C   0  0  2  0  0  0  0  0  0  0  0  0
   24.0386  -20.5641  -15.9291 N   0  0  0  0  0  0  0  0  0  0  0  0
   23.8037  -19.1857  -17.8742 C   0  0  0  0  0  0  0  0  0  0  0  0
   22.5836  -18.7381  -17.3370 O   0  0  0  0  0  0  0  0  0  0  0  0
   24.3063  -18.5207  -18.8020 O   0  0  0  0  0  0  0  0  0  0  0  0
  2  1  1  1
  2  8  1  0
  3  2  1  0
  3  4  1  0
  4  5  1  0
  5  6  1  0
  7  6  1  0
  8  9  2  0
 11 12  1  1
 11 10  1  0
 13 11  1  0
 14 13  1  1
 14 16  1  0
 15  8  1  0
 15 14  1  0
 16 17  2  0
 19 18  1  0
 19 20  1  0
 20 21  1  0
 22 21  1  6
 22 24  1  0
 23 16  1  0
 23 22  1  0
 24 25  1  0
 26 24  2  0
M  END
$$$$
