KLM.pdb
     RDKit          3D

 26 25  0  0  1  0  0  0  0  0999 V2000
   23.2198  -20.1055  -16.2859 N   0  0  0  0  0  0  0  0  0  0  0  0
   24.3593  -20.8306  -16.7829 C   0  0  1  0  0  0  0  0  0  0  0  0
   24.3767  -20.9852  -18.2821 C   0  0  0  0  0  0  0  0  0  0  0  0
   23.0258  -21.0612  -18.8779 C   0  0  0  0  0  0  0  0  0  0  0  0
   22.4913  -19.8742  -19.5687 C   0  0  0  0  0  0  0  0  0  0  0  0
   21.0055  -19.8634  -19.7727 C   0  0  0  0  0  0  0  0  0  0  0  0
   20.5623  -20.9807  -20.6038 N   0  0  0  0  0  0  0  0  0  0  0  0
   25.6398  -20.2966  -16.2623 C   0  0  0  0  0  0  0  0  0  0  0  0
   26.7173  -20.8522  -16.5298 O   0  0  0  0  0  0  0  0  0  0  0  0
   27.7888  -16.6047  -17.1261 C   0  0  0  0  0  0  0  0  0  0  0  0
   26.5719  -16.3717  -16.2150 C   0  0  2  0  0  0  0  0  0  0  0  0
   26.4503  -14.8784  -16.0936 C   0  0  0  0  0  0  0  0  0  0  0  0
   26.8626  -17.0801  -14.9306 C   0  0  0  0  0  0  0  0  0  0  0  0
   26.8740  -18.5418  -14.9173 C   0  0  2  0  0  0  0  0  0  0  0  0
   25.6660  -19.1506  -15.4550 N   0  0  0  0  0  0  0  0  0  0  0  0
   27.0284  -19.0919  -13.5583 C   0  0  0  0  0  0  0  0  0  0  0  0
   28.1051  -18.9705  -12.8917 O   0  0  0  0  0  0  0  0  0  0  0  0
   22.1121  -20.4299   -9.8002 C   0  0  0  0  0  0  0  0  0  0  0  0
   23.3516  -21.2072   -8.7038 S   0  0  0  0  0  0  0  0  0  0  0  0
   24.9427  -21.1503   -9.5626 C   0  0  0  0  0  0  0  0  0  0  0  0
   24.8286  -20.4390  -10.8717 C   0  0  0  0  0  0  0  0  0  0  0  0
   26.1662  -20.4632  -11.6122 C   0  0  2  0  0  0  0  0  0  0  0  0
   25.9716  -19.8004  -12.8766 N   0  0  0  0  0  0  0  0  0  0  0  0
   26.5468  -21.8877  -11.8514 C   0  0  0  0  0  0  0  0  0  0  0  0
   27.2285  -22.5834  -10.8371 O   0  0  0  0  0  0  0  0  0  0  0  0
   26.2942  -22.5032  -12.9063 O   0  0  0  0  0  0  0  0  0  0  0  0
  2  1  1  6
  2  8  1  0
  3  2  1  0
  3  4  1  0
  4  5  1  0
  5  6  1  0
  7  6  1  0
  8  9  2  0
 11 12  1  1
 11 10  1  0
 13 11  1  0
 14 13  1  1
 14 16  1  0
 15  8  1  0
 15 14  1  0
 16 17  2  0
 19 18  1  0
 19 20  1  0
 20 21  1  0
 22 21  1  1
 22 24  1  0
 23 16  1  0
 23 22  1  0
 24 25  1  0
 26 24  2  0
M  END
$$$$
