KLM.pdb
     RDKit          3D

 26 25  0  0  1  0  0  0  0  0999 V2000
   22.7935  -20.9550  -19.0410 N   0  0  0  0  0  0  0  0  0  0  0  0
   23.3120  -20.1807  -17.9442 C   0  0  1  0  0  0  0  0  0  0  0  0
   24.8172  -20.1120  -17.9046 C   0  0  0  0  0  0  0  0  0  0  0  0
   25.4673  -21.4294  -18.0709 C   0  0  0  0  0  0  0  0  0  0  0  0
   25.1992  -22.4797  -17.0726 C   0  0  0  0  0  0  0  0  0  0  0  0
   26.0698  -23.6970  -17.1701 C   0  0  0  0  0  0  0  0  0  0  0  0
   25.7973  -24.6484  -16.0948 N   0  0  0  0  0  0  0  0  0  0  0  0
   22.6898  -18.8387  -17.8561 C   0  0  0  0  0  0  0  0  0  0  0  0
   23.0314  -18.0350  -16.9736 O   0  0  0  0  0  0  0  0  0  0  0  0
   22.8976  -14.9477  -19.6043 C   0  0  0  0  0  0  0  0  0  0  0  0
   22.3150  -16.0295  -20.5292 C   0  0  2  0  0  0  0  0  0  0  0  0
   22.2378  -15.3881  -21.8865 C   0  0  0  0  0  0  0  0  0  0  0  0
   20.9936  -16.4179  -19.9470 C   0  0  0  0  0  0  0  0  0  0  0  0
   20.9683  -17.1868  -18.7040 C   0  0  2  0  0  0  0  0  0  0  0  0
   21.7002  -18.4435  -18.7673 N   0  0  0  0  0  0  0  0  0  0  0  0
   19.5991  -17.5418  -18.2887 C   0  0  0  0  0  0  0  0  0  0  0  0
   18.6880  -16.6691  -18.1252 O   0  0  0  0  0  0  0  0  0  0  0  0
   17.6829  -23.5767  -16.1099 C   0  0  0  0  0  0  0  0  0  0  0  0
   16.2558  -23.0012  -17.0972 S   0  0  0  0  0  0  0  0  0  0  0  0
   16.3754  -21.2003  -17.2194 C   0  0  0  0  0  0  0  0  0  0  0  0
   17.7647  -20.7699  -17.5620 C   0  0  0  0  0  0  0  0  0  0  0  0
   17.8620  -19.2441  -17.5843 C   0  0  2  0  0  0  0  0  0  0  0  0
   19.1837  -18.9027  -18.0450 N   0  0  0  0  0  0  0  0  0  0  0  0
   17.6758  -18.7395  -16.1908 C   0  0  0  0  0  0  0  0  0  0  0  0
   16.4308  -18.1929  -15.8318 O   0  0  0  0  0  0  0  0  0  0  0  0
   18.5661  -18.7740  -15.3180 O   0  0  0  0  0  0  0  0  0  0  0  0
  2  1  1  6
  2  8  1  0
  3  2  1  0
  3  4  1  0
  4  5  1  0
  5  6  1  0
  7  6  1  0
  8  9  2  0
 11 12  1  6
 11 10  1  0
 13 11  1  0
 14 13  1  6
 14 16  1  0
 15  8  1  0
 15 14  1  0
 16 17  2  0
 19 18  1  0
 19 20  1  0
 20 21  1  0
 22 21  1  1
 22 24  1  0
 23 16  1  0
 23 22  1  0
 24 25  1  0
 26 24  2  0
M  END
$$$$
