KLM.pdb
     RDKit          3D

 26 25  0  0  1  0  0  0  0  0999 V2000
   23.8061  -36.2235  -12.4928 N   0  0  0  0  0  0  0  0  0  0  0  0
   23.2548  -35.3990  -11.4500 C   0  0  1  0  0  0  0  0  0  0  0  0
   21.7745  -35.5906  -11.2402 C   0  0  0  0  0  0  0  0  0  0  0  0
   20.9575  -35.1317  -12.3837 C   0  0  0  0  0  0  0  0  0  0  0  0
   19.7078  -34.4003  -12.1098 C   0  0  0  0  0  0  0  0  0  0  0  0
   18.8878  -34.0534  -13.3167 C   0  0  0  0  0  0  0  0  0  0  0  0
   17.7288  -33.2336  -12.9698 N   0  0  0  0  0  0  0  0  0  0  0  0
   24.0161  -35.5059  -10.1832 C   0  0  0  0  0  0  0  0  0  0  0  0
   24.7612  -36.4753   -9.9677 O   0  0  0  0  0  0  0  0  0  0  0  0
   27.7500  -34.3128   -8.4297 C   0  0  0  0  0  0  0  0  0  0  0  0
   26.7754  -33.2021   -8.8556 C   0  0  2  0  0  0  0  0  0  0  0  0
   27.5645  -31.9263   -8.7587 C   0  0  0  0  0  0  0  0  0  0  0  0
   25.6069  -33.2844   -7.9263 C   0  0  0  0  0  0  0  0  0  0  0  0
   24.7318  -34.4534   -7.9942 C   0  0  2  0  0  0  0  0  0  0  0  0
   23.9139  -34.5147   -9.1968 N   0  0  0  0  0  0  0  0  0  0  0  0
   23.7870  -34.5167   -6.8643 C   0  0  0  0  0  0  0  0  0  0  0  0
   22.8072  -33.7136   -6.7488 O   0  0  0  0  0  0  0  0  0  0  0  0
   20.7297  -38.9895   -1.1571 C   0  0  0  0  0  0  0  0  0  0  0  0
   21.9789  -38.8943   -2.4887 S   0  0  0  0  0  0  0  0  0  0  0  0
   22.0203  -37.1811   -3.0681 C   0  0  0  0  0  0  0  0  0  0  0  0
   23.0120  -37.0044   -4.1717 C   0  0  0  0  0  0  0  0  0  0  0  0
   22.9493  -35.5802   -4.7246 C   0  0  2  0  0  0  0  0  0  0  0  0
   23.8934  -35.4965   -5.8096 N   0  0  0  0  0  0  0  0  0  0  0  0
   23.3535  -34.6355   -3.6404 C   0  0  0  0  0  0  0  0  0  0  0  0
   22.3882  -34.2360   -2.6990 O   0  0  0  0  0  0  0  0  0  0  0  0
   24.5062  -34.1752   -3.5183 O   0  0  0  0  0  0  0  0  0  0  0  0
  2  1  1  6
  2  8  1  0
  3  2  1  0
  3  4  1  0
  4  5  1  0
  5  6  1  0
  7  6  1  0
  8  9  2  0
 11 12  1  1
 11 10  1  0
 13 11  1  0
 14 13  1  6
 14 16  1  0
 15  8  1  0
 15 14  1  0
 16 17  2  0
 19 18  1  0
 19 20  1  0
 20 21  1  0
 22 21  1  1
 22 24  1  0
 23 16  1  0
 23 22  1  0
 24 25  1  0
 26 24  2  0
M  END
$$$$
