KLM.pdb
     RDKit          3D

 26 25  0  0  1  0  0  0  0  0999 V2000
   28.3062  -21.1999  -15.5995 N   0  0  0  0  0  0  0  0  0  0  0  0
   27.5317  -20.2298  -14.8714 C   0  0  1  0  0  0  0  0  0  0  0  0
   27.1549  -19.0171  -15.6834 C   0  0  0  0  0  0  0  0  0  0  0  0
   27.3475  -19.2040  -17.1373 C   0  0  0  0  0  0  0  0  0  0  0  0
   27.1787  -18.0412  -18.0268 C   0  0  0  0  0  0  0  0  0  0  0  0
   27.3290  -18.3249  -19.4918 C   0  0  0  0  0  0  0  0  0  0  0  0
   27.1950  -17.1129  -20.2972 N   0  0  0  0  0  0  0  0  0  0  0  0
   26.3600  -20.8344  -14.1952 C   0  0  0  0  0  0  0  0  0  0  0  0
   25.8536  -21.8863  -14.6177 O   0  0  0  0  0  0  0  0  0  0  0  0
   25.9668  -22.2820   -9.9275 C   0  0  0  0  0  0  0  0  0  0  0  0
   25.9252  -20.7460   -9.9892 C   0  0  2  0  0  0  0  0  0  0  0  0
   25.8115  -20.2967   -8.5592 C   0  0  0  0  0  0  0  0  0  0  0  0
   24.7561  -20.3881  -10.8499 C   0  0  0  0  0  0  0  0  0  0  0  0
   24.7456  -20.8262  -12.2445 C   0  0  2  0  0  0  0  0  0  0  0  0
   25.7944  -20.2336  -13.0617 N   0  0  0  0  0  0  0  0  0  0  0  0
   23.4783  -20.5063  -12.9264 C   0  0  0  0  0  0  0  0  0  0  0  0
   23.0701  -19.3114  -13.0816 O   0  0  0  0  0  0  0  0  0  0  0  0
   20.4933  -24.5440  -16.9779 C   0  0  0  0  0  0  0  0  0  0  0  0
   18.9920  -23.6779  -16.3962 S   0  0  0  0  0  0  0  0  0  0  0  0
   19.5343  -22.2336  -15.4516 C   0  0  0  0  0  0  0  0  0  0  0  0
   20.8635  -22.4706  -14.8114 C   0  0  0  0  0  0  0  0  0  0  0  0
   21.3432  -21.2097  -14.0916 C   0  0  2  0  0  0  0  0  0  0  0  0
   22.6094  -21.5187  -13.4775 N   0  0  0  0  0  0  0  0  0  0  0  0
   20.3484  -20.8645  -13.0322 C   0  0  0  0  0  0  0  0  0  0  0  0
   19.2545  -20.0494  -13.3737 O   0  0  0  0  0  0  0  0  0  0  0  0
   20.4300  -21.2591  -11.8518 O   0  0  0  0  0  0  0  0  0  0  0  0
  2  1  1  6
  2  8  1  0
  3  2  1  0
  3  4  1  0
  4  5  1  0
  5  6  1  0
  7  6  1  0
  8  9  2  0
 11 12  1  1
 11 10  1  0
 13 11  1  0
 14 13  1  1
 14 16  1  0
 15  8  1  0
 15 14  1  0
 16 17  2  0
 19 18  1  0
 19 20  1  0
 20 21  1  0
 22 21  1  1
 22 24  1  0
 23 16  1  0
 23 22  1  0
 24 25  1  0
 26 24  2  0
M  END
$$$$
