KLM.pdb
     RDKit          3D

 26 25  0  0  1  0  0  0  0  0999 V2000
   22.5185  -19.2413  -13.1920 N   0  0  0  0  0  0  0  0  0  0  0  0
   22.6647  -20.6647  -13.0380 C   0  0  1  0  0  0  0  0  0  0  0  0
   21.9274  -21.4690  -14.0780 C   0  0  0  0  0  0  0  0  0  0  0  0
   20.4736  -21.2014  -14.1019 C   0  0  0  0  0  0  0  0  0  0  0  0
   19.8724  -20.6791  -15.3419 C   0  0  0  0  0  0  0  0  0  0  0  0
   18.4010  -20.3969  -15.2741 C   0  0  0  0  0  0  0  0  0  0  0  0
   17.8926  -19.8542  -16.5321 N   0  0  0  0  0  0  0  0  0  0  0  0
   24.0826  -21.0773  -12.9158 C   0  0  0  0  0  0  0  0  0  0  0  0
   24.3938  -22.2776  -12.8550 O   0  0  0  0  0  0  0  0  0  0  0  0
   27.5799  -19.8746  -15.6710 C   0  0  0  0  0  0  0  0  0  0  0  0
   27.1452  -18.7932  -14.6677 C   0  0  2  0  0  0  0  0  0  0  0  0
   27.9739  -17.5855  -15.0060 C   0  0  0  0  0  0  0  0  0  0  0  0
   27.3915  -19.3564  -13.3046 C   0  0  0  0  0  0  0  0  0  0  0  0
   26.5293  -20.4323  -12.8189 C   0  0  2  0  0  0  0  0  0  0  0  0
   25.1079  -20.1221  -12.8659 N   0  0  0  0  0  0  0  0  0  0  0  0
   26.8138  -20.7937  -11.4183 C   0  0  0  0  0  0  0  0  0  0  0  0
   27.7632  -21.5764  -11.0952 O   0  0  0  0  0  0  0  0  0  0  0  0
   29.2758  -20.0910   -4.8517 C   0  0  0  0  0  0  0  0  0  0  0  0
   28.0098  -19.1004   -5.7228 S   0  0  0  0  0  0  0  0  0  0  0  0
   27.0186  -20.2436   -6.7144 C   0  0  0  0  0  0  0  0  0  0  0  0
   26.9463  -19.8038   -8.1406 C   0  0  0  0  0  0  0  0  0  0  0  0
   26.1570  -20.8148   -8.9730 C   0  0  2  0  0  0  0  0  0  0  0  0
   26.0466  -20.2828  -10.3073 N   0  0  0  0  0  0  0  0  0  0  0  0
   24.7935  -20.9524   -8.3786 C   0  0  0  0  0  0  0  0  0  0  0  0
   24.6654  -21.5614   -7.1176 O   0  0  0  0  0  0  0  0  0  0  0  0
   23.7518  -20.5560   -8.9385 O   0  0  0  0  0  0  0  0  0  0  0  0
  2  1  1  6
  2  8  1  0
  3  2  1  0
  3  4  1  0
  4  5  1  0
  5  6  1  0
  7  6  1  0
  8  9  2  0
 11 12  1  6
 11 10  1  0
 13 11  1  0
 14 13  1  1
 14 16  1  0
 15  8  1  0
 15 14  1  0
 16 17  2  0
 19 18  1  0
 19 20  1  0
 20 21  1  0
 22 21  1  1
 22 24  1  0
 23 16  1  0
 23 22  1  0
 24 25  1  0
 26 24  2  0
M  END
$$$$
