KLM.pdb
     RDKit          3D

 26 25  0  0  1  0  0  0  0  0999 V2000
   27.5056  -19.6151  -15.0232 N   0  0  0  0  0  0  0  0  0  0  0  0
   26.9964  -20.9160  -15.3688 C   0  0  1  0  0  0  0  0  0  0  0  0
   28.0683  -21.9573  -15.5657 C   0  0  0  0  0  0  0  0  0  0  0  0
   29.0744  -21.5765  -16.5799 C   0  0  0  0  0  0  0  0  0  0  0  0
   28.6301  -20.8252  -17.7673 C   0  0  0  0  0  0  0  0  0  0  0  0
   29.6943  -20.5445  -18.7861 C   0  0  0  0  0  0  0  0  0  0  0  0
   29.2048  -19.6844  -19.8614 N   0  0  0  0  0  0  0  0  0  0  0  0
   25.9380  -21.3741  -14.4384 C   0  0  0  0  0  0  0  0  0  0  0  0
   25.4537  -22.5131  -14.5357 O   0  0  0  0  0  0  0  0  0  0  0  0
   25.8904  -22.2399  -10.1583 C   0  0  0  0  0  0  0  0  0  0  0  0
   25.9315  -20.7258  -10.4248 C   0  0  2  0  0  0  0  0  0  0  0  0
   26.1010  -20.0918   -9.0724 C   0  0  0  0  0  0  0  0  0  0  0  0
   24.6518  -20.3828  -11.1182 C   0  0  0  0  0  0  0  0  0  0  0  0
   24.4215  -20.8935  -12.4684 C   0  0  2  0  0  0  0  0  0  0  0  0
   25.4574  -20.5325  -13.4252 N   0  0  0  0  0  0  0  0  0  0  0  0
   23.1557  -20.4070  -13.0468 C   0  0  0  0  0  0  0  0  0  0  0  0
   22.9045  -19.1686  -13.1936 O   0  0  0  0  0  0  0  0  0  0  0  0
   19.1285  -24.1196  -16.6572 C   0  0  0  0  0  0  0  0  0  0  0  0
   18.7031  -22.4138  -17.1592 S   0  0  0  0  0  0  0  0  0  0  0  0
   19.1879  -21.3162  -15.8055 C   0  0  0  0  0  0  0  0  0  0  0  0
   20.4569  -21.7737  -15.1629 C   0  0  0  0  0  0  0  0  0  0  0  0
   20.8635  -20.8176  -14.0409 C   0  0  2  0  0  0  0  0  0  0  0  0
   22.1103  -21.2940  -13.4985 N   0  0  0  0  0  0  0  0  0  0  0  0
   19.8119  -20.8606  -12.9809 C   0  0  0  0  0  0  0  0  0  0  0  0
   18.7339  -19.9613  -13.0631 O   0  0  0  0  0  0  0  0  0  0  0  0
   19.8323  -21.6533  -12.0182 O   0  0  0  0  0  0  0  0  0  0  0  0
  2  1  1  1
  2  8  1  0
  3  2  1  0
  3  4  1  0
  4  5  1  0
  5  6  1  0
  7  6  1  0
  8  9  2  0
 11 12  1  1
 11 10  1  0
 13 11  1  0
 14 13  1  1
 14 16  1  0
 15  8  1  0
 15 14  1  0
 16 17  2  0
 19 18  1  0
 19 20  1  0
 20 21  1  0
 22 21  1  6
 22 24  1  0
 23 16  1  0
 23 22  1  0
 24 25  1  0
 26 24  2  0
M  END
$$$$
