WYL.pdb
     RDKit          3D

 35 37  0  0  1  0  0  0  0  0999 V2000
    6.9337  -17.8278   23.8422 N   0  0  0  0  0  0  0  0  0  0  0  0
    7.8357  -16.7169   23.8931 C   0  0  1  0  0  0  0  0  0  0  0  0
    7.9684  -16.1071   25.2500 C   0  0  0  0  0  0  0  0  0  0  0  0
    6.9083  -15.1418   25.5757 C   0  0  0  0  0  0  0  0  0  0  0  0
    5.6487  -15.4550   26.0452 C   0  0  0  0  0  0  0  0  0  0  0  0
    4.9445  -14.3096   26.2326 N   0  0  0  0  0  0  0  0  0  0  0  0
    5.7043  -13.2531   25.9003 C   0  0  0  0  0  0  0  0  0  0  0  0
    5.4677  -11.8950   25.9084 C   0  0  0  0  0  0  0  0  0  0  0  0
    6.4894  -11.0678   25.4954 C   0  0  0  0  0  0  0  0  0  0  0  0
    7.7130  -11.5820   25.0859 C   0  0  0  0  0  0  0  0  0  0  0  0
    7.9363  -12.9242   25.0815 C   0  0  0  0  0  0  0  0  0  0  0  0
    6.9348  -13.7731   25.4886 C   0  0  0  0  0  0  0  0  0  0  0  0
    9.2044  -17.2159   23.4973 C   0  0  0  0  0  0  0  0  0  0  0  0
    9.3824  -18.4564   23.4605 O   0  0  0  0  0  0  0  0  0  0  0  0
   17.8798  -17.1267   21.6274 O   0  0  0  0  0  0  0  0  0  0  0  0
   16.5572  -16.7234   21.8798 C   0  0  0  0  0  0  0  0  0  0  0  0
   15.5264  -17.1160   21.0554 C   0  0  0  0  0  0  0  0  0  0  0  0
   14.2249  -16.7188   21.3046 C   0  0  0  0  0  0  0  0  0  0  0  0
   13.9000  -15.9176   22.3811 C   0  0  0  0  0  0  0  0  0  0  0  0
   12.5038  -15.4948   22.6457 C   0  0  0  0  0  0  0  0  0  0  0  0
   11.6543  -16.5977   23.1673 C   0  0  2  0  0  0  0  0  0  0  0  0
   10.2538  -16.3347   23.1782 N   0  0  0  0  0  0  0  0  0  0  0  0
   12.1108  -17.1227   24.5088 C   0  0  0  0  0  0  0  0  0  0  0  0
   13.0541  -17.9342   24.6450 O   0  0  0  0  0  0  0  0  0  0  0  0
   14.9384  -15.5302   23.1999 C   0  0  0  0  0  0  0  0  0  0  0  0
   16.2488  -15.9233   22.9589 C   0  0  0  0  0  0  0  0  0  0  0  0
   10.4067  -14.1964   26.8476 C   0  0  0  0  0  0  0  0  0  0  0  0
   10.6526  -15.2461   27.9532 C   0  0  2  0  0  0  0  0  0  0  0  0
   10.4202  -14.5699   29.2981 C   0  0  0  0  0  0  0  0  0  0  0  0
   12.0324  -15.7849   27.8761 C   0  0  0  0  0  0  0  0  0  0  0  0
   12.1008  -16.9936   26.9890 C   0  0  2  0  0  0  0  0  0  0  0  0
   11.4587  -16.6940   25.6967 N   0  0  0  0  0  0  0  0  0  0  0  0
   11.3546  -18.1300   27.5743 C   0  0  0  0  0  0  0  0  0  0  0  0
   11.6151  -18.6212   28.7017 O   0  0  0  0  0  0  0  0  0  0  0  0
   10.3052  -18.6850   26.8334 O   0  0  0  0  0  0  0  0  0  0  0  0
  2  1  1  1
  3  2  1  0
  4  5  2  0
  4  3  1  0
  6  5  1  0
  7 12  2  0
  7  6  1  0
  8  7  1  0
  9 10  1  0
  9  8  2  0
 10 11  2  0
 11 12  1  0
 12  4  1  0
 13  2  1  0
 14 13  2  0
 16 17  2  0
 16 15  1  0
 18 17  1  0
 19 18  2  0
 21 20  1  1
 20 19  1  0
 21 22  1  0
 22 13  1  0
 23 24  2  0
 23 21  1  0
 25 19  1  0
 25 26  2  0
 26 16  1  0
 28 27  1  6
 28 30  1  0
 29 28  1  0
 31 30  1  1
 31 32  1  0
 32 23  1  0
 33 35  1  0
 33 31  1  0
 34 33  2  0
M  END
$$$$
