WYL.pdb
     RDKit          3D

 35 37  0  0  1  0  0  0  0  0999 V2000
    8.5238  -18.7505   20.8711 N   0  0  0  0  0  0  0  0  0  0  0  0
    8.8672  -17.3977   21.1910 C   0  0  1  0  0  0  0  0  0  0  0  0
    7.7493  -16.6182   21.8020 C   0  0  0  0  0  0  0  0  0  0  0  0
    7.2094  -15.5661   20.9282 C   0  0  0  0  0  0  0  0  0  0  0  0
    6.0185  -15.6272   20.2332 C   0  0  0  0  0  0  0  0  0  0  0  0
    5.8500  -14.4758   19.5341 N   0  0  0  0  0  0  0  0  0  0  0  0
    6.8949  -13.6600   19.7493 C   0  0  0  0  0  0  0  0  0  0  0  0
    7.2044  -12.3990   19.2857 C   0  0  0  0  0  0  0  0  0  0  0  0
    8.3860  -11.8348   19.7148 C   0  0  0  0  0  0  0  0  0  0  0  0
    9.2347  -12.5102   20.5825 C   0  0  0  0  0  0  0  0  0  0  0  0
    8.9199  -13.7545   21.0342 C   0  0  0  0  0  0  0  0  0  0  0  0
    7.7473  -14.3418   20.6225 C   0  0  0  0  0  0  0  0  0  0  0  0
    9.9861  -17.4334   22.2040 C   0  0  0  0  0  0  0  0  0  0  0  0
   10.2128  -18.5231   22.7811 O   0  0  0  0  0  0  0  0  0  0  0  0
   14.5932  -15.4664   17.7278 O   0  0  0  0  0  0  0  0  0  0  0  0
   14.1596  -15.3893   19.0626 C   0  0  0  0  0  0  0  0  0  0  0  0
   14.7310  -16.1727   20.0404 C   0  0  0  0  0  0  0  0  0  0  0  0
   14.3039  -16.0963   21.3539 C   0  0  0  0  0  0  0  0  0  0  0  0
   13.2939  -15.2394   21.7440 C   0  0  0  0  0  0  0  0  0  0  0  0
   12.8394  -15.1593   23.1529 C   0  0  0  0  0  0  0  0  0  0  0  0
   11.7849  -16.1554   23.4783 C   0  0  2  0  0  0  0  0  0  0  0  0
   10.7563  -16.2943   22.5019 N   0  0  0  0  0  0  0  0  0  0  0  0
   11.1933  -15.9732   24.8568 C   0  0  0  0  0  0  0  0  0  0  0  0
   11.7254  -15.2714   25.7463 O   0  0  0  0  0  0  0  0  0  0  0  0
   12.7285  -14.4599   20.7583 C   0  0  0  0  0  0  0  0  0  0  0  0
   13.1500  -14.5287   19.4364 C   0  0  0  0  0  0  0  0  0  0  0  0
    8.1907  -12.8395   25.4565 C   0  0  0  0  0  0  0  0  0  0  0  0
    8.2550  -14.3822   25.4858 C   0  0  2  0  0  0  0  0  0  0  0  0
    6.8306  -14.9057   25.6157 C   0  0  0  0  0  0  0  0  0  0  0  0
    9.0867  -14.8573   26.6182 C   0  0  0  0  0  0  0  0  0  0  0  0
    9.3737  -16.3265   26.5098 C   0  0  2  0  0  0  0  0  0  0  0  0
    9.9717  -16.6165   25.1944 N   0  0  0  0  0  0  0  0  0  0  0  0
    8.1282  -17.1224   26.5887 C   0  0  0  0  0  0  0  0  0  0  0  0
    7.3930  -17.1570   27.6076 O   0  0  0  0  0  0  0  0  0  0  0  0
    7.7510  -17.8742   25.4704 O   0  0  0  0  0  0  0  0  0  0  0  0
  2  1  1  1
  3  2  1  0
  4  5  2  0
  4  3  1  0
  6  5  1  0
  7 12  2  0
  7  6  1  0
  8  7  1  0
  9 10  1  0
  9  8  2  0
 10 11  2  0
 11 12  1  0
 12  4  1  0
 13  2  1  0
 14 13  2  0
 16 17  2  0
 16 15  1  0
 18 17  1  0
 19 18  2  0
 21 20  1  6
 20 19  1  0
 21 22  1  0
 22 13  1  0
 23 24  2  0
 23 21  1  0
 25 19  1  0
 25 26  2  0
 26 16  1  0
 28 27  1  1
 28 30  1  0
 29 28  1  0
 31 30  1  6
 31 32  1  0
 32 23  1  0
 33 35  1  0
 33 31  1  0
 34 33  2  0
M  END
$$$$
