WYL.pdb
     RDKit          3D

 35 37  0  0  1  0  0  0  0  0999 V2000
    6.4783  -19.2821   25.6688 N   0  0  0  0  0  0  0  0  0  0  0  0
    6.3873  -17.8660   25.4772 C   0  0  1  0  0  0  0  0  0  0  0  0
    6.9007  -17.0655   26.6287 C   0  0  0  0  0  0  0  0  0  0  0  0
    6.4452  -15.6675   26.6327 C   0  0  0  0  0  0  0  0  0  0  0  0
    5.1485  -15.2411   26.4278 C   0  0  0  0  0  0  0  0  0  0  0  0
    5.1070  -13.8862   26.5024 N   0  0  0  0  0  0  0  0  0  0  0  0
    6.3380  -13.4100   26.7505 C   0  0  0  0  0  0  0  0  0  0  0  0
    6.8276  -12.1317   26.9154 C   0  0  0  0  0  0  0  0  0  0  0  0
    8.1758  -11.9930   27.1640 C   0  0  0  0  0  0  0  0  0  0  0  0
    9.0117  -13.0992   27.2458 C   0  0  0  0  0  0  0  0  0  0  0  0
    8.5186  -14.3567   27.0814 C   0  0  0  0  0  0  0  0  0  0  0  0
    7.1773  -14.5248   26.8323 C   0  0  0  0  0  0  0  0  0  0  0  0
    7.2324  -17.5079   24.2785 C   0  0  0  0  0  0  0  0  0  0  0  0
    8.1408  -18.3065   23.9485 O   0  0  0  0  0  0  0  0  0  0  0  0
    9.8016  -13.3482   16.8465 O   0  0  0  0  0  0  0  0  0  0  0  0
    9.1232  -13.6961   18.0274 C   0  0  0  0  0  0  0  0  0  0  0  0
    8.4998  -14.9174   18.1537 C   0  0  0  0  0  0  0  0  0  0  0  0
    7.8324  -15.2592   19.3163 C   0  0  0  0  0  0  0  0  0  0  0  0
    7.7598  -14.4006   20.3952 C   0  0  0  0  0  0  0  0  0  0  0  0
    7.0447  -14.7707   21.6400 C   0  0  0  0  0  0  0  0  0  0  0  0
    7.7105  -15.8720   22.3843 C   0  0  2  0  0  0  0  0  0  0  0  0
    7.0219  -16.3247   23.5469 N   0  0  0  0  0  0  0  0  0  0  0  0
    9.1621  -15.5919   22.6970 C   0  0  0  0  0  0  0  0  0  0  0  0
   10.0313  -15.4021   21.8164 O   0  0  0  0  0  0  0  0  0  0  0  0
    8.3866  -13.1811   20.2588 C   0  0  0  0  0  0  0  0  0  0  0  0
    9.0596  -12.8279   19.0959 C   0  0  0  0  0  0  0  0  0  0  0  0
    9.1422  -15.5639   26.5457 C   0  0  0  0  0  0  0  0  0  0  0  0
   10.5758  -15.0253   26.7443 C   0  0  2  0  0  0  0  0  0  0  0  0
   10.5697  -14.1256   27.9733 C   0  0  0  0  0  0  0  0  0  0  0  0
   11.0288  -14.2693   25.5514 C   0  0  0  0  0  0  0  0  0  0  0  0
   10.9862  -15.1185   24.3146 C   0  0  2  0  0  0  0  0  0  0  0  0
    9.5974  -15.5337   24.0488 N   0  0  0  0  0  0  0  0  0  0  0  0
   11.7688  -16.3624   24.4924 C   0  0  0  0  0  0  0  0  0  0  0  0
   11.2540  -17.5092   24.4931 O   0  0  0  0  0  0  0  0  0  0  0  0
   13.1527  -16.2544   24.6683 O   0  0  0  0  0  0  0  0  0  0  0  0
  2  1  1  1
  3  2  1  0
  4  5  2  0
  4  3  1  0
  6  5  1  0
  7 12  2  0
  7  6  1  0
  8  7  1  0
  9 10  1  0
  9  8  2  0
 10 11  2  0
 11 12  1  0
 12  4  1  0
 13  2  1  0
 14 13  2  0
 16 17  2  0
 16 15  1  0
 18 17  1  0
 19 18  2  0
 21 20  1  1
 20 19  1  0
 21 22  1  0
 22 13  1  0
 23 24  2  0
 23 21  1  0
 25 19  1  0
 25 26  2  0
 26 16  1  0
 28 27  1  6
 28 30  1  0
 29 28  1  0
 31 30  1  1
 31 32  1  0
 32 23  1  0
 33 35  1  0
 33 31  1  0
 34 33  2  0
M  END
$$$$
