WYL.pdb
     RDKit          3D

 35 37  0  0  1  0  0  0  0  0999 V2000
    7.2839  -18.9879   25.5021 N   0  0  0  0  0  0  0  0  0  0  0  0
    6.3841  -18.6764   24.4328 C   0  0  1  0  0  0  0  0  0  0  0  0
    5.4789  -17.5238   24.7203 C   0  0  0  0  0  0  0  0  0  0  0  0
    5.9874  -16.6102   25.7541 C   0  0  0  0  0  0  0  0  0  0  0  0
    6.0203  -16.8651   27.1102 C   0  0  0  0  0  0  0  0  0  0  0  0
    6.5550  -15.7954   27.7527 N   0  0  0  0  0  0  0  0  0  0  0  0
    6.8744  -14.8453   26.8587 C   0  0  0  0  0  0  0  0  0  0  0  0
    7.4349  -13.5925   26.9894 C   0  0  0  0  0  0  0  0  0  0  0  0
    7.6325  -12.8599   25.8393 C   0  0  0  0  0  0  0  0  0  0  0  0
    7.2806  -13.3636   24.5937 C   0  0  0  0  0  0  0  0  0  0  0  0
    6.7279  -14.6014   24.4755 C   0  0  0  0  0  0  0  0  0  0  0  0
    6.5193  -15.3546   25.6063 C   0  0  0  0  0  0  0  0  0  0  0  0
    7.2125  -18.2978   23.2288 C   0  0  0  0  0  0  0  0  0  0  0  0
    6.7561  -18.5831   22.0964 O   0  0  0  0  0  0  0  0  0  0  0  0
    9.7357  -12.3625   17.7703 O   0  0  0  0  0  0  0  0  0  0  0  0
    9.2957  -13.1540   18.8454 C   0  0  0  0  0  0  0  0  0  0  0  0
    8.7216  -12.5822   19.9588 C   0  0  0  0  0  0  0  0  0  0  0  0
    8.2887  -13.3619   21.0164 C   0  0  0  0  0  0  0  0  0  0  0  0
    8.4104  -14.7372   21.0067 C   0  0  0  0  0  0  0  0  0  0  0  0
    7.9443  -15.5697   22.1415 C   0  0  0  0  0  0  0  0  0  0  0  0
    8.9607  -16.5575   22.5901 C   0  0  2  0  0  0  0  0  0  0  0  0
    8.4541  -17.6481   23.3547 N   0  0  0  0  0  0  0  0  0  0  0  0
   10.1469  -15.9252   23.2806 C   0  0  0  0  0  0  0  0  0  0  0  0
   11.0806  -15.3617   22.6659 O   0  0  0  0  0  0  0  0  0  0  0  0
    8.9862  -15.2996   19.8882 C   0  0  0  0  0  0  0  0  0  0  0  0
    9.4242  -14.5261   18.8207 C   0  0  0  0  0  0  0  0  0  0  0  0
    9.6381  -13.0436   26.3574 C   0  0  0  0  0  0  0  0  0  0  0  0
    9.7483  -14.4909   26.8846 C   0  0  2  0  0  0  0  0  0  0  0  0
    9.3249  -14.4876   28.3477 C   0  0  0  0  0  0  0  0  0  0  0  0
   11.1341  -15.0015   26.7477 C   0  0  0  0  0  0  0  0  0  0  0  0
   11.4420  -15.3797   25.3283 C   0  0  2  0  0  0  0  0  0  0  0  0
   10.2392  -15.9531   24.6986 N   0  0  0  0  0  0  0  0  0  0  0  0
   12.4864  -16.4269   25.2680 C   0  0  0  0  0  0  0  0  0  0  0  0
   13.6755  -16.2393   25.6298 O   0  0  0  0  0  0  0  0  0  0  0  0
   12.1300  -17.6902   24.7831 O   0  0  0  0  0  0  0  0  0  0  0  0
  2  1  1  1
  3  2  1  0
  4  5  2  0
  4  3  1  0
  6  5  1  0
  7 12  2  0
  7  6  1  0
  8  7  1  0
  9 10  1  0
  9  8  2  0
 10 11  2  0
 11 12  1  0
 12  4  1  0
 13  2  1  0
 14 13  2  0
 16 17  2  0
 16 15  1  0
 18 17  1  0
 19 18  2  0
 21 20  1  1
 20 19  1  0
 21 22  1  0
 22 13  1  0
 23 24  2  0
 23 21  1  0
 25 19  1  0
 25 26  2  0
 26 16  1  0
 28 27  1  1
 28 30  1  0
 29 28  1  0
 31 30  1  1
 31 32  1  0
 32 23  1  0
 33 35  1  0
 33 31  1  0
 34 33  2  0
M  END
$$$$
