WYL.pdb
     RDKit          3D

 35 37  0  0  1  0  0  0  0  0999 V2000
    6.5592  -17.3375   25.4003 N   0  0  0  0  0  0  0  0  0  0  0  0
    6.7044  -17.2094   23.9816 C   0  0  1  0  0  0  0  0  0  0  0  0
    6.1870  -15.9196   23.4345 C   0  0  0  0  0  0  0  0  0  0  0  0
    5.8684  -14.9205   24.4650 C   0  0  0  0  0  0  0  0  0  0  0  0
    5.1027  -15.1403   25.5922 C   0  0  0  0  0  0  0  0  0  0  0  0
    5.0245  -13.9907   26.3100 N   0  0  0  0  0  0  0  0  0  0  0  0
    5.7162  -13.0221   25.6877 C   0  0  0  0  0  0  0  0  0  0  0  0
    5.9479  -11.6980   25.9937 C   0  0  0  0  0  0  0  0  0  0  0  0
    6.7209  -10.9675   25.1177 C   0  0  0  0  0  0  0  0  0  0  0  0
    7.2478  -11.5426   23.9684 C   0  0  0  0  0  0  0  0  0  0  0  0
    7.0131  -12.8505   23.6755 C   0  0  0  0  0  0  0  0  0  0  0  0
    6.2453  -13.6033   24.5317 C   0  0  0  0  0  0  0  0  0  0  0  0
    8.1790  -17.2648   23.6623 C   0  0  0  0  0  0  0  0  0  0  0  0
    8.7168  -18.3953   23.5945 O   0  0  0  0  0  0  0  0  0  0  0  0
    7.1841  -13.8121   17.8277 O   0  0  0  0  0  0  0  0  0  0  0  0
    8.0342  -14.0459   18.9223 C   0  0  0  0  0  0  0  0  0  0  0  0
    8.1466  -13.1272   19.9420 C   0  0  0  0  0  0  0  0  0  0  0  0
    8.9834  -13.3580   21.0191 C   0  0  0  0  0  0  0  0  0  0  0  0
    9.7389  -14.5091   21.1226 C   0  0  0  0  0  0  0  0  0  0  0  0
   10.6338  -14.7536   22.2790 C   0  0  0  0  0  0  0  0  0  0  0  0
   10.2937  -15.9960   23.0213 C   0  0  2  0  0  0  0  0  0  0  0  0
    8.9374  -16.0997   23.4460 N   0  0  0  0  0  0  0  0  0  0  0  0
   11.2366  -16.2875   24.1656 C   0  0  0  0  0  0  0  0  0  0  0  0
   12.4768  -16.1342   24.0911 O   0  0  0  0  0  0  0  0  0  0  0  0
    9.6195  -15.4219   20.0973 C   0  0  0  0  0  0  0  0  0  0  0  0
    8.7822  -15.2002   19.0112 C   0  0  0  0  0  0  0  0  0  0  0  0
   10.8892  -14.2768   27.7449 C   0  0  0  0  0  0  0  0  0  0  0  0
   10.0633  -15.5809   27.7899 C   0  0  2  0  0  0  0  0  0  0  0  0
    9.1876  -15.5354   29.0353 C   0  0  0  0  0  0  0  0  0  0  0  0
   10.9496  -16.7697   27.8232 C   0  0  0  0  0  0  0  0  0  0  0  0
   11.6676  -16.9557   26.5185 C   0  0  2  0  0  0  0  0  0  0  0  0
   10.7235  -16.7608   25.4037 N   0  0  0  0  0  0  0  0  0  0  0  0
   12.1916  -18.3339   26.3877 C   0  0  0  0  0  0  0  0  0  0  0  0
   11.7708  -19.1558   25.5348 O   0  0  0  0  0  0  0  0  0  0  0  0
   13.2080  -18.7411   27.2591 O   0  0  0  0  0  0  0  0  0  0  0  0
  2  1  1  1
  3  2  1  0
  4  5  2  0
  4  3  1  0
  6  5  1  0
  7 12  2  0
  7  6  1  0
  8  7  1  0
  9 10  1  0
  9  8  2  0
 10 11  2  0
 11 12  1  0
 12  4  1  0
 13  2  1  0
 14 13  2  0
 16 17  2  0
 16 15  1  0
 18 17  1  0
 19 18  2  0
 21 20  1  1
 20 19  1  0
 21 22  1  0
 22 13  1  0
 23 24  2  0
 23 21  1  0
 25 19  1  0
 25 26  2  0
 26 16  1  0
 28 27  1  1
 28 30  1  0
 29 28  1  0
 31 30  1  1
 31 32  1  0
 32 23  1  0
 33 35  1  0
 33 31  1  0
 34 33  2  0
M  END
$$$$
