WYL.pdb
     RDKit          3D

 35 37  0  0  1  0  0  0  0  0999 V2000
    5.9794  -17.4778   23.6686 N   0  0  0  0  0  0  0  0  0  0  0  0
    7.2386  -16.8163   23.5037 C   0  0  1  0  0  0  0  0  0  0  0  0
    7.6899  -16.0646   24.7127 C   0  0  0  0  0  0  0  0  0  0  0  0
    6.7501  -15.0224   25.1515 C   0  0  0  0  0  0  0  0  0  0  0  0
    5.6799  -15.2081   26.0031 C   0  0  0  0  0  0  0  0  0  0  0  0
    5.0396  -14.0242   26.1801 N   0  0  0  0  0  0  0  0  0  0  0  0
    5.6576  -13.0662   25.4702 C   0  0  0  0  0  0  0  0  0  0  0  0
    5.4116  -11.7192   25.3096 C   0  0  0  0  0  0  0  0  0  0  0  0
    6.2616  -11.0096   24.4895 C   0  0  0  0  0  0  0  0  0  0  0  0
    7.3273  -11.6274   23.8477 C   0  0  0  0  0  0  0  0  0  0  0  0
    7.5614  -12.9575   24.0127 C   0  0  0  0  0  0  0  0  0  0  0  0
    6.7294  -13.6902   24.8253 C   0  0  0  0  0  0  0  0  0  0  0  0
    8.2811  -17.8723   23.2255 C   0  0  0  0  0  0  0  0  0  0  0  0
    7.9425  -18.8510   22.5188 O   0  0  0  0  0  0  0  0  0  0  0  0
   14.7954  -14.0900   19.2103 O   0  0  0  0  0  0  0  0  0  0  0  0
   13.7060  -14.5423   19.9748 C   0  0  0  0  0  0  0  0  0  0  0  0
   13.4774  -14.0540   21.2419 C   0  0  0  0  0  0  0  0  0  0  0  0
   12.4050  -14.4995   21.9936 C   0  0  0  0  0  0  0  0  0  0  0  0
   11.5210  -15.4457   21.5145 C   0  0  0  0  0  0  0  0  0  0  0  0
   10.3721  -15.9200   22.3225 C   0  0  0  0  0  0  0  0  0  0  0  0
   10.7068  -17.0940   23.1710 C   0  0  2  0  0  0  0  0  0  0  0  0
    9.5898  -17.7774   23.7331 N   0  0  0  0  0  0  0  0  0  0  0  0
   11.7387  -16.7913   24.2327 C   0  0  0  0  0  0  0  0  0  0  0  0
   12.9227  -16.4797   23.9720 O   0  0  0  0  0  0  0  0  0  0  0  0
   11.7585  -15.9281   20.2457 C   0  0  0  0  0  0  0  0  0  0  0  0
   12.8323  -15.4876   19.4823 C   0  0  0  0  0  0  0  0  0  0  0  0
   11.6805  -13.7721   27.2031 C   0  0  0  0  0  0  0  0  0  0  0  0
   10.9022  -15.0214   27.6704 C   0  0  2  0  0  0  0  0  0  0  0  0
   10.1741  -14.6622   28.9591 C   0  0  0  0  0  0  0  0  0  0  0  0
   11.8197  -16.1648   27.8956 C   0  0  0  0  0  0  0  0  0  0  0  0
   12.4373  -16.6342   26.6108 C   0  0  2  0  0  0  0  0  0  0  0  0
   11.3810  -16.8537   25.6069 N   0  0  0  0  0  0  0  0  0  0  0  0
   13.1221  -17.9343   26.7897 C   0  0  0  0  0  0  0  0  0  0  0  0
   14.2435  -18.0547   27.3447 O   0  0  0  0  0  0  0  0  0  0  0  0
   12.4870  -19.0878   26.3163 O   0  0  0  0  0  0  0  0  0  0  0  0
  2  1  1  1
  3  2  1  0
  4  5  2  0
  4  3  1  0
  6  5  1  0
  7 12  2  0
  7  6  1  0
  8  7  1  0
  9 10  1  0
  9  8  2  0
 10 11  2  0
 11 12  1  0
 12  4  1  0
 13  2  1  0
 14 13  2  0
 16 17  2  0
 16 15  1  0
 18 17  1  0
 19 18  2  0
 21 20  1  1
 20 19  1  0
 21 22  1  0
 22 13  1  0
 23 24  2  0
 23 21  1  0
 25 19  1  0
 25 26  2  0
 26 16  1  0
 28 27  1  1
 28 30  1  0
 29 28  1  0
 31 30  1  1
 31 32  1  0
 32 23  1  0
 33 35  1  0
 33 31  1  0
 34 33  2  0
M  END
$$$$
