WYL.pdb
     RDKit          3D

 35 37  0  0  1  0  0  0  0  0999 V2000
    6.8583  -19.7037   25.3783 N   0  0  0  0  0  0  0  0  0  0  0  0
    6.6046  -18.2945   25.3671 C   0  0  1  0  0  0  0  0  0  0  0  0
    6.8892  -17.6183   26.6680 C   0  0  0  0  0  0  0  0  0  0  0  0
    6.4893  -16.2038   26.7043 C   0  0  0  0  0  0  0  0  0  0  0  0
    5.2349  -15.7124   26.4044 C   0  0  0  0  0  0  0  0  0  0  0  0
    5.2386  -14.3623   26.5466 N   0  0  0  0  0  0  0  0  0  0  0  0
    6.4584  -13.9523   26.9311 C   0  0  0  0  0  0  0  0  0  0  0  0
    6.9791  -12.7060   27.2075 C   0  0  0  0  0  0  0  0  0  0  0  0
    8.3024  -12.6380   27.5854 C   0  0  0  0  0  0  0  0  0  0  0  0
    9.0840  -13.7819   27.6846 C   0  0  0  0  0  0  0  0  0  0  0  0
    8.5604  -15.0073   27.4095 C   0  0  0  0  0  0  0  0  0  0  0  0
    7.2429  -15.1050   27.0302 C   0  0  0  0  0  0  0  0  0  0  0  0
    7.5144  -17.6705   24.3366 C   0  0  0  0  0  0  0  0  0  0  0  0
    8.5564  -18.2953   24.0270 O   0  0  0  0  0  0  0  0  0  0  0  0
    9.5728  -12.9047   17.1626 O   0  0  0  0  0  0  0  0  0  0  0  0
    8.9859  -13.3294   18.3671 C   0  0  0  0  0  0  0  0  0  0  0  0
    8.5175  -14.6162   18.5128 C   0  0  0  0  0  0  0  0  0  0  0  0
    7.9402  -15.0336   19.6986 C   0  0  0  0  0  0  0  0  0  0  0  0
    7.8068  -14.1885   20.7824 C   0  0  0  0  0  0  0  0  0  0  0  0
    7.1885  -14.6396   22.0521 C   0  0  0  0  0  0  0  0  0  0  0  0
    7.9106  -15.7807   22.6739 C   0  0  2  0  0  0  0  0  0  0  0  0
    7.2190  -16.4333   23.7353 N   0  0  0  0  0  0  0  0  0  0  0  0
    9.3249  -15.4425   23.0848 C   0  0  0  0  0  0  0  0  0  0  0  0
   10.1629  -14.9306   22.3084 O   0  0  0  0  0  0  0  0  0  0  0  0
    8.2784  -12.9031   20.6265 C   0  0  0  0  0  0  0  0  0  0  0  0
    8.8599  -12.4737   19.4402 C   0  0  0  0  0  0  0  0  0  0  0  0
   10.5439  -12.9734   26.5840 C   0  0  0  0  0  0  0  0  0  0  0  0
   10.2793  -14.4535   26.9363 C   0  0  2  0  0  0  0  0  0  0  0  0
   10.3604  -14.5938   28.4508 C   0  0  0  0  0  0  0  0  0  0  0  0
   11.2704  -15.3407   26.2803 C   0  0  0  0  0  0  0  0  0  0  0  0
   11.1292  -15.3111   24.7863 C   0  0  2  0  0  0  0  0  0  0  0  0
    9.7593  -15.7052   24.4124 N   0  0  0  0  0  0  0  0  0  0  0  0
   12.0366  -16.2881   24.1436 C   0  0  0  0  0  0  0  0  0  0  0  0
   11.6318  -17.2626   23.4606 O   0  0  0  0  0  0  0  0  0  0  0  0
   13.4159  -16.1165   24.3054 O   0  0  0  0  0  0  0  0  0  0  0  0
  2  1  1  1
  3  2  1  0
  4  5  2  0
  4  3  1  0
  6  5  1  0
  7 12  2  0
  7  6  1  0
  8  7  1  0
  9 10  1  0
  9  8  2  0
 10 11  2  0
 11 12  1  0
 12  4  1  0
 13  2  1  0
 14 13  2  0
 16 17  2  0
 16 15  1  0
 18 17  1  0
 19 18  2  0
 21 20  1  1
 20 19  1  0
 21 22  1  0
 22 13  1  0
 23 24  2  0
 23 21  1  0
 25 19  1  0
 25 26  2  0
 26 16  1  0
 28 27  1  1
 28 30  1  0
 29 28  1  0
 31 30  1  1
 31 32  1  0
 32 23  1  0
 33 35  1  0
 33 31  1  0
 34 33  2  0
M  END
$$$$
