WYL.pdb
     RDKit          3D

 35 37  0  0  1  0  0  0  0  0999 V2000
    6.6575  -19.4996   22.8790 N   0  0  0  0  0  0  0  0  0  0  0  0
    6.7309  -18.1260   23.2766 C   0  0  1  0  0  0  0  0  0  0  0  0
    6.3374  -17.8856   24.6972 C   0  0  0  0  0  0  0  0  0  0  0  0
    6.1868  -16.4641   25.0413 C   0  0  0  0  0  0  0  0  0  0  0  0
    5.0548  -15.7007   24.8386 C   0  0  0  0  0  0  0  0  0  0  0  0
    5.2841  -14.4369   25.2780 N   0  0  0  0  0  0  0  0  0  0  0  0
    6.5331  -14.3474   25.7636 C   0  0  0  0  0  0  0  0  0  0  0  0
    7.2453  -13.3058   26.3190 C   0  0  0  0  0  0  0  0  0  0  0  0
    8.5373  -13.5617   26.7236 C   0  0  0  0  0  0  0  0  0  0  0  0
    9.1026  -14.8220   26.5779 C   0  0  0  0  0  0  0  0  0  0  0  0
    8.3911  -15.8435   26.0284 C   0  0  0  0  0  0  0  0  0  0  0  0
    7.0997  -15.6167   25.6158 C   0  0  0  0  0  0  0  0  0  0  0  0
    8.1665  -17.6811   23.1346 C   0  0  0  0  0  0  0  0  0  0  0  0
    9.0469  -18.5713   23.0685 O   0  0  0  0  0  0  0  0  0  0  0  0
    7.4693  -13.9825   17.1121 O   0  0  0  0  0  0  0  0  0  0  0  0
    8.0454  -14.0774   18.3907 C   0  0  0  0  0  0  0  0  0  0  0  0
    7.3874  -13.6003   19.5023 C   0  0  0  0  0  0  0  0  0  0  0  0
    7.9549  -13.6942   20.7604 C   0  0  0  0  0  0  0  0  0  0  0  0
    9.1962  -14.2648   20.9602 C   0  0  0  0  0  0  0  0  0  0  0  0
    9.8009  -14.3647   22.3101 C   0  0  0  0  0  0  0  0  0  0  0  0
    9.8071  -15.7538   22.8400 C   0  0  2  0  0  0  0  0  0  0  0  0
    8.5214  -16.3209   23.0770 N   0  0  0  0  0  0  0  0  0  0  0  0
   10.7009  -15.9313   24.0454 C   0  0  0  0  0  0  0  0  0  0  0  0
   11.9123  -15.6157   24.0559 O   0  0  0  0  0  0  0  0  0  0  0  0
    9.8465  -14.7390   19.8416 C   0  0  0  0  0  0  0  0  0  0  0  0
    9.2857  -14.6499   18.5738 C   0  0  0  0  0  0  0  0  0  0  0  0
   11.3241  -13.8698   27.5741 C   0  0  0  0  0  0  0  0  0  0  0  0
   10.0454  -14.7355   27.5849 C   0  0  2  0  0  0  0  0  0  0  0  0
    9.2180  -14.3299   28.7977 C   0  0  0  0  0  0  0  0  0  0  0  0
   10.3820  -16.1787   27.6469 C   0  0  0  0  0  0  0  0  0  0  0  0
   11.0778  -16.6341   26.3974 C   0  0  2  0  0  0  0  0  0  0  0  0
   10.1723  -16.4810   25.2448 N   0  0  0  0  0  0  0  0  0  0  0  0
   11.4234  -18.0715   26.4710 C   0  0  0  0  0  0  0  0  0  0  0  0
   10.9555  -18.9363   25.6877 O   0  0  0  0  0  0  0  0  0  0  0  0
   12.3173  -18.4876   27.4639 O   0  0  0  0  0  0  0  0  0  0  0  0
  2  1  1  1
  3  2  1  0
  4  5  2  0
  4  3  1  0
  6  5  1  0
  7 12  2  0
  7  6  1  0
  8  7  1  0
  9 10  1  0
  9  8  2  0
 10 11  2  0
 11 12  1  0
 12  4  1  0
 13  2  1  0
 14 13  2  0
 16 17  2  0
 16 15  1  0
 18 17  1  0
 19 18  2  0
 21 20  1  1
 20 19  1  0
 21 22  1  0
 22 13  1  0
 23 24  2  0
 23 21  1  0
 25 19  1  0
 25 26  2  0
 26 16  1  0
 28 27  1  1
 28 30  1  0
 29 28  1  0
 31 30  1  1
 31 32  1  0
 32 23  1  0
 33 35  1  0
 33 31  1  0
 34 33  2  0
M  END
$$$$
