WYL.pdb
     RDKit          3D

 35 37  0  0  1  0  0  0  0  0999 V2000
    6.1831  -18.5500   23.0831 N   0  0  0  0  0  0  0  0  0  0  0  0
    6.7140  -17.3642   23.6850 C   0  0  1  0  0  0  0  0  0  0  0  0
    6.7430  -17.4044   25.1777 C   0  0  0  0  0  0  0  0  0  0  0  0
    6.2857  -16.1615   25.8162 C   0  0  0  0  0  0  0  0  0  0  0  0
    5.0050  -15.9091   26.2650 C   0  0  0  0  0  0  0  0  0  0  0  0
    4.9559  -14.6606   26.7957 N   0  0  0  0  0  0  0  0  0  0  0  0
    6.1664  -14.0853   26.7090 C   0  0  0  0  0  0  0  0  0  0  0  0
    6.6413  -12.8496   27.0940 C   0  0  0  0  0  0  0  0  0  0  0  0
    7.9694  -12.5738   26.8518 C   0  0  0  0  0  0  0  0  0  0  0  0
    8.8001  -13.5053   26.2425 C   0  0  0  0  0  0  0  0  0  0  0  0
    8.3215  -14.7222   25.8662 C   0  0  0  0  0  0  0  0  0  0  0  0
    7.0004  -15.0245   26.0956 C   0  0  0  0  0  0  0  0  0  0  0  0
    8.1419  -17.2105   23.2195 C   0  0  0  0  0  0  0  0  0  0  0  0
    8.7820  -18.2553   22.9538 O   0  0  0  0  0  0  0  0  0  0  0  0
    7.7214  -14.0511   17.0712 O   0  0  0  0  0  0  0  0  0  0  0  0
    8.3739  -14.1302   18.3136 C   0  0  0  0  0  0  0  0  0  0  0  0
    8.1546  -13.1856   19.2914 C   0  0  0  0  0  0  0  0  0  0  0  0
    8.7971  -13.2642   20.5140 C   0  0  0  0  0  0  0  0  0  0  0  0
    9.6806  -14.2831   20.8098 C   0  0  0  0  0  0  0  0  0  0  0  0
   10.3665  -14.3648   22.1216 C   0  0  0  0  0  0  0  0  0  0  0  0
   10.1176  -15.6503   22.8257 C   0  0  2  0  0  0  0  0  0  0  0  0
    8.7480  -15.9482   23.0833 N   0  0  0  0  0  0  0  0  0  0  0  0
   10.9465  -15.8179   24.0780 C   0  0  0  0  0  0  0  0  0  0  0  0
   12.1947  -15.7238   24.0943 O   0  0  0  0  0  0  0  0  0  0  0  0
    9.8933  -15.2231   19.8249 C   0  0  0  0  0  0  0  0  0  0  0  0
    9.2533  -15.1538   18.5938 C   0  0  0  0  0  0  0  0  0  0  0  0
   10.6090  -13.4158   27.5317 C   0  0  0  0  0  0  0  0  0  0  0  0
    9.6255  -14.6059   27.5670 C   0  0  2  0  0  0  0  0  0  0  0  0
    8.6624  -14.3806   28.7254 C   0  0  0  0  0  0  0  0  0  0  0  0
   10.3503  -15.8886   27.7383 C   0  0  0  0  0  0  0  0  0  0  0  0
   11.1535  -16.2323   26.5180 C   0  0  2  0  0  0  0  0  0  0  0  0
   10.3094  -16.0969   25.3175 N   0  0  0  0  0  0  0  0  0  0  0  0
   11.6069  -17.6409   26.5548 C   0  0  0  0  0  0  0  0  0  0  0  0
   11.0722  -18.5574   25.8809 O   0  0  0  0  0  0  0  0  0  0  0  0
   12.6866  -17.9674   27.3829 O   0  0  0  0  0  0  0  0  0  0  0  0
  2  1  1  6
  3  2  1  0
  4  5  2  0
  4  3  1  0
  6  5  1  0
  7 12  2  0
  7  6  1  0
  8  7  1  0
  9 10  1  0
  9  8  2  0
 10 11  2  0
 11 12  1  0
 12  4  1  0
 13  2  1  0
 14 13  2  0
 16 17  2  0
 16 15  1  0
 18 17  1  0
 19 18  2  0
 21 20  1  1
 20 19  1  0
 21 22  1  0
 22 13  1  0
 23 24  2  0
 23 21  1  0
 25 19  1  0
 25 26  2  0
 26 16  1  0
 28 27  1  1
 28 30  1  0
 29 28  1  0
 31 30  1  1
 31 32  1  0
 32 23  1  0
 33 35  1  0
 33 31  1  0
 34 33  2  0
M  END
$$$$
