WYL.pdb
     RDKit          3D

 35 37  0  0  1  0  0  0  0  0999 V2000
    9.8222  -17.1643   20.3657 N   0  0  0  0  0  0  0  0  0  0  0  0
    9.3206  -16.3730   21.4485 C   0  0  1  0  0  0  0  0  0  0  0  0
    7.8378  -16.1951   21.4314 C   0  0  0  0  0  0  0  0  0  0  0  0
    7.3517  -15.3505   20.3304 C   0  0  0  0  0  0  0  0  0  0  0  0
    6.5060  -15.7540   19.3170 C   0  0  0  0  0  0  0  0  0  0  0  0
    6.2761  -14.7072   18.4838 N   0  0  0  0  0  0  0  0  0  0  0  0
    6.9458  -13.6278   18.9200 C   0  0  0  0  0  0  0  0  0  0  0  0
    7.0473  -12.3380   18.4436 C   0  0  0  0  0  0  0  0  0  0  0  0
    7.8384  -11.4583   19.1499 C   0  0  0  0  0  0  0  0  0  0  0  0
    8.5094  -11.8550   20.2995 C   0  0  0  0  0  0  0  0  0  0  0  0
    8.4026  -13.1304   20.7614 C   0  0  0  0  0  0  0  0  0  0  0  0
    7.6200  -14.0294   20.0767 C   0  0  0  0  0  0  0  0  0  0  0  0
    9.6656  -17.0820   22.7360 C   0  0  0  0  0  0  0  0  0  0  0  0
    8.8265  -17.8920   23.1961 O   0  0  0  0  0  0  0  0  0  0  0  0
   13.3462  -22.0434   20.7534 O   0  0  0  0  0  0  0  0  0  0  0  0
   13.1763  -21.0415   21.7246 C   0  0  0  0  0  0  0  0  0  0  0  0
   13.6248  -19.7581   21.5055 C   0  0  0  0  0  0  0  0  0  0  0  0
   13.4571  -18.7725   22.4616 C   0  0  0  0  0  0  0  0  0  0  0  0
   12.8384  -19.0256   23.6697 C   0  0  0  0  0  0  0  0  0  0  0  0
   12.6594  -17.9666   24.6917 C   0  0  0  0  0  0  0  0  0  0  0  0
   11.2998  -17.3657   24.6703 C   0  0  2  0  0  0  0  0  0  0  0  0
   10.8801  -16.8536   23.4084 N   0  0  0  0  0  0  0  0  0  0  0  0
   11.0784  -16.3451   25.7625 C   0  0  0  0  0  0  0  0  0  0  0  0
   11.9323  -15.4895   26.0876 O   0  0  0  0  0  0  0  0  0  0  0  0
   12.3934  -20.3128   23.8793 C   0  0  0  0  0  0  0  0  0  0  0  0
   12.5565  -21.3100   22.9259 C   0  0  0  0  0  0  0  0  0  0  0  0
    9.0402  -12.7670   26.5358 C   0  0  0  0  0  0  0  0  0  0  0  0
    8.1115  -14.0008   26.5515 C   0  0  2  0  0  0  0  0  0  0  0  0
    6.6728  -13.5010   26.5744 C   0  0  0  0  0  0  0  0  0  0  0  0
    8.3822  -14.8538   27.7343 C   0  0  0  0  0  0  0  0  0  0  0  0
    9.7514  -15.4650   27.6684 C   0  0  2  0  0  0  0  0  0  0  0  0
    9.8500  -16.3271   26.4772 N   0  0  0  0  0  0  0  0  0  0  0  0
   10.0057  -16.3357   28.8381 C   0  0  0  0  0  0  0  0  0  0  0  0
    9.9019  -17.5879   28.8038 O   0  0  0  0  0  0  0  0  0  0  0  0
   10.3813  -15.7321   30.0434 O   0  0  0  0  0  0  0  0  0  0  0  0
  2  1  1  6
  3  2  1  0
  4  5  2  0
  4  3  1  0
  6  5  1  0
  7 12  2  0
  7  6  1  0
  8  7  1  0
  9 10  1  0
  9  8  2  0
 10 11  2  0
 11 12  1  0
 12  4  1  0
 13  2  1  0
 14 13  2  0
 16 17  2  0
 16 15  1  0
 18 17  1  0
 19 18  2  0
 21 20  1  6
 20 19  1  0
 21 22  1  0
 22 13  1  0
 23 24  2  0
 23 21  1  0
 25 19  1  0
 25 26  2  0
 26 16  1  0
 28 27  1  1
 28 30  1  0
 29 28  1  0
 31 30  1  1
 31 32  1  0
 32 23  1  0
 33 35  1  0
 33 31  1  0
 34 33  2  0
M  END
$$$$
