WYL.pdb
     RDKit          3D

 35 37  0  0  1  0  0  0  0  0999 V2000
    5.8941  -18.3421   25.9227 N   0  0  0  0  0  0  0  0  0  0  0  0
    6.6842  -17.2555   25.4275 C   0  0  1  0  0  0  0  0  0  0  0  0
    7.8907  -16.9581   26.2561 C   0  0  0  0  0  0  0  0  0  0  0  0
    7.6022  -16.1837   27.4722 C   0  0  0  0  0  0  0  0  0  0  0  0
    7.9972  -16.5155   28.7524 C   0  0  0  0  0  0  0  0  0  0  0  0
    7.5504  -15.5690   29.6169 N   0  0  0  0  0  0  0  0  0  0  0  0
    6.8737  -14.6252   28.9425 C   0  0  0  0  0  0  0  0  0  0  0  0
    6.2318  -13.4726   29.3429 C   0  0  0  0  0  0  0  0  0  0  0  0
    5.6219  -12.7120   28.3691 C   0  0  0  0  0  0  0  0  0  0  0  0
    5.6520  -13.0912   27.0333 C   0  0  0  0  0  0  0  0  0  0  0  0
    6.2882  -14.2308   26.6486 C   0  0  0  0  0  0  0  0  0  0  0  0
    6.9053  -15.0090   27.5988 C   0  0  0  0  0  0  0  0  0  0  0  0
    7.1759  -17.6329   24.0509 C   0  0  0  0  0  0  0  0  0  0  0  0
    8.0117  -18.5637   23.9673 O   0  0  0  0  0  0  0  0  0  0  0  0
    9.0377  -12.4395   16.9795 O   0  0  0  0  0  0  0  0  0  0  0  0
    8.5137  -13.0289   18.1430 C   0  0  0  0  0  0  0  0  0  0  0  0
    8.5351  -12.3618   19.3475 C   0  0  0  0  0  0  0  0  0  0  0  0
    8.0190  -12.9424   20.4921 C   0  0  0  0  0  0  0  0  0  0  0  0
    7.4633  -14.2063   20.4823 C   0  0  0  0  0  0  0  0  0  0  0  0
    6.9102  -14.8251   21.7107 C   0  0  0  0  0  0  0  0  0  0  0  0
    7.4730  -16.1739   21.9830 C   0  0  2  0  0  0  0  0  0  0  0  0
    6.7232  -16.9743   22.8930 N   0  0  0  0  0  0  0  0  0  0  0  0
    8.9330  -16.1467   22.3718 C   0  0  0  0  0  0  0  0  0  0  0  0
    9.8658  -16.3149   21.5541 O   0  0  0  0  0  0  0  0  0  0  0  0
    7.4468  -14.8656   19.2723 C   0  0  0  0  0  0  0  0  0  0  0  0
    7.9621  -14.2918   18.1169 C   0  0  0  0  0  0  0  0  0  0  0  0
   10.0523  -13.4181   25.7619 C   0  0  0  0  0  0  0  0  0  0  0  0
    9.9983  -14.8799   26.2571 C   0  0  2  0  0  0  0  0  0  0  0  0
   10.3441  -14.8828   27.7404 C   0  0  0  0  0  0  0  0  0  0  0  0
   10.9493  -15.7315   25.5020 C   0  0  0  0  0  0  0  0  0  0  0  0
   10.7168  -15.6352   24.0224 C   0  0  2  0  0  0  0  0  0  0  0  0
    9.3018  -15.9208   23.7258 N   0  0  0  0  0  0  0  0  0  0  0  0
   11.5112  -16.6461   23.2889 C   0  0  0  0  0  0  0  0  0  0  0  0
   12.5059  -16.3596   22.5757 O   0  0  0  0  0  0  0  0  0  0  0  0
   11.1343  -17.9894   23.3961 O   0  0  0  0  0  0  0  0  0  0  0  0
  2  1  1  1
  3  2  1  0
  4  5  2  0
  4  3  1  0
  6  5  1  0
  7 12  2  0
  7  6  1  0
  8  7  1  0
  9 10  1  0
  9  8  2  0
 10 11  2  0
 11 12  1  0
 12  4  1  0
 13  2  1  0
 14 13  2  0
 16 17  2  0
 16 15  1  0
 18 17  1  0
 19 18  2  0
 21 20  1  1
 20 19  1  0
 21 22  1  0
 22 13  1  0
 23 24  2  0
 23 21  1  0
 25 19  1  0
 25 26  2  0
 26 16  1  0
 28 27  1  6
 28 30  1  0
 29 28  1  0
 31 30  1  1
 31 32  1  0
 32 23  1  0
 33 35  1  0
 33 31  1  0
 34 33  2  0
M  END
$$$$
