KLI.pdb
     RDKit          3D

 26 25  0  0  1  0  0  0  0  0999 V2000
   22.8107  -20.4904  -15.5707 N   0  0  0  0  0  0  0  0  0  0  0  0
   22.5299  -21.3005  -14.4381 C   0  0  1  0  0  0  0  0  0  0  0  0
   22.0219  -22.6374  -14.8101 C   0  0  0  0  0  0  0  0  0  0  0  0
   20.7663  -22.6229  -15.6271 C   0  0  0  0  0  0  0  0  0  0  0  0
   20.8771  -23.1247  -17.0239 C   0  0  0  0  0  0  0  0  0  0  0  0
   19.4725  -22.9441  -17.6411 C   0  0  0  0  0  0  0  0  0  0  0  0
   19.5465  -23.2195  -19.0506 N   0  0  0  0  0  0  0  0  0  0  0  0
   23.7184  -21.4057  -13.5149 C   0  0  0  0  0  0  0  0  0  0  0  0
   23.7197  -22.1747  -12.5377 O   0  0  0  0  0  0  0  0  0  0  0  0
   28.0892  -21.6231  -14.8179 C   0  0  0  0  0  0  0  0  0  0  0  0
   27.5497  -20.1841  -14.8661 C   0  0  2  0  0  0  0  0  0  0  0  0
   28.5923  -19.3493  -15.5200 C   0  0  0  0  0  0  0  0  0  0  0  0
   27.1832  -19.8291  -13.4728 C   0  0  0  0  0  0  0  0  0  0  0  0
   26.0267  -20.5651  -12.8772 C   0  0  2  0  0  0  0  0  0  0  0  0
   24.8789  -20.6185  -13.7430 N   0  0  0  0  0  0  0  0  0  0  0  0
   25.7418  -20.0556  -11.5195 C   0  0  0  0  0  0  0  0  0  0  0  0
   25.1287  -18.9649  -11.4305 O   0  0  0  0  0  0  0  0  0  0  0  0
   22.9204  -21.1484   -6.6633 C   0  0  0  0  0  0  0  0  0  0  0  0
   24.0911  -20.4074   -7.1814 C   0  0  0  0  0  0  0  0  0  0  0  0
   24.7035  -20.8238   -8.4507 C   0  0  2  0  0  0  0  0  0  0  0  0
   24.9815  -22.3276   -8.4217 C   0  0  0  0  0  0  0  0  0  0  0  0
   25.8478  -20.0649   -9.0194 C   0  0  2  0  0  0  0  0  0  0  0  0
   26.1097  -20.7137  -10.3282 N   0  0  0  0  0  0  0  0  0  0  0  0
   27.0953  -20.0265   -8.3036 C   0  0  0  0  0  0  0  0  0  0  0  0
   27.2778  -19.3117   -7.2988 O   0  0  0  0  0  0  0  0  0  0  0  0
   28.1798  -20.8005   -8.7037 O   0  0  0  0  0  0  0  0  0  0  0  0
  2  1  1  6
  3  2  1  0
  4  5  1  0
  4  3  1  0
  6  7  1  0
  6  5  1  0
  8  2  1  0
  9  8  2  0
 11 10  1  1
 11 13  1  0
 12 11  1  0
 14 13  1  6
 14 15  1  0
 15  8  1  0
 16 23  1  0
 16 14  1  0
 17 16  2  0
 19 18  1  0
 19 20  1  0
 20 22  1  0
 20 21  1  1
 22 24  1  0
 22 23  1  6
 24 26  1  0
 25 24  2  0
M  END
$$$$
