KLI.pdb
     RDKit          3D

 26 25  0  0  1  0  0  0  0  0999 V2000
   21.9827  -18.3939  -19.1137 N   0  0  0  0  0  0  0  0  0  0  0  0
   21.8839  -18.2543  -17.7035 C   0  0  1  0  0  0  0  0  0  0  0  0
   20.6292  -18.8195  -17.1652 C   0  0  0  0  0  0  0  0  0  0  0  0
   19.4009  -18.0196  -17.4747 C   0  0  0  0  0  0  0  0  0  0  0  0
   19.3231  -16.6617  -16.8706 C   0  0  0  0  0  0  0  0  0  0  0  0
   17.9036  -16.1454  -17.1948 C   0  0  0  0  0  0  0  0  0  0  0  0
   17.7080  -14.8823  -16.5356 N   0  0  0  0  0  0  0  0  0  0  0  0
   23.0877  -18.8269  -16.9973 C   0  0  0  0  0  0  0  0  0  0  0  0
   23.4509  -20.0028  -17.1756 O   0  0  0  0  0  0  0  0  0  0  0  0
   27.4832  -17.5201  -16.7286 C   0  0  0  0  0  0  0  0  0  0  0  0
   26.5143  -16.5741  -16.0005 C   0  0  2  0  0  0  0  0  0  0  0  0
   27.2985  -15.3796  -15.5886 C   0  0  0  0  0  0  0  0  0  0  0  0
   25.8882  -17.3713  -14.9170 C   0  0  0  0  0  0  0  0  0  0  0  0
   24.9796  -18.4795  -15.3415 C   0  0  2  0  0  0  0  0  0  0  0  0
   23.8445  -18.0260  -16.1003 N   0  0  0  0  0  0  0  0  0  0  0  0
   24.6366  -19.3306  -14.1830 C   0  0  0  0  0  0  0  0  0  0  0  0
   23.7318  -18.9224  -13.4162 O   0  0  0  0  0  0  0  0  0  0  0  0
   23.3893  -24.3015  -14.9079 C   0  0  0  0  0  0  0  0  0  0  0  0
   23.5681  -22.9434  -14.3497 C   0  0  0  0  0  0  0  0  0  0  0  0
   24.5614  -22.7251  -13.2890 C   0  0  2  0  0  0  0  0  0  0  0  0
   24.3724  -23.7640  -12.1822 C   0  0  0  0  0  0  0  0  0  0  0  0
   24.7828  -21.3648  -12.7329 C   0  0  2  0  0  0  0  0  0  0  0  0
   25.2547  -20.5633  -13.8894 N   0  0  0  0  0  0  0  0  0  0  0  0
   25.7346  -21.1828  -11.6694 C   0  0  0  0  0  0  0  0  0  0  0  0
   26.9502  -20.9971  -11.8729 O   0  0  0  0  0  0  0  0  0  0  0  0
   25.3381  -21.2042  -10.3361 O   0  0  0  0  0  0  0  0  0  0  0  0
  2  1  1  6
  3  2  1  0
  4  5  1  0
  4  3  1  0
  6  7  1  0
  6  5  1  0
  8  2  1  0
  9  8  2  0
 11 10  1  1
 11 13  1  0
 12 11  1  0
 14 13  1  1
 14 15  1  0
 15  8  1  0
 16 23  1  0
 16 14  1  0
 17 16  2  0
 19 18  1  0
 19 20  1  0
 20 22  1  0
 20 21  1  1
 22 24  1  0
 22 23  1  6
 24 26  1  0
 25 24  2  0
M  END
$$$$
