KLI.pdb
     RDKit          3D

 26 25  0  0  1  0  0  0  0  0999 V2000
   27.4447  -25.9172  -16.8430 N   0  0  0  0  0  0  0  0  0  0  0  0
   26.3030  -25.0762  -16.7588 C   0  0  1  0  0  0  0  0  0  0  0  0
   25.0517  -25.8379  -16.5646 C   0  0  0  0  0  0  0  0  0  0  0  0
   24.5273  -26.5025  -17.8005 C   0  0  0  0  0  0  0  0  0  0  0  0
   24.6299  -27.9864  -17.8509 C   0  0  0  0  0  0  0  0  0  0  0  0
   23.1951  -28.5086  -17.6154 C   0  0  0  0  0  0  0  0  0  0  0  0
   23.1976  -29.9416  -17.7367 N   0  0  0  0  0  0  0  0  0  0  0  0
   26.4654  -24.0140  -15.6999 C   0  0  0  0  0  0  0  0  0  0  0  0
   26.7386  -24.3033  -14.5218 O   0  0  0  0  0  0  0  0  0  0  0  0
   28.9327  -19.9581  -15.5732 C   0  0  0  0  0  0  0  0  0  0  0  0
   27.7598  -19.9677  -16.5674 C   0  0  2  0  0  0  0  0  0  0  0  0
   27.8203  -18.6895  -17.3252 C   0  0  0  0  0  0  0  0  0  0  0  0
   26.5357  -20.2146  -15.7661 C   0  0  0  0  0  0  0  0  0  0  0  0
   26.4304  -21.5482  -15.0996 C   0  0  2  0  0  0  0  0  0  0  0  0
   26.3079  -22.6406  -16.0279 N   0  0  0  0  0  0  0  0  0  0  0  0
   25.3845  -21.5162  -14.0559 C   0  0  0  0  0  0  0  0  0  0  0  0
   24.2546  -21.9689  -14.3586 O   0  0  0  0  0  0  0  0  0  0  0  0
   24.9601  -20.5553   -7.9322 C   0  0  0  0  0  0  0  0  0  0  0  0
   24.3153  -20.8874   -9.2213 C   0  0  0  0  0  0  0  0  0  0  0  0
   25.1021  -20.8156  -10.4604 C   0  0  2  0  0  0  0  0  0  0  0  0
   25.9376  -19.5344  -10.4685 C   0  0  0  0  0  0  0  0  0  0  0  0
   24.4572  -21.0587  -11.7771 C   0  0  2  0  0  0  0  0  0  0  0  0
   25.5757  -21.0160  -12.7517 N   0  0  0  0  0  0  0  0  0  0  0  0
   23.4456  -20.1498  -12.2467 C   0  0  0  0  0  0  0  0  0  0  0  0
   23.7034  -19.1558  -12.9533 O   0  0  0  0  0  0  0  0  0  0  0  0
   22.1041  -20.3391  -11.9308 O   0  0  0  0  0  0  0  0  0  0  0  0
  2  1  1  1
  3  2  1  0
  4  5  1  0
  4  3  1  0
  6  7  1  0
  6  5  1  0
  8  2  1  0
  9  8  2  0
 11 10  1  1
 11 13  1  0
 12 11  1  0
 14 13  1  6
 14 15  1  0
 15  8  1  0
 16 23  1  0
 16 14  1  0
 17 16  2  0
 19 18  1  0
 19 20  1  0
 20 22  1  0
 20 21  1  6
 22 24  1  0
 22 23  1  6
 24 26  1  0
 25 24  2  0
M  END
$$$$
