KLI.pdb
     RDKit          3D

 26 25  0  0  1  0  0  0  0  0999 V2000
   20.8871  -22.5544  -13.6598 N   0  0  0  0  0  0  0  0  0  0  0  0
   21.0342  -21.3588  -14.4126 C   0  0  1  0  0  0  0  0  0  0  0  0
   19.9914  -20.3601  -14.0987 C   0  0  0  0  0  0  0  0  0  0  0  0
   18.5861  -20.8517  -14.2649 C   0  0  0  0  0  0  0  0  0  0  0  0
   17.5018  -19.8918  -13.9213 C   0  0  0  0  0  0  0  0  0  0  0  0
   16.1812  -20.6316  -14.2301 C   0  0  0  0  0  0  0  0  0  0  0  0
   15.0823  -19.8400  -13.7462 N   0  0  0  0  0  0  0  0  0  0  0  0
   22.4155  -20.7700  -14.2664 C   0  0  0  0  0  0  0  0  0  0  0  0
   22.7097  -19.6659  -14.7569 O   0  0  0  0  0  0  0  0  0  0  0  0
   24.4288  -19.6361  -10.6995 C   0  0  0  0  0  0  0  0  0  0  0  0
   24.5253  -21.1649  -10.8326 C   0  0  2  0  0  0  0  0  0  0  0  0
   25.0433  -21.6832   -9.5385 C   0  0  0  0  0  0  0  0  0  0  0  0
   25.3495  -21.4275  -12.0381 C   0  0  0  0  0  0  0  0  0  0  0  0
   24.7705  -21.0042  -13.3494 C   0  0  2  0  0  0  0  0  0  0  0  0
   23.4257  -21.4722  -13.5556 N   0  0  0  0  0  0  0  0  0  0  0  0
   25.7035  -21.3297  -14.4483 C   0  0  0  0  0  0  0  0  0  0  0  0
   25.6100  -22.4688  -14.9650 O   0  0  0  0  0  0  0  0  0  0  0  0
   27.1424  -17.4197  -17.9474 C   0  0  0  0  0  0  0  0  0  0  0  0
   26.7818  -18.6985  -17.2973 C   0  0  0  0  0  0  0  0  0  0  0  0
   27.8471  -19.5767  -16.7940 C   0  0  2  0  0  0  0  0  0  0  0  0
   28.9071  -19.7772  -17.8784 C   0  0  0  0  0  0  0  0  0  0  0  0
   27.5111  -20.8537  -16.1121 C   0  0  2  0  0  0  0  0  0  0  0  0
   26.6817  -20.4472  -14.9505 N   0  0  0  0  0  0  0  0  0  0  0  0
   28.5714  -21.6867  -15.6102 C   0  0  0  0  0  0  0  0  0  0  0  0
   29.0757  -21.5339  -14.4805 O   0  0  0  0  0  0  0  0  0  0  0  0
   29.0956  -22.7244  -16.3742 O   0  0  0  0  0  0  0  0  0  0  0  0
  2  1  1  1
  3  2  1  0
  4  5  1  0
  4  3  1  0
  6  7  1  0
  6  5  1  0
  8  2  1  0
  9  8  2  0
 11 10  1  1
 11 13  1  0
 12 11  1  0
 14 13  1  1
 14 15  1  0
 15  8  1  0
 16 23  1  0
 16 14  1  0
 17 16  2  0
 19 18  1  0
 19 20  1  0
 20 22  1  0
 20 21  1  6
 22 24  1  0
 22 23  1  1
 24 26  1  0
 25 24  2  0
M  END
$$$$
