KLI.pdb
     RDKit          3D

 26 25  0  0  1  0  0  0  0  0999 V2000
   26.7968  -21.2591  -14.8667 N   0  0  0  0  0  0  0  0  0  0  0  0
   25.9791  -20.3583  -14.1333 C   0  0  1  0  0  0  0  0  0  0  0  0
   24.8048  -19.9024  -14.9059 C   0  0  0  0  0  0  0  0  0  0  0  0
   25.1297  -19.0246  -16.0756 C   0  0  0  0  0  0  0  0  0  0  0  0
   25.7036  -19.6983  -17.2722 C   0  0  0  0  0  0  0  0  0  0  0  0
   24.5111  -19.9354  -18.2253 C   0  0  0  0  0  0  0  0  0  0  0  0
   24.9913  -20.5824  -19.4165 N   0  0  0  0  0  0  0  0  0  0  0  0
   25.5662  -20.9330  -12.8009 C   0  0  0  0  0  0  0  0  0  0  0  0
   25.0120  -22.0426  -12.7123 O   0  0  0  0  0  0  0  0  0  0  0  0
   27.8395  -19.6220   -7.5590 C   0  0  0  0  0  0  0  0  0  0  0  0
   27.2347  -20.5961   -8.5835 C   0  0  2  0  0  0  0  0  0  0  0  0
   28.3306  -20.9931   -9.5071 C   0  0  0  0  0  0  0  0  0  0  0  0
   26.0706  -19.8996   -9.1846 C   0  0  0  0  0  0  0  0  0  0  0  0
   25.3631  -20.6124  -10.2914 C   0  0  2  0  0  0  0  0  0  0  0  0
   25.8040  -20.2108  -11.6007 N   0  0  0  0  0  0  0  0  0  0  0  0
   23.9005  -20.5397  -10.0928 C   0  0  0  0  0  0  0  0  0  0  0  0
   23.3259  -19.4762  -10.4276 O   0  0  0  0  0  0  0  0  0  0  0  0
   20.8779  -21.9227  -13.2367 C   0  0  0  0  0  0  0  0  0  0  0  0
   21.3310  -21.2855  -11.9810 C   0  0  0  0  0  0  0  0  0  0  0  0
   21.1024  -21.9713  -10.7016 C   0  0  2  0  0  0  0  0  0  0  0  0
   19.6226  -22.3339  -10.5667 C   0  0  0  0  0  0  0  0  0  0  0  0
   21.6473  -21.4095   -9.4382 C   0  0  2  0  0  0  0  0  0  0  0  0
   23.1164  -21.5824   -9.5582 N   0  0  0  0  0  0  0  0  0  0  0  0
   21.2501  -21.9844   -8.1804 C   0  0  0  0  0  0  0  0  0  0  0  0
   20.2020  -21.6604   -7.5887 O   0  0  0  0  0  0  0  0  0  0  0  0
   22.0298  -22.9493   -7.5509 O   0  0  0  0  0  0  0  0  0  0  0  0
  2  1  1  6
  3  2  1  0
  4  5  1  0
  4  3  1  0
  6  7  1  0
  6  5  1  0
  8  2  1  0
  9  8  2  0
 11 10  1  1
 11 13  1  0
 12 11  1  0
 14 13  1  1
 14 15  1  0
 15  8  1  0
 16 23  1  0
 16 14  1  0
 17 16  2  0
 19 18  1  0
 19 20  1  0
 20 22  1  0
 20 21  1  1
 22 24  1  0
 22 23  1  6
 24 26  1  0
 25 24  2  0
M  END
$$$$
