KLI.pdb
     RDKit          3D

 26 25  0  0  1  0  0  0  0  0999 V2000
   22.6969  -18.3944  -16.2327 N   0  0  0  0  0  0  0  0  0  0  0  0
   22.4548  -19.5594  -15.4567 C   0  0  1  0  0  0  0  0  0  0  0  0
   21.8188  -20.6392  -16.2397 C   0  0  0  0  0  0  0  0  0  0  0  0
   20.6284  -20.2106  -17.0418 C   0  0  0  0  0  0  0  0  0  0  0  0
   20.7512  -18.9216  -17.7756 C   0  0  0  0  0  0  0  0  0  0  0  0
   19.4044  -18.7327  -18.5084 C   0  0  0  0  0  0  0  0  0  0  0  0
   19.4425  -17.4929  -19.2361 N   0  0  0  0  0  0  0  0  0  0  0  0
   23.7069  -20.0470  -14.7710 C   0  0  0  0  0  0  0  0  0  0  0  0
   23.7269  -21.1116  -14.1287 O   0  0  0  0  0  0  0  0  0  0  0  0
   27.8417  -20.4718  -16.5471 C   0  0  0  0  0  0  0  0  0  0  0  0
   27.5043  -19.0060  -16.2282 C   0  0  2  0  0  0  0  0  0  0  0  0
   28.5826  -18.1715  -16.8220 C   0  0  0  0  0  0  0  0  0  0  0  0
   27.3302  -18.9286  -14.7567 C   0  0  0  0  0  0  0  0  0  0  0  0
   26.1415  -19.6323  -14.1860 C   0  0  2  0  0  0  0  0  0  0  0  0
   24.9082  -19.2918  -14.8438 N   0  0  0  0  0  0  0  0  0  0  0  0
   26.1115  -19.4745  -12.7168 C   0  0  0  0  0  0  0  0  0  0  0  0
   25.8726  -18.3289  -12.2654 O   0  0  0  0  0  0  0  0  0  0  0  0
   22.4640  -20.5823  -10.0044 C   0  0  0  0  0  0  0  0  0  0  0  0
   23.7849  -20.0795  -10.4409 C   0  0  0  0  0  0  0  0  0  0  0  0
   25.0044  -20.6629   -9.8649 C   0  0  2  0  0  0  0  0  0  0  0  0
   24.9160  -20.6420   -8.3380 C   0  0  0  0  0  0  0  0  0  0  0  0
   26.3440  -20.2318  -10.3431 C   0  0  2  0  0  0  0  0  0  0  0  0
   26.3296  -20.5219  -11.7985 N   0  0  0  0  0  0  0  0  0  0  0  0
   27.5221  -20.8498   -9.7952 C   0  0  0  0  0  0  0  0  0  0  0  0
   28.0719  -21.8399  -10.3159 O   0  0  0  0  0  0  0  0  0  0  0  0
   28.1183  -20.3633   -8.6363 O   0  0  0  0  0  0  0  0  0  0  0  0
  2  1  1  6
  3  2  1  0
  4  5  1  0
  4  3  1  0
  6  7  1  0
  6  5  1  0
  8  2  1  0
  9  8  2  0
 11 10  1  1
 11 13  1  0
 12 11  1  0
 14 13  1  6
 14 15  1  0
 15  8  1  0
 16 23  1  0
 16 14  1  0
 17 16  2  0
 19 18  1  0
 19 20  1  0
 20 22  1  0
 20 21  1  1
 22 24  1  0
 22 23  1  6
 24 26  1  0
 25 24  2  0
M  END
$$$$
