KLI.pdb
     RDKit          3D

 26 25  0  0  1  0  0  0  0  0999 V2000
   28.4233  -21.2434  -14.9217 N   0  0  0  0  0  0  0  0  0  0  0  0
   27.6122  -20.2700  -14.2795 C   0  0  1  0  0  0  0  0  0  0  0  0
   27.0646  -19.2758  -15.2256 C   0  0  0  0  0  0  0  0  0  0  0  0
   28.0979  -18.5109  -15.9948 C   0  0  0  0  0  0  0  0  0  0  0  0
   28.6290  -19.1627  -17.2228 C   0  0  0  0  0  0  0  0  0  0  0  0
   29.5735  -18.1238  -17.8671 C   0  0  0  0  0  0  0  0  0  0  0  0
   30.1562  -18.6978  -19.0500 N   0  0  0  0  0  0  0  0  0  0  0  0
   26.5163  -20.9051  -13.4600 C   0  0  0  0  0  0  0  0  0  0  0  0
   25.8817  -21.8920  -13.8720 O   0  0  0  0  0  0  0  0  0  0  0  0
   26.7012  -21.9085   -9.2238 C   0  0  0  0  0  0  0  0  0  0  0  0
   26.3854  -20.4055   -9.2982 C   0  0  2  0  0  0  0  0  0  0  0  0
   26.4577  -19.8757   -7.9106 C   0  0  0  0  0  0  0  0  0  0  0  0
   25.0800  -20.2875   -9.9937 C   0  0  0  0  0  0  0  0  0  0  0  0
   25.0295  -20.7696  -11.4075 C   0  0  2  0  0  0  0  0  0  0  0  0
   26.1790  -20.3839  -12.1820 N   0  0  0  0  0  0  0  0  0  0  0  0
   23.7337  -20.4132  -12.0225 C   0  0  0  0  0  0  0  0  0  0  0  0
   23.5323  -19.2024  -12.2806 O   0  0  0  0  0  0  0  0  0  0  0  0
   21.0047  -23.9079  -15.4527 C   0  0  0  0  0  0  0  0  0  0  0  0
   21.1263  -23.1316  -14.1995 C   0  0  0  0  0  0  0  0  0  0  0  0
   21.4305  -21.6955  -14.2680 C   0  0  2  0  0  0  0  0  0  0  0  0
   22.6571  -21.4687  -15.1533 C   0  0  0  0  0  0  0  0  0  0  0  0
   21.4899  -20.8783  -13.0280 C   0  0  2  0  0  0  0  0  0  0  0  0
   22.7195  -21.3406  -12.3374 N   0  0  0  0  0  0  0  0  0  0  0  0
   20.4114  -20.9555  -12.0789 C   0  0  0  0  0  0  0  0  0  0  0  0
   20.5031  -21.5692  -10.9979 O   0  0  0  0  0  0  0  0  0  0  0  0
   19.1899  -20.3364  -12.3243 O   0  0  0  0  0  0  0  0  0  0  0  0
  2  1  1  6
  3  2  1  0
  4  5  1  0
  4  3  1  0
  6  7  1  0
  6  5  1  0
  8  2  1  0
  9  8  2  0
 11 10  1  1
 11 13  1  0
 12 11  1  0
 14 13  1  1
 14 15  1  0
 15  8  1  0
 16 23  1  0
 16 14  1  0
 17 16  2  0
 19 18  1  0
 19 20  1  0
 20 22  1  0
 20 21  1  1
 22 24  1  0
 22 23  1  1
 24 26  1  0
 25 24  2  0
M  END
$$$$
