KLI.pdb
     RDKit          3D

 26 25  0  0  1  0  0  0  0  0999 V2000
   16.7232  -13.4698  -16.7485 N   0  0  0  0  0  0  0  0  0  0  0  0
   17.7510  -13.1962  -17.6901 C   0  0  1  0  0  0  0  0  0  0  0  0
   17.3765  -13.5844  -19.0658 C   0  0  0  0  0  0  0  0  0  0  0  0
   17.1050  -15.0461  -19.2499 C   0  0  0  0  0  0  0  0  0  0  0  0
   15.6767  -15.4640  -19.2284 C   0  0  0  0  0  0  0  0  0  0  0  0
   15.6777  -16.9603  -19.6128 C   0  0  0  0  0  0  0  0  0  0  0  0
   14.3180  -17.4250  -19.6703 N   0  0  0  0  0  0  0  0  0  0  0  0
   18.1969  -11.7562  -17.6315 C   0  0  0  0  0  0  0  0  0  0  0  0
   19.0990  -11.3217  -18.3689 O   0  0  0  0  0  0  0  0  0  0  0  0
   16.5645   -7.7006  -18.6385 C   0  0  0  0  0  0  0  0  0  0  0  0
   15.8142   -8.4652  -17.5355 C   0  0  2  0  0  0  0  0  0  0  0  0
   14.5378   -7.7411  -17.2942 C   0  0  0  0  0  0  0  0  0  0  0  0
   16.7514   -8.5716  -16.3902 C   0  0  0  0  0  0  0  0  0  0  0  0
   17.9370   -9.4624  -16.5767 C   0  0  2  0  0  0  0  0  0  0  0  0
   17.5889  -10.8509  -16.7207 N   0  0  0  0  0  0  0  0  0  0  0  0
   18.9472   -9.1933  -15.5320 C   0  0  0  0  0  0  0  0  0  0  0  0
   18.5964   -9.3485  -14.3379 O   0  0  0  0  0  0  0  0  0  0  0  0
   23.0082  -12.0342  -15.1475 C   0  0  0  0  0  0  0  0  0  0  0  0
   21.9436  -11.0426  -14.8803 C   0  0  0  0  0  0  0  0  0  0  0  0
   22.2734   -9.6106  -14.8909 C   0  0  2  0  0  0  0  0  0  0  0  0
   23.5009   -9.3565  -14.0144 C   0  0  0  0  0  0  0  0  0  0  0  0
   21.2153   -8.5924  -14.6621 C   0  0  2  0  0  0  0  0  0  0  0  0
   20.2699   -8.7795  -15.7908 N   0  0  0  0  0  0  0  0  0  0  0  0
   21.5715   -7.1988  -14.6288 C   0  0  0  0  0  0  0  0  0  0  0  0
   22.0139   -6.6371  -13.6078 O   0  0  0  0  0  0  0  0  0  0  0  0
   21.4389   -6.3940  -15.7558 O   0  0  0  0  0  0  0  0  0  0  0  0
  2  1  1  1
  3  2  1  0
  4  5  1  0
  4  3  1  0
  6  7  1  0
  6  5  1  0
  8  2  1  0
  9  8  2  0
 11 10  1  6
 11 13  1  0
 12 11  1  0
 14 13  1  1
 14 15  1  0
 15  8  1  0
 16 23  1  0
 16 14  1  0
 17 16  2  0
 19 18  1  0
 19 20  1  0
 20 22  1  0
 20 21  1  1
 22 24  1  0
 22 23  1  6
 24 26  1  0
 25 24  2  0
M  END
$$$$
