KLI.pdb
     RDKit          3D

 26 25  0  0  1  0  0  0  0  0999 V2000
   23.4017  -21.3350  -13.6296 N   0  0  0  0  0  0  0  0  0  0  0  0
   23.0770  -21.0687  -12.2726 C   0  0  1  0  0  0  0  0  0  0  0  0
   21.9140  -21.8511  -11.8047 C   0  0  0  0  0  0  0  0  0  0  0  0
   20.6449  -21.5941  -12.5581 C   0  0  0  0  0  0  0  0  0  0  0  0
   20.0534  -20.2355  -12.4187 C   0  0  0  0  0  0  0  0  0  0  0  0
   18.5333  -20.4604  -12.2598 C   0  0  0  0  0  0  0  0  0  0  0  0
   18.0481  -19.6172  -11.2007 N   0  0  0  0  0  0  0  0  0  0  0  0
   24.2653  -21.2604  -11.3632 C   0  0  0  0  0  0  0  0  0  0  0  0
   24.3263  -22.2075  -10.5597 O   0  0  0  0  0  0  0  0  0  0  0  0
   28.4843  -21.7837  -12.4489 C   0  0  0  0  0  0  0  0  0  0  0  0
   28.1143  -20.2996  -12.6056 C   0  0  2  0  0  0  0  0  0  0  0  0
   29.2669  -19.6303  -13.2653 C   0  0  0  0  0  0  0  0  0  0  0  0
   27.7436  -19.8169  -11.2524 C   0  0  0  0  0  0  0  0  0  0  0  0
   26.5550  -20.4609  -10.6150 C   0  0  2  0  0  0  0  0  0  0  0  0
   25.3568  -20.3518  -11.4039 N   0  0  0  0  0  0  0  0  0  0  0  0
   26.4095  -19.9962   -9.2196 C   0  0  0  0  0  0  0  0  0  0  0  0
   25.5220  -19.1410   -8.9870 O   0  0  0  0  0  0  0  0  0  0  0  0
   28.7162  -21.2590   -3.5773 C   0  0  0  0  0  0  0  0  0  0  0  0
   27.7872  -20.5066   -4.4485 C   0  0  0  0  0  0  0  0  0  0  0  0
   27.8879  -20.6542   -5.9071 C   0  0  2  0  0  0  0  0  0  0  0  0
   29.3586  -20.6436   -6.3274 C   0  0  0  0  0  0  0  0  0  0  0  0
   27.0534  -19.8172   -6.8081 C   0  0  2  0  0  0  0  0  0  0  0  0
   27.1965  -20.4516   -8.1422 N   0  0  0  0  0  0  0  0  0  0  0  0
   27.3633  -18.4208   -6.9629 C   0  0  0  0  0  0  0  0  0  0  0  0
   28.0875  -17.9854   -7.8792 O   0  0  0  0  0  0  0  0  0  0  0  0
   26.8598  -17.4690   -6.0821 O   0  0  0  0  0  0  0  0  0  0  0  0
  2  1  1  6
  3  2  1  0
  4  5  1  0
  4  3  1  0
  6  7  1  0
  6  5  1  0
  8  2  1  0
  9  8  2  0
 11 10  1  1
 11 13  1  0
 12 11  1  0
 14 13  1  6
 14 15  1  0
 15  8  1  0
 16 23  1  0
 16 14  1  0
 17 16  2  0
 19 18  1  0
 19 20  1  0
 20 22  1  0
 20 21  1  6
 22 24  1  0
 22 23  1  6
 24 26  1  0
 25 24  2  0
M  END
$$$$
