KLI.pdb
     RDKit          3D

 26 25  0  0  1  0  0  0  0  0999 V2000
   28.2979  -21.3967  -16.3544 N   0  0  0  0  0  0  0  0  0  0  0  0
   27.6906  -20.4263  -15.5135 C   0  0  1  0  0  0  0  0  0  0  0  0
   26.8730  -19.4545  -16.2690 C   0  0  0  0  0  0  0  0  0  0  0  0
   27.6522  -18.3440  -16.9046 C   0  0  0  0  0  0  0  0  0  0  0  0
   29.0939  -18.6080  -17.1635 C   0  0  0  0  0  0  0  0  0  0  0  0
   29.6458  -17.3093  -17.7923 C   0  0  0  0  0  0  0  0  0  0  0  0
   31.0103  -17.5301  -18.1895 N   0  0  0  0  0  0  0  0  0  0  0  0
   26.8923  -21.0656  -14.4044 C   0  0  0  0  0  0  0  0  0  0  0  0
   26.2099  -22.0873  -14.5968 O   0  0  0  0  0  0  0  0  0  0  0  0
   25.7340  -19.4590   -8.5606 C   0  0  0  0  0  0  0  0  0  0  0  0
   25.4885  -20.5921   -9.5706 C   0  0  2  0  0  0  0  0  0  0  0  0
   25.6392  -21.8742   -8.8324 C   0  0  0  0  0  0  0  0  0  0  0  0
   26.4220  -20.3545  -10.6992 C   0  0  0  0  0  0  0  0  0  0  0  0
   25.9994  -20.8704  -12.0367 C   0  0  2  0  0  0  0  0  0  0  0  0
   26.9014  -20.5085  -13.0975 N   0  0  0  0  0  0  0  0  0  0  0  0
   24.5862  -20.5235  -12.2945 C   0  0  0  0  0  0  0  0  0  0  0  0
   24.3201  -19.3180  -12.5159 O   0  0  0  0  0  0  0  0  0  0  0  0
   22.4498  -22.6888  -16.2832 C   0  0  0  0  0  0  0  0  0  0  0  0
   22.6866  -21.7528  -15.1625 C   0  0  0  0  0  0  0  0  0  0  0  0
   21.8872  -21.8800  -13.9360 C   0  0  2  0  0  0  0  0  0  0  0  0
   20.3983  -21.8714  -14.2863 C   0  0  0  0  0  0  0  0  0  0  0  0
   22.1783  -21.0255  -12.7554 C   0  0  2  0  0  0  0  0  0  0  0  0
   23.5275  -21.4546  -12.3102 N   0  0  0  0  0  0  0  0  0  0  0  0
   21.3105  -21.0851  -11.6093 C   0  0  0  0  0  0  0  0  0  0  0  0
   21.4404  -21.9329  -10.7048 O   0  0  0  0  0  0  0  0  0  0  0  0
   20.2646  -20.1818  -11.4496 O   0  0  0  0  0  0  0  0  0  0  0  0
  2  1  1  6
  3  2  1  0
  4  5  1  0
  4  3  1  0
  6  7  1  0
  6  5  1  0
  8  2  1  0
  9  8  2  0
 11 10  1  1
 11 13  1  0
 12 11  1  0
 14 13  1  1
 14 15  1  0
 15  8  1  0
 16 23  1  0
 16 14  1  0
 17 16  2  0
 19 18  1  0
 19 20  1  0
 20 22  1  0
 20 21  1  6
 22 24  1  0
 22 23  1  1
 24 26  1  0
 25 24  2  0
M  END
$$$$
