KLI.pdb
     RDKit          3D

 26 25  0  0  1  0  0  0  0  0999 V2000
   13.8306  -11.5347  -11.2012 N   0  0  0  0  0  0  0  0  0  0  0  0
   15.1084  -10.9638  -11.4445 C   0  0  1  0  0  0  0  0  0  0  0  0
   15.6721  -11.3721  -12.7479 C   0  0  0  0  0  0  0  0  0  0  0  0
   15.5542  -12.8350  -13.0483 C   0  0  0  0  0  0  0  0  0  0  0  0
   16.2864  -13.3280  -14.2466 C   0  0  0  0  0  0  0  0  0  0  0  0
   15.9613  -14.8354  -14.3389 C   0  0  0  0  0  0  0  0  0  0  0  0
   17.1663  -15.5847  -14.1047 N   0  0  0  0  0  0  0  0  0  0  0  0
   15.0876   -9.4618  -11.3052 C   0  0  0  0  0  0  0  0  0  0  0  0
   14.3682   -8.7493  -12.0271 O   0  0  0  0  0  0  0  0  0  0  0  0
   13.2452   -6.3368   -9.5393 C   0  0  0  0  0  0  0  0  0  0  0  0
   13.9849   -7.2058   -8.5088 C   0  0  2  0  0  0  0  0  0  0  0  0
   13.4708   -6.8230   -7.1669 C   0  0  0  0  0  0  0  0  0  0  0  0
   15.4339   -7.0022   -8.7548 C   0  0  0  0  0  0  0  0  0  0  0  0
   15.9458   -7.3984  -10.1019 C   0  0  2  0  0  0  0  0  0  0  0  0
   15.8998   -8.8176  -10.3336 N   0  0  0  0  0  0  0  0  0  0  0  0
   17.2674   -6.7842  -10.3468 C   0  0  0  0  0  0  0  0  0  0  0  0
   18.1078   -6.8358   -9.4172 O   0  0  0  0  0  0  0  0  0  0  0  0
   20.8113   -8.6555  -13.2078 C   0  0  0  0  0  0  0  0  0  0  0  0
   19.9965   -7.8329  -12.2873 C   0  0  0  0  0  0  0  0  0  0  0  0
   19.7035   -6.4359  -12.6369 C   0  0  2  0  0  0  0  0  0  0  0  0
   20.9615   -5.7680  -13.1947 C   0  0  0  0  0  0  0  0  0  0  0  0
   18.9930   -5.5523  -11.6761 C   0  0  2  0  0  0  0  0  0  0  0  0
   17.6412   -6.1518  -11.5503 N   0  0  0  0  0  0  0  0  0  0  0  0
   18.8158   -4.1604  -11.9947 C   0  0  0  0  0  0  0  0  0  0  0  0
   17.8682   -3.7393  -12.6863 O   0  0  0  0  0  0  0  0  0  0  0  0
   19.7091   -3.1971  -11.5372 O   0  0  0  0  0  0  0  0  0  0  0  0
  2  1  1  6
  3  2  1  0
  4  5  1  0
  4  3  1  0
  6  7  1  0
  6  5  1  0
  8  2  1  0
  9  8  2  0
 11 10  1  6
 11 13  1  0
 12 11  1  0
 14 13  1  1
 14 15  1  0
 15  8  1  0
 16 23  1  0
 16 14  1  0
 17 16  2  0
 19 18  1  0
 19 20  1  0
 20 22  1  0
 20 21  1  1
 22 24  1  0
 22 23  1  6
 24 26  1  0
 25 24  2  0
M  END
$$$$
