SKP.pdb
     RDKit          3D

 23 23  0  0  1  0  0  0  0  0999 V2000
   10.6964  -13.5946   20.3386 O   0  0  0  0  0  0  0  0  0  0  0  0
    9.9187  -14.5106   19.6037 C   0  0  0  0  0  0  0  0  0  0  0  0
    8.4594  -14.1054   19.6699 C   0  0  2  0  0  0  0  0  0  0  0  0
    8.3341  -12.8306   18.9817 N   0  0  0  0  0  0  0  0  0  0  0  0
    7.9972  -13.9745   21.0741 C   0  0  0  0  0  0  0  0  0  0  0  0
    7.9904  -12.8704   21.6460 O   0  0  0  0  0  0  0  0  0  0  0  0
    7.5523  -15.1214   21.7889 N   0  0  0  0  0  0  0  0  0  0  0  0
    6.9462  -15.0622   23.0875 C   0  0  1  0  0  0  0  0  0  0  0  0
    6.2632  -16.3908   23.3434 C   0  0  0  0  0  0  0  0  0  0  0  0
    7.2217  -17.2990   24.0504 C   0  0  0  0  0  0  0  0  0  0  0  0
    6.6278  -18.6784   24.2823 C   0  0  0  0  0  0  0  0  0  0  0  0
    7.5345  -19.5436   25.1177 C   0  0  0  0  0  0  0  0  0  0  0  0
    6.8660  -20.8199   25.2986 N   0  0  0  0  0  0  0  0  0  0  0  0
    8.0255  -14.8322   24.0915 C   0  0  0  0  0  0  0  0  0  0  0  0
    9.2142  -15.1431   23.8302 O   0  0  0  0  0  0  0  0  0  0  0  0
    7.7520  -14.2607   25.3620 N   0  0  0  0  0  0  0  0  0  0  0  0
    6.4698  -13.9597   25.9685 C   0  0  0  0  0  0  0  0  0  0  0  0
    6.7601  -12.6786   26.7301 C   0  0  0  0  0  0  0  0  0  0  0  0
    8.2453  -12.5063   26.7585 C   0  0  0  0  0  0  0  0  0  0  0  0
    8.7553  -13.8704   26.3185 C   0  0  1  0  0  0  0  0  0  0  0  0
    8.8035  -14.7706   27.4880 C   0  0  0  0  0  0  0  0  0  0  0  0
    9.6935  -14.5542   28.3497 O   0  0  0  0  0  0  0  0  0  0  0  0
    7.9477  -15.8220   27.6980 O   0  0  0  0  0  0  0  0  0  0  0  0
  1  2  1  0
  2  3  1  0
  3  5  1  0
  3  4  1  6
  5  6  2  0
  7  8  1  0
  7  5  1  0
  8 14  1  0
  8  9  1  1
 10  9  1  0
 10 11  1  0
 11 12  1  0
 13 12  1  0
 14 15  2  0
 16 14  1  0
 16 17  1  0
 17 18  1  0
 19 18  1  0
 20 16  1  0
 20 19  1  0
 20 21  1  1
 22 21  2  0
 23 21  1  0
M  END
$$$$
