SKP.pdb
     RDKit          3D

 23 23  0  0  1  0  0  0  0  0999 V2000
   12.8862  -17.9588   22.9252 O   0  0  0  0  0  0  0  0  0  0  0  0
   12.7957  -17.1212   21.7965 C   0  0  0  0  0  0  0  0  0  0  0  0
   11.3386  -16.9151   21.4327 C   0  0  2  0  0  0  0  0  0  0  0  0
   11.3063  -16.1223   20.2141 N   0  0  0  0  0  0  0  0  0  0  0  0
   10.6039  -16.2155   22.5159 C   0  0  0  0  0  0  0  0  0  0  0  0
   10.8659  -15.0359   22.8093 O   0  0  0  0  0  0  0  0  0  0  0  0
    9.5819  -16.8925   23.2379 N   0  0  0  0  0  0  0  0  0  0  0  0
    8.8349  -16.2945   24.3063 C   0  0  1  0  0  0  0  0  0  0  0  0
    7.6884  -17.2243   24.6501 C   0  0  0  0  0  0  0  0  0  0  0  0
    6.8884  -17.4844   23.4108 C   0  0  0  0  0  0  0  0  0  0  0  0
    5.7255  -18.4261   23.6753 C   0  0  0  0  0  0  0  0  0  0  0  0
    5.0360  -18.8340   22.3998 C   0  0  0  0  0  0  0  0  0  0  0  0
    3.9852  -19.7698   22.7581 N   0  0  0  0  0  0  0  0  0  0  0  0
    9.7460  -16.1397   25.4775 C   0  0  0  0  0  0  0  0  0  0  0  0
   10.8504  -16.7374   25.5077 O   0  0  0  0  0  0  0  0  0  0  0  0
    9.4027  -15.3215   26.5858 N   0  0  0  0  0  0  0  0  0  0  0  0
    8.1702  -14.6008   26.8388 C   0  0  0  0  0  0  0  0  0  0  0  0
    8.6636  -13.3371   27.5208 C   0  0  0  0  0  0  0  0  0  0  0  0
   10.0970  -13.5598   27.8841 C   0  0  0  0  0  0  0  0  0  0  0  0
   10.2631  -15.0621   27.7110 C   0  0  1  0  0  0  0  0  0  0  0  0
    9.8104  -15.7450   28.9395 C   0  0  0  0  0  0  0  0  0  0  0  0
   10.4949  -15.5780   29.9812 O   0  0  0  0  0  0  0  0  0  0  0  0
    8.6994  -16.5455   29.0219 O   0  0  0  0  0  0  0  0  0  0  0  0
  1  2  1  0
  2  3  1  0
  3  5  1  0
  3  4  1  6
  5  6  2  0
  7  8  1  0
  7  5  1  0
  8 14  1  0
  8  9  1  1
 10  9  1  0
 10 11  1  0
 11 12  1  0
 13 12  1  0
 14 15  2  0
 16 14  1  0
 16 17  1  0
 17 18  1  0
 19 18  1  0
 20 16  1  0
 20 19  1  0
 20 21  1  1
 22 21  2  0
 23 21  1  0
M  END
$$$$
