SKP.pdb
     RDKit          3D

 23 23  0  0  1  0  0  0  0  0999 V2000
   10.1321  -12.9052   19.7717 O   0  0  0  0  0  0  0  0  0  0  0  0
    9.6264  -14.2100   19.9321 C   0  0  0  0  0  0  0  0  0  0  0  0
    8.1110  -14.1729   19.9141 C   0  0  2  0  0  0  0  0  0  0  0  0
    7.7176  -12.9179   19.2939 N   0  0  0  0  0  0  0  0  0  0  0  0
    7.5511  -14.2616   21.2857 C   0  0  0  0  0  0  0  0  0  0  0  0
    7.0176  -13.2762   21.8247 O   0  0  0  0  0  0  0  0  0  0  0  0
    7.6188  -15.4865   22.0064 N   0  0  0  0  0  0  0  0  0  0  0  0
    7.1794  -15.6347   23.3636 C   0  0  1  0  0  0  0  0  0  0  0  0
    7.1531  -17.1155   23.6854 C   0  0  0  0  0  0  0  0  0  0  0  0
    7.1415  -17.2869   25.1733 C   0  0  0  0  0  0  0  0  0  0  0  0
    7.1720  -18.7523   25.5743 C   0  0  0  0  0  0  0  0  0  0  0  0
    7.0961  -18.9241   27.0687 C   0  0  0  0  0  0  0  0  0  0  0  0
    7.1097  -20.3505   27.3399 N   0  0  0  0  0  0  0  0  0  0  0  0
    8.1550  -14.9298   24.2451 C   0  0  0  0  0  0  0  0  0  0  0  0
    9.3771  -14.9126   23.9555 O   0  0  0  0  0  0  0  0  0  0  0  0
    7.7430  -14.2612   25.4279 N   0  0  0  0  0  0  0  0  0  0  0  0
    6.4064  -14.1065   25.9682 C   0  0  0  0  0  0  0  0  0  0  0  0
    6.4541  -12.7117   26.5665 C   0  0  0  0  0  0  0  0  0  0  0  0
    7.8891  -12.2921   26.5995 C   0  0  0  0  0  0  0  0  0  0  0  0
    8.6314  -13.5955   26.3451 C   0  0  1  0  0  0  0  0  0  0  0  0
    8.7805  -14.3256   27.6200 C   0  0  0  0  0  0  0  0  0  0  0  0
    9.5688  -13.8454   28.4740 O   0  0  0  0  0  0  0  0  0  0  0  0
    8.1209  -15.4865   27.9350 O   0  0  0  0  0  0  0  0  0  0  0  0
  1  2  1  0
  2  3  1  0
  3  5  1  0
  3  4  1  1
  5  6  2  0
  7  8  1  0
  7  5  1  0
  8 14  1  0
  8  9  1  1
 10  9  1  0
 10 11  1  0
 11 12  1  0
 13 12  1  0
 14 15  2  0
 16 14  1  0
 16 17  1  0
 17 18  1  0
 19 18  1  0
 20 16  1  0
 20 19  1  0
 20 21  1  1
 22 21  2  0
 23 21  1  0
M  END
$$$$
