SKP.pdb
     RDKit          3D

 23 23  0  0  1  0  0  0  0  0999 V2000
   11.1248  -14.2241   20.5049 O   0  0  0  0  0  0  0  0  0  0  0  0
   10.3761  -13.4217   19.6220 C   0  0  0  0  0  0  0  0  0  0  0  0
    8.9613  -13.9576   19.5249 C   0  0  2  0  0  0  0  0  0  0  0  0
    8.2728  -13.1760   18.5103 N   0  0  0  0  0  0  0  0  0  0  0  0
    8.2505  -13.8475   20.8230 C   0  0  0  0  0  0  0  0  0  0  0  0
    7.9279  -12.7388   21.2847 O   0  0  0  0  0  0  0  0  0  0  0  0
    7.9268  -15.0198   21.5613 N   0  0  0  0  0  0  0  0  0  0  0  0
    7.2564  -15.0003   22.8291 C   0  0  1  0  0  0  0  0  0  0  0  0
    6.6309  -16.3637   23.0460 C   0  0  0  0  0  0  0  0  0  0  0  0
    5.5658  -16.5766   22.0147 C   0  0  0  0  0  0  0  0  0  0  0  0
    4.9490  -17.9617   22.1159 C   0  0  0  0  0  0  0  0  0  0  0  0
    3.9032  -18.1862   21.0555 C   0  0  0  0  0  0  0  0  0  0  0  0
    3.3584  -19.5162   21.2621 N   0  0  0  0  0  0  0  0  0  0  0  0
    8.2726  -14.7220   23.8853 C   0  0  0  0  0  0  0  0  0  0  0  0
    9.4914  -14.9337   23.6671 O   0  0  0  0  0  0  0  0  0  0  0  0
    7.9040  -14.2142   25.1588 N   0  0  0  0  0  0  0  0  0  0  0  0
    6.5879  -13.8550   25.6502 C   0  0  0  0  0  0  0  0  0  0  0  0
    6.8828  -12.6518   26.5281 C   0  0  0  0  0  0  0  0  0  0  0  0
    8.3646  -12.5965   26.7216 C   0  0  0  0  0  0  0  0  0  0  0  0
    8.8228  -13.9646   26.2392 C   0  0  1  0  0  0  0  0  0  0  0  0
    8.6816  -14.9393   27.3395 C   0  0  0  0  0  0  0  0  0  0  0  0
    7.6982  -15.7219   27.2978 O   0  0  0  0  0  0  0  0  0  0  0  0
    9.5457  -15.0488   28.3993 O   0  0  0  0  0  0  0  0  0  0  0  0
  1  2  1  0
  2  3  1  0
  3  5  1  0
  3  4  1  6
  5  6  2  0
  7  8  1  0
  7  5  1  0
  8 14  1  0
  8  9  1  1
 10  9  1  0
 10 11  1  0
 11 12  1  0
 13 12  1  0
 14 15  2  0
 16 14  1  0
 16 17  1  0
 17 18  1  0
 19 18  1  0
 20 16  1  0
 20 19  1  0
 20 21  1  1
 22 21  2  0
 23 21  1  0
M  END
$$$$
