SKP.pdb
     RDKit          3D

 23 23  0  0  1  0  0  0  0  0999 V2000
   11.0133  -13.4371   18.6796 O   0  0  0  0  0  0  0  0  0  0  0  0
   10.2721  -13.1937   19.8523 C   0  0  0  0  0  0  0  0  0  0  0  0
    8.9642  -13.9580   19.7940 C   0  0  2  0  0  0  0  0  0  0  0  0
    8.0567  -13.1962   18.9511 N   0  0  0  0  0  0  0  0  0  0  0  0
    8.3787  -14.1327   21.1465 C   0  0  0  0  0  0  0  0  0  0  0  0
    7.7164  -13.2254   21.6798 O   0  0  0  0  0  0  0  0  0  0  0  0
    8.5700  -15.3514   21.8551 N   0  0  0  0  0  0  0  0  0  0  0  0
    7.9389  -15.6491   23.1082 C   0  0  1  0  0  0  0  0  0  0  0  0
    7.8568  -17.1565   23.2417 C   0  0  0  0  0  0  0  0  0  0  0  0
    6.4151  -17.5601   23.2881 C   0  0  0  0  0  0  0  0  0  0  0  0
    6.2518  -19.0695   23.3525 C   0  0  0  0  0  0  0  0  0  0  0  0
    4.8014  -19.4755   23.3373 C   0  0  0  0  0  0  0  0  0  0  0  0
    4.7598  -20.9267   23.3577 N   0  0  0  0  0  0  0  0  0  0  0  0
    8.7822  -15.0772   24.1980 C   0  0  0  0  0  0  0  0  0  0  0  0
   10.0312  -15.0260   24.0756 O   0  0  0  0  0  0  0  0  0  0  0  0
    8.2109  -14.5762   25.3974 N   0  0  0  0  0  0  0  0  0  0  0  0
    6.8139  -14.4985   25.7778 C   0  0  0  0  0  0  0  0  0  0  0  0
    6.7590  -13.1979   26.5595 C   0  0  0  0  0  0  0  0  0  0  0  0
    8.1700  -12.7844   26.8322 C   0  0  0  0  0  0  0  0  0  0  0  0
    8.9632  -14.0399   26.5020 C   0  0  1  0  0  0  0  0  0  0  0  0
    8.9634  -14.9361   27.6755 C   0  0  0  0  0  0  0  0  0  0  0  0
    8.1785  -15.9185   27.6547 O   0  0  0  0  0  0  0  0  0  0  0  0
    9.7575  -14.7713   28.7819 O   0  0  0  0  0  0  0  0  0  0  0  0
  1  2  1  0
  2  3  1  0
  3  5  1  0
  3  4  1  6
  5  6  2  0
  7  8  1  0
  7  5  1  0
  8 14  1  0
  8  9  1  1
 10  9  1  0
 10 11  1  0
 11 12  1  0
 13 12  1  0
 14 15  2  0
 16 14  1  0
 16 17  1  0
 17 18  1  0
 19 18  1  0
 20 16  1  0
 20 19  1  0
 20 21  1  1
 22 21  2  0
 23 21  1  0
M  END
$$$$
