SKP.pdb
     RDKit          3D

 23 23  0  0  1  0  0  0  0  0999 V2000
   11.1313  -14.0569   18.5180 O   0  0  0  0  0  0  0  0  0  0  0  0
   10.4986  -13.6887   19.7213 C   0  0  0  0  0  0  0  0  0  0  0  0
    9.0100  -13.9544   19.6141 C   0  0  2  0  0  0  0  0  0  0  0  0
    8.4515  -12.9339   18.7416 N   0  0  0  0  0  0  0  0  0  0  0  0
    8.3538  -13.9029   20.9443 C   0  0  0  0  0  0  0  0  0  0  0  0
    8.0492  -12.8164   21.4667 O   0  0  0  0  0  0  0  0  0  0  0  0
    8.0630  -15.1072   21.6438 N   0  0  0  0  0  0  0  0  0  0  0  0
    7.3980  -15.1472   22.9139 C   0  0  1  0  0  0  0  0  0  0  0  0
    6.7112  -16.4926   23.0377 C   0  0  0  0  0  0  0  0  0  0  0  0
    5.6398  -16.5863   21.9952 C   0  0  0  0  0  0  0  0  0  0  0  0
    5.0015  -17.9649   21.9622 C   0  0  0  0  0  0  0  0  0  0  0  0
    3.9776  -18.0801   20.8636 C   0  0  0  0  0  0  0  0  0  0  0  0
    3.4427  -19.4291   20.9126 N   0  0  0  0  0  0  0  0  0  0  0  0
    8.4291  -14.9912   23.9809 C   0  0  0  0  0  0  0  0  0  0  0  0
    9.6336  -15.2586   23.7455 O   0  0  0  0  0  0  0  0  0  0  0  0
    8.0908  -14.5404   25.2839 N   0  0  0  0  0  0  0  0  0  0  0  0
    6.7784  -14.3138   25.8574 C   0  0  0  0  0  0  0  0  0  0  0  0
    7.0121  -13.1024   26.7425 C   0  0  0  0  0  0  0  0  0  0  0  0
    8.4913  -12.9119   26.8520 C   0  0  0  0  0  0  0  0  0  0  0  0
    9.0447  -14.2233   26.3151 C   0  0  1  0  0  0  0  0  0  0  0  0
    9.0593  -15.2243   27.4006 C   0  0  0  0  0  0  0  0  0  0  0  0
    8.1632  -16.1065   27.3875 O   0  0  0  0  0  0  0  0  0  0  0  0
    9.9792  -15.2576   28.4177 O   0  0  0  0  0  0  0  0  0  0  0  0
  1  2  1  0
  2  3  1  0
  3  5  1  0
  3  4  1  6
  5  6  2  0
  7  8  1  0
  7  5  1  0
  8 14  1  0
  8  9  1  1
 10  9  1  0
 10 11  1  0
 11 12  1  0
 13 12  1  0
 14 15  2  0
 16 14  1  0
 16 17  1  0
 17 18  1  0
 19 18  1  0
 20 16  1  0
 20 19  1  0
 20 21  1  1
 22 21  2  0
 23 21  1  0
M  END
$$$$
