SKP.pdb
     RDKit          3D

 23 23  0  0  1  0  0  0  0  0999 V2000
   12.2024  -16.7230   19.6747 O   0  0  0  0  0  0  0  0  0  0  0  0
   11.3679  -16.0593   20.5950 C   0  0  0  0  0  0  0  0  0  0  0  0
    9.9628  -16.6209   20.5028 C   0  0  2  0  0  0  0  0  0  0  0  0
    9.4714  -16.3359   19.1642 N   0  0  0  0  0  0  0  0  0  0  0  0
    9.0676  -16.0084   21.5158 C   0  0  0  0  0  0  0  0  0  0  0  0
    8.5945  -14.8707   21.3483 O   0  0  0  0  0  0  0  0  0  0  0  0
    8.7372  -16.7224   22.7012 N   0  0  0  0  0  0  0  0  0  0  0  0
    7.8781  -16.2051   23.7266 C   0  0  1  0  0  0  0  0  0  0  0  0
    7.2429  -17.3822   24.4394 C   0  0  0  0  0  0  0  0  0  0  0  0
    6.3583  -18.1113   23.4753 C   0  0  0  0  0  0  0  0  0  0  0  0
    5.7305  -19.3438   24.1045 C   0  0  0  0  0  0  0  0  0  0  0  0
    4.7998  -20.0453   23.1503 C   0  0  0  0  0  0  0  0  0  0  0  0
    4.3086  -21.2345   23.8233 N   0  0  0  0  0  0  0  0  0  0  0  0
    8.7147  -15.4142   24.6755 C   0  0  0  0  0  0  0  0  0  0  0  0
    9.9678  -15.4890   24.6331 O   0  0  0  0  0  0  0  0  0  0  0  0
    8.1325  -14.5593   25.6480 N   0  0  0  0  0  0  0  0  0  0  0  0
    6.7333  -14.2479   25.8665 C   0  0  0  0  0  0  0  0  0  0  0  0
    6.7830  -12.7873   26.2784 C   0  0  0  0  0  0  0  0  0  0  0  0
    8.2130  -12.4551   26.5630 C   0  0  0  0  0  0  0  0  0  0  0  0
    8.8720  -13.8241   26.6411 C   0  0  1  0  0  0  0  0  0  0  0  0
    8.6934  -14.3715   28.0008 C   0  0  0  0  0  0  0  0  0  0  0  0
    7.8129  -15.2553   28.1587 O   0  0  0  0  0  0  0  0  0  0  0  0
    9.4189  -13.9837   29.0986 O   0  0  0  0  0  0  0  0  0  0  0  0
  1  2  1  0
  2  3  1  0
  3  5  1  0
  3  4  1  6
  5  6  2  0
  7  8  1  0
  7  5  1  0
  8 14  1  0
  8  9  1  1
 10  9  1  0
 10 11  1  0
 11 12  1  0
 13 12  1  0
 14 15  2  0
 16 14  1  0
 16 17  1  0
 17 18  1  0
 19 18  1  0
 20 16  1  0
 20 19  1  0
 20 21  1  1
 22 21  2  0
 23 21  1  0
M  END
$$$$
