SKP.pdb
     RDKit          3D

 23 23  0  0  1  0  0  0  0  0999 V2000
    9.2161  -18.0533   17.3264 O   0  0  0  0  0  0  0  0  0  0  0  0
    8.8919  -19.3550   17.7553 C   0  0  0  0  0  0  0  0  0  0  0  0
    7.4383  -19.4012   18.1832 C   0  0  2  0  0  0  0  0  0  0  0  0
    6.6399  -18.9748   17.0450 N   0  0  0  0  0  0  0  0  0  0  0  0
    7.1872  -18.5115   19.3442 C   0  0  0  0  0  0  0  0  0  0  0  0
    6.8874  -17.3157   19.1818 O   0  0  0  0  0  0  0  0  0  0  0  0
    7.2876  -19.0211   20.6688 N   0  0  0  0  0  0  0  0  0  0  0  0
    7.0791  -18.2255   21.8438 C   0  0  1  0  0  0  0  0  0  0  0  0
    7.0013  -19.1623   23.0326 C   0  0  0  0  0  0  0  0  0  0  0  0
    5.9548  -20.1995   22.7632 C   0  0  0  0  0  0  0  0  0  0  0  0
    5.8684  -21.2209   23.8851 C   0  0  0  0  0  0  0  0  0  0  0  0
    4.7849  -22.2364   23.6336 C   0  0  0  0  0  0  0  0  0  0  0  0
    4.8038  -23.1710   24.7448 N   0  0  0  0  0  0  0  0  0  0  0  0
    8.2406  -17.3002   21.9878 C   0  0  0  0  0  0  0  0  0  0  0  0
    9.3102  -17.5205   21.3672 O   0  0  0  0  0  0  0  0  0  0  0  0
    8.1798  -16.1519   22.8205 N   0  0  0  0  0  0  0  0  0  0  0  0
    7.0906  -15.6920   23.6600 C   0  0  0  0  0  0  0  0  0  0  0  0
    7.1928  -14.1825   23.5318 C   0  0  0  0  0  0  0  0  0  0  0  0
    8.5066  -13.8803   22.8845 C   0  0  0  0  0  0  0  0  0  0  0  0
    9.2503  -15.2034   22.9883 C   0  0  1  0  0  0  0  0  0  0  0  0
    9.8882  -15.2983   24.3166 C   0  0  0  0  0  0  0  0  0  0  0  0
    9.2589  -15.9064   25.2197 O   0  0  0  0  0  0  0  0  0  0  0  0
   11.1149  -14.7710   24.6315 O   0  0  0  0  0  0  0  0  0  0  0  0
  1  2  1  0
  2  3  1  0
  3  5  1  0
  3  4  1  6
  5  6  2  0
  7  8  1  0
  7  5  1  0
  8 14  1  0
  8  9  1  1
 10  9  1  0
 10 11  1  0
 11 12  1  0
 13 12  1  0
 14 15  2  0
 16 14  1  0
 16 17  1  0
 17 18  1  0
 19 18  1  0
 20 16  1  0
 20 19  1  0
 20 21  1  1
 22 21  2  0
 23 21  1  0
M  END
$$$$
