SKP.pdb
     RDKit          3D

 23 23  0  0  1  0  0  0  0  0999 V2000
    9.8817  -13.8082   19.8476 O   0  0  0  0  0  0  0  0  0  0  0  0
    8.5686  -13.3787   20.1219 C   0  0  0  0  0  0  0  0  0  0  0  0
    7.6521  -14.5819   20.2252 C   0  0  2  0  0  0  0  0  0  0  0  0
    6.5673  -14.3802   19.2781 N   0  0  0  0  0  0  0  0  0  0  0  0
    7.1091  -14.7324   21.5981 C   0  0  0  0  0  0  0  0  0  0  0  0
    6.1973  -13.9945   22.0108 O   0  0  0  0  0  0  0  0  0  0  0  0
    7.6302  -15.7320   22.4661 N   0  0  0  0  0  0  0  0  0  0  0  0
    7.2505  -15.8650   23.8428 C   0  0  1  0  0  0  0  0  0  0  0  0
    7.3858  -17.3256   24.2241 C   0  0  0  0  0  0  0  0  0  0  0  0
    7.1528  -17.4644   25.6972 C   0  0  0  0  0  0  0  0  0  0  0  0
    7.3663  -18.8921   26.1717 C   0  0  0  0  0  0  0  0  0  0  0  0
    7.0253  -19.0528   27.6299 C   0  0  0  0  0  0  0  0  0  0  0  0
    7.3427  -20.4209   27.9986 N   0  0  0  0  0  0  0  0  0  0  0  0
    8.1757  -15.0277   24.6607 C   0  0  0  0  0  0  0  0  0  0  0  0
    9.3884  -14.9293   24.3485 O   0  0  0  0  0  0  0  0  0  0  0  0
    7.7249  -14.3208   25.8064 N   0  0  0  0  0  0  0  0  0  0  0  0
    6.4181  -14.3422   26.4342 C   0  0  0  0  0  0  0  0  0  0  0  0
    6.2533  -12.9055   26.8972 C   0  0  0  0  0  0  0  0  0  0  0  0
    7.5897  -12.2451   26.7783 C   0  0  0  0  0  0  0  0  0  0  0  0
    8.5353  -13.4212   26.5860 C   0  0  1  0  0  0  0  0  0  0  0  0
    8.8907  -13.9788   27.9063 C   0  0  0  0  0  0  0  0  0  0  0  0
    8.3368  -15.0545   28.2493 O   0  0  0  0  0  0  0  0  0  0  0  0
    9.7796  -13.4064   28.7804 O   0  0  0  0  0  0  0  0  0  0  0  0
  1  2  1  0
  2  3  1  0
  3  5  1  0
  3  4  1  6
  5  6  2  0
  7  8  1  0
  7  5  1  0
  8 14  1  0
  8  9  1  1
 10  9  1  0
 10 11  1  0
 11 12  1  0
 13 12  1  0
 14 15  2  0
 16 14  1  0
 16 17  1  0
 17 18  1  0
 19 18  1  0
 20 16  1  0
 20 19  1  0
 20 21  1  1
 22 21  2  0
 23 21  1  0
M  END
$$$$
