SKP.pdb
     RDKit          3D

 23 23  0  0  1  0  0  0  0  0999 V2000
   10.2463  -12.7141   20.5268 O   0  0  0  0  0  0  0  0  0  0  0  0
    9.7996  -13.8926   19.8980 C   0  0  0  0  0  0  0  0  0  0  0  0
    8.2854  -13.8864   19.8251 C   0  0  2  0  0  0  0  0  0  0  0  0
    7.8860  -12.6073   19.2603 N   0  0  0  0  0  0  0  0  0  0  0  0
    7.6781  -14.0630   21.1677 C   0  0  0  0  0  0  0  0  0  0  0  0
    7.1378  -13.1105   21.7567 O   0  0  0  0  0  0  0  0  0  0  0  0
    7.7073  -15.3360   21.8025 N   0  0  0  0  0  0  0  0  0  0  0  0
    7.2597  -15.5641   23.1458 C   0  0  1  0  0  0  0  0  0  0  0  0
    7.2542  -17.0604   23.3870 C   0  0  0  0  0  0  0  0  0  0  0  0
    7.0297  -17.3142   24.8460 C   0  0  0  0  0  0  0  0  0  0  0  0
    7.1433  -18.7906   25.1875 C   0  0  0  0  0  0  0  0  0  0  0  0
    6.8489  -19.0517   26.6414 C   0  0  0  0  0  0  0  0  0  0  0  0
    7.1108  -20.4584   26.8883 N   0  0  0  0  0  0  0  0  0  0  0  0
    8.2171  -14.8930   24.0725 C   0  0  0  0  0  0  0  0  0  0  0  0
    9.4478  -14.8876   23.8213 O   0  0  0  0  0  0  0  0  0  0  0  0
    7.7777  -14.2443   25.2565 N   0  0  0  0  0  0  0  0  0  0  0  0
    6.4272  -14.0818   25.7586 C   0  0  0  0  0  0  0  0  0  0  0  0
    6.4757  -12.7012   26.3888 C   0  0  0  0  0  0  0  0  0  0  0  0
    7.9146  -12.3034   26.4753 C   0  0  0  0  0  0  0  0  0  0  0  0
    8.6463  -13.6116   26.2152 C   0  0  1  0  0  0  0  0  0  0  0  0
    8.7454  -14.3712   27.4776 C   0  0  0  0  0  0  0  0  0  0  0  0
    9.5235  -13.9286   28.3607 O   0  0  0  0  0  0  0  0  0  0  0  0
    8.0499  -15.5215   27.7517 O   0  0  0  0  0  0  0  0  0  0  0  0
  1  2  1  0
  2  3  1  0
  3  5  1  0
  3  4  1  1
  5  6  2  0
  7  8  1  0
  7  5  1  0
  8 14  1  0
  8  9  1  1
 10  9  1  0
 10 11  1  0
 11 12  1  0
 13 12  1  0
 14 15  2  0
 16 14  1  0
 16 17  1  0
 17 18  1  0
 19 18  1  0
 20 16  1  0
 20 19  1  0
 20 21  1  1
 22 21  2  0
 23 21  1  0
M  END
$$$$
