SKP.pdb
     RDKit          3D

 23 23  0  0  1  0  0  0  0  0999 V2000
   10.4776  -13.2203   18.8189 O   0  0  0  0  0  0  0  0  0  0  0  0
    9.6216  -12.9544   19.9053 C   0  0  0  0  0  0  0  0  0  0  0  0
    8.3969  -13.8434   19.8161 C   0  0  2  0  0  0  0  0  0  0  0  0
    7.4469  -13.1819   18.9361 N   0  0  0  0  0  0  0  0  0  0  0  0
    7.7880  -14.0617   21.1519 C   0  0  0  0  0  0  0  0  0  0  0  0
    7.0594  -13.1990   21.6724 O   0  0  0  0  0  0  0  0  0  0  0  0
    8.0333  -15.2717   21.8589 N   0  0  0  0  0  0  0  0  0  0  0  0
    7.5031  -15.5518   23.1618 C   0  0  1  0  0  0  0  0  0  0  0  0
    7.4627  -17.0570   23.3343 C   0  0  0  0  0  0  0  0  0  0  0  0
    7.1335  -17.3715   24.7613 C   0  0  0  0  0  0  0  0  0  0  0  0
    7.1240  -18.8683   25.0232 C   0  0  0  0  0  0  0  0  0  0  0  0
    6.7651  -19.1831   26.4517 C   0  0  0  0  0  0  0  0  0  0  0  0
    6.6052  -20.6230   26.5487 N   0  0  0  0  0  0  0  0  0  0  0  0
    8.4124  -14.9381   24.1728 C   0  0  0  0  0  0  0  0  0  0  0  0
    9.6567  -14.9528   24.0014 O   0  0  0  0  0  0  0  0  0  0  0  0
    7.9111  -14.3229   25.3501 N   0  0  0  0  0  0  0  0  0  0  0  0
    6.5346  -14.1466   25.7703 C   0  0  0  0  0  0  0  0  0  0  0  0
    6.5717  -12.7917   26.4545 C   0  0  0  0  0  0  0  0  0  0  0  0
    8.0103  -12.4319   26.6482 C   0  0  0  0  0  0  0  0  0  0  0  0
    8.7289  -13.7468   26.3859 C   0  0  1  0  0  0  0  0  0  0  0  0
    8.7294  -14.5544   27.6222 C   0  0  0  0  0  0  0  0  0  0  0  0
    7.9007  -15.4971   27.6990 O   0  0  0  0  0  0  0  0  0  0  0  0
    9.5682  -14.3476   28.6878 O   0  0  0  0  0  0  0  0  0  0  0  0
  1  2  1  0
  2  3  1  0
  3  5  1  0
  3  4  1  6
  5  6  2  0
  7  8  1  0
  7  5  1  0
  8 14  1  0
  8  9  1  1
 10  9  1  0
 10 11  1  0
 11 12  1  0
 13 12  1  0
 14 15  2  0
 16 14  1  0
 16 17  1  0
 17 18  1  0
 19 18  1  0
 20 16  1  0
 20 19  1  0
 20 21  1  1
 22 21  2  0
 23 21  1  0
M  END
$$$$
