SKP.pdb
     RDKit          3D

 23 23  0  0  1  0  0  0  0  0999 V2000
   10.6702  -18.7256   23.8225 O   0  0  0  0  0  0  0  0  0  0  0  0
   11.9116  -18.4726   23.2071 C   0  0  0  0  0  0  0  0  0  0  0  0
   11.7495  -17.3819   22.1668 C   0  0  2  0  0  0  0  0  0  0  0  0
   13.0773  -17.0604   21.6686 N   0  0  0  0  0  0  0  0  0  0  0  0
   11.1151  -16.1716   22.7458 C   0  0  0  0  0  0  0  0  0  0  0  0
   11.7444  -15.4241   23.5148 O   0  0  0  0  0  0  0  0  0  0  0  0
    9.7670  -15.8495   22.4247 N   0  0  0  0  0  0  0  0  0  0  0  0
    9.0384  -14.7779   23.0394 C   0  0  1  0  0  0  0  0  0  0  0  0
    7.8922  -14.4066   22.1200 C   0  0  0  0  0  0  0  0  0  0  0  0
    8.4427  -13.6875   20.9270 C   0  0  0  0  0  0  0  0  0  0  0  0
    7.5155  -13.7893   19.7273 C   0  0  0  0  0  0  0  0  0  0  0  0
    8.1276  -13.1770   18.4949 C   0  0  0  0  0  0  0  0  0  0  0  0
    7.1331  -13.2473   17.4392 N   0  0  0  0  0  0  0  0  0  0  0  0
    8.5157  -15.2656   24.3489 C   0  0  0  0  0  0  0  0  0  0  0  0
    8.7375  -16.4438   24.7234 O   0  0  0  0  0  0  0  0  0  0  0  0
    7.7587  -14.4265   25.2083 N   0  0  0  0  0  0  0  0  0  0  0  0
    7.1935  -13.1187   24.9385 C   0  0  0  0  0  0  0  0  0  0  0  0
    7.3515  -12.4117   26.2729 C   0  0  0  0  0  0  0  0  0  0  0  0
    7.7083  -13.4517   27.2864 C   0  0  0  0  0  0  0  0  0  0  0  0
    7.3970  -14.7535   26.5633 C   0  0  1  0  0  0  0  0  0  0  0  0
    5.9592  -15.0571   26.7083 C   0  0  0  0  0  0  0  0  0  0  0  0
    5.2084  -14.7842   25.7371 O   0  0  0  0  0  0  0  0  0  0  0  0
    5.3890  -15.6138   27.8249 O   0  0  0  0  0  0  0  0  0  0  0  0
  1  2  1  0
  2  3  1  0
  3  5  1  0
  3  4  1  1
  5  6  2  0
  7  8  1  0
  7  5  1  0
  8 14  1  0
  8  9  1  6
 10  9  1  0
 10 11  1  0
 11 12  1  0
 13 12  1  0
 14 15  2  0
 16 14  1  0
 16 17  1  0
 17 18  1  0
 19 18  1  0
 20 16  1  0
 20 19  1  0
 20 21  1  6
 22 21  2  0
 23 21  1  0
M  END
$$$$
