SKP.pdb
     RDKit          3D

 23 23  0  0  1  0  0  0  0  0999 V2000
   11.4208  -18.7462   22.1306 O   0  0  0  0  0  0  0  0  0  0  0  0
   10.2344  -18.3309   21.4953 C   0  0  0  0  0  0  0  0  0  0  0  0
   10.3382  -16.8618   21.1363 C   0  0  2  0  0  0  0  0  0  0  0  0
   11.5472  -16.6955   20.3456 N   0  0  0  0  0  0  0  0  0  0  0  0
   10.4020  -16.0109   22.3506 C   0  0  0  0  0  0  0  0  0  0  0  0
   11.4908  -15.5989   22.7876 O   0  0  0  0  0  0  0  0  0  0  0  0
    9.2071  -15.6536   23.0353 N   0  0  0  0  0  0  0  0  0  0  0  0
    9.1878  -14.9465   24.2830 C   0  0  1  0  0  0  0  0  0  0  0  0
    7.7636  -14.4968   24.5413 C   0  0  0  0  0  0  0  0  0  0  0  0
    7.7240  -13.7321   25.8286 C   0  0  0  0  0  0  0  0  0  0  0  0
    6.3414  -13.1671   26.1087 C   0  0  0  0  0  0  0  0  0  0  0  0
    6.3475  -12.2378   27.2939 C   0  0  0  0  0  0  0  0  0  0  0  0
    4.9912  -11.7480   27.4647 N   0  0  0  0  0  0  0  0  0  0  0  0
    9.6377  -15.8839   25.3528 C   0  0  0  0  0  0  0  0  0  0  0  0
    9.7829  -17.1072   25.1071 O   0  0  0  0  0  0  0  0  0  0  0  0
    9.9148  -15.4334   26.6703 N   0  0  0  0  0  0  0  0  0  0  0  0
    9.4906  -14.2099   27.3228 C   0  0  0  0  0  0  0  0  0  0  0  0
   10.6941  -13.8615   28.1804 C   0  0  0  0  0  0  0  0  0  0  0  0
   11.5898  -15.0589   28.1952 C   0  0  0  0  0  0  0  0  0  0  0  0
   10.6987  -16.1582   27.6367 C   0  0  1  0  0  0  0  0  0  0  0  0
    9.8765  -16.7176   28.7283 C   0  0  0  0  0  0  0  0  0  0  0  0
    8.6476  -16.4509   28.7234 O   0  0  0  0  0  0  0  0  0  0  0  0
   10.3593  -17.5048   29.7428 O   0  0  0  0  0  0  0  0  0  0  0  0
  1  2  1  0
  2  3  1  0
  3  5  1  0
  3  4  1  6
  5  6  2  0
  7  8  1  0
  7  5  1  0
  8 14  1  0
  8  9  1  1
 10  9  1  0
 10 11  1  0
 11 12  1  0
 13 12  1  0
 14 15  2  0
 16 14  1  0
 16 17  1  0
 17 18  1  0
 19 18  1  0
 20 16  1  0
 20 19  1  0
 20 21  1  1
 22 21  2  0
 23 21  1  0
M  END
$$$$
