WIR.pdb
     RDKit          3D

 34 35  0  0  1  0  0  0  0  0999 V2000
    5.5226  -17.5198   23.5339 N   0  0  0  0  0  0  0  0  0  0  0  0
    6.5246  -16.7516   22.8047 C   0  0  1  0  0  0  0  0  0  0  0  0
    5.8315  -15.9158   21.7446 C   0  0  0  0  0  0  0  0  0  0  0  0
    6.8621  -15.5278   20.7550 C   0  0  0  0  0  0  0  0  0  0  0  0
    7.2764  -16.2376   19.6521 C   0  0  0  0  0  0  0  0  0  0  0  0
    8.2560  -15.5383   19.0080 N   0  0  0  0  0  0  0  0  0  0  0  0
    8.4815  -14.3974   19.6673 C   0  0  0  0  0  0  0  0  0  0  0  0
    9.3486  -13.3651   19.4285 C   0  0  0  0  0  0  0  0  0  0  0  0
    9.3514  -12.2824   20.3081 C   0  0  0  0  0  0  0  0  0  0  0  0
    8.5068  -12.2321   21.4015 C   0  0  0  0  0  0  0  0  0  0  0  0
    7.6321  -13.3032   21.6189 C   0  0  0  0  0  0  0  0  0  0  0  0
    7.6293  -14.3648   20.7569 C   0  0  0  0  0  0  0  0  0  0  0  0
    7.4306  -15.9905   23.6586 C   0  0  0  0  0  0  0  0  0  0  0  0
    8.5165  -15.5616   23.1220 O   0  0  0  0  0  0  0  0  0  0  0  0
    6.3666  -11.8821   26.4388 C   0  0  0  0  0  0  0  0  0  0  0  0
    7.0778  -12.9734   25.6479 C   0  0  0  0  0  0  0  0  0  0  0  0
    7.7729  -13.9331   26.5546 C   0  0  2  0  0  0  0  0  0  0  0  0
    8.7557  -13.2090   27.4255 C   0  0  0  0  0  0  0  0  0  0  0  0
    8.3574  -15.1196   25.8275 C   0  0  2  0  0  0  0  0  0  0  0  0
    7.2545  -15.6635   25.0239 N   0  0  0  0  0  0  0  0  0  0  0  0
    8.9252  -16.1437   26.7257 C   0  0  0  0  0  0  0  0  0  0  0  0
    8.2382  -16.6063   27.6746 O   0  0  0  0  0  0  0  0  0  0  0  0
   14.1424  -19.7179   23.2360 N   0  0  0  0  0  0  0  0  0  0  0  0
   13.1127  -19.1275   22.4359 C   0  0  0  0  0  0  0  0  0  0  0  0
   13.0525  -19.4223   21.1773 N   0  0  0  0  0  0  0  0  0  0  0  0
   12.1817  -18.2366   23.0324 N   0  0  0  0  0  0  0  0  0  0  0  0
   12.3835  -17.7140   24.3732 C   0  0  0  0  0  0  0  0  0  0  0  0
   12.0124  -18.6956   25.4272 C   0  0  0  0  0  0  0  0  0  0  0  0
   12.0244  -18.2301   26.8299 C   0  0  0  0  0  0  0  0  0  0  0  0
   10.7590  -17.7065   27.4157 C   0  0  2  0  0  0  0  0  0  0  0  0
   10.2404  -16.6498   26.5740 N   0  0  0  0  0  0  0  0  0  0  0  0
   10.7993  -17.3048   28.8145 C   0  0  0  0  0  0  0  0  0  0  0  0
   11.0024  -18.1858   29.8653 O   0  0  0  0  0  0  0  0  0  0  0  0
   10.6423  -16.0788   29.1439 O   0  0  0  0  0  0  0  0  0  0  0  0
  2  1  1  1
  3  2  1  0
  4  3  1  0
  5  4  2  0
  6  5  1  0
  7 12  2  0
  7  6  1  0
  8  7  1  0
  9  8  2  0
  9 10  1  0
 10 11  2  0
 11 12  1  0
 12  4  1  0
 13  2  1  0
 14 13  2  0
 15 16  1  0
 17 16  1  0
 17 19  1  0
 17 18  1  6
 19 21  1  0
 19 20  1  1
 20 13  1  0
 21 31  1  0
 22 21  2  0
 23 24  1  0
 24 25  2  0
 26 24  1  0
 26 27  1  0
 28 27  1  0
 28 29  1  0
 30 29  1  6
 30 32  1  0
 31 30  1  0
 32 34  2  0
 32 33  1  0
M  END
$$$$
