WIR.pdb
     RDKit          3D

 34 35  0  0  1  0  0  0  0  0999 V2000
    4.8878  -17.6628   23.8154 N   0  0  0  0  0  0  0  0  0  0  0  0
    5.9058  -16.6335   23.9882 C   0  0  1  0  0  0  0  0  0  0  0  0
    6.4560  -16.7144   25.4001 C   0  0  0  0  0  0  0  0  0  0  0  0
    6.1987  -15.4055   26.0422 C   0  0  0  0  0  0  0  0  0  0  0  0
    5.0307  -14.9709   26.6242 C   0  0  0  0  0  0  0  0  0  0  0  0
    5.2038  -13.6984   27.0870 N   0  0  0  0  0  0  0  0  0  0  0  0
    6.4527  -13.3040   26.8186 C   0  0  0  0  0  0  0  0  0  0  0  0
    7.1121  -12.1326   27.0782 C   0  0  0  0  0  0  0  0  0  0  0  0
    8.4420  -12.0147   26.6741 C   0  0  0  0  0  0  0  0  0  0  0  0
    9.0985  -13.0442   26.0255 C   0  0  0  0  0  0  0  0  0  0  0  0
    8.3970  -14.2292   25.7741 C   0  0  0  0  0  0  0  0  0  0  0  0
    7.0932  -14.3449   26.1700 C   0  0  0  0  0  0  0  0  0  0  0  0
    6.9338  -16.6314   22.9525 C   0  0  0  0  0  0  0  0  0  0  0  0
    7.2793  -17.7712   22.4703 O   0  0  0  0  0  0  0  0  0  0  0  0
    7.5661  -12.1498   19.9763 C   0  0  0  0  0  0  0  0  0  0  0  0
    7.3835  -13.6230   20.3205 C   0  0  0  0  0  0  0  0  0  0  0  0
    8.6781  -14.2510   20.7154 C   0  0  2  0  0  0  0  0  0  0  0  0
    9.6699  -14.1494   19.5951 C   0  0  0  0  0  0  0  0  0  0  0  0
    8.5173  -15.6471   21.2657 C   0  0  2  0  0  0  0  0  0  0  0  0
    7.6042  -15.5105   22.4082 N   0  0  0  0  0  0  0  0  0  0  0  0
    9.7907  -16.2761   21.6664 C   0  0  0  0  0  0  0  0  0  0  0  0
   10.4522  -15.8101   22.6317 O   0  0  0  0  0  0  0  0  0  0  0  0
   17.0393  -19.1305   16.1150 N   0  0  0  0  0  0  0  0  0  0  0  0
   15.7825  -19.5300   16.6716 C   0  0  0  0  0  0  0  0  0  0  0  0
   15.0979  -20.4506   16.0729 N   0  0  0  0  0  0  0  0  0  0  0  0
   15.3127  -18.9152   17.8622 N   0  0  0  0  0  0  0  0  0  0  0  0
   14.0585  -19.3141   18.4783 C   0  0  0  0  0  0  0  0  0  0  0  0
   13.6845  -18.4402   19.6223 C   0  0  0  0  0  0  0  0  0  0  0  0
   12.2646  -18.0499   19.7490 C   0  0  0  0  0  0  0  0  0  0  0  0
   11.7227  -17.7719   21.1083 C   0  0  2  0  0  0  0  0  0  0  0  0
   10.3256  -17.4095   21.0044 N   0  0  0  0  0  0  0  0  0  0  0  0
   12.4616  -16.8231   21.9288 C   0  0  0  0  0  0  0  0  0  0  0  0
   13.1654  -17.1736   23.0705 O   0  0  0  0  0  0  0  0  0  0  0  0
   12.4925  -15.5821   21.6201 O   0  0  0  0  0  0  0  0  0  0  0  0
  2  1  1  6
  3  2  1  0
  4  3  1  0
  5  4  2  0
  6  5  1  0
  7 12  2  0
  7  6  1  0
  8  7  1  0
  9  8  2  0
  9 10  1  0
 10 11  2  0
 11 12  1  0
 12  4  1  0
 13  2  1  0
 14 13  2  0
 15 16  1  0
 17 16  1  0
 17 19  1  0
 17 18  1  6
 19 21  1  0
 19 20  1  1
 20 13  1  0
 21 31  1  0
 22 21  2  0
 23 24  1  0
 24 25  2  0
 26 24  1  0
 26 27  1  0
 28 27  1  0
 28 29  1  0
 30 29  1  6
 30 32  1  0
 31 30  1  0
 32 34  2  0
 32 33  1  0
M  END
$$$$
