WIR.pdb
     RDKit          3D

 34 35  0  0  1  0  0  0  0  0999 V2000
    5.7185  -17.7822   24.1967 N   0  0  0  0  0  0  0  0  0  0  0  0
    6.5216  -16.5735   24.0565 C   0  0  1  0  0  0  0  0  0  0  0  0
    7.4021  -16.4199   25.2829 C   0  0  0  0  0  0  0  0  0  0  0  0
    6.8039  -15.3524   26.1161 C   0  0  0  0  0  0  0  0  0  0  0  0
    5.6957  -15.4411   26.9259 C   0  0  0  0  0  0  0  0  0  0  0  0
    5.4664  -14.2291   27.5107 N   0  0  0  0  0  0  0  0  0  0  0  0
    6.3987  -13.3640   27.0987 C   0  0  0  0  0  0  0  0  0  0  0  0
    6.6085  -12.0438   27.3946 C   0  0  0  0  0  0  0  0  0  0  0  0
    7.6913  -11.3938   26.8023 C   0  0  0  0  0  0  0  0  0  0  0  0
    8.5454  -12.0480   25.9342 C   0  0  0  0  0  0  0  0  0  0  0  0
    8.3042  -13.3977   25.6513 C   0  0  0  0  0  0  0  0  0  0  0  0
    7.2427  -14.0350   26.2317 C   0  0  0  0  0  0  0  0  0  0  0  0
    7.2465  -16.4820   22.7933 C   0  0  0  0  0  0  0  0  0  0  0  0
    7.6424  -17.5849   22.2661 O   0  0  0  0  0  0  0  0  0  0  0  0
    6.9256  -12.1689   19.5439 C   0  0  0  0  0  0  0  0  0  0  0  0
    7.0277  -13.6140   20.0168 C   0  0  0  0  0  0  0  0  0  0  0  0
    8.4420  -13.9889   20.3092 C   0  0  2  0  0  0  0  0  0  0  0  0
    9.2827  -13.8551   19.0746 C   0  0  0  0  0  0  0  0  0  0  0  0
    8.5717  -15.3267   20.9959 C   0  0  2  0  0  0  0  0  0  0  0  0
    7.5695  -15.3097   22.0698 N   0  0  0  0  0  0  0  0  0  0  0  0
    9.9235  -15.5921   21.5251 C   0  0  0  0  0  0  0  0  0  0  0  0
   10.1749  -15.4055   22.7451 O   0  0  0  0  0  0  0  0  0  0  0  0
   10.1158  -23.1532   23.5317 N   0  0  0  0  0  0  0  0  0  0  0  0
   11.3533  -22.6473   24.0433 C   0  0  0  0  0  0  0  0  0  0  0  0
   11.9526  -23.2987   24.9872 N   0  0  0  0  0  0  0  0  0  0  0  0
   11.8984  -21.4497   23.5097 N   0  0  0  0  0  0  0  0  0  0  0  0
   11.1373  -20.6081   22.6019 C   0  0  0  0  0  0  0  0  0  0  0  0
   11.9157  -19.4313   22.1312 C   0  0  0  0  0  0  0  0  0  0  0  0
   11.1570  -18.2490   21.6715 C   0  0  0  0  0  0  0  0  0  0  0  0
   11.9152  -17.0706   21.1664 C   0  0  2  0  0  0  0  0  0  0  0  0
   10.9854  -16.0596   20.7110 N   0  0  0  0  0  0  0  0  0  0  0  0
   12.9500  -17.3305   20.1759 C   0  0  0  0  0  0  0  0  0  0  0  0
   14.2635  -17.6388   20.4942 O   0  0  0  0  0  0  0  0  0  0  0  0
   12.6811  -17.2824   18.9263 O   0  0  0  0  0  0  0  0  0  0  0  0
  2  1  1  1
  3  2  1  0
  4  3  1  0
  5  4  2  0
  6  5  1  0
  7 12  2  0
  7  6  1  0
  8  7  1  0
  9  8  2  0
  9 10  1  0
 10 11  2  0
 11 12  1  0
 12  4  1  0
 13  2  1  0
 14 13  2  0
 15 16  1  0
 17 16  1  0
 17 19  1  0
 17 18  1  6
 19 21  1  0
 19 20  1  1
 20 13  1  0
 21 31  1  0
 22 21  2  0
 23 24  1  0
 24 25  2  0
 26 24  1  0
 26 27  1  0
 28 27  1  0
 28 29  1  0
 30 29  1  6
 30 32  1  0
 31 30  1  0
 32 34  2  0
 32 33  1  0
M  END
$$$$
