WIR.pdb
     RDKit          3D

 34 35  0  0  1  0  0  0  0  0999 V2000
    5.4995  -16.9496   25.5472 N   0  0  0  0  0  0  0  0  0  0  0  0
    6.6104  -16.1155   25.1042 C   0  0  1  0  0  0  0  0  0  0  0  0
    7.8346  -16.4374   25.9411 C   0  0  0  0  0  0  0  0  0  0  0  0
    8.0669  -15.2797   26.8341 C   0  0  0  0  0  0  0  0  0  0  0  0
    8.7769  -15.2570   28.0119 C   0  0  0  0  0  0  0  0  0  0  0  0
    8.7397  -13.9972   28.5365 N   0  0  0  0  0  0  0  0  0  0  0  0
    8.0253  -13.2095   27.7264 C   0  0  0  0  0  0  0  0  0  0  0  0
    7.7023  -11.8811   27.8020 C   0  0  0  0  0  0  0  0  0  0  0  0
    6.9313  -11.3253   26.7810 C   0  0  0  0  0  0  0  0  0  0  0  0
    6.4932  -12.0795   25.7083 C   0  0  0  0  0  0  0  0  0  0  0  0
    6.8396  -13.4350   25.6599 C   0  0  0  0  0  0  0  0  0  0  0  0
    7.5952  -13.9802   26.6608 C   0  0  0  0  0  0  0  0  0  0  0  0
    6.8505  -16.1565   23.6654 C   0  0  0  0  0  0  0  0  0  0  0  0
    6.5918  -17.2608   23.0615 O   0  0  0  0  0  0  0  0  0  0  0  0
    7.6123  -12.6305   18.6864 C   0  0  0  0  0  0  0  0  0  0  0  0
    7.7244  -14.0224   19.2966 C   0  0  0  0  0  0  0  0  0  0  0  0
    7.5646  -13.9777   20.7794 C   0  0  2  0  0  0  0  0  0  0  0  0
    8.4931  -12.9607   21.3733 C   0  0  0  0  0  0  0  0  0  0  0  0
    7.6518  -15.3381   21.4272 C   0  0  2  0  0  0  0  0  0  0  0  0
    7.3399  -15.1129   22.8449 N   0  0  0  0  0  0  0  0  0  0  0  0
    8.9655  -15.9897   21.2618 C   0  0  0  0  0  0  0  0  0  0  0  0
    9.8506  -15.8670   22.1495 O   0  0  0  0  0  0  0  0  0  0  0  0
   13.6324  -21.4412   18.4203 N   0  0  0  0  0  0  0  0  0  0  0  0
   12.4415  -21.9384   17.8010 C   0  0  0  0  0  0  0  0  0  0  0  0
   12.1874  -23.2058   17.8621 N   0  0  0  0  0  0  0  0  0  0  0  0
   11.5658  -21.0397   17.1365 N   0  0  0  0  0  0  0  0  0  0  0  0
   11.8638  -19.6206   17.0417 C   0  0  0  0  0  0  0  0  0  0  0  0
   11.8292  -18.9434   18.3656 C   0  0  0  0  0  0  0  0  0  0  0  0
   10.5806  -18.2504   18.7468 C   0  0  0  0  0  0  0  0  0  0  0  0
   10.5713  -17.4387   19.9956 C   0  0  2  0  0  0  0  0  0  0  0  0
    9.2949  -16.7692   20.1248 N   0  0  0  0  0  0  0  0  0  0  0  0
   11.6810  -16.5161   20.1879 C   0  0  0  0  0  0  0  0  0  0  0  0
   12.8347  -16.8312   20.8888 O   0  0  0  0  0  0  0  0  0  0  0  0
   11.6356  -15.3338   19.7017 O   0  0  0  0  0  0  0  0  0  0  0  0
  2  1  1  6
  3  2  1  0
  4  3  1  0
  5  4  2  0
  6  5  1  0
  7 12  2  0
  7  6  1  0
  8  7  1  0
  9  8  2  0
  9 10  1  0
 10 11  2  0
 11 12  1  0
 12  4  1  0
 13  2  1  0
 14 13  2  0
 15 16  1  0
 17 16  1  0
 17 19  1  0
 17 18  1  1
 19 21  1  0
 19 20  1  1
 20 13  1  0
 21 31  1  0
 22 21  2  0
 23 24  1  0
 24 25  2  0
 26 24  1  0
 26 27  1  0
 28 27  1  0
 28 29  1  0
 30 29  1  6
 30 32  1  0
 31 30  1  0
 32 34  2  0
 32 33  1  0
M  END
$$$$
