WIR.pdb
     RDKit          3D

 34 35  0  0  1  0  0  0  0  0999 V2000
    6.4963  -17.5399   25.8665 N   0  0  0  0  0  0  0  0  0  0  0  0
    7.5808  -16.7317   25.3219 C   0  0  1  0  0  0  0  0  0  0  0  0
    8.8904  -17.1767   25.9460 C   0  0  0  0  0  0  0  0  0  0  0  0
    9.0172  -16.4695   27.2404 C   0  0  0  0  0  0  0  0  0  0  0  0
    8.9019  -17.0024   28.5031 C   0  0  0  0  0  0  0  0  0  0  0  0
    9.0717  -16.0123   29.4275 N   0  0  0  0  0  0  0  0  0  0  0  0
    9.2941  -14.8573   28.7921 C   0  0  0  0  0  0  0  0  0  0  0  0
    9.5266  -13.5918   29.2602 C   0  0  0  0  0  0  0  0  0  0  0  0
    9.7338  -12.5686   28.3351 C   0  0  0  0  0  0  0  0  0  0  0  0
    9.7097  -12.8043   26.9731 C   0  0  0  0  0  0  0  0  0  0  0  0
    9.4691  -14.1087   26.5257 C   0  0  0  0  0  0  0  0  0  0  0  0
    9.2657  -15.1120   27.4324 C   0  0  0  0  0  0  0  0  0  0  0  0
    7.6094  -16.6764   23.8639 C   0  0  0  0  0  0  0  0  0  0  0  0
    7.2723  -17.7435   23.2324 O   0  0  0  0  0  0  0  0  0  0  0  0
    6.9892  -12.3257   20.6151 C   0  0  0  0  0  0  0  0  0  0  0  0
    6.9842  -13.7418   21.1779 C   0  0  0  0  0  0  0  0  0  0  0  0
    8.3227  -14.3855   21.0354 C   0  0  2  0  0  0  0  0  0  0  0  0
    8.7724  -14.3422   19.6055 C   0  0  0  0  0  0  0  0  0  0  0  0
    8.3899  -15.7593   21.6568 C   0  0  2  0  0  0  0  0  0  0  0  0
    7.9681  -15.5747   23.0518 N   0  0  0  0  0  0  0  0  0  0  0  0
    9.7258  -16.3811   21.5761 C   0  0  0  0  0  0  0  0  0  0  0  0
   10.6423  -16.0193   22.3607 O   0  0  0  0  0  0  0  0  0  0  0  0
   12.0621  -17.1343   14.9765 N   0  0  0  0  0  0  0  0  0  0  0  0
   12.1676  -18.5454   15.1933 C   0  0  0  0  0  0  0  0  0  0  0  0
   13.2563  -19.1518   14.8449 N   0  0  0  0  0  0  0  0  0  0  0  0
   11.0850  -19.2496   15.7833 N   0  0  0  0  0  0  0  0  0  0  0  0
   11.1698  -19.7780   17.1344 C   0  0  0  0  0  0  0  0  0  0  0  0
   11.1953  -18.7043   18.1634 C   0  0  0  0  0  0  0  0  0  0  0  0
   11.3313  -19.1148   19.5768 C   0  0  0  0  0  0  0  0  0  0  0  0
   11.3279  -18.0586   20.6269 C   0  0  2  0  0  0  0  0  0  0  0  0
   10.0428  -17.3932   20.6358 N   0  0  0  0  0  0  0  0  0  0  0  0
   12.4251  -17.1021   20.6005 C   0  0  0  0  0  0  0  0  0  0  0  0
   12.2682  -15.7546   20.3157 O   0  0  0  0  0  0  0  0  0  0  0  0
   13.6225  -17.4789   20.8466 O   0  0  0  0  0  0  0  0  0  0  0  0
  2  1  1  6
  3  2  1  0
  4  3  1  0
  5  4  2  0
  6  5  1  0
  7 12  2  0
  7  6  1  0
  8  7  1  0
  9  8  2  0
  9 10  1  0
 10 11  2  0
 11 12  1  0
 12  4  1  0
 13  2  1  0
 14 13  2  0
 15 16  1  0
 17 16  1  0
 17 19  1  0
 17 18  1  6
 19 21  1  0
 19 20  1  1
 20 13  1  0
 21 31  1  0
 22 21  2  0
 23 24  1  0
 24 25  2  0
 26 24  1  0
 26 27  1  0
 28 27  1  0
 28 29  1  0
 30 29  1  6
 30 32  1  0
 31 30  1  0
 32 34  2  0
 32 33  1  0
M  END
$$$$
