WIR.pdb
     RDKit          3D

 34 35  0  0  1  0  0  0  0  0999 V2000
    5.8495  -17.7037   23.8208 N   0  0  0  0  0  0  0  0  0  0  0  0
    6.6713  -16.5085   23.6729 C   0  0  1  0  0  0  0  0  0  0  0  0
    7.6157  -16.4084   24.8564 C   0  0  0  0  0  0  0  0  0  0  0  0
    7.0771  -15.3621   25.7547 C   0  0  0  0  0  0  0  0  0  0  0  0
    5.9244  -15.4104   26.5035 C   0  0  0  0  0  0  0  0  0  0  0  0
    5.7792  -14.2358   27.1837 N   0  0  0  0  0  0  0  0  0  0  0  0
    6.8087  -13.4342   26.8926 C   0  0  0  0  0  0  0  0  0  0  0  0
    7.1254  -12.1708   27.3145 C   0  0  0  0  0  0  0  0  0  0  0  0
    8.2940  -11.5820   26.8313 C   0  0  0  0  0  0  0  0  0  0  0  0
    9.1276  -12.2407   25.9467 C   0  0  0  0  0  0  0  0  0  0  0  0
    8.7762  -13.5313   25.5336 C   0  0  0  0  0  0  0  0  0  0  0  0
    7.6306  -14.1086   26.0070 C   0  0  0  0  0  0  0  0  0  0  0  0
    7.3333  -16.3962   22.3772 C   0  0  0  0  0  0  0  0  0  0  0  0
    7.5537  -17.4886   21.7375 O   0  0  0  0  0  0  0  0  0  0  0  0
    7.1295  -11.7623   20.0047 C   0  0  0  0  0  0  0  0  0  0  0  0
    7.1402  -13.2657   19.7560 C   0  0  0  0  0  0  0  0  0  0  0  0
    8.5044  -13.8371   19.9530 C   0  0  2  0  0  0  0  0  0  0  0  0
    9.3370  -13.6351   18.7222 C   0  0  0  0  0  0  0  0  0  0  0  0
    8.4851  -15.2614   20.4519 C   0  0  2  0  0  0  0  0  0  0  0  0
    7.7668  -15.2137   21.7324 N   0  0  0  0  0  0  0  0  0  0  0  0
    9.8284  -15.8519   20.6097 C   0  0  0  0  0  0  0  0  0  0  0  0
   10.4777  -15.6756   21.6745 O   0  0  0  0  0  0  0  0  0  0  0  0
   12.8679  -16.0433   14.4343 N   0  0  0  0  0  0  0  0  0  0  0  0
   11.9990  -17.1726   14.2972 C   0  0  0  0  0  0  0  0  0  0  0  0
   11.1336  -17.1824   13.3351 N   0  0  0  0  0  0  0  0  0  0  0  0
   12.1013  -18.2545   15.2111 N   0  0  0  0  0  0  0  0  0  0  0  0
   13.0976  -18.2625   16.2690 C   0  0  0  0  0  0  0  0  0  0  0  0
   12.7134  -17.3990   17.4175 C   0  0  0  0  0  0  0  0  0  0  0  0
   12.0865  -18.0534   18.5852 C   0  0  0  0  0  0  0  0  0  0  0  0
   11.7553  -17.2194   19.7740 C   0  0  2  0  0  0  0  0  0  0  0  0
   10.4456  -16.6296   19.5981 N   0  0  0  0  0  0  0  0  0  0  0  0
   12.7404  -16.2248   20.1740 C   0  0  0  0  0  0  0  0  0  0  0  0
   13.7939  -16.4848   21.0365 O   0  0  0  0  0  0  0  0  0  0  0  0
   12.6716  -15.0266   19.7313 O   0  0  0  0  0  0  0  0  0  0  0  0
  2  1  1  6
  3  2  1  0
  4  3  1  0
  5  4  2  0
  6  5  1  0
  7 12  2  0
  7  6  1  0
  8  7  1  0
  9  8  2  0
  9 10  1  0
 10 11  2  0
 11 12  1  0
 12  4  1  0
 13  2  1  0
 14 13  2  0
 15 16  1  0
 17 16  1  0
 17 19  1  0
 17 18  1  6
 19 21  1  0
 19 20  1  1
 20 13  1  0
 21 31  1  0
 22 21  2  0
 23 24  1  0
 24 25  2  0
 26 24  1  0
 26 27  1  0
 28 27  1  0
 28 29  1  0
 30 29  1  6
 30 32  1  0
 31 30  1  0
 32 34  2  0
 32 33  1  0
M  END
$$$$
