WIR.pdb
     RDKit          3D

 34 35  0  0  1  0  0  0  0  0999 V2000
    6.4574  -17.9700   22.3364 N   0  0  0  0  0  0  0  0  0  0  0  0
    7.1375  -16.8606   21.6787 C   0  0  1  0  0  0  0  0  0  0  0  0
    6.2342  -16.2988   20.5965 C   0  0  0  0  0  0  0  0  0  0  0  0
    7.0777  -15.4522   19.7228 C   0  0  0  0  0  0  0  0  0  0  0  0
    7.6243  -15.7851   18.5053 C   0  0  0  0  0  0  0  0  0  0  0  0
    8.3482  -14.7288   18.0322 N   0  0  0  0  0  0  0  0  0  0  0  0
    8.2804  -13.7255   18.9131 C   0  0  0  0  0  0  0  0  0  0  0  0
    8.8219  -12.4680   18.9028 C   0  0  0  0  0  0  0  0  0  0  0  0
    8.5651  -11.6249   19.9840 C   0  0  0  0  0  0  0  0  0  0  0  0
    7.7848  -12.0288   21.0514 C   0  0  0  0  0  0  0  0  0  0  0  0
    7.2458  -13.3206   21.0327 C   0  0  0  0  0  0  0  0  0  0  0  0
    7.4974  -14.1474   19.9730 C   0  0  0  0  0  0  0  0  0  0  0  0
    7.6588  -15.8524   22.5958 C   0  0  0  0  0  0  0  0  0  0  0  0
    8.4986  -15.0059   22.1170 O   0  0  0  0  0  0  0  0  0  0  0  0
    7.4764  -11.8741   26.9574 C   0  0  0  0  0  0  0  0  0  0  0  0
    8.2972  -13.0373   26.4138 C   0  0  0  0  0  0  0  0  0  0  0  0
    7.5191  -13.8295   25.4172 C   0  0  2  0  0  0  0  0  0  0  0  0
    6.1608  -14.1600   25.9600 C   0  0  0  0  0  0  0  0  0  0  0  0
    8.2744  -15.0247   24.8888 C   0  0  2  0  0  0  0  0  0  0  0  0
    7.3464  -15.6927   23.9665 N   0  0  0  0  0  0  0  0  0  0  0  0
    8.7403  -15.9449   25.9442 C   0  0  0  0  0  0  0  0  0  0  0  0
    7.9145  -16.4726   26.7354 O   0  0  0  0  0  0  0  0  0  0  0  0
   14.0302  -21.5481   25.1269 N   0  0  0  0  0  0  0  0  0  0  0  0
   13.3263  -21.4911   23.8818 C   0  0  0  0  0  0  0  0  0  0  0  0
   13.9433  -21.8375   22.7984 N   0  0  0  0  0  0  0  0  0  0  0  0
   11.9736  -21.0600   23.8571 N   0  0  0  0  0  0  0  0  0  0  0  0
   11.6064  -19.6939   24.1894 C   0  0  0  0  0  0  0  0  0  0  0  0
   11.4957  -19.4764   25.6566 C   0  0  0  0  0  0  0  0  0  0  0  0
   11.6666  -18.0966   26.1582 C   0  0  0  0  0  0  0  0  0  0  0  0
   10.5234  -17.4491   26.8601 C   0  0  2  0  0  0  0  0  0  0  0  0
   10.1068  -16.2769   26.1210 N   0  0  0  0  0  0  0  0  0  0  0  0
   10.7029  -17.1538   28.2743 C   0  0  0  0  0  0  0  0  0  0  0  0
   10.7214  -15.8708   28.7990 O   0  0  0  0  0  0  0  0  0  0  0  0
   10.8574  -18.0995   29.1217 O   0  0  0  0  0  0  0  0  0  0  0  0
  2  1  1  1
  3  2  1  0
  4  3  1  0
  5  4  2  0
  6  5  1  0
  7 12  2  0
  7  6  1  0
  8  7  1  0
  9  8  2  0
  9 10  1  0
 10 11  2  0
 11 12  1  0
 12  4  1  0
 13  2  1  0
 14 13  2  0
 15 16  1  0
 17 16  1  0
 17 19  1  0
 17 18  1  1
 19 21  1  0
 19 20  1  6
 20 13  1  0
 21 31  1  0
 22 21  2  0
 23 24  1  0
 24 25  2  0
 26 24  1  0
 26 27  1  0
 28 27  1  0
 28 29  1  0
 30 29  1  6
 30 32  1  0
 31 30  1  0
 32 34  2  0
 32 33  1  0
M  END
$$$$
