WIR.pdb
     RDKit          3D

 34 35  0  0  1  0  0  0  0  0999 V2000
    5.7537  -17.7841   24.3144 N   0  0  0  0  0  0  0  0  0  0  0  0
    6.5342  -16.5581   24.1974 C   0  0  1  0  0  0  0  0  0  0  0  0
    7.2676  -16.3125   25.5029 C   0  0  0  0  0  0  0  0  0  0  0  0
    6.6111  -15.1595   26.1597 C   0  0  0  0  0  0  0  0  0  0  0  0
    5.3235  -15.0869   26.6378 C   0  0  0  0  0  0  0  0  0  0  0  0
    5.1050  -13.8436   27.1574 N   0  0  0  0  0  0  0  0  0  0  0  0
    6.2186  -13.1155   27.0266 C   0  0  0  0  0  0  0  0  0  0  0  0
    6.5111  -11.8279   27.3887 C   0  0  0  0  0  0  0  0  0  0  0  0
    7.7889  -11.3364   27.1217 C   0  0  0  0  0  0  0  0  0  0  0  0
    8.7530  -12.1137   26.5071 C   0  0  0  0  0  0  0  0  0  0  0  0
    8.4231  -13.4261   26.1486 C   0  0  0  0  0  0  0  0  0  0  0  0
    7.1704  -13.9081   26.4101 C   0  0  0  0  0  0  0  0  0  0  0  0
    7.3928  -16.5078   23.0185 C   0  0  0  0  0  0  0  0  0  0  0  0
    7.9856  -17.5967   22.6810 O   0  0  0  0  0  0  0  0  0  0  0  0
    7.3044  -12.0098   19.9905 C   0  0  0  0  0  0  0  0  0  0  0  0
    7.2190  -13.5169   20.1992 C   0  0  0  0  0  0  0  0  0  0  0  0
    8.5699  -14.1095   20.4232 C   0  0  2  0  0  0  0  0  0  0  0  0
    9.3982  -14.0050   19.1774 C   0  0  0  0  0  0  0  0  0  0  0  0
    8.5187  -15.4994   21.0093 C   0  0  2  0  0  0  0  0  0  0  0  0
    7.6540  -15.3897   22.1917 N   0  0  0  0  0  0  0  0  0  0  0  0
    9.8449  -16.0431   21.3607 C   0  0  0  0  0  0  0  0  0  0  0  0
   10.4407  -15.6427   22.3957 O   0  0  0  0  0  0  0  0  0  0  0  0
   15.6098  -22.1241   22.2871 N   0  0  0  0  0  0  0  0  0  0  0  0
   14.3565  -21.7983   22.8970 C   0  0  0  0  0  0  0  0  0  0  0  0
   14.3481  -21.3680   24.1174 N   0  0  0  0  0  0  0  0  0  0  0  0
   13.1535  -21.9505   22.1581 N   0  0  0  0  0  0  0  0  0  0  0  0
   12.9482  -21.2652   20.8932 C   0  0  0  0  0  0  0  0  0  0  0  0
   13.0172  -19.7858   21.0310 C   0  0  0  0  0  0  0  0  0  0  0  0
   11.7474  -19.0326   20.9614 C   0  0  0  0  0  0  0  0  0  0  0  0
   11.8048  -17.5446   20.9298 C   0  0  2  0  0  0  0  0  0  0  0  0
   10.5039  -17.0204   20.5735 N   0  0  0  0  0  0  0  0  0  0  0  0
   12.8611  -16.9447   20.1273 C   0  0  0  0  0  0  0  0  0  0  0  0
   14.1875  -16.8752   20.5242 O   0  0  0  0  0  0  0  0  0  0  0  0
   12.5998  -16.4378   18.9823 O   0  0  0  0  0  0  0  0  0  0  0  0
  2  1  1  1
  3  2  1  0
  4  3  1  0
  5  4  2  0
  6  5  1  0
  7 12  2  0
  7  6  1  0
  8  7  1  0
  9  8  2  0
  9 10  1  0
 10 11  2  0
 11 12  1  0
 12  4  1  0
 13  2  1  0
 14 13  2  0
 15 16  1  0
 17 16  1  0
 17 19  1  0
 17 18  1  6
 19 21  1  0
 19 20  1  1
 20 13  1  0
 21 31  1  0
 22 21  2  0
 23 24  1  0
 24 25  2  0
 26 24  1  0
 26 27  1  0
 28 27  1  0
 28 29  1  0
 30 29  1  6
 30 32  1  0
 31 30  1  0
 32 34  2  0
 32 33  1  0
M  END
$$$$
