WIR.pdb
     RDKit          3D

 34 35  0  0  1  0  0  0  0  0999 V2000
    6.7420  -17.1302   25.2149 N   0  0  0  0  0  0  0  0  0  0  0  0
    7.3780  -15.9917   24.5628 C   0  0  1  0  0  0  0  0  0  0  0  0
    8.6881  -15.6879   25.2657 C   0  0  0  0  0  0  0  0  0  0  0  0
    8.3820  -14.7477   26.3675 C   0  0  0  0  0  0  0  0  0  0  0  0
    8.5659  -14.9461   27.7160 C   0  0  0  0  0  0  0  0  0  0  0  0
    8.1432  -13.8406   28.3962 N   0  0  0  0  0  0  0  0  0  0  0  0
    7.6933  -12.9364   27.5201 C   0  0  0  0  0  0  0  0  0  0  0  0
    7.1753  -11.6810   27.6939 C   0  0  0  0  0  0  0  0  0  0  0  0
    6.7901  -10.9587   26.5644 C   0  0  0  0  0  0  0  0  0  0  0  0
    6.9198  -11.4788   25.2900 C   0  0  0  0  0  0  0  0  0  0  0  0
    7.4525  -12.7652   25.1453 C   0  0  0  0  0  0  0  0  0  0  0  0
    7.8299  -13.4736   26.2524 C   0  0  0  0  0  0  0  0  0  0  0  0
    7.5012  -16.1259   23.1149 C   0  0  0  0  0  0  0  0  0  0  0  0
    7.0421  -17.2037   22.5871 O   0  0  0  0  0  0  0  0  0  0  0  0
    7.6743  -11.7381   20.0572 C   0  0  0  0  0  0  0  0  0  0  0  0
    7.4357  -13.0947   20.7091 C   0  0  0  0  0  0  0  0  0  0  0  0
    8.3033  -14.1464   20.1029 C   0  0  2  0  0  0  0  0  0  0  0  0
    8.1129  -14.1860   18.6159 C   0  0  0  0  0  0  0  0  0  0  0  0
    8.1631  -15.4911   20.7739 C   0  0  2  0  0  0  0  0  0  0  0  0
    8.0726  -15.1995   22.2108 N   0  0  0  0  0  0  0  0  0  0  0  0
    9.2739  -16.4176   20.4814 C   0  0  0  0  0  0  0  0  0  0  0  0
    9.0349  -17.5935   20.0983 O   0  0  0  0  0  0  0  0  0  0  0  0
   16.5286  -12.8958   17.1068 N   0  0  0  0  0  0  0  0  0  0  0  0
   16.5665  -13.8973   18.1289 C   0  0  0  0  0  0  0  0  0  0  0  0
   17.4518  -13.7994   19.0676 N   0  0  0  0  0  0  0  0  0  0  0  0
   15.6388  -14.9718   18.0962 N   0  0  0  0  0  0  0  0  0  0  0  0
   14.2201  -14.7565   18.3255 C   0  0  0  0  0  0  0  0  0  0  0  0
   13.6896  -15.5977   19.4316 C   0  0  0  0  0  0  0  0  0  0  0  0
   12.4970  -16.4243   19.1505 C   0  0  0  0  0  0  0  0  0  0  0  0
   11.7147  -16.9571   20.3006 C   0  0  2  0  0  0  0  0  0  0  0  0
   10.6352  -16.0450   20.6119 N   0  0  0  0  0  0  0  0  0  0  0  0
   12.4658  -17.3234   21.4927 C   0  0  0  0  0  0  0  0  0  0  0  0
   13.2999  -18.4278   21.5709 O   0  0  0  0  0  0  0  0  0  0  0  0
   12.3836  -16.6168   22.5559 O   0  0  0  0  0  0  0  0  0  0  0  0
  2  1  1  1
  3  2  1  0
  4  3  1  0
  5  4  2  0
  6  5  1  0
  7 12  2  0
  7  6  1  0
  8  7  1  0
  9  8  2  0
  9 10  1  0
 10 11  2  0
 11 12  1  0
 12  4  1  0
 13  2  1  0
 14 13  2  0
 15 16  1  0
 17 16  1  0
 17 19  1  0
 17 18  1  6
 19 21  1  0
 19 20  1  1
 20 13  1  0
 21 31  1  0
 22 21  2  0
 23 24  1  0
 24 25  2  0
 26 24  1  0
 26 27  1  0
 28 27  1  0
 28 29  1  0
 30 29  1  6
 30 32  1  0
 31 30  1  0
 32 34  2  0
 32 33  1  0
M  END
$$$$
