WIR.pdb
     RDKit          3D

 34 35  0  0  1  0  0  0  0  0999 V2000
    9.9407  -15.3509   21.4088 N   0  0  0  0  0  0  0  0  0  0  0  0
    8.6742  -15.1674   22.1074 C   0  0  1  0  0  0  0  0  0  0  0  0
    7.6569  -16.1468   21.5519 C   0  0  0  0  0  0  0  0  0  0  0  0
    7.5395  -15.8752   20.1013 C   0  0  0  0  0  0  0  0  0  0  0  0
    7.3306  -16.7848   19.0910 C   0  0  0  0  0  0  0  0  0  0  0  0
    7.2989  -16.1296   17.8939 N   0  0  0  0  0  0  0  0  0  0  0  0
    7.4811  -14.8226   18.1083 C   0  0  0  0  0  0  0  0  0  0  0  0
    7.5268  -13.7577   17.2490 C   0  0  0  0  0  0  0  0  0  0  0  0
    7.7296  -12.4837   17.7796 C   0  0  0  0  0  0  0  0  0  0  0  0
    7.8830  -12.2781   19.1381 C   0  0  0  0  0  0  0  0  0  0  0  0
    7.8317  -13.3872   19.9908 C   0  0  0  0  0  0  0  0  0  0  0  0
    7.6332  -14.6362   19.4709 C   0  0  0  0  0  0  0  0  0  0  0  0
    8.7862  -15.1930   23.5621 C   0  0  0  0  0  0  0  0  0  0  0  0
    9.7368  -15.8980   24.0623 O   0  0  0  0  0  0  0  0  0  0  0  0
    6.0246  -11.4165   26.2756 C   0  0  0  0  0  0  0  0  0  0  0  0
    7.1881  -12.2561   25.7619 C   0  0  0  0  0  0  0  0  0  0  0  0
    7.3340  -13.5164   26.5472 C   0  0  2  0  0  0  0  0  0  0  0  0
    7.6195  -13.2042   27.9859 C   0  0  0  0  0  0  0  0  0  0  0  0
    8.3048  -14.4924   25.9284 C   0  0  2  0  0  0  0  0  0  0  0  0
    7.9632  -14.5258   24.5000 N   0  0  0  0  0  0  0  0  0  0  0  0
    8.2515  -15.8405   26.5264 C   0  0  0  0  0  0  0  0  0  0  0  0
    7.3932  -16.6748   26.1344 O   0  0  0  0  0  0  0  0  0  0  0  0
   12.3052  -20.2149   21.9113 N   0  0  0  0  0  0  0  0  0  0  0  0
   10.9912  -19.8026   22.3018 C   0  0  0  0  0  0  0  0  0  0  0  0
    9.9943  -20.0695   21.5211 N   0  0  0  0  0  0  0  0  0  0  0  0
   10.8054  -19.1144   23.5298 N   0  0  0  0  0  0  0  0  0  0  0  0
   11.7490  -19.2509   24.6265 C   0  0  0  0  0  0  0  0  0  0  0  0
   11.1073  -19.0606   25.9548 C   0  0  0  0  0  0  0  0  0  0  0  0
   10.3786  -17.7959   26.1873 C   0  0  0  0  0  0  0  0  0  0  0  0
    9.7751  -17.5598   27.5284 C   0  0  2  0  0  0  0  0  0  0  0  0
    9.1401  -16.2596   27.5480 N   0  0  0  0  0  0  0  0  0  0  0  0
   10.6430  -17.7486   28.6819 C   0  0  0  0  0  0  0  0  0  0  0  0
   11.0078  -16.7301   29.5486 O   0  0  0  0  0  0  0  0  0  0  0  0
   11.1228  -18.9029   28.9529 O   0  0  0  0  0  0  0  0  0  0  0  0
  2  1  1  6
  3  2  1  0
  4  3  1  0
  5  4  2  0
  6  5  1  0
  7 12  2  0
  7  6  1  0
  8  7  1  0
  9  8  2  0
  9 10  1  0
 10 11  2  0
 11 12  1  0
 12  4  1  0
 13  2  1  0
 14 13  2  0
 15 16  1  0
 17 16  1  0
 17 19  1  0
 17 18  1  1
 19 21  1  0
 19 20  1  6
 20 13  1  0
 21 31  1  0
 22 21  2  0
 23 24  1  0
 24 25  2  0
 26 24  1  0
 26 27  1  0
 28 27  1  0
 28 29  1  0
 30 29  1  6
 30 32  1  0
 31 30  1  0
 32 34  2  0
 32 33  1  0
M  END
$$$$
