WIR.pdb
     RDKit          3D

 34 35  0  0  1  0  0  0  0  0999 V2000
    6.7820  -19.4774   26.8695 N   0  0  0  0  0  0  0  0  0  0  0  0
    7.6361  -18.3010   26.9810 C   0  0  1  0  0  0  0  0  0  0  0  0
    9.0670  -18.7493   27.2139 C   0  0  0  0  0  0  0  0  0  0  0  0
    9.5206  -18.1175   28.4735 C   0  0  0  0  0  0  0  0  0  0  0  0
    9.6475  -18.7064   29.7100 C   0  0  0  0  0  0  0  0  0  0  0  0
   10.0816  -17.7762   30.6100 N   0  0  0  0  0  0  0  0  0  0  0  0
   10.2378  -16.6052   29.9842 C   0  0  0  0  0  0  0  0  0  0  0  0
   10.6520  -15.3808   30.4358 C   0  0  0  0  0  0  0  0  0  0  0  0
   10.7214  -14.3255   29.5263 C   0  0  0  0  0  0  0  0  0  0  0  0
   10.3850  -14.4898   28.1954 C   0  0  0  0  0  0  0  0  0  0  0  0
    9.9648  -15.7536   27.7644 C   0  0  0  0  0  0  0  0  0  0  0  0
    9.8964  -16.7883   28.6559 C   0  0  0  0  0  0  0  0  0  0  0  0
    7.4858  -17.3487   25.8855 C   0  0  0  0  0  0  0  0  0  0  0  0
    7.3430  -17.8348   24.7047 O   0  0  0  0  0  0  0  0  0  0  0  0
    6.3278  -11.4000   24.6950 C   0  0  0  0  0  0  0  0  0  0  0  0
    6.7708  -12.7531   24.1518 C   0  0  0  0  0  0  0  0  0  0  0  0
    7.0112  -13.7272   25.2562 C   0  0  2  0  0  0  0  0  0  0  0  0
    7.9650  -13.1519   26.2604 C   0  0  0  0  0  0  0  0  0  0  0  0
    7.3964  -15.1006   24.7631 C   0  0  2  0  0  0  0  0  0  0  0  0
    7.4782  -15.9363   25.9685 N   0  0  0  0  0  0  0  0  0  0  0  0
    8.6622  -15.1242   24.0048 C   0  0  0  0  0  0  0  0  0  0  0  0
    9.7654  -15.1413   24.6125 O   0  0  0  0  0  0  0  0  0  0  0  0
    7.8158  -19.7909   17.1564 N   0  0  0  0  0  0  0  0  0  0  0  0
    7.2102  -19.8458   18.4523 C   0  0  0  0  0  0  0  0  0  0  0  0
    6.1283  -20.5384   18.6080 N   0  0  0  0  0  0  0  0  0  0  0  0
    7.8029  -19.1459   19.5363 N   0  0  0  0  0  0  0  0  0  0  0  0
    9.0796  -18.4666   19.3937 C   0  0  0  0  0  0  0  0  0  0  0  0
    9.4894  -17.7608   20.6372 C   0  0  0  0  0  0  0  0  0  0  0  0
    9.4578  -16.2832   20.6269 C   0  0  0  0  0  0  0  0  0  0  0  0
    9.8785  -15.5549   21.8562 C   0  0  2  0  0  0  0  0  0  0  0  0
    8.7051  -15.1287   22.5881 N   0  0  0  0  0  0  0  0  0  0  0  0
   10.8256  -14.4632   21.6815 C   0  0  0  0  0  0  0  0  0  0  0  0
   12.1958  -14.6402   21.5688 O   0  0  0  0  0  0  0  0  0  0  0  0
   10.4185  -13.2519   21.6237 O   0  0  0  0  0  0  0  0  0  0  0  0
  2  1  1  6
  3  2  1  0
  4  3  1  0
  5  4  2  0
  6  5  1  0
  7 12  2  0
  7  6  1  0
  8  7  1  0
  9  8  2  0
  9 10  1  0
 10 11  2  0
 11 12  1  0
 12  4  1  0
 13  2  1  0
 14 13  2  0
 15 16  1  0
 17 16  1  0
 17 19  1  0
 17 18  1  1
 19 21  1  0
 19 20  1  1
 20 13  1  0
 21 31  1  0
 22 21  2  0
 23 24  1  0
 24 25  2  0
 26 24  1  0
 26 27  1  0
 28 27  1  0
 28 29  1  0
 30 29  1  6
 30 32  1  0
 31 30  1  0
 32 34  2  0
 32 33  1  0
M  END
$$$$
