WIR.pdb
     RDKit          3D

 34 35  0  0  1  0  0  0  0  0999 V2000
    6.8184  -16.1287   20.2464 N   0  0  0  0  0  0  0  0  0  0  0  0
    6.6066  -16.4033   21.6625 C   0  0  1  0  0  0  0  0  0  0  0  0
    6.8358  -17.8813   21.9191 C   0  0  0  0  0  0  0  0  0  0  0  0
    5.7889  -18.6186   21.1762 C   0  0  0  0  0  0  0  0  0  0  0  0
    5.8537  -19.0997   19.8893 C   0  0  0  0  0  0  0  0  0  0  0  0
    4.6722  -19.7071   19.5750 N   0  0  0  0  0  0  0  0  0  0  0  0
    3.8501  -19.6299   20.6264 C   0  0  0  0  0  0  0  0  0  0  0  0
    2.5726  -20.0838   20.8172 C   0  0  0  0  0  0  0  0  0  0  0  0
    1.9628  -19.8538   22.0506 C   0  0  0  0  0  0  0  0  0  0  0  0
    2.6147  -19.1857   23.0704 C   0  0  0  0  0  0  0  0  0  0  0  0
    3.9201  -18.7336   22.8443 C   0  0  0  0  0  0  0  0  0  0  0  0
    4.5181  -18.9587   21.6353 C   0  0  0  0  0  0  0  0  0  0  0  0
    7.3520  -15.5253   22.5585 C   0  0  0  0  0  0  0  0  0  0  0  0
    8.6171  -15.4237   22.3575 O   0  0  0  0  0  0  0  0  0  0  0  0
    6.9244  -11.4642   27.1922 C   0  0  0  0  0  0  0  0  0  0  0  0
    7.7471  -12.5363   26.4878 C   0  0  0  0  0  0  0  0  0  0  0  0
    6.9453  -13.2319   25.4392 C   0  0  2  0  0  0  0  0  0  0  0  0
    5.6211  -13.6629   25.9958 C   0  0  0  0  0  0  0  0  0  0  0  0
    7.7058  -14.3353   24.7449 C   0  0  2  0  0  0  0  0  0  0  0  0
    6.8425  -14.7623   23.6357 N   0  0  0  0  0  0  0  0  0  0  0  0
    8.0460  -15.4670   25.6288 C   0  0  0  0  0  0  0  0  0  0  0  0
    7.3070  -16.4863   25.6671 O   0  0  0  0  0  0  0  0  0  0  0  0
   12.3368  -20.1473   22.9089 N   0  0  0  0  0  0  0  0  0  0  0  0
   13.5894  -20.0056   23.5871 C   0  0  0  0  0  0  0  0  0  0  0  0
   14.4052  -21.0098   23.6098 N   0  0  0  0  0  0  0  0  0  0  0  0
   13.9132  -18.7751   24.2174 N   0  0  0  0  0  0  0  0  0  0  0  0
   12.9927  -17.6507   24.2047 C   0  0  0  0  0  0  0  0  0  0  0  0
   12.0091  -17.7096   25.3189 C   0  0  0  0  0  0  0  0  0  0  0  0
   11.0131  -16.6213   25.4099 C   0  0  0  0  0  0  0  0  0  0  0  0
   10.0680  -16.6175   26.5611 C   0  0  2  0  0  0  0  0  0  0  0  0
    9.1930  -15.4693   26.4615 N   0  0  0  0  0  0  0  0  0  0  0  0
   10.6510  -16.7319   27.8902 C   0  0  0  0  0  0  0  0  0  0  0  0
   11.2148  -17.8961   28.3885 O   0  0  0  0  0  0  0  0  0  0  0  0
   10.6668  -15.7275   28.6821 O   0  0  0  0  0  0  0  0  0  0  0  0
  2  1  1  6
  3  2  1  0
  4  3  1  0
  5  4  2  0
  6  5  1  0
  7 12  2  0
  7  6  1  0
  8  7  1  0
  9  8  2  0
  9 10  1  0
 10 11  2  0
 11 12  1  0
 12  4  1  0
 13  2  1  0
 14 13  2  0
 15 16  1  0
 17 16  1  0
 17 19  1  0
 17 18  1  1
 19 21  1  0
 19 20  1  6
 20 13  1  0
 21 31  1  0
 22 21  2  0
 23 24  1  0
 24 25  2  0
 26 24  1  0
 26 27  1  0
 28 27  1  0
 28 29  1  0
 30 29  1  6
 30 32  1  0
 31 30  1  0
 32 34  2  0
 32 33  1  0
M  END
$$$$
