WIR.pdb
     RDKit          3D

 34 35  0  0  1  0  0  0  0  0999 V2000
    5.8290  -17.5054   24.6440 N   0  0  0  0  0  0  0  0  0  0  0  0
    6.8574  -16.4975   24.4152 C   0  0  1  0  0  0  0  0  0  0  0  0
    7.9822  -16.7036   25.4128 C   0  0  0  0  0  0  0  0  0  0  0  0
    7.8089  -15.6905   26.4782 C   0  0  0  0  0  0  0  0  0  0  0  0
    7.9001  -15.8777   27.8378 C   0  0  0  0  0  0  0  0  0  0  0  0
    7.6590  -14.6938   28.4731 N   0  0  0  0  0  0  0  0  0  0  0  0
    7.4161  -13.7503   27.5576 C   0  0  0  0  0  0  0  0  0  0  0  0
    7.1287  -12.4172   27.6796 C   0  0  0  0  0  0  0  0  0  0  0  0
    6.9263  -11.6719   26.5180 C   0  0  0  0  0  0  0  0  0  0  0  0
    7.0095  -12.2454   25.2627 C   0  0  0  0  0  0  0  0  0  0  0  0
    7.3045  -13.6108   25.1711 C   0  0  0  0  0  0  0  0  0  0  0  0
    7.5028  -14.3417   26.3097 C   0  0  0  0  0  0  0  0  0  0  0  0
    7.3056  -16.4064   23.0295 C   0  0  0  0  0  0  0  0  0  0  0  0
    7.2276  -17.4743   22.3191 O   0  0  0  0  0  0  0  0  0  0  0  0
    7.2010  -11.7770   20.2231 C   0  0  0  0  0  0  0  0  0  0  0  0
    7.0774  -13.2586   20.5576 C   0  0  0  0  0  0  0  0  0  0  0  0
    8.4032  -13.9402   20.4939 C   0  0  2  0  0  0  0  0  0  0  0  0
    8.9952  -13.8018   19.1230 C   0  0  0  0  0  0  0  0  0  0  0  0
    8.3658  -15.3602   21.0039 C   0  0  2  0  0  0  0  0  0  0  0  0
    7.8220  -15.2687   22.3655 N   0  0  0  0  0  0  0  0  0  0  0  0
    9.6818  -16.0280   20.9934 C   0  0  0  0  0  0  0  0  0  0  0  0
   10.5559  -15.7206   21.8466 O   0  0  0  0  0  0  0  0  0  0  0  0
   10.7647  -15.9709   15.4558 N   0  0  0  0  0  0  0  0  0  0  0  0
    9.4724  -16.2971   15.9780 C   0  0  0  0  0  0  0  0  0  0  0  0
    8.5441  -15.3958   15.9575 N   0  0  0  0  0  0  0  0  0  0  0  0
    9.2328  -17.5940   16.5041 N   0  0  0  0  0  0  0  0  0  0  0  0
   10.2742  -18.6072   16.5288 C   0  0  0  0  0  0  0  0  0  0  0  0
   10.7089  -18.9411   17.9115 C   0  0  0  0  0  0  0  0  0  0  0  0
   11.6436  -18.0101   18.5781 C   0  0  0  0  0  0  0  0  0  0  0  0
   11.3544  -17.5947   19.9789 C   0  0  2  0  0  0  0  0  0  0  0  0
   10.0255  -17.0261   20.0475 N   0  0  0  0  0  0  0  0  0  0  0  0
   12.3370  -16.7373   20.6262 C   0  0  0  0  0  0  0  0  0  0  0  0
   12.9113  -15.6291   20.0232 O   0  0  0  0  0  0  0  0  0  0  0  0
   12.7258  -16.9801   21.8204 O   0  0  0  0  0  0  0  0  0  0  0  0
  2  1  1  6
  3  2  1  0
  4  3  1  0
  5  4  2  0
  6  5  1  0
  7 12  2  0
  7  6  1  0
  8  7  1  0
  9  8  2  0
  9 10  1  0
 10 11  2  0
 11 12  1  0
 12  4  1  0
 13  2  1  0
 14 13  2  0
 15 16  1  0
 17 16  1  0
 17 19  1  0
 17 18  1  6
 19 21  1  0
 19 20  1  1
 20 13  1  0
 21 31  1  0
 22 21  2  0
 23 24  1  0
 24 25  2  0
 26 24  1  0
 26 27  1  0
 28 27  1  0
 28 29  1  0
 30 29  1  6
 30 32  1  0
 31 30  1  0
 32 34  2  0
 32 33  1  0
M  END
$$$$
