WIR.pdb
     RDKit          3D

 34 35  0  0  1  0  0  0  0  0999 V2000
    6.5237  -18.9318   27.0834 N   0  0  0  0  0  0  0  0  0  0  0  0
    7.4802  -17.8383   26.9598 C   0  0  1  0  0  0  0  0  0  0  0  0
    8.8873  -18.4011   27.0390 C   0  0  0  0  0  0  0  0  0  0  0  0
    9.5207  -17.8192   28.2439 C   0  0  0  0  0  0  0  0  0  0  0  0
    9.7965  -18.4495   29.4349 C   0  0  0  0  0  0  0  0  0  0  0  0
   10.3702  -17.5577   30.2946 N   0  0  0  0  0  0  0  0  0  0  0  0
   10.4712  -16.3710   29.6871 C   0  0  0  0  0  0  0  0  0  0  0  0
   10.9727  -15.1707   30.1138 C   0  0  0  0  0  0  0  0  0  0  0  0
   10.9469  -14.0889   29.2336 C   0  0  0  0  0  0  0  0  0  0  0  0
   10.4319  -14.2038   27.9557 C   0  0  0  0  0  0  0  0  0  0  0  0
    9.9261  -15.4441   27.5492 C   0  0  0  0  0  0  0  0  0  0  0  0
    9.9511  -16.5047   28.4120 C   0  0  0  0  0  0  0  0  0  0  0  0
    7.2531  -16.9746   25.8057 C   0  0  0  0  0  0  0  0  0  0  0  0
    6.9392  -17.5484   24.6997 O   0  0  0  0  0  0  0  0  0  0  0  0
    6.3052  -11.6853   26.3021 C   0  0  0  0  0  0  0  0  0  0  0  0
    6.1543  -13.0319   25.6049 C   0  0  0  0  0  0  0  0  0  0  0  0
    7.3830  -13.3832   24.8348 C   0  0  2  0  0  0  0  0  0  0  0  0
    7.5430  -12.4641   23.6607 C   0  0  0  0  0  0  0  0  0  0  0  0
    7.4630  -14.8482   24.4806 C   0  0  2  0  0  0  0  0  0  0  0  0
    7.3379  -15.5630   25.7579 N   0  0  0  0  0  0  0  0  0  0  0  0
    8.7047  -15.2199   23.7750 C   0  0  0  0  0  0  0  0  0  0  0  0
    9.7207  -15.5804   24.4262 O   0  0  0  0  0  0  0  0  0  0  0  0
    8.1010  -12.4302   18.0322 N   0  0  0  0  0  0  0  0  0  0  0  0
    7.8109  -13.5798   17.2301 C   0  0  0  0  0  0  0  0  0  0  0  0
    7.9827  -13.5081   15.9495 N   0  0  0  0  0  0  0  0  0  0  0  0
    7.3445  -14.7699   17.8484 N   0  0  0  0  0  0  0  0  0  0  0  0
    7.5609  -15.0254   19.2625 C   0  0  0  0  0  0  0  0  0  0  0  0
    8.7237  -15.9202   19.5065 C   0  0  0  0  0  0  0  0  0  0  0  0
    9.8857  -15.3519   20.2217 C   0  0  0  0  0  0  0  0  0  0  0  0
   10.0221  -15.6192   21.6806 C   0  0  2  0  0  0  0  0  0  0  0  0
    8.8192  -15.1926   22.3625 N   0  0  0  0  0  0  0  0  0  0  0  0
   11.2177  -15.1058   22.3337 C   0  0  0  0  0  0  0  0  0  0  0  0
   12.4937  -15.5969   22.1053 O   0  0  0  0  0  0  0  0  0  0  0  0
   11.1376  -14.1466   23.1763 O   0  0  0  0  0  0  0  0  0  0  0  0
  2  1  1  6
  3  2  1  0
  4  3  1  0
  5  4  2  0
  6  5  1  0
  7 12  2  0
  7  6  1  0
  8  7  1  0
  9  8  2  0
  9 10  1  0
 10 11  2  0
 11 12  1  0
 12  4  1  0
 13  2  1  0
 14 13  2  0
 15 16  1  0
 17 16  1  0
 17 19  1  0
 17 18  1  6
 19 21  1  0
 19 20  1  1
 20 13  1  0
 21 31  1  0
 22 21  2  0
 23 24  1  0
 24 25  2  0
 26 24  1  0
 26 27  1  0
 28 27  1  0
 28 29  1  0
 30 29  1  6
 30 32  1  0
 31 30  1  0
 32 34  2  0
 32 33  1  0
M  END
$$$$
