WIR.pdb
     RDKit          3D

 34 35  0  0  1  0  0  0  0  0999 V2000
    5.9721  -18.1396   24.6246 N   0  0  0  0  0  0  0  0  0  0  0  0
    6.5953  -16.8275   24.4988 C   0  0  1  0  0  0  0  0  0  0  0  0
    7.1954  -16.4350   25.8361 C   0  0  0  0  0  0  0  0  0  0  0  0
    6.4879  -15.2158   26.2886 C   0  0  0  0  0  0  0  0  0  0  0  0
    5.1580  -15.0897   26.6163 C   0  0  0  0  0  0  0  0  0  0  0  0
    4.9015  -13.7964   26.9699 N   0  0  0  0  0  0  0  0  0  0  0  0
    6.0318  -13.0882   26.8791 C   0  0  0  0  0  0  0  0  0  0  0  0
    6.3007  -11.7687   27.1266 C   0  0  0  0  0  0  0  0  0  0  0  0
    7.6056  -11.3108   26.9446 C   0  0  0  0  0  0  0  0  0  0  0  0
    8.6193  -12.1522   26.5252 C   0  0  0  0  0  0  0  0  0  0  0  0
    8.3126  -13.4958   26.2800 C   0  0  0  0  0  0  0  0  0  0  0  0
    7.0333  -13.9450   26.4581 C   0  0  0  0  0  0  0  0  0  0  0  0
    7.5229  -16.7127   23.3781 C   0  0  0  0  0  0  0  0  0  0  0  0
    8.2275  -17.7492   23.0948 O   0  0  0  0  0  0  0  0  0  0  0  0
    7.1109  -12.4531   19.9683 C   0  0  0  0  0  0  0  0  0  0  0  0
    7.2075  -13.9074   20.4132 C   0  0  0  0  0  0  0  0  0  0  0  0
    8.6066  -14.2672   20.7867 C   0  0  2  0  0  0  0  0  0  0  0  0
    9.5206  -14.0963   19.6102 C   0  0  0  0  0  0  0  0  0  0  0  0
    8.7144  -15.6164   21.4546 C   0  0  2  0  0  0  0  0  0  0  0  0
    7.7422  -15.5827   22.5553 N   0  0  0  0  0  0  0  0  0  0  0  0
   10.0713  -15.9282   21.9440 C   0  0  0  0  0  0  0  0  0  0  0  0
   10.5505  -15.3025   22.9266 O   0  0  0  0  0  0  0  0  0  0  0  0
   10.6343  -21.8782   19.4230 N   0  0  0  0  0  0  0  0  0  0  0  0
   10.1660  -22.3444   20.6928 C   0  0  0  0  0  0  0  0  0  0  0  0
    9.0901  -23.0621   20.7373 N   0  0  0  0  0  0  0  0  0  0  0  0
   10.8848  -22.0151   21.8722 N   0  0  0  0  0  0  0  0  0  0  0  0
   12.0582  -21.1588   21.8315 C   0  0  0  0  0  0  0  0  0  0  0  0
   11.7505  -19.7552   22.2157 C   0  0  0  0  0  0  0  0  0  0  0  0
   12.5078  -18.6800   21.5411 C   0  0  0  0  0  0  0  0  0  0  0  0
   12.1901  -17.2654   21.8826 C   0  0  2  0  0  0  0  0  0  0  0  0
   10.8885  -16.9228   21.3509 N   0  0  0  0  0  0  0  0  0  0  0  0
   13.1896  -16.2653   21.5356 C   0  0  0  0  0  0  0  0  0  0  0  0
   14.3863  -16.1013   22.2157 O   0  0  0  0  0  0  0  0  0  0  0  0
   12.9979  -15.4673   20.5544 O   0  0  0  0  0  0  0  0  0  0  0  0
  2  1  1  1
  3  2  1  0
  4  3  1  0
  5  4  2  0
  6  5  1  0
  7 12  2  0
  7  6  1  0
  8  7  1  0
  9  8  2  0
  9 10  1  0
 10 11  2  0
 11 12  1  0
 12  4  1  0
 13  2  1  0
 14 13  2  0
 15 16  1  0
 17 16  1  0
 17 19  1  0
 17 18  1  6
 19 21  1  0
 19 20  1  1
 20 13  1  0
 21 31  1  0
 22 21  2  0
 23 24  1  0
 24 25  2  0
 26 24  1  0
 26 27  1  0
 28 27  1  0
 28 29  1  0
 30 29  1  6
 30 32  1  0
 31 30  1  0
 32 34  2  0
 32 33  1  0
M  END
$$$$
