WIR.pdb
     RDKit          3D

 34 35  0  0  1  0  0  0  0  0999 V2000
    6.9397  -17.6282   23.2452 N   0  0  0  0  0  0  0  0  0  0  0  0
    7.3236  -16.3534   22.6508 C   0  0  1  0  0  0  0  0  0  0  0  0
    6.1150  -15.7438   21.9651 C   0  0  0  0  0  0  0  0  0  0  0  0
    6.5505  -15.3161   20.6163 C   0  0  0  0  0  0  0  0  0  0  0  0
    6.4407  -16.0159   19.4374 C   0  0  0  0  0  0  0  0  0  0  0  0
    6.9762  -15.2764   18.4225 N   0  0  0  0  0  0  0  0  0  0  0  0
    7.4264  -14.1193   18.9181 C   0  0  0  0  0  0  0  0  0  0  0  0
    8.0341  -13.0485   18.3192 C   0  0  0  0  0  0  0  0  0  0  0  0
    8.3920  -11.9582   19.1123 C   0  0  0  0  0  0  0  0  0  0  0  0
    8.1481  -11.9380   20.4729 C   0  0  0  0  0  0  0  0  0  0  0  0
    7.5257  -13.0481   21.0559 C   0  0  0  0  0  0  0  0  0  0  0  0
    7.1749  -14.1172   20.2787 C   0  0  0  0  0  0  0  0  0  0  0  0
    8.0012  -15.4460   23.5712 C   0  0  0  0  0  0  0  0  0  0  0  0
    8.3604  -14.3033   23.1061 O   0  0  0  0  0  0  0  0  0  0  0  0
   10.2588  -13.2038   28.6264 C   0  0  0  0  0  0  0  0  0  0  0  0
   10.5914  -14.0665   27.4151 C   0  0  0  0  0  0  0  0  0  0  0  0
    9.3529  -14.5262   26.7216 C   0  0  2  0  0  0  0  0  0  0  0  0
    8.4312  -15.2010   27.6932 C   0  0  0  0  0  0  0  0  0  0  0  0
    9.6339  -15.3373   25.4802 C   0  0  2  0  0  0  0  0  0  0  0  0
    8.3139  -15.6762   24.9318 N   0  0  0  0  0  0  0  0  0  0  0  0
   10.4388  -16.5480   25.7333 C   0  0  0  0  0  0  0  0  0  0  0  0
    9.9538  -17.5059   26.3919 O   0  0  0  0  0  0  0  0  0  0  0  0
   13.7595  -16.5656   19.1498 N   0  0  0  0  0  0  0  0  0  0  0  0
   14.0511  -15.5676   20.1336 C   0  0  0  0  0  0  0  0  0  0  0  0
   14.4556  -14.4026   19.7416 N   0  0  0  0  0  0  0  0  0  0  0  0
   13.8917  -15.8701   21.5118 N   0  0  0  0  0  0  0  0  0  0  0  0
   14.3961  -17.1088   22.0800 C   0  0  0  0  0  0  0  0  0  0  0  0
   14.1436  -17.2069   23.5425 C   0  0  0  0  0  0  0  0  0  0  0  0
   13.1453  -18.1966   23.9992 C   0  0  0  0  0  0  0  0  0  0  0  0
   12.4600  -17.9655   25.3013 C   0  0  2  0  0  0  0  0  0  0  0  0
   11.7672  -16.6957   25.2617 N   0  0  0  0  0  0  0  0  0  0  0  0
   13.2716  -18.0947   26.5030 C   0  0  0  0  0  0  0  0  0  0  0  0
   13.3911  -17.1031   27.4644 O   0  0  0  0  0  0  0  0  0  0  0  0
   13.9327  -19.1661   26.7294 O   0  0  0  0  0  0  0  0  0  0  0  0
  2  1  1  1
  3  2  1  0
  4  3  1  0
  5  4  2  0
  6  5  1  0
  7 12  2  0
  7  6  1  0
  8  7  1  0
  9  8  2  0
  9 10  1  0
 10 11  2  0
 11 12  1  0
 12  4  1  0
 13  2  1  0
 14 13  2  0
 15 16  1  0
 17 16  1  0
 17 19  1  0
 17 18  1  1
 19 21  1  0
 19 20  1  1
 20 13  1  0
 21 31  1  0
 22 21  2  0
 23 24  1  0
 24 25  2  0
 26 24  1  0
 26 27  1  0
 28 27  1  0
 28 29  1  0
 30 29  1  6
 30 32  1  0
 31 30  1  0
 32 34  2  0
 32 33  1  0
M  END
$$$$
