KSS.pdb
     RDKit          3D

 22 21  0  0  1  0  0  0  0  0999 V2000
    8.2464  -12.8000   18.2004 N   0  0  0  0  0  0  0  0  0  0  0  0
    7.6903  -13.8907   19.0324 C   0  0  1  0  0  0  0  0  0  0  0  0
    7.6628  -15.0944   18.1803 C   0  0  0  0  0  0  0  0  0  0  0  0
    8.4833  -15.1017   16.9460 C   0  0  0  0  0  0  0  0  0  0  0  0
    7.9871  -15.8845   15.7911 C   0  0  0  0  0  0  0  0  0  0  0  0
    8.9224  -15.7046   14.6100 C   0  0  0  0  0  0  0  0  0  0  0  0
    8.4560  -16.5090   13.5104 N   0  0  0  0  0  0  0  0  0  0  0  0
    8.4732  -14.0034   20.2715 C   0  0  0  0  0  0  0  0  0  0  0  0
    9.7081  -13.7992   20.3498 O   0  0  0  0  0  0  0  0  0  0  0  0
    6.7450  -15.2957   23.8925 O   0  0  0  0  0  0  0  0  0  0  0  0
    7.7253  -14.2976   23.9036 C   0  0  0  0  0  0  0  0  0  0  0  0
    8.6437  -14.4664   22.7153 C   0  0  2  0  0  0  0  0  0  0  0  0
    7.8567  -14.3730   21.5241 N   0  0  0  0  0  0  0  0  0  0  0  0
    9.3710  -15.7795   22.7943 C   0  0  0  0  0  0  0  0  0  0  0  0
    8.8820  -16.7441   22.1885 O   0  0  0  0  0  0  0  0  0  0  0  0
   13.2293  -15.8188   23.5840 O   0  0  0  0  0  0  0  0  0  0  0  0
   12.6574  -17.0109   23.1223 C   0  0  0  0  0  0  0  0  0  0  0  0
   11.2660  -17.2015   23.6501 C   0  0  2  0  0  0  0  0  0  0  0  0
   10.5710  -15.9229   23.5297 N   0  0  0  0  0  0  0  0  0  0  0  0
   11.3661  -17.6128   25.0771 C   0  0  0  0  0  0  0  0  0  0  0  0
   10.7900  -16.8472   26.0800 O   0  0  0  0  0  0  0  0  0  0  0  0
   11.9708  -18.6587   25.4180 O   0  0  0  0  0  0  0  0  0  0  0  0
  2  1  1  6
  2  3  1  0
  2  8  1  0
  3  4  1  0
  5  6  1  0
  5  4  1  0
  6  7  1  0
  8  9  2  0
 11 10  1  0
 12 11  1  1
 13  8  1  0
 13 12  1  0
 14 12  1  0
 14 19  1  0
 15 14  2  0
 16 17  1  0
 18 19  1  0
 18 17  1  1
 20 18  1  0
 20 21  1  0
 22 20  2  0
M  END
$$$$
