KSS.pdb
     RDKit          3D

 22 21  0  0  1  0  0  0  0  0999 V2000
    8.7149  -17.6267   17.4010 N   0  0  0  0  0  0  0  0  0  0  0  0
    7.9228  -17.2483   18.5928 C   0  0  1  0  0  0  0  0  0  0  0  0
    7.2287  -18.4708   19.0393 C   0  0  0  0  0  0  0  0  0  0  0  0
    7.0348  -19.5670   18.0608 C   0  0  0  0  0  0  0  0  0  0  0  0
    5.6940  -19.7202   17.4514 C   0  0  0  0  0  0  0  0  0  0  0  0
    5.6399  -21.0061   16.6479 C   0  0  0  0  0  0  0  0  0  0  0  0
    4.3320  -21.1424   16.0608 N   0  0  0  0  0  0  0  0  0  0  0  0
    8.8075  -16.6184   19.5836 C   0  0  0  0  0  0  0  0  0  0  0  0
   10.0571  -16.7233   19.5850 O   0  0  0  0  0  0  0  0  0  0  0  0
    7.3342  -14.7943   23.0899 O   0  0  0  0  0  0  0  0  0  0  0  0
    8.4035  -14.1989   22.4122 C   0  0  0  0  0  0  0  0  0  0  0  0
    9.1658  -15.2465   21.6343 C   0  0  2  0  0  0  0  0  0  0  0  0
    8.2828  -15.8128   20.6614 N   0  0  0  0  0  0  0  0  0  0  0  0
    9.7123  -16.2964   22.5607 C   0  0  0  0  0  0  0  0  0  0  0  0
    9.0595  -17.3420   22.6924 O   0  0  0  0  0  0  0  0  0  0  0  0
   13.5430  -15.9524   23.8845 O   0  0  0  0  0  0  0  0  0  0  0  0
   12.9375  -17.2145   23.9263 C   0  0  0  0  0  0  0  0  0  0  0  0
   11.4616  -17.1155   24.1776 C   0  0  2  0  0  0  0  0  0  0  0  0
   10.9263  -16.1110   23.2630 N   0  0  0  0  0  0  0  0  0  0  0  0
   11.2614  -16.6981   25.5922 C   0  0  0  0  0  0  0  0  0  0  0  0
   11.7232  -17.4838   26.6378 O   0  0  0  0  0  0  0  0  0  0  0  0
   10.6722  -15.6287   25.8840 O   0  0  0  0  0  0  0  0  0  0  0  0
  2  1  1  6
  2  3  1  0
  2  8  1  0
  3  4  1  0
  5  6  1  0
  5  4  1  0
  6  7  1  0
  8  9  2  0
 11 10  1  0
 12 11  1  1
 13  8  1  0
 13 12  1  0
 14 12  1  0
 14 19  1  0
 15 14  2  0
 16 17  1  0
 18 19  1  0
 18 17  1  6
 20 18  1  0
 20 21  1  0
 22 20  2  0
M  END
$$$$
