KSS.pdb
     RDKit          3D

 22 21  0  0  1  0  0  0  0  0999 V2000
   -0.5982  -25.9644   27.6484 N   0  0  0  0  0  0  0  0  0  0  0  0
   -1.8917  -26.3481   28.2571 C   0  0  1  0  0  0  0  0  0  0  0  0
   -1.6081  -26.6847   29.6649 C   0  0  0  0  0  0  0  0  0  0  0  0
   -0.7686  -27.8728   29.9489 C   0  0  0  0  0  0  0  0  0  0  0  0
   -1.3376  -29.2075   29.6532 C   0  0  0  0  0  0  0  0  0  0  0  0
   -0.3704  -30.2877   30.1006 C   0  0  0  0  0  0  0  0  0  0  0  0
   -0.9667  -31.5791   29.8758 N   0  0  0  0  0  0  0  0  0  0  0  0
   -2.8680  -25.2702   28.0425 C   0  0  0  0  0  0  0  0  0  0  0  0
   -2.6119  -24.0486   28.1639 O   0  0  0  0  0  0  0  0  0  0  0  0
   -6.7877  -26.0462   26.6755 O   0  0  0  0  0  0  0  0  0  0  0  0
   -6.0648  -24.9156   26.2799 C   0  0  0  0  0  0  0  0  0  0  0  0
   -5.1421  -24.4800   27.3946 C   0  0  2  0  0  0  0  0  0  0  0  0
   -4.2345  -25.5514   27.6694 N   0  0  0  0  0  0  0  0  0  0  0  0
   -5.9332  -24.1004   28.6151 C   0  0  0  0  0  0  0  0  0  0  0  0
   -6.2960  -25.0134   29.3710 O   0  0  0  0  0  0  0  0  0  0  0  0
   -5.2681  -20.8980   30.8909 O   0  0  0  0  0  0  0  0  0  0  0  0
   -6.5946  -20.9635   30.4464 C   0  0  0  0  0  0  0  0  0  0  0  0
   -6.9971  -22.3671   30.1014 C   0  0  2  0  0  0  0  0  0  0  0  0
   -6.2587  -22.7541   28.9024 N   0  0  0  0  0  0  0  0  0  0  0  0
   -8.4626  -22.3763   29.8418 C   0  0  0  0  0  0  0  0  0  0  0  0
   -9.3693  -22.2031   30.8770 O   0  0  0  0  0  0  0  0  0  0  0  0
   -8.9235  -22.5399   28.6857 O   0  0  0  0  0  0  0  0  0  0  0  0
  2  1  1  1
  2  3  1  0
  2  8  1  0
  3  4  1  0
  5  6  1  0
  5  4  1  0
  6  7  1  0
  8  9  2  0
 11 10  1  0
 12 11  1  6
 13  8  1  0
 13 12  1  0
 14 12  1  0
 14 19  1  0
 15 14  2  0
 16 17  1  0
 18 19  1  0
 18 17  1  6
 20 18  1  0
 20 21  1  0
 22 20  2  0
M  END
$$$$
