KSS.pdb
     RDKit          3D

 22 21  0  0  1  0  0  0  0  0999 V2000
    8.9530  -17.7548   18.1007 N   0  0  0  0  0  0  0  0  0  0  0  0
   10.2220  -17.0082   18.2541 C   0  0  1  0  0  0  0  0  0  0  0  0
   10.1263  -15.8339   17.3666 C   0  0  0  0  0  0  0  0  0  0  0  0
    9.0791  -15.8281   16.3178 C   0  0  0  0  0  0  0  0  0  0  0  0
    8.9405  -14.6105   15.4865 C   0  0  0  0  0  0  0  0  0  0  0  0
    7.7721  -14.7716   14.5320 C   0  0  0  0  0  0  0  0  0  0  0  0
    7.6975  -13.6158   13.6763 N   0  0  0  0  0  0  0  0  0  0  0  0
   10.4444  -16.7162   19.6776 C   0  0  0  0  0  0  0  0  0  0  0  0
   11.4147  -16.0577   20.1220 O   0  0  0  0  0  0  0  0  0  0  0  0
    7.8679  -18.1005   22.8244 O   0  0  0  0  0  0  0  0  0  0  0  0
    8.5131  -16.8591   22.8258 C   0  0  0  0  0  0  0  0  0  0  0  0
    9.8234  -16.9605   22.0797 C   0  0  2  0  0  0  0  0  0  0  0  0
    9.5350  -17.1858   20.6965 N   0  0  0  0  0  0  0  0  0  0  0  0
   10.6719  -18.0610   22.6527 C   0  0  0  0  0  0  0  0  0  0  0  0
   10.7869  -19.1018   21.9894 O   0  0  0  0  0  0  0  0  0  0  0  0
   14.4034  -19.7643   24.5539 O   0  0  0  0  0  0  0  0  0  0  0  0
   13.5491  -18.7726   24.0558 C   0  0  0  0  0  0  0  0  0  0  0  0
   12.1283  -18.9963   24.4829 C   0  0  2  0  0  0  0  0  0  0  0  0
   11.3211  -17.9268   23.9024 N   0  0  0  0  0  0  0  0  0  0  0  0
   12.0795  -18.9436   25.9695 C   0  0  0  0  0  0  0  0  0  0  0  0
   12.6183  -19.9668   26.7355 O   0  0  0  0  0  0  0  0  0  0  0  0
   11.5530  -17.9784   26.5753 O   0  0  0  0  0  0  0  0  0  0  0  0
  2  1  1  1
  2  3  1  0
  2  8  1  0
  3  4  1  0
  5  6  1  0
  5  4  1  0
  6  7  1  0
  8  9  2  0
 11 10  1  0
 12 11  1  1
 13  8  1  0
 13 12  1  0
 14 12  1  0
 14 19  1  0
 15 14  2  0
 16 17  1  0
 18 19  1  0
 18 17  1  1
 20 18  1  0
 20 21  1  0
 22 20  2  0
M  END
$$$$
