KSS.pdb
     RDKit          3D

 22 21  0  0  1  0  0  0  0  0999 V2000
    6.0457  -15.9239   20.0845 N   0  0  0  0  0  0  0  0  0  0  0  0
    7.1754  -15.4145   20.8941 C   0  0  1  0  0  0  0  0  0  0  0  0
    7.4203  -14.0305   20.4465 C   0  0  0  0  0  0  0  0  0  0  0  0
    8.4354  -13.8016   19.3911 C   0  0  0  0  0  0  0  0  0  0  0  0
    9.8619  -13.9438   19.7619 C   0  0  0  0  0  0  0  0  0  0  0  0
   10.7388  -13.5247   18.5967 C   0  0  0  0  0  0  0  0  0  0  0  0
   12.1162  -13.5268   19.0166 N   0  0  0  0  0  0  0  0  0  0  0  0
    6.8625  -15.5781   22.3211 C   0  0  0  0  0  0  0  0  0  0  0  0
    5.8109  -15.1671   22.8670 O   0  0  0  0  0  0  0  0  0  0  0  0
    8.6115  -18.3825   24.7898 O   0  0  0  0  0  0  0  0  0  0  0  0
    7.4007  -17.7306   25.0471 C   0  0  0  0  0  0  0  0  0  0  0  0
    7.4977  -16.2823   24.6269 C   0  0  2  0  0  0  0  0  0  0  0  0
    7.7747  -16.2405   23.2238 N   0  0  0  0  0  0  0  0  0  0  0  0
    8.5598  -15.5737   25.4202 C   0  0  0  0  0  0  0  0  0  0  0  0
    9.7221  -15.6184   24.9917 O   0  0  0  0  0  0  0  0  0  0  0  0
    8.0016  -12.2598   27.3083 O   0  0  0  0  0  0  0  0  0  0  0  0
    8.6715  -13.1249   28.1824 C   0  0  0  0  0  0  0  0  0  0  0  0
    9.2920  -14.2808   27.4543 C   0  0  2  0  0  0  0  0  0  0  0  0
    8.2575  -14.8774   26.6139 N   0  0  0  0  0  0  0  0  0  0  0  0
    9.7748  -15.2587   28.4672 C   0  0  0  0  0  0  0  0  0  0  0  0
   10.7345  -14.8992   29.4018 O   0  0  0  0  0  0  0  0  0  0  0  0
    9.3327  -16.4328   28.5091 O   0  0  0  0  0  0  0  0  0  0  0  0
  2  1  1  6
  2  3  1  0
  2  8  1  0
  3  4  1  0
  5  6  1  0
  5  4  1  0
  6  7  1  0
  8  9  2  0
 11 10  1  0
 12 11  1  1
 13  8  1  0
 13 12  1  0
 14 12  1  0
 14 19  1  0
 15 14  2  0
 16 17  1  0
 18 19  1  0
 18 17  1  1
 20 18  1  0
 20 21  1  0
 22 20  2  0
M  END
$$$$
