KSS.pdb
     RDKit          3D

 22 21  0  0  1  0  0  0  0  0999 V2000
    8.4826  -12.5205   18.4928 N   0  0  0  0  0  0  0  0  0  0  0  0
    8.0141  -13.7944   19.0833 C   0  0  1  0  0  0  0  0  0  0  0  0
    8.4672  -14.8669   18.1777 C   0  0  0  0  0  0  0  0  0  0  0  0
    8.1701  -14.7388   16.7313 C   0  0  0  0  0  0  0  0  0  0  0  0
    8.4540  -15.9033   15.8618 C   0  0  0  0  0  0  0  0  0  0  0  0
    7.8588  -15.6725   14.4853 C   0  0  0  0  0  0  0  0  0  0  0  0
    8.2375  -16.7580   13.6181 N   0  0  0  0  0  0  0  0  0  0  0  0
    8.4874  -13.8889   20.4719 C   0  0  0  0  0  0  0  0  0  0  0  0
    9.6953  -13.9040   20.8087 O   0  0  0  0  0  0  0  0  0  0  0  0
    7.3215  -14.3771   25.1662 O   0  0  0  0  0  0  0  0  0  0  0  0
    6.8784  -14.1748   23.8547 C   0  0  0  0  0  0  0  0  0  0  0  0
    8.0499  -14.2344   22.9019 C   0  0  2  0  0  0  0  0  0  0  0  0
    7.5657  -13.9781   21.5801 N   0  0  0  0  0  0  0  0  0  0  0  0
    8.7328  -15.5706   22.9897 C   0  0  0  0  0  0  0  0  0  0  0  0
    8.5695  -16.3618   22.0496 O   0  0  0  0  0  0  0  0  0  0  0  0
   12.3973  -17.8948   22.9895 O   0  0  0  0  0  0  0  0  0  0  0  0
   11.4875  -16.8327   23.0656 C   0  0  0  0  0  0  0  0  0  0  0  0
   10.4178  -17.0885   24.0861 C   0  0  2  0  0  0  0  0  0  0  0  0
    9.5355  -15.9250   24.0994 N   0  0  0  0  0  0  0  0  0  0  0  0
   11.0754  -17.2644   25.4098 C   0  0  0  0  0  0  0  0  0  0  0  0
   11.8712  -18.3708   25.6671 O   0  0  0  0  0  0  0  0  0  0  0  0
   10.9327  -16.4233   26.3306 O   0  0  0  0  0  0  0  0  0  0  0  0
  2  1  1  6
  2  3  1  0
  2  8  1  0
  3  4  1  0
  5  6  1  0
  5  4  1  0
  6  7  1  0
  8  9  2  0
 11 10  1  0
 12 11  1  1
 13  8  1  0
 13 12  1  0
 14 12  1  0
 14 19  1  0
 15 14  2  0
 16 17  1  0
 18 19  1  0
 18 17  1  6
 20 18  1  0
 20 21  1  0
 22 20  2  0
M  END
$$$$
