KSS.pdb
     RDKit          3D

 22 21  0  0  1  0  0  0  0  0999 V2000
   10.6429  -16.4897   15.7387 N   0  0  0  0  0  0  0  0  0  0  0  0
   10.7753  -17.1333   17.0650 C   0  0  1  0  0  0  0  0  0  0  0  0
   11.4672  -18.4164   16.8402 C   0  0  0  0  0  0  0  0  0  0  0  0
   12.1792  -18.6163   15.5558 C   0  0  0  0  0  0  0  0  0  0  0  0
   12.7719  -19.9478   15.2942 C   0  0  0  0  0  0  0  0  0  0  0  0
   13.4857  -19.9372   13.9553 C   0  0  0  0  0  0  0  0  0  0  0  0
   14.0943  -21.2234   13.7336 N   0  0  0  0  0  0  0  0  0  0  0  0
   11.4382  -16.2042   17.9915 C   0  0  0  0  0  0  0  0  0  0  0  0
   12.2878  -15.3480   17.6482 O   0  0  0  0  0  0  0  0  0  0  0  0
   11.2957  -16.6265   22.1958 O   0  0  0  0  0  0  0  0  0  0  0  0
   11.1338  -15.3567   21.6312 C   0  0  0  0  0  0  0  0  0  0  0  0
   11.8176  -15.3024   20.2846 C   0  0  2  0  0  0  0  0  0  0  0  0
   11.1518  -16.2154   19.4069 N   0  0  0  0  0  0  0  0  0  0  0  0
   13.2773  -15.6340   20.4215 C   0  0  0  0  0  0  0  0  0  0  0  0
   13.6144  -16.8167   20.2664 O   0  0  0  0  0  0  0  0  0  0  0  0
   17.7946  -13.8478   20.4990 O   0  0  0  0  0  0  0  0  0  0  0  0
   16.4065  -13.6729   20.4372 C   0  0  0  0  0  0  0  0  0  0  0  0
   15.6709  -14.9352   20.7790 C   0  0  2  0  0  0  0  0  0  0  0  0
   14.2418  -14.6420   20.7164 N   0  0  0  0  0  0  0  0  0  0  0  0
   16.0645  -15.3401   22.1561 C   0  0  0  0  0  0  0  0  0  0  0  0
   15.1707  -15.2338   23.2114 O   0  0  0  0  0  0  0  0  0  0  0  0
   17.2101  -15.7881   22.4065 O   0  0  0  0  0  0  0  0  0  0  0  0
  2  1  1  6
  2  3  1  0
  2  8  1  0
  3  4  1  0
  5  6  1  0
  5  4  1  0
  6  7  1  0
  8  9  2  0
 11 10  1  0
 12 11  1  1
 13  8  1  0
 13 12  1  0
 14 12  1  0
 14 19  1  0
 15 14  2  0
 16 17  1  0
 18 19  1  0
 18 17  1  1
 20 18  1  0
 20 21  1  0
 22 20  2  0
M  END
$$$$
