KSS.pdb
     RDKit          3D

 22 21  0  0  1  0  0  0  0  0999 V2000
    9.4768  -20.9154   18.3994 N   0  0  0  0  0  0  0  0  0  0  0  0
    8.8961  -20.1193   19.5040 C   0  0  1  0  0  0  0  0  0  0  0  0
    7.7102  -20.8595   19.9746 C   0  0  0  0  0  0  0  0  0  0  0  0
    7.7855  -22.3381   20.0442 C   0  0  0  0  0  0  0  0  0  0  0  0
    6.5526  -23.0768   20.4007 C   0  0  0  0  0  0  0  0  0  0  0  0
    6.8188  -24.5699   20.3571 C   0  0  0  0  0  0  0  0  0  0  0  0
    5.6190  -25.2753   20.7268 N   0  0  0  0  0  0  0  0  0  0  0  0
    9.9321  -19.8639   20.5152 C   0  0  0  0  0  0  0  0  0  0  0  0
   10.9613  -20.5641   20.6668 O   0  0  0  0  0  0  0  0  0  0  0  0
    9.3975  -17.0203   23.5559 O   0  0  0  0  0  0  0  0  0  0  0  0
   10.6737  -17.1666   23.0016 C   0  0  0  0  0  0  0  0  0  0  0  0
   10.8330  -18.5605   22.4401 C   0  0  2  0  0  0  0  0  0  0  0  0
    9.8320  -18.7565   21.4367 N   0  0  0  0  0  0  0  0  0  0  0  0
   10.7247  -19.5849   23.5348 C   0  0  0  0  0  0  0  0  0  0  0  0
    9.6250  -20.1318   23.7026 O   0  0  0  0  0  0  0  0  0  0  0  0
   12.5424  -23.1648   25.8598 O   0  0  0  0  0  0  0  0  0  0  0  0
   12.5310  -22.1350   24.9107 C   0  0  0  0  0  0  0  0  0  0  0  0
   11.7512  -20.9459   25.3894 C   0  0  2  0  0  0  0  0  0  0  0  0
   11.8297  -19.9218   24.3513 N   0  0  0  0  0  0  0  0  0  0  0  0
   12.3745  -20.4631   26.6518 C   0  0  0  0  0  0  0  0  0  0  0  0
   12.9643  -19.2096   26.7198 O   0  0  0  0  0  0  0  0  0  0  0  0
   12.3870  -21.1692   27.6896 O   0  0  0  0  0  0  0  0  0  0  0  0
  2  1  1  6
  2  3  1  0
  2  8  1  0
  3  4  1  0
  5  6  1  0
  5  4  1  0
  6  7  1  0
  8  9  2  0
 11 10  1  0
 12 11  1  1
 13  8  1  0
 13 12  1  0
 14 12  1  0
 14 19  1  0
 15 14  2  0
 16 17  1  0
 18 19  1  0
 18 17  1  6
 20 18  1  0
 20 21  1  0
 22 20  2  0
M  END
$$$$
