KSS.pdb
     RDKit          3D

 22 21  0  0  1  0  0  0  0  0999 V2000
    8.1241  -12.6792   18.3439 N   0  0  0  0  0  0  0  0  0  0  0  0
    7.5849  -13.7366   19.2284 C   0  0  1  0  0  0  0  0  0  0  0  0
    7.5120  -14.9651   18.4153 C   0  0  0  0  0  0  0  0  0  0  0  0
    7.7323  -14.8557   16.9537 C   0  0  0  0  0  0  0  0  0  0  0  0
    7.6785  -16.0993   16.1518 C   0  0  0  0  0  0  0  0  0  0  0  0
    7.9581  -15.7823   14.6946 C   0  0  0  0  0  0  0  0  0  0  0  0
    7.8474  -16.9899   13.9180 N   0  0  0  0  0  0  0  0  0  0  0  0
    8.4103  -13.8221   20.4418 C   0  0  0  0  0  0  0  0  0  0  0  0
    9.6367  -13.5634   20.4836 O   0  0  0  0  0  0  0  0  0  0  0  0
    6.7024  -14.7219   24.1319 O   0  0  0  0  0  0  0  0  0  0  0  0
    7.8577  -13.9349   24.0763 C   0  0  0  0  0  0  0  0  0  0  0  0
    8.6829  -14.3185   22.8698 C   0  0  2  0  0  0  0  0  0  0  0  0
    7.8501  -14.2268   21.7099 N   0  0  0  0  0  0  0  0  0  0  0  0
    9.2471  -15.7018   23.0358 C   0  0  0  0  0  0  0  0  0  0  0  0
    8.6076  -16.6451   22.5481 O   0  0  0  0  0  0  0  0  0  0  0  0
   12.7107  -16.6697   22.3343 O   0  0  0  0  0  0  0  0  0  0  0  0
   12.4731  -17.2160   23.6018 C   0  0  0  0  0  0  0  0  0  0  0  0
   11.0074  -17.2736   23.9170 C   0  0  2  0  0  0  0  0  0  0  0  0
   10.4626  -15.9329   23.7216 N   0  0  0  0  0  0  0  0  0  0  0  0
   10.8567  -17.7004   25.3349 C   0  0  0  0  0  0  0  0  0  0  0  0
   11.2817  -18.9540   25.7493 O   0  0  0  0  0  0  0  0  0  0  0  0
   10.3437  -16.9455   26.1968 O   0  0  0  0  0  0  0  0  0  0  0  0
  2  1  1  6
  2  3  1  0
  2  8  1  0
  3  4  1  0
  5  6  1  0
  5  4  1  0
  6  7  1  0
  8  9  2  0
 11 10  1  0
 12 11  1  1
 13  8  1  0
 13 12  1  0
 14 12  1  0
 14 19  1  0
 15 14  2  0
 16 17  1  0
 18 19  1  0
 18 17  1  1
 20 18  1  0
 20 21  1  0
 22 20  2  0
M  END
$$$$
