KSS.pdb
     RDKit          3D

 22 21  0  0  1  0  0  0  0  0999 V2000
   11.8477  -20.4510   16.7296 N   0  0  0  0  0  0  0  0  0  0  0  0
   12.6098  -20.4424   17.9986 C   0  0  1  0  0  0  0  0  0  0  0  0
   13.7544  -19.5350   17.7930 C   0  0  0  0  0  0  0  0  0  0  0  0
   14.8338  -19.9617   16.8713 C   0  0  0  0  0  0  0  0  0  0  0  0
   15.3864  -18.9517   15.9400 C   0  0  0  0  0  0  0  0  0  0  0  0
   16.4470  -19.5898   15.0623 C   0  0  0  0  0  0  0  0  0  0  0  0
   16.8028  -18.6744   14.0091 N   0  0  0  0  0  0  0  0  0  0  0  0
   11.7072  -20.0913   19.1045 C   0  0  0  0  0  0  0  0  0  0  0  0
   10.7420  -19.2967   19.0056 O   0  0  0  0  0  0  0  0  0  0  0  0
   11.9552  -21.9443   22.8808 O   0  0  0  0  0  0  0  0  0  0  0  0
   10.7495  -21.4563   22.3656 C   0  0  0  0  0  0  0  0  0  0  0  0
   11.0140  -20.2504   21.4940 C   0  0  2  0  0  0  0  0  0  0  0  0
   11.8765  -20.6509   20.4250 N   0  0  0  0  0  0  0  0  0  0  0  0
   11.6191  -19.1379   22.3037 C   0  0  0  0  0  0  0  0  0  0  0  0
   12.8474  -18.9837   22.2398 O   0  0  0  0  0  0  0  0  0  0  0  0
   10.3026  -15.5230   22.6002 O   0  0  0  0  0  0  0  0  0  0  0  0
   10.4323  -16.0651   23.8850 C   0  0  0  0  0  0  0  0  0  0  0  0
   11.4015  -17.2101   23.9106 C   0  0  2  0  0  0  0  0  0  0  0  0
   10.8270  -18.2904   23.1134 N   0  0  0  0  0  0  0  0  0  0  0  0
   11.5748  -17.6365   25.3260 C   0  0  0  0  0  0  0  0  0  0  0  0
   12.1593  -16.7907   26.2571 O   0  0  0  0  0  0  0  0  0  0  0  0
   11.2005  -18.7676   25.7214 O   0  0  0  0  0  0  0  0  0  0  0  0
  2  1  1  6
  2  3  1  0
  2  8  1  0
  3  4  1  0
  5  6  1  0
  5  4  1  0
  6  7  1  0
  8  9  2  0
 11 10  1  0
 12 11  1  1
 13  8  1  0
 13 12  1  0
 14 12  1  0
 14 19  1  0
 15 14  2  0
 16 17  1  0
 18 19  1  0
 18 17  1  1
 20 18  1  0
 20 21  1  0
 22 20  2  0
M  END
$$$$
