KSS.pdb
     RDKit          3D

 22 21  0  0  1  0  0  0  0  0999 V2000
   10.8485  -17.7367   17.7451 N   0  0  0  0  0  0  0  0  0  0  0  0
   12.3107  -17.5102   17.7034 C   0  0  1  0  0  0  0  0  0  0  0  0
   12.6040  -16.9125   16.3872 C   0  0  0  0  0  0  0  0  0  0  0  0
   12.1106  -17.6060   15.1738 C   0  0  0  0  0  0  0  0  0  0  0  0
   10.8980  -17.0682   14.5157 C   0  0  0  0  0  0  0  0  0  0  0  0
   10.7498  -17.6801   13.1351 C   0  0  0  0  0  0  0  0  0  0  0  0
    9.6046  -17.1012   12.4815 N   0  0  0  0  0  0  0  0  0  0  0  0
   12.7118  -16.7120   18.8709 C   0  0  0  0  0  0  0  0  0  0  0  0
   13.6466  -15.8761   18.8696 O   0  0  0  0  0  0  0  0  0  0  0  0
   10.5101  -16.6594   22.4809 O   0  0  0  0  0  0  0  0  0  0  0  0
   11.2640  -15.5789   22.0103 C   0  0  0  0  0  0  0  0  0  0  0  0
   12.4822  -16.0850   21.2729 C   0  0  2  0  0  0  0  0  0  0  0  0
   12.0391  -16.8416   20.1423 N   0  0  0  0  0  0  0  0  0  0  0  0
   13.3449  -16.9109   22.1856 C   0  0  0  0  0  0  0  0  0  0  0  0
   13.1385  -18.1327   22.2206 O   0  0  0  0  0  0  0  0  0  0  0  0
   17.4239  -17.0917   24.8044 O   0  0  0  0  0  0  0  0  0  0  0  0
   16.5295  -16.4047   23.9741 C   0  0  0  0  0  0  0  0  0  0  0  0
   15.2151  -17.1194   23.8602 C   0  0  2  0  0  0  0  0  0  0  0  0
   14.3590  -16.3278   22.9811 N   0  0  0  0  0  0  0  0  0  0  0  0
   14.6230  -17.2164   25.2223 C   0  0  0  0  0  0  0  0  0  0  0  0
   14.9944  -18.2341   26.0884 O   0  0  0  0  0  0  0  0  0  0  0  0
   13.7740  -16.3863   25.6297 O   0  0  0  0  0  0  0  0  0  0  0  0
  2  1  1  1
  2  3  1  0
  2  8  1  0
  3  4  1  0
  5  6  1  0
  5  4  1  0
  6  7  1  0
  8  9  2  0
 11 10  1  0
 12 11  1  1
 13  8  1  0
 13 12  1  0
 14 12  1  0
 14 19  1  0
 15 14  2  0
 16 17  1  0
 18 19  1  0
 18 17  1  1
 20 18  1  0
 20 21  1  0
 22 20  2  0
M  END
$$$$
