KSS.pdb
     RDKit          3D

 22 21  0  0  1  0  0  0  0  0999 V2000
   11.3207  -17.3048   16.9396 N   0  0  0  0  0  0  0  0  0  0  0  0
   10.2362  -17.2907   17.9469 C   0  0  1  0  0  0  0  0  0  0  0  0
    9.7641  -18.6825   18.0728 C   0  0  0  0  0  0  0  0  0  0  0  0
   10.6538  -19.7722   17.6063 C   0  0  0  0  0  0  0  0  0  0  0  0
   10.1425  -21.1600   17.6778 C   0  0  0  0  0  0  0  0  0  0  0  0
   11.2013  -22.1231   17.1741 C   0  0  0  0  0  0  0  0  0  0  0  0
   10.7130  -23.4718   17.3015 N   0  0  0  0  0  0  0  0  0  0  0  0
   10.7308  -16.6698   19.1841 C   0  0  0  0  0  0  0  0  0  0  0  0
   11.9334  -16.3909   19.4046 O   0  0  0  0  0  0  0  0  0  0  0  0
    8.2986  -16.1064   22.5754 O   0  0  0  0  0  0  0  0  0  0  0  0
    9.1607  -15.0779   22.1802 C   0  0  0  0  0  0  0  0  0  0  0  0
   10.3370  -15.6547   21.4269 C   0  0  2  0  0  0  0  0  0  0  0  0
    9.8391  -16.3307   20.2684 N   0  0  0  0  0  0  0  0  0  0  0  0
   11.1249  -16.5811   22.3102 C   0  0  0  0  0  0  0  0  0  0  0  0
   10.9249  -17.7984   22.1889 O   0  0  0  0  0  0  0  0  0  0  0  0
   14.8785  -16.1520   22.9914 O   0  0  0  0  0  0  0  0  0  0  0  0
   14.2328  -16.3279   24.2216 C   0  0  0  0  0  0  0  0  0  0  0  0
   12.8934  -16.9840   24.0583 C   0  0  2  0  0  0  0  0  0  0  0  0
   12.0638  -16.0947   23.2500 N   0  0  0  0  0  0  0  0  0  0  0  0
   12.3018  -17.1686   25.4115 C   0  0  0  0  0  0  0  0  0  0  0  0
   12.8725  -18.0438   26.3238 O   0  0  0  0  0  0  0  0  0  0  0  0
   11.2742  -16.5429   25.7697 O   0  0  0  0  0  0  0  0  0  0  0  0
  2  1  1  6
  2  3  1  0
  2  8  1  0
  3  4  1  0
  5  6  1  0
  5  4  1  0
  6  7  1  0
  8  9  2  0
 11 10  1  0
 12 11  1  1
 13  8  1  0
 13 12  1  0
 14 12  1  0
 14 19  1  0
 15 14  2  0
 16 17  1  0
 18 19  1  0
 18 17  1  1
 20 18  1  0
 20 21  1  0
 22 20  2  0
M  END
$$$$
