KSS.pdb
     RDKit          3D

 22 21  0  0  1  0  0  0  0  0999 V2000
   -0.4907  -26.4232   28.4232 N   0  0  0  0  0  0  0  0  0  0  0  0
   -1.9067  -26.6391   28.7966 C   0  0  1  0  0  0  0  0  0  0  0  0
   -1.8957  -27.4584   30.0230 C   0  0  0  0  0  0  0  0  0  0  0  0
   -1.3712  -28.8422   29.9401 C   0  0  0  0  0  0  0  0  0  0  0  0
   -1.3632  -29.6534   31.1789 C   0  0  0  0  0  0  0  0  0  0  0  0
   -0.8144  -31.0366   30.8824 C   0  0  0  0  0  0  0  0  0  0  0  0
   -0.7726  -31.8004   32.1024 N   0  0  0  0  0  0  0  0  0  0  0  0
   -2.5842  -25.3388   28.9033 C   0  0  0  0  0  0  0  0  0  0  0  0
   -2.1136  -24.3423   29.5019 O   0  0  0  0  0  0  0  0  0  0  0  0
   -4.8447  -23.8614   26.0571 O   0  0  0  0  0  0  0  0  0  0  0  0
   -4.3155  -23.1013   27.1056 C   0  0  0  0  0  0  0  0  0  0  0  0
   -4.5077  -23.8295   28.4158 C   0  0  2  0  0  0  0  0  0  0  0  0
   -3.8819  -25.1119   28.3116 N   0  0  0  0  0  0  0  0  0  0  0  0
   -5.9703  -23.9541   28.7395 C   0  0  0  0  0  0  0  0  0  0  0  0
   -6.5997  -24.8789   28.2055 O   0  0  0  0  0  0  0  0  0  0  0  0
   -9.6298  -22.3505   31.5509 O   0  0  0  0  0  0  0  0  0  0  0  0
   -8.2855  -22.3151   31.1600 C   0  0  0  0  0  0  0  0  0  0  0  0
   -8.0337  -23.1730   29.9551 C   0  0  2  0  0  0  0  0  0  0  0  0
   -6.6173  -23.0554   29.6198 N   0  0  0  0  0  0  0  0  0  0  0  0
   -8.8811  -22.6652   28.8418 C   0  0  0  0  0  0  0  0  0  0  0  0
  -10.0371  -23.3333   28.4662 O   0  0  0  0  0  0  0  0  0  0  0  0
   -8.5800  -21.6230   28.2103 O   0  0  0  0  0  0  0  0  0  0  0  0
  2  1  1  1
  2  3  1  0
  2  8  1  0
  3  4  1  0
  5  6  1  0
  5  4  1  0
  6  7  1  0
  8  9  2  0
 11 10  1  0
 12 11  1  6
 13  8  1  0
 13 12  1  0
 14 12  1  0
 14 19  1  0
 15 14  2  0
 16 17  1  0
 18 19  1  0
 18 17  1  1
 20 18  1  0
 20 21  1  0
 22 20  2  0
M  END
$$$$
