KSS.pdb
     RDKit          3D

 22 21  0  0  1  0  0  0  0  0999 V2000
    9.8018  -16.8687   14.9047 N   0  0  0  0  0  0  0  0  0  0  0  0
    9.7480  -16.3842   16.3024 C   0  0  1  0  0  0  0  0  0  0  0  0
    8.5844  -17.0400   16.9281 C   0  0  0  0  0  0  0  0  0  0  0  0
    7.6532  -17.7986   16.0597 C   0  0  0  0  0  0  0  0  0  0  0  0
    6.4212  -18.3418   16.6761 C   0  0  0  0  0  0  0  0  0  0  0  0
    5.6243  -19.1098   15.6382 C   0  0  0  0  0  0  0  0  0  0  0  0
    4.3758  -19.5326   16.2181 N   0  0  0  0  0  0  0  0  0  0  0  0
   11.0442  -16.6289   16.9512 C   0  0  0  0  0  0  0  0  0  0  0  0
   11.7334  -17.6639   16.7882 O   0  0  0  0  0  0  0  0  0  0  0  0
   13.2025  -13.6331   18.7551 O   0  0  0  0  0  0  0  0  0  0  0  0
   13.8058  -14.8347   18.3685 C   0  0  0  0  0  0  0  0  0  0  0  0
   12.8375  -15.9794   18.5569 C   0  0  2  0  0  0  0  0  0  0  0  0
   11.6314  -15.6663   17.8537 N   0  0  0  0  0  0  0  0  0  0  0  0
   12.5784  -16.2149   20.0187 C   0  0  0  0  0  0  0  0  0  0  0  0
   11.5949  -15.6555   20.5249 O   0  0  0  0  0  0  0  0  0  0  0  0
   12.1490  -19.3693   21.9273 O   0  0  0  0  0  0  0  0  0  0  0  0
   13.2466  -18.7128   22.4981 C   0  0  0  0  0  0  0  0  0  0  0  0
   13.2118  -17.2366   22.2324 C   0  0  2  0  0  0  0  0  0  0  0  0
   13.4186  -17.0425   20.8000 N   0  0  0  0  0  0  0  0  0  0  0  0
   14.3087  -16.6013   23.0125 C   0  0  0  0  0  0  0  0  0  0  0  0
   14.2434  -16.5207   24.3956 O   0  0  0  0  0  0  0  0  0  0  0  0
   15.3222  -16.1209   22.4487 O   0  0  0  0  0  0  0  0  0  0  0  0
  2  1  1  6
  2  3  1  0
  2  8  1  0
  3  4  1  0
  5  6  1  0
  5  4  1  0
  6  7  1  0
  8  9  2  0
 11 10  1  0
 12 11  1  1
 13  8  1  0
 13 12  1  0
 14 12  1  0
 14 19  1  0
 15 14  2  0
 16 17  1  0
 18 19  1  0
 18 17  1  6
 20 18  1  0
 20 21  1  0
 22 20  2  0
M  END
$$$$
