DYL.pdb
     RDKit          3D

 29 29  0  0  1  0  0  0  0  0999 V2000
   25.7961  -21.9875  -16.8688 N   0  0  0  0  0  0  0  0  0  0  0  0
   25.0707  -20.9874  -16.1108 C   0  0  1  0  0  0  0  0  0  0  0  0
   23.6133  -21.0637  -16.5214 C   0  0  0  0  0  0  0  0  0  0  0  0
   23.2070  -19.8812  -17.3073 C   0  0  0  0  0  0  0  0  0  0  0  0
   23.9793  -19.0186  -17.7579 O   0  0  0  0  0  0  0  0  0  0  0  0
   25.1928  -21.2821  -14.6645 C   0  0  0  0  0  0  0  0  0  0  0  0
   24.6588  -22.2823  -14.1413 O   0  0  0  0  0  0  0  0  0  0  0  0
   21.8473  -19.7180  -17.5654 O   0  0  0  0  0  0  0  0  0  0  0  0
   27.5521  -20.4886   -6.1442 O   0  0  0  0  0  0  0  0  0  0  0  0
   27.4632  -20.3356   -7.5161 C   0  0  0  0  0  0  0  0  0  0  0  0
   28.0823  -21.1803   -8.4089 C   0  0  0  0  0  0  0  0  0  0  0  0
   27.9778  -21.0057   -9.7729 C   0  0  0  0  0  0  0  0  0  0  0  0
   27.2498  -19.9789  -10.2924 C   0  0  0  0  0  0  0  0  0  0  0  0
   27.0797  -19.7119  -11.7351 C   0  0  0  0  0  0  0  0  0  0  0  0
   26.0638  -20.5937  -12.3955 C   0  0  2  0  0  0  0  0  0  0  0  0
   25.9300  -20.4338  -13.7933 N   0  0  0  0  0  0  0  0  0  0  0  0
   24.7574  -20.3225  -11.7432 C   0  0  0  0  0  0  0  0  0  0  0  0
   24.1998  -19.2238  -11.9734 O   0  0  0  0  0  0  0  0  0  0  0  0
   26.6218  -19.1216   -9.4066 C   0  0  0  0  0  0  0  0  0  0  0  0
   26.7197  -19.2874   -8.0264 C   0  0  0  0  0  0  0  0  0  0  0  0
   19.7205  -20.4676  -10.7217 C   0  0  0  0  0  0  0  0  0  0  0  0
   20.4183  -21.7916  -10.5909 C   0  0  1  0  0  0  0  0  0  0  0  0
   19.6140  -22.8550  -11.3153 C   0  0  0  0  0  0  0  0  0  0  0  0
   21.8463  -21.8039  -10.8769 C   0  0  0  0  0  0  0  0  0  0  0  0
   22.8093  -20.9147  -10.2200 C   0  0  2  0  0  0  0  0  0  0  0  0
   24.1113  -21.2238  -10.8848 N   0  0  0  0  0  0  0  0  0  0  0  0
   23.0514  -21.0135   -8.7957 C   0  0  0  0  0  0  0  0  0  0  0  0
   22.4697  -20.2248   -7.9817 O   0  0  0  0  0  0  0  0  0  0  0  0
   23.8976  -21.9315   -8.1546 O   0  0  0  0  0  0  0  0  0  0  0  0
  2  1  1  6
  3  2  1  0
  4  3  1  0
  5  4  2  0
  6  2  1  0
  7  6  2  0
  8  4  1  0
  9 10  1  0
 10 11  2  0
 11 12  1  0
 13 12  2  0
 13 14  1  0
 15 14  1  1
 15 17  1  0
 15 16  1  0
 16  6  1  0
 17 18  2  0
 19 13  1  0
 20 10  1  0
 20 19  2  0
 22 21  1  6
 23 22  1  0
 24 22  1  0
 25 24  1  6
 26 25  1  0
 26 17  1  0
 27 25  1  0
 27 29  1  0
 28 27  2  0
M  END
$$$$
