DYL.pdb
     RDKit          3D

 29 29  0  0  1  0  0  0  0  0999 V2000
   22.3397   -1.8629  -16.0121 N   0  0  0  0  0  0  0  0  0  0  0  0
   21.2868   -2.7634  -15.5859 C   0  0  1  0  0  0  0  0  0  0  0  0
   20.1989   -2.7345  -16.6414 C   0  0  0  0  0  0  0  0  0  0  0  0
   19.4660   -1.4523  -16.6319 C   0  0  0  0  0  0  0  0  0  0  0  0
   18.8564   -0.9809  -15.6575 O   0  0  0  0  0  0  0  0  0  0  0  0
   21.8297   -4.1367  -15.4733 C   0  0  0  0  0  0  0  0  0  0  0  0
   23.0252   -4.4023  -15.7176 O   0  0  0  0  0  0  0  0  0  0  0  0
   19.4564   -0.7096  -17.8111 O   0  0  0  0  0  0  0  0  0  0  0  0
   17.8296   -5.3693   -9.6807 O   0  0  0  0  0  0  0  0  0  0  0  0
   18.7980   -5.7717  -10.5828 C   0  0  0  0  0  0  0  0  0  0  0  0
   19.0390   -7.0916  -10.8887 C   0  0  0  0  0  0  0  0  0  0  0  0
   20.0111   -7.4665  -11.7923 C   0  0  0  0  0  0  0  0  0  0  0  0
   20.7770   -6.5335  -12.4223 C   0  0  0  0  0  0  0  0  0  0  0  0
   21.8389   -6.8375  -13.4029 C   0  0  0  0  0  0  0  0  0  0  0  0
   21.4505   -6.5475  -14.8210 C   0  0  2  0  0  0  0  0  0  0  0  0
   21.0100   -5.2294  -15.0781 N   0  0  0  0  0  0  0  0  0  0  0  0
   20.3747   -7.5043  -15.1856 C   0  0  0  0  0  0  0  0  0  0  0  0
   19.1855   -7.1216  -15.0843 O   0  0  0  0  0  0  0  0  0  0  0  0
   20.5458   -5.2024  -12.1245 C   0  0  0  0  0  0  0  0  0  0  0  0
   19.5667   -4.8107  -11.2134 C   0  0  0  0  0  0  0  0  0  0  0  0
   20.9511  -11.1946  -19.3278 C   0  0  0  0  0  0  0  0  0  0  0  0
   20.3275  -10.1854  -18.4060 C   0  0  1  0  0  0  0  0  0  0  0  0
   19.1244   -9.5610  -19.0877 C   0  0  0  0  0  0  0  0  0  0  0  0
   20.0986  -10.6144  -17.0332 C   0  0  0  0  0  0  0  0  0  0  0  0
   19.5103   -9.7512  -16.0045 C   0  0  2  0  0  0  0  0  0  0  0  0
   20.6117   -8.8109  -15.6364 N   0  0  0  0  0  0  0  0  0  0  0  0
   19.0270  -10.3115  -14.7598 C   0  0  0  0  0  0  0  0  0  0  0  0
   19.7930  -10.3978  -13.7454 O   0  0  0  0  0  0  0  0  0  0  0  0
   17.7350  -10.7996  -14.5102 O   0  0  0  0  0  0  0  0  0  0  0  0
  2  1  1  6
  3  2  1  0
  4  3  1  0
  5  4  2  0
  6  2  1  0
  7  6  2  0
  8  4  1  0
  9 10  1  0
 10 11  2  0
 11 12  1  0
 13 12  2  0
 13 14  1  0
 15 14  1  1
 15 17  1  0
 15 16  1  0
 16  6  1  0
 17 18  2  0
 19 13  1  0
 20 10  1  0
 20 19  2  0
 22 21  1  6
 23 22  1  0
 24 22  1  0
 25 24  1  6
 26 25  1  0
 26 17  1  0
 27 25  1  0
 27 29  1  0
 28 27  2  0
M  END
$$$$
