DYL.pdb
     RDKit          3D

 29 29  0  0  1  0  0  0  0  0999 V2000
   26.8192  -20.1339  -17.0542 N   0  0  0  0  0  0  0  0  0  0  0  0
   27.7534  -19.6648  -16.0501 C   0  0  1  0  0  0  0  0  0  0  0  0
   28.3721  -18.3781  -16.5602 C   0  0  0  0  0  0  0  0  0  0  0  0
   29.2882  -18.6264  -17.6917 C   0  0  0  0  0  0  0  0  0  0  0  0
   29.4687  -19.7258  -18.2415 O   0  0  0  0  0  0  0  0  0  0  0  0
   27.0258  -19.3970  -14.7882 C   0  0  0  0  0  0  0  0  0  0  0  0
   26.6195  -18.2563  -14.4830 O   0  0  0  0  0  0  0  0  0  0  0  0
   30.0095  -17.5404  -18.1840 O   0  0  0  0  0  0  0  0  0  0  0  0
   19.4098  -20.3959  -11.4654 O   0  0  0  0  0  0  0  0  0  0  0  0
   20.6601  -20.7068  -11.9689 C   0  0  0  0  0  0  0  0  0  0  0  0
   21.2486  -21.9408  -11.8120 C   0  0  0  0  0  0  0  0  0  0  0  0
   22.4971  -22.2253  -12.3240 C   0  0  0  0  0  0  0  0  0  0  0  0
   23.2016  -21.2846  -13.0117 C   0  0  0  0  0  0  0  0  0  0  0  0
   24.5416  -21.4954  -13.5961 C   0  0  0  0  0  0  0  0  0  0  0  0
   25.5835  -20.5563  -13.0687 C   0  0  2  0  0  0  0  0  0  0  0  0
   26.7519  -20.4339  -13.8544 N   0  0  0  0  0  0  0  0  0  0  0  0
   25.9530  -21.0293  -11.7102 C   0  0  0  0  0  0  0  0  0  0  0  0
   26.5820  -22.1090  -11.6122 O   0  0  0  0  0  0  0  0  0  0  0  0
   22.6222  -20.0393  -13.1773 C   0  0  0  0  0  0  0  0  0  0  0  0
   21.3615  -19.7394  -12.6647 C   0  0  0  0  0  0  0  0  0  0  0  0
   28.3752  -18.6236   -7.5361 C   0  0  0  0  0  0  0  0  0  0  0  0
   27.8426  -19.7075   -8.4297 C   0  0  1  0  0  0  0  0  0  0  0  0
   28.7193  -20.9390   -8.3001 C   0  0  0  0  0  0  0  0  0  0  0  0
   26.4111  -19.9650   -8.3555 C   0  0  0  0  0  0  0  0  0  0  0  0
   25.7269  -20.9673   -9.1782 C   0  0  2  0  0  0  0  0  0  0  0  0
   25.6392  -20.3385  -10.5308 N   0  0  0  0  0  0  0  0  0  0  0  0
   24.3851  -21.4007   -8.8483 C   0  0  0  0  0  0  0  0  0  0  0  0
   23.3767  -20.9082   -9.4513 O   0  0  0  0  0  0  0  0  0  0  0  0
   24.0306  -22.3616   -7.8888 O   0  0  0  0  0  0  0  0  0  0  0  0
  2  1  1  6
  3  2  1  0
  4  3  1  0
  5  4  2  0
  6  2  1  0
  7  6  2  0
  8  4  1  0
  9 10  1  0
 10 11  2  0
 11 12  1  0
 13 12  2  0
 13 14  1  0
 15 14  1  6
 15 17  1  0
 15 16  1  0
 16  6  1  0
 17 18  2  0
 19 13  1  0
 20 10  1  0
 20 19  2  0
 22 21  1  1
 23 22  1  0
 24 22  1  0
 25 24  1  1
 26 25  1  0
 26 17  1  0
 27 25  1  0
 27 29  1  0
 28 27  2  0
M  END
$$$$
