DYL.pdb
     RDKit          3D

 29 29  0  0  1  0  0  0  0  0999 V2000
   18.2437  -14.6972  -19.2464 N   0  0  0  0  0  0  0  0  0  0  0  0
   17.8742  -13.6745  -18.2879 C   0  0  1  0  0  0  0  0  0  0  0  0
   18.1688  -14.2127  -16.9015 C   0  0  0  0  0  0  0  0  0  0  0  0
   17.2275  -15.2863  -16.5237 C   0  0  0  0  0  0  0  0  0  0  0  0
   15.9989  -15.2610  -16.7059 O   0  0  0  0  0  0  0  0  0  0  0  0
   18.6851  -12.4587  -18.5286 C   0  0  0  0  0  0  0  0  0  0  0  0
   19.8924  -12.5149  -18.8426 O   0  0  0  0  0  0  0  0  0  0  0  0
   17.7591  -16.4205  -15.9130 O   0  0  0  0  0  0  0  0  0  0  0  0
   17.4760   -9.9346  -24.9007 O   0  0  0  0  0  0  0  0  0  0  0  0
   17.5695   -9.6958  -23.5414 C   0  0  0  0  0  0  0  0  0  0  0  0
   16.5731  -10.0222  -22.6501 C   0  0  0  0  0  0  0  0  0  0  0  0
   16.6911   -9.7733  -21.2988 C   0  0  0  0  0  0  0  0  0  0  0  0
   17.8110   -9.1885  -20.7909 C   0  0  0  0  0  0  0  0  0  0  0  0
   18.0285   -8.8835  -19.3622 C   0  0  0  0  0  0  0  0  0  0  0  0
   18.8043   -9.9376  -18.6324 C   0  0  2  0  0  0  0  0  0  0  0  0
   18.1243  -11.1571  -18.4133 N   0  0  0  0  0  0  0  0  0  0  0  0
   19.2081   -9.3592  -17.3255 C   0  0  0  0  0  0  0  0  0  0  0  0
   18.3270   -9.2183  -16.4452 O   0  0  0  0  0  0  0  0  0  0  0  0
   18.8211   -8.8548  -21.6754 C   0  0  0  0  0  0  0  0  0  0  0  0
   18.7139   -9.1011  -23.0429 C   0  0  0  0  0  0  0  0  0  0  0  0
   21.7145   -9.3418  -12.7463 C   0  0  0  0  0  0  0  0  0  0  0  0
   22.6278   -9.2502  -13.9356 C   0  0  1  0  0  0  0  0  0  0  0  0
   23.8037  -10.1882  -13.7371 C   0  0  0  0  0  0  0  0  0  0  0  0
   21.9971   -9.3287  -15.2460 C   0  0  0  0  0  0  0  0  0  0  0  0
   20.9104   -8.4424  -15.6738 C   0  0  2  0  0  0  0  0  0  0  0  0
   20.5174   -8.9614  -17.0188 N   0  0  0  0  0  0  0  0  0  0  0  0
   21.1398   -7.0225  -15.8419 C   0  0  0  0  0  0  0  0  0  0  0  0
   21.6167   -6.5661  -16.9316 O   0  0  0  0  0  0  0  0  0  0  0  0
   20.8821   -6.0178  -14.8966 O   0  0  0  0  0  0  0  0  0  0  0  0
  2  1  1  6
  3  2  1  0
  4  3  1  0
  5  4  2  0
  6  2  1  0
  7  6  2  0
  8  4  1  0
  9 10  1  0
 10 11  2  0
 11 12  1  0
 13 12  2  0
 13 14  1  0
 15 14  1  1
 15 17  1  0
 15 16  1  0
 16  6  1  0
 17 18  2  0
 19 13  1  0
 20 10  1  0
 20 19  2  0
 22 21  1  1
 23 22  1  0
 24 22  1  0
 25 24  1  6
 26 25  1  0
 26 17  1  0
 27 25  1  0
 27 29  1  0
 28 27  2  0
M  END
$$$$
