DYL.pdb
     RDKit          3D

 29 29  0  0  1  0  0  0  0  0999 V2000
   24.8183  -25.2696  -16.6511 N   0  0  0  0  0  0  0  0  0  0  0  0
   25.4846  -23.9978  -16.4519 C   0  0  1  0  0  0  0  0  0  0  0  0
   25.0683  -23.0764  -17.5816 C   0  0  0  0  0  0  0  0  0  0  0  0
   25.7425  -23.4289  -18.8474 C   0  0  0  0  0  0  0  0  0  0  0  0
   25.2271  -24.0632  -19.7831 O   0  0  0  0  0  0  0  0  0  0  0  0
   25.0588  -23.4168  -15.1578 C   0  0  0  0  0  0  0  0  0  0  0  0
   23.9445  -23.6640  -14.6513 O   0  0  0  0  0  0  0  0  0  0  0  0
   27.0644  -23.0175  -19.0069 O   0  0  0  0  0  0  0  0  0  0  0  0
   25.5192  -19.8306   -7.0900 O   0  0  0  0  0  0  0  0  0  0  0  0
   25.7622  -20.1967   -8.4016 C   0  0  0  0  0  0  0  0  0  0  0  0
   24.7662  -20.3329   -9.3414 C   0  0  0  0  0  0  0  0  0  0  0  0
   25.0352  -20.6993  -10.6434 C   0  0  0  0  0  0  0  0  0  0  0  0
   26.3113  -20.9427  -11.0516 C   0  0  0  0  0  0  0  0  0  0  0  0
   26.6968  -21.3387  -12.4213 C   0  0  0  0  0  0  0  0  0  0  0  0
   25.5515  -21.8368  -13.2495 C   0  0  2  0  0  0  0  0  0  0  0  0
   25.9047  -22.5418  -14.4224 N   0  0  0  0  0  0  0  0  0  0  0  0
   24.7288  -20.6558  -13.6157 C   0  0  0  0  0  0  0  0  0  0  0  0
   24.3741  -19.8770  -12.6999 O   0  0  0  0  0  0  0  0  0  0  0  0
   27.3230  -20.8096  -10.1174 C   0  0  0  0  0  0  0  0  0  0  0  0
   27.0640  -20.4400   -8.7989 C   0  0  0  0  0  0  0  0  0  0  0  0
   24.8093  -17.4422  -18.5253 C   0  0  0  0  0  0  0  0  0  0  0  0
   23.8108  -18.0221  -17.5642 C   0  0  1  0  0  0  0  0  0  0  0  0
   22.9643  -19.0550  -18.2846 C   0  0  0  0  0  0  0  0  0  0  0  0
   24.3265  -18.4483  -16.2707 C   0  0  0  0  0  0  0  0  0  0  0  0
   23.5179  -19.1522  -15.2706 C   0  0  2  0  0  0  0  0  0  0  0  0
   24.3255  -20.3612  -14.9261 N   0  0  0  0  0  0  0  0  0  0  0  0
   22.1928  -19.6343  -15.6005 C   0  0  0  0  0  0  0  0  0  0  0  0
   21.9835  -20.8754  -15.7974 O   0  0  0  0  0  0  0  0  0  0  0  0
   21.0317  -18.8576  -15.7351 O   0  0  0  0  0  0  0  0  0  0  0  0
  2  1  1  6
  3  2  1  0
  4  3  1  0
  5  4  2  0
  6  2  1  0
  7  6  2  0
  8  4  1  0
  9 10  1  0
 10 11  2  0
 11 12  1  0
 13 12  2  0
 13 14  1  0
 15 14  1  6
 15 17  1  0
 15 16  1  0
 16  6  1  0
 17 18  2  0
 19 13  1  0
 20 10  1  0
 20 19  2  0
 22 21  1  6
 23 22  1  0
 24 22  1  0
 25 24  1  6
 26 25  1  0
 26 17  1  0
 27 25  1  0
 27 29  1  0
 28 27  2  0
M  END
$$$$
