DYL.pdb
     RDKit          3D

 29 29  0  0  1  0  0  0  0  0999 V2000
   27.7791  -18.8348  -19.5634 N   0  0  0  0  0  0  0  0  0  0  0  0
   27.0759  -19.8989  -18.8749 C   0  0  1  0  0  0  0  0  0  0  0  0
   28.1138  -20.7998  -18.2347 C   0  0  0  0  0  0  0  0  0  0  0  0
   28.5150  -21.8958  -19.1397 C   0  0  0  0  0  0  0  0  0  0  0  0
   28.1167  -22.0454  -20.3068 O   0  0  0  0  0  0  0  0  0  0  0  0
   26.2106  -19.3168  -17.8232 C   0  0  0  0  0  0  0  0  0  0  0  0
   26.5656  -18.3364  -17.1360 O   0  0  0  0  0  0  0  0  0  0  0  0
   29.4132  -22.8399  -18.6457 O   0  0  0  0  0  0  0  0  0  0  0  0
   22.0563  -14.3386  -20.0831 O   0  0  0  0  0  0  0  0  0  0  0  0
   22.2069  -15.5244  -19.3870 C   0  0  0  0  0  0  0  0  0  0  0  0
   22.6248  -16.6952  -19.9772 C   0  0  0  0  0  0  0  0  0  0  0  0
   22.7668  -17.8647  -19.2602 C   0  0  0  0  0  0  0  0  0  0  0  0
   22.4955  -17.9043  -17.9264 C   0  0  0  0  0  0  0  0  0  0  0  0
   22.6182  -19.1063  -17.0768 C   0  0  0  0  0  0  0  0  0  0  0  0
   24.0108  -19.3549  -16.5822 C   0  0  2  0  0  0  0  0  0  0  0  0
   24.9226  -19.8496  -17.5420 N   0  0  0  0  0  0  0  0  0  0  0  0
   23.9110  -20.3193  -15.4572 C   0  0  0  0  0  0  0  0  0  0  0  0
   23.8102  -21.5381  -15.7321 O   0  0  0  0  0  0  0  0  0  0  0  0
   22.0744  -16.7345  -17.3197 C   0  0  0  0  0  0  0  0  0  0  0  0
   21.9269  -15.5465  -18.0331 C   0  0  0  0  0  0  0  0  0  0  0  0
   26.8449  -21.2867  -10.5185 C   0  0  0  0  0  0  0  0  0  0  0  0
   25.4796  -21.5414  -11.0912 C   0  0  1  0  0  0  0  0  0  0  0  0
   24.4574  -21.5348   -9.9700 C   0  0  0  0  0  0  0  0  0  0  0  0
   25.1097  -20.7568  -12.2610 C   0  0  0  0  0  0  0  0  0  0  0  0
   23.8520  -20.9401  -12.9920 C   0  0  2  0  0  0  0  0  0  0  0  0
   23.9230  -19.9462  -14.1054 N   0  0  0  0  0  0  0  0  0  0  0  0
   22.5796  -20.7199  -12.3367 C   0  0  0  0  0  0  0  0  0  0  0  0
   22.0914  -19.5469  -12.2433 O   0  0  0  0  0  0  0  0  0  0  0  0
   21.7586  -21.6997  -11.7574 O   0  0  0  0  0  0  0  0  0  0  0  0
  2  1  1  1
  3  2  1  0
  4  3  1  0
  5  4  2  0
  6  2  1  0
  7  6  2  0
  8  4  1  0
  9 10  1  0
 10 11  2  0
 11 12  1  0
 13 12  2  0
 13 14  1  0
 15 14  1  6
 15 17  1  0
 15 16  1  0
 16  6  1  0
 17 18  2  0
 19 13  1  0
 20 10  1  0
 20 19  2  0
 22 21  1  1
 23 22  1  0
 24 22  1  0
 25 24  1  1
 26 25  1  0
 26 17  1  0
 27 25  1  0
 27 29  1  0
 28 27  2  0
M  END
$$$$
