DYL.pdb
     RDKit          3D

 29 29  0  0  1  0  0  0  0  0999 V2000
   31.5397  -33.8296  -17.8097 N   0  0  0  0  0  0  0  0  0  0  0  0
   30.7817  -33.1897  -16.7528 C   0  0  1  0  0  0  0  0  0  0  0  0
   30.3974  -31.8042  -17.2338 C   0  0  0  0  0  0  0  0  0  0  0  0
   31.5048  -30.8423  -17.0618 C   0  0  0  0  0  0  0  0  0  0  0  0
   31.4370  -29.6220  -17.2844 O   0  0  0  0  0  0  0  0  0  0  0  0
   29.5564  -33.9760  -16.4809 C   0  0  0  0  0  0  0  0  0  0  0  0
   28.9223  -34.5555  -17.3872 O   0  0  0  0  0  0  0  0  0  0  0  0
   32.7258  -31.3425  -16.6134 O   0  0  0  0  0  0  0  0  0  0  0  0
   26.7212  -41.1308  -15.4259 O   0  0  0  0  0  0  0  0  0  0  0  0
   27.0177  -39.8483  -15.0010 C   0  0  0  0  0  0  0  0  0  0  0  0
   26.0947  -39.0223  -14.4013 C   0  0  0  0  0  0  0  0  0  0  0  0
   26.4160  -37.7469  -13.9866 C   0  0  0  0  0  0  0  0  0  0  0  0
   27.6732  -37.2523  -14.1572 C   0  0  0  0  0  0  0  0  0  0  0  0
   28.1108  -35.9028  -13.7463 C   0  0  0  0  0  0  0  0  0  0  0  0
   27.8934  -34.8538  -14.7942 C   0  0  2  0  0  0  0  0  0  0  0  0
   29.0375  -34.1109  -15.1639 N   0  0  0  0  0  0  0  0  0  0  0  0
   26.8526  -33.9281  -14.2790 C   0  0  0  0  0  0  0  0  0  0  0  0
   27.1603  -33.1591  -13.3383 O   0  0  0  0  0  0  0  0  0  0  0  0
   28.6117  -38.0717  -14.7587 C   0  0  0  0  0  0  0  0  0  0  0  0
   28.2994  -39.3622  -15.1822 C   0  0  0  0  0  0  0  0  0  0  0  0
   22.2436  -30.7577  -14.7872 C   0  0  0  0  0  0  0  0  0  0  0  0
   22.1747  -32.2417  -15.0109 C   0  0  1  0  0  0  0  0  0  0  0  0
   21.1222  -32.5411  -16.0619 C   0  0  0  0  0  0  0  0  0  0  0  0
   23.4443  -32.9288  -15.2033 C   0  0  0  0  0  0  0  0  0  0  0  0
   24.4849  -33.0067  -14.1734 C   0  0  2  0  0  0  0  0  0  0  0  0
   25.5456  -33.8642  -14.7834 N   0  0  0  0  0  0  0  0  0  0  0  0
   24.1973  -33.5839  -12.8769 C   0  0  0  0  0  0  0  0  0  0  0  0
   24.1492  -34.8479  -12.7247 O   0  0  0  0  0  0  0  0  0  0  0  0
   23.9535  -32.8819  -11.6863 O   0  0  0  0  0  0  0  0  0  0  0  0
  2  1  1  6
  3  2  1  0
  4  3  1  0
  5  4  2  0
  6  2  1  0
  7  6  2  0
  8  4  1  0
  9 10  1  0
 10 11  2  0
 11 12  1  0
 13 12  2  0
 13 14  1  0
 15 14  1  1
 15 17  1  0
 15 16  1  0
 16  6  1  0
 17 18  2  0
 19 13  1  0
 20 10  1  0
 20 19  2  0
 22 21  1  6
 23 22  1  0
 24 22  1  0
 25 24  1  6
 26 25  1  0
 26 17  1  0
 27 25  1  0
 27 29  1  0
 28 27  2  0
M  END
$$$$
