DYL.pdb
     RDKit          3D

 29 29  0  0  1  0  0  0  0  0999 V2000
   25.5851  -20.4614  -16.3482 N   0  0  0  0  0  0  0  0  0  0  0  0
   26.6426  -20.2538  -15.3789 C   0  0  1  0  0  0  0  0  0  0  0  0
   27.5148  -19.1205  -15.8823 C   0  0  0  0  0  0  0  0  0  0  0  0
   28.4347  -19.5731  -16.9453 C   0  0  0  0  0  0  0  0  0  0  0  0
   28.4808  -20.7229  -17.4135 O   0  0  0  0  0  0  0  0  0  0  0  0
   26.0484  -19.8786  -14.0752 C   0  0  0  0  0  0  0  0  0  0  0  0
   25.5707  -18.7446  -13.8629 O   0  0  0  0  0  0  0  0  0  0  0  0
   29.3242  -18.6355  -17.4666 O   0  0  0  0  0  0  0  0  0  0  0  0
   19.8232  -19.2010  -15.0391 O   0  0  0  0  0  0  0  0  0  0  0  0
   20.8362  -19.7801  -14.2961 C   0  0  0  0  0  0  0  0  0  0  0  0
   21.7223  -20.6951  -14.8170 C   0  0  0  0  0  0  0  0  0  0  0  0
   22.7240  -21.2580  -14.0544 C   0  0  0  0  0  0  0  0  0  0  0  0
   22.8748  -20.9253  -12.7426 C   0  0  0  0  0  0  0  0  0  0  0  0
   23.9147  -21.4733  -11.8483 C   0  0  0  0  0  0  0  0  0  0  0  0
   25.1834  -20.6757  -11.8397 C   0  0  2  0  0  0  0  0  0  0  0  0
   25.9919  -20.7986  -12.9924 N   0  0  0  0  0  0  0  0  0  0  0  0
   25.9605  -21.1005  -10.6476 C   0  0  0  0  0  0  0  0  0  0  0  0
   26.3974  -22.2750  -10.6158 O   0  0  0  0  0  0  0  0  0  0  0  0
   21.9909  -20.0065  -12.2054 C   0  0  0  0  0  0  0  0  0  0  0  0
   20.9746  -19.4306  -12.9654 C   0  0  0  0  0  0  0  0  0  0  0  0
   28.7941  -18.2649   -6.6854 C   0  0  0  0  0  0  0  0  0  0  0  0
   28.2548  -19.3886   -7.5242 C   0  0  1  0  0  0  0  0  0  0  0  0
   29.1789  -20.5866   -7.4100 C   0  0  0  0  0  0  0  0  0  0  0  0
   26.8386  -19.6915   -7.3706 C   0  0  0  0  0  0  0  0  0  0  0  0
   26.1470  -20.7314   -8.1385 C   0  0  2  0  0  0  0  0  0  0  0  0
   26.2341  -20.2646   -9.5553 N   0  0  0  0  0  0  0  0  0  0  0  0
   24.7491  -21.0206   -7.8956 C   0  0  0  0  0  0  0  0  0  0  0  0
   24.4062  -21.8800   -7.0197 O   0  0  0  0  0  0  0  0  0  0  0  0
   23.6506  -20.4324   -8.5412 O   0  0  0  0  0  0  0  0  0  0  0  0
  2  1  1  6
  3  2  1  0
  4  3  1  0
  5  4  2  0
  6  2  1  0
  7  6  2  0
  8  4  1  0
  9 10  1  0
 10 11  2  0
 11 12  1  0
 13 12  2  0
 13 14  1  0
 15 14  1  6
 15 17  1  0
 15 16  1  0
 16  6  1  0
 17 18  2  0
 19 13  1  0
 20 10  1  0
 20 19  2  0
 22 21  1  1
 23 22  1  0
 24 22  1  0
 25 24  1  1
 26 25  1  0
 26 17  1  0
 27 25  1  0
 27 29  1  0
 28 27  2  0
M  END
$$$$
