DYL.pdb
     RDKit          3D

 29 29  0  0  1  0  0  0  0  0999 V2000
   21.9307  -21.1153  -17.4135 N   0  0  0  0  0  0  0  0  0  0  0  0
   21.4155  -20.6851  -16.1288 C   0  0  1  0  0  0  0  0  0  0  0  0
   19.9433  -21.0441  -16.0779 C   0  0  0  0  0  0  0  0  0  0  0  0
   19.1494  -20.2168  -17.0087 C   0  0  0  0  0  0  0  0  0  0  0  0
   19.6118  -19.5485  -17.9484 O   0  0  0  0  0  0  0  0  0  0  0  0
   22.1352  -21.3960  -15.0471 C   0  0  0  0  0  0  0  0  0  0  0  0
   21.7495  -21.3671  -13.8597 O   0  0  0  0  0  0  0  0  0  0  0  0
   17.7692  -20.1819  -16.8191 O   0  0  0  0  0  0  0  0  0  0  0  0
   19.6836  -27.6379  -14.7211 O   0  0  0  0  0  0  0  0  0  0  0  0
   20.8016  -26.8252  -14.7770 C   0  0  0  0  0  0  0  0  0  0  0  0
   21.1918  -26.1601  -15.9168 C   0  0  0  0  0  0  0  0  0  0  0  0
   22.3114  -25.3554  -15.9462 C   0  0  0  0  0  0  0  0  0  0  0  0
   23.0809  -25.1876  -14.8354 C   0  0  0  0  0  0  0  0  0  0  0  0
   24.2944  -24.3480  -14.7699 C   0  0  0  0  0  0  0  0  0  0  0  0
   24.0247  -22.9294  -14.3692 C   0  0  2  0  0  0  0  0  0  0  0  0
   23.3102  -22.1527  -15.3093 N   0  0  0  0  0  0  0  0  0  0  0  0
   25.3391  -22.2913  -14.1031 C   0  0  0  0  0  0  0  0  0  0  0  0
   26.2494  -22.4393  -14.9518 O   0  0  0  0  0  0  0  0  0  0  0  0
   22.7007  -25.8503  -13.6821 C   0  0  0  0  0  0  0  0  0  0  0  0
   21.5716  -26.6662  -13.6396 C   0  0  0  0  0  0  0  0  0  0  0  0
   26.4510  -17.5930  -14.5214 C   0  0  0  0  0  0  0  0  0  0  0  0
   26.6424  -19.0748  -14.3640 C   0  0  1  0  0  0  0  0  0  0  0  0
   27.6429  -19.5625  -15.3952 C   0  0  0  0  0  0  0  0  0  0  0  0
   26.8738  -19.5593  -13.0102 C   0  0  0  0  0  0  0  0  0  0  0  0
   26.9792  -20.9810  -12.6681 C   0  0  2  0  0  0  0  0  0  0  0  0
   25.6213  -21.5330  -12.9577 N   0  0  0  0  0  0  0  0  0  0  0  0
   27.3010  -21.3925  -11.3175 C   0  0  0  0  0  0  0  0  0  0  0  0
   26.4078  -21.8965  -10.5617 O   0  0  0  0  0  0  0  0  0  0  0  0
   28.5560  -21.3057  -10.6952 O   0  0  0  0  0  0  0  0  0  0  0  0
  2  1  1  6
  3  2  1  0
  4  3  1  0
  5  4  2  0
  6  2  1  0
  7  6  2  0
  8  4  1  0
  9 10  1  0
 10 11  2  0
 11 12  1  0
 13 12  2  0
 13 14  1  0
 15 14  1  6
 15 17  1  0
 15 16  1  0
 16  6  1  0
 17 18  2  0
 19 13  1  0
 20 10  1  0
 20 19  2  0
 22 21  1  1
 23 22  1  0
 24 22  1  0
 25 24  1  1
 26 25  1  0
 26 17  1  0
 27 25  1  0
 27 29  1  0
 28 27  2  0
M  END
$$$$
