DYL.pdb
     RDKit          3D

 29 29  0  0  1  0  0  0  0  0999 V2000
   27.4044  -23.0440  -16.4831 N   0  0  0  0  0  0  0  0  0  0  0  0
   26.9046  -21.7248  -16.1501 C   0  0  1  0  0  0  0  0  0  0  0  0
   26.0696  -21.2387  -17.3184 C   0  0  0  0  0  0  0  0  0  0  0  0
   26.8919  -20.5205  -18.3130 C   0  0  0  0  0  0  0  0  0  0  0  0
   26.4758  -20.0546  -19.3869 O   0  0  0  0  0  0  0  0  0  0  0  0
   26.0569  -21.8112  -14.9388 C   0  0  0  0  0  0  0  0  0  0  0  0
   25.5061  -22.8750  -14.5860 O   0  0  0  0  0  0  0  0  0  0  0  0
   28.2448  -20.3508  -18.0252 O   0  0  0  0  0  0  0  0  0  0  0  0
   28.4261  -21.3944   -7.5197 O   0  0  0  0  0  0  0  0  0  0  0  0
   27.7180  -20.9635   -8.6271 C   0  0  0  0  0  0  0  0  0  0  0  0
   28.2375  -20.9701   -9.9014 C   0  0  0  0  0  0  0  0  0  0  0  0
   27.5102  -20.5348  -10.9892 C   0  0  0  0  0  0  0  0  0  0  0  0
   26.2364  -20.0771  -10.8406 C   0  0  0  0  0  0  0  0  0  0  0  0
   25.3812  -19.5921  -11.9428 C   0  0  0  0  0  0  0  0  0  0  0  0
   25.0302  -20.6507  -12.9438 C   0  0  2  0  0  0  0  0  0  0  0  0
   25.8265  -20.6781  -14.1111 N   0  0  0  0  0  0  0  0  0  0  0  0
   23.6097  -20.4416  -13.3235 C   0  0  0  0  0  0  0  0  0  0  0  0
   23.3212  -19.4194  -13.9890 O   0  0  0  0  0  0  0  0  0  0  0  0
   25.7010  -20.0648   -9.5650 C   0  0  0  0  0  0  0  0  0  0  0  0
   26.4257  -20.5019   -8.4578 C   0  0  0  0  0  0  0  0  0  0  0  0
   20.9473  -24.2023  -15.6785 C   0  0  0  0  0  0  0  0  0  0  0  0
   21.3271  -22.8108  -15.2585 C   0  0  1  0  0  0  0  0  0  0  0  0
   21.1915  -21.8752  -16.4453 C   0  0  0  0  0  0  0  0  0  0  0  0
   20.7331  -22.3209  -14.0223 C   0  0  0  0  0  0  0  0  0  0  0  0
   21.1483  -21.0788  -13.3633 C   0  0  2  0  0  0  0  0  0  0  0  0
   22.5724  -21.3210  -12.9811 N   0  0  0  0  0  0  0  0  0  0  0  0
   20.4812  -20.6231  -12.1615 C   0  0  0  0  0  0  0  0  0  0  0  0
   19.3026  -20.1424  -12.2153 O   0  0  0  0  0  0  0  0  0  0  0  0
   20.9999  -20.6499  -10.8577 O   0  0  0  0  0  0  0  0  0  0  0  0
  2  1  1  6
  3  2  1  0
  4  3  1  0
  5  4  2  0
  6  2  1  0
  7  6  2  0
  8  4  1  0
  9 10  1  0
 10 11  2  0
 11 12  1  0
 13 12  2  0
 13 14  1  0
 15 14  1  1
 15 17  1  0
 15 16  1  0
 16  6  1  0
 17 18  2  0
 19 13  1  0
 20 10  1  0
 20 19  2  0
 22 21  1  6
 23 22  1  0
 24 22  1  0
 25 24  1  1
 26 25  1  0
 26 17  1  0
 27 25  1  0
 27 29  1  0
 28 27  2  0
M  END
$$$$
