DYL.pdb
     RDKit          3D

 29 29  0  0  1  0  0  0  0  0999 V2000
   21.7490  -12.9298  -16.9181 N   0  0  0  0  0  0  0  0  0  0  0  0
   21.4033  -11.5703  -17.2834 C   0  0  1  0  0  0  0  0  0  0  0  0
   19.8957  -11.4371  -17.1939 C   0  0  0  0  0  0  0  0  0  0  0  0
   19.2238  -12.0831  -18.3395 C   0  0  0  0  0  0  0  0  0  0  0  0
   19.7965  -12.5462  -19.3400 O   0  0  0  0  0  0  0  0  0  0  0  0
   22.0398  -10.6288  -16.3337 C   0  0  0  0  0  0  0  0  0  0  0  0
   22.0247  -10.8162  -15.0992 O   0  0  0  0  0  0  0  0  0  0  0  0
   17.8344  -12.1822  -18.2963 O   0  0  0  0  0  0  0  0  0  0  0  0
   28.1426  -12.8191  -16.3038 O   0  0  0  0  0  0  0  0  0  0  0  0
   27.3202  -11.7084  -16.3628 C   0  0  0  0  0  0  0  0  0  0  0  0
   26.6742  -11.3110  -17.5111 C   0  0  0  0  0  0  0  0  0  0  0  0
   25.8592  -10.1989  -17.5435 C   0  0  0  0  0  0  0  0  0  0  0  0
   25.6614   -9.4446  -16.4272 C   0  0  0  0  0  0  0  0  0  0  0  0
   24.8087   -8.2402  -16.3642 C   0  0  0  0  0  0  0  0  0  0  0  0
   23.3911   -8.5256  -15.9709 C   0  0  2  0  0  0  0  0  0  0  0  0
   22.7050   -9.4556  -16.7844 N   0  0  0  0  0  0  0  0  0  0  0  0
   22.6631   -7.2311  -15.9841 C   0  0  0  0  0  0  0  0  0  0  0  0
   22.4143   -6.7055  -17.0945 O   0  0  0  0  0  0  0  0  0  0  0  0
   26.3046   -9.8323  -15.2654 C   0  0  0  0  0  0  0  0  0  0  0  0
   27.1306  -10.9538  -15.2198 C   0  0  0  0  0  0  0  0  0  0  0  0
   17.7768   -6.2707  -15.8957 C   0  0  0  0  0  0  0  0  0  0  0  0
   19.1760   -5.7496  -16.0619 C   0  0  1  0  0  0  0  0  0  0  0  0
   19.1294   -4.4051  -16.7635 C   0  0  0  0  0  0  0  0  0  0  0  0
   20.0300   -5.7953  -14.8830 C   0  0  0  0  0  0  0  0  0  0  0  0
   21.4154   -5.3158  -14.8701 C   0  0  2  0  0  0  0  0  0  0  0  0
   22.2379   -6.5625  -14.8270 N   0  0  0  0  0  0  0  0  0  0  0  0
   21.8961   -4.4793  -13.7902 C   0  0  0  0  0  0  0  0  0  0  0  0
   22.3619   -4.9986  -12.7242 O   0  0  0  0  0  0  0  0  0  0  0  0
   21.9206   -3.0763  -13.7688 O   0  0  0  0  0  0  0  0  0  0  0  0
  2  1  1  1
  3  2  1  0
  4  3  1  0
  5  4  2  0
  6  2  1  0
  7  6  2  0
  8  4  1  0
  9 10  1  0
 10 11  2  0
 11 12  1  0
 13 12  2  0
 13 14  1  0
 15 14  1  6
 15 17  1  0
 15 16  1  0
 16  6  1  0
 17 18  2  0
 19 13  1  0
 20 10  1  0
 20 19  2  0
 22 21  1  1
 23 22  1  0
 24 22  1  0
 25 24  1  1
 26 25  1  0
 26 17  1  0
 27 25  1  0
 27 29  1  0
 28 27  2  0
M  END
$$$$
