DYL.pdb
     RDKit          3D

 29 29  0  0  1  0  0  0  0  0999 V2000
   27.8258  -21.8756  -15.2611 N   0  0  0  0  0  0  0  0  0  0  0  0
   28.0074  -20.4483  -15.0856 C   0  0  1  0  0  0  0  0  0  0  0  0
   27.5997  -19.7684  -16.3780 C   0  0  0  0  0  0  0  0  0  0  0  0
   28.3494  -20.3021  -17.5331 C   0  0  0  0  0  0  0  0  0  0  0  0
   27.8438  -20.8579  -18.5225 O   0  0  0  0  0  0  0  0  0  0  0  0
   27.1402  -19.9740  -13.9827 C   0  0  0  0  0  0  0  0  0  0  0  0
   26.9127  -18.7615  -13.7888 O   0  0  0  0  0  0  0  0  0  0  0  0
   29.7367  -20.1725  -17.5134 O   0  0  0  0  0  0  0  0  0  0  0  0
   21.4562  -18.5732  -16.7319 O   0  0  0  0  0  0  0  0  0  0  0  0
   22.1282  -19.2378  -15.7218 C   0  0  0  0  0  0  0  0  0  0  0  0
   22.8665  -20.3796  -15.9341 C   0  0  0  0  0  0  0  0  0  0  0  0
   23.5274  -21.0235  -14.9092 C   0  0  0  0  0  0  0  0  0  0  0  0
   23.4732  -20.5475  -13.6346 C   0  0  0  0  0  0  0  0  0  0  0  0
   24.1463  -21.1663  -12.4746 C   0  0  0  0  0  0  0  0  0  0  0  0
   25.4873  -20.5716  -12.1684 C   0  0  2  0  0  0  0  0  0  0  0  0
   26.5188  -20.8830  -13.0830 N   0  0  0  0  0  0  0  0  0  0  0  0
   25.8753  -21.0391  -10.8132 C   0  0  0  0  0  0  0  0  0  0  0  0
   26.3784  -22.1820  -10.7049 O   0  0  0  0  0  0  0  0  0  0  0  0
   22.7346  -19.4002  -13.4063 C   0  0  0  0  0  0  0  0  0  0  0  0
   22.0622  -18.7404  -14.4333 C   0  0  0  0  0  0  0  0  0  0  0  0
   28.4390  -18.4383   -6.7998 C   0  0  0  0  0  0  0  0  0  0  0  0
   27.8921  -19.5481   -7.6519 C   0  0  1  0  0  0  0  0  0  0  0  0
   28.8266  -20.7412   -7.5802 C   0  0  0  0  0  0  0  0  0  0  0  0
   26.4812  -19.8647   -7.4785 C   0  0  0  0  0  0  0  0  0  0  0  0
   25.7748  -20.8704   -8.2779 C   0  0  2  0  0  0  0  0  0  0  0  0
   25.7117  -20.2766   -9.6476 N   0  0  0  0  0  0  0  0  0  0  0  0
   24.4200  -21.2584   -7.9449 C   0  0  0  0  0  0  0  0  0  0  0  0
   24.1830  -21.9744   -6.9181 O   0  0  0  0  0  0  0  0  0  0  0  0
   23.2568  -20.9195   -8.6533 O   0  0  0  0  0  0  0  0  0  0  0  0
  2  1  1  6
  3  2  1  0
  4  3  1  0
  5  4  2  0
  6  2  1  0
  7  6  2  0
  8  4  1  0
  9 10  1  0
 10 11  2  0
 11 12  1  0
 13 12  2  0
 13 14  1  0
 15 14  1  6
 15 17  1  0
 15 16  1  0
 16  6  1  0
 17 18  2  0
 19 13  1  0
 20 10  1  0
 20 19  2  0
 22 21  1  1
 23 22  1  0
 24 22  1  0
 25 24  1  1
 26 25  1  0
 26 17  1  0
 27 25  1  0
 27 29  1  0
 28 27  2  0
M  END
$$$$
