DYL.pdb
     RDKit          3D

 29 29  0  0  1  0  0  0  0  0999 V2000
   27.5425  -23.0833  -17.4475 N   0  0  0  0  0  0  0  0  0  0  0  0
   27.7813  -21.8966  -16.6502 C   0  0  1  0  0  0  0  0  0  0  0  0
   27.4698  -20.6897  -17.5133 C   0  0  0  0  0  0  0  0  0  0  0  0
   28.5744  -20.3887  -18.4463 C   0  0  0  0  0  0  0  0  0  0  0  0
   29.6286  -21.0386  -18.5443 O   0  0  0  0  0  0  0  0  0  0  0  0
   26.8837  -21.9066  -15.4721 C   0  0  0  0  0  0  0  0  0  0  0  0
   25.8440  -22.5971  -15.4330 O   0  0  0  0  0  0  0  0  0  0  0  0
   28.4235  -19.2865  -19.2856 O   0  0  0  0  0  0  0  0  0  0  0  0
   23.8508  -20.2979   -7.2926 O   0  0  0  0  0  0  0  0  0  0  0  0
   24.6539  -20.3796   -8.4158 C   0  0  0  0  0  0  0  0  0  0  0  0
   25.4544  -21.4647   -8.6908 C   0  0  0  0  0  0  0  0  0  0  0  0
   26.2464  -21.5213   -9.8185 C   0  0  0  0  0  0  0  0  0  0  0  0
   26.2655  -20.4936  -10.7116 C   0  0  0  0  0  0  0  0  0  0  0  0
   27.0784  -20.4635  -11.9444 C   0  0  0  0  0  0  0  0  0  0  0  0
   26.4147  -21.1143  -13.1199 C   0  0  2  0  0  0  0  0  0  0  0  0
   27.1639  -21.1242  -14.3182 N   0  0  0  0  0  0  0  0  0  0  0  0
   25.1318  -20.4020  -13.3490 C   0  0  0  0  0  0  0  0  0  0  0  0
   25.1688  -19.2918  -13.9296 O   0  0  0  0  0  0  0  0  0  0  0  0
   25.4655  -19.3961  -10.4480 C   0  0  0  0  0  0  0  0  0  0  0  0
   24.6610  -19.3268   -9.3122 C   0  0  0  0  0  0  0  0  0  0  0  0
   21.6747  -20.2934  -17.1902 C   0  0  0  0  0  0  0  0  0  0  0  0
   21.5101  -20.0252  -15.7212 C   0  0  1  0  0  0  0  0  0  0  0  0
   20.1007  -20.3965  -15.2994 C   0  0  0  0  0  0  0  0  0  0  0  0
   22.5622  -20.5266  -14.8480 C   0  0  0  0  0  0  0  0  0  0  0  0
   22.5919  -20.2911  -13.4012 C   0  0  2  0  0  0  0  0  0  0  0  0
   23.8814  -20.8989  -12.9537 N   0  0  0  0  0  0  0  0  0  0  0  0
   21.5663  -20.8460  -12.5427 C   0  0  0  0  0  0  0  0  0  0  0  0
   21.5967  -22.0738  -12.2043 O   0  0  0  0  0  0  0  0  0  0  0  0
   20.4731  -20.1567  -11.9953 O   0  0  0  0  0  0  0  0  0  0  0  0
  2  1  1  6
  3  2  1  0
  4  3  1  0
  5  4  2  0
  6  2  1  0
  7  6  2  0
  8  4  1  0
  9 10  1  0
 10 11  2  0
 11 12  1  0
 13 12  2  0
 13 14  1  0
 15 14  1  1
 15 17  1  0
 15 16  1  0
 16  6  1  0
 17 18  2  0
 19 13  1  0
 20 10  1  0
 20 19  2  0
 22 21  1  6
 23 22  1  0
 24 22  1  0
 25 24  1  6
 26 25  1  0
 26 17  1  0
 27 25  1  0
 27 29  1  0
 28 27  2  0
M  END
$$$$
