DYL.pdb
     RDKit          3D

 29 29  0  0  1  0  0  0  0  0999 V2000
   15.9673  -19.4017    2.4061 N   0  0  0  0  0  0  0  0  0  0  0  0
   15.6544  -18.9057    3.7317 C   0  0  1  0  0  0  0  0  0  0  0  0
   15.5193  -20.1024    4.6527 C   0  0  0  0  0  0  0  0  0  0  0  0
   14.3970  -20.9741    4.2506 C   0  0  0  0  0  0  0  0  0  0  0  0
   13.2708  -20.5807    3.9037 O   0  0  0  0  0  0  0  0  0  0  0  0
   16.7579  -18.0392    4.2058 C   0  0  0  0  0  0  0  0  0  0  0  0
   17.9563  -18.2965    3.9671 O   0  0  0  0  0  0  0  0  0  0  0  0
   14.6174  -22.3501    4.2606 O   0  0  0  0  0  0  0  0  0  0  0  0
   21.2156  -11.0236    7.0847 O   0  0  0  0  0  0  0  0  0  0  0  0
   20.1816  -11.8971    6.7994 C   0  0  0  0  0  0  0  0  0  0  0  0
   19.4214  -12.5058    7.7717 C   0  0  0  0  0  0  0  0  0  0  0  0
   18.3955  -13.3734    7.4606 C   0  0  0  0  0  0  0  0  0  0  0  0
   18.0937  -13.6630    6.1648 C   0  0  0  0  0  0  0  0  0  0  0  0
   17.0160  -14.5767    5.7344 C   0  0  0  0  0  0  0  0  0  0  0  0
   17.4820  -15.9766    5.4717 C   0  0  2  0  0  0  0  0  0  0  0  0
   16.5052  -16.8619    4.9624 N   0  0  0  0  0  0  0  0  0  0  0  0
   18.0087  -16.5114    6.7532 C   0  0  0  0  0  0  0  0  0  0  0  0
   17.1840  -16.8873    7.6190 O   0  0  0  0  0  0  0  0  0  0  0  0
   18.8498  -13.0583    5.1766 C   0  0  0  0  0  0  0  0  0  0  0  0
   19.8889  -12.1799    5.4780 C   0  0  0  0  0  0  0  0  0  0  0  0
   21.6471  -20.2592    6.6904 C   0  0  0  0  0  0  0  0  0  0  0  0
   20.5107  -19.4520    7.2507 C   0  0  1  0  0  0  0  0  0  0  0  0
   19.5989  -20.3612    8.0533 C   0  0  0  0  0  0  0  0  0  0  0  0
   20.8651  -18.2033    7.9113 C   0  0  0  0  0  0  0  0  0  0  0  0
   19.8786  -17.2034    8.3314 C   0  0  2  0  0  0  0  0  0  0  0  0
   19.3747  -16.6203    7.0513 N   0  0  0  0  0  0  0  0  0  0  0  0
   20.2722  -16.0809    9.1572 C   0  0  0  0  0  0  0  0  0  0  0  0
   20.4641  -16.2303   10.4078 O   0  0  0  0  0  0  0  0  0  0  0  0
   20.4886  -14.7630    8.7262 O   0  0  0  0  0  0  0  0  0  0  0  0
  2  1  1  6
  3  2  1  0
  4  3  1  0
  5  4  2  0
  6  2  1  0
  7  6  2  0
  8  4  1  0
  9 10  1  0
 10 11  2  0
 11 12  1  0
 13 12  2  0
 13 14  1  0
 15 14  1  1
 15 17  1  0
 15 16  1  0
 16  6  1  0
 17 18  2  0
 19 13  1  0
 20 10  1  0
 20 19  2  0
 22 21  1  1
 23 22  1  0
 24 22  1  0
 25 24  1  6
 26 25  1  0
 26 17  1  0
 27 25  1  0
 27 29  1  0
 28 27  2  0
M  END
$$$$
