IHS.pdb
     RDKit          3D

 25 25  0  0  1  0  0  0  0  0999 V2000
   19.3664  -11.8912  -20.7723 C   0  0  0  0  0  0  0  0  0  0  0  0
   19.7207  -12.2183  -19.3593 C   0  0  0  0  0  0  0  0  0  0  0  0
   19.3543  -11.1158  -18.3895 C   0  0  2  0  0  0  0  0  0  0  0  0
   19.9692   -9.8392  -18.8728 C   0  0  0  0  0  0  0  0  0  0  0  0
   19.7435  -11.4689  -16.9733 C   0  0  2  0  0  0  0  0  0  0  0  0
   19.0870  -12.7166  -16.6286 N   0  0  0  0  0  0  0  0  0  0  0  0
   19.3248  -10.4320  -16.0181 C   0  0  0  0  0  0  0  0  0  0  0  0
   18.0787  -10.2039  -15.8839 O   0  0  0  0  0  0  0  0  0  0  0  0
   20.1972   -9.6543  -15.2234 N   0  0  0  0  0  0  0  0  0  0  0  0
   19.7570   -8.5597  -14.4052 C   0  0  1  0  0  0  0  0  0  0  0  0
   19.4459   -8.9899  -13.0018 C   0  0  0  0  0  0  0  0  0  0  0  0
   19.0178   -7.8909  -12.1172 C   0  0  0  0  0  0  0  0  0  0  0  0
   18.8734   -6.5681  -12.4673 C   0  0  0  0  0  0  0  0  0  0  0  0
   18.4596   -5.8348  -11.3931 N   0  0  0  0  0  0  0  0  0  0  0  0
   18.3486   -6.7026  -10.3818 C   0  0  0  0  0  0  0  0  0  0  0  0
   18.6762   -7.9267  -10.7950 N   0  0  0  0  0  0  0  0  0  0  0  0
   20.6320   -7.3737  -14.5179 C   0  0  0  0  0  0  0  0  0  0  0  0
   21.8702   -7.5566  -14.3753 O   0  0  0  0  0  0  0  0  0  0  0  0
   21.0910   -2.6158  -15.6461 O   0  0  0  0  0  0  0  0  0  0  0  0
   20.3037   -3.7365  -15.5471 C   0  0  0  0  0  0  0  0  0  0  0  0
   21.0191   -4.9131  -14.9133 C   0  0  2  0  0  0  0  0  0  0  0  0
   20.1727   -6.0598  -14.7746 N   0  0  0  0  0  0  0  0  0  0  0  0
   21.6014   -4.4512  -13.6338 C   0  0  0  0  0  0  0  0  0  0  0  0
   21.2547   -4.9814  -12.4052 O   0  0  0  0  0  0  0  0  0  0  0  0
   22.4524   -3.5325  -13.6649 O   0  0  0  0  0  0  0  0  0  0  0  0
  2  3  1  0
  2  1  1  0
  3  5  1  0
  3  4  1  6
  5  7  1  0
  5  6  1  1
  7  8  2  0
  9 10  1  0
  9  7  1  0
 10 11  1  1
 12 11  1  0
 13 12  2  0
 14 13  1  0
 15 14  1  0
 15 16  2  0
 16 12  1  0
 17 22  1  0
 17 10  1  0
 18 17  2  0
 20 19  1  0
 21 20  1  1
 21 22  1  0
 23 24  1  0
 23 21  1  0
 25 23  2  0
M  END
$$$$
