IHS.pdb
     RDKit          3D

 25 25  0  0  1  0  0  0  0  0999 V2000
   29.2813  -10.8318  -17.1800 C   0  0  0  0  0  0  0  0  0  0  0  0
   28.0234  -11.5996  -17.4192 C   0  0  0  0  0  0  0  0  0  0  0  0
   26.7789  -10.8228  -17.0474 C   0  0  2  0  0  0  0  0  0  0  0  0
   26.8533  -10.4821  -15.5915 C   0  0  0  0  0  0  0  0  0  0  0  0
   25.5225  -11.5724  -17.4232 C   0  0  2  0  0  0  0  0  0  0  0  0
   25.6031  -11.8977  -18.8354 N   0  0  0  0  0  0  0  0  0  0  0  0
   24.3155  -10.7652  -17.1898 C   0  0  0  0  0  0  0  0  0  0  0  0
   24.0946   -9.7749  -17.9599 O   0  0  0  0  0  0  0  0  0  0  0  0
   23.3643  -10.9954  -16.1701 N   0  0  0  0  0  0  0  0  0  0  0  0
   22.1663  -10.2191  -16.0166 C   0  0  1  0  0  0  0  0  0  0  0  0
   20.9948  -11.0601  -15.6022 C   0  0  0  0  0  0  0  0  0  0  0  0
   19.7311  -10.3109  -15.4783 C   0  0  0  0  0  0  0  0  0  0  0  0
   19.5671   -8.9530  -15.6284 C   0  0  0  0  0  0  0  0  0  0  0  0
   18.2592   -8.6092  -15.4445 N   0  0  0  0  0  0  0  0  0  0  0  0
   17.6166   -9.7521  -15.1813 C   0  0  0  0  0  0  0  0  0  0  0  0
   18.4758  -10.7709  -15.1977 N   0  0  0  0  0  0  0  0  0  0  0  0
   22.3764   -8.9968  -15.2122 C   0  0  0  0  0  0  0  0  0  0  0  0
   23.2711   -9.0378  -14.3264 O   0  0  0  0  0  0  0  0  0  0  0  0
   23.7416   -4.8656  -14.6758 O   0  0  0  0  0  0  0  0  0  0  0  0
   23.3858   -6.0757  -15.2187 C   0  0  0  0  0  0  0  0  0  0  0  0
   22.0066   -6.5377  -14.7920 C   0  0  2  0  0  0  0  0  0  0  0  0
   21.6453   -7.7956  -15.3730 N   0  0  0  0  0  0  0  0  0  0  0  0
   21.0513   -5.4500  -15.0987 C   0  0  0  0  0  0  0  0  0  0  0  0
   20.7306   -4.4453  -14.2051 O   0  0  0  0  0  0  0  0  0  0  0  0
   20.5049   -5.4384  -16.2258 O   0  0  0  0  0  0  0  0  0  0  0  0
  2  3  1  0
  2  1  1  0
  3  5  1  0
  3  4  1  1
  5  7  1  0
  5  6  1  6
  7  8  2  0
  9 10  1  0
  9  7  1  0
 10 11  1  1
 12 11  1  0
 13 12  2  0
 14 13  1  0
 15 14  1  0
 15 16  2  0
 16 12  1  0
 17 22  1  0
 17 10  1  0
 18 17  2  0
 20 19  1  0
 21 20  1  6
 21 22  1  0
 23 24  1  0
 23 21  1  0
 25 23  2  0
M  END
$$$$
