IHS.pdb
     RDKit          3D

 25 25  0  0  1  0  0  0  0  0999 V2000
   29.3787  -12.6920  -16.7765 C   0  0  0  0  0  0  0  0  0  0  0  0
   28.1813  -13.1320  -16.0007 C   0  0  0  0  0  0  0  0  0  0  0  0
   27.0001  -12.1996  -16.1607 C   0  0  2  0  0  0  0  0  0  0  0  0
   27.3786  -10.8603  -15.6092 C   0  0  0  0  0  0  0  0  0  0  0  0
   25.7504  -12.7729  -15.5351 C   0  0  2  0  0  0  0  0  0  0  0  0
   25.5516  -14.1047  -16.0767 N   0  0  0  0  0  0  0  0  0  0  0  0
   24.5654  -11.9557  -15.8366 C   0  0  0  0  0  0  0  0  0  0  0  0
   24.0419  -12.0571  -16.9935 O   0  0  0  0  0  0  0  0  0  0  0  0
   23.9468  -11.0537  -14.9416 N   0  0  0  0  0  0  0  0  0  0  0  0
   22.8316  -10.2236  -15.3004 C   0  0  1  0  0  0  0  0  0  0  0  0
   21.5162  -10.8823  -15.0056 C   0  0  0  0  0  0  0  0  0  0  0  0
   20.3443  -10.0238  -15.2571 C   0  0  0  0  0  0  0  0  0  0  0  0
   19.5291   -9.4533  -14.3067 C   0  0  0  0  0  0  0  0  0  0  0  0
   18.5441   -8.7209  -14.9033 N   0  0  0  0  0  0  0  0  0  0  0  0
   18.7503   -8.8385  -16.2194 C   0  0  0  0  0  0  0  0  0  0  0  0
   19.8146   -9.6083  -16.4458 N   0  0  0  0  0  0  0  0  0  0  0  0
   22.9655   -8.8389  -14.8004 C   0  0  0  0  0  0  0  0  0  0  0  0
   23.3207   -8.6924  -13.6008 O   0  0  0  0  0  0  0  0  0  0  0  0
   22.3032   -5.4272  -17.2636 O   0  0  0  0  0  0  0  0  0  0  0  0
   23.2151   -5.3708  -16.2386 C   0  0  0  0  0  0  0  0  0  0  0  0
   22.9059   -6.3370  -15.1122 C   0  0  2  0  0  0  0  0  0  0  0  0
   22.7239   -7.6796  -15.5755 N   0  0  0  0  0  0  0  0  0  0  0  0
   21.7416   -5.8062  -14.3691 C   0  0  0  0  0  0  0  0  0  0  0  0
   21.7852   -4.6504  -13.6121 O   0  0  0  0  0  0  0  0  0  0  0  0
   20.6605   -6.4362  -14.4285 O   0  0  0  0  0  0  0  0  0  0  0  0
  2  3  1  0
  2  1  1  0
  3  5  1  0
  3  4  1  1
  5  7  1  0
  5  6  1  6
  7  8  2  0
  9 10  1  0
  9  7  1  0
 10 11  1  1
 12 11  1  0
 13 12  2  0
 14 13  1  0
 15 14  1  0
 15 16  2  0
 16 12  1  0
 17 22  1  0
 17 10  1  0
 18 17  2  0
 20 19  1  0
 21 20  1  6
 21 22  1  0
 23 24  1  0
 23 21  1  0
 25 23  2  0
M  END
$$$$
