IHS.pdb
     RDKit          3D

 25 25  0  0  1  0  0  0  0  0999 V2000
   28.8294  -19.5837   -6.9135 C   0  0  0  0  0  0  0  0  0  0  0  0
   27.9834  -20.5859   -7.6269 C   0  0  0  0  0  0  0  0  0  0  0  0
   26.9471  -19.9486   -8.5270 C   0  0  2  0  0  0  0  0  0  0  0  0
   26.0582  -19.0865   -7.6857 C   0  0  0  0  0  0  0  0  0  0  0  0
   26.1930  -20.9844   -9.3271 C   0  0  2  0  0  0  0  0  0  0  0  0
   27.1634  -21.9028   -9.8942 N   0  0  0  0  0  0  0  0  0  0  0  0
   25.4216  -20.3737  -10.4202 C   0  0  0  0  0  0  0  0  0  0  0  0
   24.5628  -19.4801  -10.1258 O   0  0  0  0  0  0  0  0  0  0  0  0
   25.5515  -20.6961  -11.7901 N   0  0  0  0  0  0  0  0  0  0  0  0
   24.7435  -20.1080  -12.8209 C   0  0  1  0  0  0  0  0  0  0  0  0
   25.3460  -20.2843  -14.1837 C   0  0  0  0  0  0  0  0  0  0  0  0
   24.4910  -19.8057  -15.2853 C   0  0  0  0  0  0  0  0  0  0  0  0
   23.6008  -20.5585  -16.0162 C   0  0  0  0  0  0  0  0  0  0  0  0
   22.9817  -19.7841  -16.9542 N   0  0  0  0  0  0  0  0  0  0  0  0
   23.4882  -18.5557  -16.8031 C   0  0  0  0  0  0  0  0  0  0  0  0
   24.3849  -18.5518  -15.8170 N   0  0  0  0  0  0  0  0  0  0  0  0
   23.3175  -20.4820  -12.7126 C   0  0  0  0  0  0  0  0  0  0  0  0
   23.0577  -21.6648  -12.3656 O   0  0  0  0  0  0  0  0  0  0  0  0
   20.1478  -17.7200  -13.4201 O   0  0  0  0  0  0  0  0  0  0  0  0
   20.0022  -18.7180  -12.4884 C   0  0  0  0  0  0  0  0  0  0  0  0
   20.8563  -19.9357  -12.7812 C   0  0  2  0  0  0  0  0  0  0  0  0
   22.2367  -19.6051  -12.9699 N   0  0  0  0  0  0  0  0  0  0  0  0
   20.2555  -20.6415  -13.9346 C   0  0  0  0  0  0  0  0  0  0  0  0
   19.0270  -21.2732  -13.8838 O   0  0  0  0  0  0  0  0  0  0  0  0
   20.8924  -20.6683  -15.0130 O   0  0  0  0  0  0  0  0  0  0  0  0
  2  3  1  0
  2  1  1  0
  3  5  1  0
  3  4  1  1
  5  7  1  0
  5  6  1  6
  7  8  2  0
  9 10  1  0
  9  7  1  0
 10 11  1  6
 12 11  1  0
 13 12  2  0
 14 13  1  0
 15 14  1  0
 15 16  2  0
 16 12  1  0
 17 22  1  0
 17 10  1  0
 18 17  2  0
 20 19  1  0
 21 20  1  6
 21 22  1  0
 23 24  1  0
 23 21  1  0
 25 23  2  0
M  END
$$$$
