IHS.pdb
     RDKit          3D

 25 25  0  0  1  0  0  0  0  0999 V2000
   21.7328  -10.3978  -19.5756 C   0  0  0  0  0  0  0  0  0  0  0  0
   21.5054  -10.7470  -18.1419 C   0  0  0  0  0  0  0  0  0  0  0  0
   21.1044   -9.5543  -17.3011 C   0  0  2  0  0  0  0  0  0  0  0  0
   22.1571   -8.4998  -17.4466 C   0  0  0  0  0  0  0  0  0  0  0  0
   20.8457   -9.9475  -15.8658 C   0  0  2  0  0  0  0  0  0  0  0  0
   19.8714  -11.0233  -15.8671 N   0  0  0  0  0  0  0  0  0  0  0  0
   20.3121   -8.8244  -15.0804 C   0  0  0  0  0  0  0  0  0  0  0  0
   19.2289   -8.2781  -15.4690 O   0  0  0  0  0  0  0  0  0  0  0  0
   20.9048   -8.2896  -13.9142 N   0  0  0  0  0  0  0  0  0  0  0  0
   20.4285   -7.1054  -13.2570 C   0  0  1  0  0  0  0  0  0  0  0  0
   20.0727   -7.3576  -11.8213 C   0  0  0  0  0  0  0  0  0  0  0  0
   18.8481   -8.1576  -11.6373 C   0  0  0  0  0  0  0  0  0  0  0  0
   18.0455   -8.6655  -12.6328 C   0  0  0  0  0  0  0  0  0  0  0  0
   16.9991   -9.3562  -12.0936 N   0  0  0  0  0  0  0  0  0  0  0  0
   17.1549   -9.2752  -10.7679 C   0  0  0  0  0  0  0  0  0  0  0  0
   18.2472   -8.5674  -10.4809 N   0  0  0  0  0  0  0  0  0  0  0  0
   21.2979   -5.9329  -13.4908 C   0  0  0  0  0  0  0  0  0  0  0  0
   22.5326   -6.0835  -13.2916 O   0  0  0  0  0  0  0  0  0  0  0  0
   21.7155   -4.1065  -16.6502 O   0  0  0  0  0  0  0  0  0  0  0  0
   22.4943   -3.8719  -15.5439 C   0  0  0  0  0  0  0  0  0  0  0  0
   21.6845   -3.5748  -14.2974 C   0  0  2  0  0  0  0  0  0  0  0  0
   20.8368   -4.6657  -13.9209 N   0  0  0  0  0  0  0  0  0  0  0  0
   20.9517   -2.3098  -14.5261 C   0  0  0  0  0  0  0  0  0  0  0  0
   21.5748   -1.0826  -14.6549 O   0  0  0  0  0  0  0  0  0  0  0  0
   19.7024   -2.3524  -14.6073 O   0  0  0  0  0  0  0  0  0  0  0  0
  2  3  1  0
  2  1  1  0
  3  5  1  0
  3  4  1  1
  5  7  1  0
  5  6  1  6
  7  8  2  0
  9 10  1  0
  9  7  1  0
 10 11  1  1
 12 11  1  0
 13 12  2  0
 14 13  1  0
 15 14  1  0
 15 16  2  0
 16 12  1  0
 17 22  1  0
 17 10  1  0
 18 17  2  0
 20 19  1  0
 21 20  1  6
 21 22  1  0
 23 24  1  0
 23 21  1  0
 25 23  2  0
M  END
$$$$
