IHS.pdb
     RDKit          3D

 25 25  0  0  1  0  0  0  0  0999 V2000
   27.7145  -12.1068  -15.5742 C   0  0  0  0  0  0  0  0  0  0  0  0
   26.2814  -12.5053  -15.4453 C   0  0  0  0  0  0  0  0  0  0  0  0
   25.3276  -11.3467  -15.6407 C   0  0  2  0  0  0  0  0  0  0  0  0
   25.6642  -10.2851  -14.6402 C   0  0  0  0  0  0  0  0  0  0  0  0
   23.8868  -11.7954  -15.5753 C   0  0  2  0  0  0  0  0  0  0  0  0
   23.7095  -12.8670  -16.5381 N   0  0  0  0  0  0  0  0  0  0  0  0
   22.9597  -10.7024  -15.9049 C   0  0  0  0  0  0  0  0  0  0  0  0
   22.8963  -10.3103  -17.1153 O   0  0  0  0  0  0  0  0  0  0  0  0
   22.1197  -10.0385  -14.9824 N   0  0  0  0  0  0  0  0  0  0  0  0
   21.1921   -9.0086  -15.3569 C   0  0  1  0  0  0  0  0  0  0  0  0
   19.7791   -9.5103  -15.4108 C   0  0  0  0  0  0  0  0  0  0  0  0
   19.5594  -10.5830  -16.3980 C   0  0  0  0  0  0  0  0  0  0  0  0
   19.3048  -11.9072  -16.1242 C   0  0  0  0  0  0  0  0  0  0  0  0
   19.1537  -12.6116  -17.2833 N   0  0  0  0  0  0  0  0  0  0  0  0
   19.3146  -11.7247  -18.2711 C   0  0  0  0  0  0  0  0  0  0  0  0
   19.5560  -10.5165  -17.7625 N   0  0  0  0  0  0  0  0  0  0  0  0
   21.3851   -7.7593  -14.5906 C   0  0  0  0  0  0  0  0  0  0  0  0
   21.6044   -7.8703  -13.3551 O   0  0  0  0  0  0  0  0  0  0  0  0
   23.3162   -3.7378  -13.6850 O   0  0  0  0  0  0  0  0  0  0  0  0
   23.0542   -4.8614  -14.4295 C   0  0  0  0  0  0  0  0  0  0  0  0
   21.5893   -5.2510  -14.4249 C   0  0  2  0  0  0  0  0  0  0  0  0
   21.3409   -6.4602  -15.1506 N   0  0  0  0  0  0  0  0  0  0  0  0
   20.8130   -4.0939  -14.9228 C   0  0  0  0  0  0  0  0  0  0  0  0
   20.3752   -3.0653  -14.1098 O   0  0  0  0  0  0  0  0  0  0  0  0
   20.5380   -4.0432  -16.1439 O   0  0  0  0  0  0  0  0  0  0  0  0
  2  3  1  0
  2  1  1  0
  3  5  1  0
  3  4  1  1
  5  7  1  0
  5  6  1  6
  7  8  2  0
  9 10  1  0
  9  7  1  0
 10 11  1  1
 12 11  1  0
 13 12  2  0
 14 13  1  0
 15 14  1  0
 15 16  2  0
 16 12  1  0
 17 22  1  0
 17 10  1  0
 18 17  2  0
 20 19  1  0
 21 20  1  6
 21 22  1  0
 23 24  1  0
 23 21  1  0
 25 23  2  0
M  END
$$$$
