IHS.pdb
     RDKit          3D

 25 25  0  0  1  0  0  0  0  0999 V2000
   22.9820  -14.3097  -17.1810 C   0  0  0  0  0  0  0  0  0  0  0  0
   22.0239  -13.5614  -16.3143 C   0  0  0  0  0  0  0  0  0  0  0  0
   22.0277  -12.0717  -16.5809 C   0  0  2  0  0  0  0  0  0  0  0  0
   23.4416  -11.5842  -16.5122 C   0  0  0  0  0  0  0  0  0  0  0  0
   21.0954  -11.3372  -15.6466 C   0  0  2  0  0  0  0  0  0  0  0  0
   19.8205  -12.0308  -15.6529 N   0  0  0  0  0  0  0  0  0  0  0  0
   20.8813   -9.9459  -16.0725 C   0  0  0  0  0  0  0  0  0  0  0  0
   21.8859   -9.1631  -16.1017 O   0  0  0  0  0  0  0  0  0  0  0  0
   19.6394   -9.3923  -16.4582 N   0  0  0  0  0  0  0  0  0  0  0  0
   19.4495   -7.9980  -16.7428 C   0  0  1  0  0  0  0  0  0  0  0  0
   18.1142   -7.7238  -17.3697 C   0  0  0  0  0  0  0  0  0  0  0  0
   17.8694   -6.3001  -17.6642 C   0  0  0  0  0  0  0  0  0  0  0  0
   16.9073   -5.5001  -17.0920 C   0  0  0  0  0  0  0  0  0  0  0  0
   16.9731   -4.2369  -17.6046 N   0  0  0  0  0  0  0  0  0  0  0  0
   17.9738   -4.2566  -18.4916 C   0  0  0  0  0  0  0  0  0  0  0  0
   18.5158   -5.4733  -18.5387 N   0  0  0  0  0  0  0  0  0  0  0  0
   19.7951   -7.1287  -15.5981 C   0  0  0  0  0  0  0  0  0  0  0  0
   19.3728   -7.4767  -14.4635 O   0  0  0  0  0  0  0  0  0  0  0  0
   22.5399   -4.3787  -13.0282 O   0  0  0  0  0  0  0  0  0  0  0  0
   22.2551   -5.2232  -14.0728 C   0  0  0  0  0  0  0  0  0  0  0  0
   20.8431   -5.0630  -14.6005 C   0  0  2  0  0  0  0  0  0  0  0  0
   20.5630   -5.9437  -15.6944 N   0  0  0  0  0  0  0  0  0  0  0  0
   20.6428   -3.6339  -14.9275 C   0  0  0  0  0  0  0  0  0  0  0  0
   20.3818   -2.6655  -13.9762 O   0  0  0  0  0  0  0  0  0  0  0  0
   20.7134   -3.2827  -16.1279 O   0  0  0  0  0  0  0  0  0  0  0  0
  2  3  1  0
  2  1  1  0
  3  5  1  0
  3  4  1  1
  5  7  1  0
  5  6  1  6
  7  8  2  0
  9 10  1  0
  9  7  1  0
 10 11  1  1
 12 11  1  0
 13 12  2  0
 14 13  1  0
 15 14  1  0
 15 16  2  0
 16 12  1  0
 17 22  1  0
 17 10  1  0
 18 17  2  0
 20 19  1  0
 21 20  1  6
 21 22  1  0
 23 24  1  0
 23 21  1  0
 25 23  2  0
M  END
$$$$
