IHS.pdb
     RDKit          3D

 25 25  0  0  1  0  0  0  0  0999 V2000
   16.4923  -12.9641  -18.9905 C   0  0  0  0  0  0  0  0  0  0  0  0
   17.9549  -13.0576  -18.7054 C   0  0  0  0  0  0  0  0  0  0  0  0
   18.3972  -12.1399  -17.5863 C   0  0  2  0  0  0  0  0  0  0  0  0
   18.0430  -10.7345  -17.9614 C   0  0  0  0  0  0  0  0  0  0  0  0
   19.8616  -12.3222  -17.2636 C   0  0  2  0  0  0  0  0  0  0  0  0
   20.0646  -13.7075  -16.8810 N   0  0  0  0  0  0  0  0  0  0  0  0
   20.2875  -11.4557  -16.1542 C   0  0  0  0  0  0  0  0  0  0  0  0
   19.9057  -11.7536  -14.9760 O   0  0  0  0  0  0  0  0  0  0  0  0
   21.0958  -10.3035  -16.2825 N   0  0  0  0  0  0  0  0  0  0  0  0
   21.4382   -9.4509  -15.1792 C   0  0  1  0  0  0  0  0  0  0  0  0
   22.4735  -10.0680  -14.2857 C   0  0  0  0  0  0  0  0  0  0  0  0
   23.7195  -10.4428  -14.9790 C   0  0  0  0  0  0  0  0  0  0  0  0
   23.9798  -10.3081  -16.3234 C   0  0  0  0  0  0  0  0  0  0  0  0
   25.2359  -10.7576  -16.6115 N   0  0  0  0  0  0  0  0  0  0  0  0
   25.7504  -11.1689  -15.4477 C   0  0  0  0  0  0  0  0  0  0  0  0
   24.8633  -10.9889  -14.4694 N   0  0  0  0  0  0  0  0  0  0  0  0
   21.7182   -8.0607  -15.5965 C   0  0  0  0  0  0  0  0  0  0  0  0
   22.3030   -7.8982  -16.7003 O   0  0  0  0  0  0  0  0  0  0  0  0
   19.5124   -4.7590  -14.5454 O   0  0  0  0  0  0  0  0  0  0  0  0
   20.4434   -4.7585  -15.5547 C   0  0  0  0  0  0  0  0  0  0  0  0
   21.6821   -5.5668  -15.2229 C   0  0  2  0  0  0  0  0  0  0  0  0
   21.3737   -6.9128  -14.8437 N   0  0  0  0  0  0  0  0  0  0  0  0
   22.4438   -4.8238  -14.1947 C   0  0  0  0  0  0  0  0  0  0  0  0
   23.0322   -3.5943  -14.4246 O   0  0  0  0  0  0  0  0  0  0  0  0
   22.5620   -5.3347  -13.0570 O   0  0  0  0  0  0  0  0  0  0  0  0
  2  3  1  0
  2  1  1  0
  3  5  1  0
  3  4  1  6
  5  7  1  0
  5  6  1  1
  7  8  2  0
  9 10  1  0
  9  7  1  0
 10 11  1  6
 12 11  1  0
 13 12  2  0
 14 13  1  0
 15 14  1  0
 15 16  2  0
 16 12  1  0
 17 22  1  0
 17 10  1  0
 18 17  2  0
 20 19  1  0
 21 20  1  1
 21 22  1  0
 23 24  1  0
 23 21  1  0
 25 23  2  0
M  END
$$$$
