IHS.pdb
     RDKit          3D

 25 25  0  0  1  0  0  0  0  0999 V2000
   17.5011  -12.5512  -17.1129 C   0  0  0  0  0  0  0  0  0  0  0  0
   17.3396  -12.7965  -15.6490 C   0  0  0  0  0  0  0  0  0  0  0  0
   16.7831  -11.5997  -14.9086 C   0  0  2  0  0  0  0  0  0  0  0  0
   17.6899  -10.4331  -15.1492 C   0  0  0  0  0  0  0  0  0  0  0  0
   16.5717  -11.9012  -13.4436 C   0  0  2  0  0  0  0  0  0  0  0  0
   15.7160  -13.0696  -13.3479 N   0  0  0  0  0  0  0  0  0  0  0  0
   15.9255  -10.7805  -12.7440 C   0  0  0  0  0  0  0  0  0  0  0  0
   14.7136  -10.5105  -13.0289 O   0  0  0  0  0  0  0  0  0  0  0  0
   16.5406   -9.9641  -11.7680 N   0  0  0  0  0  0  0  0  0  0  0  0
   15.9251   -8.7895  -11.2177 C   0  0  1  0  0  0  0  0  0  0  0  0
   15.5539   -8.9668   -9.7747 C   0  0  0  0  0  0  0  0  0  0  0  0
   14.9847   -7.7599   -9.1480 C   0  0  0  0  0  0  0  0  0  0  0  0
   14.7375   -6.5560   -9.7666 C   0  0  0  0  0  0  0  0  0  0  0  0
   14.2065   -5.6657   -8.8788 N   0  0  0  0  0  0  0  0  0  0  0  0
   14.1259   -6.3181   -7.7143 C   0  0  0  0  0  0  0  0  0  0  0  0
   14.5836   -7.5617   -7.8572 N   0  0  0  0  0  0  0  0  0  0  0  0
   16.6757   -7.5536  -11.5248 C   0  0  0  0  0  0  0  0  0  0  0  0
   17.7969   -7.4084  -10.9691 O   0  0  0  0  0  0  0  0  0  0  0  0
   16.1596   -5.5005  -15.0544 O   0  0  0  0  0  0  0  0  0  0  0  0
   17.2882   -5.3870  -14.2806 C   0  0  0  0  0  0  0  0  0  0  0  0
   16.9947   -5.3974  -12.7935 C   0  0  2  0  0  0  0  0  0  0  0  0
   16.2207   -6.5344  -12.3950 N   0  0  0  0  0  0  0  0  0  0  0  0
   16.3638   -4.1040  -12.4489 C   0  0  0  0  0  0  0  0  0  0  0  0
   16.9939   -2.8841  -12.6089 O   0  0  0  0  0  0  0  0  0  0  0  0
   15.1988   -4.1144  -11.9886 O   0  0  0  0  0  0  0  0  0  0  0  0
  2  3  1  0
  2  1  1  0
  3  5  1  0
  3  4  1  1
  5  7  1  0
  5  6  1  6
  7  8  2  0
  9 10  1  0
  9  7  1  0
 10 11  1  1
 12 11  1  0
 13 12  2  0
 14 13  1  0
 15 14  1  0
 15 16  2  0
 16 12  1  0
 17 22  1  0
 17 10  1  0
 18 17  2  0
 20 19  1  0
 21 20  1  6
 21 22  1  0
 23 24  1  0
 23 21  1  0
 25 23  2  0
M  END
$$$$
