IHS.pdb
     RDKit          3D

 25 25  0  0  1  0  0  0  0  0999 V2000
   26.5581  -23.0365  -18.9734 C   0  0  0  0  0  0  0  0  0  0  0  0
   26.8357  -23.0460  -17.5064 C   0  0  0  0  0  0  0  0  0  0  0  0
   25.6431  -22.6199  -16.6780 C   0  0  2  0  0  0  0  0  0  0  0  0
   24.4478  -23.3945  -17.1392 C   0  0  0  0  0  0  0  0  0  0  0  0
   25.4405  -21.1237  -16.7236 C   0  0  2  0  0  0  0  0  0  0  0  0
   26.6982  -20.4926  -16.3680 N   0  0  0  0  0  0  0  0  0  0  0  0
   24.4043  -20.6846  -15.7768 C   0  0  0  0  0  0  0  0  0  0  0  0
   24.2003  -21.3908  -14.7364 O   0  0  0  0  0  0  0  0  0  0  0  0
   23.6024  -19.5299  -15.9221 N   0  0  0  0  0  0  0  0  0  0  0  0
   22.4630  -19.2493  -15.0949 C   0  0  1  0  0  0  0  0  0  0  0  0
   22.1742  -17.7796  -15.0069 C   0  0  0  0  0  0  0  0  0  0  0  0
   21.0302  -17.4428  -14.1400 C   0  0  0  0  0  0  0  0  0  0  0  0
   20.9315  -17.6776  -12.7879 C   0  0  0  0  0  0  0  0  0  0  0  0
   19.7311  -17.2326  -12.3147 N   0  0  0  0  0  0  0  0  0  0  0  0
   19.0897  -16.7240  -13.3722 C   0  0  0  0  0  0  0  0  0  0  0  0
   19.8470  -16.8410  -14.4628 N   0  0  0  0  0  0  0  0  0  0  0  0
   21.2977  -20.0989  -15.4197 C   0  0  0  0  0  0  0  0  0  0  0  0
   21.1014  -20.3661  -16.6350 O   0  0  0  0  0  0  0  0  0  0  0  0
   17.7158  -23.0610  -13.8811 O   0  0  0  0  0  0  0  0  0  0  0  0
   18.7663  -22.2296  -13.5802 C   0  0  0  0  0  0  0  0  0  0  0  0
   19.2592  -21.4362  -14.7741 C   0  0  2  0  0  0  0  0  0  0  0  0
   20.3988  -20.6270  -14.4625 N   0  0  0  0  0  0  0  0  0  0  0  0
   18.1148  -20.6639  -15.3064 C   0  0  0  0  0  0  0  0  0  0  0  0
   17.3611  -21.0714  -16.3911 O   0  0  0  0  0  0  0  0  0  0  0  0
   17.8129  -19.5851  -14.7457 O   0  0  0  0  0  0  0  0  0  0  0  0
  2  3  1  0
  2  1  1  0
  3  5  1  0
  3  4  1  6
  5  7  1  0
  5  6  1  1
  7  8  2  0
  9 10  1  0
  9  7  1  0
 10 11  1  6
 12 11  1  0
 13 12  2  0
 14 13  1  0
 15 14  1  0
 15 16  2  0
 16 12  1  0
 17 22  1  0
 17 10  1  0
 18 17  2  0
 20 19  1  0
 21 20  1  1
 21 22  1  0
 23 24  1  0
 23 21  1  0
 25 23  2  0
M  END
$$$$
