IHS.pdb
     RDKit          3D

 25 25  0  0  1  0  0  0  0  0999 V2000
   15.6612  -12.5346  -15.3765 C   0  0  0  0  0  0  0  0  0  0  0  0
   16.7319  -12.4695  -16.4151 C   0  0  0  0  0  0  0  0  0  0  0  0
   17.9285  -11.6527  -15.9777 C   0  0  2  0  0  0  0  0  0  0  0  0
   17.4463  -10.3006  -15.5527 C   0  0  0  0  0  0  0  0  0  0  0  0
   18.9883  -11.5994  -17.0527 C   0  0  2  0  0  0  0  0  0  0  0  0
   19.4242  -12.9584  -17.3166 N   0  0  0  0  0  0  0  0  0  0  0  0
   20.1501  -10.8008  -16.6340 C   0  0  0  0  0  0  0  0  0  0  0  0
   20.8910  -11.2566  -15.7034 O   0  0  0  0  0  0  0  0  0  0  0  0
   20.5226   -9.5524  -17.1820 N   0  0  0  0  0  0  0  0  0  0  0  0
   21.5844   -8.7426  -16.6546 C   0  0  1  0  0  0  0  0  0  0  0  0
   22.7190   -8.5927  -17.6249 C   0  0  0  0  0  0  0  0  0  0  0  0
   23.4070   -9.8567  -17.9450 C   0  0  0  0  0  0  0  0  0  0  0  0
   23.2251  -10.6244  -19.0723 C   0  0  0  0  0  0  0  0  0  0  0  0
   24.0308  -11.7253  -19.0326 N   0  0  0  0  0  0  0  0  0  0  0  0
   24.7091  -11.6379  -17.8834 C   0  0  0  0  0  0  0  0  0  0  0  0
   24.3505  -10.5349  -17.2266 N   0  0  0  0  0  0  0  0  0  0  0  0
   21.0984   -7.4803  -16.0583 C   0  0  0  0  0  0  0  0  0  0  0  0
   20.3893   -6.7358  -16.7861 O   0  0  0  0  0  0  0  0  0  0  0  0
   20.9493   -6.7977  -11.9234 O   0  0  0  0  0  0  0  0  0  0  0  0
   20.1770   -6.1035  -12.8217 C   0  0  0  0  0  0  0  0  0  0  0  0
   20.8776   -5.8548  -14.1426 C   0  0  2  0  0  0  0  0  0  0  0  0
   21.3748   -7.0598  -14.7354 N   0  0  0  0  0  0  0  0  0  0  0  0
   21.9246   -4.8346  -13.9131 C   0  0  0  0  0  0  0  0  0  0  0  0
   21.6553   -3.5581  -13.4563 O   0  0  0  0  0  0  0  0  0  0  0  0
   23.1165   -5.1429  -14.1446 O   0  0  0  0  0  0  0  0  0  0  0  0
  2  3  1  0
  2  1  1  0
  3  5  1  0
  3  4  1  6
  5  7  1  0
  5  6  1  1
  7  8  2  0
  9 10  1  0
  9  7  1  0
 10 11  1  6
 12 11  1  0
 13 12  2  0
 14 13  1  0
 15 14  1  0
 15 16  2  0
 16 12  1  0
 17 22  1  0
 17 10  1  0
 18 17  2  0
 20 19  1  0
 21 20  1  1
 21 22  1  0
 23 24  1  0
 23 21  1  0
 25 23  2  0
M  END
$$$$
