IHS.pdb
     RDKit          3D

 25 25  0  0  1  0  0  0  0  0999 V2000
   26.1953  -11.5652  -15.7055 C   0  0  0  0  0  0  0  0  0  0  0  0
   24.7720  -11.8884  -16.0198 C   0  0  0  0  0  0  0  0  0  0  0  0
   23.8724  -10.6716  -15.9981 C   0  0  2  0  0  0  0  0  0  0  0  0
   24.0156  -10.0033  -14.6661 C   0  0  0  0  0  0  0  0  0  0  0  0
   22.4448  -11.0294  -16.3377 C   0  0  2  0  0  0  0  0  0  0  0  0
   22.4525  -11.7412  -17.6026 N   0  0  0  0  0  0  0  0  0  0  0  0
   21.5998   -9.8331  -16.4711 C   0  0  0  0  0  0  0  0  0  0  0  0
   21.8483   -9.0226  -17.4219 O   0  0  0  0  0  0  0  0  0  0  0  0
   20.5193   -9.4985  -15.6237 N   0  0  0  0  0  0  0  0  0  0  0  0
   19.7973   -8.2608  -15.7143 C   0  0  1  0  0  0  0  0  0  0  0  0
   18.3142   -8.4599  -15.6045 C   0  0  0  0  0  0  0  0  0  0  0  0
   17.5288   -7.2212  -15.7541 C   0  0  0  0  0  0  0  0  0  0  0  0
   17.3822   -6.4794  -16.9036 C   0  0  0  0  0  0  0  0  0  0  0  0
   16.5837   -5.3970  -16.6720 N   0  0  0  0  0  0  0  0  0  0  0  0
   16.2378   -5.4700  -15.3823 C   0  0  0  0  0  0  0  0  0  0  0  0
   16.7903   -6.5466  -14.8236 N   0  0  0  0  0  0  0  0  0  0  0  0
   20.3551   -7.2082  -14.8390 C   0  0  0  0  0  0  0  0  0  0  0  0
   21.0229   -7.5853  -13.8397 O   0  0  0  0  0  0  0  0  0  0  0  0
   22.9887   -4.0309  -13.4919 O   0  0  0  0  0  0  0  0  0  0  0  0
   22.3525   -4.9590  -14.2789 C   0  0  0  0  0  0  0  0  0  0  0  0
   20.8456   -4.7953  -14.2932 C   0  0  2  0  0  0  0  0  0  0  0  0
   20.1897   -5.8186  -15.0504 N   0  0  0  0  0  0  0  0  0  0  0  0
   20.5448   -3.4261  -14.7671 C   0  0  0  0  0  0  0  0  0  0  0  0
   20.4822   -2.3282  -13.9295 O   0  0  0  0  0  0  0  0  0  0  0  0
   20.3360   -3.2523  -15.9899 O   0  0  0  0  0  0  0  0  0  0  0  0
  2  3  1  0
  2  1  1  0
  3  5  1  0
  3  4  1  1
  5  7  1  0
  5  6  1  6
  7  8  2  0
  9 10  1  0
  9  7  1  0
 10 11  1  1
 12 11  1  0
 13 12  2  0
 14 13  1  0
 15 14  1  0
 15 16  2  0
 16 12  1  0
 17 22  1  0
 17 10  1  0
 18 17  2  0
 20 19  1  0
 21 20  1  6
 21 22  1  0
 23 24  1  0
 23 21  1  0
 25 23  2  0
M  END
$$$$
