IHS.pdb
     RDKit          3D

 25 25  0  0  1  0  0  0  0  0999 V2000
   26.8268  -19.3236   -7.0089 C   0  0  0  0  0  0  0  0  0  0  0  0
   26.7992  -20.5097   -7.9154 C   0  0  0  0  0  0  0  0  0  0  0  0
   26.2702  -20.1845   -9.2955 C   0  0  2  0  0  0  0  0  0  0  0  0
   24.8705  -19.6722   -9.1552 C   0  0  0  0  0  0  0  0  0  0  0  0
   26.3837  -21.3678  -10.2275 C   0  0  2  0  0  0  0  0  0  0  0  0
   27.7752  -21.7792  -10.2581 N   0  0  0  0  0  0  0  0  0  0  0  0
   25.9586  -21.0285  -11.5939 C   0  0  0  0  0  0  0  0  0  0  0  0
   26.8312  -20.5683  -12.3999 O   0  0  0  0  0  0  0  0  0  0  0  0
   24.6463  -21.1703  -12.0993 N   0  0  0  0  0  0  0  0  0  0  0  0
   24.2900  -20.8943  -13.4625 C   0  0  1  0  0  0  0  0  0  0  0  0
   23.0760  -21.6613  -13.8978 C   0  0  0  0  0  0  0  0  0  0  0  0
   23.3233  -23.0958  -14.1314 C   0  0  0  0  0  0  0  0  0  0  0  0
   24.5231  -23.7534  -13.9855 C   0  0  0  0  0  0  0  0  0  0  0  0
   24.3792  -25.0768  -14.2865 N   0  0  0  0  0  0  0  0  0  0  0  0
   23.0934  -25.2364  -14.6175 C   0  0  0  0  0  0  0  0  0  0  0  0
   22.4534  -24.0706  -14.5306 N   0  0  0  0  0  0  0  0  0  0  0  0
   24.2586  -19.4473  -13.7634 C   0  0  0  0  0  0  0  0  0  0  0  0
   24.2201  -18.6567  -12.7835 O   0  0  0  0  0  0  0  0  0  0  0  0
   27.6427  -17.6385  -15.7754 O   0  0  0  0  0  0  0  0  0  0  0  0
   26.6753  -18.5178  -15.3554 C   0  0  0  0  0  0  0  0  0  0  0  0
   25.2667  -17.9985  -15.5649 C   0  0  2  0  0  0  0  0  0  0  0  0
   24.2704  -18.8992  -15.0682 N   0  0  0  0  0  0  0  0  0  0  0  0
   25.1117  -17.6812  -17.0018 C   0  0  0  0  0  0  0  0  0  0  0  0
   24.7719  -16.4262  -17.4711 O   0  0  0  0  0  0  0  0  0  0  0  0
   25.2978  -18.5965  -17.8366 O   0  0  0  0  0  0  0  0  0  0  0  0
  2  3  1  0
  2  1  1  0
  3  5  1  0
  3  4  1  1
  5  7  1  0
  5  6  1  6
  7  8  2  0
  9 10  1  0
  9  7  1  0
 10 11  1  1
 12 11  1  0
 13 12  2  0
 14 13  1  0
 15 14  1  0
 15 16  2  0
 16 12  1  0
 17 22  1  0
 17 10  1  0
 18 17  2  0
 20 19  1  0
 21 20  1  6
 21 22  1  0
 23 24  1  0
 23 21  1  0
 25 23  2  0
M  END
$$$$
