IHS.pdb
     RDKit          3D

 25 25  0  0  1  0  0  0  0  0999 V2000
   27.9349  -19.5214   -6.3876 C   0  0  0  0  0  0  0  0  0  0  0  0
   28.1932  -20.5225   -7.4648 C   0  0  0  0  0  0  0  0  0  0  0  0
   27.2300  -20.4009   -8.6257 C   0  0  2  0  0  0  0  0  0  0  0  0
   25.8374  -20.5693   -8.1024 C   0  0  0  0  0  0  0  0  0  0  0  0
   27.5727  -21.3660   -9.7360 C   0  0  2  0  0  0  0  0  0  0  0  0
   28.9675  -21.1669  -10.0848 N   0  0  0  0  0  0  0  0  0  0  0  0
   26.7469  -21.1376  -10.9313 C   0  0  0  0  0  0  0  0  0  0  0  0
   26.9580  -20.0855  -11.6177 O   0  0  0  0  0  0  0  0  0  0  0  0
   25.7236  -21.9964  -11.3926 N   0  0  0  0  0  0  0  0  0  0  0  0
   25.0400  -21.8122  -12.6416 C   0  0  1  0  0  0  0  0  0  0  0  0
   24.8836  -23.0988  -13.3977 C   0  0  0  0  0  0  0  0  0  0  0  0
   24.2190  -22.9504  -14.7053 C   0  0  0  0  0  0  0  0  0  0  0  0
   24.8333  -22.7067  -15.9121 C   0  0  0  0  0  0  0  0  0  0  0  0
   23.9060  -22.6312  -16.9107 N   0  0  0  0  0  0  0  0  0  0  0  0
   22.7214  -22.8279  -16.3220 C   0  0  0  0  0  0  0  0  0  0  0  0
   22.8899  -23.0188  -15.0137 N   0  0  0  0  0  0  0  0  0  0  0  0
   23.8051  -21.0113  -12.5047 C   0  0  0  0  0  0  0  0  0  0  0  0
   23.2192  -21.0436  -11.3901 O   0  0  0  0  0  0  0  0  0  0  0  0
   20.8469  -17.5439  -14.2813 O   0  0  0  0  0  0  0  0  0  0  0  0
   22.0183  -18.2573  -14.3477 C   0  0  0  0  0  0  0  0  0  0  0  0
   22.0456  -19.4469  -13.4087 C   0  0  2  0  0  0  0  0  0  0  0  0
   23.2457  -20.2179  -13.5346 N   0  0  0  0  0  0  0  0  0  0  0  0
   20.8128  -20.2322  -13.6392 C   0  0  0  0  0  0  0  0  0  0  0  0
   19.5967  -19.9269  -13.0571 O   0  0  0  0  0  0  0  0  0  0  0  0
   20.8736  -21.2248  -14.4009 O   0  0  0  0  0  0  0  0  0  0  0  0
  2  3  1  0
  2  1  1  0
  3  5  1  0
  3  4  1  1
  5  7  1  0
  5  6  1  6
  7  8  2  0
  9 10  1  0
  9  7  1  0
 10 11  1  1
 12 11  1  0
 13 12  2  0
 14 13  1  0
 15 14  1  0
 15 16  2  0
 16 12  1  0
 17 22  1  0
 17 10  1  0
 18 17  2  0
 20 19  1  0
 21 20  1  6
 21 22  1  0
 23 24  1  0
 23 21  1  0
 25 23  2  0
M  END
$$$$
