PNV.pdb
     RDKit          3D

 23 23  0  0  1  0  0  0  0  0999 V2000
   17.9060  -11.8489  -15.4279 N   0  0  0  0  0  0  0  0  0  0  0  0
   18.0002  -13.1843  -14.9266 C   0  0  0  0  0  0  0  0  0  0  0  0
   16.6920  -13.2976  -14.1334 C   0  0  0  0  0  0  0  0  0  0  0  0
   15.7180  -12.7079  -15.1608 C   0  0  0  0  0  0  0  0  0  0  0  0
   16.5329  -11.5321  -15.6826 C   0  0  1  0  0  0  0  0  0  0  0  0
   16.1871  -10.3185  -14.8583 C   0  0  0  0  0  0  0  0  0  0  0  0
   15.0307   -9.8475  -14.7933 O   0  0  0  0  0  0  0  0  0  0  0  0
   15.3753   -9.2069  -11.1893 N   0  0  0  0  0  0  0  0  0  0  0  0
   16.7520   -8.9888  -10.8651 C   0  0  0  0  0  0  0  0  0  0  0  0
   17.1114   -9.1697   -9.6897 O   0  0  0  0  0  0  0  0  0  0  0  0
   17.6598   -8.5611  -11.9565 C   0  0  0  0  0  0  0  0  0  0  0  0
   16.9099   -8.4860  -13.2747 C   0  0  2  0  0  0  0  0  0  0  0  0
   17.1950   -9.6461  -14.1021 N   0  0  0  0  0  0  0  0  0  0  0  0
   17.2494   -7.2460  -14.0145 C   0  0  0  0  0  0  0  0  0  0  0  0
   18.4230   -7.0238  -14.4079 O   0  0  0  0  0  0  0  0  0  0  0  0
   14.1040   -4.8435  -15.5744 C   0  0  0  0  0  0  0  0  0  0  0  0
   15.5091   -4.7801  -16.1484 C   0  0  2  0  0  0  0  0  0  0  0  0
   15.5989   -5.9046  -17.1722 C   0  0  0  0  0  0  0  0  0  0  0  0
   16.5515   -5.0673  -15.0926 C   0  0  2  0  0  0  0  0  0  0  0  0
   16.2778   -6.2373  -14.3244 N   0  0  0  0  0  0  0  0  0  0  0  0
   16.6319   -3.8920  -14.1985 C   0  0  0  0  0  0  0  0  0  0  0  0
   17.0884   -2.7729  -14.5738 O   0  0  0  0  0  0  0  0  0  0  0  0
   16.1791   -4.0414  -12.8798 O   0  0  0  0  0  0  0  0  0  0  0  0
  1  2  1  0
  2  3  1  0
  4  3  1  0
  5  6  1  1
  5  1  1  0
  5  4  1  0
  6  7  2  0
  8  9  1  0
  9 10  2  0
  9 11  1  0
 12 11  1  1
 12 14  1  0
 13 12  1  0
 13  6  1  0
 14 15  2  0
 14 20  1  0
 17 16  1  1
 17 19  1  0
 18 17  1  0
 19 21  1  0
 19 20  1  1
 21 22  2  0
 21 23  1  0
M  END
$$$$
