PNV.pdb
     RDKit          3D

 23 23  0  0  1  0  0  0  0  0999 V2000
   27.1243  -21.3370  -13.8255 N   0  0  0  0  0  0  0  0  0  0  0  0
   26.8188  -20.9389  -15.1640 C   0  0  0  0  0  0  0  0  0  0  0  0
   26.6803  -19.4201  -14.9988 C   0  0  0  0  0  0  0  0  0  0  0  0
   27.9327  -19.1389  -14.1594 C   0  0  0  0  0  0  0  0  0  0  0  0
   27.8923  -20.3104  -13.1874 C   0  0  1  0  0  0  0  0  0  0  0  0
   27.1352  -19.8752  -11.9588 C   0  0  0  0  0  0  0  0  0  0  0  0
   27.1480  -18.6997  -11.5330 O   0  0  0  0  0  0  0  0  0  0  0  0
   23.1024  -21.3326  -12.0706 N   0  0  0  0  0  0  0  0  0  0  0  0
   23.3901  -20.5592  -10.9014 C   0  0  0  0  0  0  0  0  0  0  0  0
   22.8485  -19.4469  -10.7884 O   0  0  0  0  0  0  0  0  0  0  0  0
   24.3173  -21.1389   -9.9001 C   0  0  0  0  0  0  0  0  0  0  0  0
   25.6769  -20.4677   -9.9813 C   0  0  2  0  0  0  0  0  0  0  0  0
   26.3555  -20.8153  -11.2184 N   0  0  0  0  0  0  0  0  0  0  0  0
   26.5262  -20.8356   -8.8222 C   0  0  0  0  0  0  0  0  0  0  0  0
   27.0169  -21.9885   -8.7151 O   0  0  0  0  0  0  0  0  0  0  0  0
   29.5410  -19.5456   -5.1371 C   0  0  0  0  0  0  0  0  0  0  0  0
   28.6423  -19.1351   -6.2912 C   0  0  2  0  0  0  0  0  0  0  0  0
   27.8208  -17.9548   -5.7882 C   0  0  0  0  0  0  0  0  0  0  0  0
   27.6621  -20.2293   -6.6454 C   0  0  2  0  0  0  0  0  0  0  0  0
   26.8382  -19.9159   -7.7666 N   0  0  0  0  0  0  0  0  0  0  0  0
   26.8145  -20.4844   -5.4606 C   0  0  0  0  0  0  0  0  0  0  0  0
   25.5698  -20.2564   -5.4443 O   0  0  0  0  0  0  0  0  0  0  0  0
   27.4330  -21.0009   -4.3130 O   0  0  0  0  0  0  0  0  0  0  0  0
  1  2  1  0
  2  3  1  0
  4  3  1  0
  5  6  1  1
  5  1  1  0
  5  4  1  0
  6  7  2  0
  8  9  1  0
  9 10  2  0
  9 11  1  0
 12 11  1  1
 12 14  1  0
 13 12  1  0
 13  6  1  0
 14 15  2  0
 14 20  1  0
 17 16  1  1
 17 19  1  0
 18 17  1  0
 19 21  1  0
 19 20  1  6
 21 22  2  0
 21 23  1  0
M  END
$$$$
