PNV.pdb
     RDKit          3D

 23 23  0  0  1  0  0  0  0  0999 V2000
   23.0062   -9.9223  -14.9430 N   0  0  0  0  0  0  0  0  0  0  0  0
   23.1555  -11.2273  -14.3789 C   0  0  0  0  0  0  0  0  0  0  0  0
   21.8021  -11.8595  -14.7285 C   0  0  0  0  0  0  0  0  0  0  0  0
   21.6959  -11.4391  -16.1996 C   0  0  0  0  0  0  0  0  0  0  0  0
   22.1971  -10.0032  -16.1217 C   0  0  1  0  0  0  0  0  0  0  0  0
   21.0070   -9.1010  -15.9176 C   0  0  0  0  0  0  0  0  0  0  0  0
   20.1129   -8.9495  -16.7784 O   0  0  0  0  0  0  0  0  0  0  0  0
   18.8979   -9.1112  -11.1323 N   0  0  0  0  0  0  0  0  0  0  0  0
   18.6916   -8.6767  -12.4801 C   0  0  0  0  0  0  0  0  0  0  0  0
   17.9169   -9.3348  -13.1943 O   0  0  0  0  0  0  0  0  0  0  0  0
   19.4177   -7.4667  -12.9351 C   0  0  0  0  0  0  0  0  0  0  0  0
   19.6929   -7.5396  -14.4266 C   0  0  2  0  0  0  0  0  0  0  0  0
   20.8547   -8.3680  -14.7013 N   0  0  0  0  0  0  0  0  0  0  0  0
   19.8936   -6.1869  -15.0011 C   0  0  0  0  0  0  0  0  0  0  0  0
   20.8972   -5.4930  -14.6967 O   0  0  0  0  0  0  0  0  0  0  0  0
   19.4581   -5.4009  -18.8431 C   0  0  0  0  0  0  0  0  0  0  0  0
   18.7346   -4.3421  -18.0286 C   0  0  2  0  0  0  0  0  0  0  0  0
   19.1510   -2.9993  -18.6154 C   0  0  0  0  0  0  0  0  0  0  0  0
   19.1878   -4.3475  -16.5870 C   0  0  2  0  0  0  0  0  0  0  0  0
   18.9720   -5.5927  -15.9259 N   0  0  0  0  0  0  0  0  0  0  0  0
   18.4611   -3.2737  -15.8757 C   0  0  0  0  0  0  0  0  0  0  0  0
   18.8039   -2.0568  -15.9339 O   0  0  0  0  0  0  0  0  0  0  0  0
   17.3462   -3.6368  -15.1067 O   0  0  0  0  0  0  0  0  0  0  0  0
  1  2  1  0
  2  3  1  0
  4  3  1  0
  5  6  1  1
  5  1  1  0
  5  4  1  0
  6  7  2  0
  8  9  1  0
  9 10  2  0
  9 11  1  0
 12 11  1  1
 12 14  1  0
 13 12  1  0
 13  6  1  0
 14 15  2  0
 14 20  1  0
 17 16  1  6
 17 19  1  0
 18 17  1  0
 19 21  1  0
 19 20  1  1
 21 22  2  0
 21 23  1  0
M  END
$$$$
