PNV.pdb
     RDKit          3D

 23 23  0  0  1  0  0  0  0  0999 V2000
   26.4006  -21.7102  -13.2254 N   0  0  0  0  0  0  0  0  0  0  0  0
   25.8859  -21.4000  -14.5224 C   0  0  0  0  0  0  0  0  0  0  0  0
   26.2064  -19.9029  -14.6197 C   0  0  0  0  0  0  0  0  0  0  0  0
   27.6578  -19.9193  -14.1247 C   0  0  0  0  0  0  0  0  0  0  0  0
   27.5509  -20.8985  -12.9633 C   0  0  1  0  0  0  0  0  0  0  0  0
   27.2735  -20.1104  -11.7088 C   0  0  0  0  0  0  0  0  0  0  0  0
   27.8947  -19.0674  -11.4096 O   0  0  0  0  0  0  0  0  0  0  0  0
   23.3597  -21.6817   -8.2153 N   0  0  0  0  0  0  0  0  0  0  0  0
   23.8540  -21.1196   -9.4351 C   0  0  0  0  0  0  0  0  0  0  0  0
   23.7802  -21.8067  -10.4674 O   0  0  0  0  0  0  0  0  0  0  0  0
   24.4221  -19.7510   -9.3852 C   0  0  0  0  0  0  0  0  0  0  0  0
   25.9255  -19.7900   -9.5949 C   0  0  2  0  0  0  0  0  0  0  0  0
   26.2642  -20.5386  -10.7935 N   0  0  0  0  0  0  0  0  0  0  0  0
   26.6151  -20.3809   -8.4222 C   0  0  0  0  0  0  0  0  0  0  0  0
   26.6210  -21.6235   -8.2289 O   0  0  0  0  0  0  0  0  0  0  0  0
   29.9918  -19.8177   -4.7855 C   0  0  0  0  0  0  0  0  0  0  0  0
   29.1190  -19.1622   -5.8420 C   0  0  2  0  0  0  0  0  0  0  0  0
   28.3572  -18.0507   -5.1312 C   0  0  0  0  0  0  0  0  0  0  0  0
   28.0853  -20.1241   -6.3804 C   0  0  2  0  0  0  0  0  0  0  0  0
   27.3086  -19.5871   -7.4493 N   0  0  0  0  0  0  0  0  0  0  0  0
   27.1957  -20.5106   -5.2639 C   0  0  0  0  0  0  0  0  0  0  0  0
   27.6080  -21.1280   -4.2390 O   0  0  0  0  0  0  0  0  0  0  0  0
   25.8387  -20.1713   -5.3614 O   0  0  0  0  0  0  0  0  0  0  0  0
  1  2  1  0
  2  3  1  0
  4  3  1  0
  5  6  1  1
  5  1  1  0
  5  4  1  0
  6  7  2  0
  8  9  1  0
  9 10  2  0
  9 11  1  0
 12 11  1  1
 12 14  1  0
 13 12  1  0
 13  6  1  0
 14 15  2  0
 14 20  1  0
 17 16  1  1
 17 19  1  0
 18 17  1  0
 19 21  1  0
 19 20  1  6
 21 22  2  0
 21 23  1  0
M  END
$$$$
