PNV.pdb
     RDKit          3D

 23 23  0  0  1  0  0  0  0  0999 V2000
   27.6254  -20.1435  -16.7179 N   0  0  0  0  0  0  0  0  0  0  0  0
   27.3862  -20.3615  -18.1103 C   0  0  0  0  0  0  0  0  0  0  0  0
   26.3478  -19.2723  -18.4082 C   0  0  0  0  0  0  0  0  0  0  0  0
   27.0166  -18.0830  -17.7080 C   0  0  0  0  0  0  0  0  0  0  0  0
   27.5073  -18.7461  -16.4280 C   0  0  1  0  0  0  0  0  0  0  0  0
   26.4371  -18.5898  -15.3781 C   0  0  0  0  0  0  0  0  0  0  0  0
   25.9710  -17.4792  -15.0423 O   0  0  0  0  0  0  0  0  0  0  0  0
   21.4263  -20.8014  -13.2837 N   0  0  0  0  0  0  0  0  0  0  0  0
   22.4030  -19.7582  -13.3600 C   0  0  0  0  0  0  0  0  0  0  0  0
   22.2922  -18.7958  -12.5822 O   0  0  0  0  0  0  0  0  0  0  0  0
   23.4848  -19.8962  -14.3645 C   0  0  0  0  0  0  0  0  0  0  0  0
   24.8395  -19.6431  -13.7270 C   0  0  2  0  0  0  0  0  0  0  0  0
   25.9034  -19.7352  -14.7125 N   0  0  0  0  0  0  0  0  0  0  0  0
   25.0970  -20.5957  -12.6196 C   0  0  0  0  0  0  0  0  0  0  0  0
   25.2418  -21.8254  -12.8396 O   0  0  0  0  0  0  0  0  0  0  0  0
   26.2565  -19.2200   -8.6889 C   0  0  0  0  0  0  0  0  0  0  0  0
   26.5285  -20.6136   -9.2290 C   0  0  2  0  0  0  0  0  0  0  0  0
   27.7946  -20.5020  -10.0689 C   0  0  0  0  0  0  0  0  0  0  0  0
   25.4279  -21.0715  -10.1578 C   0  0  2  0  0  0  0  0  0  0  0  0
   25.1965  -20.1833  -11.2493 N   0  0  0  0  0  0  0  0  0  0  0  0
   24.1896  -21.2162   -9.3624 C   0  0  0  0  0  0  0  0  0  0  0  0
   24.0961  -21.9995   -8.3728 O   0  0  0  0  0  0  0  0  0  0  0  0
   23.0793  -20.4449   -9.7347 O   0  0  0  0  0  0  0  0  0  0  0  0
  1  2  1  0
  2  3  1  0
  4  3  1  0
  5  6  1  1
  5  1  1  0
  5  4  1  0
  6  7  2  0
  8  9  1  0
  9 10  2  0
  9 11  1  0
 12 11  1  6
 12 14  1  0
 13 12  1  0
 13  6  1  0
 14 15  2  0
 14 20  1  0
 17 16  1  6
 17 19  1  0
 18 17  1  0
 19 21  1  0
 19 20  1  6
 21 22  2  0
 21 23  1  0
M  END
$$$$
