PNV.pdb
     RDKit          3D

 23 23  0  0  1  0  0  0  0  0999 V2000
   27.1970  -21.4619  -13.8116 N   0  0  0  0  0  0  0  0  0  0  0  0
   26.8795  -21.0990  -15.1574 C   0  0  0  0  0  0  0  0  0  0  0  0
   26.7241  -19.5784  -15.0270 C   0  0  0  0  0  0  0  0  0  0  0  0
   27.9775  -19.2630  -14.2016 C   0  0  0  0  0  0  0  0  0  0  0  0
   27.9562  -20.4117  -13.2022 C   0  0  1  0  0  0  0  0  0  0  0  0
   27.2006  -19.9567  -11.9798 C   0  0  0  0  0  0  0  0  0  0  0  0
   27.3907  -18.8464  -11.4371 O   0  0  0  0  0  0  0  0  0  0  0  0
   23.7541  -19.3124  -11.8544 N   0  0  0  0  0  0  0  0  0  0  0  0
   23.2208  -20.3887  -11.0764 C   0  0  0  0  0  0  0  0  0  0  0  0
   22.0273  -20.6925  -11.2397 O   0  0  0  0  0  0  0  0  0  0  0  0
   24.1308  -21.0713  -10.1256 C   0  0  0  0  0  0  0  0  0  0  0  0
   25.5115  -20.4405  -10.1630 C   0  0  2  0  0  0  0  0  0  0  0  0
   26.2147  -20.8000  -11.3829 N   0  0  0  0  0  0  0  0  0  0  0  0
   26.3160  -20.8413   -8.9830 C   0  0  0  0  0  0  0  0  0  0  0  0
   26.6534  -22.0392   -8.8021 O   0  0  0  0  0  0  0  0  0  0  0  0
   29.4705  -19.5795   -5.3669 C   0  0  0  0  0  0  0  0  0  0  0  0
   28.5826  -19.1586   -6.5255 C   0  0  2  0  0  0  0  0  0  0  0  0
   27.7755  -17.9660   -6.0283 C   0  0  0  0  0  0  0  0  0  0  0  0
   27.5888  -20.2397   -6.8820 C   0  0  2  0  0  0  0  0  0  0  0  0
   26.7542  -19.9047   -7.9890 N   0  0  0  0  0  0  0  0  0  0  0  0
   26.7533  -20.5031   -5.6905 C   0  0  0  0  0  0  0  0  0  0  0  0
   25.5041  -20.3012   -5.6688 O   0  0  0  0  0  0  0  0  0  0  0  0
   27.3889  -20.9971   -4.5423 O   0  0  0  0  0  0  0  0  0  0  0  0
  1  2  1  0
  2  3  1  0
  4  3  1  0
  5  6  1  1
  5  1  1  0
  5  4  1  0
  6  7  2  0
  8  9  1  0
  9 10  2  0
  9 11  1  0
 12 11  1  1
 12 14  1  0
 13 12  1  0
 13  6  1  0
 14 15  2  0
 14 20  1  0
 17 16  1  1
 17 19  1  0
 18 17  1  0
 19 21  1  0
 19 20  1  6
 21 22  2  0
 21 23  1  0
M  END
$$$$
