PNV.pdb
     RDKit          3D

 23 23  0  0  1  0  0  0  0  0999 V2000
   18.4063  -13.2050  -15.8017 N   0  0  0  0  0  0  0  0  0  0  0  0
   19.1567  -13.7402  -16.8944 C   0  0  0  0  0  0  0  0  0  0  0  0
   20.0849  -12.5638  -17.2229 C   0  0  0  0  0  0  0  0  0  0  0  0
   20.5481  -12.2004  -15.8068 C   0  0  0  0  0  0  0  0  0  0  0  0
   19.2390  -12.3243  -15.0390 C   0  0  1  0  0  0  0  0  0  0  0  0
   18.5739  -10.9718  -15.0234 C   0  0  0  0  0  0  0  0  0  0  0  0
   17.8797  -10.5444  -15.9715 O   0  0  0  0  0  0  0  0  0  0  0  0
   16.8965   -9.7751  -10.4359 N   0  0  0  0  0  0  0  0  0  0  0  0
   16.7181   -9.2944  -11.7720 C   0  0  0  0  0  0  0  0  0  0  0  0
   15.6777   -9.6104  -12.3729 O   0  0  0  0  0  0  0  0  0  0  0  0
   17.7894   -8.4487  -12.3511 C   0  0  0  0  0  0  0  0  0  0  0  0
   18.0407   -8.8251  -13.8005 C   0  0  2  0  0  0  0  0  0  0  0  0
   18.7167  -10.1079  -13.8951 N   0  0  0  0  0  0  0  0  0  0  0  0
   18.8388   -7.7846  -14.4937 C   0  0  0  0  0  0  0  0  0  0  0  0
   20.0631   -7.6335  -14.2495 O   0  0  0  0  0  0  0  0  0  0  0  0
   18.7903   -7.1692  -18.3983 C   0  0  0  0  0  0  0  0  0  0  0  0
   18.6020   -5.8494  -17.6699 C   0  0  2  0  0  0  0  0  0  0  0  0
   19.5460   -4.8585  -18.3393 C   0  0  0  0  0  0  0  0  0  0  0  0
   19.0290   -5.9497  -16.2239 C   0  0  2  0  0  0  0  0  0  0  0  0
   18.2758   -6.8987  -15.4714 N   0  0  0  0  0  0  0  0  0  0  0  0
   18.8930   -4.6095  -15.6134 C   0  0  0  0  0  0  0  0  0  0  0  0
   17.8370   -4.2229  -15.0328 O   0  0  0  0  0  0  0  0  0  0  0  0
   19.9912   -3.7412  -15.6908 O   0  0  0  0  0  0  0  0  0  0  0  0
  1  2  1  0
  2  3  1  0
  4  3  1  0
  5  6  1  6
  5  1  1  0
  5  4  1  0
  6  7  2  0
  8  9  1  0
  9 10  2  0
  9 11  1  0
 12 11  1  1
 12 14  1  0
 13 12  1  0
 13  6  1  0
 14 15  2  0
 14 20  1  0
 17 16  1  6
 17 19  1  0
 18 17  1  0
 19 21  1  0
 19 20  1  1
 21 22  2  0
 21 23  1  0
M  END
$$$$
