PNV.pdb
     RDKit          3D

 23 23  0  0  1  0  0  0  0  0999 V2000
   32.9812  -27.6962  -19.8436 N   0  0  0  0  0  0  0  0  0  0  0  0
   34.4003  -27.5416  -19.7696 C   0  0  0  0  0  0  0  0  0  0  0  0
   34.8760  -28.9001  -20.3002 C   0  0  0  0  0  0  0  0  0  0  0  0
   33.9714  -29.0244  -21.5324 C   0  0  0  0  0  0  0  0  0  0  0  0
   32.6503  -28.5203  -20.9671 C   0  0  1  0  0  0  0  0  0  0  0  0
   31.8787  -29.7064  -20.4477 C   0  0  0  0  0  0  0  0  0  0  0  0
   31.4746  -30.6310  -21.1861 O   0  0  0  0  0  0  0  0  0  0  0  0
   31.9091  -34.0457  -16.8191 N   0  0  0  0  0  0  0  0  0  0  0  0
   31.1124  -32.8603  -16.9089 C   0  0  0  0  0  0  0  0  0  0  0  0
   29.9230  -32.9273  -16.5566 O   0  0  0  0  0  0  0  0  0  0  0  0
   31.7617  -31.6281  -17.4172 C   0  0  0  0  0  0  0  0  0  0  0  0
   30.9077  -30.9805  -18.4929 C   0  0  2  0  0  0  0  0  0  0  0  0
   31.5742  -29.8190  -19.0570 N   0  0  0  0  0  0  0  0  0  0  0  0
   29.5805  -30.5881  -17.9594 C   0  0  0  0  0  0  0  0  0  0  0  0
   29.4590  -29.6224  -17.1630 O   0  0  0  0  0  0  0  0  0  0  0  0
   24.6186  -30.7464  -18.3620 C   0  0  0  0  0  0  0  0  0  0  0  0
   25.9673  -31.2662  -18.8297 C   0  0  2  0  0  0  0  0  0  0  0  0
   25.8672  -32.7862  -18.8027 C   0  0  0  0  0  0  0  0  0  0  0  0
   27.0704  -30.8847  -17.8699 C   0  0  2  0  0  0  0  0  0  0  0  0
   28.3700  -31.2723  -18.3115 N   0  0  0  0  0  0  0  0  0  0  0  0
   26.7791  -31.5163  -16.5648 C   0  0  0  0  0  0  0  0  0  0  0  0
   27.2544  -32.6384  -16.2231 O   0  0  0  0  0  0  0  0  0  0  0  0
   25.9369  -30.8290  -15.6791 O   0  0  0  0  0  0  0  0  0  0  0  0
  1  2  1  0
  2  3  1  0
  4  3  1  0
  5  6  1  1
  5  1  1  0
  5  4  1  0
  6  7  2  0
  8  9  1  0
  9 10  2  0
  9 11  1  0
 12 11  1  1
 12 14  1  0
 13 12  1  0
 13  6  1  0
 14 15  2  0
 14 20  1  0
 17 16  1  1
 17 19  1  0
 18 17  1  0
 19 21  1  0
 19 20  1  6
 21 22  2  0
 21 23  1  0
M  END
$$$$
