PNV.pdb
     RDKit          3D

 23 23  0  0  1  0  0  0  0  0999 V2000
   28.2009  -21.0269  -16.9577 N   0  0  0  0  0  0  0  0  0  0  0  0
   28.0372  -21.1725  -18.3703 C   0  0  0  0  0  0  0  0  0  0  0  0
   27.2137  -19.9223  -18.7052 C   0  0  0  0  0  0  0  0  0  0  0  0
   28.0095  -18.8736  -17.9185 C   0  0  0  0  0  0  0  0  0  0  0  0
   28.2874  -19.6356  -16.6298 C   0  0  1  0  0  0  0  0  0  0  0  0
   27.1791  -19.3297  -15.6551 C   0  0  0  0  0  0  0  0  0  0  0  0
   26.9049  -18.1691  -15.2795 O   0  0  0  0  0  0  0  0  0  0  0  0
   22.1100  -21.3552  -13.4170 N   0  0  0  0  0  0  0  0  0  0  0  0
   22.8503  -20.2111  -13.8541 C   0  0  0  0  0  0  0  0  0  0  0  0
   22.5324  -19.1001  -13.3980 O   0  0  0  0  0  0  0  0  0  0  0  0
   23.9503  -20.4288  -14.8240 C   0  0  0  0  0  0  0  0  0  0  0  0
   25.2944  -20.1404  -14.1791 C   0  0  2  0  0  0  0  0  0  0  0  0
   26.3817  -20.3829  -15.1121 N   0  0  0  0  0  0  0  0  0  0  0  0
   25.4892  -20.9588  -12.9574 C   0  0  0  0  0  0  0  0  0  0  0  0
   25.4932  -22.2152  -13.0098 O   0  0  0  0  0  0  0  0  0  0  0  0
   26.6873  -19.1965   -9.1612 C   0  0  0  0  0  0  0  0  0  0  0  0
   26.8387  -20.6675   -9.5092 C   0  0  2  0  0  0  0  0  0  0  0  0
   28.1532  -20.7890  -10.2698 C   0  0  0  0  0  0  0  0  0  0  0  0
   25.7478  -21.1293  -10.4473 C   0  0  2  0  0  0  0  0  0  0  0  0
   25.6829  -20.3801  -11.6592 N   0  0  0  0  0  0  0  0  0  0  0  0
   24.4576  -21.0306   -9.7313 C   0  0  0  0  0  0  0  0  0  0  0  0
   23.5344  -20.2402  -10.0845 O   0  0  0  0  0  0  0  0  0  0  0  0
   24.2651  -21.8553   -8.6137 O   0  0  0  0  0  0  0  0  0  0  0  0
  1  2  1  0
  2  3  1  0
  4  3  1  0
  5  6  1  1
  5  1  1  0
  5  4  1  0
  6  7  2  0
  8  9  1  0
  9 10  2  0
  9 11  1  0
 12 11  1  6
 12 14  1  0
 13 12  1  0
 13  6  1  0
 14 15  2  0
 14 20  1  0
 17 16  1  6
 17 19  1  0
 18 17  1  0
 19 21  1  0
 19 20  1  6
 21 22  2  0
 21 23  1  0
M  END
$$$$
