PNV.pdb
     RDKit          3D

 23 23  0  0  1  0  0  0  0  0999 V2000
   19.8257  -13.5159  -19.6081 N   0  0  0  0  0  0  0  0  0  0  0  0
   19.9210  -14.9250  -19.3873 C   0  0  0  0  0  0  0  0  0  0  0  0
   18.5048  -15.2453  -18.8920 C   0  0  0  0  0  0  0  0  0  0  0  0
   17.6881  -14.4748  -19.9366 C   0  0  0  0  0  0  0  0  0  0  0  0
   18.5001  -13.1909  -20.0417 C   0  0  1  0  0  0  0  0  0  0  0  0
   17.9338  -12.1956  -19.0615 C   0  0  0  0  0  0  0  0  0  0  0  0
   16.7418  -11.8190  -19.0869 O   0  0  0  0  0  0  0  0  0  0  0  0
   16.4646  -12.2292  -15.0868 N   0  0  0  0  0  0  0  0  0  0  0  0
   17.8794  -12.3422  -15.2701 C   0  0  0  0  0  0  0  0  0  0  0  0
   18.4036  -13.4557  -15.1009 O   0  0  0  0  0  0  0  0  0  0  0  0
   18.6267  -11.1198  -15.6513 C   0  0  0  0  0  0  0  0  0  0  0  0
   18.2586  -10.6874  -17.0596 C   0  0  2  0  0  0  0  0  0  0  0  0
   18.7608  -11.6330  -18.0420 N   0  0  0  0  0  0  0  0  0  0  0  0
   18.7790   -9.3306  -17.3568 C   0  0  0  0  0  0  0  0  0  0  0  0
   20.0067   -9.1308  -17.5422 O   0  0  0  0  0  0  0  0  0  0  0  0
   16.1139   -5.8962  -17.4150 C   0  0  0  0  0  0  0  0  0  0  0  0
   17.2780   -6.0003  -18.3856 C   0  0  2  0  0  0  0  0  0  0  0  0
   16.7334   -6.6975  -19.6259 C   0  0  0  0  0  0  0  0  0  0  0  0
   18.3778   -6.8803  -17.8382 C   0  0  2  0  0  0  0  0  0  0  0  0
   17.9303   -8.1780  -17.4510 N   0  0  0  0  0  0  0  0  0  0  0  0
   18.9765   -6.1923  -16.6740 C   0  0  0  0  0  0  0  0  0  0  0  0
   18.7829   -6.5662  -15.4805 O   0  0  0  0  0  0  0  0  0  0  0  0
   19.7913   -5.0780  -16.9208 O   0  0  0  0  0  0  0  0  0  0  0  0
  1  2  1  0
  2  3  1  0
  4  3  1  0
  5  6  1  1
  5  1  1  0
  5  4  1  0
  6  7  2  0
  8  9  1  0
  9 10  2  0
  9 11  1  0
 12 11  1  1
 12 14  1  0
 13 12  1  0
 13  6  1  0
 14 15  2  0
 14 20  1  0
 17 16  1  1
 17 19  1  0
 18 17  1  0
 19 21  1  0
 19 20  1  1
 21 22  2  0
 21 23  1  0
M  END
$$$$
