PNV.pdb
     RDKit          3D

 23 23  0  0  1  0  0  0  0  0999 V2000
   27.9701  -21.2436  -14.3150 N   0  0  0  0  0  0  0  0  0  0  0  0
   27.6580  -21.2158  -15.7097 C   0  0  0  0  0  0  0  0  0  0  0  0
   26.9342  -19.8681  -15.8261 C   0  0  0  0  0  0  0  0  0  0  0  0
   27.9020  -18.9882  -15.0255 C   0  0  0  0  0  0  0  0  0  0  0  0
   28.2253  -19.9107  -13.8579 C   0  0  1  0  0  0  0  0  0  0  0  0
   27.2514  -19.6188  -12.7451 C   0  0  0  0  0  0  0  0  0  0  0  0
   27.0133  -18.4615  -12.3360 O   0  0  0  0  0  0  0  0  0  0  0  0
   23.3666  -21.0229  -13.8126 N   0  0  0  0  0  0  0  0  0  0  0  0
   23.5867  -20.3301  -12.5799 C   0  0  0  0  0  0  0  0  0  0  0  0
   23.2389  -19.1396  -12.5083 O   0  0  0  0  0  0  0  0  0  0  0  0
   24.2162  -21.0815  -11.4675 C   0  0  0  0  0  0  0  0  0  0  0  0
   25.5412  -20.4493  -11.0798 C   0  0  2  0  0  0  0  0  0  0  0  0
   26.5475  -20.6820  -12.1020 N   0  0  0  0  0  0  0  0  0  0  0  0
   26.0210  -20.9677   -9.7755 C   0  0  0  0  0  0  0  0  0  0  0  0
   26.3853  -22.1642   -9.6452 O   0  0  0  0  0  0  0  0  0  0  0  0
   28.3931  -18.9752   -7.0771 C   0  0  0  0  0  0  0  0  0  0  0  0
   27.1331  -19.5484   -6.4514 C   0  0  2  0  0  0  0  0  0  0  0  0
   27.5728  -20.2249   -5.1591 C   0  0  0  0  0  0  0  0  0  0  0  0
   26.5233  -20.6235   -7.3208 C   0  0  2  0  0  0  0  0  0  0  0  0
   26.0999  -20.1517   -8.5984 N   0  0  0  0  0  0  0  0  0  0  0  0
   25.3701  -21.1984   -6.5951 C   0  0  0  0  0  0  0  0  0  0  0  0
   24.1689  -20.9551   -6.9108 O   0  0  0  0  0  0  0  0  0  0  0  0
   25.6366  -22.0475   -5.5115 O   0  0  0  0  0  0  0  0  0  0  0  0
  1  2  1  0
  2  3  1  0
  4  3  1  0
  5  6  1  1
  5  1  1  0
  5  4  1  0
  6  7  2  0
  8  9  1  0
  9 10  2  0
  9 11  1  0
 12 11  1  6
 12 14  1  0
 13 12  1  0
 13  6  1  0
 14 15  2  0
 14 20  1  0
 17 16  1  6
 17 19  1  0
 18 17  1  0
 19 21  1  0
 19 20  1  6
 21 22  2  0
 21 23  1  0
M  END
$$$$
