PNV.pdb
     RDKit          3D

 23 23  0  0  1  0  0  0  0  0999 V2000
   20.4541  -12.6452  -15.8093 N   0  0  0  0  0  0  0  0  0  0  0  0
   19.9750  -13.8382  -16.4342 C   0  0  0  0  0  0  0  0  0  0  0  0
   19.6929  -13.3369  -17.8564 C   0  0  0  0  0  0  0  0  0  0  0  0
   20.9861  -12.5533  -18.1126 C   0  0  0  0  0  0  0  0  0  0  0  0
   21.1685  -11.8590  -16.7697 C   0  0  1  0  0  0  0  0  0  0  0  0
   20.4966  -10.5117  -16.8426 C   0  0  0  0  0  0  0  0  0  0  0  0
   20.7698   -9.6620  -17.7183 O   0  0  0  0  0  0  0  0  0  0  0  0
   15.9182  -11.0860  -16.3573 N   0  0  0  0  0  0  0  0  0  0  0  0
   16.6742   -9.9369  -16.7524 C   0  0  0  0  0  0  0  0  0  0  0  0
   16.7746   -9.6924  -17.9662 O   0  0  0  0  0  0  0  0  0  0  0  0
   17.2881   -9.1126  -15.6838 C   0  0  0  0  0  0  0  0  0  0  0  0
   18.7653   -8.8955  -15.9603 C   0  0  2  0  0  0  0  0  0  0  0  0
   19.4975  -10.1486  -15.8888 N   0  0  0  0  0  0  0  0  0  0  0  0
   19.3501   -7.9173  -15.0109 C   0  0  0  0  0  0  0  0  0  0  0  0
   19.4326   -8.1726  -13.7823 O   0  0  0  0  0  0  0  0  0  0  0  0
   22.7033   -5.8916  -15.6923 C   0  0  0  0  0  0  0  0  0  0  0  0
   21.6203   -4.9475  -15.1987 C   0  0  2  0  0  0  0  0  0  0  0  0
   22.2622   -4.1021  -14.1058 C   0  0  0  0  0  0  0  0  0  0  0  0
   20.4806   -5.7016  -14.5538 C   0  0  2  0  0  0  0  0  0  0  0  0
   19.8514   -6.6389  -15.4255 N   0  0  0  0  0  0  0  0  0  0  0  0
   19.4860   -4.7128  -14.0847 C   0  0  0  0  0  0  0  0  0  0  0  0
   18.4765   -4.3757  -14.7694 O   0  0  0  0  0  0  0  0  0  0  0  0
   19.6856   -4.1320  -12.8241 O   0  0  0  0  0  0  0  0  0  0  0  0
  1  2  1  0
  2  3  1  0
  4  3  1  0
  5  6  1  6
  5  1  1  0
  5  4  1  0
  6  7  2  0
  8  9  1  0
  9 10  2  0
  9 11  1  0
 12 11  1  1
 12 14  1  0
 13 12  1  0
 13  6  1  0
 14 15  2  0
 14 20  1  0
 17 16  1  1
 17 19  1  0
 18 17  1  0
 19 21  1  0
 19 20  1  6
 21 22  2  0
 21 23  1  0
M  END
$$$$
