QNV.pdb
     RDKit          3D

 25 24  0  0  1  0  0  0  0  0999 V2000
   21.5031  -14.9578  -18.6464 N   0  0  0  0  0  0  0  0  0  0  0  0
   22.6135  -14.7663  -19.5096 C   0  0  0  0  0  0  0  0  0  0  0  0
   22.9694  -15.6917  -20.2731 O   0  0  0  0  0  0  0  0  0  0  0  0
   23.3171  -13.4823  -19.4827 C   0  0  0  0  0  0  0  0  0  0  0  0
   22.7617  -12.5356  -18.4402 C   0  0  0  0  0  0  0  0  0  0  0  0
   22.1344  -11.3192  -19.1007 C   0  0  2  0  0  0  0  0  0  0  0  0
   23.2228  -10.5526  -19.6758 N   0  0  0  0  0  0  0  0  0  0  0  0
   21.3913  -10.4870  -18.1554 C   0  0  0  0  0  0  0  0  0  0  0  0
   20.5895  -11.0313  -17.3201 O   0  0  0  0  0  0  0  0  0  0  0  0
   19.7057   -7.0736  -14.7903 N   0  0  0  0  0  0  0  0  0  0  0  0
   20.7830   -7.9575  -14.5845 C   0  0  0  0  0  0  0  0  0  0  0  0
   21.2243   -8.1329  -13.4352 O   0  0  0  0  0  0  0  0  0  0  0  0
   21.3849   -8.6707  -15.7220 C   0  0  0  0  0  0  0  0  0  0  0  0
   20.7988   -8.2908  -17.0584 C   0  0  2  0  0  0  0  0  0  0  0  0
   21.4768   -9.0754  -18.0711 N   0  0  0  0  0  0  0  0  0  0  0  0
   21.0440   -6.8353  -17.2423 C   0  0  0  0  0  0  0  0  0  0  0  0
   22.2299   -6.4353  -17.2112 O   0  0  0  0  0  0  0  0  0  0  0  0
   20.2782   -4.8929  -20.2708 C   0  0  0  0  0  0  0  0  0  0  0  0
   19.7798   -4.0853  -19.1030 C   0  0  1  0  0  0  0  0  0  0  0  0
   18.2926   -4.0654  -18.9737 C   0  0  0  0  0  0  0  0  0  0  0  0
   20.3834   -4.5273  -17.7889 C   0  0  2  0  0  0  0  0  0  0  0  0
   20.0235   -5.8818  -17.4491 N   0  0  0  0  0  0  0  0  0  0  0  0
   19.9813   -3.6229  -16.6816 C   0  0  0  0  0  0  0  0  0  0  0  0
   20.5208   -2.3469  -16.5583 O   0  0  0  0  0  0  0  0  0  0  0  0
   19.1369   -3.9530  -15.7970 O   0  0  0  0  0  0  0  0  0  0  0  0
  2  1  1  0
  3  2  2  0
  4  2  1  0
  5  4  1  0
  6  5  1  0
  6  7  1  1
  8 15  1  0
  8  6  1  0
  9  8  2  0
 10 11  1  0
 11 13  1  0
 12 11  2  0
 14 13  1  1
 14 15  1  0
 16 14  1  0
 17 16  2  0
 19 18  1  6
 19 21  1  0
 19 20  1  0
 21 23  1  0
 21 22  1  1
 22 16  1  0
 23 24  1  0
 25 23  2  0
M  END
$$$$
