QNV.pdb
     RDKit          3D

 25 24  0  0  1  0  0  0  0  0999 V2000
   18.0469  -17.4770  -17.2685 N   0  0  0  0  0  0  0  0  0  0  0  0
   16.8279  -16.7719  -17.0903 C   0  0  0  0  0  0  0  0  0  0  0  0
   15.7747  -17.4072  -16.8596 O   0  0  0  0  0  0  0  0  0  0  0  0
   16.8363  -15.3104  -17.1820 C   0  0  0  0  0  0  0  0  0  0  0  0
   18.1745  -14.7627  -17.6296 C   0  0  0  0  0  0  0  0  0  0  0  0
   18.7560  -13.8385  -16.5726 C   0  0  2  0  0  0  0  0  0  0  0  0
   17.6465  -13.0763  -16.0329 N   0  0  0  0  0  0  0  0  0  0  0  0
   19.7624  -12.9268  -17.1153 C   0  0  0  0  0  0  0  0  0  0  0  0
   20.8092  -13.3966  -17.6814 O   0  0  0  0  0  0  0  0  0  0  0  0
   19.9128   -9.3310  -20.6469 N   0  0  0  0  0  0  0  0  0  0  0  0
   19.2537   -9.5824  -19.4277 C   0  0  0  0  0  0  0  0  0  0  0  0
   18.0682   -9.9581  -19.4349 O   0  0  0  0  0  0  0  0  0  0  0  0
   19.9620   -9.4023  -18.1507 C   0  0  0  0  0  0  0  0  0  0  0  0
   20.6779  -10.6398  -17.6712 C   0  0  2  0  0  0  0  0  0  0  0  0
   19.6874  -11.5127  -17.0732 N   0  0  0  0  0  0  0  0  0  0  0  0
   21.6882  -10.1979  -16.6731 C   0  0  0  0  0  0  0  0  0  0  0  0
   21.2747   -9.8151  -15.5551 O   0  0  0  0  0  0  0  0  0  0  0  0
   25.9925  -10.0523  -17.3122 C   0  0  0  0  0  0  0  0  0  0  0  0
   25.3482  -10.4369  -16.0079 C   0  0  1  0  0  0  0  0  0  0  0  0
   26.1764  -10.1162  -14.8079 C   0  0  0  0  0  0  0  0  0  0  0  0
   23.9741   -9.8299  -15.8356 C   0  0  2  0  0  0  0  0  0  0  0  0
   23.0800  -10.1844  -16.9100 N   0  0  0  0  0  0  0  0  0  0  0  0
   24.0495   -8.3503  -15.7312 C   0  0  0  0  0  0  0  0  0  0  0  0
   23.6200   -7.5296  -16.7687 O   0  0  0  0  0  0  0  0  0  0  0  0
   24.5018   -7.7557  -14.7083 O   0  0  0  0  0  0  0  0  0  0  0  0
  2  1  1  0
  3  2  2  0
  4  2  1  0
  5  4  1  0
  6  5  1  0
  6  7  1  6
  8 15  1  0
  8  6  1  0
  9  8  2  0
 10 11  1  0
 11 13  1  0
 12 11  2  0
 14 13  1  1
 14 15  1  0
 16 14  1  0
 17 16  2  0
 19 18  1  6
 19 21  1  0
 19 20  1  0
 21 23  1  0
 21 22  1  6
 22 16  1  0
 23 24  1  0
 25 23  2  0
M  END
$$$$
