QNV.pdb
     RDKit          3D

 25 24  0  0  1  0  0  0  0  0999 V2000
   17.1115  -14.3076  -14.5266 N   0  0  0  0  0  0  0  0  0  0  0  0
   17.6501  -13.4214  -15.4959 C   0  0  0  0  0  0  0  0  0  0  0  0
   18.5098  -13.8382  -16.3041 O   0  0  0  0  0  0  0  0  0  0  0  0
   17.1816  -12.0342  -15.5236 C   0  0  0  0  0  0  0  0  0  0  0  0
   16.2006  -11.7285  -14.4121 C   0  0  0  0  0  0  0  0  0  0  0  0
   15.7881  -10.2664  -14.4484 C   0  0  2  0  0  0  0  0  0  0  0  0
   16.3993   -9.6927  -15.6318 N   0  0  0  0  0  0  0  0  0  0  0  0
   16.2238   -9.5298  -13.2626 C   0  0  0  0  0  0  0  0  0  0  0  0
   15.8826   -9.9363  -12.0985 O   0  0  0  0  0  0  0  0  0  0  0  0
   19.9683   -8.7439  -12.7914 N   0  0  0  0  0  0  0  0  0  0  0  0
   19.8376   -7.3417  -12.8248 C   0  0  0  0  0  0  0  0  0  0  0  0
   20.8149   -6.6398  -13.1391 O   0  0  0  0  0  0  0  0  0  0  0  0
   18.5525   -6.7084  -12.4901 C   0  0  0  0  0  0  0  0  0  0  0  0
   17.4801   -7.6859  -12.0797 C   0  0  2  0  0  0  0  0  0  0  0  0
   17.0215   -8.3591  -13.2785 N   0  0  0  0  0  0  0  0  0  0  0  0
   16.3901   -6.8951  -11.4482 C   0  0  0  0  0  0  0  0  0  0  0  0
   15.5968   -6.2888  -12.2034 O   0  0  0  0  0  0  0  0  0  0  0  0
   14.1131   -8.2288   -8.5233 C   0  0  0  0  0  0  0  0  0  0  0  0
   14.4743   -6.7842   -8.3064 C   0  0  1  0  0  0  0  0  0  0  0  0
   15.4323   -6.5637   -7.1828 C   0  0  0  0  0  0  0  0  0  0  0  0
   15.0176   -6.1257   -9.5544 C   0  0  2  0  0  0  0  0  0  0  0  0
   16.1975   -6.7878  -10.0536 N   0  0  0  0  0  0  0  0  0  0  0  0
   15.3262   -4.6927   -9.3151 C   0  0  0  0  0  0  0  0  0  0  0  0
   14.3142   -3.7521   -9.1558 O   0  0  0  0  0  0  0  0  0  0  0  0
   16.5099   -4.2476   -9.2428 O   0  0  0  0  0  0  0  0  0  0  0  0
  2  1  1  0
  3  2  2  0
  4  2  1  0
  5  4  1  0
  6  5  1  0
  6  7  1  6
  8 15  1  0
  8  6  1  0
  9  8  2  0
 10 11  1  0
 11 13  1  0
 12 11  2  0
 14 13  1  6
 14 15  1  0
 16 14  1  0
 17 16  2  0
 19 18  1  6
 19 21  1  0
 19 20  1  0
 21 23  1  0
 21 22  1  1
 22 16  1  0
 23 24  1  0
 25 23  2  0
M  END
$$$$
