QNV.pdb
     RDKit          3D

 25 24  0  0  1  0  0  0  0  0999 V2000
   17.1741  -11.3175  -19.8338 N   0  0  0  0  0  0  0  0  0  0  0  0
   18.3157  -12.1532  -19.7193 C   0  0  0  0  0  0  0  0  0  0  0  0
   18.3988  -13.1854  -20.4220 O   0  0  0  0  0  0  0  0  0  0  0  0
   19.3722  -11.7820  -18.7756 C   0  0  0  0  0  0  0  0  0  0  0  0
   19.0610  -10.5041  -18.0262 C   0  0  0  0  0  0  0  0  0  0  0  0
   20.1962  -10.1470  -17.0811 C   0  0  2  0  0  0  0  0  0  0  0  0
   20.3975  -11.2978  -16.2219 N   0  0  0  0  0  0  0  0  0  0  0  0
   19.8998   -8.9695  -16.2663 C   0  0  0  0  0  0  0  0  0  0  0  0
   19.5487   -7.8759  -16.8300 O   0  0  0  0  0  0  0  0  0  0  0  0
   17.0938   -8.8096  -13.6660 N   0  0  0  0  0  0  0  0  0  0  0  0
   17.9299   -8.7002  -12.5376 C   0  0  0  0  0  0  0  0  0  0  0  0
   17.5012   -9.0347  -11.4192 O   0  0  0  0  0  0  0  0  0  0  0  0
   19.3038   -8.1931  -12.6788 C   0  0  0  0  0  0  0  0  0  0  0  0
   19.6451   -7.7391  -14.0756 C   0  0  2  0  0  0  0  0  0  0  0  0
   19.9666   -8.9200  -14.8520 N   0  0  0  0  0  0  0  0  0  0  0  0
   20.8144   -6.8267  -13.9623 C   0  0  0  0  0  0  0  0  0  0  0  0
   21.8433   -7.2647  -13.3995 O   0  0  0  0  0  0  0  0  0  0  0  0
   22.9186   -5.5450  -16.6164 C   0  0  0  0  0  0  0  0  0  0  0  0
   22.5561   -4.3557  -15.7688 C   0  0  1  0  0  0  0  0  0  0  0  0
   21.5587   -3.4438  -16.4032 C   0  0  0  0  0  0  0  0  0  0  0  0
   22.0616   -4.7484  -14.3949 C   0  0  2  0  0  0  0  0  0  0  0  0
   20.8331   -5.5017  -14.4496 N   0  0  0  0  0  0  0  0  0  0  0  0
   21.8645   -3.5549  -13.5332 C   0  0  0  0  0  0  0  0  0  0  0  0
   20.5997   -3.1853  -13.0884 O   0  0  0  0  0  0  0  0  0  0  0  0
   22.8202   -2.8133  -13.1574 O   0  0  0  0  0  0  0  0  0  0  0  0
  2  1  1  0
  3  2  2  0
  4  2  1  0
  5  4  1  0
  6  5  1  0
  6  7  1  1
  8 15  1  0
  8  6  1  0
  9  8  2  0
 10 11  1  0
 11 13  1  0
 12 11  2  0
 14 13  1  1
 14 15  1  0
 16 14  1  0
 17 16  2  0
 19 18  1  6
 19 21  1  0
 19 20  1  0
 21 23  1  0
 21 22  1  6
 22 16  1  0
 23 24  1  0
 25 23  2  0
M  END
$$$$
