QNV.pdb
     RDKit          3D

 25 24  0  0  1  0  0  0  0  0999 V2000
   31.2894  -23.5641  -18.5376 N   0  0  0  0  0  0  0  0  0  0  0  0
   30.3888  -22.8578  -19.3770 C   0  0  0  0  0  0  0  0  0  0  0  0
   30.4210  -23.0452  -20.6140 O   0  0  0  0  0  0  0  0  0  0  0  0
   29.4401  -21.9229  -18.7685 C   0  0  0  0  0  0  0  0  0  0  0  0
   29.6792  -21.7332  -17.2859 C   0  0  0  0  0  0  0  0  0  0  0  0
   28.5549  -22.3587  -16.4772 C   0  0  2  0  0  0  0  0  0  0  0  0
   27.8140  -23.2105  -17.3875 N   0  0  0  0  0  0  0  0  0  0  0  0
   27.6578  -21.3606  -15.8962 C   0  0  0  0  0  0  0  0  0  0  0  0
   28.1253  -20.4599  -15.1171 O   0  0  0  0  0  0  0  0  0  0  0  0
   23.6465  -18.2866  -14.7068 N   0  0  0  0  0  0  0  0  0  0  0  0
   23.4232  -18.8840  -15.9628 C   0  0  0  0  0  0  0  0  0  0  0  0
   22.4597  -18.5152  -16.6572 O   0  0  0  0  0  0  0  0  0  0  0  0
   24.3240  -19.9390  -16.4530 C   0  0  0  0  0  0  0  0  0  0  0  0
   25.3892  -20.3390  -15.4635 C   0  0  2  0  0  0  0  0  0  0  0  0
   26.2609  -21.2914  -16.1220 N   0  0  0  0  0  0  0  0  0  0  0  0
   24.6935  -20.9513  -14.3002 C   0  0  0  0  0  0  0  0  0  0  0  0
   23.9801  -21.9582  -14.5112 O   0  0  0  0  0  0  0  0  0  0  0  0
   26.3560  -21.3316  -10.6920 C   0  0  0  0  0  0  0  0  0  0  0  0
   24.8845  -21.0331  -10.5916 C   0  0  1  0  0  0  0  0  0  0  0  0
   24.5796  -19.6781  -10.0441 C   0  0  0  0  0  0  0  0  0  0  0  0
   24.1635  -21.2066  -11.9093 C   0  0  2  0  0  0  0  0  0  0  0  0
   24.7891  -20.4668  -12.9774 N   0  0  0  0  0  0  0  0  0  0  0  0
   22.7399  -20.7978  -11.8008 C   0  0  0  0  0  0  0  0  0  0  0  0
   21.8232  -21.5549  -11.0792 O   0  0  0  0  0  0  0  0  0  0  0  0
   22.2815  -19.7522  -12.3497 O   0  0  0  0  0  0  0  0  0  0  0  0
  2  1  1  0
  3  2  2  0
  4  2  1  0
  5  4  1  0
  6  5  1  0
  6  7  1  6
  8 15  1  0
  8  6  1  0
  9  8  2  0
 10 11  1  0
 11 13  1  0
 12 11  2  0
 14 13  1  6
 14 15  1  0
 16 14  1  0
 17 16  2  0
 19 18  1  6
 19 21  1  0
 19 20  1  0
 21 23  1  0
 21 22  1  6
 22 16  1  0
 23 24  1  0
 25 23  2  0
M  END
$$$$
