QNV.pdb
     RDKit          3D

 25 24  0  0  1  0  0  0  0  0999 V2000
   22.1400  -21.4455   -8.4052 N   0  0  0  0  0  0  0  0  0  0  0  0
   21.3353  -21.2657   -9.5606 C   0  0  0  0  0  0  0  0  0  0  0  0
   20.2175  -21.8244   -9.6280 O   0  0  0  0  0  0  0  0  0  0  0  0
   21.8386  -20.4257  -10.6493 C   0  0  0  0  0  0  0  0  0  0  0  0
   23.2025  -19.8409  -10.3509 C   0  0  0  0  0  0  0  0  0  0  0  0
   24.2881  -20.8864  -10.5450 C   0  0  2  0  0  0  0  0  0  0  0  0
   24.9557  -21.0330   -9.2659 N   0  0  0  0  0  0  0  0  0  0  0  0
   25.2609  -20.5034  -11.5675 C   0  0  0  0  0  0  0  0  0  0  0  0
   26.3350  -19.8958  -11.2298 O   0  0  0  0  0  0  0  0  0  0  0  0
   28.8283  -21.9803  -15.5143 N   0  0  0  0  0  0  0  0  0  0  0  0
   27.5012  -21.5508  -15.7107 C   0  0  0  0  0  0  0  0  0  0  0  0
   27.1773  -21.0271  -16.7911 O   0  0  0  0  0  0  0  0  0  0  0  0
   26.5015  -21.7198  -14.6445 C   0  0  0  0  0  0  0  0  0  0  0  0
   26.1499  -20.4391  -13.9304 C   0  0  2  0  0  0  0  0  0  0  0  0
   25.1235  -20.7506  -12.9557 N   0  0  0  0  0  0  0  0  0  0  0  0
   25.6519  -19.4895  -14.9612 C   0  0  0  0  0  0  0  0  0  0  0  0
   24.4955  -19.6666  -15.4071 O   0  0  0  0  0  0  0  0  0  0  0  0
   25.7437  -15.5569  -14.8166 C   0  0  0  0  0  0  0  0  0  0  0  0
   26.1870  -16.0620  -16.1629 C   0  0  1  0  0  0  0  0  0  0  0  0
   27.6517  -15.9137  -16.4109 C   0  0  0  0  0  0  0  0  0  0  0  0
   25.7887  -17.5003  -16.4057 C   0  0  2  0  0  0  0  0  0  0  0  0
   26.4023  -18.4048  -15.4649 N   0  0  0  0  0  0  0  0  0  0  0  0
   26.1301  -17.9267  -17.7867 C   0  0  0  0  0  0  0  0  0  0  0  0
   25.4141  -17.4620  -18.8847 O   0  0  0  0  0  0  0  0  0  0  0  0
   27.0783  -18.7262  -18.0444 O   0  0  0  0  0  0  0  0  0  0  0  0
  2  1  1  0
  3  2  2  0
  4  2  1  0
  5  4  1  0
  6  5  1  0
  6  7  1  1
  8 15  1  0
  8  6  1  0
  9  8  2  0
 10 11  1  0
 11 13  1  0
 12 11  2  0
 14 13  1  6
 14 15  1  0
 16 14  1  0
 17 16  2  0
 19 18  1  1
 19 21  1  0
 19 20  1  0
 21 23  1  0
 21 22  1  1
 22 16  1  0
 23 24  1  0
 25 23  2  0
M  END
$$$$
