QNV.pdb
     RDKit          3D

 25 24  0  0  1  0  0  0  0  0999 V2000
   27.3035  -18.8897  -18.0501 N   0  0  0  0  0  0  0  0  0  0  0  0
   28.5037  -18.3718  -17.4969 C   0  0  0  0  0  0  0  0  0  0  0  0
   29.2055  -17.5848  -18.1710 O   0  0  0  0  0  0  0  0  0  0  0  0
   28.8905  -18.7754  -16.1435 C   0  0  0  0  0  0  0  0  0  0  0  0
   27.9416  -19.7919  -15.5454 C   0  0  0  0  0  0  0  0  0  0  0  0
   26.6565  -19.1218  -15.0887 C   0  0  2  0  0  0  0  0  0  0  0  0
   27.0389  -18.1000  -14.1332 N   0  0  0  0  0  0  0  0  0  0  0  0
   25.7258  -20.0593  -14.4615 C   0  0  0  0  0  0  0  0  0  0  0  0
   25.3225  -21.0865  -15.1089 O   0  0  0  0  0  0  0  0  0  0  0  0
   26.2163  -20.3550   -9.4424 N   0  0  0  0  0  0  0  0  0  0  0  0
   25.6575  -21.1041  -10.4964 C   0  0  0  0  0  0  0  0  0  0  0  0
   26.2709  -22.0888  -10.9444 O   0  0  0  0  0  0  0  0  0  0  0  0
   24.3548  -20.7256  -11.0660 C   0  0  0  0  0  0  0  0  0  0  0  0
   24.2764  -20.8811  -12.5638 C   0  0  2  0  0  0  0  0  0  0  0  0
   25.2049  -19.9351  -13.1499 N   0  0  0  0  0  0  0  0  0  0  0  0
   22.8736  -20.5833  -12.9586 C   0  0  0  0  0  0  0  0  0  0  0  0
   22.4511  -19.4191  -12.7759 O   0  0  0  0  0  0  0  0  0  0  0  0
   21.3918  -20.9569  -16.4255 C   0  0  0  0  0  0  0  0  0  0  0  0
   20.4433  -21.5629  -15.4268 C   0  0  1  0  0  0  0  0  0  0  0  0
   20.4154  -23.0554  -15.4494 C   0  0  0  0  0  0  0  0  0  0  0  0
   20.7087  -21.0957  -14.0134 C   0  0  2  0  0  0  0  0  0  0  0  0
   21.9937  -21.5312  -13.5248 N   0  0  0  0  0  0  0  0  0  0  0  0
   19.6487  -21.5643  -13.0846 C   0  0  0  0  0  0  0  0  0  0  0  0
   19.9142  -22.5160  -12.1058 O   0  0  0  0  0  0  0  0  0  0  0  0
   18.4585  -21.1329  -13.1265 O   0  0  0  0  0  0  0  0  0  0  0  0
  2  1  1  0
  3  2  2  0
  4  2  1  0
  5  4  1  0
  6  5  1  0
  6  7  1  1
  8 15  1  0
  8  6  1  0
  9  8  2  0
 10 11  1  0
 11 13  1  0
 12 11  2  0
 14 13  1  1
 14 15  1  0
 16 14  1  0
 17 16  2  0
 19 18  1  6
 19 21  1  0
 19 20  1  0
 21 23  1  0
 21 22  1  1
 22 16  1  0
 23 24  1  0
 25 23  2  0
M  END
$$$$
