QNV.pdb
     RDKit          3D

 25 24  0  0  1  0  0  0  0  0999 V2000
   17.0402  -14.0920  -15.2743 N   0  0  0  0  0  0  0  0  0  0  0  0
   16.9940  -12.6756  -15.1937 C   0  0  0  0  0  0  0  0  0  0  0  0
   17.6161  -11.9883  -16.0344 O   0  0  0  0  0  0  0  0  0  0  0  0
   16.2145  -12.0533  -14.1216 C   0  0  0  0  0  0  0  0  0  0  0  0
   16.4735  -10.5668  -14.0008 C   0  0  0  0  0  0  0  0  0  0  0  0
   15.6555   -9.9706  -12.8673 C   0  0  2  0  0  0  0  0  0  0  0  0
   14.2719   -9.9873  -13.3015 N   0  0  0  0  0  0  0  0  0  0  0  0
   16.0546   -8.6010  -12.5461 C   0  0  0  0  0  0  0  0  0  0  0  0
   15.7658   -7.6477  -13.3490 O   0  0  0  0  0  0  0  0  0  0  0  0
   18.2276   -4.4102  -10.2420 N   0  0  0  0  0  0  0  0  0  0  0  0
   17.4716   -5.1787   -9.3354 C   0  0  0  0  0  0  0  0  0  0  0  0
   17.2367   -4.7340   -8.1980 O   0  0  0  0  0  0  0  0  0  0  0  0
   16.9613   -6.5012   -9.7296 C   0  0  0  0  0  0  0  0  0  0  0  0
   17.2617   -6.8683  -11.1610 C   0  0  2  0  0  0  0  0  0  0  0  0
   16.7607   -8.2103  -11.3816 N   0  0  0  0  0  0  0  0  0  0  0  0
   18.7386   -6.8044  -11.3250 C   0  0  0  0  0  0  0  0  0  0  0  0
   19.4477   -7.3070  -10.4240 O   0  0  0  0  0  0  0  0  0  0  0  0
   21.0717   -8.6178  -13.2765 C   0  0  0  0  0  0  0  0  0  0  0  0
   21.3291   -7.1681  -13.5872 C   0  0  1  0  0  0  0  0  0  0  0  0
   20.7765   -6.7252  -14.9015 C   0  0  0  0  0  0  0  0  0  0  0  0
   20.8261   -6.2417  -12.5031 C   0  0  2  0  0  0  0  0  0  0  0  0
   19.3861   -6.2132  -12.4317 N   0  0  0  0  0  0  0  0  0  0  0  0
   21.3327   -4.8595  -12.6997 C   0  0  0  0  0  0  0  0  0  0  0  0
   22.6720   -4.5447  -12.4965 O   0  0  0  0  0  0  0  0  0  0  0  0
   20.5883   -3.8994  -13.0583 O   0  0  0  0  0  0  0  0  0  0  0  0
  2  1  1  0
  3  2  2  0
  4  2  1  0
  5  4  1  0
  6  5  1  0
  6  7  1  6
  8 15  1  0
  8  6  1  0
  9  8  2  0
 10 11  1  0
 11 13  1  0
 12 11  2  0
 14 13  1  1
 14 15  1  0
 16 14  1  0
 17 16  2  0
 19 18  1  1
 19 21  1  0
 19 20  1  0
 21 23  1  0
 21 22  1  6
 22 16  1  0
 23 24  1  0
 25 23  2  0
M  END
$$$$
