QNV.pdb
     RDKit          3D

 25 24  0  0  1  0  0  0  0  0999 V2000
   19.3743  -13.6154  -19.6169 N   0  0  0  0  0  0  0  0  0  0  0  0
   20.2673  -13.9502  -18.5656 C   0  0  0  0  0  0  0  0  0  0  0  0
   21.0353  -14.9297  -18.6957 O   0  0  0  0  0  0  0  0  0  0  0  0
   20.2655  -13.1347  -17.3494 C   0  0  0  0  0  0  0  0  0  0  0  0
   19.2512  -12.0123  -17.4023 C   0  0  0  0  0  0  0  0  0  0  0  0
   18.7462  -11.6801  -16.0081 C   0  0  2  0  0  0  0  0  0  0  0  0
   17.5070  -12.4123  -15.8309 N   0  0  0  0  0  0  0  0  0  0  0  0
   18.5039  -10.2497  -15.8240 C   0  0  0  0  0  0  0  0  0  0  0  0
   17.9507   -9.5715  -16.7572 O   0  0  0  0  0  0  0  0  0  0  0  0
   15.4271   -6.7944  -14.4399 N   0  0  0  0  0  0  0  0  0  0  0  0
   16.1870   -7.9520  -14.1816 C   0  0  0  0  0  0  0  0  0  0  0  0
   15.7232   -9.0695  -14.4688 O   0  0  0  0  0  0  0  0  0  0  0  0
   17.5231   -7.8421  -13.5753 C   0  0  0  0  0  0  0  0  0  0  0  0
   18.6536   -8.0772  -14.5451 C   0  0  2  0  0  0  0  0  0  0  0  0
   18.8368   -9.5102  -14.6624 N   0  0  0  0  0  0  0  0  0  0  0  0
   19.8592   -7.4188  -13.9749 C   0  0  0  0  0  0  0  0  0  0  0  0
   20.3051   -7.8573  -12.8904 O   0  0  0  0  0  0  0  0  0  0  0  0
   23.3306   -7.3540  -15.2580 C   0  0  0  0  0  0  0  0  0  0  0  0
   22.9185   -5.9360  -14.9687 C   0  0  1  0  0  0  0  0  0  0  0  0
   22.5942   -5.1407  -16.1898 C   0  0  0  0  0  0  0  0  0  0  0  0
   21.7583   -5.8520  -14.0026 C   0  0  2  0  0  0  0  0  0  0  0  0
   20.5280   -6.3331  -14.5811 N   0  0  0  0  0  0  0  0  0  0  0  0
   21.5600   -4.4613  -13.5205 C   0  0  0  0  0  0  0  0  0  0  0  0
   22.4735   -3.8558  -12.6643 O   0  0  0  0  0  0  0  0  0  0  0  0
   20.5637   -3.7538  -13.8543 O   0  0  0  0  0  0  0  0  0  0  0  0
  2  1  1  0
  3  2  2  0
  4  2  1  0
  5  4  1  0
  6  5  1  0
  6  7  1  6
  8 15  1  0
  8  6  1  0
  9  8  2  0
 10 11  1  0
 11 13  1  0
 12 11  2  0
 14 13  1  1
 14 15  1  0
 16 14  1  0
 17 16  2  0
 19 18  1  6
 19 21  1  0
 19 20  1  0
 21 23  1  0
 21 22  1  6
 22 16  1  0
 23 24  1  0
 25 23  2  0
M  END
$$$$
