QNV.pdb
     RDKit          3D

 25 24  0  0  1  0  0  0  0  0999 V2000
   27.9861  -25.0370  -20.3151 N   0  0  0  0  0  0  0  0  0  0  0  0
   28.7820  -26.1957  -20.5122 C   0  0  0  0  0  0  0  0  0  0  0  0
   29.5533  -26.2555  -21.4959 O   0  0  0  0  0  0  0  0  0  0  0  0
   28.6779  -27.2969  -19.5525 C   0  0  0  0  0  0  0  0  0  0  0  0
   27.6489  -27.0341  -18.4740 C   0  0  0  0  0  0  0  0  0  0  0  0
   28.2278  -26.1450  -17.3860 C   0  0  2  0  0  0  0  0  0  0  0  0
   29.2106  -26.9428  -16.6783 N   0  0  0  0  0  0  0  0  0  0  0  0
   27.2113  -25.6697  -16.4483 C   0  0  0  0  0  0  0  0  0  0  0  0
   26.8442  -26.4141  -15.4746 O   0  0  0  0  0  0  0  0  0  0  0  0
   24.0190  -22.4620  -13.7486 N   0  0  0  0  0  0  0  0  0  0  0  0
   24.9783  -21.7283  -14.4736 C   0  0  0  0  0  0  0  0  0  0  0  0
   25.1158  -20.5115  -14.2562 O   0  0  0  0  0  0  0  0  0  0  0  0
   25.8147  -22.3957  -15.4834 C   0  0  0  0  0  0  0  0  0  0  0  0
   25.6958  -23.8989  -15.4760 C   0  0  2  0  0  0  0  0  0  0  0  0
   26.5656  -24.4105  -16.5164 N   0  0  0  0  0  0  0  0  0  0  0  0
   24.2703  -24.2233  -15.7495 C   0  0  0  0  0  0  0  0  0  0  0  0
   23.7899  -23.8608  -16.8473 O   0  0  0  0  0  0  0  0  0  0  0  0
   22.6086  -27.2742  -16.4562 C   0  0  0  0  0  0  0  0  0  0  0  0
   21.7668  -26.6362  -15.3845 C   0  0  1  0  0  0  0  0  0  0  0  0
   21.8703  -27.3085  -14.0555 C   0  0  0  0  0  0  0  0  0  0  0  0
   22.0575  -25.1620  -15.2156 C   0  0  2  0  0  0  0  0  0  0  0  0
   23.4297  -24.9129  -14.8486 N   0  0  0  0  0  0  0  0  0  0  0  0
   21.1620  -24.5504  -14.2008 C   0  0  0  0  0  0  0  0  0  0  0  0
   21.6417  -24.1588  -12.9556 O   0  0  0  0  0  0  0  0  0  0  0  0
   19.9276  -24.3516  -14.4043 O   0  0  0  0  0  0  0  0  0  0  0  0
  2  1  1  0
  3  2  2  0
  4  2  1  0
  5  4  1  0
  6  5  1  0
  6  7  1  1
  8 15  1  0
  8  6  1  0
  9  8  2  0
 10 11  1  0
 11 13  1  0
 12 11  2  0
 14 13  1  6
 14 15  1  0
 16 14  1  0
 17 16  2  0
 19 18  1  6
 19 21  1  0
 19 20  1  0
 21 23  1  0
 21 22  1  1
 22 16  1  0
 23 24  1  0
 25 23  2  0
M  END
$$$$
