QNV.pdb
     RDKit          3D

 25 24  0  0  1  0  0  0  0  0999 V2000
   11.2217   -9.6073  -10.5028 N   0  0  0  0  0  0  0  0  0  0  0  0
   11.9563  -10.7357  -10.0535 C   0  0  0  0  0  0  0  0  0  0  0  0
   11.3632  -11.6604   -9.4542 O   0  0  0  0  0  0  0  0  0  0  0  0
   13.3979  -10.7871  -10.3054 C   0  0  0  0  0  0  0  0  0  0  0  0
   13.9047   -9.5646  -11.0403 C   0  0  0  0  0  0  0  0  0  0  0  0
   15.4063   -9.6531  -11.2562 C   0  0  2  0  0  0  0  0  0  0  0  0
   15.9521  -10.3329  -10.0973 N   0  0  0  0  0  0  0  0  0  0  0  0
   16.0324   -8.3391  -11.3969 C   0  0  0  0  0  0  0  0  0  0  0  0
   15.7809   -7.6198  -12.4246 O   0  0  0  0  0  0  0  0  0  0  0  0
   15.3158   -5.6193   -7.7213 N   0  0  0  0  0  0  0  0  0  0  0  0
   15.9536   -5.2661   -8.9266 C   0  0  0  0  0  0  0  0  0  0  0  0
   15.3663   -4.5334   -9.7420 O   0  0  0  0  0  0  0  0  0  0  0  0
   17.3077   -5.7602   -9.2217 C   0  0  0  0  0  0  0  0  0  0  0  0
   17.4381   -6.4078  -10.5772 C   0  0  2  0  0  0  0  0  0  0  0  0
   16.9292   -7.7603  -10.4653 N   0  0  0  0  0  0  0  0  0  0  0  0
   18.8837   -6.3970  -10.9266 C   0  0  0  0  0  0  0  0  0  0  0  0
   19.6880   -6.8777  -10.0962 O   0  0  0  0  0  0  0  0  0  0  0  0
   20.9286   -8.3819  -12.9939 C   0  0  0  0  0  0  0  0  0  0  0  0
   21.1691   -6.9661  -13.4435 C   0  0  1  0  0  0  0  0  0  0  0  0
   20.4645   -6.6071  -14.7098 C   0  0  0  0  0  0  0  0  0  0  0  0
   20.8205   -5.9498  -12.3796 C   0  0  2  0  0  0  0  0  0  0  0  0
   19.4012   -5.8791  -12.1338 N   0  0  0  0  0  0  0  0  0  0  0  0
   21.3211   -4.5993  -12.7419 C   0  0  0  0  0  0  0  0  0  0  0  0
   22.6780   -4.2968  -12.7029 O   0  0  0  0  0  0  0  0  0  0  0  0
   20.5556   -3.6566  -13.1023 O   0  0  0  0  0  0  0  0  0  0  0  0
  2  1  1  0
  3  2  2  0
  4  2  1  0
  5  4  1  0
  6  5  1  0
  6  7  1  1
  8 15  1  0
  8  6  1  0
  9  8  2  0
 10 11  1  0
 11 13  1  0
 12 11  2  0
 14 13  1  1
 14 15  1  0
 16 14  1  0
 17 16  2  0
 19 18  1  1
 19 21  1  0
 19 20  1  0
 21 23  1  0
 21 22  1  6
 22 16  1  0
 23 24  1  0
 25 23  2  0
M  END
$$$$
