QNV.pdb
     RDKit          3D

 25 24  0  0  1  0  0  0  0  0999 V2000
   24.8792  -17.3878  -21.1381 N   0  0  0  0  0  0  0  0  0  0  0  0
   25.8896  -18.2886  -21.5652 C   0  0  0  0  0  0  0  0  0  0  0  0
   26.0057  -18.5547  -22.7825 O   0  0  0  0  0  0  0  0  0  0  0  0
   26.7744  -18.8858  -20.5629 C   0  0  0  0  0  0  0  0  0  0  0  0
   26.5265  -18.3450  -19.1710 C   0  0  0  0  0  0  0  0  0  0  0  0
   26.3933  -19.4809  -18.1704 C   0  0  2  0  0  0  0  0  0  0  0  0
   25.7180  -20.5634  -18.8599 N   0  0  0  0  0  0  0  0  0  0  0  0
   25.6276  -19.0986  -16.9846 C   0  0  0  0  0  0  0  0  0  0  0  0
   26.0732  -18.1879  -16.2042 O   0  0  0  0  0  0  0  0  0  0  0  0
   23.0169  -16.5499  -16.1013 N   0  0  0  0  0  0  0  0  0  0  0  0
   21.9870  -17.4958  -16.2713 C   0  0  0  0  0  0  0  0  0  0  0  0
   20.8784  -17.1285  -16.6987 O   0  0  0  0  0  0  0  0  0  0  0  0
   22.2191  -18.9117  -15.9455 C   0  0  0  0  0  0  0  0  0  0  0  0
   23.6167  -19.2041  -15.4606 C   0  0  2  0  0  0  0  0  0  0  0  0
   24.3866  -19.6631  -16.5995 N   0  0  0  0  0  0  0  0  0  0  0  0
   23.5031  -20.2595  -14.4188 C   0  0  0  0  0  0  0  0  0  0  0  0
   23.0533  -21.3752  -14.7657 O   0  0  0  0  0  0  0  0  0  0  0  0
   26.2062  -21.1507  -11.6198 C   0  0  0  0  0  0  0  0  0  0  0  0
   24.8064  -21.1504  -11.0678 C   0  0  1  0  0  0  0  0  0  0  0  0
   24.5204  -20.0095  -10.1484 C   0  0  0  0  0  0  0  0  0  0  0  0
   23.7526  -21.1868  -12.1516 C   0  0  2  0  0  0  0  0  0  0  0  0
   23.8707  -20.0792  -13.0676 N   0  0  0  0  0  0  0  0  0  0  0  0
   22.3854  -21.1972  -11.5717 C   0  0  0  0  0  0  0  0  0  0  0  0
   21.8482  -22.3492  -11.0074 O   0  0  0  0  0  0  0  0  0  0  0  0
   21.6379  -20.1746  -11.5561 O   0  0  0  0  0  0  0  0  0  0  0  0
  2  1  1  0
  3  2  2  0
  4  2  1  0
  5  4  1  0
  6  5  1  0
  6  7  1  6
  8 15  1  0
  8  6  1  0
  9  8  2  0
 10 11  1  0
 11 13  1  0
 12 11  2  0
 14 13  1  6
 14 15  1  0
 16 14  1  0
 17 16  2  0
 19 18  1  6
 19 21  1  0
 19 20  1  0
 21 23  1  0
 21 22  1  6
 22 16  1  0
 23 24  1  0
 25 23  2  0
M  END
$$$$
