QNV.pdb
     RDKit          3D

 25 24  0  0  1  0  0  0  0  0999 V2000
   16.8063  -13.3497  -15.8404 N   0  0  0  0  0  0  0  0  0  0  0  0
   17.2602  -13.3981  -17.1844 C   0  0  0  0  0  0  0  0  0  0  0  0
   17.0254  -14.4118  -17.8798 O   0  0  0  0  0  0  0  0  0  0  0  0
   17.9959  -12.2528  -17.7241 C   0  0  0  0  0  0  0  0  0  0  0  0
   18.1777  -11.1460  -16.7076 C   0  0  0  0  0  0  0  0  0  0  0  0
   18.9151   -9.9685  -17.3234 C   0  0  2  0  0  0  0  0  0  0  0  0
   20.0253  -10.5219  -18.0746 N   0  0  0  0  0  0  0  0  0  0  0  0
   19.4178   -9.0325  -16.3186 C   0  0  0  0  0  0  0  0  0  0  0  0
   18.6105   -8.5056  -15.4775 O   0  0  0  0  0  0  0  0  0  0  0  0
   23.0586  -10.7810  -13.9755 N   0  0  0  0  0  0  0  0  0  0  0  0
   22.3902   -9.5690  -13.7135 C   0  0  0  0  0  0  0  0  0  0  0  0
   21.6557   -9.4746  -12.7144 O   0  0  0  0  0  0  0  0  0  0  0  0
   22.5585   -8.4191  -14.6159 C   0  0  0  0  0  0  0  0  0  0  0  0
   21.2579   -7.8185  -15.0866 C   0  0  2  0  0  0  0  0  0  0  0  0
   20.7707   -8.6353  -16.1803 N   0  0  0  0  0  0  0  0  0  0  0  0
   21.5565   -6.4316  -15.5335 C   0  0  0  0  0  0  0  0  0  0  0  0
   22.3063   -6.2874  -16.5256 O   0  0  0  0  0  0  0  0  0  0  0  0
   19.4432   -3.8042  -16.9968 C   0  0  0  0  0  0  0  0  0  0  0  0
   20.1863   -3.1760  -15.8490 C   0  0  1  0  0  0  0  0  0  0  0  0
   19.3369   -2.9188  -14.6485 C   0  0  0  0  0  0  0  0  0  0  0  0
   21.3996   -3.9766  -15.4326 C   0  0  2  0  0  0  0  0  0  0  0  0
   21.0469   -5.2728  -14.9082 N   0  0  0  0  0  0  0  0  0  0  0  0
   22.2059   -3.2444  -14.4228 C   0  0  0  0  0  0  0  0  0  0  0  0
   22.2684   -3.6704  -13.1004 O   0  0  0  0  0  0  0  0  0  0  0  0
   22.8745   -2.2047  -14.6999 O   0  0  0  0  0  0  0  0  0  0  0  0
  2  1  1  0
  3  2  2  0
  4  2  1  0
  5  4  1  0
  6  5  1  0
  6  7  1  1
  8 15  1  0
  8  6  1  0
  9  8  2  0
 10 11  1  0
 11 13  1  0
 12 11  2  0
 14 13  1  6
 14 15  1  0
 16 14  1  0
 17 16  2  0
 19 18  1  6
 19 21  1  0
 19 20  1  0
 21 23  1  0
 21 22  1  1
 22 16  1  0
 23 24  1  0
 25 23  2  0
M  END
$$$$
