WGI.pdb
     RDKit          3D

 27 28  0  0  1  0  0  0  0  0999 V2000
    6.9123  -17.4230   26.4588 N   0  0  0  0  0  0  0  0  0  0  0  0
    6.7658  -16.8684   25.1371 C   0  0  1  0  0  0  0  0  0  0  0  0
    7.9616  -15.9772   24.7860 C   0  0  0  0  0  0  0  0  0  0  0  0
    8.1828  -15.0563   25.9223 C   0  0  0  0  0  0  0  0  0  0  0  0
    9.1287  -15.1322   26.9257 C   0  0  0  0  0  0  0  0  0  0  0  0
    8.9796  -14.0796   27.7649 N   0  0  0  0  0  0  0  0  0  0  0  0
    7.9588  -13.3236   27.3284 C   0  0  0  0  0  0  0  0  0  0  0  0
    7.3710  -12.1593   27.7771 C   0  0  0  0  0  0  0  0  0  0  0  0
    6.3034  -11.5980   27.1017 C   0  0  0  0  0  0  0  0  0  0  0  0
    5.7959  -12.1855   25.9611 C   0  0  0  0  0  0  0  0  0  0  0  0
    6.3714  -13.3460   25.5023 C   0  0  0  0  0  0  0  0  0  0  0  0
    7.4508  -13.9221   26.1769 C   0  0  0  0  0  0  0  0  0  0  0  0
    6.7592  -17.9530   24.1296 C   0  0  0  0  0  0  0  0  0  0  0  0
    6.1360  -19.0317   24.2948 O   0  0  0  0  0  0  0  0  0  0  0  0
    7.4860  -17.7716   22.9251 N   0  0  0  0  0  0  0  0  0  0  0  0
    6.8407  -18.0200   21.6674 C   0  0  0  0  0  0  0  0  0  0  0  0
    7.3008  -17.0861   20.6095 C   0  0  0  0  0  0  0  0  0  0  0  0
    6.7574  -17.1460   19.4695 O   0  0  0  0  0  0  0  0  0  0  0  0
    7.4915  -12.0520   21.0732 C   0  0  0  0  0  0  0  0  0  0  0  0
    7.4969  -13.4231   20.5054 C   0  0  0  0  0  0  0  0  0  0  0  0
    8.8531  -13.9097   20.0807 C   0  0  2  0  0  0  0  0  0  0  0  0
    9.4019  -13.0912   18.9330 C   0  0  0  0  0  0  0  0  0  0  0  0
    8.8783  -15.3529   19.6887 C   0  0  2  0  0  0  0  0  0  0  0  0
    8.3220  -16.1207   20.7988 N   0  0  0  0  0  0  0  0  0  0  0  0
   10.2458  -15.8559   19.4021 C   0  0  0  0  0  0  0  0  0  0  0  0
   10.9833  -16.3420   20.2966 O   0  0  0  0  0  0  0  0  0  0  0  0
   10.8032  -15.8211   18.1130 O   0  0  0  0  0  0  0  0  0  0  0  0
  2  1  1  1
  3  2  1  0
  4  3  1  0
  4  5  2  0
  6  5  1  0
  7  6  1  0
  8  7  2  0
  9  8  1  0
 10  9  2  0
 10 11  1  0
 11 12  2  0
 12  7  1  0
 12  4  1  0
 13  2  1  0
 13 14  2  0
 15 16  1  0
 15 13  1  0
 17 18  2  0
 17 16  1  0
 20 19  1  0
 20 21  1  0
 21 22  1  6
 23 21  1  0
 23 24  1  1
 24 17  1  0
 25 23  1  0
 26 25  2  0
 27 25  1  0
M  END
$$$$
