WGI.pdb
     RDKit          3D

 27 28  0  0  1  0  0  0  0  0999 V2000
    6.8522  -16.9806   22.3570 N   0  0  0  0  0  0  0  0  0  0  0  0
    7.6197  -15.9859   23.0624 C   0  0  1  0  0  0  0  0  0  0  0  0
    7.4215  -16.1189   24.5758 C   0  0  0  0  0  0  0  0  0  0  0  0
    6.4391  -15.0938   24.9907 C   0  0  0  0  0  0  0  0  0  0  0  0
    5.1171  -15.2597   25.3539 C   0  0  0  0  0  0  0  0  0  0  0  0
    4.5810  -14.0549   25.6632 N   0  0  0  0  0  0  0  0  0  0  0  0
    5.5253  -13.1123   25.5086 C   0  0  0  0  0  0  0  0  0  0  0  0
    5.5465  -11.7434   25.6759 C   0  0  0  0  0  0  0  0  0  0  0  0
    6.6973  -11.0171   25.4332 C   0  0  0  0  0  0  0  0  0  0  0  0
    7.8561  -11.6396   25.0172 C   0  0  0  0  0  0  0  0  0  0  0  0
    7.8500  -13.0031   24.8460 C   0  0  0  0  0  0  0  0  0  0  0  0
    6.6926  -13.7472   25.0884 C   0  0  0  0  0  0  0  0  0  0  0  0
    9.0653  -16.1967   22.8230 C   0  0  0  0  0  0  0  0  0  0  0  0
    9.5734  -16.1868   21.6736 O   0  0  0  0  0  0  0  0  0  0  0  0
    9.9170  -16.4199   23.9350 N   0  0  0  0  0  0  0  0  0  0  0  0
   11.3318  -16.5426   23.7269 C   0  0  0  0  0  0  0  0  0  0  0  0
   12.0580  -16.8396   24.9867 C   0  0  0  0  0  0  0  0  0  0  0  0
   13.3149  -16.9702   24.9457 O   0  0  0  0  0  0  0  0  0  0  0  0
    9.2985  -14.6639   28.9311 C   0  0  0  0  0  0  0  0  0  0  0  0
    9.9905  -15.6518   28.0665 C   0  0  0  0  0  0  0  0  0  0  0  0
   11.4806  -15.6958   28.2504 C   0  0  2  0  0  0  0  0  0  0  0  0
   12.1286  -14.3903   27.8453 C   0  0  0  0  0  0  0  0  0  0  0  0
   12.1460  -16.8075   27.5030 C   0  0  2  0  0  0  0  0  0  0  0  0
   11.4245  -16.9875   26.2467 N   0  0  0  0  0  0  0  0  0  0  0  0
   12.1383  -18.0948   28.2432 C   0  0  0  0  0  0  0  0  0  0  0  0
   12.7050  -18.2321   29.3569 O   0  0  0  0  0  0  0  0  0  0  0  0
   11.4971  -19.2420   27.7467 O   0  0  0  0  0  0  0  0  0  0  0  0
  2  1  1  6
  3  2  1  0
  4  3  1  0
  4  5  2  0
  6  5  1  0
  7  6  1  0
  8  7  2  0
  9  8  1  0
 10  9  2  0
 10 11  1  0
 11 12  2  0
 12  7  1  0
 12  4  1  0
 13  2  1  0
 13 14  2  0
 15 16  1  0
 15 13  1  0
 17 18  2  0
 17 16  1  0
 20 19  1  0
 20 21  1  0
 21 22  1  6
 23 21  1  0
 23 24  1  6
 24 17  1  0
 25 23  1  0
 26 25  2  0
 27 25  1  0
M  END
$$$$
