WGI.pdb
     RDKit          3D

 27 28  0  0  1  0  0  0  0  0999 V2000
    8.6232  -17.0141   24.2971 N   0  0  0  0  0  0  0  0  0  0  0  0
    8.3931  -16.8110   22.8893 C   0  0  1  0  0  0  0  0  0  0  0  0
    7.3008  -15.7607   22.6631 C   0  0  0  0  0  0  0  0  0  0  0  0
    6.7672  -15.3769   23.9882 C   0  0  0  0  0  0  0  0  0  0  0  0
    6.0704  -16.1491   24.8968 C   0  0  0  0  0  0  0  0  0  0  0  0
    5.7713  -15.4018   25.9861 N   0  0  0  0  0  0  0  0  0  0  0  0
    6.2580  -14.1633   25.8041 C   0  0  0  0  0  0  0  0  0  0  0  0
    6.2506  -13.0117   26.5633 C   0  0  0  0  0  0  0  0  0  0  0  0
    6.8490  -11.8542   26.1017 C   0  0  0  0  0  0  0  0  0  0  0  0
    7.4698  -11.8175   24.8701 C   0  0  0  0  0  0  0  0  0  0  0  0
    7.4850  -12.9573   24.1025 C   0  0  0  0  0  0  0  0  0  0  0  0
    6.8834  -14.1328   24.5590 C   0  0  0  0  0  0  0  0  0  0  0  0
    9.6134  -16.2709   22.2485 C   0  0  0  0  0  0  0  0  0  0  0  0
    9.8978  -16.4791   21.0422 O   0  0  0  0  0  0  0  0  0  0  0  0
   10.5026  -15.4847   23.0251 N   0  0  0  0  0  0  0  0  0  0  0  0
   11.8226  -15.9764   23.3003 C   0  0  0  0  0  0  0  0  0  0  0  0
   12.0440  -16.2003   24.7507 C   0  0  0  0  0  0  0  0  0  0  0  0
   13.2083  -16.4916   25.1485 O   0  0  0  0  0  0  0  0  0  0  0  0
    9.5786  -12.8605   27.9543 C   0  0  0  0  0  0  0  0  0  0  0  0
   10.6011  -13.8001   27.4311 C   0  0  0  0  0  0  0  0  0  0  0  0
   10.4036  -15.2269   27.8573 C   0  0  2  0  0  0  0  0  0  0  0  0
   10.5890  -15.3910   29.3496 C   0  0  0  0  0  0  0  0  0  0  0  0
   11.3058  -16.1935   27.1581 C   0  0  2  0  0  0  0  0  0  0  0  0
   11.0216  -16.1067   25.7288 N   0  0  0  0  0  0  0  0  0  0  0  0
   11.1080  -17.5984   27.5967 C   0  0  0  0  0  0  0  0  0  0  0  0
   11.6129  -18.0481   28.6566 O   0  0  0  0  0  0  0  0  0  0  0  0
   10.3437  -18.5152   26.8558 O   0  0  0  0  0  0  0  0  0  0  0  0
  2  1  1  1
  3  2  1  0
  4  3  1  0
  4  5  2  0
  6  5  1  0
  7  6  1  0
  8  7  2  0
  9  8  1  0
 10  9  2  0
 10 11  1  0
 11 12  2  0
 12  7  1  0
 12  4  1  0
 13  2  1  0
 13 14  2  0
 15 16  1  0
 15 13  1  0
 17 18  2  0
 17 16  1  0
 20 19  1  0
 20 21  1  0
 21 22  1  1
 23 21  1  0
 23 24  1  6
 24 17  1  0
 25 23  1  0
 26 25  2  0
 27 25  1  0
M  END
$$$$
