WGI.pdb
     RDKit          3D

 27 28  0  0  1  0  0  0  0  0999 V2000
    6.6206  -17.8383   23.4519 N   0  0  0  0  0  0  0  0  0  0  0  0
    7.4823  -16.6938   23.6059 C   0  0  1  0  0  0  0  0  0  0  0  0
    7.6830  -16.3602   25.0878 C   0  0  0  0  0  0  0  0  0  0  0  0
    6.7781  -15.2384   25.4209 C   0  0  0  0  0  0  0  0  0  0  0  0
    5.4666  -15.2836   25.8511 C   0  0  0  0  0  0  0  0  0  0  0  0
    5.0121  -14.0221   26.0418 N   0  0  0  0  0  0  0  0  0  0  0  0
    5.9989  -13.1606   25.7448 C   0  0  0  0  0  0  0  0  0  0  0  0
    6.1028  -11.7853   25.7544 C   0  0  0  0  0  0  0  0  0  0  0  0
    7.2798  -11.1605   25.3866 C   0  0  0  0  0  0  0  0  0  0  0  0
    8.3827  -11.8935   24.9998 C   0  0  0  0  0  0  0  0  0  0  0  0
    8.2939  -13.2648   24.9852 C   0  0  0  0  0  0  0  0  0  0  0  0
    7.1094  -13.9069   25.3549 C   0  0  0  0  0  0  0  0  0  0  0  0
    8.8295  -16.9977   23.0730 C   0  0  0  0  0  0  0  0  0  0  0  0
    9.2646  -18.1704   22.9508 O   0  0  0  0  0  0  0  0  0  0  0  0
    9.6687  -15.9229   22.6824 N   0  0  0  0  0  0  0  0  0  0  0  0
   11.0893  -16.1205   22.6284 C   0  0  0  0  0  0  0  0  0  0  0  0
   11.6913  -16.2190   23.9815 C   0  0  0  0  0  0  0  0  0  0  0  0
   12.9460  -16.3411   24.0795 O   0  0  0  0  0  0  0  0  0  0  0  0
    9.0970  -13.6266   27.9903 C   0  0  0  0  0  0  0  0  0  0  0  0
   10.1990  -14.1535   27.1475 C   0  0  0  0  0  0  0  0  0  0  0  0
   10.5933  -15.5685   27.4613 C   0  0  2  0  0  0  0  0  0  0  0  0
   11.1621  -15.6894   28.8577 C   0  0  0  0  0  0  0  0  0  0  0  0
   11.5791  -16.1459   26.4959 C   0  0  2  0  0  0  0  0  0  0  0  0
   10.9403  -16.1842   25.1838 N   0  0  0  0  0  0  0  0  0  0  0  0
   12.0099  -17.5211   26.8543 C   0  0  0  0  0  0  0  0  0  0  0  0
   12.9815  -17.7418   27.6209 O   0  0  0  0  0  0  0  0  0  0  0  0
   11.3593  -18.6639   26.3599 O   0  0  0  0  0  0  0  0  0  0  0  0
  2  1  1  1
  3  2  1  0
  4  3  1  0
  4  5  2  0
  6  5  1  0
  7  6  1  0
  8  7  2  0
  9  8  1  0
 10  9  2  0
 10 11  1  0
 11 12  2  0
 12  7  1  0
 12  4  1  0
 13  2  1  0
 13 14  2  0
 15 16  1  0
 15 13  1  0
 17 18  2  0
 17 16  1  0
 20 19  1  0
 20 21  1  0
 21 22  1  1
 23 21  1  0
 23 24  1  6
 24 17  1  0
 25 23  1  0
 26 25  2  0
 27 25  1  0
M  END
$$$$
