WGI.pdb
     RDKit          3D

 27 28  0  0  1  0  0  0  0  0999 V2000
    8.5506  -16.8243   24.5555 N   0  0  0  0  0  0  0  0  0  0  0  0
    8.2702  -17.0098   23.1544 C   0  0  1  0  0  0  0  0  0  0  0  0
    7.0628  -16.1694   22.7259 C   0  0  0  0  0  0  0  0  0  0  0  0
    6.5913  -15.4246   23.9138 C   0  0  0  0  0  0  0  0  0  0  0  0
    5.8850  -15.8931   25.0042 C   0  0  0  0  0  0  0  0  0  0  0  0
    5.6585  -14.8727   25.8656 N   0  0  0  0  0  0  0  0  0  0  0  0
    6.2016  -13.7539   25.3583 C   0  0  0  0  0  0  0  0  0  0  0  0
    6.2767  -12.4462   25.7905 C   0  0  0  0  0  0  0  0  0  0  0  0
    6.9184  -11.4846   25.0326 C   0  0  0  0  0  0  0  0  0  0  0  0
    7.5013  -11.8046   23.8239 C   0  0  0  0  0  0  0  0  0  0  0  0
    7.4344  -13.1036   23.3803 C   0  0  0  0  0  0  0  0  0  0  0  0
    6.7884  -14.0837   24.1380 C   0  0  0  0  0  0  0  0  0  0  0  0
    9.4089  -16.5273   22.3408 C   0  0  0  0  0  0  0  0  0  0  0  0
    9.5931  -16.8826   21.1495 O   0  0  0  0  0  0  0  0  0  0  0  0
   10.3341  -15.6257   22.9265 N   0  0  0  0  0  0  0  0  0  0  0  0
   11.6975  -16.0346   23.1111 C   0  0  0  0  0  0  0  0  0  0  0  0
   12.0243  -16.2595   24.5413 C   0  0  0  0  0  0  0  0  0  0  0  0
   13.2400  -16.2965   24.8870 O   0  0  0  0  0  0  0  0  0  0  0  0
    9.3912  -14.1228   29.5278 C   0  0  0  0  0  0  0  0  0  0  0  0
   10.4381  -15.0187   28.9768 C   0  0  0  0  0  0  0  0  0  0  0  0
   10.3370  -15.2479   27.4957 C   0  0  2  0  0  0  0  0  0  0  0  0
    8.9591  -15.7322   27.1020 C   0  0  0  0  0  0  0  0  0  0  0  0
   11.3486  -16.2142   26.9666 C   0  0  2  0  0  0  0  0  0  0  0  0
   11.0490  -16.4370   25.5552 N   0  0  0  0  0  0  0  0  0  0  0  0
   11.3284  -17.5228   27.6683 C   0  0  0  0  0  0  0  0  0  0  0  0
   10.7208  -18.5222   27.2074 O   0  0  0  0  0  0  0  0  0  0  0  0
   11.9871  -17.7282   28.8920 O   0  0  0  0  0  0  0  0  0  0  0  0
  2  1  1  1
  3  2  1  0
  4  3  1  0
  4  5  2  0
  6  5  1  0
  7  6  1  0
  8  7  2  0
  9  8  1  0
 10  9  2  0
 10 11  1  0
 11 12  2  0
 12  7  1  0
 12  4  1  0
 13  2  1  0
 13 14  2  0
 15 16  1  0
 15 13  1  0
 17 18  2  0
 17 16  1  0
 20 19  1  0
 20 21  1  0
 21 22  1  1
 23 21  1  0
 23 24  1  6
 24 17  1  0
 25 23  1  0
 26 25  2  0
 27 25  1  0
M  END
$$$$
