WGI.pdb
     RDKit          3D

 27 28  0  0  1  0  0  0  0  0999 V2000
    6.7083  -17.5787   23.5975 N   0  0  0  0  0  0  0  0  0  0  0  0
    7.7257  -16.5745   23.7780 C   0  0  1  0  0  0  0  0  0  0  0  0
    7.8256  -16.1604   25.2497 C   0  0  0  0  0  0  0  0  0  0  0  0
    6.8405  -15.0810   25.4791 C   0  0  0  0  0  0  0  0  0  0  0  0
    5.5299  -15.1819   25.9029 C   0  0  0  0  0  0  0  0  0  0  0  0
    4.9861  -13.9439   25.9815 N   0  0  0  0  0  0  0  0  0  0  0  0
    5.9140  -13.0434   25.6181 C   0  0  0  0  0  0  0  0  0  0  0  0
    5.9216  -11.6683   25.5102 C   0  0  0  0  0  0  0  0  0  0  0  0
    7.0566  -10.9956   25.0979 C   0  0  0  0  0  0  0  0  0  0  0  0
    8.2128  -11.6792   24.7828 C   0  0  0  0  0  0  0  0  0  0  0  0
    8.2202  -13.0496   24.8855 C   0  0  0  0  0  0  0  0  0  0  0  0
    7.0788  -13.7399   25.3012 C   0  0  0  0  0  0  0  0  0  0  0  0
    9.0522  -17.1264   23.4215 C   0  0  0  0  0  0  0  0  0  0  0  0
    9.3061  -18.3570   23.4450 O   0  0  0  0  0  0  0  0  0  0  0  0
   10.0838  -16.2323   23.0366 N   0  0  0  0  0  0  0  0  0  0  0  0
   11.4446  -16.6884   23.0237 C   0  0  0  0  0  0  0  0  0  0  0  0
   12.0413  -16.7039   24.3826 C   0  0  0  0  0  0  0  0  0  0  0  0
   13.2714  -16.9709   24.5017 O   0  0  0  0  0  0  0  0  0  0  0  0
    9.7989  -13.9566   28.8123 C   0  0  0  0  0  0  0  0  0  0  0  0
   10.1249  -15.1109   27.9384 C   0  0  0  0  0  0  0  0  0  0  0  0
   11.5861  -15.2495   27.6188 C   0  0  2  0  0  0  0  0  0  0  0  0
   12.0902  -14.0769   26.8070 C   0  0  0  0  0  0  0  0  0  0  0  0
   11.9250  -16.5112   26.8906 C   0  0  2  0  0  0  0  0  0  0  0  0
   11.3112  -16.4352   25.5682 N   0  0  0  0  0  0  0  0  0  0  0  0
   11.4278  -17.7316   27.5750 C   0  0  0  0  0  0  0  0  0  0  0  0
   10.5611  -18.4834   27.0612 O   0  0  0  0  0  0  0  0  0  0  0  0
   11.8939  -18.1247   28.8407 O   0  0  0  0  0  0  0  0  0  0  0  0
  2  1  1  1
  3  2  1  0
  4  3  1  0
  4  5  2  0
  6  5  1  0
  7  6  1  0
  8  7  2  0
  9  8  1  0
 10  9  2  0
 10 11  1  0
 11 12  2  0
 12  7  1  0
 12  4  1  0
 13  2  1  0
 13 14  2  0
 15 16  1  0
 15 13  1  0
 17 18  2  0
 17 16  1  0
 20 19  1  0
 20 21  1  0
 21 22  1  6
 23 21  1  0
 23 24  1  6
 24 17  1  0
 25 23  1  0
 26 25  2  0
 27 25  1  0
M  END
$$$$
