WGI.pdb
     RDKit          3D

 27 28  0  0  1  0  0  0  0  0999 V2000
    7.1644  -16.5498   22.1548 N   0  0  0  0  0  0  0  0  0  0  0  0
    8.0630  -15.8207   23.0132 C   0  0  1  0  0  0  0  0  0  0  0  0
    7.7109  -16.0480   24.4870 C   0  0  0  0  0  0  0  0  0  0  0  0
    6.6222  -15.1099   24.8373 C   0  0  0  0  0  0  0  0  0  0  0  0
    5.2991  -15.3871   25.1197 C   0  0  0  0  0  0  0  0  0  0  0  0
    4.6456  -14.2322   25.3912 N   0  0  0  0  0  0  0  0  0  0  0  0
    5.5149  -13.2132   25.2910 C   0  0  0  0  0  0  0  0  0  0  0  0
    5.4105  -11.8475   25.4542 C   0  0  0  0  0  0  0  0  0  0  0  0
    6.5088  -11.0265   25.2795 C   0  0  0  0  0  0  0  0  0  0  0  0
    7.7392  -11.5486   24.9373 C   0  0  0  0  0  0  0  0  0  0  0  0
    7.8583  -12.9076   24.7712 C   0  0  0  0  0  0  0  0  0  0  0  0
    6.7550  -13.7469   24.9452 C   0  0  0  0  0  0  0  0  0  0  0  0
    9.4452  -16.3231   22.8447 C   0  0  0  0  0  0  0  0  0  0  0  0
    9.9423  -16.5840   21.7204 O   0  0  0  0  0  0  0  0  0  0  0  0
   10.2465  -16.5201   23.9985 N   0  0  0  0  0  0  0  0  0  0  0  0
   11.6089  -16.9454   23.8472 C   0  0  0  0  0  0  0  0  0  0  0  0
   12.2601  -17.2092   25.1545 C   0  0  0  0  0  0  0  0  0  0  0  0
   13.4649  -17.5925   25.1655 O   0  0  0  0  0  0  0  0  0  0  0  0
   10.2120  -14.4362   29.5165 C   0  0  0  0  0  0  0  0  0  0  0  0
   10.5674  -15.6935   28.8130 C   0  0  0  0  0  0  0  0  0  0  0  0
   12.0021  -15.7711   28.3750 C   0  0  2  0  0  0  0  0  0  0  0  0
   12.3734  -14.6078   27.4821 C   0  0  0  0  0  0  0  0  0  0  0  0
   12.3462  -17.0421   27.6656 C   0  0  2  0  0  0  0  0  0  0  0  0
   11.6095  -17.0566   26.4053 N   0  0  0  0  0  0  0  0  0  0  0  0
   11.9871  -18.2577   28.4391 C   0  0  0  0  0  0  0  0  0  0  0  0
   11.1260  -19.0800   28.0356 O   0  0  0  0  0  0  0  0  0  0  0  0
   12.5865  -18.5672   29.6714 O   0  0  0  0  0  0  0  0  0  0  0  0
  2  1  1  6
  3  2  1  0
  4  3  1  0
  4  5  2  0
  6  5  1  0
  7  6  1  0
  8  7  2  0
  9  8  1  0
 10  9  2  0
 10 11  1  0
 11 12  2  0
 12  7  1  0
 12  4  1  0
 13  2  1  0
 13 14  2  0
 15 16  1  0
 15 13  1  0
 17 18  2  0
 17 16  1  0
 20 19  1  0
 20 21  1  0
 21 22  1  6
 23 21  1  0
 23 24  1  6
 24 17  1  0
 25 23  1  0
 26 25  2  0
 27 25  1  0
M  END
$$$$
