WGI.pdb
     RDKit          3D

 27 28  0  0  1  0  0  0  0  0999 V2000
    6.8814  -17.3694   20.3641 N   0  0  0  0  0  0  0  0  0  0  0  0
    7.3500  -16.3690   21.2891 C   0  0  1  0  0  0  0  0  0  0  0  0
    6.4142  -15.1559   21.2976 C   0  0  0  0  0  0  0  0  0  0  0  0
    7.1582  -14.0204   21.8852 C   0  0  0  0  0  0  0  0  0  0  0  0
    8.0849  -13.1905   21.2854 C   0  0  0  0  0  0  0  0  0  0  0  0
    8.5213  -12.2782   22.1864 N   0  0  0  0  0  0  0  0  0  0  0  0
    7.8988  -12.4981   23.3561 C   0  0  0  0  0  0  0  0  0  0  0  0
    7.9495  -11.8936   24.5949 C   0  0  0  0  0  0  0  0  0  0  0  0
    7.1709  -12.3532   25.6406 C   0  0  0  0  0  0  0  0  0  0  0  0
    6.3220  -13.4281   25.4755 C   0  0  0  0  0  0  0  0  0  0  0  0
    6.2609  -14.0405   24.2468 C   0  0  0  0  0  0  0  0  0  0  0  0
    7.0433  -13.5845   23.1829 C   0  0  0  0  0  0  0  0  0  0  0  0
    7.3308  -16.9051   22.6689 C   0  0  0  0  0  0  0  0  0  0  0  0
    6.2817  -17.3178   23.2242 O   0  0  0  0  0  0  0  0  0  0  0  0
    8.5457  -16.9569   23.3991 N   0  0  0  0  0  0  0  0  0  0  0  0
    8.5525  -17.5225   24.7182 C   0  0  0  0  0  0  0  0  0  0  0  0
    9.6260  -16.9477   25.5668 C   0  0  0  0  0  0  0  0  0  0  0  0
   10.6900  -16.5495   25.0116 O   0  0  0  0  0  0  0  0  0  0  0  0
    8.4169  -13.6745   29.5484 C   0  0  0  0  0  0  0  0  0  0  0  0
    9.0424  -14.4442   28.4445 C   0  0  0  0  0  0  0  0  0  0  0  0
   10.0187  -15.4915   28.8984 C   0  0  2  0  0  0  0  0  0  0  0  0
   11.1350  -14.8894   29.7228 C   0  0  0  0  0  0  0  0  0  0  0  0
   10.6259  -16.2736   27.7773 C   0  0  2  0  0  0  0  0  0  0  0  0
    9.5328  -16.8154   26.9755 N   0  0  0  0  0  0  0  0  0  0  0  0
   11.4752  -17.3989   28.2437 C   0  0  0  0  0  0  0  0  0  0  0  0
   10.9964  -18.5223   28.5422 O   0  0  0  0  0  0  0  0  0  0  0  0
   12.8683  -17.2805   28.3811 O   0  0  0  0  0  0  0  0  0  0  0  0
  2  1  1  6
  3  2  1  0
  4  3  1  0
  4  5  2  0
  6  5  1  0
  7  6  1  0
  8  7  2  0
  9  8  1  0
 10  9  2  0
 10 11  1  0
 11 12  2  0
 12  7  1  0
 12  4  1  0
 13  2  1  0
 13 14  2  0
 15 16  1  0
 15 13  1  0
 17 18  2  0
 17 16  1  0
 20 19  1  0
 20 21  1  0
 21 22  1  6
 23 21  1  0
 23 24  1  6
 24 17  1  0
 25 23  1  0
 26 25  2  0
 27 25  1  0
M  END
$$$$
