WGI.pdb
     RDKit          3D

 27 28  0  0  1  0  0  0  0  0999 V2000
    9.8122  -16.5695   21.1716 N   0  0  0  0  0  0  0  0  0  0  0  0
    8.8166  -16.0630   22.0818 C   0  0  1  0  0  0  0  0  0  0  0  0
    7.4063  -16.3050   21.5342 C   0  0  0  0  0  0  0  0  0  0  0  0
    7.3128  -15.6277   20.2225 C   0  0  0  0  0  0  0  0  0  0  0  0
    7.0460  -16.1757   18.9832 C   0  0  0  0  0  0  0  0  0  0  0  0
    7.0525  -15.1963   18.0476 N   0  0  0  0  0  0  0  0  0  0  0  0
    7.3174  -14.0266   18.6521 C   0  0  0  0  0  0  0  0  0  0  0  0
    7.4456  -12.7274   18.2069 C   0  0  0  0  0  0  0  0  0  0  0  0
    7.7310  -11.7009   19.0876 C   0  0  0  0  0  0  0  0  0  0  0  0
    7.8955  -11.9459   20.4353 C   0  0  0  0  0  0  0  0  0  0  0  0
    7.7707  -13.2355   20.8935 C   0  0  0  0  0  0  0  0  0  0  0  0
    7.4826  -14.2808   20.0124 C   0  0  0  0  0  0  0  0  0  0  0  0
    8.8838  -16.7959   23.3662 C   0  0  0  0  0  0  0  0  0  0  0  0
    8.0675  -16.6047   24.3024 O   0  0  0  0  0  0  0  0  0  0  0  0
    9.9115  -17.7555   23.5529 N   0  0  0  0  0  0  0  0  0  0  0  0
   10.0567  -18.3947   24.8297 C   0  0  0  0  0  0  0  0  0  0  0  0
   10.7878  -17.5429   25.8007 C   0  0  0  0  0  0  0  0  0  0  0  0
   12.0457  -17.4570   25.7050 O   0  0  0  0  0  0  0  0  0  0  0  0
    8.3491  -13.2111   28.3086 C   0  0  0  0  0  0  0  0  0  0  0  0
    8.8898  -14.5842   28.1519 C   0  0  0  0  0  0  0  0  0  0  0  0
   10.3486  -14.6362   27.7977 C   0  0  2  0  0  0  0  0  0  0  0  0
   10.6140  -14.0109   26.4461 C   0  0  0  0  0  0  0  0  0  0  0  0
   10.9190  -16.0189   27.8009 C   0  0  2  0  0  0  0  0  0  0  0  0
   10.1582  -16.8117   26.8397 N   0  0  0  0  0  0  0  0  0  0  0  0
   10.8405  -16.6794   29.1285 C   0  0  0  0  0  0  0  0  0  0  0  0
   10.0982  -17.6713   29.3418 O   0  0  0  0  0  0  0  0  0  0  0  0
   11.5908  -16.2386   30.2314 O   0  0  0  0  0  0  0  0  0  0  0  0
  2  1  1  6
  3  2  1  0
  4  3  1  0
  4  5  2  0
  6  5  1  0
  7  6  1  0
  8  7  2  0
  9  8  1  0
 10  9  2  0
 10 11  1  0
 11 12  2  0
 12  7  1  0
 12  4  1  0
 13  2  1  0
 13 14  2  0
 15 16  1  0
 15 13  1  0
 17 18  2  0
 17 16  1  0
 20 19  1  0
 20 21  1  0
 21 22  1  6
 23 21  1  0
 23 24  1  6
 24 17  1  0
 25 23  1  0
 26 25  2  0
 27 25  1  0
M  END
$$$$
