WGI.pdb
     RDKit          3D

 27 28  0  0  1  0  0  0  0  0999 V2000
    9.7783  -16.0492   22.4561 N   0  0  0  0  0  0  0  0  0  0  0  0
    8.9401  -15.9740   23.6256 C   0  0  1  0  0  0  0  0  0  0  0  0
    7.4654  -15.8471   23.2300 C   0  0  0  0  0  0  0  0  0  0  0  0
    7.2030  -14.4225   22.9302 C   0  0  0  0  0  0  0  0  0  0  0  0
    7.2573  -13.7704   21.7141 C   0  0  0  0  0  0  0  0  0  0  0  0
    6.9427  -12.4647   21.8895 N   0  0  0  0  0  0  0  0  0  0  0  0
    6.6862  -12.2559   23.1912 C   0  0  0  0  0  0  0  0  0  0  0  0
    6.3247  -11.1480   23.9290 C   0  0  0  0  0  0  0  0  0  0  0  0
    6.1242  -11.2393   25.2937 C   0  0  0  0  0  0  0  0  0  0  0  0
    6.2798  -12.4395   25.9561 C   0  0  0  0  0  0  0  0  0  0  0  0
    6.6398  -13.5520   25.2340 C   0  0  0  0  0  0  0  0  0  0  0  0
    6.8450  -13.4713   23.8544 C   0  0  0  0  0  0  0  0  0  0  0  0
    9.0439  -17.2279   24.4056 C   0  0  0  0  0  0  0  0  0  0  0  0
    8.3008  -17.4827   25.3866 O   0  0  0  0  0  0  0  0  0  0  0  0
   10.0221  -18.1854   24.0339 N   0  0  0  0  0  0  0  0  0  0  0  0
   10.3759  -19.2271   24.9556 C   0  0  0  0  0  0  0  0  0  0  0  0
   11.2875  -18.7431   26.0222 C   0  0  0  0  0  0  0  0  0  0  0  0
   12.5334  -18.8964   25.8707 O   0  0  0  0  0  0  0  0  0  0  0  0
    9.9294  -14.4225   29.2863 C   0  0  0  0  0  0  0  0  0  0  0  0
   10.1654  -15.8597   29.0015 C   0  0  0  0  0  0  0  0  0  0  0  0
   11.5110  -16.1575   28.4040 C   0  0  2  0  0  0  0  0  0  0  0  0
   11.6914  -15.4660   27.0708 C   0  0  0  0  0  0  0  0  0  0  0  0
   11.7775  -17.6178   28.2208 C   0  0  2  0  0  0  0  0  0  0  0  0
   10.8448  -18.1129   27.2127 N   0  0  0  0  0  0  0  0  0  0  0  0
   11.5925  -18.4054   29.4660 C   0  0  0  0  0  0  0  0  0  0  0  0
   10.6115  -19.1732   29.6350 O   0  0  0  0  0  0  0  0  0  0  0  0
   12.5017  -18.3434   30.5352 O   0  0  0  0  0  0  0  0  0  0  0  0
  2  1  1  6
  3  2  1  0
  4  3  1  0
  4  5  2  0
  6  5  1  0
  7  6  1  0
  8  7  2  0
  9  8  1  0
 10  9  2  0
 10 11  1  0
 11 12  2  0
 12  7  1  0
 12  4  1  0
 13  2  1  0
 13 14  2  0
 15 16  1  0
 15 13  1  0
 17 18  2  0
 17 16  1  0
 20 19  1  0
 20 21  1  0
 21 22  1  6
 23 21  1  0
 23 24  1  6
 24 17  1  0
 25 23  1  0
 26 25  2  0
 27 25  1  0
M  END
$$$$
