DGK.pdb
     RDKit          3D

 22 21  0  0  1  0  0  0  0  0999 V2000
   24.9591  -22.3923  -16.0400 N   0  0  0  0  0  0  0  0  0  0  0  0
   24.9502  -20.9956  -16.5905 C   0  0  1  0  0  0  0  0  0  0  0  0
   23.6426  -20.7202  -17.2339 C   0  0  0  0  0  0  0  0  0  0  0  0
   23.2699  -21.6313  -18.3197 C   0  0  0  0  0  0  0  0  0  0  0  0
   24.0899  -22.4811  -18.7499 O   0  0  0  0  0  0  0  0  0  0  0  0
   25.2070  -20.1883  -15.3494 C   0  0  0  0  0  0  0  0  0  0  0  0
   25.1851  -18.9003  -15.4565 O   0  0  0  0  0  0  0  0  0  0  0  0
   22.0298  -21.6010  -18.9069 O   0  0  0  0  0  0  0  0  0  0  0  0
   25.4775  -20.6596  -14.0631 N   0  0  0  0  0  0  0  0  0  0  0  0
   25.4190  -19.8009  -12.8951 C   0  0  0  0  0  0  0  0  0  0  0  0
   25.7106  -20.4895  -11.6210 C   0  0  0  0  0  0  0  0  0  0  0  0
   25.2933  -21.6757  -11.5233 O   0  0  0  0  0  0  0  0  0  0  0  0
   26.4038  -19.9330  -10.5423 N   0  0  0  0  0  0  0  0  0  0  0  0
   26.3470  -20.4505   -9.1783 C   0  0  1  0  0  0  0  0  0  0  0  0
   27.1017  -19.5895   -8.2330 C   0  0  0  0  0  0  0  0  0  0  0  0
   27.1400  -20.1589   -6.8442 C   0  0  0  0  0  0  0  0  0  0  0  0
   27.9142  -19.3069   -5.8668 C   0  0  0  0  0  0  0  0  0  0  0  0
   27.9630  -20.1054   -4.5563 C   0  0  0  0  0  0  0  0  0  0  0  0
   28.7000  -19.3516   -3.5601 N   0  0  0  0  0  0  0  0  0  0  0  0
   24.9444  -20.6418   -8.8014 C   0  0  0  0  0  0  0  0  0  0  0  0
   24.5794  -21.7606   -8.0285 O   0  0  0  0  0  0  0  0  0  0  0  0
   23.9903  -19.8832   -9.1068 O   0  0  0  0  0  0  0  0  0  0  0  0
  2  3  1  0
  2  1  1  1
  3  4  1  0
  4  5  2  0
  4  8  1  0
  6  7  2  0
  6  2  1  0
  9  6  1  0
 10  9  1  0
 10 11  1  0
 11 12  2  0
 13 11  1  0
 13 14  1  0
 14 15  1  1
 15 16  1  0
 16 17  1  0
 17 18  1  0
 18 19  1  0
 20 21  1  0
 20 14  1  0
 22 20  2  0
M  END
$$$$
