DGK.pdb
     RDKit          3D

 22 21  0  0  1  0  0  0  0  0999 V2000
   18.3897  -10.9570  -14.3020 N   0  0  0  0  0  0  0  0  0  0  0  0
   18.6280   -9.5313  -14.7073 C   0  0  1  0  0  0  0  0  0  0  0  0
   18.4772   -9.3975  -16.1767 C   0  0  0  0  0  0  0  0  0  0  0  0
   19.5394  -10.0121  -16.9780 C   0  0  0  0  0  0  0  0  0  0  0  0
   19.2562  -10.7442  -17.9596 O   0  0  0  0  0  0  0  0  0  0  0  0
   17.5699   -8.8186  -13.9133 C   0  0  0  0  0  0  0  0  0  0  0  0
   17.4817   -7.5360  -14.0468 O   0  0  0  0  0  0  0  0  0  0  0  0
   20.8695   -9.8201  -16.7001 O   0  0  0  0  0  0  0  0  0  0  0  0
   16.6483   -9.3746  -13.0236 N   0  0  0  0  0  0  0  0  0  0  0  0
   15.6227   -8.5804  -12.3737 C   0  0  0  0  0  0  0  0  0  0  0  0
   14.6424   -9.3708  -11.6011 C   0  0  0  0  0  0  0  0  0  0  0  0
   14.8941  -10.6007  -11.4792 O   0  0  0  0  0  0  0  0  0  0  0  0
   13.4841   -8.8626  -11.0062 N   0  0  0  0  0  0  0  0  0  0  0  0
   12.5898   -9.6439  -10.1570 C   0  0  1  0  0  0  0  0  0  0  0  0
   11.6242   -8.7781   -9.4341 C   0  0  0  0  0  0  0  0  0  0  0  0
   10.7880   -9.5470   -8.4523 C   0  0  0  0  0  0  0  0  0  0  0  0
    9.8443   -8.6773   -7.6563 C   0  0  0  0  0  0  0  0  0  0  0  0
    9.1000   -9.6233   -6.7032 C   0  0  0  0  0  0  0  0  0  0  0  0
    8.2105   -8.8518   -5.8561 N   0  0  0  0  0  0  0  0  0  0  0  0
   11.9494  -10.6809  -10.9698 C   0  0  0  0  0  0  0  0  0  0  0  0
   11.7544  -11.9659  -10.4283 O   0  0  0  0  0  0  0  0  0  0  0  0
   11.5380  -10.5422  -12.1489 O   0  0  0  0  0  0  0  0  0  0  0  0
  2  3  1  0
  2  1  1  6
  3  4  1  0
  4  5  2  0
  4  8  1  0
  6  7  2  0
  6  2  1  0
  9  6  1  0
 10  9  1  0
 10 11  1  0
 11 12  2  0
 13 11  1  0
 13 14  1  0
 14 15  1  6
 15 16  1  0
 16 17  1  0
 17 18  1  0
 18 19  1  0
 20 21  1  0
 20 14  1  0
 22 20  2  0
M  END
$$$$
