DGK.pdb
     RDKit          3D

 22 21  0  0  1  0  0  0  0  0999 V2000
   16.7487  -13.6694  -15.1229 N   0  0  0  0  0  0  0  0  0  0  0  0
   15.4793  -12.9751  -15.5234 C   0  0  1  0  0  0  0  0  0  0  0  0
   14.4984  -13.0473  -14.4133 C   0  0  0  0  0  0  0  0  0  0  0  0
   13.8610  -14.3526  -14.2191 C   0  0  0  0  0  0  0  0  0  0  0  0
   14.5510  -15.4028  -14.1947 O   0  0  0  0  0  0  0  0  0  0  0  0
   15.9805  -11.5882  -15.8119 C   0  0  0  0  0  0  0  0  0  0  0  0
   15.1861  -10.7808  -16.4346 O   0  0  0  0  0  0  0  0  0  0  0  0
   12.5049  -14.4875  -14.0565 O   0  0  0  0  0  0  0  0  0  0  0  0
   17.2262  -11.0448  -15.4908 N   0  0  0  0  0  0  0  0  0  0  0  0
   17.5515   -9.6529  -15.7393 C   0  0  0  0  0  0  0  0  0  0  0  0
   18.9572   -9.2986  -15.4547 C   0  0  0  0  0  0  0  0  0  0  0  0
   19.3763   -9.5774  -14.2982 O   0  0  0  0  0  0  0  0  0  0  0  0
   19.8364   -8.6935  -16.3573 N   0  0  0  0  0  0  0  0  0  0  0  0
   21.2661   -8.5220  -16.1170 C   0  0  1  0  0  0  0  0  0  0  0  0
   22.0122   -8.2997  -17.3814 C   0  0  0  0  0  0  0  0  0  0  0  0
   23.4897   -8.1546  -17.1576 C   0  0  0  0  0  0  0  0  0  0  0  0
   24.2558   -7.8050  -18.4112 C   0  0  0  0  0  0  0  0  0  0  0  0
   25.7306   -7.7150  -17.9942 C   0  0  0  0  0  0  0  0  0  0  0  0
   26.5204   -7.2424  -19.1153 N   0  0  0  0  0  0  0  0  0  0  0  0
   21.4571   -7.4554  -15.1312 C   0  0  0  0  0  0  0  0  0  0  0  0
   22.4185   -7.6132  -14.1147 O   0  0  0  0  0  0  0  0  0  0  0  0
   20.8283   -6.3681  -15.0923 O   0  0  0  0  0  0  0  0  0  0  0  0
  2  3  1  0
  2  1  1  1
  3  4  1  0
  4  5  2  0
  4  8  1  0
  6  7  2  0
  6  2  1  0
  9  6  1  0
 10  9  1  0
 10 11  1  0
 11 12  2  0
 13 11  1  0
 13 14  1  0
 14 15  1  6
 15 16  1  0
 16 17  1  0
 17 18  1  0
 18 19  1  0
 20 21  1  0
 20 14  1  0
 22 20  2  0
M  END
$$$$
