DGK.pdb
     RDKit          3D

 22 21  0  0  1  0  0  0  0  0999 V2000
   21.1923  -21.0685  -15.5707 N   0  0  0  0  0  0  0  0  0  0  0  0
   22.1546  -20.1045  -14.9393 C   0  0  1  0  0  0  0  0  0  0  0  0
   21.9506  -18.7500  -15.5079 C   0  0  0  0  0  0  0  0  0  0  0  0
   22.3719  -18.5812  -16.9015 C   0  0  0  0  0  0  0  0  0  0  0  0
   22.6173  -19.5828  -17.6201 O   0  0  0  0  0  0  0  0  0  0  0  0
   21.7825  -20.2247  -13.4884 C   0  0  0  0  0  0  0  0  0  0  0  0
   22.2504  -19.3371  -12.6736 O   0  0  0  0  0  0  0  0  0  0  0  0
   22.5149  -17.3439  -17.4778 O   0  0  0  0  0  0  0  0  0  0  0  0
   20.9800  -21.1977  -12.8890 N   0  0  0  0  0  0  0  0  0  0  0  0
   20.6314  -21.1547  -11.4813 C   0  0  0  0  0  0  0  0  0  0  0  0
   19.7842  -22.2785  -11.0318 C   0  0  0  0  0  0  0  0  0  0  0  0
   19.3059  -23.0107  -11.9406 O   0  0  0  0  0  0  0  0  0  0  0  0
   19.4853  -22.5827   -9.7007 N   0  0  0  0  0  0  0  0  0  0  0  0
   18.6527  -23.7077   -9.2854 C   0  0  1  0  0  0  0  0  0  0  0  0
   18.6856  -23.9007   -7.8135 C   0  0  0  0  0  0  0  0  0  0  0  0
   17.9884  -25.1593   -7.3844 C   0  0  0  0  0  0  0  0  0  0  0  0
   18.1444  -25.4607   -5.9129 C   0  0  0  0  0  0  0  0  0  0  0  0
   17.3086  -26.7211   -5.6486 C   0  0  0  0  0  0  0  0  0  0  0  0
   17.3800  -27.0599   -4.2400 N   0  0  0  0  0  0  0  0  0  0  0  0
   17.3015  -23.5209   -9.8197 C   0  0  0  0  0  0  0  0  0  0  0  0
   16.5886  -24.6319  -10.3092 O   0  0  0  0  0  0  0  0  0  0  0  0
   16.6833  -22.4293   -9.8922 O   0  0  0  0  0  0  0  0  0  0  0  0
  2  3  1  0
  2  1  1  6
  3  4  1  0
  4  5  2  0
  4  8  1  0
  6  7  2  0
  6  2  1  0
  9  6  1  0
 10  9  1  0
 10 11  1  0
 11 12  2  0
 13 11  1  0
 13 14  1  0
 14 15  1  1
 15 16  1  0
 16 17  1  0
 17 18  1  0
 18 19  1  0
 20 21  1  0
 20 14  1  0
 22 20  2  0
M  END
$$$$
