DGK.pdb
     RDKit          3D

 22 21  0  0  1  0  0  0  0  0999 V2000
   17.4134  -11.5687  -17.0821 N   0  0  0  0  0  0  0  0  0  0  0  0
   17.2856  -12.2718  -15.7619 C   0  0  1  0  0  0  0  0  0  0  0  0
   18.2097  -13.4312  -15.7215 C   0  0  0  0  0  0  0  0  0  0  0  0
   17.7423  -14.6344  -16.4157 C   0  0  0  0  0  0  0  0  0  0  0  0
   16.5746  -15.0629  -16.2349 O   0  0  0  0  0  0  0  0  0  0  0  0
   17.6409  -11.1688  -14.8052 C   0  0  0  0  0  0  0  0  0  0  0  0
   17.5967  -11.4340  -13.5409 O   0  0  0  0  0  0  0  0  0  0  0  0
   18.5427  -15.3370  -17.2812 O   0  0  0  0  0  0  0  0  0  0  0  0
   18.0181   -9.8596  -15.1112 N   0  0  0  0  0  0  0  0  0  0  0  0
   18.4750   -8.9279  -14.0972 C   0  0  0  0  0  0  0  0  0  0  0  0
   17.5390   -7.8168  -13.8289 C   0  0  0  0  0  0  0  0  0  0  0  0
   16.5121   -7.7677  -14.5595 O   0  0  0  0  0  0  0  0  0  0  0  0
   17.7058   -6.8405  -12.8425 N   0  0  0  0  0  0  0  0  0  0  0  0
   16.7425   -5.7774  -12.5721 C   0  0  1  0  0  0  0  0  0  0  0  0
   16.6721   -5.4559  -11.1242 C   0  0  0  0  0  0  0  0  0  0  0  0
   15.7613   -6.3845  -10.3742 C   0  0  0  0  0  0  0  0  0  0  0  0
   15.6893   -6.0902   -8.8947 C   0  0  0  0  0  0  0  0  0  0  0  0
   14.7894   -7.1776   -8.2907 C   0  0  0  0  0  0  0  0  0  0  0  0
   14.7685   -7.0387   -6.8470 N   0  0  0  0  0  0  0  0  0  0  0  0
   17.0638   -4.6210  -13.4120 C   0  0  0  0  0  0  0  0  0  0  0  0
   16.0273   -3.7836  -13.8669 O   0  0  0  0  0  0  0  0  0  0  0  0
   18.2138   -4.2809  -13.7873 O   0  0  0  0  0  0  0  0  0  0  0  0
  2  3  1  0
  2  1  1  6
  3  4  1  0
  4  5  2  0
  4  8  1  0
  6  7  2  0
  6  2  1  0
  9  6  1  0
 10  9  1  0
 10 11  1  0
 11 12  2  0
 13 11  1  0
 13 14  1  0
 14 15  1  1
 15 16  1  0
 16 17  1  0
 17 18  1  0
 18 19  1  0
 20 21  1  0
 20 14  1  0
 22 20  2  0
M  END
$$$$
