DGK.pdb
     RDKit          3D

 22 21  0  0  1  0  0  0  0  0999 V2000
   25.3828  -11.7490  -18.7503 N   0  0  0  0  0  0  0  0  0  0  0  0
   26.2969  -12.7449  -19.4033 C   0  0  1  0  0  0  0  0  0  0  0  0
   25.6977  -13.2135  -20.6765 C   0  0  0  0  0  0  0  0  0  0  0  0
   24.4812  -14.0196  -20.5417 C   0  0  0  0  0  0  0  0  0  0  0  0
   24.4885  -15.0783  -19.8643 O   0  0  0  0  0  0  0  0  0  0  0  0
   27.5467  -11.9287  -19.5757 C   0  0  0  0  0  0  0  0  0  0  0  0
   28.6791  -12.5513  -19.5430 O   0  0  0  0  0  0  0  0  0  0  0  0
   23.2974  -13.6626  -21.1371 O   0  0  0  0  0  0  0  0  0  0  0  0
   27.6478  -10.5491  -19.7671 N   0  0  0  0  0  0  0  0  0  0  0  0
   28.9184   -9.8915  -20.0085 C   0  0  0  0  0  0  0  0  0  0  0  0
   29.7466   -9.7099  -18.7987 C   0  0  0  0  0  0  0  0  0  0  0  0
   29.1276   -9.6934  -17.6999 O   0  0  0  0  0  0  0  0  0  0  0  0
   31.1365   -9.5622  -18.7860 N   0  0  0  0  0  0  0  0  0  0  0  0
   31.9335   -9.4203  -17.5710 C   0  0  1  0  0  0  0  0  0  0  0  0
   33.2609  -10.0715  -17.7063 C   0  0  0  0  0  0  0  0  0  0  0  0
   34.0898   -9.9483  -16.4606 C   0  0  0  0  0  0  0  0  0  0  0  0
   35.4607  -10.5691  -16.5873 C   0  0  0  0  0  0  0  0  0  0  0  0
   36.1343  -10.3891  -15.2194 C   0  0  0  0  0  0  0  0  0  0  0  0
   37.5029  -10.8644  -15.2901 N   0  0  0  0  0  0  0  0  0  0  0  0
   32.0128   -8.0006  -17.2187 C   0  0  0  0  0  0  0  0  0  0  0  0
   32.0863   -7.6243  -15.8639 O   0  0  0  0  0  0  0  0  0  0  0  0
   32.0222   -7.0406  -18.0294 O   0  0  0  0  0  0  0  0  0  0  0  0
  2  3  1  0
  2  1  1  6
  3  4  1  0
  4  5  2  0
  4  8  1  0
  6  7  2  0
  6  2  1  0
  9  6  1  0
 10  9  1  0
 10 11  1  0
 11 12  2  0
 13 11  1  0
 13 14  1  0
 14 15  1  6
 15 16  1  0
 16 17  1  0
 17 18  1  0
 18 19  1  0
 20 21  1  0
 20 14  1  0
 22 20  2  0
M  END
$$$$
