DGK.pdb
     RDKit          3D

 22 21  0  0  1  0  0  0  0  0999 V2000
   24.5874  -19.6548  -18.6244 N   0  0  0  0  0  0  0  0  0  0  0  0
   25.6332  -19.4979  -17.5588 C   0  0  1  0  0  0  0  0  0  0  0  0
   26.4494  -18.2904  -17.8334 C   0  0  0  0  0  0  0  0  0  0  0  0
   27.4103  -18.4157  -18.9329 C   0  0  0  0  0  0  0  0  0  0  0  0
   27.4018  -17.5951  -19.8849 O   0  0  0  0  0  0  0  0  0  0  0  0
   24.7827  -19.3975  -16.3240 C   0  0  0  0  0  0  0  0  0  0  0  0
   25.2355  -19.9338  -15.2386 O   0  0  0  0  0  0  0  0  0  0  0  0
   28.3487  -19.4163  -18.9740 O   0  0  0  0  0  0  0  0  0  0  0  0
   23.5329  -18.7886  -16.1934 N   0  0  0  0  0  0  0  0  0  0  0  0
   22.8473  -18.6927  -14.9184 C   0  0  0  0  0  0  0  0  0  0  0  0
   21.8639  -19.7683  -14.6763 C   0  0  0  0  0  0  0  0  0  0  0  0
   21.3571  -20.2979  -15.7027 O   0  0  0  0  0  0  0  0  0  0  0  0
   21.4675  -20.2324  -13.4188 N   0  0  0  0  0  0  0  0  0  0  0  0
   20.4740  -21.2813  -13.2093 C   0  0  1  0  0  0  0  0  0  0  0  0
   20.4641  -21.7547  -11.8021 C   0  0  0  0  0  0  0  0  0  0  0  0
   19.5324  -22.9134  -11.5932 C   0  0  0  0  0  0  0  0  0  0  0  0
   19.6152  -23.5087  -10.2078 C   0  0  0  0  0  0  0  0  0  0  0  0
   18.6389  -24.6935  -10.1977 C   0  0  0  0  0  0  0  0  0  0  0  0
   18.7088  -25.3645   -8.9137 N   0  0  0  0  0  0  0  0  0  0  0  0
   19.1704  -20.7995  -13.6724 C   0  0  0  0  0  0  0  0  0  0  0  0
   18.8040  -19.4593  -13.4438 O   0  0  0  0  0  0  0  0  0  0  0  0
   18.3059  -21.4821  -14.2772 O   0  0  0  0  0  0  0  0  0  0  0  0
  2  3  1  0
  2  1  1  6
  3  4  1  0
  4  5  2  0
  4  8  1  0
  6  7  2  0
  6  2  1  0
  9  6  1  0
 10  9  1  0
 10 11  1  0
 11 12  2  0
 13 11  1  0
 13 14  1  0
 14 15  1  1
 15 16  1  0
 16 17  1  0
 17 18  1  0
 18 19  1  0
 20 21  1  0
 20 14  1  0
 22 20  2  0
M  END
$$$$
