DGK.pdb
     RDKit          3D

 22 21  0  0  1  0  0  0  0  0999 V2000
   16.9115  -10.3760  -15.4698 N   0  0  0  0  0  0  0  0  0  0  0  0
   17.6166  -11.5611  -14.8763 C   0  0  1  0  0  0  0  0  0  0  0  0
   18.9741  -11.6798  -15.4618 C   0  0  0  0  0  0  0  0  0  0  0  0
   19.0293  -12.2289  -16.8195 C   0  0  0  0  0  0  0  0  0  0  0  0
   17.9749  -12.5626  -17.4166 O   0  0  0  0  0  0  0  0  0  0  0  0
   17.6056  -11.2091  -13.4155 C   0  0  0  0  0  0  0  0  0  0  0  0
   18.0893  -12.0747  -12.5862 O   0  0  0  0  0  0  0  0  0  0  0  0
   20.2135  -12.4006  -17.4916 O   0  0  0  0  0  0  0  0  0  0  0  0
   17.1249  -10.0407  -12.8207 N   0  0  0  0  0  0  0  0  0  0  0  0
   17.2141   -9.8055  -11.3918 C   0  0  0  0  0  0  0  0  0  0  0  0
   16.7125   -8.4839  -10.9624 C   0  0  0  0  0  0  0  0  0  0  0  0
   16.8612   -7.5399  -11.7855 O   0  0  0  0  0  0  0  0  0  0  0  0
   16.0954   -8.2131   -9.7378 N   0  0  0  0  0  0  0  0  0  0  0  0
   15.5276   -6.9176   -9.3762 C   0  0  1  0  0  0  0  0  0  0  0  0
   14.5126   -7.0445   -8.3000 C   0  0  0  0  0  0  0  0  0  0  0  0
   13.3243   -7.8577   -8.7254 C   0  0  0  0  0  0  0  0  0  0  0  0
   12.2558   -7.9611   -7.6632 C   0  0  0  0  0  0  0  0  0  0  0  0
   11.0792   -8.6990   -8.3177 C   0  0  0  0  0  0  0  0  0  0  0  0
    9.9810   -8.7871   -7.3742 N   0  0  0  0  0  0  0  0  0  0  0  0
   16.6182   -5.9973   -9.0447 C   0  0  0  0  0  0  0  0  0  0  0  0
   16.4030   -4.6082   -9.1244 O   0  0  0  0  0  0  0  0  0  0  0  0
   17.7750   -6.3275   -8.6819 O   0  0  0  0  0  0  0  0  0  0  0  0
  2  3  1  0
  2  1  1  6
  3  4  1  0
  4  5  2  0
  4  8  1  0
  6  7  2  0
  6  2  1  0
  9  6  1  0
 10  9  1  0
 10 11  1  0
 11 12  2  0
 13 11  1  0
 13 14  1  0
 14 15  1  1
 15 16  1  0
 16 17  1  0
 17 18  1  0
 18 19  1  0
 20 21  1  0
 20 14  1  0
 22 20  2  0
M  END
$$$$
