DGK.pdb
     RDKit          3D

 22 21  0  0  1  0  0  0  0  0999 V2000
   19.3138   -7.9535  -11.6498 N   0  0  0  0  0  0  0  0  0  0  0  0
   17.8669   -7.6466  -11.9066 C   0  0  1  0  0  0  0  0  0  0  0  0
   17.1714   -8.8707  -12.3730 C   0  0  0  0  0  0  0  0  0  0  0  0
   17.5413   -9.3340  -13.7134 C   0  0  0  0  0  0  0  0  0  0  0  0
   18.0478   -8.5405  -14.5461 O   0  0  0  0  0  0  0  0  0  0  0  0
   17.4234   -7.1650  -10.5541 C   0  0  0  0  0  0  0  0  0  0  0  0
   17.9701   -7.7066   -9.5156 O   0  0  0  0  0  0  0  0  0  0  0  0
   17.3563  -10.6331  -14.1153 O   0  0  0  0  0  0  0  0  0  0  0  0
   16.4700   -6.1865  -10.2648 N   0  0  0  0  0  0  0  0  0  0  0  0
   16.0702   -5.8724   -8.9059 C   0  0  0  0  0  0  0  0  0  0  0  0
   15.0857   -4.7757   -8.8018 C   0  0  0  0  0  0  0  0  0  0  0  0
   14.7896   -4.1918   -9.8798 O   0  0  0  0  0  0  0  0  0  0  0  0
   14.4706   -4.3519   -7.6203 N   0  0  0  0  0  0  0  0  0  0  0  0
   13.4973   -3.2662   -7.5483 C   0  0  1  0  0  0  0  0  0  0  0  0
   12.4593   -3.5273   -6.5191 C   0  0  0  0  0  0  0  0  0  0  0  0
   11.5501   -4.6611   -6.8962 C   0  0  0  0  0  0  0  0  0  0  0  0
   10.4012   -4.8549   -5.9354 C   0  0  0  0  0  0  0  0  0  0  0  0
    9.6409   -6.0935   -6.4301 C   0  0  0  0  0  0  0  0  0  0  0  0
    8.5548   -6.3894   -5.5152 N   0  0  0  0  0  0  0  0  0  0  0  0
   14.2103   -2.0019   -7.3508 C   0  0  0  0  0  0  0  0  0  0  0  0
   13.6098   -0.7951   -7.7576 O   0  0  0  0  0  0  0  0  0  0  0  0
   15.3492   -1.8720   -6.8362 O   0  0  0  0  0  0  0  0  0  0  0  0
  2  3  1  0
  2  1  1  1
  3  4  1  0
  4  5  2  0
  4  8  1  0
  6  7  2  0
  6  2  1  0
  9  6  1  0
 10  9  1  0
 10 11  1  0
 11 12  2  0
 13 11  1  0
 13 14  1  0
 14 15  1  1
 15 16  1  0
 16 17  1  0
 17 18  1  0
 18 19  1  0
 20 21  1  0
 20 14  1  0
 22 20  2  0
M  END
$$$$
