DGK.pdb
     RDKit          3D

 22 21  0  0  1  0  0  0  0  0999 V2000
   23.6640  -19.2702  -18.1173 N   0  0  0  0  0  0  0  0  0  0  0  0
   24.8200  -18.9785  -17.2048 C   0  0  1  0  0  0  0  0  0  0  0  0
   25.3777  -17.6401  -17.5168 C   0  0  0  0  0  0  0  0  0  0  0  0
   26.7117  -17.6389  -18.1238 C   0  0  0  0  0  0  0  0  0  0  0  0
   27.6229  -18.3726  -17.6644 O   0  0  0  0  0  0  0  0  0  0  0  0
   24.1620  -19.0715  -15.8571 C   0  0  0  0  0  0  0  0  0  0  0  0
   24.9245  -19.0389  -14.8138 O   0  0  0  0  0  0  0  0  0  0  0  0
   27.0233  -16.8513  -19.2037 O   0  0  0  0  0  0  0  0  0  0  0  0
   22.7997  -19.1961  -15.5770 N   0  0  0  0  0  0  0  0  0  0  0  0
   22.2884  -19.2382  -14.2199 C   0  0  0  0  0  0  0  0  0  0  0  0
   21.3890  -20.3777  -13.9459 C   0  0  0  0  0  0  0  0  0  0  0  0
   21.1657  -21.1537  -14.9148 O   0  0  0  0  0  0  0  0  0  0  0  0
   20.7849  -20.6523  -12.7156 N   0  0  0  0  0  0  0  0  0  0  0  0
   19.9757  -21.8375  -12.4476 C   0  0  1  0  0  0  0  0  0  0  0  0
   19.5482  -21.9003  -11.0271 C   0  0  0  0  0  0  0  0  0  0  0  0
   18.7155  -23.1143  -10.7318 C   0  0  0  0  0  0  0  0  0  0  0  0
   19.1151  -23.8218   -9.4589 C   0  0  0  0  0  0  0  0  0  0  0  0
   18.2139  -25.0611   -9.3634 C   0  0  0  0  0  0  0  0  0  0  0  0
   18.6298  -25.8735   -8.2359 N   0  0  0  0  0  0  0  0  0  0  0  0
   18.8594  -21.8744  -13.3955 C   0  0  0  0  0  0  0  0  0  0  0  0
   18.4384  -23.1092  -13.9250 O   0  0  0  0  0  0  0  0  0  0  0  0
   18.2090  -20.8804  -13.8054 O   0  0  0  0  0  0  0  0  0  0  0  0
  2  3  1  0
  2  1  1  6
  3  4  1  0
  4  5  2  0
  4  8  1  0
  6  7  2  0
  6  2  1  0
  9  6  1  0
 10  9  1  0
 10 11  1  0
 11 12  2  0
 13 11  1  0
 13 14  1  0
 14 15  1  1
 15 16  1  0
 16 17  1  0
 17 18  1  0
 18 19  1  0
 20 21  1  0
 20 14  1  0
 22 20  2  0
M  END
$$$$
