DGK.pdb
     RDKit          3D

 22 21  0  0  1  0  0  0  0  0999 V2000
   20.3783   -6.5552  -14.0709 N   0  0  0  0  0  0  0  0  0  0  0  0
   20.0747   -7.9756  -13.6914 C   0  0  1  0  0  0  0  0  0  0  0  0
   21.3095   -8.7921  -13.7822 C   0  0  0  0  0  0  0  0  0  0  0  0
   21.6403   -9.2881  -15.1211 C   0  0  0  0  0  0  0  0  0  0  0  0
   20.8448   -9.1187  -16.0793 O   0  0  0  0  0  0  0  0  0  0  0  0
   19.5539   -7.8019  -12.2927 C   0  0  0  0  0  0  0  0  0  0  0  0
   19.0912   -8.8480  -11.6906 O   0  0  0  0  0  0  0  0  0  0  0  0
   22.8137   -9.9482  -15.3874 O   0  0  0  0  0  0  0  0  0  0  0  0
   19.4990   -6.6269  -11.5401 N   0  0  0  0  0  0  0  0  0  0  0  0
   18.9202   -6.5849  -10.2104 C   0  0  0  0  0  0  0  0  0  0  0  0
   17.4528   -6.4145  -10.1928 C   0  0  0  0  0  0  0  0  0  0  0  0
   16.9133   -6.1372  -11.2986 O   0  0  0  0  0  0  0  0  0  0  0  0
   16.6386   -6.5398   -9.0636 N   0  0  0  0  0  0  0  0  0  0  0  0
   15.1904   -6.3559   -9.0744 C   0  0  1  0  0  0  0  0  0  0  0  0
   14.5014   -7.3763   -8.2445 C   0  0  0  0  0  0  0  0  0  0  0  0
   13.0126   -7.1839   -8.2178 C   0  0  0  0  0  0  0  0  0  0  0  0
   12.2853   -8.2353   -7.4139 C   0  0  0  0  0  0  0  0  0  0  0  0
   10.7890   -7.9342   -7.5795 C   0  0  0  0  0  0  0  0  0  0  0  0
   10.0157   -8.9143   -6.8412 N   0  0  0  0  0  0  0  0  0  0  0  0
   14.8839   -4.9787   -8.6802 C   0  0  0  0  0  0  0  0  0  0  0  0
   13.7330   -4.3495   -9.1920 O   0  0  0  0  0  0  0  0  0  0  0  0
   15.5666   -4.2669   -7.9015 O   0  0  0  0  0  0  0  0  0  0  0  0
  2  3  1  0
  2  1  1  1
  3  4  1  0
  4  5  2  0
  4  8  1  0
  6  7  2  0
  6  2  1  0
  9  6  1  0
 10  9  1  0
 10 11  1  0
 11 12  2  0
 13 11  1  0
 13 14  1  0
 14 15  1  1
 15 16  1  0
 16 17  1  0
 17 18  1  0
 18 19  1  0
 20 21  1  0
 20 14  1  0
 22 20  2  0
M  END
$$$$
