DGK.pdb
     RDKit          3D

 22 21  0  0  1  0  0  0  0  0999 V2000
   27.1743  -19.7773  -17.0731 N   0  0  0  0  0  0  0  0  0  0  0  0
   27.1701  -21.2020  -17.5464 C   0  0  1  0  0  0  0  0  0  0  0  0
   28.5481  -21.7484  -17.4995 C   0  0  0  0  0  0  0  0  0  0  0  0
   29.4612  -21.2453  -18.5295 C   0  0  0  0  0  0  0  0  0  0  0  0
   30.6229  -21.7129  -18.6366 O   0  0  0  0  0  0  0  0  0  0  0  0
   26.2238  -21.8352  -16.5657 C   0  0  0  0  0  0  0  0  0  0  0  0
   25.2757  -22.5752  -17.0393 O   0  0  0  0  0  0  0  0  0  0  0  0
   29.0974  -20.2581  -19.4107 O   0  0  0  0  0  0  0  0  0  0  0  0
   26.2324  -21.7225  -15.1739 N   0  0  0  0  0  0  0  0  0  0  0  0
   25.2913  -22.4381  -14.3329 C   0  0  0  0  0  0  0  0  0  0  0  0
   23.9014  -21.9453  -14.4228 C   0  0  0  0  0  0  0  0  0  0  0  0
   23.7353  -20.8658  -15.0536 O   0  0  0  0  0  0  0  0  0  0  0  0
   22.7828  -22.5786  -13.8738 N   0  0  0  0  0  0  0  0  0  0  0  0
   21.4228  -22.0542  -13.9562 C   0  0  1  0  0  0  0  0  0  0  0  0
   20.4308  -23.0131  -13.4075 C   0  0  0  0  0  0  0  0  0  0  0  0
   19.0192  -22.5217  -13.5490 C   0  0  0  0  0  0  0  0  0  0  0  0
   18.1101  -23.5006  -14.2535 C   0  0  0  0  0  0  0  0  0  0  0  0
   16.7169  -22.8556  -14.2581 C   0  0  0  0  0  0  0  0  0  0  0  0
   15.7504  -23.8003  -14.7845 N   0  0  0  0  0  0  0  0  0  0  0  0
   21.3815  -20.7390  -13.3125 C   0  0  0  0  0  0  0  0  0  0  0  0
   20.4823  -19.7633  -13.7833 O   0  0  0  0  0  0  0  0  0  0  0  0
   22.0928  -20.3710  -12.3442 O   0  0  0  0  0  0  0  0  0  0  0  0
  2  3  1  0
  2  1  1  1
  3  4  1  0
  4  5  2  0
  4  8  1  0
  6  7  2  0
  6  2  1  0
  9  6  1  0
 10  9  1  0
 10 11  1  0
 11 12  2  0
 13 11  1  0
 13 14  1  0
 14 15  1  1
 15 16  1  0
 16 17  1  0
 17 18  1  0
 18 19  1  0
 20 21  1  0
 20 14  1  0
 22 20  2  0
M  END
$$$$
