PDE.pdb
     RDKit          3D

 25 25  0  0  1  0  0  0  0  0999 V2000
   17.8781  -10.9282  -17.1977 N   0  0  0  0  0  0  0  0  0  0  0  0
   16.7681  -11.8546  -17.3646 C   0  0  0  0  0  0  0  0  0  0  0  0
   17.1634  -12.9669  -16.4183 C   0  0  0  0  0  0  0  0  0  0  0  0
   18.0371  -12.3197  -15.3720 C   0  0  0  0  0  0  0  0  0  0  0  0
   17.9898  -10.8764  -15.7502 C   0  0  1  0  0  0  0  0  0  0  0  0
   19.1721  -10.1066  -15.3108 C   0  0  0  0  0  0  0  0  0  0  0  0
   19.3674   -9.9586  -14.0779 O   0  0  0  0  0  0  0  0  0  0  0  0
   20.0795   -9.5379  -16.2130 N   0  0  0  0  0  0  0  0  0  0  0  0
   21.2916   -8.7981  -15.8144 C   0  0  1  0  0  0  0  0  0  0  0  0
   22.3321   -9.1828  -16.8235 C   0  0  0  0  0  0  0  0  0  0  0  0
   22.7479  -10.5825  -16.8077 C   0  0  0  0  0  0  0  0  0  0  0  0
   23.0618  -11.2326  -15.7868 O   0  0  0  0  0  0  0  0  0  0  0  0
   20.9418   -7.3718  -15.7978 C   0  0  0  0  0  0  0  0  0  0  0  0
   20.1502   -6.8491  -16.6311 O   0  0  0  0  0  0  0  0  0  0  0  0
   22.8029  -11.2564  -18.0200 O   0  0  0  0  0  0  0  0  0  0  0  0
   21.5075   -6.5230  -14.8109 N   0  0  0  0  0  0  0  0  0  0  0  0
   21.1387   -5.1145  -14.6448 C   0  0  1  0  0  0  0  0  0  0  0  0
   19.6764   -5.1101  -14.3953 C   0  0  0  0  0  0  0  0  0  0  0  0
   18.8767   -4.1476  -15.1782 C   0  0  0  0  0  0  0  0  0  0  0  0
   17.4625   -4.0754  -14.7622 C   0  0  0  0  0  0  0  0  0  0  0  0
   16.6022   -3.3071  -15.3018 O   0  0  0  0  0  0  0  0  0  0  0  0
   22.0303   -4.4348  -13.7385 C   0  0  0  0  0  0  0  0  0  0  0  0
   22.8598   -5.0590  -12.9944 O   0  0  0  0  0  0  0  0  0  0  0  0
   17.0360   -4.8874  -13.7241 O   0  0  0  0  0  0  0  0  0  0  0  0
   22.0087   -3.0310  -13.6475 O   0  0  0  0  0  0  0  0  0  0  0  0
  1  5  1  0
  2  1  1  0
  3  2  1  0
  4  3  1  0
  4  5  1  0
  5  6  1  6
  6  7  2  0
  8  6  1  0
  9  8  1  0
  9 13  1  0
  9 10  1  6
 11 12  2  0
 11 10  1  0
 13 14  2  0
 13 16  1  0
 15 11  1  0
 16 17  1  0
 17 22  1  0
 17 18  1  1
 19 18  1  0
 20 19  1  0
 20 21  2  0
 22 23  2  0
 22 25  1  0
 24 20  1  0
M  END
$$$$
