PDE.pdb
     RDKit          3D

 25 25  0  0  1  0  0  0  0  0999 V2000
   20.9848  -12.8451  -15.7276 N   0  0  0  0  0  0  0  0  0  0  0  0
   22.0501  -13.8367  -15.7127 C   0  0  0  0  0  0  0  0  0  0  0  0
   22.5792  -13.7269  -17.1259 C   0  0  0  0  0  0  0  0  0  0  0  0
   22.2551  -12.3229  -17.5738 C   0  0  0  0  0  0  0  0  0  0  0  0
   21.6559  -11.7162  -16.3485 C   0  0  1  0  0  0  0  0  0  0  0  0
   20.7265  -10.6022  -16.6290 C   0  0  0  0  0  0  0  0  0  0  0  0
   21.1787   -9.5688  -17.1838 O   0  0  0  0  0  0  0  0  0  0  0  0
   19.3662  -10.6545  -16.3013 N   0  0  0  0  0  0  0  0  0  0  0  0
   18.4020   -9.5760  -16.5889 C   0  0  1  0  0  0  0  0  0  0  0  0
   17.0576  -10.2403  -16.5706 C   0  0  0  0  0  0  0  0  0  0  0  0
   16.7078  -11.0030  -17.7657 C   0  0  0  0  0  0  0  0  0  0  0  0
   17.3164  -10.9576  -18.8569 O   0  0  0  0  0  0  0  0  0  0  0  0
   18.5951   -8.5395  -15.5665 C   0  0  0  0  0  0  0  0  0  0  0  0
   18.9696   -8.7979  -14.3886 O   0  0  0  0  0  0  0  0  0  0  0  0
   15.6111  -11.8512  -17.6957 O   0  0  0  0  0  0  0  0  0  0  0  0
   18.3546   -7.1794  -15.8933 N   0  0  0  0  0  0  0  0  0  0  0  0
   18.7163   -6.0594  -15.0202 C   0  0  1  0  0  0  0  0  0  0  0  0
   20.1612   -6.2286  -14.7297 C   0  0  0  0  0  0  0  0  0  0  0  0
   20.8101   -5.1486  -13.9607 C   0  0  0  0  0  0  0  0  0  0  0  0
   22.2289   -5.4116  -13.6510 C   0  0  0  0  0  0  0  0  0  0  0  0
   23.2009   -4.7999  -14.2012 O   0  0  0  0  0  0  0  0  0  0  0  0
   18.2222   -4.8054  -15.5318 C   0  0  0  0  0  0  0  0  0  0  0  0
   18.1699   -3.7464  -14.8197 O   0  0  0  0  0  0  0  0  0  0  0  0
   22.5316   -6.3795  -12.7073 O   0  0  0  0  0  0  0  0  0  0  0  0
   17.7731   -4.7137  -16.8619 O   0  0  0  0  0  0  0  0  0  0  0  0
  1  5  1  0
  2  1  1  0
  3  2  1  0
  4  3  1  0
  4  5  1  0
  5  6  1  6
  6  7  2  0
  8  6  1  0
  9  8  1  0
  9 13  1  0
  9 10  1  1
 11 12  2  0
 11 10  1  0
 13 14  2  0
 13 16  1  0
 15 11  1  0
 16 17  1  0
 17 22  1  0
 17 18  1  6
 19 18  1  0
 20 19  1  0
 20 21  2  0
 22 23  2  0
 22 25  1  0
 24 20  1  0
M  END
$$$$
