PDE.pdb
     RDKit          3D

 25 25  0  0  1  0  0  0  0  0999 V2000
   19.3890  -12.5039  -16.4417 N   0  0  0  0  0  0  0  0  0  0  0  0
   19.3235  -13.6336  -17.3569 C   0  0  0  0  0  0  0  0  0  0  0  0
   17.9316  -13.4741  -17.9282 C   0  0  0  0  0  0  0  0  0  0  0  0
   17.6112  -12.0039  -17.8144 C   0  0  0  0  0  0  0  0  0  0  0  0
   18.8810  -11.4305  -17.2784 C   0  0  1  0  0  0  0  0  0  0  0  0
   18.6945  -10.1754  -16.5210 C   0  0  0  0  0  0  0  0  0  0  0  0
   18.3344   -9.1457  -17.1455 O   0  0  0  0  0  0  0  0  0  0  0  0
   18.9034  -10.0908  -15.1390 N   0  0  0  0  0  0  0  0  0  0  0  0
   18.7575   -8.8514  -14.3529 C   0  0  1  0  0  0  0  0  0  0  0  0
   18.0607   -9.2694  -13.0924 C   0  0  0  0  0  0  0  0  0  0  0  0
   17.8252   -8.2112  -12.1140 C   0  0  0  0  0  0  0  0  0  0  0  0
   17.7247   -6.9928  -12.3760 O   0  0  0  0  0  0  0  0  0  0  0  0
   20.1050   -8.2992  -14.1623 C   0  0  0  0  0  0  0  0  0  0  0  0
   21.1560   -8.9760  -14.3402 O   0  0  0  0  0  0  0  0  0  0  0  0
   17.7014   -8.5768  -10.7806 O   0  0  0  0  0  0  0  0  0  0  0  0
   20.2577   -6.9471  -13.7588 N   0  0  0  0  0  0  0  0  0  0  0  0
   21.4240   -6.1267  -14.0966 C   0  0  1  0  0  0  0  0  0  0  0  0
   21.6305   -6.3056  -15.5547 C   0  0  0  0  0  0  0  0  0  0  0  0
   22.7285   -5.5304  -16.1651 C   0  0  0  0  0  0  0  0  0  0  0  0
   22.9099   -5.7936  -17.6060 C   0  0  0  0  0  0  0  0  0  0  0  0
   23.3092   -6.9062  -18.0796 O   0  0  0  0  0  0  0  0  0  0  0  0
   21.3227   -4.8023  -13.5364 C   0  0  0  0  0  0  0  0  0  0  0  0
   22.2929   -4.2392  -12.9257 O   0  0  0  0  0  0  0  0  0  0  0  0
   22.6322   -4.7765  -18.5044 O   0  0  0  0  0  0  0  0  0  0  0  0
   20.1221   -4.0777  -13.6502 O   0  0  0  0  0  0  0  0  0  0  0  0
  1  5  1  0
  2  1  1  0
  3  2  1  0
  4  3  1  0
  4  5  1  0
  5  6  1  1
  6  7  2  0
  8  6  1  0
  9  8  1  0
  9 13  1  0
  9 10  1  1
 11 12  2  0
 11 10  1  0
 13 14  2  0
 13 16  1  0
 15 11  1  0
 16 17  1  0
 17 22  1  0
 17 18  1  6
 19 18  1  0
 20 19  1  0
 20 21  2  0
 22 23  2  0
 22 25  1  0
 24 20  1  0
M  END
$$$$
