PDE.pdb
     RDKit          3D

 25 25  0  0  1  0  0  0  0  0999 V2000
   23.9896  -12.5096  -15.4963 N   0  0  0  0  0  0  0  0  0  0  0  0
   24.8711  -13.6127  -15.8490 C   0  0  0  0  0  0  0  0  0  0  0  0
   24.2588  -14.0787  -17.1517 C   0  0  0  0  0  0  0  0  0  0  0  0
   23.5604  -12.8714  -17.7278 C   0  0  0  0  0  0  0  0  0  0  0  0
   23.9125  -11.7930  -16.7575 C   0  0  1  0  0  0  0  0  0  0  0  0
   22.9305  -10.6897  -16.7113 C   0  0  0  0  0  0  0  0  0  0  0  0
   22.8214   -9.9412  -17.7152 O   0  0  0  0  0  0  0  0  0  0  0  0
   22.1202  -10.4479  -15.5952 N   0  0  0  0  0  0  0  0  0  0  0  0
   21.1076   -9.3780  -15.5220 C   0  0  1  0  0  0  0  0  0  0  0  0
   19.9819   -9.9613  -14.7211 C   0  0  0  0  0  0  0  0  0  0  0  0
   19.1409  -10.9313  -15.4170 C   0  0  0  0  0  0  0  0  0  0  0  0
   18.8555  -10.9001  -16.6339 O   0  0  0  0  0  0  0  0  0  0  0  0
   21.7576   -8.2082  -14.9169 C   0  0  0  0  0  0  0  0  0  0  0  0
   22.5293   -8.2900  -13.9208 O   0  0  0  0  0  0  0  0  0  0  0  0
   18.6093  -11.9781  -14.6763 O   0  0  0  0  0  0  0  0  0  0  0  0
   21.5218   -6.9175  -15.4580 N   0  0  0  0  0  0  0  0  0  0  0  0
   22.0404   -5.6822  -14.8643 C   0  0  1  0  0  0  0  0  0  0  0  0
   21.9846   -4.6653  -15.9430 C   0  0  0  0  0  0  0  0  0  0  0  0
   22.3840   -3.2924  -15.5763 C   0  0  0  0  0  0  0  0  0  0  0  0
   22.3114   -2.3348  -16.6970 C   0  0  0  0  0  0  0  0  0  0  0  0
   23.3106   -1.6784  -17.1357 O   0  0  0  0  0  0  0  0  0  0  0  0
   21.4361   -5.4134  -13.5834 C   0  0  0  0  0  0  0  0  0  0  0  0
   20.2659   -5.8231  -13.2769 O   0  0  0  0  0  0  0  0  0  0  0  0
   21.0884   -2.1309  -17.3148 O   0  0  0  0  0  0  0  0  0  0  0  0
   22.1374   -4.6737  -12.6135 O   0  0  0  0  0  0  0  0  0  0  0  0
  1  5  1  0
  2  1  1  0
  3  2  1  0
  4  3  1  0
  4  5  1  0
  5  6  1  1
  6  7  2  0
  8  6  1  0
  9  8  1  0
  9 13  1  0
  9 10  1  1
 11 12  2  0
 11 10  1  0
 13 14  2  0
 13 16  1  0
 15 11  1  0
 16 17  1  0
 17 22  1  0
 17 18  1  6
 19 18  1  0
 20 19  1  0
 20 21  2  0
 22 23  2  0
 22 25  1  0
 24 20  1  0
M  END
$$$$
