PDE.pdb
     RDKit          3D

 25 25  0  0  1  0  0  0  0  0999 V2000
   25.2738  -32.0859    2.2681 N   0  0  0  0  0  0  0  0  0  0  0  0
   25.1793  -31.7149    0.8639 C   0  0  0  0  0  0  0  0  0  0  0  0
   24.1635  -32.7161    0.3589 C   0  0  0  0  0  0  0  0  0  0  0  0
   23.3278  -33.0884    1.5588 C   0  0  0  0  0  0  0  0  0  0  0  0
   23.8707  -32.1985    2.6273 C   0  0  1  0  0  0  0  0  0  0  0  0
   23.6873  -32.7290    3.9943 C   0  0  0  0  0  0  0  0  0  0  0  0
   22.5702  -32.5797    4.5509 O   0  0  0  0  0  0  0  0  0  0  0  0
   24.7075  -33.3892    4.6899 N   0  0  0  0  0  0  0  0  0  0  0  0
   24.5427  -33.9971    6.0236 C   0  0  1  0  0  0  0  0  0  0  0  0
   25.4978  -35.1531    6.0456 C   0  0  0  0  0  0  0  0  0  0  0  0
   25.4935  -35.9597    7.2629 C   0  0  0  0  0  0  0  0  0  0  0  0
   26.5074  -36.4325    7.8212 O   0  0  0  0  0  0  0  0  0  0  0  0
   24.8169  -32.9477    7.0139 C   0  0  0  0  0  0  0  0  0  0  0  0
   25.7718  -32.1292    6.9008 O   0  0  0  0  0  0  0  0  0  0  0  0
   24.2685  -36.2301    7.8573 O   0  0  0  0  0  0  0  0  0  0  0  0
   23.9858  -32.8297    8.1583 N   0  0  0  0  0  0  0  0  0  0  0  0
   24.2181  -31.8607    9.2329 C   0  0  1  0  0  0  0  0  0  0  0  0
   22.8713  -31.4558    9.7050 C   0  0  0  0  0  0  0  0  0  0  0  0
   22.0565  -30.6578    8.7680 C   0  0  0  0  0  0  0  0  0  0  0  0
   20.7226  -30.3069    9.2934 C   0  0  0  0  0  0  0  0  0  0  0  0
   20.3254  -30.5916   10.4693 O   0  0  0  0  0  0  0  0  0  0  0  0
   25.2030  -32.3350   10.1727 C   0  0  0  0  0  0  0  0  0  0  0  0
   25.4623  -33.5760   10.3277 O   0  0  0  0  0  0  0  0  0  0  0  0
   19.8434  -29.6277    8.4660 O   0  0  0  0  0  0  0  0  0  0  0  0
   25.9217  -31.4201   10.9638 O   0  0  0  0  0  0  0  0  0  0  0  0
  1  5  1  0
  2  1  1  0
  3  2  1  0
  4  3  1  0
  4  5  1  0
  5  6  1  1
  6  7  2  0
  8  6  1  0
  9  8  1  0
  9 13  1  0
  9 10  1  1
 11 12  2  0
 11 10  1  0
 13 14  2  0
 13 16  1  0
 15 11  1  0
 16 17  1  0
 17 22  1  0
 17 18  1  1
 19 18  1  0
 20 19  1  0
 20 21  2  0
 22 23  2  0
 22 25  1  0
 24 20  1  0
M  END
$$$$
