PDE.pdb
     RDKit          3D

 25 25  0  0  1  0  0  0  0  0999 V2000
   19.2262  -12.5029  -15.4348 N   0  0  0  0  0  0  0  0  0  0  0  0
   19.0467  -13.9363  -15.6125 C   0  0  0  0  0  0  0  0  0  0  0  0
   17.7256  -13.9821  -16.3485 C   0  0  0  0  0  0  0  0  0  0  0  0
   17.6164  -12.6620  -17.0712 C   0  0  0  0  0  0  0  0  0  0  0  0
   18.9253  -12.0113  -16.7682 C   0  0  1  0  0  0  0  0  0  0  0  0
   18.8826  -10.5351  -16.8204 C   0  0  0  0  0  0  0  0  0  0  0  0
   18.7846   -9.9770  -17.9424 O   0  0  0  0  0  0  0  0  0  0  0  0
   18.9470   -9.7380  -15.6710 N   0  0  0  0  0  0  0  0  0  0  0  0
   18.9265   -8.2632  -15.6827 C   0  0  1  0  0  0  0  0  0  0  0  0
   17.5650   -7.8886  -15.1779 C   0  0  0  0  0  0  0  0  0  0  0  0
   17.3225   -6.4595  -15.0007 C   0  0  0  0  0  0  0  0  0  0  0  0
   18.0041   -5.5417  -15.5069 O   0  0  0  0  0  0  0  0  0  0  0  0
   20.0446   -7.8087  -14.8457 C   0  0  0  0  0  0  0  0  0  0  0  0
   20.2553   -8.2509  -13.6819 O   0  0  0  0  0  0  0  0  0  0  0  0
   16.2497   -6.0774  -14.2069 O   0  0  0  0  0  0  0  0  0  0  0  0
   20.9406   -6.8280  -15.3454 N   0  0  0  0  0  0  0  0  0  0  0  0
   22.1661   -6.4210  -14.6526 C   0  0  1  0  0  0  0  0  0  0  0  0
   23.1705   -6.1880  -15.7192 C   0  0  0  0  0  0  0  0  0  0  0  0
   23.0116   -4.9562  -16.5169 C   0  0  0  0  0  0  0  0  0  0  0  0
   24.0881   -4.7468  -17.5046 C   0  0  0  0  0  0  0  0  0  0  0  0
   25.1904   -5.3844  -17.4990 O   0  0  0  0  0  0  0  0  0  0  0  0
   21.9061   -5.4015  -13.6671 C   0  0  0  0  0  0  0  0  0  0  0  0
   20.8699   -4.6559  -13.7075 O   0  0  0  0  0  0  0  0  0  0  0  0
   23.8978   -3.8031  -18.5006 O   0  0  0  0  0  0  0  0  0  0  0  0
   22.8102   -5.1961  -12.6089 O   0  0  0  0  0  0  0  0  0  0  0  0
  1  5  1  0
  2  1  1  0
  3  2  1  0
  4  3  1  0
  4  5  1  0
  5  6  1  1
  6  7  2  0
  8  6  1  0
  9  8  1  0
  9 13  1  0
  9 10  1  1
 11 12  2  0
 11 10  1  0
 13 14  2  0
 13 16  1  0
 15 11  1  0
 16 17  1  0
 17 22  1  0
 17 18  1  6
 19 18  1  0
 20 19  1  0
 20 21  2  0
 22 23  2  0
 22 25  1  0
 24 20  1  0
M  END
$$$$
