PDE.pdb
     RDKit          3D

 25 25  0  0  1  0  0  0  0  0999 V2000
   21.8286  -15.5851  -17.4364 N   0  0  0  0  0  0  0  0  0  0  0  0
   21.2813  -16.9263  -17.2947 C   0  0  0  0  0  0  0  0  0  0  0  0
   22.2459  -17.5386  -16.3029 C   0  0  0  0  0  0  0  0  0  0  0  0
   22.8034  -16.3819  -15.5104 C   0  0  0  0  0  0  0  0  0  0  0  0
   22.0406  -15.2165  -16.0473 C   0  0  1  0  0  0  0  0  0  0  0  0
   22.7517  -13.9278  -15.9161 C   0  0  0  0  0  0  0  0  0  0  0  0
   22.9945  -13.4913  -14.7627 O   0  0  0  0  0  0  0  0  0  0  0  0
   23.1634  -13.1777  -17.0245 N   0  0  0  0  0  0  0  0  0  0  0  0
   23.8216  -11.8607  -16.9361 C   0  0  1  0  0  0  0  0  0  0  0  0
   24.8159  -11.8460  -18.0586 C   0  0  0  0  0  0  0  0  0  0  0  0
   25.9102  -12.8071  -17.9527 C   0  0  0  0  0  0  0  0  0  0  0  0
   26.6305  -12.9753  -16.9447 O   0  0  0  0  0  0  0  0  0  0  0  0
   22.7666  -10.8431  -17.0292 C   0  0  0  0  0  0  0  0  0  0  0  0
   21.6521  -11.0579  -17.5824 O   0  0  0  0  0  0  0  0  0  0  0  0
   26.1818  -13.6046  -19.0560 O   0  0  0  0  0  0  0  0  0  0  0  0
   22.9875   -9.5525  -16.4814 N   0  0  0  0  0  0  0  0  0  0  0  0
   21.9522   -8.5188  -16.3982 C   0  0  1  0  0  0  0  0  0  0  0  0
   20.7705   -9.1832  -15.7955 C   0  0  0  0  0  0  0  0  0  0  0  0
   19.5997   -8.3264  -15.5236 C   0  0  0  0  0  0  0  0  0  0  0  0
   18.4419   -9.0611  -14.9777 C   0  0  0  0  0  0  0  0  0  0  0  0
   18.3590   -9.4603  -13.7713 O   0  0  0  0  0  0  0  0  0  0  0  0
   22.4649   -7.2973  -15.8296 C   0  0  0  0  0  0  0  0  0  0  0  0
   23.6560   -7.1964  -15.3799 O   0  0  0  0  0  0  0  0  0  0  0  0
   17.3772   -9.3377  -15.8197 O   0  0  0  0  0  0  0  0  0  0  0  0
   21.6455   -6.1561  -15.7530 O   0  0  0  0  0  0  0  0  0  0  0  0
  1  5  1  0
  2  1  1  0
  3  2  1  0
  4  3  1  0
  4  5  1  0
  5  6  1  6
  6  7  2  0
  8  6  1  0
  9  8  1  0
  9 13  1  0
  9 10  1  6
 11 12  2  0
 11 10  1  0
 13 14  2  0
 13 16  1  0
 15 11  1  0
 16 17  1  0
 17 22  1  0
 17 18  1  1
 19 18  1  0
 20 19  1  0
 20 21  2  0
 22 23  2  0
 22 25  1  0
 24 20  1  0
M  END
$$$$
