PDE.pdb
     RDKit          3D

 25 25  0  0  1  0  0  0  0  0999 V2000
   21.9310  -11.4704  -19.2476 N   0  0  0  0  0  0  0  0  0  0  0  0
   21.2803  -12.5051  -20.0377 C   0  0  0  0  0  0  0  0  0  0  0  0
   21.3272  -13.6804  -19.0861 C   0  0  0  0  0  0  0  0  0  0  0  0
   21.3745  -13.0816  -17.7019 C   0  0  0  0  0  0  0  0  0  0  0  0
   21.2526  -11.6184  -17.9716 C   0  0  1  0  0  0  0  0  0  0  0  0
   21.8505  -10.7676  -16.9218 C   0  0  0  0  0  0  0  0  0  0  0  0
   21.3550  -10.8022  -15.7671 O   0  0  0  0  0  0  0  0  0  0  0  0
   22.9440   -9.9274  -17.1643 N   0  0  0  0  0  0  0  0  0  0  0  0
   23.5636   -9.0582  -16.1464 C   0  0  1  0  0  0  0  0  0  0  0  0
   25.0412   -9.2449  -16.3219 C   0  0  0  0  0  0  0  0  0  0  0  0
   25.6157  -10.4213  -15.6750 C   0  0  0  0  0  0  0  0  0  0  0  0
   25.0321  -11.1446  -14.8387 O   0  0  0  0  0  0  0  0  0  0  0  0
   23.0781   -7.6935  -16.3898 C   0  0  0  0  0  0  0  0  0  0  0  0
   23.3464   -7.0462  -17.4402 O   0  0  0  0  0  0  0  0  0  0  0  0
   26.9161  -10.7745  -16.0084 O   0  0  0  0  0  0  0  0  0  0  0  0
   22.2708   -7.0526  -15.4143 N   0  0  0  0  0  0  0  0  0  0  0  0
   21.7341   -5.6977  -15.5687 C   0  0  1  0  0  0  0  0  0  0  0  0
   20.2586   -5.8436  -15.5214 C   0  0  0  0  0  0  0  0  0  0  0  0
   19.4701   -4.5980  -15.5958 C   0  0  0  0  0  0  0  0  0  0  0  0
   18.0121   -4.8142  -15.5204 C   0  0  0  0  0  0  0  0  0  0  0  0
   17.1713   -3.8966  -15.2508 O   0  0  0  0  0  0  0  0  0  0  0  0
   22.3977   -4.7604  -14.6974 C   0  0  0  0  0  0  0  0  0  0  0  0
   22.8557   -5.0932  -13.5525 O   0  0  0  0  0  0  0  0  0  0  0  0
   17.5191   -6.0874  -15.7549 O   0  0  0  0  0  0  0  0  0  0  0  0
   22.5618   -3.4210  -15.0955 O   0  0  0  0  0  0  0  0  0  0  0  0
  1  5  1  0
  2  1  1  0
  3  2  1  0
  4  3  1  0
  4  5  1  0
  5  6  1  1
  6  7  2  0
  8  6  1  0
  9  8  1  0
  9 13  1  0
  9 10  1  6
 11 12  2  0
 11 10  1  0
 13 14  2  0
 13 16  1  0
 15 11  1  0
 16 17  1  0
 17 22  1  0
 17 18  1  1
 19 18  1  0
 20 19  1  0
 20 21  2  0
 22 23  2  0
 22 25  1  0
 24 20  1  0
M  END
$$$$
