PDE.pdb
     RDKit          3D

 25 25  0  0  1  0  0  0  0  0999 V2000
   18.0177  -11.0387  -17.1375 N   0  0  0  0  0  0  0  0  0  0  0  0
   16.8992  -11.9700  -17.1458 C   0  0  0  0  0  0  0  0  0  0  0  0
   17.4932  -13.1555  -16.4173 C   0  0  0  0  0  0  0  0  0  0  0  0
   18.5735  -12.5881  -15.5297 C   0  0  0  0  0  0  0  0  0  0  0  0
   18.4429  -11.1176  -15.7507 C   0  0  1  0  0  0  0  0  0  0  0  0
   19.6917  -10.3657  -15.5082 C   0  0  0  0  0  0  0  0  0  0  0  0
   20.1121  -10.2657  -14.3278 O   0  0  0  0  0  0  0  0  0  0  0  0
   20.4212   -9.7627  -16.5401 N   0  0  0  0  0  0  0  0  0  0  0  0
   21.6508   -8.9744  -16.3353 C   0  0  1  0  0  0  0  0  0  0  0  0
   22.5818   -9.4146  -17.4254 C   0  0  0  0  0  0  0  0  0  0  0  0
   23.8662   -8.7222  -17.4841 C   0  0  0  0  0  0  0  0  0  0  0  0
   24.6652   -8.7597  -18.4451 O   0  0  0  0  0  0  0  0  0  0  0  0
   21.2684   -7.5571  -16.3815 C   0  0  0  0  0  0  0  0  0  0  0  0
   20.6458   -7.0451  -17.3534 O   0  0  0  0  0  0  0  0  0  0  0  0
   24.2410   -7.9569  -16.3883 O   0  0  0  0  0  0  0  0  0  0  0  0
   21.6043   -6.7049  -15.2974 N   0  0  0  0  0  0  0  0  0  0  0  0
   21.1890   -5.3024  -15.2095 C   0  0  1  0  0  0  0  0  0  0  0  0
   19.7291   -5.2998  -15.4728 C   0  0  0  0  0  0  0  0  0  0  0  0
   19.0262   -4.0165  -15.2780 C   0  0  0  0  0  0  0  0  0  0  0  0
   17.5755   -4.0899  -15.5392 C   0  0  0  0  0  0  0  0  0  0  0  0
   17.0544   -4.8038  -16.4560 O   0  0  0  0  0  0  0  0  0  0  0  0
   21.7130   -4.6658  -14.0270 C   0  0  0  0  0  0  0  0  0  0  0  0
   21.5482   -3.4223  -13.7865 O   0  0  0  0  0  0  0  0  0  0  0  0
   16.7217   -3.3413  -14.7457 O   0  0  0  0  0  0  0  0  0  0  0  0
   22.4381   -5.4167  -13.0837 O   0  0  0  0  0  0  0  0  0  0  0  0
  1  5  1  0
  2  1  1  0
  3  2  1  0
  4  3  1  0
  4  5  1  0
  5  6  1  6
  6  7  2  0
  8  6  1  0
  9  8  1  0
  9 13  1  0
  9 10  1  6
 11 12  2  0
 11 10  1  0
 13 14  2  0
 13 16  1  0
 15 11  1  0
 16 17  1  0
 17 22  1  0
 17 18  1  1
 19 18  1  0
 20 19  1  0
 20 21  2  0
 22 23  2  0
 22 25  1  0
 24 20  1  0
M  END
$$$$
