PDE.pdb
     RDKit          3D

 25 25  0  0  1  0  0  0  0  0999 V2000
   18.5687  -11.5057  -17.5151 N   0  0  0  0  0  0  0  0  0  0  0  0
   17.4647  -12.4172  -17.7771 C   0  0  0  0  0  0  0  0  0  0  0  0
   17.7600  -13.5321  -16.7979 C   0  0  0  0  0  0  0  0  0  0  0  0
   18.5476  -12.8940  -15.6802 C   0  0  0  0  0  0  0  0  0  0  0  0
   18.5538  -11.4513  -16.0635 C   0  0  1  0  0  0  0  0  0  0  0  0
   19.7038  -10.6966  -15.5233 C   0  0  0  0  0  0  0  0  0  0  0  0
   19.7832  -10.5331  -14.2795 O   0  0  0  0  0  0  0  0  0  0  0  0
   20.7043  -10.1588  -16.3421 N   0  0  0  0  0  0  0  0  0  0  0  0
   21.8716   -9.4092  -15.8413 C   0  0  1  0  0  0  0  0  0  0  0  0
   23.0494   -9.9967  -16.5600 C   0  0  0  0  0  0  0  0  0  0  0  0
   24.1569  -10.4353  -15.7152 C   0  0  0  0  0  0  0  0  0  0  0  0
   24.2137  -10.3079  -14.4728 O   0  0  0  0  0  0  0  0  0  0  0  0
   21.6233   -7.9880  -16.1167 C   0  0  0  0  0  0  0  0  0  0  0  0
   21.1830   -7.5697  -17.2236 O   0  0  0  0  0  0  0  0  0  0  0  0
   25.2410  -11.0447  -16.3320 O   0  0  0  0  0  0  0  0  0  0  0  0
   21.8841   -7.0230  -15.1091 N   0  0  0  0  0  0  0  0  0  0  0  0
   21.6131   -5.5916  -15.2676 C   0  0  1  0  0  0  0  0  0  0  0  0
   20.2244   -5.5016  -15.7817 C   0  0  0  0  0  0  0  0  0  0  0  0
   19.1425   -5.6691  -14.7915 C   0  0  0  0  0  0  0  0  0  0  0  0
   17.7930   -5.4421  -15.3442 C   0  0  0  0  0  0  0  0  0  0  0  0
   17.0511   -6.3672  -15.8081 O   0  0  0  0  0  0  0  0  0  0  0  0
   22.0025   -4.8441  -14.0981 C   0  0  0  0  0  0  0  0  0  0  0  0
   21.9969   -3.5673  -14.0661 O   0  0  0  0  0  0  0  0  0  0  0  0
   17.2951   -4.1496  -15.3640 O   0  0  0  0  0  0  0  0  0  0  0  0
   22.4098   -5.5187  -12.9325 O   0  0  0  0  0  0  0  0  0  0  0  0
  1  5  1  0
  2  1  1  0
  3  2  1  0
  4  3  1  0
  4  5  1  0
  5  6  1  1
  6  7  2  0
  8  6  1  0
  9  8  1  0
  9 13  1  0
  9 10  1  6
 11 12  2  0
 11 10  1  0
 13 14  2  0
 13 16  1  0
 15 11  1  0
 16 17  1  0
 17 22  1  0
 17 18  1  1
 19 18  1  0
 20 19  1  0
 20 21  2  0
 22 23  2  0
 22 25  1  0
 24 20  1  0
M  END
$$$$
