GPY.pdb
     RDKit          3D

 24 25  0  0  1  0  0  0  0  0999 V2000
    7.6895  -17.9424   17.6274 N   0  0  0  0  0  0  0  0  0  0  0  0
    7.1625  -16.9988   18.5501 C   0  0  0  0  0  0  0  0  0  0  0  0
    8.1073  -16.3637   19.4574 C   0  0  0  0  0  0  0  0  0  0  0  0
    9.0555  -17.0477   19.9105 O   0  0  0  0  0  0  0  0  0  0  0  0
    7.9779  -15.0100   19.8317 N   0  0  0  0  0  0  0  0  0  0  0  0
    7.0087  -14.0894   19.2928 C   0  0  0  0  0  0  0  0  0  0  0  0
    7.2540  -12.7413   19.9349 C   0  0  0  0  0  0  0  0  0  0  0  0
    8.6087  -12.8513   20.6026 C   0  0  0  0  0  0  0  0  0  0  0  0
    8.8170  -14.3324   20.8327 C   0  0  1  0  0  0  0  0  0  0  0  0
    8.3658  -14.7363   22.2113 C   0  0  0  0  0  0  0  0  0  0  0  0
    7.1458  -14.9027   22.4613 O   0  0  0  0  0  0  0  0  0  0  0  0
    7.7665  -20.2597   28.6418 O   0  0  0  0  0  0  0  0  0  0  0  0
    7.9289  -19.4651   27.5262 C   0  0  0  0  0  0  0  0  0  0  0  0
    6.8957  -18.6574   27.0804 C   0  0  0  0  0  0  0  0  0  0  0  0
    7.0758  -17.8788   25.9752 C   0  0  0  0  0  0  0  0  0  0  0  0
    8.2550  -17.8516   25.2624 C   0  0  0  0  0  0  0  0  0  0  0  0
    8.4777  -17.0249   24.0590 C   0  0  0  0  0  0  0  0  0  0  0  0
    8.9860  -15.6730   24.4705 C   0  0  2  0  0  0  0  0  0  0  0  0
    9.3145  -14.9326   23.2410 N   0  0  0  0  0  0  0  0  0  0  0  0
   10.1388  -15.7144   25.3725 C   0  0  0  0  0  0  0  0  0  0  0  0
   10.0186  -15.6526   26.7353 O   0  0  0  0  0  0  0  0  0  0  0  0
    9.2832  -18.6759   25.7327 C   0  0  0  0  0  0  0  0  0  0  0  0
    9.1300  -19.4734   26.8469 C   0  0  0  0  0  0  0  0  0  0  0  0
   11.3128  -15.8111   24.8663 O   0  0  0  0  0  0  0  0  0  0  0  0
  1  2  1  0
  2  3  1  0
  3  4  2  0
  5  9  1  0
  5  3  1  0
  6  5  1  0
  7  6  1  0
  7  8  1  0
  8  9  1  0
  9 10  1  1
 10 11  2  0
 10 19  1  0
 12 13  1  0
 13 14  2  0
 14 15  1  0
 16 15  2  0
 16 17  1  0
 18 17  1  6
 18 20  1  0
 19 18  1  0
 20 24  2  0
 20 21  1  0
 22 16  1  0
 23 13  1  0
 23 22  2  0
M  END
$$$$
