GPY.pdb
     RDKit          3D

 24 25  0  0  1  0  0  0  0  0999 V2000
    6.9291  -18.7325   18.4893 N   0  0  0  0  0  0  0  0  0  0  0  0
    6.6684  -17.4507   19.0448 C   0  0  0  0  0  0  0  0  0  0  0  0
    7.8101  -16.7110   19.5632 C   0  0  0  0  0  0  0  0  0  0  0  0
    8.6387  -17.3157   20.2843 O   0  0  0  0  0  0  0  0  0  0  0  0
    7.9994  -15.3438   19.2732 N   0  0  0  0  0  0  0  0  0  0  0  0
    7.1324  -14.5438   18.4452 C   0  0  0  0  0  0  0  0  0  0  0  0
    7.7315  -13.1565   18.3646 C   0  0  0  0  0  0  0  0  0  0  0  0
    9.1419  -13.2928   18.8987 C   0  0  0  0  0  0  0  0  0  0  0  0
    9.1154  -14.5264   19.7747 C   0  0  1  0  0  0  0  0  0  0  0  0
    8.8563  -14.1651   21.2133 C   0  0  0  0  0  0  0  0  0  0  0  0
    8.0917  -13.2118   21.5050 O   0  0  0  0  0  0  0  0  0  0  0  0
    6.4375  -11.7664   28.6116 O   0  0  0  0  0  0  0  0  0  0  0  0
    6.7609  -12.4351   27.4496 C   0  0  0  0  0  0  0  0  0  0  0  0
    7.5637  -11.8366   26.4926 C   0  0  0  0  0  0  0  0  0  0  0  0
    7.8723  -12.5144   25.3500 C   0  0  0  0  0  0  0  0  0  0  0  0
    7.4188  -13.7896   25.0901 C   0  0  0  0  0  0  0  0  0  0  0  0
    7.7300  -14.5458   23.8602 C   0  0  0  0  0  0  0  0  0  0  0  0
    9.2190  -14.5998   23.6721 C   0  0  2  0  0  0  0  0  0  0  0  0
    9.4735  -14.8980   22.2529 N   0  0  0  0  0  0  0  0  0  0  0  0
    9.8979  -15.5697   24.5338 C   0  0  0  0  0  0  0  0  0  0  0  0
   10.4328  -15.2366   25.7498 O   0  0  0  0  0  0  0  0  0  0  0  0
    6.6099  -14.3723   26.0718 C   0  0  0  0  0  0  0  0  0  0  0  0
    6.2815  -13.7115   27.2364 C   0  0  0  0  0  0  0  0  0  0  0  0
    9.9984  -16.7836   24.1337 O   0  0  0  0  0  0  0  0  0  0  0  0
  1  2  1  0
  2  3  1  0
  3  4  2  0
  5  9  1  0
  5  3  1  0
  6  5  1  0
  7  6  1  0
  7  8  1  0
  8  9  1  0
  9 10  1  1
 10 11  2  0
 10 19  1  0
 12 13  1  0
 13 14  2  0
 14 15  1  0
 16 15  2  0
 16 17  1  0
 18 17  1  6
 18 20  1  0
 19 18  1  0
 20 24  2  0
 20 21  1  0
 22 16  1  0
 23 13  1  0
 23 22  2  0
M  END
$$$$
