GPY.pdb
     RDKit          3D

 24 25  0  0  1  0  0  0  0  0999 V2000
   11.3633  -17.4115   18.5547 N   0  0  0  0  0  0  0  0  0  0  0  0
   10.0872  -17.3840   19.1794 C   0  0  0  0  0  0  0  0  0  0  0  0
    9.8969  -16.4168   20.2506 C   0  0  0  0  0  0  0  0  0  0  0  0
   10.9098  -15.9495   20.8232 O   0  0  0  0  0  0  0  0  0  0  0  0
    8.6103  -16.0005   20.6516 N   0  0  0  0  0  0  0  0  0  0  0  0
    7.3814  -16.3412   19.9801 C   0  0  0  0  0  0  0  0  0  0  0  0
    6.2536  -15.6490   20.7141 C   0  0  0  0  0  0  0  0  0  0  0  0
    6.9215  -14.6352   21.6192 C   0  0  0  0  0  0  0  0  0  0  0  0
    8.3295  -15.1520   21.8206 C   0  0  1  0  0  0  0  0  0  0  0  0
    8.4282  -15.9848   23.0712 C   0  0  0  0  0  0  0  0  0  0  0  0
    8.3185  -17.2352   23.0167 O   0  0  0  0  0  0  0  0  0  0  0  0
    5.1663  -11.2446   26.9949 O   0  0  0  0  0  0  0  0  0  0  0  0
    6.1469  -12.2104   26.9042 C   0  0  0  0  0  0  0  0  0  0  0  0
    5.8213  -13.5160   26.5757 C   0  0  0  0  0  0  0  0  0  0  0  0
    6.8054  -14.4565   26.4910 C   0  0  0  0  0  0  0  0  0  0  0  0
    8.1344  -14.1725   26.7197 C   0  0  0  0  0  0  0  0  0  0  0  0
    9.2208  -15.1700   26.6423 C   0  0  0  0  0  0  0  0  0  0  0  0
    8.9235  -16.1457   25.5400 C   0  0  2  0  0  0  0  0  0  0  0  0
    8.6462  -15.3648   24.3230 N   0  0  0  0  0  0  0  0  0  0  0  0
    7.8174  -17.0603   25.8304 C   0  0  0  0  0  0  0  0  0  0  0  0
    6.5990  -16.9731   25.2111 O   0  0  0  0  0  0  0  0  0  0  0  0
    8.4375  -12.8470   27.0497 C   0  0  0  0  0  0  0  0  0  0  0  0
    7.4641  -11.8751   27.1425 C   0  0  0  0  0  0  0  0  0  0  0  0
    7.9946  -17.9826   26.7032 O   0  0  0  0  0  0  0  0  0  0  0  0
  1  2  1  0
  2  3  1  0
  3  4  2  0
  5  9  1  0
  5  3  1  0
  6  5  1  0
  7  6  1  0
  7  8  1  0
  8  9  1  0
  9 10  1  1
 10 11  2  0
 10 19  1  0
 12 13  1  0
 13 14  2  0
 14 15  1  0
 16 15  2  0
 16 17  1  0
 18 17  1  1
 18 20  1  0
 19 18  1  0
 20 24  2  0
 20 21  1  0
 22 16  1  0
 23 13  1  0
 23 22  2  0
M  END
$$$$
