GPY.pdb
     RDKit          3D

 24 25  0  0  1  0  0  0  0  0999 V2000
    6.4245  -18.5084   19.7032 N   0  0  0  0  0  0  0  0  0  0  0  0
    6.3446  -17.2127   20.2814 C   0  0  0  0  0  0  0  0  0  0  0  0
    7.6021  -16.5621   20.6204 C   0  0  0  0  0  0  0  0  0  0  0  0
    8.5992  -17.2794   20.8721 O   0  0  0  0  0  0  0  0  0  0  0  0
    7.7184  -15.1574   20.6703 N   0  0  0  0  0  0  0  0  0  0  0  0
    6.6898  -14.2256   20.2816 C   0  0  0  0  0  0  0  0  0  0  0  0
    7.2513  -12.8304   20.4494 C   0  0  0  0  0  0  0  0  0  0  0  0
    8.7444  -13.0132   20.6248 C   0  0  0  0  0  0  0  0  0  0  0  0
    8.9127  -14.4302   21.1286 C   0  0  1  0  0  0  0  0  0  0  0  0
    8.9682  -14.4685   22.6328 C   0  0  0  0  0  0  0  0  0  0  0  0
    8.3278  -13.6320   23.3174 O   0  0  0  0  0  0  0  0  0  0  0  0
    5.9546  -11.0173   26.8202 O   0  0  0  0  0  0  0  0  0  0  0  0
    6.5306  -12.2051   26.4207 C   0  0  0  0  0  0  0  0  0  0  0  0
    5.7530  -13.2221   25.8917 C   0  0  0  0  0  0  0  0  0  0  0  0
    6.3413  -14.3893   25.5024 C   0  0  0  0  0  0  0  0  0  0  0  0
    7.6964  -14.6170   25.6093 C   0  0  0  0  0  0  0  0  0  0  0  0
    8.3610  -15.8718   25.2031 C   0  0  0  0  0  0  0  0  0  0  0  0
    9.7635  -15.5711   24.7583 C   0  0  2  0  0  0  0  0  0  0  0  0
    9.7443  -15.4499   23.2911 N   0  0  0  0  0  0  0  0  0  0  0  0
   10.7531  -16.5638   25.1819 C   0  0  0  0  0  0  0  0  0  0  0  0
   11.2576  -17.5171   24.3380 O   0  0  0  0  0  0  0  0  0  0  0  0
    8.4599  -13.5748   26.1464 C   0  0  0  0  0  0  0  0  0  0  0  0
    7.8929  -12.3840   26.5483 C   0  0  0  0  0  0  0  0  0  0  0  0
   11.1654  -16.5424   26.3958 O   0  0  0  0  0  0  0  0  0  0  0  0
  1  2  1  0
  2  3  1  0
  3  4  2  0
  5  9  1  0
  5  3  1  0
  6  5  1  0
  7  6  1  0
  7  8  1  0
  8  9  1  0
  9 10  1  1
 10 11  2  0
 10 19  1  0
 12 13  1  0
 13 14  2  0
 14 15  1  0
 16 15  2  0
 16 17  1  0
 18 17  1  6
 18 20  1  0
 19 18  1  0
 20 24  2  0
 20 21  1  0
 22 16  1  0
 23 13  1  0
 23 22  2  0
M  END
$$$$
