GPY.pdb
     RDKit          3D

 24 25  0  0  1  0  0  0  0  0999 V2000
    8.1604  -12.6417   17.9177 N   0  0  0  0  0  0  0  0  0  0  0  0
    8.5164  -13.9191   18.4285 C   0  0  0  0  0  0  0  0  0  0  0  0
    8.0479  -14.2492   19.7667 C   0  0  0  0  0  0  0  0  0  0  0  0
    8.0510  -13.3510   20.6415 O   0  0  0  0  0  0  0  0  0  0  0  0
    7.5959  -15.5447   20.0938 N   0  0  0  0  0  0  0  0  0  0  0  0
    7.5701  -16.6669   19.1898 C   0  0  0  0  0  0  0  0  0  0  0  0
    6.9702  -17.8392   19.9353 C   0  0  0  0  0  0  0  0  0  0  0  0
    6.3482  -17.2497   21.1839 C   0  0  0  0  0  0  0  0  0  0  0  0
    7.0809  -15.9455   21.4126 C   0  0  1  0  0  0  0  0  0  0  0  0
    8.2369  -16.1312   22.3594 C   0  0  0  0  0  0  0  0  0  0  0  0
    9.3065  -16.6600   21.9661 O   0  0  0  0  0  0  0  0  0  0  0  0
    5.2029  -11.5898   27.0408 O   0  0  0  0  0  0  0  0  0  0  0  0
    6.2921  -12.2818   26.5538 C   0  0  0  0  0  0  0  0  0  0  0  0
    7.0365  -13.1003   27.3871 C   0  0  0  0  0  0  0  0  0  0  0  0
    8.1101  -13.7764   26.8866 C   0  0  0  0  0  0  0  0  0  0  0  0
    8.5031  -13.6873   25.5686 C   0  0  0  0  0  0  0  0  0  0  0  0
    9.6639  -14.4011   24.9994 C   0  0  0  0  0  0  0  0  0  0  0  0
    9.2604  -15.8029   24.6421 C   0  0  2  0  0  0  0  0  0  0  0  0
    8.1287  -15.7104   23.7048 N   0  0  0  0  0  0  0  0  0  0  0  0
    8.9116  -16.6386   25.7928 C   0  0  0  0  0  0  0  0  0  0  0  0
    9.8302  -17.0376   26.7269 O   0  0  0  0  0  0  0  0  0  0  0  0
    7.7351  -12.8545   24.7474 C   0  0  0  0  0  0  0  0  0  0  0  0
    6.6449  -12.1590   25.2253 C   0  0  0  0  0  0  0  0  0  0  0  0
    7.6943  -17.0158   25.9327 O   0  0  0  0  0  0  0  0  0  0  0  0
  1  2  1  0
  2  3  1  0
  3  4  2  0
  5  9  1  0
  5  3  1  0
  6  5  1  0
  7  6  1  0
  7  8  1  0
  8  9  1  0
  9 10  1  1
 10 11  2  0
 10 19  1  0
 12 13  1  0
 13 14  2  0
 14 15  1  0
 16 15  2  0
 16 17  1  0
 18 17  1  1
 18 20  1  0
 19 18  1  0
 20 24  2  0
 20 21  1  0
 22 16  1  0
 23 13  1  0
 23 22  2  0
M  END
$$$$
