GPY.pdb
     RDKit          3D

 24 25  0  0  1  0  0  0  0  0999 V2000
    5.2160  -18.6720   23.4405 N   0  0  0  0  0  0  0  0  0  0  0  0
    5.4945  -17.4760   22.7252 C   0  0  0  0  0  0  0  0  0  0  0  0
    6.8919  -17.1927   22.4310 C   0  0  0  0  0  0  0  0  0  0  0  0
    7.7068  -18.1456   22.4177 O   0  0  0  0  0  0  0  0  0  0  0  0
    7.3408  -15.8826   22.1640 N   0  0  0  0  0  0  0  0  0  0  0  0
    6.5375  -14.6913   22.2769 C   0  0  0  0  0  0  0  0  0  0  0  0
    7.3967  -13.5200   21.8530 C   0  0  0  0  0  0  0  0  0  0  0  0
    8.6064  -14.1293   21.1757 C   0  0  0  0  0  0  0  0  0  0  0  0
    8.7025  -15.5349   21.7280 C   0  0  1  0  0  0  0  0  0  0  0  0
    9.6304  -15.5902   22.9127 C   0  0  0  0  0  0  0  0  0  0  0  0
   10.8757  -15.5515   22.7514 O   0  0  0  0  0  0  0  0  0  0  0  0
    4.5084  -12.9472   26.8743 O   0  0  0  0  0  0  0  0  0  0  0  0
    5.8177  -13.3421   26.6956 C   0  0  0  0  0  0  0  0  0  0  0  0
    6.1121  -14.6031   26.2038 C   0  0  0  0  0  0  0  0  0  0  0  0
    7.4134  -14.9749   26.0341 C   0  0  0  0  0  0  0  0  0  0  0  0
    8.4739  -14.1467   26.3320 C   0  0  0  0  0  0  0  0  0  0  0  0
    9.8922  -14.5231   26.1656 C   0  0  0  0  0  0  0  0  0  0  0  0
    9.9788  -15.8131   25.4017 C   0  0  2  0  0  0  0  0  0  0  0  0
    9.1065  -15.6865   24.2223 N   0  0  0  0  0  0  0  0  0  0  0  0
    9.6219  -16.9987   26.1836 C   0  0  0  0  0  0  0  0  0  0  0  0
   10.3892  -17.4654   27.2175 O   0  0  0  0  0  0  0  0  0  0  0  0
    8.1504  -12.8786   26.8270 C   0  0  0  0  0  0  0  0  0  0  0  0
    6.8446  -12.4752   27.0088 C   0  0  0  0  0  0  0  0  0  0  0  0
    8.5456  -17.6295   25.8880 O   0  0  0  0  0  0  0  0  0  0  0  0
  1  2  1  0
  2  3  1  0
  3  4  2  0
  5  9  1  0
  5  3  1  0
  6  5  1  0
  7  6  1  0
  7  8  1  0
  8  9  1  0
  9 10  1  1
 10 11  2  0
 10 19  1  0
 12 13  1  0
 13 14  2  0
 14 15  1  0
 16 15  2  0
 16 17  1  0
 18 17  1  1
 18 20  1  0
 19 18  1  0
 20 24  2  0
 20 21  1  0
 22 16  1  0
 23 13  1  0
 23 22  2  0
M  END
$$$$
