GPY.pdb
     RDKit          3D

 24 25  0  0  1  0  0  0  0  0999 V2000
   12.0756  -16.4809   19.6273 N   0  0  0  0  0  0  0  0  0  0  0  0
   10.6763  -16.3176   19.8137 C   0  0  0  0  0  0  0  0  0  0  0  0
   10.2479  -15.6066   21.0096 C   0  0  0  0  0  0  0  0  0  0  0  0
   11.0701  -15.4560   21.9443 O   0  0  0  0  0  0  0  0  0  0  0  0
    8.9415  -15.0902   21.1352 N   0  0  0  0  0  0  0  0  0  0  0  0
    7.9855  -14.9820   20.0620 C   0  0  0  0  0  0  0  0  0  0  0  0
    6.7394  -14.3339   20.6249 C   0  0  0  0  0  0  0  0  0  0  0  0
    7.1473  -13.7730   21.9710 C   0  0  0  0  0  0  0  0  0  0  0  0
    8.3568  -14.5822   22.3864 C   0  0  1  0  0  0  0  0  0  0  0  0
    7.9589  -15.7463   23.2547 C   0  0  0  0  0  0  0  0  0  0  0  0
    7.8805  -16.9045   22.7742 O   0  0  0  0  0  0  0  0  0  0  0  0
   11.8137  -14.2018   29.1837 O   0  0  0  0  0  0  0  0  0  0  0  0
   10.6394  -14.6482   28.6144 C   0  0  0  0  0  0  0  0  0  0  0  0
    9.7254  -13.7498   28.0890 C   0  0  0  0  0  0  0  0  0  0  0  0
    8.5699  -14.2110   27.5302 C   0  0  0  0  0  0  0  0  0  0  0  0
    8.2554  -15.5509   27.4585 C   0  0  0  0  0  0  0  0  0  0  0  0
    7.0103  -16.0799   26.8661 C   0  0  0  0  0  0  0  0  0  0  0  0
    7.3098  -16.6618   25.5144 C   0  0  2  0  0  0  0  0  0  0  0  0
    7.6688  -15.5457   24.6238 N   0  0  0  0  0  0  0  0  0  0  0  0
    6.2138  -17.4470   24.9430 C   0  0  0  0  0  0  0  0  0  0  0  0
    6.0110  -18.7678   25.2429 O   0  0  0  0  0  0  0  0  0  0  0  0
    9.1946  -16.4380   27.9958 C   0  0  0  0  0  0  0  0  0  0  0  0
   10.3710  -16.0009   28.5667 C   0  0  0  0  0  0  0  0  0  0  0  0
    5.4090  -16.8756   24.1247 O   0  0  0  0  0  0  0  0  0  0  0  0
  1  2  1  0
  2  3  1  0
  3  4  2  0
  5  9  1  0
  5  3  1  0
  6  5  1  0
  7  6  1  0
  7  8  1  0
  8  9  1  0
  9 10  1  1
 10 11  2  0
 10 19  1  0
 12 13  1  0
 13 14  2  0
 14 15  1  0
 16 15  2  0
 16 17  1  0
 18 17  1  1
 18 20  1  0
 19 18  1  0
 20 24  2  0
 20 21  1  0
 22 16  1  0
 23 13  1  0
 23 22  2  0
M  END
$$$$
