GPY.pdb
     RDKit          3D

 24 25  0  0  1  0  0  0  0  0999 V2000
    6.1402  -18.3253   19.0780 N   0  0  0  0  0  0  0  0  0  0  0  0
    6.1319  -17.0633   19.7312 C   0  0  0  0  0  0  0  0  0  0  0  0
    7.4216  -16.5160   20.1269 C   0  0  0  0  0  0  0  0  0  0  0  0
    8.3222  -17.3081   20.4926 O   0  0  0  0  0  0  0  0  0  0  0  0
    7.6740  -15.1285   20.1069 N   0  0  0  0  0  0  0  0  0  0  0  0
    6.7764  -14.1296   19.5837 C   0  0  0  0  0  0  0  0  0  0  0  0
    7.4606  -12.7865   19.7179 C   0  0  0  0  0  0  0  0  0  0  0  0
    8.9102  -13.0994   20.0245 C   0  0  0  0  0  0  0  0  0  0  0  0
    8.8971  -14.4908   20.6193 C   0  0  1  0  0  0  0  0  0  0  0  0
    8.8345  -14.4377   22.1228 C   0  0  0  0  0  0  0  0  0  0  0  0
    7.9820  -13.7192   22.7020 O   0  0  0  0  0  0  0  0  0  0  0  0
    6.0255  -10.9479   27.1141 O   0  0  0  0  0  0  0  0  0  0  0  0
    6.5348  -12.0835   26.5197 C   0  0  0  0  0  0  0  0  0  0  0  0
    5.9852  -13.3262   26.7886 C   0  0  0  0  0  0  0  0  0  0  0  0
    6.5031  -14.4373   26.1908 C   0  0  0  0  0  0  0  0  0  0  0  0
    7.5662  -14.3900   25.3151 C   0  0  0  0  0  0  0  0  0  0  0  0
    8.1528  -15.5754   24.6580 C   0  0  0  0  0  0  0  0  0  0  0  0
    9.6016  -15.3144   24.3609 C   0  0  2  0  0  0  0  0  0  0  0  0
    9.7380  -15.1989   22.8995 N   0  0  0  0  0  0  0  0  0  0  0  0
   10.5145  -16.3315   24.8864 C   0  0  0  0  0  0  0  0  0  0  0  0
   10.5975  -17.5956   24.3661 O   0  0  0  0  0  0  0  0  0  0  0  0
    8.1035  -13.1235   25.0599 C   0  0  0  0  0  0  0  0  0  0  0  0
    7.6010  -11.9830   25.6493 C   0  0  0  0  0  0  0  0  0  0  0  0
   11.2687  -16.0280   25.8779 O   0  0  0  0  0  0  0  0  0  0  0  0
  1  2  1  0
  2  3  1  0
  3  4  2  0
  5  9  1  0
  5  3  1  0
  6  5  1  0
  7  6  1  0
  7  8  1  0
  8  9  1  0
  9 10  1  1
 10 11  2  0
 10 19  1  0
 12 13  1  0
 13 14  2  0
 14 15  1  0
 16 15  2  0
 16 17  1  0
 18 17  1  6
 18 20  1  0
 19 18  1  0
 20 24  2  0
 20 21  1  0
 22 16  1  0
 23 13  1  0
 23 22  2  0
M  END
$$$$
