GPY.pdb
     RDKit          3D

 24 25  0  0  1  0  0  0  0  0999 V2000
    8.0350  -11.7679   19.2734 N   0  0  0  0  0  0  0  0  0  0  0  0
    8.4879  -13.1102   19.3853 C   0  0  0  0  0  0  0  0  0  0  0  0
    7.9830  -13.8861   20.5088 C   0  0  0  0  0  0  0  0  0  0  0  0
    7.5115  -13.2740   21.4963 O   0  0  0  0  0  0  0  0  0  0  0  0
    8.0138  -15.2962   20.5075 N   0  0  0  0  0  0  0  0  0  0  0  0
    8.5586  -16.1130   19.4524 C   0  0  0  0  0  0  0  0  0  0  0  0
    8.3424  -17.5602   19.8382 C   0  0  0  0  0  0  0  0  0  0  0  0
    7.3564  -17.5301   20.9872 C   0  0  0  0  0  0  0  0  0  0  0  0
    7.4916  -16.1478   21.5880 C   0  0  1  0  0  0  0  0  0  0  0  0
    8.4684  -16.1472   22.7340 C   0  0  0  0  0  0  0  0  0  0  0  0
    9.7060  -16.1271   22.5188 O   0  0  0  0  0  0  0  0  0  0  0  0
    6.2193  -10.5496   26.3271 O   0  0  0  0  0  0  0  0  0  0  0  0
    6.6917  -11.8451   26.3562 C   0  0  0  0  0  0  0  0  0  0  0  0
    8.0478  -12.1030   26.2420 C   0  0  0  0  0  0  0  0  0  0  0  0
    8.4953  -13.3910   26.2731 C   0  0  0  0  0  0  0  0  0  0  0  0
    7.6535  -14.4730   26.4147 C   0  0  0  0  0  0  0  0  0  0  0  0
    8.1072  -15.8782   26.4449 C   0  0  0  0  0  0  0  0  0  0  0  0
    8.9214  -16.1652   25.2160 C   0  0  2  0  0  0  0  0  0  0  0  0
    7.9999  -16.1694   24.0677 N   0  0  0  0  0  0  0  0  0  0  0  0
    9.6777  -17.4177   25.2764 C   0  0  0  0  0  0  0  0  0  0  0  0
    9.2868  -18.5540   24.6195 O   0  0  0  0  0  0  0  0  0  0  0  0
    6.2887  -14.1864   26.5281 C   0  0  0  0  0  0  0  0  0  0  0  0
    5.8074  -12.8947   26.5002 C   0  0  0  0  0  0  0  0  0  0  0  0
   10.7519  -17.4546   25.9754 O   0  0  0  0  0  0  0  0  0  0  0  0
  1  2  1  0
  2  3  1  0
  3  4  2  0
  5  9  1  0
  5  3  1  0
  6  5  1  0
  7  6  1  0
  7  8  1  0
  8  9  1  0
  9 10  1  1
 10 11  2  0
 10 19  1  0
 12 13  1  0
 13 14  2  0
 14 15  1  0
 16 15  2  0
 16 17  1  0
 18 17  1  1
 18 20  1  0
 19 18  1  0
 20 24  2  0
 20 21  1  0
 22 16  1  0
 23 13  1  0
 23 22  2  0
M  END
$$$$
