GPY.pdb
     RDKit          3D

 24 25  0  0  1  0  0  0  0  0999 V2000
    4.8618  -17.7591   20.5871 N   0  0  0  0  0  0  0  0  0  0  0  0
    5.2595  -16.4272   20.8829 C   0  0  0  0  0  0  0  0  0  0  0  0
    6.6819  -16.1923   21.0850 C   0  0  0  0  0  0  0  0  0  0  0  0
    7.4116  -17.1634   21.3958 O   0  0  0  0  0  0  0  0  0  0  0  0
    7.2477  -14.9085   20.9397 N   0  0  0  0  0  0  0  0  0  0  0  0
    6.5239  -13.7210   20.5611 C   0  0  0  0  0  0  0  0  0  0  0  0
    7.5211  -12.5858   20.4795 C   0  0  0  0  0  0  0  0  0  0  0  0
    8.8853  -13.2430   20.4961 C   0  0  0  0  0  0  0  0  0  0  0  0
    8.6679  -14.5885   21.1537 C   0  0  1  0  0  0  0  0  0  0  0  0
    8.9421  -14.5203   22.6328 C   0  0  0  0  0  0  0  0  0  0  0  0
    8.6709  -13.4817   23.2857 O   0  0  0  0  0  0  0  0  0  0  0  0
    5.9380  -10.9655   26.7832 O   0  0  0  0  0  0  0  0  0  0  0  0
    6.5448  -12.1591   26.4523 C   0  0  0  0  0  0  0  0  0  0  0  0
    7.9014  -12.3420   26.6638 C   0  0  0  0  0  0  0  0  0  0  0  0
    8.4829  -13.5297   26.3300 C   0  0  0  0  0  0  0  0  0  0  0  0
    7.7791  -14.5801   25.7817 C   0  0  0  0  0  0  0  0  0  0  0  0
    8.3816  -15.8745   25.4039 C   0  0  0  0  0  0  0  0  0  0  0  0
    9.7169  -15.6334   24.7604 C   0  0  2  0  0  0  0  0  0  0  0  0
    9.5093  -15.6285   23.3027 N   0  0  0  0  0  0  0  0  0  0  0  0
   10.7466  -16.6057   25.1325 C   0  0  0  0  0  0  0  0  0  0  0  0
   11.2956  -17.4857   24.2381 O   0  0  0  0  0  0  0  0  0  0  0  0
    6.4107  -14.3707   25.5781 C   0  0  0  0  0  0  0  0  0  0  0  0
    5.7957  -13.1812   25.9058 C   0  0  0  0  0  0  0  0  0  0  0  0
   11.1522  -16.6374   26.3484 O   0  0  0  0  0  0  0  0  0  0  0  0
  1  2  1  0
  2  3  1  0
  3  4  2  0
  5  9  1  0
  5  3  1  0
  6  5  1  0
  7  6  1  0
  7  8  1  0
  8  9  1  0
  9 10  1  1
 10 11  2  0
 10 19  1  0
 12 13  1  0
 13 14  2  0
 14 15  1  0
 16 15  2  0
 16 17  1  0
 18 17  1  1
 18 20  1  0
 19 18  1  0
 20 24  2  0
 20 21  1  0
 22 16  1  0
 23 13  1  0
 23 22  2  0
M  END
$$$$
