GPY.pdb
     RDKit          3D

 24 25  0  0  1  0  0  0  0  0999 V2000
    5.7683  -18.6765   20.4931 N   0  0  0  0  0  0  0  0  0  0  0  0
    5.9763  -17.4114   21.1060 C   0  0  0  0  0  0  0  0  0  0  0  0
    7.3122  -16.8414   21.0073 C   0  0  0  0  0  0  0  0  0  0  0  0
    8.2791  -17.6125   20.8007 O   0  0  0  0  0  0  0  0  0  0  0  0
    7.5367  -15.4551   21.1381 N   0  0  0  0  0  0  0  0  0  0  0  0
    6.5150  -14.4691   21.3857 C   0  0  0  0  0  0  0  0  0  0  0  0
    7.1854  -13.1127   21.4053 C   0  0  0  0  0  0  0  0  0  0  0  0
    8.5667  -13.3352   20.8257 C   0  0  0  0  0  0  0  0  0  0  0  0
    8.8534  -14.8055   21.0405 C   0  0  1  0  0  0  0  0  0  0  0  0
    9.6113  -15.0291   22.3223 C   0  0  0  0  0  0  0  0  0  0  0  0
   10.8065  -14.6576   22.4311 O   0  0  0  0  0  0  0  0  0  0  0  0
    5.8183  -10.9700   26.3593 O   0  0  0  0  0  0  0  0  0  0  0  0
    6.4660  -12.1785   26.2095 C   0  0  0  0  0  0  0  0  0  0  0  0
    5.7465  -13.3394   25.9788 C   0  0  0  0  0  0  0  0  0  0  0  0
    6.4054  -14.5246   25.8335 C   0  0  0  0  0  0  0  0  0  0  0  0
    7.7775  -14.6325   25.9054 C   0  0  0  0  0  0  0  0  0  0  0  0
    8.5183  -15.9016   25.7590 C   0  0  0  0  0  0  0  0  0  0  0  0
    9.6143  -15.7248   24.7476 C   0  0  2  0  0  0  0  0  0  0  0  0
    8.9823  -15.6615   23.4193 N   0  0  0  0  0  0  0  0  0  0  0  0
   10.6383  -16.7709   24.7834 C   0  0  0  0  0  0  0  0  0  0  0  0
   11.6940  -16.7477   25.6554 O   0  0  0  0  0  0  0  0  0  0  0  0
    8.4814  -13.4460   26.1390 C   0  0  0  0  0  0  0  0  0  0  0  0
    7.8425  -12.2336   26.2898 C   0  0  0  0  0  0  0  0  0  0  0  0
   10.5454  -17.7512   23.9622 O   0  0  0  0  0  0  0  0  0  0  0  0
  1  2  1  0
  2  3  1  0
  3  4  2  0
  5  9  1  0
  5  3  1  0
  6  5  1  0
  7  6  1  0
  7  8  1  0
  8  9  1  0
  9 10  1  1
 10 11  2  0
 10 19  1  0
 12 13  1  0
 13 14  2  0
 14 15  1  0
 16 15  2  0
 16 17  1  0
 18 17  1  1
 18 20  1  0
 19 18  1  0
 20 24  2  0
 20 21  1  0
 22 16  1  0
 23 13  1  0
 23 22  2  0
M  END
$$$$
