HHF.pdb
     RDKit          3D

 32 34  0  0  1  0  0  0  0  0999 V2000
    9.2653  -16.5490   19.6601 N   0  0  0  0  0  0  0  0  0  0  0  0
    9.0096  -15.4458   20.5687 C   0  0  1  0  0  0  0  0  0  0  0  0
    7.7226  -14.7340   20.2127 C   0  0  0  0  0  0  0  0  0  0  0  0
    7.7373  -14.2453   18.8147 C   0  0  0  0  0  0  0  0  0  0  0  0
    8.2496  -13.0324   18.4156 C   0  0  0  0  0  0  0  0  0  0  0  0
    8.0981  -12.9218   17.1007 N   0  0  0  0  0  0  0  0  0  0  0  0
    7.5014  -14.0438   16.6775 C   0  0  0  0  0  0  0  0  0  0  0  0
    7.2806  -14.8488   17.7117 N   0  0  0  0  0  0  0  0  0  0  0  0
    8.9102  -15.9981   21.9363 C   0  0  0  0  0  0  0  0  0  0  0  0
    7.7499  -16.3801   22.3094 O   0  0  0  0  0  0  0  0  0  0  0  0
   10.0299  -16.1056   22.8004 N   0  0  0  0  0  0  0  0  0  0  0  0
    9.9539  -16.8986   24.0054 C   0  0  1  0  0  0  0  0  0  0  0  0
   10.9630  -18.0326   23.9432 C   0  0  0  0  0  0  0  0  0  0  0  0
   10.4188  -19.2094   23.2016 C   0  0  0  0  0  0  0  0  0  0  0  0
    9.1689  -19.2586   22.6280 C   0  0  0  0  0  0  0  0  0  0  0  0
    9.0537  -20.4699   22.0608 N   0  0  0  0  0  0  0  0  0  0  0  0
   10.1796  -21.1753   22.2580 C   0  0  0  0  0  0  0  0  0  0  0  0
   11.0048  -20.3879   22.9584 N   0  0  0  0  0  0  0  0  0  0  0  0
   10.1887  -16.0529   25.2166 C   0  0  0  0  0  0  0  0  0  0  0  0
   11.0852  -15.1773   25.2150 O   0  0  0  0  0  0  0  0  0  0  0  0
    9.4169  -16.2069   26.3971 N   0  0  0  0  0  0  0  0  0  0  0  0
    9.7611  -15.4884   27.6233 C   0  0  1  0  0  0  0  0  0  0  0  0
    8.4529  -14.9562   28.1597 C   0  0  0  0  0  0  0  0  0  0  0  0
    7.9020  -13.8238   27.4150 C   0  0  0  0  0  0  0  0  0  0  0  0
    6.7943  -13.9784   26.6262 C   0  0  0  0  0  0  0  0  0  0  0  0
    6.2821  -12.8943   25.9359 C   0  0  0  0  0  0  0  0  0  0  0  0
    6.8649  -11.6695   26.0287 C   0  0  0  0  0  0  0  0  0  0  0  0
    7.9694  -11.5183   26.8162 C   0  0  0  0  0  0  0  0  0  0  0  0
    8.4932  -12.5886   27.5115 C   0  0  0  0  0  0  0  0  0  0  0  0
   10.3597  -16.4131   28.6118 C   0  0  0  0  0  0  0  0  0  0  0  0
   10.9587  -15.9691   29.7782 O   0  0  0  0  0  0  0  0  0  0  0  0
   10.3541  -17.6789   28.4353 O   0  0  0  0  0  0  0  0  0  0  0  0
  2  1  1  6
  3  4  1  0
  3  2  1  0
  4  5  2  0
  5  6  1  0
  7  6  1  0
  8  4  1  0
  8  7  2  0
  9  2  1  0
  9 10  2  0
 11  9  1  0
 12 11  1  0
 12 13  1  6
 13 14  1  0
 14 18  1  0
 14 15  2  0
 15 16  1  0
 17 16  1  0
 18 17  2  0
 19 12  1  0
 20 19  2  0
 21 19  1  0
 22 23  1  1
 22 21  1  0
 24 29  1  0
 24 23  1  0
 25 24  2  0
 26 27  2  0
 26 25  1  0
 27 28  1  0
 28 29  2  0
 30 22  1  0
 31 30  1  0
 32 30  2  0
M  END
$$$$
