HHF.pdb
     RDKit          3D

 32 34  0  0  1  0  0  0  0  0999 V2000
   12.8227  -14.1962   17.4548 N   0  0  0  0  0  0  0  0  0  0  0  0
   13.2158  -14.7423   18.7414 C   0  0  1  0  0  0  0  0  0  0  0  0
   14.4999  -14.1099   19.2322 C   0  0  0  0  0  0  0  0  0  0  0  0
   15.6646  -14.5417   18.4255 C   0  0  0  0  0  0  0  0  0  0  0  0
   16.0267  -15.8521   18.2138 C   0  0  0  0  0  0  0  0  0  0  0  0
   17.1125  -15.8721   17.4491 N   0  0  0  0  0  0  0  0  0  0  0  0
   17.4300  -14.5984   17.1829 C   0  0  0  0  0  0  0  0  0  0  0  0
   16.5562  -13.7886   17.7720 N   0  0  0  0  0  0  0  0  0  0  0  0
   12.1272  -14.4669   19.7028 C   0  0  0  0  0  0  0  0  0  0  0  0
   12.0412  -13.2670   20.1320 O   0  0  0  0  0  0  0  0  0  0  0  0
   11.2191  -15.4667   20.1361 N   0  0  0  0  0  0  0  0  0  0  0  0
   10.0978  -15.1243   20.9799 C   0  0  1  0  0  0  0  0  0  0  0  0
    8.8107  -15.6531   20.3701 C   0  0  0  0  0  0  0  0  0  0  0  0
    8.3243  -14.7707   19.2676 C   0  0  0  0  0  0  0  0  0  0  0  0
    8.9960  -13.6633   18.8023 C   0  0  0  0  0  0  0  0  0  0  0  0
    8.2447  -13.1430   17.8189 N   0  0  0  0  0  0  0  0  0  0  0  0
    7.1345  -13.8807   17.6537 C   0  0  0  0  0  0  0  0  0  0  0  0
    7.1998  -14.8734   18.5491 N   0  0  0  0  0  0  0  0  0  0  0  0
   10.2848  -15.6652   22.3618 C   0  0  0  0  0  0  0  0  0  0  0  0
   10.9101  -16.7356   22.5450 O   0  0  0  0  0  0  0  0  0  0  0  0
    9.7691  -14.9972   23.5023 N   0  0  0  0  0  0  0  0  0  0  0  0
    9.9997  -15.5161   24.8498 C   0  0  1  0  0  0  0  0  0  0  0  0
    9.6393  -14.3854   25.7847 C   0  0  0  0  0  0  0  0  0  0  0  0
    9.7343  -14.7141   27.2071 C   0  0  0  0  0  0  0  0  0  0  0  0
   10.8821  -15.2497   27.7256 C   0  0  0  0  0  0  0  0  0  0  0  0
   10.9569  -15.5463   29.0748 C   0  0  0  0  0  0  0  0  0  0  0  0
    9.9019  -15.3129   29.9000 C   0  0  0  0  0  0  0  0  0  0  0  0
    8.7585  -14.7786   29.3801 C   0  0  0  0  0  0  0  0  0  0  0  0
    8.6670  -14.4768   28.0371 C   0  0  0  0  0  0  0  0  0  0  0  0
    9.1175  -16.6747   25.1139 C   0  0  0  0  0  0  0  0  0  0  0  0
    7.9436  -16.8909   24.4126 O   0  0  0  0  0  0  0  0  0  0  0  0
    9.3978  -17.5404   26.0113 O   0  0  0  0  0  0  0  0  0  0  0  0
  2  1  1  6
  3  4  1  0
  3  2  1  0
  4  5  2  0
  5  6  1  0
  7  6  1  0
  8  4  1  0
  8  7  2  0
  9  2  1  0
  9 10  2  0
 11  9  1  0
 12 11  1  0
 12 13  1  6
 13 14  1  0
 14 18  1  0
 14 15  2  0
 15 16  1  0
 17 16  1  0
 18 17  2  0
 19 12  1  0
 20 19  2  0
 21 19  1  0
 22 23  1  1
 22 21  1  0
 24 29  1  0
 24 23  1  0
 25 24  2  0
 26 27  2  0
 26 25  1  0
 27 28  1  0
 28 29  2  0
 30 22  1  0
 31 30  1  0
 32 30  2  0
M  END
$$$$
