HHF.pdb
     RDKit          3D

 32 34  0  0  1  0  0  0  0  0999 V2000
    8.8812  -17.9586   16.0805 N   0  0  0  0  0  0  0  0  0  0  0  0
    9.1103  -16.8650   17.0076 C   0  0  1  0  0  0  0  0  0  0  0  0
    7.9260  -15.9238   17.0432 C   0  0  0  0  0  0  0  0  0  0  0  0
    7.7917  -15.1666   15.7774 C   0  0  0  0  0  0  0  0  0  0  0  0
    8.1008  -13.8345   15.6264 C   0  0  0  0  0  0  0  0  0  0  0  0
    7.8615  -13.4854   14.3674 N   0  0  0  0  0  0  0  0  0  0  0  0
    7.4097  -14.5765   13.7354 C   0  0  0  0  0  0  0  0  0  0  0  0
    7.3655  -15.5975   14.5850 N   0  0  0  0  0  0  0  0  0  0  0  0
    9.3241  -17.4456   18.3502 C   0  0  0  0  0  0  0  0  0  0  0  0
    8.4310  -18.2600   18.7634 O   0  0  0  0  0  0  0  0  0  0  0  0
   10.4520  -17.1280   19.1495 N   0  0  0  0  0  0  0  0  0  0  0  0
   10.6324  -17.7450   20.4431 C   0  0  1  0  0  0  0  0  0  0  0  0
   11.9357  -18.5253   20.4671 C   0  0  0  0  0  0  0  0  0  0  0  0
   11.8166  -19.8129   19.7197 C   0  0  0  0  0  0  0  0  0  0  0  0
   12.4660  -20.0909   18.5386 C   0  0  0  0  0  0  0  0  0  0  0  0
   12.1065  -21.3354   18.1860 N   0  0  0  0  0  0  0  0  0  0  0  0
   11.2611  -21.8422   19.0985 C   0  0  0  0  0  0  0  0  0  0  0  0
   11.0947  -20.8962   20.0306 N   0  0  0  0  0  0  0  0  0  0  0  0
   10.6150  -16.7188   21.5311 C   0  0  0  0  0  0  0  0  0  0  0  0
   11.4041  -15.7458   21.4983 O   0  0  0  0  0  0  0  0  0  0  0  0
    9.7176  -16.8056   22.6265 N   0  0  0  0  0  0  0  0  0  0  0  0
    9.8389  -15.9087   23.7750 C   0  0  1  0  0  0  0  0  0  0  0  0
    8.4944  -15.2315   23.9019 C   0  0  0  0  0  0  0  0  0  0  0  0
    8.2276  -14.2075   22.8918 C   0  0  0  0  0  0  0  0  0  0  0  0
    8.8211  -12.9767   22.9705 C   0  0  0  0  0  0  0  0  0  0  0  0
    8.5637  -12.0234   22.0015 C   0  0  0  0  0  0  0  0  0  0  0  0
    7.7252  -12.2907   20.9652 C   0  0  0  0  0  0  0  0  0  0  0  0
    7.1349  -13.5190   20.8892 C   0  0  0  0  0  0  0  0  0  0  0  0
    7.3806  -14.4812   21.8468 C   0  0  0  0  0  0  0  0  0  0  0  0
   10.1198  -16.6818   25.0053 C   0  0  0  0  0  0  0  0  0  0  0  0
   10.5464  -16.0836   26.1787 O   0  0  0  0  0  0  0  0  0  0  0  0
    9.9822  -17.9518   25.0455 O   0  0  0  0  0  0  0  0  0  0  0  0
  2  1  1  6
  3  4  1  0
  3  2  1  0
  4  5  2  0
  5  6  1  0
  7  6  1  0
  8  4  1  0
  8  7  2  0
  9  2  1  0
  9 10  2  0
 11  9  1  0
 12 11  1  0
 12 13  1  6
 13 14  1  0
 14 18  1  0
 14 15  2  0
 15 16  1  0
 17 16  1  0
 18 17  2  0
 19 12  1  0
 20 19  2  0
 21 19  1  0
 22 23  1  1
 22 21  1  0
 24 29  1  0
 24 23  1  0
 25 24  2  0
 26 27  2  0
 26 25  1  0
 27 28  1  0
 28 29  2  0
 30 22  1  0
 31 30  1  0
 32 30  2  0
M  END
$$$$
