HHF.pdb
     RDKit          3D

 32 34  0  0  1  0  0  0  0  0999 V2000
    8.5978  -18.7258   20.5615 N   0  0  0  0  0  0  0  0  0  0  0  0
   10.0024  -18.3637   20.4993 C   0  0  1  0  0  0  0  0  0  0  0  0
   10.4848  -18.2969   19.0666 C   0  0  0  0  0  0  0  0  0  0  0  0
    9.8975  -19.3776   18.2415 C   0  0  0  0  0  0  0  0  0  0  0  0
    9.0298  -20.3364   18.7112 C   0  0  0  0  0  0  0  0  0  0  0  0
    8.7051  -21.1413   17.7058 N   0  0  0  0  0  0  0  0  0  0  0  0
    9.3557  -20.6991   16.6217 C   0  0  0  0  0  0  0  0  0  0  0  0
   10.0793  -19.6310   16.9408 N   0  0  0  0  0  0  0  0  0  0  0  0
   10.1584  -17.0398   21.1384 C   0  0  0  0  0  0  0  0  0  0  0  0
   11.3400  -16.5551   21.1552 O   0  0  0  0  0  0  0  0  0  0  0  0
    9.0682  -16.3323   21.7065 N   0  0  0  0  0  0  0  0  0  0  0  0
    9.2576  -15.0099   22.2561 C   0  0  1  0  0  0  0  0  0  0  0  0
    8.1183  -14.1020   21.8247 C   0  0  0  0  0  0  0  0  0  0  0  0
    8.0732  -13.9483   20.3398 C   0  0  0  0  0  0  0  0  0  0  0  0
    8.9358  -14.5695   19.4657 C   0  0  0  0  0  0  0  0  0  0  0  0
    8.5758  -14.1840   18.2312 N   0  0  0  0  0  0  0  0  0  0  0  0
    7.5258  -13.3494   18.3016 C   0  0  0  0  0  0  0  0  0  0  0  0
    7.2313  -13.2162   19.6004 N   0  0  0  0  0  0  0  0  0  0  0  0
    9.3523  -15.0604   23.7480 C   0  0  0  0  0  0  0  0  0  0  0  0
    9.8492  -14.1025   24.3851 O   0  0  0  0  0  0  0  0  0  0  0  0
    8.8900  -16.1785   24.4891 N   0  0  0  0  0  0  0  0  0  0  0  0
    9.0154  -16.2233   25.9453 C   0  0  1  0  0  0  0  0  0  0  0  0
    7.6503  -15.8575   26.4792 C   0  0  0  0  0  0  0  0  0  0  0  0
    7.3586  -14.4239   26.4817 C   0  0  0  0  0  0  0  0  0  0  0  0
    6.2260  -13.9401   25.8847 C   0  0  0  0  0  0  0  0  0  0  0  0
    5.9621  -12.5822   25.9044 C   0  0  0  0  0  0  0  0  0  0  0  0
    6.8149  -11.7143   26.5110 C   0  0  0  0  0  0  0  0  0  0  0  0
    7.9436  -12.1997   27.1056 C   0  0  0  0  0  0  0  0  0  0  0  0
    8.2221  -13.5509   27.0954 C   0  0  0  0  0  0  0  0  0  0  0  0
    9.3691  -17.5898   26.3903 C   0  0  0  0  0  0  0  0  0  0  0  0
    9.5757  -17.9084   27.7216 O   0  0  0  0  0  0  0  0  0  0  0  0
    9.5036  -18.5519   25.5599 O   0  0  0  0  0  0  0  0  0  0  0  0
  2  1  1  6
  3  4  1  0
  3  2  1  0
  4  5  2  0
  5  6  1  0
  7  6  1  0
  8  4  1  0
  8  7  2  0
  9  2  1  0
  9 10  2  0
 11  9  1  0
 12 11  1  0
 12 13  1  1
 13 14  1  0
 14 18  1  0
 14 15  2  0
 15 16  1  0
 17 16  1  0
 18 17  2  0
 19 12  1  0
 20 19  2  0
 21 19  1  0
 22 23  1  1
 22 21  1  0
 24 29  1  0
 24 23  1  0
 25 24  2  0
 26 27  2  0
 26 25  1  0
 27 28  1  0
 28 29  2  0
 30 22  1  0
 31 30  1  0
 32 30  2  0
M  END
$$$$
