HHF.pdb
     RDKit          3D

 32 34  0  0  1  0  0  0  0  0999 V2000
    9.5046  -17.8327   15.7217 N   0  0  0  0  0  0  0  0  0  0  0  0
    9.3027  -16.7315   16.6463 C   0  0  1  0  0  0  0  0  0  0  0  0
    8.0250  -15.9841   16.3325 C   0  0  0  0  0  0  0  0  0  0  0  0
    8.1154  -15.2661   15.0402 C   0  0  0  0  0  0  0  0  0  0  0  0
    8.2055  -13.8995   14.9095 C   0  0  0  0  0  0  0  0  0  0  0  0
    8.2695  -13.6021   13.6166 N   0  0  0  0  0  0  0  0  0  0  0  0
    8.2208  -14.7592   12.9436 C   0  0  0  0  0  0  0  0  0  0  0  0
    8.1274  -15.7702   13.8013 N   0  0  0  0  0  0  0  0  0  0  0  0
    9.2272  -17.2935   18.0115 C   0  0  0  0  0  0  0  0  0  0  0  0
    8.0987  -17.7778   18.3626 O   0  0  0  0  0  0  0  0  0  0  0  0
   10.3358  -17.3031   18.8964 N   0  0  0  0  0  0  0  0  0  0  0  0
   10.2273  -17.9102   20.2026 C   0  0  1  0  0  0  0  0  0  0  0  0
   11.2562  -19.0188   20.3452 C   0  0  0  0  0  0  0  0  0  0  0  0
   11.1479  -19.6990   21.6705 C   0  0  0  0  0  0  0  0  0  0  0  0
   10.0568  -20.4283   22.0849 C   0  0  0  0  0  0  0  0  0  0  0  0
   10.3392  -20.8749   23.3191 N   0  0  0  0  0  0  0  0  0  0  0  0
   11.5599  -20.4537   23.6887 C   0  0  0  0  0  0  0  0  0  0  0  0
   12.0406  -19.7350   22.6670 N   0  0  0  0  0  0  0  0  0  0  0  0
   10.4026  -16.8895   21.2818 C   0  0  0  0  0  0  0  0  0  0  0  0
   11.3814  -16.1072   21.2624 O   0  0  0  0  0  0  0  0  0  0  0  0
    9.4811  -16.7691   22.3538 N   0  0  0  0  0  0  0  0  0  0  0  0
    9.6844  -15.7866   23.4177 C   0  0  1  0  0  0  0  0  0  0  0  0
    8.3852  -15.0218   23.5142 C   0  0  0  0  0  0  0  0  0  0  0  0
    8.0592  -14.2187   22.3356 C   0  0  0  0  0  0  0  0  0  0  0  0
    7.1860  -14.6862   21.3910 C   0  0  0  0  0  0  0  0  0  0  0  0
    6.8829  -13.9094   20.2871 C   0  0  0  0  0  0  0  0  0  0  0  0
    7.4418  -12.6808   20.1238 C   0  0  0  0  0  0  0  0  0  0  0  0
    8.3121  -12.2171   21.0675 C   0  0  0  0  0  0  0  0  0  0  0  0
    8.6254  -12.9786   22.1745 C   0  0  0  0  0  0  0  0  0  0  0  0
    9.9525  -16.4678   24.7039 C   0  0  0  0  0  0  0  0  0  0  0  0
    9.8436  -17.8394   24.8561 O   0  0  0  0  0  0  0  0  0  0  0  0
   10.3001  -15.8173   25.7477 O   0  0  0  0  0  0  0  0  0  0  0  0
  2  1  1  6
  3  4  1  0
  3  2  1  0
  4  5  2  0
  5  6  1  0
  7  6  1  0
  8  4  1  0
  8  7  2  0
  9  2  1  0
  9 10  2  0
 11  9  1  0
 12 11  1  0
 12 13  1  1
 13 14  1  0
 14 18  1  0
 14 15  2  0
 15 16  1  0
 17 16  1  0
 18 17  2  0
 19 12  1  0
 20 19  2  0
 21 19  1  0
 22 23  1  1
 22 21  1  0
 24 29  1  0
 24 23  1  0
 25 24  2  0
 26 27  2  0
 26 25  1  0
 27 28  1  0
 28 29  2  0
 30 22  1  0
 31 30  1  0
 32 30  2  0
M  END
$$$$
