HHF.pdb
     RDKit          3D

 32 34  0  0  1  0  0  0  0  0999 V2000
    8.6091  -18.6467   19.2289 N   0  0  0  0  0  0  0  0  0  0  0  0
    8.3940  -18.4473   20.6509 C   0  0  1  0  0  0  0  0  0  0  0  0
    9.0828  -19.5230   21.4621 C   0  0  0  0  0  0  0  0  0  0  0  0
    8.5238  -20.8646   21.1767 C   0  0  0  0  0  0  0  0  0  0  0  0
    7.2719  -21.0952   20.6548 C   0  0  0  0  0  0  0  0  0  0  0  0
    7.1015  -22.4065   20.5296 N   0  0  0  0  0  0  0  0  0  0  0  0
    8.2246  -22.9928   20.9643 C   0  0  0  0  0  0  0  0  0  0  0  0
    9.0893  -22.0632   21.3574 N   0  0  0  0  0  0  0  0  0  0  0  0
    8.9447  -17.1236   21.0117 C   0  0  0  0  0  0  0  0  0  0  0  0
   10.1937  -16.9547   20.8048 O   0  0  0  0  0  0  0  0  0  0  0  0
    8.1458  -16.0868   21.5584 N   0  0  0  0  0  0  0  0  0  0  0  0
    8.7283  -14.8061   21.8855 C   0  0  1  0  0  0  0  0  0  0  0  0
    7.8936  -13.6888   21.2829 C   0  0  0  0  0  0  0  0  0  0  0  0
    7.9641  -13.6965   19.7910 C   0  0  0  0  0  0  0  0  0  0  0  0
    8.5342  -12.6994   19.0329 C   0  0  0  0  0  0  0  0  0  0  0  0
    8.4015  -13.0690   17.7492 N   0  0  0  0  0  0  0  0  0  0  0  0
    7.7728  -14.2538   17.6779 C   0  0  0  0  0  0  0  0  0  0  0  0
    7.5123  -14.6234   18.9377 N   0  0  0  0  0  0  0  0  0  0  0  0
    8.8435  -14.6347   23.3669 C   0  0  0  0  0  0  0  0  0  0  0  0
    8.5526  -13.5403   23.9036 O   0  0  0  0  0  0  0  0  0  0  0  0
    9.2801  -15.6891   24.2098 N   0  0  0  0  0  0  0  0  0  0  0  0
    9.3177  -15.5282   25.6627 C   0  0  1  0  0  0  0  0  0  0  0  0
    7.8742  -15.4158   26.0937 C   0  0  0  0  0  0  0  0  0  0  0  0
    7.4221  -14.0518   26.3680 C   0  0  0  0  0  0  0  0  0  0  0  0
    8.2716  -13.1318   26.9207 C   0  0  0  0  0  0  0  0  0  0  0  0
    7.8293  -11.8440   27.1654 C   0  0  0  0  0  0  0  0  0  0  0  0
    6.5561  -11.4744   26.8639 C   0  0  0  0  0  0  0  0  0  0  0  0
    5.7113  -12.3940   26.3127 C   0  0  0  0  0  0  0  0  0  0  0  0
    6.1360  -13.6824   26.0620 C   0  0  0  0  0  0  0  0  0  0  0  0
    9.9309  -16.7164   26.2972 C   0  0  0  0  0  0  0  0  0  0  0  0
   10.3392  -17.8209   25.5693 O   0  0  0  0  0  0  0  0  0  0  0  0
   10.1145  -16.7827   27.5602 O   0  0  0  0  0  0  0  0  0  0  0  0
  2  1  1  6
  3  4  1  0
  3  2  1  0
  4  5  2  0
  5  6  1  0
  7  6  1  0
  8  4  1  0
  8  7  2  0
  9  2  1  0
  9 10  2  0
 11  9  1  0
 12 11  1  0
 12 13  1  1
 13 14  1  0
 14 18  1  0
 14 15  2  0
 15 16  1  0
 17 16  1  0
 18 17  2  0
 19 12  1  0
 20 19  2  0
 21 19  1  0
 22 23  1  1
 22 21  1  0
 24 29  1  0
 24 23  1  0
 25 24  2  0
 26 27  2  0
 26 25  1  0
 27 28  1  0
 28 29  2  0
 30 22  1  0
 31 30  1  0
 32 30  2  0
M  END
$$$$
