HHF.pdb
     RDKit          3D

 32 34  0  0  1  0  0  0  0  0999 V2000
    8.1374  -17.1262   19.0222 N   0  0  0  0  0  0  0  0  0  0  0  0
    8.3786  -16.2510   20.1552 C   0  0  1  0  0  0  0  0  0  0  0  0
    7.5090  -15.0146   20.0832 C   0  0  0  0  0  0  0  0  0  0  0  0
    7.8412  -14.1810   18.9050 C   0  0  0  0  0  0  0  0  0  0  0  0
    8.5103  -12.9801   18.9603 C   0  0  0  0  0  0  0  0  0  0  0  0
    8.6360  -12.5092   17.7247 N   0  0  0  0  0  0  0  0  0  0  0  0
    8.0571  -13.3961   16.9047 C   0  0  0  0  0  0  0  0  0  0  0  0
    7.5742  -14.4105   17.6146 N   0  0  0  0  0  0  0  0  0  0  0  0
    8.0667  -17.0068   21.3868 C   0  0  0  0  0  0  0  0  0  0  0  0
    6.8862  -17.4868   21.4726 O   0  0  0  0  0  0  0  0  0  0  0  0
    9.0129  -17.1986   22.4259 N   0  0  0  0  0  0  0  0  0  0  0  0
   10.1857  -16.3601   22.5150 C   0  0  1  0  0  0  0  0  0  0  0  0
   10.0616  -15.1925   21.5509 C   0  0  0  0  0  0  0  0  0  0  0  0
   11.2284  -15.1242   20.6210 C   0  0  0  0  0  0  0  0  0  0  0  0
   12.2034  -14.1538   20.6644 C   0  0  0  0  0  0  0  0  0  0  0  0
   13.0691  -14.4343   19.6774 N   0  0  0  0  0  0  0  0  0  0  0  0
   12.6730  -15.5382   19.0227 C   0  0  0  0  0  0  0  0  0  0  0  0
   11.5440  -15.9473   19.6139 N   0  0  0  0  0  0  0  0  0  0  0  0
   10.3847  -15.8673   23.9131 C   0  0  0  0  0  0  0  0  0  0  0  0
   10.7760  -14.6955   24.1232 O   0  0  0  0  0  0  0  0  0  0  0  0
   10.1419  -16.6953   25.0393 N   0  0  0  0  0  0  0  0  0  0  0  0
    9.3261  -16.2270   26.1589 C   0  0  1  0  0  0  0  0  0  0  0  0
    8.0037  -15.8202   25.5522 C   0  0  0  0  0  0  0  0  0  0  0  0
    7.5625  -14.4687   25.8970 C   0  0  0  0  0  0  0  0  0  0  0  0
    6.2386  -14.2007   26.1180 C   0  0  0  0  0  0  0  0  0  0  0  0
    5.8406  -12.9184   26.4516 C   0  0  0  0  0  0  0  0  0  0  0  0
    6.7488  -11.9131   26.5643 C   0  0  0  0  0  0  0  0  0  0  0  0
    8.0684  -12.1833   26.3434 C   0  0  0  0  0  0  0  0  0  0  0  0
    8.4826  -13.4563   26.0101 C   0  0  0  0  0  0  0  0  0  0  0  0
    9.1070  -17.3218   27.1304 C   0  0  0  0  0  0  0  0  0  0  0  0
    9.0158  -18.6490   26.7473 O   0  0  0  0  0  0  0  0  0  0  0  0
    8.9891  -17.0940   28.3824 O   0  0  0  0  0  0  0  0  0  0  0  0
  2  1  1  6
  3  4  1  0
  3  2  1  0
  4  5  2  0
  5  6  1  0
  7  6  1  0
  8  4  1  0
  8  7  2  0
  9  2  1  0
  9 10  2  0
 11  9  1  0
 12 11  1  0
 12 13  1  6
 13 14  1  0
 14 18  1  0
 14 15  2  0
 15 16  1  0
 17 16  1  0
 18 17  2  0
 19 12  1  0
 20 19  2  0
 21 19  1  0
 22 23  1  6
 22 21  1  0
 24 29  1  0
 24 23  1  0
 25 24  2  0
 26 27  2  0
 26 25  1  0
 27 28  1  0
 28 29  2  0
 30 22  1  0
 31 30  1  0
 32 30  2  0
M  END
$$$$
