HHF.pdb
     RDKit          3D

 32 34  0  0  1  0  0  0  0  0999 V2000
    7.5376  -17.1010   19.6167 N   0  0  0  0  0  0  0  0  0  0  0  0
    8.0019  -16.1152   20.5762 C   0  0  1  0  0  0  0  0  0  0  0  0
    7.3335  -14.7768   20.3487 C   0  0  0  0  0  0  0  0  0  0  0  0
    7.7993  -14.1395   19.0955 C   0  0  0  0  0  0  0  0  0  0  0  0
    9.0669  -13.6437   18.8946 C   0  0  0  0  0  0  0  0  0  0  0  0
    9.1360  -13.1464   17.6649 N   0  0  0  0  0  0  0  0  0  0  0  0
    7.9346  -13.3248   17.1001 C   0  0  0  0  0  0  0  0  0  0  0  0
    7.1214  -13.9259   17.9624 N   0  0  0  0  0  0  0  0  0  0  0  0
    7.6744  -16.6104   21.9300 C   0  0  0  0  0  0  0  0  0  0  0  0
    6.4338  -16.7660   22.1910 O   0  0  0  0  0  0  0  0  0  0  0  0
    8.6689  -16.9019   22.8984 N   0  0  0  0  0  0  0  0  0  0  0  0
    8.2994  -17.3958   24.2047 C   0  0  1  0  0  0  0  0  0  0  0  0
    8.5764  -18.8870   24.2916 C   0  0  0  0  0  0  0  0  0  0  0  0
    8.2341  -19.4296   25.6404 C   0  0  0  0  0  0  0  0  0  0  0  0
    6.9948  -19.3270   26.2298 C   0  0  0  0  0  0  0  0  0  0  0  0
    7.0863  -19.9313   27.4251 N   0  0  0  0  0  0  0  0  0  0  0  0
    8.3306  -20.4049   27.6031 C   0  0  0  0  0  0  0  0  0  0  0  0
    9.0200  -20.0887   26.5003 N   0  0  0  0  0  0  0  0  0  0  0  0
    9.0349  -16.6618   25.2805 C   0  0  0  0  0  0  0  0  0  0  0  0
   10.2613  -16.4308   25.1667 O   0  0  0  0  0  0  0  0  0  0  0  0
    8.3823  -16.2052   26.4546 N   0  0  0  0  0  0  0  0  0  0  0  0
    9.1310  -15.5601   27.5324 C   0  0  1  0  0  0  0  0  0  0  0  0
    8.1896  -14.5352   28.1203 C   0  0  0  0  0  0  0  0  0  0  0  0
    7.7815  -13.4779   27.1953 C   0  0  0  0  0  0  0  0  0  0  0  0
    6.5747  -13.5391   26.5524 C   0  0  0  0  0  0  0  0  0  0  0  0
    6.2016  -12.5258   25.6875 C   0  0  0  0  0  0  0  0  0  0  0  0
    7.0194  -11.4629   25.4639 C   0  0  0  0  0  0  0  0  0  0  0  0
    8.2222  -11.4046   26.1065 C   0  0  0  0  0  0  0  0  0  0  0  0
    8.6098  -12.4063   26.9723 C   0  0  0  0  0  0  0  0  0  0  0  0
    9.4943  -16.5495   28.5714 C   0  0  0  0  0  0  0  0  0  0  0  0
    9.1351  -17.8837   28.4861 O   0  0  0  0  0  0  0  0  0  0  0  0
   10.1630  -16.2178   29.6089 O   0  0  0  0  0  0  0  0  0  0  0  0
  2  1  1  6
  3  4  1  0
  3  2  1  0
  4  5  2  0
  5  6  1  0
  7  6  1  0
  8  4  1  0
  8  7  2  0
  9  2  1  0
  9 10  2  0
 11  9  1  0
 12 11  1  0
 12 13  1  6
 13 14  1  0
 14 18  1  0
 14 15  2  0
 15 16  1  0
 17 16  1  0
 18 17  2  0
 19 12  1  0
 20 19  2  0
 21 19  1  0
 22 23  1  1
 22 21  1  0
 24 29  1  0
 24 23  1  0
 25 24  2  0
 26 27  2  0
 26 25  1  0
 27 28  1  0
 28 29  2  0
 30 22  1  0
 31 30  1  0
 32 30  2  0
M  END
$$$$
