HHF.pdb
     RDKit          3D

 32 34  0  0  1  0  0  0  0  0999 V2000
   10.9611  -18.2786   19.0594 N   0  0  0  0  0  0  0  0  0  0  0  0
    9.8831  -18.3098   20.0315 C   0  0  1  0  0  0  0  0  0  0  0  0
   10.1038  -19.4025   21.0547 C   0  0  0  0  0  0  0  0  0  0  0  0
    9.9022  -20.7479   20.4693 C   0  0  0  0  0  0  0  0  0  0  0  0
   10.9169  -21.6063   20.1139 C   0  0  0  0  0  0  0  0  0  0  0  0
   10.3784  -22.7175   19.6246 N   0  0  0  0  0  0  0  0  0  0  0  0
    9.0486  -22.5636   19.6702 C   0  0  0  0  0  0  0  0  0  0  0  0
    8.7549  -21.3724   20.1810 N   0  0  0  0  0  0  0  0  0  0  0  0
    9.8441  -16.9960   20.7080 C   0  0  0  0  0  0  0  0  0  0  0  0
   10.9738  -16.4656   20.9798 O   0  0  0  0  0  0  0  0  0  0  0  0
    8.6295  -16.3454   21.0445 N   0  0  0  0  0  0  0  0  0  0  0  0
    8.6416  -15.1038   21.7828 C   0  0  1  0  0  0  0  0  0  0  0  0
    7.5748  -14.1683   21.2396 C   0  0  0  0  0  0  0  0  0  0  0  0
    7.8339  -13.8127   19.8123 C   0  0  0  0  0  0  0  0  0  0  0  0
    8.4142  -12.6366   19.3955 C   0  0  0  0  0  0  0  0  0  0  0  0
    8.4748  -12.6916   18.0555 N   0  0  0  0  0  0  0  0  0  0  0  0
    7.9564  -13.8525   17.6223 C   0  0  0  0  0  0  0  0  0  0  0  0
    7.5689  -14.5267   18.7117 N   0  0  0  0  0  0  0  0  0  0  0  0
    8.4305  -15.3490   23.2431 C   0  0  0  0  0  0  0  0  0  0  0  0
    7.4423  -16.0102   23.6391 O   0  0  0  0  0  0  0  0  0  0  0  0
    9.3275  -14.8499   24.2224 N   0  0  0  0  0  0  0  0  0  0  0  0
    9.1237  -15.1262   25.6438 C   0  0  1  0  0  0  0  0  0  0  0  0
    7.6414  -14.9551   25.8796 C   0  0  0  0  0  0  0  0  0  0  0  0
    7.2457  -13.6262   26.3463 C   0  0  0  0  0  0  0  0  0  0  0  0
    8.1867  -12.6641   26.5956 C   0  0  0  0  0  0  0  0  0  0  0  0
    7.7935  -11.4102   27.0283 C   0  0  0  0  0  0  0  0  0  0  0  0
    6.4788  -11.1158   27.2111 C   0  0  0  0  0  0  0  0  0  0  0  0
    5.5426  -12.0772   26.9615 C   0  0  0  0  0  0  0  0  0  0  0  0
    5.9173  -13.3327   26.5295 C   0  0  0  0  0  0  0  0  0  0  0  0
    9.5161  -16.5178   25.9598 C   0  0  0  0  0  0  0  0  0  0  0  0
   10.1275  -16.8658   27.1521 O   0  0  0  0  0  0  0  0  0  0  0  0
    9.3088  -17.4758   25.1397 O   0  0  0  0  0  0  0  0  0  0  0  0
  2  1  1  6
  3  4  1  0
  3  2  1  0
  4  5  2  0
  5  6  1  0
  7  6  1  0
  8  4  1  0
  8  7  2  0
  9  2  1  0
  9 10  2  0
 11  9  1  0
 12 11  1  0
 12 13  1  6
 13 14  1  0
 14 18  1  0
 14 15  2  0
 15 16  1  0
 17 16  1  0
 18 17  2  0
 19 12  1  0
 20 19  2  0
 21 19  1  0
 22 23  1  6
 22 21  1  0
 24 29  1  0
 24 23  1  0
 25 24  2  0
 26 27  2  0
 26 25  1  0
 27 28  1  0
 28 29  2  0
 30 22  1  0
 31 30  1  0
 32 30  2  0
M  END
$$$$
