HHF.pdb
     RDKit          3D

 32 34  0  0  1  0  0  0  0  0999 V2000
    9.0366  -16.5219   19.4155 N   0  0  0  0  0  0  0  0  0  0  0  0
    8.7616  -15.5390   20.4482 C   0  0  1  0  0  0  0  0  0  0  0  0
    7.5038  -14.7580   20.1357 C   0  0  0  0  0  0  0  0  0  0  0  0
    7.6441  -13.9730   18.8876 C   0  0  0  0  0  0  0  0  0  0  0  0
    8.7683  -13.9594   18.0946 C   0  0  0  0  0  0  0  0  0  0  0  0
    8.5476  -13.1526   17.0628 N   0  0  0  0  0  0  0  0  0  0  0  0
    7.3075  -12.6659   17.2018 C   0  0  0  0  0  0  0  0  0  0  0  0
    6.7559  -13.1597   18.3055 N   0  0  0  0  0  0  0  0  0  0  0  0
    8.5937  -16.2602   21.7277 C   0  0  0  0  0  0  0  0  0  0  0  0
    7.4692  -16.1151   22.3158 O   0  0  0  0  0  0  0  0  0  0  0  0
    9.6133  -17.0725   22.2866 N   0  0  0  0  0  0  0  0  0  0  0  0
    9.3865  -17.7913   23.5189 C   0  0  1  0  0  0  0  0  0  0  0  0
   10.1556  -19.1014   23.5030 C   0  0  0  0  0  0  0  0  0  0  0  0
    9.5160  -20.1006   22.5957 C   0  0  0  0  0  0  0  0  0  0  0  0
    8.2994  -19.9244   21.9770 C   0  0  0  0  0  0  0  0  0  0  0  0
    8.0723  -21.0320   21.2531 N   0  0  0  0  0  0  0  0  0  0  0  0
    9.0967  -21.8888   21.3961 C   0  0  0  0  0  0  0  0  0  0  0  0
    9.9717  -21.3022   22.2217 N   0  0  0  0  0  0  0  0  0  0  0  0
    9.7834  -16.9641   24.7002 C   0  0  0  0  0  0  0  0  0  0  0  0
   10.7773  -16.2035   24.6371 O   0  0  0  0  0  0  0  0  0  0  0  0
    9.0606  -17.0077   25.9203 N   0  0  0  0  0  0  0  0  0  0  0  0
    9.5074  -16.2525   27.0900 C   0  0  1  0  0  0  0  0  0  0  0  0
    8.2707  -15.5705   27.6264 C   0  0  0  0  0  0  0  0  0  0  0  0
    7.9772  -14.2715   27.0208 C   0  0  0  0  0  0  0  0  0  0  0  0
    8.8190  -13.2082   27.2052 C   0  0  0  0  0  0  0  0  0  0  0  0
    8.5299  -11.9895   26.6178 C   0  0  0  0  0  0  0  0  0  0  0  0
    7.4158  -11.8293   25.8552 C   0  0  0  0  0  0  0  0  0  0  0  0
    6.5782  -12.8915   25.6730 C   0  0  0  0  0  0  0  0  0  0  0  0
    6.8514  -14.1139   26.2513 C   0  0  0  0  0  0  0  0  0  0  0  0
   10.0508  -17.1682   28.1179 C   0  0  0  0  0  0  0  0  0  0  0  0
   10.8710  -16.7317   29.1442 O   0  0  0  0  0  0  0  0  0  0  0  0
    9.7882  -18.4189   28.1083 O   0  0  0  0  0  0  0  0  0  0  0  0
  2  1  1  6
  3  4  1  0
  3  2  1  0
  4  5  2  0
  5  6  1  0
  7  6  1  0
  8  4  1  0
  8  7  2  0
  9  2  1  0
  9 10  2  0
 11  9  1  0
 12 11  1  0
 12 13  1  6
 13 14  1  0
 14 18  1  0
 14 15  2  0
 15 16  1  0
 17 16  1  0
 18 17  2  0
 19 12  1  0
 20 19  2  0
 21 19  1  0
 22 23  1  1
 22 21  1  0
 24 29  1  0
 24 23  1  0
 25 24  2  0
 26 27  2  0
 26 25  1  0
 27 28  1  0
 28 29  2  0
 30 22  1  0
 31 30  1  0
 32 30  2  0
M  END
$$$$
