HHF.pdb
     RDKit          3D

 32 34  0  0  1  0  0  0  0  0999 V2000
    8.3702  -17.2188   19.6891 N   0  0  0  0  0  0  0  0  0  0  0  0
    8.5340  -16.1002   20.6000 C   0  0  1  0  0  0  0  0  0  0  0  0
    7.4679  -15.0509   20.3715 C   0  0  0  0  0  0  0  0  0  0  0  0
    7.7274  -14.2674   19.1417 C   0  0  0  0  0  0  0  0  0  0  0  0
    7.1560  -14.5229   17.9165 C   0  0  0  0  0  0  0  0  0  0  0  0
    7.6100  -13.6301   17.0442 N   0  0  0  0  0  0  0  0  0  0  0  0
    8.4521  -12.8259   17.7061 C   0  0  0  0  0  0  0  0  0  0  0  0
    8.5268  -13.2076   18.9770 N   0  0  0  0  0  0  0  0  0  0  0  0
    8.4316  -16.6202   21.9801 C   0  0  0  0  0  0  0  0  0  0  0  0
    7.3612  -17.2551   22.2677 O   0  0  0  0  0  0  0  0  0  0  0  0
    9.4547  -16.4343   22.9447 N   0  0  0  0  0  0  0  0  0  0  0  0
    9.3157  -16.9770   24.2762 C   0  0  1  0  0  0  0  0  0  0  0  0
    9.8423  -18.4016   24.3121 C   0  0  0  0  0  0  0  0  0  0  0  0
   11.0549  -18.5587   23.4545 C   0  0  0  0  0  0  0  0  0  0  0  0
   11.6446  -17.5377   22.7446 C   0  0  0  0  0  0  0  0  0  0  0  0
   12.6979  -18.0718   22.1061 N   0  0  0  0  0  0  0  0  0  0  0  0
   12.7874  -19.3817   22.3897 C   0  0  0  0  0  0  0  0  0  0  0  0
   11.7732  -19.6627   23.2167 N   0  0  0  0  0  0  0  0  0  0  0  0
   10.0329  -16.1270   25.2765 C   0  0  0  0  0  0  0  0  0  0  0  0
   11.2737  -15.9687   25.2013 O   0  0  0  0  0  0  0  0  0  0  0  0
    9.3463  -15.4765   26.3340 N   0  0  0  0  0  0  0  0  0  0  0  0
   10.0692  -14.9396   27.4862 C   0  0  1  0  0  0  0  0  0  0  0  0
    9.0403  -14.1788   28.2892 C   0  0  0  0  0  0  0  0  0  0  0  0
    8.1756  -13.3011   27.5004 C   0  0  0  0  0  0  0  0  0  0  0  0
    8.6803  -12.1811   26.8971 C   0  0  0  0  0  0  0  0  0  0  0  0
    7.8495  -11.3672   26.1478 C   0  0  0  0  0  0  0  0  0  0  0  0
    6.5309  -11.6635   25.9999 C   0  0  0  0  0  0  0  0  0  0  0  0
    6.0303  -12.7812   26.6027 C   0  0  0  0  0  0  0  0  0  0  0  0
    6.8448  -13.6038   27.3532 C   0  0  0  0  0  0  0  0  0  0  0  0
   10.6204  -16.0405   28.3075 C   0  0  0  0  0  0  0  0  0  0  0  0
   10.3263  -17.3709   28.0620 O   0  0  0  0  0  0  0  0  0  0  0  0
   11.4015  -15.8155   29.2937 O   0  0  0  0  0  0  0  0  0  0  0  0
  2  1  1  6
  3  4  1  0
  3  2  1  0
  4  5  2  0
  5  6  1  0
  7  6  1  0
  8  4  1  0
  8  7  2  0
  9  2  1  0
  9 10  2  0
 11  9  1  0
 12 11  1  0
 12 13  1  6
 13 14  1  0
 14 18  1  0
 14 15  2  0
 15 16  1  0
 17 16  1  0
 18 17  2  0
 19 12  1  0
 20 19  2  0
 21 19  1  0
 22 23  1  1
 22 21  1  0
 24 29  1  0
 24 23  1  0
 25 24  2  0
 26 27  2  0
 26 25  1  0
 27 28  1  0
 28 29  2  0
 30 22  1  0
 31 30  1  0
 32 30  2  0
M  END
$$$$
