HHF.pdb
     RDKit          3D

 32 34  0  0  1  0  0  0  0  0999 V2000
    9.5502  -16.0137   19.1761 N   0  0  0  0  0  0  0  0  0  0  0  0
    8.9150  -15.0648   20.0728 C   0  0  1  0  0  0  0  0  0  0  0  0
    7.5571  -14.6476   19.5514 C   0  0  0  0  0  0  0  0  0  0  0  0
    7.6014  -14.3285   18.1058 C   0  0  0  0  0  0  0  0  0  0  0  0
    8.1300  -13.1742   17.5756 C   0  0  0  0  0  0  0  0  0  0  0  0
    8.0039  -13.2199   16.2542 N   0  0  0  0  0  0  0  0  0  0  0  0
    7.4070  -14.3811   15.9556 C   0  0  0  0  0  0  0  0  0  0  0  0
    7.1610  -15.0564   17.0736 N   0  0  0  0  0  0  0  0  0  0  0  0
    8.7623  -15.7177   21.3902 C   0  0  0  0  0  0  0  0  0  0  0  0
    7.8051  -15.2961   22.1233 O   0  0  0  0  0  0  0  0  0  0  0  0
    9.6212  -16.7562   21.8326 N   0  0  0  0  0  0  0  0  0  0  0  0
    9.4223  -17.3737   23.1233 C   0  0  1  0  0  0  0  0  0  0  0  0
    9.8592  -18.8279   23.0741 C   0  0  0  0  0  0  0  0  0  0  0  0
    8.9973  -19.6275   22.1528 C   0  0  0  0  0  0  0  0  0  0  0  0
    7.6315  -19.4932   22.0511 C   0  0  0  0  0  0  0  0  0  0  0  0
    7.2263  -20.3769   21.1252 N   0  0  0  0  0  0  0  0  0  0  0  0
    8.2830  -21.0545   20.6476 C   0  0  0  0  0  0  0  0  0  0  0  0
    9.3594  -20.5826   21.2880 N   0  0  0  0  0  0  0  0  0  0  0  0
   10.1703  -16.6368   24.1885 C   0  0  0  0  0  0  0  0  0  0  0  0
   11.3791  -16.3468   24.0301 O   0  0  0  0  0  0  0  0  0  0  0  0
    9.5494  -16.2431   25.4020 N   0  0  0  0  0  0  0  0  0  0  0  0
   10.3120  -15.5835   26.4611 C   0  0  1  0  0  0  0  0  0  0  0  0
   10.1118  -14.1025   26.2399 C   0  0  0  0  0  0  0  0  0  0  0  0
    8.7171  -13.6620   26.2744 C   0  0  0  0  0  0  0  0  0  0  0  0
    7.9031  -13.8326   25.1874 C   0  0  0  0  0  0  0  0  0  0  0  0
    6.5845  -13.4176   25.2411 C   0  0  0  0  0  0  0  0  0  0  0  0
    6.0802  -12.8391   26.3633 C   0  0  0  0  0  0  0  0  0  0  0  0
    6.8943  -12.6704   27.4459 C   0  0  0  0  0  0  0  0  0  0  0  0
    8.2117  -13.0785   27.4095 C   0  0  0  0  0  0  0  0  0  0  0  0
    9.7804  -15.9600   27.7900 C   0  0  0  0  0  0  0  0  0  0  0  0
    8.6480  -16.7414   27.9440 O   0  0  0  0  0  0  0  0  0  0  0  0
   10.3450  -15.5782   28.8711 O   0  0  0  0  0  0  0  0  0  0  0  0
  2  1  1  6
  3  4  1  0
  3  2  1  0
  4  5  2  0
  5  6  1  0
  7  6  1  0
  8  4  1  0
  8  7  2  0
  9  2  1  0
  9 10  2  0
 11  9  1  0
 12 11  1  0
 12 13  1  6
 13 14  1  0
 14 18  1  0
 14 15  2  0
 15 16  1  0
 17 16  1  0
 18 17  2  0
 19 12  1  0
 20 19  2  0
 21 19  1  0
 22 23  1  6
 22 21  1  0
 24 29  1  0
 24 23  1  0
 25 24  2  0
 26 27  2  0
 26 25  1  0
 27 28  1  0
 28 29  2  0
 30 22  1  0
 31 30  1  0
 32 30  2  0
M  END
$$$$
