HHF.pdb
     RDKit          3D

 32 34  0  0  1  0  0  0  0  0999 V2000
    9.5450  -15.8153   19.7972 N   0  0  0  0  0  0  0  0  0  0  0  0
    8.5874  -14.9652   20.4814 C   0  0  1  0  0  0  0  0  0  0  0  0
    7.3311  -14.7865   19.6570 C   0  0  0  0  0  0  0  0  0  0  0  0
    7.6408  -14.3411   18.2789 C   0  0  0  0  0  0  0  0  0  0  0  0
    8.1847  -13.1194   17.9555 C   0  0  0  0  0  0  0  0  0  0  0  0
    8.3279  -13.0566   16.6365 N   0  0  0  0  0  0  0  0  0  0  0  0
    7.8827  -14.2167   16.1365 C   0  0  0  0  0  0  0  0  0  0  0  0
    7.4654  -14.9982   17.1271 N   0  0  0  0  0  0  0  0  0  0  0  0
    8.2494  -15.6075   21.7693 C   0  0  0  0  0  0  0  0  0  0  0  0
    7.3390  -15.0406   22.4628 O   0  0  0  0  0  0  0  0  0  0  0  0
    8.8898  -16.7879   22.2258 N   0  0  0  0  0  0  0  0  0  0  0  0
    8.6740  -17.2669   23.5714 C   0  0  1  0  0  0  0  0  0  0  0  0
    8.7296  -18.7849   23.5956 C   0  0  0  0  0  0  0  0  0  0  0  0
    7.4970  -19.3873   23.0053 C   0  0  0  0  0  0  0  0  0  0  0  0
    6.2136  -19.0146   23.3339 C   0  0  0  0  0  0  0  0  0  0  0  0
    5.3910  -19.7787   22.5979 N   0  0  0  0  0  0  0  0  0  0  0  0
    6.1095  -20.6105   21.8258 C   0  0  0  0  0  0  0  0  0  0  0  0
    7.3973  -20.3570   22.0882 N   0  0  0  0  0  0  0  0  0  0  0  0
    9.6837  -16.6896   24.5119 C   0  0  0  0  0  0  0  0  0  0  0  0
   10.9077  -16.7678   24.2549 O   0  0  0  0  0  0  0  0  0  0  0  0
    9.3006  -16.0406   25.7139 N   0  0  0  0  0  0  0  0  0  0  0  0
   10.3012  -15.4839   26.6235 C   0  0  1  0  0  0  0  0  0  0  0  0
   10.2575  -13.9897   26.4057 C   0  0  0  0  0  0  0  0  0  0  0  0
    8.9356  -13.3856   26.5726 C   0  0  0  0  0  0  0  0  0  0  0  0
    8.0436  -13.3582   25.5349 C   0  0  0  0  0  0  0  0  0  0  0  0
    6.7947  -12.7904   25.7135 C   0  0  0  0  0  0  0  0  0  0  0  0
    6.4363  -12.2555   26.9109 C   0  0  0  0  0  0  0  0  0  0  0  0
    7.3279  -12.2843   27.9440 C   0  0  0  0  0  0  0  0  0  0  0  0
    8.5774  -12.8467   27.7832 C   0  0  0  0  0  0  0  0  0  0  0  0
    9.9470  -15.7882   28.0279 C   0  0  0  0  0  0  0  0  0  0  0  0
   10.7780  -15.4738   29.0895 O   0  0  0  0  0  0  0  0  0  0  0  0
    8.8467  -16.3624   28.3328 O   0  0  0  0  0  0  0  0  0  0  0  0
  2  1  1  6
  3  4  1  0
  3  2  1  0
  4  5  2  0
  5  6  1  0
  7  6  1  0
  8  4  1  0
  8  7  2  0
  9  2  1  0
  9 10  2  0
 11  9  1  0
 12 11  1  0
 12 13  1  6
 13 14  1  0
 14 18  1  0
 14 15  2  0
 15 16  1  0
 17 16  1  0
 18 17  2  0
 19 12  1  0
 20 19  2  0
 21 19  1  0
 22 23  1  1
 22 21  1  0
 24 29  1  0
 24 23  1  0
 25 24  2  0
 26 27  2  0
 26 25  1  0
 27 28  1  0
 28 29  2  0
 30 22  1  0
 31 30  1  0
 32 30  2  0
M  END
$$$$
