APF.pdb
     RDKit          3D

 24 25  0  0  1  0  0  0  0  0999 V2000
    6.5355  -18.4686   20.9677 C   0  0  0  0  0  0  0  0  0  0  0  0
    7.2243  -17.6458   19.8704 C   0  0  2  0  0  0  0  0  0  0  0  0
    7.7715  -18.5790   18.9411 N   0  0  0  0  0  0  0  0  0  0  0  0
    8.1795  -16.7179   20.4865 C   0  0  0  0  0  0  0  0  0  0  0  0
    9.3828  -17.1434   20.5702 O   0  0  0  0  0  0  0  0  0  0  0  0
    7.8802  -15.4212   20.9836 N   0  0  0  0  0  0  0  0  0  0  0  0
    6.5694  -14.8799   21.1326 C   0  0  0  0  0  0  0  0  0  0  0  0
    6.7675  -13.4242   21.4504 C   0  0  0  0  0  0  0  0  0  0  0  0
    8.2343  -13.1422   21.1277 C   0  0  0  0  0  0  0  0  0  0  0  0
    8.8635  -14.4697   21.4069 C   0  0  1  0  0  0  0  0  0  0  0  0
    9.2227  -14.6394   22.8397 C   0  0  0  0  0  0  0  0  0  0  0  0
   10.1545  -13.9645   23.2973 O   0  0  0  0  0  0  0  0  0  0  0  0
    8.5160  -15.5448   23.6417 N   0  0  0  0  0  0  0  0  0  0  0  0
    8.7190  -15.6691   25.0718 C   0  0  1  0  0  0  0  0  0  0  0  0
    7.3745  -15.4041   25.7057 C   0  0  0  0  0  0  0  0  0  0  0  0
    7.1394  -13.9906   26.0548 C   0  0  0  0  0  0  0  0  0  0  0  0
    8.1507  -13.2386   26.6004 C   0  0  0  0  0  0  0  0  0  0  0  0
    7.9745  -11.9027   26.9421 C   0  0  0  0  0  0  0  0  0  0  0  0
    6.7622  -11.2784   26.7426 C   0  0  0  0  0  0  0  0  0  0  0  0
    5.7399  -12.0249   26.1953 C   0  0  0  0  0  0  0  0  0  0  0  0
    5.9237  -13.3668   25.8541 C   0  0  0  0  0  0  0  0  0  0  0  0
    9.2440  -17.0267   25.3431 C   0  0  0  0  0  0  0  0  0  0  0  0
    9.4045  -17.9646   24.3018 O   0  0  0  0  0  0  0  0  0  0  0  0
    9.5473  -17.3357   26.5238 O   0  0  0  0  0  0  0  0  0  0  0  0
  2  1  1  1
  2  4  1  0
  2  3  1  0
  4  5  2  0
  6 10  1  0
  6  4  1  0
  7  6  1  0
  8  7  1  0
  8  9  1  0
  9 10  1  0
 10 11  1  1
 11 12  2  0
 11 13  1  0
 13 14  1  0
 14 22  1  0
 14 15  1  1
 16 15  1  0
 16 21  1  0
 17 16  2  0
 18 17  1  0
 18 19  2  0
 19 20  1  0
 20 21  2  0
 22 24  2  0
 22 23  1  0
M  END
$$$$
