APF.pdb
     RDKit          3D

 24 25  0  0  1  0  0  0  0  0999 V2000
    5.4152  -17.8700   22.1114 C   0  0  0  0  0  0  0  0  0  0  0  0
    5.8964  -17.4248   20.7236 C   0  0  2  0  0  0  0  0  0  0  0  0
    5.8097  -18.5669   19.8740 N   0  0  0  0  0  0  0  0  0  0  0  0
    7.2247  -16.8129   20.8433 C   0  0  0  0  0  0  0  0  0  0  0  0
    8.2128  -17.6098   20.6869 O   0  0  0  0  0  0  0  0  0  0  0  0
    7.4909  -15.4436   21.1123 N   0  0  0  0  0  0  0  0  0  0  0  0
    6.5167  -14.4773   21.5005 C   0  0  0  0  0  0  0  0  0  0  0  0
    7.2154  -13.1484   21.4287 C   0  0  0  0  0  0  0  0  0  0  0  0
    8.5063  -13.4185   20.6568 C   0  0  0  0  0  0  0  0  0  0  0  0
    8.7867  -14.8394   21.0289 C   0  0  1  0  0  0  0  0  0  0  0  0
    9.5391  -14.9555   22.3062 C   0  0  0  0  0  0  0  0  0  0  0  0
   10.7052  -14.5410   22.3427 O   0  0  0  0  0  0  0  0  0  0  0  0
    8.9313  -15.5226   23.4337 N   0  0  0  0  0  0  0  0  0  0  0  0
    9.5922  -15.6445   24.7183 C   0  0  1  0  0  0  0  0  0  0  0  0
    9.6839  -14.2428   25.2718 C   0  0  0  0  0  0  0  0  0  0  0  0
    8.3917  -13.6783   25.7040 C   0  0  0  0  0  0  0  0  0  0  0  0
    7.2163  -14.2753   25.3193 C   0  0  0  0  0  0  0  0  0  0  0  0
    5.9764  -13.7791   25.7053 C   0  0  0  0  0  0  0  0  0  0  0  0
    5.8826  -12.6558   26.4979 C   0  0  0  0  0  0  0  0  0  0  0  0
    7.0573  -12.0486   26.8897 C   0  0  0  0  0  0  0  0  0  0  0  0
    8.2999  -12.5523   26.4983 C   0  0  0  0  0  0  0  0  0  0  0  0
    8.7907  -16.5619   25.5599 C   0  0  0  0  0  0  0  0  0  0  0  0
    7.6326  -17.1874   25.0527 O   0  0  0  0  0  0  0  0  0  0  0  0
    9.1585  -16.7779   26.7430 O   0  0  0  0  0  0  0  0  0  0  0  0
  2  1  1  1
  2  4  1  0
  2  3  1  0
  4  5  2  0
  6 10  1  0
  6  4  1  0
  7  6  1  0
  8  7  1  0
  8  9  1  0
  9 10  1  0
 10 11  1  1
 11 12  2  0
 11 13  1  0
 13 14  1  0
 14 22  1  0
 14 15  1  1
 16 15  1  0
 16 21  1  0
 17 16  2  0
 18 17  1  0
 18 19  2  0
 19 20  1  0
 20 21  2  0
 22 24  2  0
 22 23  1  0
M  END
$$$$
