APF.pdb
     RDKit          3D

 24 25  0  0  1  0  0  0  0  0999 V2000
   10.0778  -13.8426   18.9029 C   0  0  0  0  0  0  0  0  0  0  0  0
    8.5459  -13.7822   18.8312 C   0  0  2  0  0  0  0  0  0  0  0  0
    8.2064  -12.4562   18.4310 N   0  0  0  0  0  0  0  0  0  0  0  0
    7.9819  -14.2314   20.1092 C   0  0  0  0  0  0  0  0  0  0  0  0
    7.7100  -13.3033   20.9462 O   0  0  0  0  0  0  0  0  0  0  0  0
    7.7222  -15.5784   20.4786 N   0  0  0  0  0  0  0  0  0  0  0  0
    7.9703  -16.7184   19.6587 C   0  0  0  0  0  0  0  0  0  0  0  0
    7.3179  -17.8735   20.3654 C   0  0  0  0  0  0  0  0  0  0  0  0
    6.4204  -17.2363   21.4254 C   0  0  0  0  0  0  0  0  0  0  0  0
    7.1697  -15.9803   21.7373 C   0  0  1  0  0  0  0  0  0  0  0  0
    8.2218  -16.1862   22.7677 C   0  0  0  0  0  0  0  0  0  0  0  0
    9.2588  -16.7784   22.4406 O   0  0  0  0  0  0  0  0  0  0  0  0
    8.0315  -15.7166   24.0737 N   0  0  0  0  0  0  0  0  0  0  0  0
    9.0803  -15.6986   25.0745 C   0  0  1  0  0  0  0  0  0  0  0  0
    9.3920  -14.2421   25.3219 C   0  0  0  0  0  0  0  0  0  0  0  0
    8.2527  -13.4594   25.8362 C   0  0  0  0  0  0  0  0  0  0  0  0
    7.3421  -12.9145   24.9646 C   0  0  0  0  0  0  0  0  0  0  0  0
    6.2524  -12.1722   25.4051 C   0  0  0  0  0  0  0  0  0  0  0  0
    6.0455  -11.9545   26.7501 C   0  0  0  0  0  0  0  0  0  0  0  0
    6.9544  -12.4975   27.6339 C   0  0  0  0  0  0  0  0  0  0  0  0
    8.0472  -13.2424   27.1846 C   0  0  0  0  0  0  0  0  0  0  0  0
    8.5806  -16.4089   26.2737 C   0  0  0  0  0  0  0  0  0  0  0  0
    9.4565  -16.7809   27.3149 O   0  0  0  0  0  0  0  0  0  0  0  0
    7.3548  -16.6789   26.3527 O   0  0  0  0  0  0  0  0  0  0  0  0
  2  1  1  1
  2  4  1  0
  2  3  1  0
  4  5  2  0
  6 10  1  0
  6  4  1  0
  7  6  1  0
  8  7  1  0
  8  9  1  0
  9 10  1  0
 10 11  1  1
 11 12  2  0
 11 13  1  0
 13 14  1  0
 14 22  1  0
 14 15  1  1
 16 15  1  0
 16 21  1  0
 17 16  2  0
 18 17  1  0
 18 19  2  0
 19 20  1  0
 20 21  2  0
 22 24  2  0
 22 23  1  0
M  END
$$$$
