APF.pdb
     RDKit          3D

 24 25  0  0  1  0  0  0  0  0999 V2000
    6.3203  -18.9528   22.0703 C   0  0  0  0  0  0  0  0  0  0  0  0
    6.8931  -18.2880   20.8110 C   0  0  2  0  0  0  0  0  0  0  0  0
    7.2488  -19.3411   19.9176 N   0  0  0  0  0  0  0  0  0  0  0  0
    7.9776  -17.3766   21.1935 C   0  0  0  0  0  0  0  0  0  0  0  0
    9.1425  -17.9017   21.2497 O   0  0  0  0  0  0  0  0  0  0  0  0
    7.8382  -15.9960   21.4980 N   0  0  0  0  0  0  0  0  0  0  0  0
    6.5984  -15.3035   21.6271 C   0  0  0  0  0  0  0  0  0  0  0  0
    6.9566  -13.8457   21.7051 C   0  0  0  0  0  0  0  0  0  0  0  0
    8.4193  -13.7712   21.2691 C   0  0  0  0  0  0  0  0  0  0  0  0
    8.9345  -15.1011   21.7187 C   0  0  1  0  0  0  0  0  0  0  0  0
    9.3692  -15.0922   23.1406 C   0  0  0  0  0  0  0  0  0  0  0  0
   10.3392  -14.3900   23.4555 O   0  0  0  0  0  0  0  0  0  0  0  0
    8.6892  -15.8646   24.0909 N   0  0  0  0  0  0  0  0  0  0  0  0
    8.9743  -15.8125   25.5115 C   0  0  1  0  0  0  0  0  0  0  0  0
    7.6551  -15.5279   26.1886 C   0  0  0  0  0  0  0  0  0  0  0  0
    7.3608  -14.0928   26.3589 C   0  0  0  0  0  0  0  0  0  0  0  0
    6.0759  -13.6311   26.2116 C   0  0  0  0  0  0  0  0  0  0  0  0
    5.7526  -12.2879   26.3655 C   0  0  0  0  0  0  0  0  0  0  0  0
    6.7237  -11.3605   26.6753 C   0  0  0  0  0  0  0  0  0  0  0  0
    8.0175  -11.8138   26.8253 C   0  0  0  0  0  0  0  0  0  0  0  0
    8.3355  -13.1649   26.6693 C   0  0  0  0  0  0  0  0  0  0  0  0
    9.5745  -17.1074   25.9054 C   0  0  0  0  0  0  0  0  0  0  0  0
   10.3836  -17.2126   27.0561 O   0  0  0  0  0  0  0  0  0  0  0  0
    9.3523  -18.1210   25.1947 O   0  0  0  0  0  0  0  0  0  0  0  0
  2  1  1  1
  2  4  1  0
  2  3  1  0
  4  5  2  0
  6 10  1  0
  6  4  1  0
  7  6  1  0
  8  7  1  0
  8  9  1  0
  9 10  1  0
 10 11  1  1
 11 12  2  0
 11 13  1  0
 13 14  1  0
 14 22  1  0
 14 15  1  1
 16 15  1  0
 16 21  1  0
 17 16  2  0
 18 17  1  0
 18 19  2  0
 19 20  1  0
 20 21  2  0
 22 24  2  0
 22 23  1  0
M  END
$$$$
