APF.pdb
     RDKit          3D

 24 25  0  0  1  0  0  0  0  0999 V2000
    5.1065  -18.0220   22.9141 C   0  0  0  0  0  0  0  0  0  0  0  0
    5.6689  -17.9261   21.4893 C   0  0  2  0  0  0  0  0  0  0  0  0
    5.5703  -19.2304   20.9213 N   0  0  0  0  0  0  0  0  0  0  0  0
    7.0161  -17.3467   21.5370 C   0  0  0  0  0  0  0  0  0  0  0  0
    7.9767  -18.1908   21.5625 O   0  0  0  0  0  0  0  0  0  0  0  0
    7.3276  -15.9607   21.5570 N   0  0  0  0  0  0  0  0  0  0  0  0
    6.3905  -14.9104   21.7852 C   0  0  0  0  0  0  0  0  0  0  0  0
    7.1257  -13.6379   21.4699 C   0  0  0  0  0  0  0  0  0  0  0  0
    8.3913  -14.0804   20.7368 C   0  0  0  0  0  0  0  0  0  0  0  0
    8.6384  -15.4226   21.3480 C   0  0  1  0  0  0  0  0  0  0  0  0
    9.4144  -15.3377   22.6135 C   0  0  0  0  0  0  0  0  0  0  0  0
   10.5517  -14.8498   22.5754 O   0  0  0  0  0  0  0  0  0  0  0  0
    8.8603  -15.8025   23.8132 N   0  0  0  0  0  0  0  0  0  0  0  0
    9.5490  -15.7361   25.0872 C   0  0  1  0  0  0  0  0  0  0  0  0
    9.6260  -14.2702   25.4407 C   0  0  0  0  0  0  0  0  0  0  0  0
    8.3402  -13.6814   25.8594 C   0  0  0  0  0  0  0  0  0  0  0  0
    7.5849  -12.9676   24.9618 C   0  0  0  0  0  0  0  0  0  0  0  0
    6.3664  -12.3976   25.3122 C   0  0  0  0  0  0  0  0  0  0  0  0
    5.8675  -12.5311   26.5898 C   0  0  0  0  0  0  0  0  0  0  0  0
    6.6184  -13.2462   27.4990 C   0  0  0  0  0  0  0  0  0  0  0  0
    7.8421  -13.8163   27.1404 C   0  0  0  0  0  0  0  0  0  0  0  0
    8.7816  -16.5411   26.0646 C   0  0  0  0  0  0  0  0  0  0  0  0
    7.5555  -17.1405   25.7082 O   0  0  0  0  0  0  0  0  0  0  0  0
    9.2406  -16.6845   27.2267 O   0  0  0  0  0  0  0  0  0  0  0  0
  2  1  1  1
  2  4  1  0
  2  3  1  0
  4  5  2  0
  6 10  1  0
  6  4  1  0
  7  6  1  0
  8  7  1  0
  8  9  1  0
  9 10  1  0
 10 11  1  1
 11 12  2  0
 11 13  1  0
 13 14  1  0
 14 22  1  0
 14 15  1  1
 16 15  1  0
 16 21  1  0
 17 16  2  0
 18 17  1  0
 18 19  2  0
 19 20  1  0
 20 21  2  0
 22 24  2  0
 22 23  1  0
M  END
$$$$
