APF.pdb
     RDKit          3D

 24 25  0  0  1  0  0  0  0  0999 V2000
    5.6627  -18.1273   22.0499 C   0  0  0  0  0  0  0  0  0  0  0  0
    6.2307  -17.6057   20.7229 C   0  0  2  0  0  0  0  0  0  0  0  0
    6.3231  -18.7277   19.8476 N   0  0  0  0  0  0  0  0  0  0  0  0
    7.4839  -16.8870   20.9801 C   0  0  0  0  0  0  0  0  0  0  0  0
    8.5485  -17.5905   20.8930 O   0  0  0  0  0  0  0  0  0  0  0  0
    7.6032  -15.5102   21.3093 N   0  0  0  0  0  0  0  0  0  0  0  0
    6.5157  -14.6419   21.6207 C   0  0  0  0  0  0  0  0  0  0  0  0
    7.1012  -13.2578   21.6541 C   0  0  0  0  0  0  0  0  0  0  0  0
    8.4808  -13.3934   21.0112 C   0  0  0  0  0  0  0  0  0  0  0  0
    8.8441  -14.7979   21.3738 C   0  0  1  0  0  0  0  0  0  0  0  0
    9.4730  -14.8944   22.7177 C   0  0  0  0  0  0  0  0  0  0  0  0
   10.5980  -14.4027   22.8782 O   0  0  0  0  0  0  0  0  0  0  0  0
    8.7982  -15.5292   23.7683 N   0  0  0  0  0  0  0  0  0  0  0  0
    9.2874  -15.5486   25.1329 C   0  0  1  0  0  0  0  0  0  0  0  0
    8.0635  -15.4637   26.0130 C   0  0  0  0  0  0  0  0  0  0  0  0
    7.4538  -14.1220   26.0719 C   0  0  0  0  0  0  0  0  0  0  0  0
    8.1999  -13.0438   26.4800 C   0  0  0  0  0  0  0  0  0  0  0  0
    7.6671  -11.7616   26.5481 C   0  0  0  0  0  0  0  0  0  0  0  0
    6.3539  -11.5251   26.2039 C   0  0  0  0  0  0  0  0  0  0  0  0
    5.5958  -12.6013   25.7928 C   0  0  0  0  0  0  0  0  0  0  0  0
    6.1374  -13.8871   25.7265 C   0  0  0  0  0  0  0  0  0  0  0  0
   10.0671  -16.7931   25.3219 C   0  0  0  0  0  0  0  0  0  0  0  0
   10.1184  -17.7779   24.3133 O   0  0  0  0  0  0  0  0  0  0  0  0
   10.6880  -16.9625   26.4024 O   0  0  0  0  0  0  0  0  0  0  0  0
  2  1  1  1
  2  4  1  0
  2  3  1  0
  4  5  2  0
  6 10  1  0
  6  4  1  0
  7  6  1  0
  8  7  1  0
  8  9  1  0
  9 10  1  0
 10 11  1  1
 11 12  2  0
 11 13  1  0
 13 14  1  0
 14 22  1  0
 14 15  1  1
 16 15  1  0
 16 21  1  0
 17 16  2  0
 18 17  1  0
 18 19  2  0
 19 20  1  0
 20 21  2  0
 22 24  2  0
 22 23  1  0
M  END
$$$$
