APF.pdb
     RDKit          3D

 24 25  0  0  1  0  0  0  0  0999 V2000
   10.0455  -13.9006   18.7413 C   0  0  0  0  0  0  0  0  0  0  0  0
    8.5111  -13.8727   18.7595 C   0  0  2  0  0  0  0  0  0  0  0  0
    8.1204  -12.5610   18.3586 N   0  0  0  0  0  0  0  0  0  0  0  0
    8.0329  -14.3110   20.0756 C   0  0  0  0  0  0  0  0  0  0  0  0
    7.8121  -13.3755   20.9195 O   0  0  0  0  0  0  0  0  0  0  0  0
    7.8033  -15.6551   20.4743 N   0  0  0  0  0  0  0  0  0  0  0  0
    8.1029  -16.8080   19.6904 C   0  0  0  0  0  0  0  0  0  0  0  0
    7.4674  -17.9632   20.4122 C   0  0  0  0  0  0  0  0  0  0  0  0
    6.5275  -17.3255   21.4345 C   0  0  0  0  0  0  0  0  0  0  0  0
    7.2331  -16.0407   21.7303 C   0  0  1  0  0  0  0  0  0  0  0  0
    8.2663  -16.1894   22.7893 C   0  0  0  0  0  0  0  0  0  0  0  0
    9.3422  -16.7248   22.4914 O   0  0  0  0  0  0  0  0  0  0  0  0
    8.0154  -15.7306   24.0888 N   0  0  0  0  0  0  0  0  0  0  0  0
    9.0282  -15.6792   25.1249 C   0  0  1  0  0  0  0  0  0  0  0  0
    9.3046  -14.2139   25.3619 C   0  0  0  0  0  0  0  0  0  0  0  0
    8.1411  -13.4512   25.8518 C   0  0  0  0  0  0  0  0  0  0  0  0
    7.2168  -12.9591   24.9634 C   0  0  0  0  0  0  0  0  0  0  0  0
    6.1043  -12.2374   25.3807 C   0  0  0  0  0  0  0  0  0  0  0  0
    5.8878  -11.9876   26.7186 C   0  0  0  0  0  0  0  0  0  0  0  0
    6.8103  -12.4775   27.6190 C   0  0  0  0  0  0  0  0  0  0  0  0
    7.9260  -13.2019   27.1930 C   0  0  0  0  0  0  0  0  0  0  0  0
    8.5001  -16.3821   26.3162 C   0  0  0  0  0  0  0  0  0  0  0  0
    7.1655  -16.8367   26.3588 O   0  0  0  0  0  0  0  0  0  0  0  0
    9.2630  -16.5699   27.2983 O   0  0  0  0  0  0  0  0  0  0  0  0
  2  1  1  1
  2  4  1  0
  2  3  1  0
  4  5  2  0
  6 10  1  0
  6  4  1  0
  7  6  1  0
  8  7  1  0
  8  9  1  0
  9 10  1  0
 10 11  1  1
 11 12  2  0
 11 13  1  0
 13 14  1  0
 14 22  1  0
 14 15  1  1
 16 15  1  0
 16 21  1  0
 17 16  2  0
 18 17  1  0
 18 19  2  0
 19 20  1  0
 20 21  2  0
 22 24  2  0
 22 23  1  0
M  END
$$$$
