APF.pdb
     RDKit          3D

 24 25  0  0  1  0  0  0  0  0999 V2000
    5.9734  -18.1907   21.5040 C   0  0  0  0  0  0  0  0  0  0  0  0
    6.5481  -17.5039   20.2575 C   0  0  2  0  0  0  0  0  0  0  0  0
    6.7565  -18.5266   19.2856 N   0  0  0  0  0  0  0  0  0  0  0  0
    7.7334  -16.7256   20.6349 C   0  0  0  0  0  0  0  0  0  0  0  0
    8.8437  -17.3590   20.5901 O   0  0  0  0  0  0  0  0  0  0  0  0
    7.7433  -15.3626   21.0351 N   0  0  0  0  0  0  0  0  0  0  0  0
    6.5842  -14.5605   21.2513 C   0  0  0  0  0  0  0  0  0  0  0  0
    7.0908  -13.1547   21.4142 C   0  0  0  0  0  0  0  0  0  0  0  0
    8.5415  -13.1963   20.9358 C   0  0  0  0  0  0  0  0  0  0  0  0
    8.9304  -14.5990   21.2783 C   0  0  1  0  0  0  0  0  0  0  0  0
    9.4011  -14.7325   22.6824 C   0  0  0  0  0  0  0  0  0  0  0  0
   10.4970  -14.2424   22.9854 O   0  0  0  0  0  0  0  0  0  0  0  0
    8.6139  -15.3995   23.6298 N   0  0  0  0  0  0  0  0  0  0  0  0
    8.9871  -15.5321   25.0245 C   0  0  1  0  0  0  0  0  0  0  0  0
    7.7162  -15.3309   25.8144 C   0  0  0  0  0  0  0  0  0  0  0  0
    7.4077  -13.9200   26.1134 C   0  0  0  0  0  0  0  0  0  0  0  0
    6.1241  -13.4517   25.9756 C   0  0  0  0  0  0  0  0  0  0  0  0
    5.7877  -12.1307   26.2487 C   0  0  0  0  0  0  0  0  0  0  0  0
    6.7438  -11.2334   26.6727 C   0  0  0  0  0  0  0  0  0  0  0  0
    8.0361  -11.6937   26.8141 C   0  0  0  0  0  0  0  0  0  0  0  0
    8.3673  -13.0222   26.5381 C   0  0  0  0  0  0  0  0  0  0  0  0
    9.5942  -16.8696   25.2106 C   0  0  0  0  0  0  0  0  0  0  0  0
   10.5597  -17.0956   26.2138 O   0  0  0  0  0  0  0  0  0  0  0  0
    9.2353  -17.8096   24.4561 O   0  0  0  0  0  0  0  0  0  0  0  0
  2  1  1  1
  2  4  1  0
  2  3  1  0
  4  5  2  0
  6 10  1  0
  6  4  1  0
  7  6  1  0
  8  7  1  0
  8  9  1  0
  9 10  1  0
 10 11  1  1
 11 12  2  0
 11 13  1  0
 13 14  1  0
 14 22  1  0
 14 15  1  1
 16 15  1  0
 16 21  1  0
 17 16  2  0
 18 17  1  0
 18 19  2  0
 19 20  1  0
 20 21  2  0
 22 24  2  0
 22 23  1  0
M  END
$$$$
