APF.pdb
     RDKit          3D

 24 25  0  0  1  0  0  0  0  0999 V2000
    5.7018  -18.4980   23.4434 C   0  0  0  0  0  0  0  0  0  0  0  0
    5.9344  -18.3074   21.9383 C   0  0  2  0  0  0  0  0  0  0  0  0
    5.8557  -19.6016   21.3445 N   0  0  0  0  0  0  0  0  0  0  0  0
    7.1918  -17.5805   21.7295 C   0  0  0  0  0  0  0  0  0  0  0  0
    8.2121  -18.3091   21.4765 O   0  0  0  0  0  0  0  0  0  0  0  0
    7.3594  -16.1709   21.7855 N   0  0  0  0  0  0  0  0  0  0  0  0
    6.3549  -15.2383   22.1791 C   0  0  0  0  0  0  0  0  0  0  0  0
    6.9107  -13.8820   21.8461 C   0  0  0  0  0  0  0  0  0  0  0  0
    8.1141  -14.1551   20.9449 C   0  0  0  0  0  0  0  0  0  0  0  0
    8.5717  -15.4859   21.4505 C   0  0  1  0  0  0  0  0  0  0  0  0
    9.4860  -15.3680   22.6172 C   0  0  0  0  0  0  0  0  0  0  0  0
   10.5653  -14.7813   22.4627 O   0  0  0  0  0  0  0  0  0  0  0  0
    9.1228  -15.9124   23.8557 N   0  0  0  0  0  0  0  0  0  0  0  0
    9.8465  -15.6500   25.0843 C   0  0  1  0  0  0  0  0  0  0  0  0
    9.7270  -14.1645   25.3263 C   0  0  0  0  0  0  0  0  0  0  0  0
    8.4147  -13.7415   25.8500 C   0  0  0  0  0  0  0  0  0  0  0  0
    8.3050  -13.2735   27.1364 C   0  0  0  0  0  0  0  0  0  0  0  0
    7.0892  -12.8618   27.6702 C   0  0  0  0  0  0  0  0  0  0  0  0
    5.9364  -12.9100   26.9167 C   0  0  0  0  0  0  0  0  0  0  0  0
    6.0357  -13.3785   25.6235 C   0  0  0  0  0  0  0  0  0  0  0  0
    7.2605  -13.7905   25.0932 C   0  0  0  0  0  0  0  0  0  0  0  0
    9.2431  -16.4747   26.1557 C   0  0  0  0  0  0  0  0  0  0  0  0
    8.1171  -17.2852   25.9012 O   0  0  0  0  0  0  0  0  0  0  0  0
    9.7514  -16.4428   27.3056 O   0  0  0  0  0  0  0  0  0  0  0  0
  2  1  1  1
  2  4  1  0
  2  3  1  0
  4  5  2  0
  6 10  1  0
  6  4  1  0
  7  6  1  0
  8  7  1  0
  8  9  1  0
  9 10  1  0
 10 11  1  1
 11 12  2  0
 11 13  1  0
 13 14  1  0
 14 22  1  0
 14 15  1  1
 16 15  1  0
 16 21  1  0
 17 16  2  0
 18 17  1  0
 18 19  2  0
 19 20  1  0
 20 21  2  0
 22 24  2  0
 22 23  1  0
M  END
$$$$
