APF.pdb
     RDKit          3D

 24 25  0  0  1  0  0  0  0  0999 V2000
    6.3149  -18.7907   22.1314 C   0  0  0  0  0  0  0  0  0  0  0  0
    6.7724  -18.1180   20.8299 C   0  0  2  0  0  0  0  0  0  0  0  0
    7.0950  -19.1663   19.9184 N   0  0  0  0  0  0  0  0  0  0  0  0
    7.8524  -17.1701   21.1267 C   0  0  0  0  0  0  0  0  0  0  0  0
    9.0377  -17.6426   21.0389 O   0  0  0  0  0  0  0  0  0  0  0  0
    7.6886  -15.8076   21.4941 N   0  0  0  0  0  0  0  0  0  0  0  0
    6.4368  -15.1554   21.6972 C   0  0  0  0  0  0  0  0  0  0  0  0
    6.7596  -13.6928   21.8235 C   0  0  0  0  0  0  0  0  0  0  0  0
    8.2025  -13.5601   21.3383 C   0  0  0  0  0  0  0  0  0  0  0  0
    8.7686  -14.8926   21.7124 C   0  0  1  0  0  0  0  0  0  0  0  0
    9.2559  -14.9303   23.1167 C   0  0  0  0  0  0  0  0  0  0  0  0
   10.2608  -14.2689   23.4094 O   0  0  0  0  0  0  0  0  0  0  0  0
    8.5849  -15.7000   24.0756 N   0  0  0  0  0  0  0  0  0  0  0  0
    8.9951  -15.7777   25.4640 C   0  0  1  0  0  0  0  0  0  0  0  0
    7.7457  -15.5441   26.2789 C   0  0  0  0  0  0  0  0  0  0  0  0
    7.4246  -14.1214   26.4980 C   0  0  0  0  0  0  0  0  0  0  0  0
    6.1458  -13.6647   26.2932 C   0  0  0  0  0  0  0  0  0  0  0  0
    5.7978  -12.3332   26.4898 C   0  0  0  0  0  0  0  0  0  0  0  0
    6.7371  -11.4131   26.9025 C   0  0  0  0  0  0  0  0  0  0  0  0
    8.0244  -11.8616   27.1110 C   0  0  0  0  0  0  0  0  0  0  0  0
    8.3673  -13.2009   26.9116 C   0  0  0  0  0  0  0  0  0  0  0  0
    9.6070  -17.1075   25.6866 C   0  0  0  0  0  0  0  0  0  0  0  0
   10.4953  -17.3276   26.7599 O   0  0  0  0  0  0  0  0  0  0  0  0
    9.3224  -18.0462   24.8995 O   0  0  0  0  0  0  0  0  0  0  0  0
  2  1  1  1
  2  4  1  0
  2  3  1  0
  4  5  2  0
  6 10  1  0
  6  4  1  0
  7  6  1  0
  8  7  1  0
  8  9  1  0
  9 10  1  0
 10 11  1  1
 11 12  2  0
 11 13  1  0
 13 14  1  0
 14 22  1  0
 14 15  1  1
 16 15  1  0
 16 21  1  0
 17 16  2  0
 18 17  1  0
 18 19  2  0
 19 20  1  0
 20 21  2  0
 22 24  2  0
 22 23  1  0
M  END
$$$$
