APF.pdb
     RDKit          3D

 24 25  0  0  1  0  0  0  0  0999 V2000
    9.5167  -12.8653   19.8929 C   0  0  0  0  0  0  0  0  0  0  0  0
    8.1680  -13.4789   19.4926 C   0  0  2  0  0  0  0  0  0  0  0  0
    7.3432  -12.4027   19.0509 N   0  0  0  0  0  0  0  0  0  0  0  0
    7.6445  -14.2722   20.6106 C   0  0  0  0  0  0  0  0  0  0  0  0
    6.8457  -13.6547   21.3957 O   0  0  0  0  0  0  0  0  0  0  0  0
    7.9476  -15.6335   20.8811 N   0  0  0  0  0  0  0  0  0  0  0  0
    8.7490  -16.4771   20.0568 C   0  0  0  0  0  0  0  0  0  0  0  0
    8.5803  -17.8632   20.6133 C   0  0  0  0  0  0  0  0  0  0  0  0
    7.3852  -17.7692   21.5608 C   0  0  0  0  0  0  0  0  0  0  0  0
    7.4848  -16.3529   22.0299 C   0  0  1  0  0  0  0  0  0  0  0  0
    8.4025  -16.2006   23.1899 C   0  0  0  0  0  0  0  0  0  0  0  0
    9.6125  -16.0585   22.9690 O   0  0  0  0  0  0  0  0  0  0  0  0
    7.8972  -16.2194   24.4963 N   0  0  0  0  0  0  0  0  0  0  0  0
    8.7125  -15.9726   25.6694 C   0  0  1  0  0  0  0  0  0  0  0  0
    7.7764  -15.4154   26.7148 C   0  0  0  0  0  0  0  0  0  0  0  0
    7.3309  -14.0341   26.4521 C   0  0  0  0  0  0  0  0  0  0  0  0
    8.2305  -12.9980   26.5085 C   0  0  0  0  0  0  0  0  0  0  0  0
    7.8554  -11.6817   26.2657 C   0  0  0  0  0  0  0  0  0  0  0  0
    6.5500  -11.3667   25.9558 C   0  0  0  0  0  0  0  0  0  0  0  0
    5.6386  -12.4000   25.8967 C   0  0  0  0  0  0  0  0  0  0  0  0
    6.0222  -13.7206   26.1418 C   0  0  0  0  0  0  0  0  0  0  0  0
    9.3461  -17.2514   26.0636 C   0  0  0  0  0  0  0  0  0  0  0  0
    8.8940  -18.4788   25.5356 O   0  0  0  0  0  0  0  0  0  0  0  0
   10.3004  -17.2293   26.8825 O   0  0  0  0  0  0  0  0  0  0  0  0
  2  1  1  1
  2  4  1  0
  2  3  1  0
  4  5  2  0
  6 10  1  0
  6  4  1  0
  7  6  1  0
  8  7  1  0
  8  9  1  0
  9 10  1  0
 10 11  1  1
 11 12  2  0
 11 13  1  0
 13 14  1  0
 14 22  1  0
 14 15  1  1
 16 15  1  0
 16 21  1  0
 17 16  2  0
 18 17  1  0
 18 19  2  0
 19 20  1  0
 20 21  2  0
 22 24  2  0
 22 23  1  0
M  END
$$$$
