APF.pdb
     RDKit          3D

 24 25  0  0  1  0  0  0  0  0999 V2000
    5.2971  -18.3918   22.7963 C   0  0  0  0  0  0  0  0  0  0  0  0
    5.7923  -18.1424   21.3651 C   0  0  2  0  0  0  0  0  0  0  0  0
    5.7361  -19.3961   20.6878 N   0  0  0  0  0  0  0  0  0  0  0  0
    7.1090  -17.4966   21.4125 C   0  0  0  0  0  0  0  0  0  0  0  0
    8.1111  -18.2829   21.2971 O   0  0  0  0  0  0  0  0  0  0  0  0
    7.3504  -16.1058   21.5725 N   0  0  0  0  0  0  0  0  0  0  0  0
    6.3593  -15.1299   21.8871 C   0  0  0  0  0  0  0  0  0  0  0  0
    7.0333  -13.7982   21.7092 C   0  0  0  0  0  0  0  0  0  0  0  0
    8.3276  -14.1043   20.9567 C   0  0  0  0  0  0  0  0  0  0  0  0
    8.6348  -15.4864   21.4380 C   0  0  1  0  0  0  0  0  0  0  0  0
    9.3914  -15.4884   22.7180 C   0  0  0  0  0  0  0  0  0  0  0  0
   10.5584  -15.0747   22.7131 O   0  0  0  0  0  0  0  0  0  0  0  0
    8.7867  -15.9503   23.8941 N   0  0  0  0  0  0  0  0  0  0  0  0
    9.4090  -15.8559   25.2001 C   0  0  1  0  0  0  0  0  0  0  0  0
    9.4989  -14.3810   25.5105 C   0  0  0  0  0  0  0  0  0  0  0  0
    8.2080  -13.7565   25.8554 C   0  0  0  0  0  0  0  0  0  0  0  0
    8.1767  -12.6217   26.6281 C   0  0  0  0  0  0  0  0  0  0  0  0
    6.9835  -11.9985   26.9752 C   0  0  0  0  0  0  0  0  0  0  0  0
    5.7745  -12.5049   26.5500 C   0  0  0  0  0  0  0  0  0  0  0  0
    5.7949  -13.6444   25.7734 C   0  0  0  0  0  0  0  0  0  0  0  0
    6.9974  -14.2656   25.4283 C   0  0  0  0  0  0  0  0  0  0  0  0
    8.5744  -16.6130   26.1605 C   0  0  0  0  0  0  0  0  0  0  0  0
    7.3856  -17.2489   25.7456 O   0  0  0  0  0  0  0  0  0  0  0  0
    8.9418  -16.6823   27.3613 O   0  0  0  0  0  0  0  0  0  0  0  0
  2  1  1  1
  2  4  1  0
  2  3  1  0
  4  5  2  0
  6 10  1  0
  6  4  1  0
  7  6  1  0
  8  7  1  0
  8  9  1  0
  9 10  1  0
 10 11  1  1
 11 12  2  0
 11 13  1  0
 13 14  1  0
 14 22  1  0
 14 15  1  1
 16 15  1  0
 16 21  1  0
 17 16  2  0
 18 17  1  0
 18 19  2  0
 19 20  1  0
 20 21  2  0
 22 24  2  0
 22 23  1  0
M  END
$$$$
