MKV.pdb
     RDKit          3D

 25 24  0  0  1  0  0  0  0  0999 V2000
    7.0002  -11.2085   26.2545 C   0  0  0  0  0  0  0  0  0  0  0  0
    5.3745  -11.6032   25.5886 S   0  0  0  0  0  0  0  0  0  0  0  0
    4.9840  -13.3743   25.7438 C   0  0  0  0  0  0  0  0  0  0  0  0
    6.2721  -14.1357   25.5550 C   0  0  0  0  0  0  0  0  0  0  0  0
    6.0881  -15.4186   24.7840 C   0  0  2  0  0  0  0  0  0  0  0  0
    5.1223  -16.3081   25.3480 N   0  0  0  0  0  0  0  0  0  0  0  0
    7.4207  -16.0868   24.7405 C   0  0  0  0  0  0  0  0  0  0  0  0
    7.7857  -16.8593   25.6639 O   0  0  0  0  0  0  0  0  0  0  0  0
    8.3402  -15.8908   23.6673 N   0  0  0  0  0  0  0  0  0  0  0  0
    9.6085  -16.5541   23.5828 C   0  0  1  0  0  0  0  0  0  0  0  0
   10.3492  -16.2299   22.3010 C   0  0  0  0  0  0  0  0  0  0  0  0
   11.6404  -16.9669   22.2524 C   0  0  0  0  0  0  0  0  0  0  0  0
   11.6461  -18.1162   21.2849 C   0  0  0  0  0  0  0  0  0  0  0  0
   13.0005  -18.7799   21.2498 C   0  0  0  0  0  0  0  0  0  0  0  0
   12.9363  -19.8055   20.2070 N   0  0  0  0  0  0  0  0  0  0  0  0
   10.4079  -16.1863   24.7779 C   0  0  0  0  0  0  0  0  0  0  0  0
   11.3122  -15.3219   24.6189 O   0  0  0  0  0  0  0  0  0  0  0  0
    9.7525  -13.9410   27.2454 C   0  0  0  0  0  0  0  0  0  0  0  0
   10.0319  -15.2174   28.0066 C   0  0  2  0  0  0  0  0  0  0  0  0
   10.8580  -14.8490   29.2441 C   0  0  0  0  0  0  0  0  0  0  0  0
   10.8944  -16.1523   27.1900 C   0  0  2  0  0  0  0  0  0  0  0  0
   10.2340  -16.7272   26.0702 N   0  0  0  0  0  0  0  0  0  0  0  0
   11.4916  -17.2205   28.0208 C   0  0  0  0  0  0  0  0  0  0  0  0
   11.2083  -18.5499   27.7845 O   0  0  0  0  0  0  0  0  0  0  0  0
   12.2699  -16.9491   28.9603 O   0  0  0  0  0  0  0  0  0  0  0  0
  2  3  1  0
  2  1  1  0
  4  5  1  0
  4  3  1  0
  5  7  1  0
  5  6  1  1
  7  8  2  0
  9  7  1  0
  9 10  1  0
 10 11  1  6
 11 12  1  0
 13 12  1  0
 13 14  1  0
 15 14  1  0
 16 10  1  0
 16 17  2  0
 19 18  1  6
 19 21  1  0
 20 19  1  0
 21 22  1  6
 21 23  1  0
 22 16  1  0
 23 24  1  0
 25 23  2  0
M  END
$$$$
