MKV.pdb
     RDKit          3D

 25 24  0  0  1  0  0  0  0  0999 V2000
    8.3498  -11.8155   20.1985 C   0  0  0  0  0  0  0  0  0  0  0  0
    8.6756  -13.0256   18.9056 S   0  0  0  0  0  0  0  0  0  0  0  0
    7.2807  -14.1720   18.6753 C   0  0  0  0  0  0  0  0  0  0  0  0
    6.8464  -14.6307   20.0448 C   0  0  0  0  0  0  0  0  0  0  0  0
    7.1259  -16.0921   20.2905 C   0  0  2  0  0  0  0  0  0  0  0  0
    6.3298  -16.9813   19.5047 N   0  0  0  0  0  0  0  0  0  0  0  0
    6.8724  -16.3388   21.7393 C   0  0  0  0  0  0  0  0  0  0  0  0
    5.7973  -15.9697   22.2783 O   0  0  0  0  0  0  0  0  0  0  0  0
    7.8188  -16.9964   22.5805 N   0  0  0  0  0  0  0  0  0  0  0  0
    7.5933  -17.2533   23.9729 C   0  0  1  0  0  0  0  0  0  0  0  0
    8.0443  -18.6393   24.3882 C   0  0  0  0  0  0  0  0  0  0  0  0
    7.3690  -19.0433   25.6506 C   0  0  0  0  0  0  0  0  0  0  0  0
    7.8606  -20.3480   26.2100 C   0  0  0  0  0  0  0  0  0  0  0  0
    7.1410  -20.6859   27.4923 C   0  0  0  0  0  0  0  0  0  0  0  0
    8.0021  -20.2334   28.5865 N   0  0  0  0  0  0  0  0  0  0  0  0
    8.2837  -16.2010   24.7593 C   0  0  0  0  0  0  0  0  0  0  0  0
    9.4319  -15.8544   24.3695 O   0  0  0  0  0  0  0  0  0  0  0  0
    8.4188  -12.1238   27.3142 C   0  0  0  0  0  0  0  0  0  0  0  0
    7.6644  -13.1872   26.5483 C   0  0  2  0  0  0  0  0  0  0  0  0
    6.3774  -13.4926   27.3230 C   0  0  0  0  0  0  0  0  0  0  0  0
    8.4474  -14.4796   26.5103 C   0  0  2  0  0  0  0  0  0  0  0  0
    7.7564  -15.5631   25.9030 N   0  0  0  0  0  0  0  0  0  0  0  0
    8.9209  -14.8786   27.8536 C   0  0  0  0  0  0  0  0  0  0  0  0
    9.8827  -14.1454   28.5174 O   0  0  0  0  0  0  0  0  0  0  0  0
    8.4629  -15.8912   28.4255 O   0  0  0  0  0  0  0  0  0  0  0  0
  2  3  1  0
  2  1  1  0
  4  5  1  0
  4  3  1  0
  5  7  1  0
  5  6  1  6
  7  8  2  0
  9  7  1  0
  9 10  1  0
 10 11  1  1
 11 12  1  0
 13 12  1  0
 13 14  1  0
 15 14  1  0
 16 10  1  0
 16 17  2  0
 19 18  1  1
 19 21  1  0
 20 19  1  0
 21 22  1  1
 21 23  1  0
 22 16  1  0
 23 24  1  0
 25 23  2  0
M  END
$$$$
