MKV.pdb
     RDKit          3D

 25 24  0  0  1  0  0  0  0  0999 V2000
    7.4806  -12.0561   19.9430 C   0  0  0  0  0  0  0  0  0  0  0  0
    7.9110  -13.0136   18.4801 S   0  0  0  0  0  0  0  0  0  0  0  0
    7.7006  -14.8018   18.7474 C   0  0  0  0  0  0  0  0  0  0  0  0
    7.2495  -14.9919   20.1739 C   0  0  0  0  0  0  0  0  0  0  0  0
    6.9426  -16.4306   20.5057 C   0  0  2  0  0  0  0  0  0  0  0  0
    5.8174  -16.9662   19.8063 N   0  0  0  0  0  0  0  0  0  0  0  0
    6.6937  -16.4874   21.9750 C   0  0  0  0  0  0  0  0  0  0  0  0
    5.6009  -16.0960   22.4600 O   0  0  0  0  0  0  0  0  0  0  0  0
    7.6645  -16.9805   22.8969 N   0  0  0  0  0  0  0  0  0  0  0  0
    7.4491  -17.0420   24.3131 C   0  0  1  0  0  0  0  0  0  0  0  0
    7.9549  -18.3345   24.9219 C   0  0  0  0  0  0  0  0  0  0  0  0
    7.7808  -18.3101   26.3990 C   0  0  0  0  0  0  0  0  0  0  0  0
    8.2410  -19.5654   27.0842 C   0  0  0  0  0  0  0  0  0  0  0  0
    8.0790  -19.4493   28.5797 C   0  0  0  0  0  0  0  0  0  0  0  0
    8.3630  -20.7740   29.1348 N   0  0  0  0  0  0  0  0  0  0  0  0
    8.0969  -15.8606   24.9353 C   0  0  0  0  0  0  0  0  0  0  0  0
    9.3127  -15.6641   24.6640 O   0  0  0  0  0  0  0  0  0  0  0  0
    6.1402  -12.6504   27.0369 C   0  0  0  0  0  0  0  0  0  0  0  0
    7.5167  -12.5615   26.4172 C   0  0  2  0  0  0  0  0  0  0  0  0
    7.3382  -12.1908   24.9405 C   0  0  0  0  0  0  0  0  0  0  0  0
    8.2006  -13.9094   26.4312 C   0  0  2  0  0  0  0  0  0  0  0  0
    7.4597  -14.9465   25.8021 N   0  0  0  0  0  0  0  0  0  0  0  0
    8.5770  -14.3238   27.8004 C   0  0  0  0  0  0  0  0  0  0  0  0
    9.4622  -13.5794   28.5524 O   0  0  0  0  0  0  0  0  0  0  0  0
    8.1038  -15.3599   28.3148 O   0  0  0  0  0  0  0  0  0  0  0  0
  2  3  1  0
  2  1  1  0
  4  5  1  0
  4  3  1  0
  5  7  1  0
  5  6  1  6
  7  8  2  0
  9  7  1  0
  9 10  1  0
 10 11  1  1
 11 12  1  0
 13 12  1  0
 13 14  1  0
 15 14  1  0
 16 10  1  0
 16 17  2  0
 19 18  1  6
 19 21  1  0
 20 19  1  0
 21 22  1  1
 21 23  1  0
 22 16  1  0
 23 24  1  0
 25 23  2  0
M  END
$$$$
