MKV.pdb
     RDKit          3D

 25 24  0  0  1  0  0  0  0  0999 V2000
    7.4602  -12.6601   15.7355 C   0  0  0  0  0  0  0  0  0  0  0  0
    7.0861  -12.8649   17.4848 S   0  0  0  0  0  0  0  0  0  0  0  0
    8.1219  -14.1455   18.2599 C   0  0  0  0  0  0  0  0  0  0  0  0
    7.7975  -14.1538   19.7327 C   0  0  0  0  0  0  0  0  0  0  0  0
    8.6373  -15.1334   20.5133 C   0  0  2  0  0  0  0  0  0  0  0  0
    8.8951  -16.3606   19.8281 N   0  0  0  0  0  0  0  0  0  0  0  0
    7.9033  -15.4112   21.7815 C   0  0  0  0  0  0  0  0  0  0  0  0
    7.1680  -14.5358   22.3065 O   0  0  0  0  0  0  0  0  0  0  0  0
    7.9924  -16.6640   22.4583 N   0  0  0  0  0  0  0  0  0  0  0  0
    7.4040  -16.9117   23.7421 C   0  0  1  0  0  0  0  0  0  0  0  0
    7.6242  -18.3339   24.2172 C   0  0  0  0  0  0  0  0  0  0  0  0
    7.1225  -18.4951   25.6083 C   0  0  0  0  0  0  0  0  0  0  0  0
    7.2398  -19.8967   26.1361 C   0  0  0  0  0  0  0  0  0  0  0  0
    6.5450  -20.0269   27.4690 C   0  0  0  0  0  0  0  0  0  0  0  0
    6.7743  -21.3982   27.9276 N   0  0  0  0  0  0  0  0  0  0  0  0
    7.9556  -15.9273   24.7059 C   0  0  0  0  0  0  0  0  0  0  0  0
    9.2091  -15.7916   24.7327 O   0  0  0  0  0  0  0  0  0  0  0  0
    6.2233  -12.3611   25.2777 C   0  0  0  0  0  0  0  0  0  0  0  0
    6.8180  -12.9024   26.5583 C   0  0  2  0  0  0  0  0  0  0  0  0
    7.6581  -11.7858   27.1886 C   0  0  0  0  0  0  0  0  0  0  0  0
    7.7758  -14.0354   26.2693 C   0  0  2  0  0  0  0  0  0  0  0  0
    7.1889  -15.1369   25.5893 N   0  0  0  0  0  0  0  0  0  0  0  0
    8.4569  -14.5092   27.4939 C   0  0  0  0  0  0  0  0  0  0  0  0
    9.4772  -13.7805   28.0696 O   0  0  0  0  0  0  0  0  0  0  0  0
    8.1273  -15.5830   28.0420 O   0  0  0  0  0  0  0  0  0  0  0  0
  2  3  1  0
  2  1  1  0
  4  5  1  0
  4  3  1  0
  5  7  1  0
  5  6  1  6
  7  8  2  0
  9  7  1  0
  9 10  1  0
 10 11  1  1
 11 12  1  0
 13 12  1  0
 13 14  1  0
 15 14  1  0
 16 10  1  0
 16 17  2  0
 19 18  1  6
 19 21  1  0
 20 19  1  0
 21 22  1  1
 21 23  1  0
 22 16  1  0
 23 24  1  0
 25 23  2  0
M  END
$$$$
