MKV.pdb
     RDKit          3D

 25 24  0  0  1  0  0  0  0  0999 V2000
    8.6570  -12.4901   20.5196 C   0  0  0  0  0  0  0  0  0  0  0  0
    7.7295  -13.0752   19.0915 S   0  0  0  0  0  0  0  0  0  0  0  0
    7.3107  -14.8416   19.2256 C   0  0  0  0  0  0  0  0  0  0  0  0
    6.9616  -15.1114   20.6677 C   0  0  0  0  0  0  0  0  0  0  0  0
    6.6640  -16.5649   20.9377 C   0  0  2  0  0  0  0  0  0  0  0  0
    5.4715  -17.0448   20.3134 N   0  0  0  0  0  0  0  0  0  0  0  0
    6.5495  -16.7109   22.4175 C   0  0  0  0  0  0  0  0  0  0  0  0
    5.5961  -16.1831   23.0461 O   0  0  0  0  0  0  0  0  0  0  0  0
    7.4986  -17.4449   23.1895 N   0  0  0  0  0  0  0  0  0  0  0  0
    7.4369  -17.5577   24.6175 C   0  0  1  0  0  0  0  0  0  0  0  0
    7.9803  -18.8804   25.1196 C   0  0  0  0  0  0  0  0  0  0  0  0
    7.9186  -18.9314   26.6050 C   0  0  0  0  0  0  0  0  0  0  0  0
    8.4073  -20.2270   27.1876 C   0  0  0  0  0  0  0  0  0  0  0  0
    8.1578  -20.2732   28.6749 C   0  0  0  0  0  0  0  0  0  0  0  0
    8.6094  -21.5881   29.1337 N   0  0  0  0  0  0  0  0  0  0  0  0
    8.1713  -16.4113   25.2082 C   0  0  0  0  0  0  0  0  0  0  0  0
    9.2634  -16.0893   24.6660 O   0  0  0  0  0  0  0  0  0  0  0  0
    6.8770  -12.7907   26.1132 C   0  0  0  0  0  0  0  0  0  0  0  0
    7.6732  -13.3799   27.2559 C   0  0  2  0  0  0  0  0  0  0  0  0
    8.6691  -12.3138   27.7265 C   0  0  0  0  0  0  0  0  0  0  0  0
    8.5044  -14.5509   26.7842 C   0  0  2  0  0  0  0  0  0  0  0  0
    7.7431  -15.6593   26.3236 N   0  0  0  0  0  0  0  0  0  0  0  0
    9.4647  -14.9983   27.8165 C   0  0  0  0  0  0  0  0  0  0  0  0
   10.6061  -14.2733   28.0904 O   0  0  0  0  0  0  0  0  0  0  0  0
    9.2694  -16.0457   28.4699 O   0  0  0  0  0  0  0  0  0  0  0  0
  2  3  1  0
  2  1  1  0
  4  5  1  0
  4  3  1  0
  5  7  1  0
  5  6  1  6
  7  8  2  0
  9  7  1  0
  9 10  1  0
 10 11  1  6
 11 12  1  0
 13 12  1  0
 13 14  1  0
 15 14  1  0
 16 10  1  0
 16 17  2  0
 19 18  1  6
 19 21  1  0
 20 19  1  0
 21 22  1  1
 21 23  1  0
 22 16  1  0
 23 24  1  0
 25 23  2  0
M  END
$$$$
