MKV.pdb
     RDKit          3D

 25 24  0  0  1  0  0  0  0  0999 V2000
    8.9967  -12.2136   20.6659 C   0  0  0  0  0  0  0  0  0  0  0  0
    7.9346  -12.6050   19.2655 S   0  0  0  0  0  0  0  0  0  0  0  0
    7.2199  -14.2740   19.3953 C   0  0  0  0  0  0  0  0  0  0  0  0
    8.3543  -15.2267   19.6782 C   0  0  0  0  0  0  0  0  0  0  0  0
    7.8880  -16.6415   19.9131 C   0  0  2  0  0  0  0  0  0  0  0  0
    6.9165  -17.1023   18.9718 N   0  0  0  0  0  0  0  0  0  0  0  0
    7.3120  -16.6798   21.2882 C   0  0  0  0  0  0  0  0  0  0  0  0
    6.1077  -16.3784   21.4921 O   0  0  0  0  0  0  0  0  0  0  0  0
    8.0815  -17.0542   22.4298 N   0  0  0  0  0  0  0  0  0  0  0  0
    7.5363  -17.1520   23.7523 C   0  0  1  0  0  0  0  0  0  0  0  0
    7.9024  -18.4538   24.4366 C   0  0  0  0  0  0  0  0  0  0  0  0
    7.3686  -18.4730   25.8249 C   0  0  0  0  0  0  0  0  0  0  0  0
    7.7806  -19.6821   26.6158 C   0  0  0  0  0  0  0  0  0  0  0  0
    7.0510  -19.7329   27.9353 C   0  0  0  0  0  0  0  0  0  0  0  0
    7.5695  -20.8977   28.6549 N   0  0  0  0  0  0  0  0  0  0  0  0
    7.9993  -15.9797   24.5357 C   0  0  0  0  0  0  0  0  0  0  0  0
    9.2312  -15.7129   24.4945 O   0  0  0  0  0  0  0  0  0  0  0  0
    5.8647  -12.5209   25.1023 C   0  0  0  0  0  0  0  0  0  0  0  0
    6.6552  -12.9538   26.3165 C   0  0  2  0  0  0  0  0  0  0  0  0
    7.4278  -11.7324   26.8275 C   0  0  0  0  0  0  0  0  0  0  0  0
    7.6975  -13.9820   25.9407 C   0  0  2  0  0  0  0  0  0  0  0  0
    7.1710  -15.1464   25.3183 N   0  0  0  0  0  0  0  0  0  0  0  0
    8.5347  -14.3685   27.0973 C   0  0  0  0  0  0  0  0  0  0  0  0
    9.5944  -13.5843   27.5040 O   0  0  0  0  0  0  0  0  0  0  0  0
    8.3057  -15.4163   27.7390 O   0  0  0  0  0  0  0  0  0  0  0  0
  2  3  1  0
  2  1  1  0
  4  5  1  0
  4  3  1  0
  5  7  1  0
  5  6  1  6
  7  8  2  0
  9  7  1  0
  9 10  1  0
 10 11  1  1
 11 12  1  0
 13 12  1  0
 13 14  1  0
 15 14  1  0
 16 10  1  0
 16 17  2  0
 19 18  1  6
 19 21  1  0
 20 19  1  0
 21 22  1  1
 21 23  1  0
 22 16  1  0
 23 24  1  0
 25 23  2  0
M  END
$$$$
