MKV.pdb
     RDKit          3D

 25 24  0  0  1  0  0  0  0  0999 V2000
    8.0924  -11.7346   20.3312 C   0  0  0  0  0  0  0  0  0  0  0  0
    7.9619  -12.3945   18.6610 S   0  0  0  0  0  0  0  0  0  0  0  0
    7.8348  -14.2103   18.6516 C   0  0  0  0  0  0  0  0  0  0  0  0
    7.9172  -14.6730   20.0846 C   0  0  0  0  0  0  0  0  0  0  0  0
    7.9000  -16.1750   20.2186 C   0  0  2  0  0  0  0  0  0  0  0  0
    6.7577  -16.8026   19.6326 N   0  0  0  0  0  0  0  0  0  0  0  0
    7.9439  -16.4752   21.6787 C   0  0  0  0  0  0  0  0  0  0  0  0
    6.8988  -16.4337   22.3777 O   0  0  0  0  0  0  0  0  0  0  0  0
    9.1530  -16.8205   22.3528 N   0  0  0  0  0  0  0  0  0  0  0  0
    9.2108  -17.1683   23.7425 C   0  0  1  0  0  0  0  0  0  0  0  0
   10.3921  -18.0598   24.0694 C   0  0  0  0  0  0  0  0  0  0  0  0
    9.9448  -19.4698   24.2256 C   0  0  0  0  0  0  0  0  0  0  0  0
   10.7214  -20.4479   23.3907 C   0  0  0  0  0  0  0  0  0  0  0  0
   10.1549  -21.8392   23.5300 C   0  0  0  0  0  0  0  0  0  0  0  0
   10.9098  -22.6919   22.6100 N   0  0  0  0  0  0  0  0  0  0  0  0
    9.2425  -15.9147   24.5363 C   0  0  0  0  0  0  0  0  0  0  0  0
   10.0811  -15.0385   24.1909 O   0  0  0  0  0  0  0  0  0  0  0  0
    6.6668  -13.2533   25.1870 C   0  0  0  0  0  0  0  0  0  0  0  0
    7.2458  -13.6490   26.5267 C   0  0  2  0  0  0  0  0  0  0  0  0
    7.6043  -12.3609   27.2765 C   0  0  0  0  0  0  0  0  0  0  0  0
    8.5422  -14.4056   26.3496 C   0  0  2  0  0  0  0  0  0  0  0  0
    8.4110  -15.6309   25.6412 N   0  0  0  0  0  0  0  0  0  0  0  0
    9.2232  -14.6450   27.6407 C   0  0  0  0  0  0  0  0  0  0  0  0
    9.8057  -13.6097   28.3422 O   0  0  0  0  0  0  0  0  0  0  0  0
    9.2901  -15.7920   28.1328 O   0  0  0  0  0  0  0  0  0  0  0  0
  2  3  1  0
  2  1  1  0
  4  5  1  0
  4  3  1  0
  5  7  1  0
  5  6  1  1
  7  8  2  0
  9  7  1  0
  9 10  1  0
 10 11  1  6
 11 12  1  0
 13 12  1  0
 13 14  1  0
 15 14  1  0
 16 10  1  0
 16 17  2  0
 19 18  1  6
 19 21  1  0
 20 19  1  0
 21 22  1  1
 21 23  1  0
 22 16  1  0
 23 24  1  0
 25 23  2  0
M  END
$$$$
