MKV.pdb
     RDKit          3D

 25 24  0  0  1  0  0  0  0  0999 V2000
    9.1813  -11.5585   19.8779 C   0  0  0  0  0  0  0  0  0  0  0  0
    8.1150  -12.1221   18.5409 S   0  0  0  0  0  0  0  0  0  0  0  0
    7.9975  -13.9375   18.4795 C   0  0  0  0  0  0  0  0  0  0  0  0
    7.8637  -14.4264   19.8999 C   0  0  0  0  0  0  0  0  0  0  0  0
    7.8571  -15.9308   20.0048 C   0  0  2  0  0  0  0  0  0  0  0  0
    6.7915  -16.5633   19.2930 N   0  0  0  0  0  0  0  0  0  0  0  0
    7.7552  -16.2583   21.4561 C   0  0  0  0  0  0  0  0  0  0  0  0
    6.6338  -16.3680   22.0158 O   0  0  0  0  0  0  0  0  0  0  0  0
    8.9042  -16.4624   22.2769 N   0  0  0  0  0  0  0  0  0  0  0  0
    8.8341  -16.9152   23.6355 C   0  0  1  0  0  0  0  0  0  0  0  0
    9.8914  -17.9522   23.9574 C   0  0  0  0  0  0  0  0  0  0  0  0
    9.5611  -19.2450   23.3000 C   0  0  0  0  0  0  0  0  0  0  0  0
   10.5580  -20.3354   23.5723 C   0  0  0  0  0  0  0  0  0  0  0  0
   10.1695  -21.6066   22.8587 C   0  0  0  0  0  0  0  0  0  0  0  0
   11.2321  -22.5775   23.1262 N   0  0  0  0  0  0  0  0  0  0  0  0
    8.9448  -15.7342   24.5272 C   0  0  0  0  0  0  0  0  0  0  0  0
    9.9373  -14.9758   24.3538 O   0  0  0  0  0  0  0  0  0  0  0  0
    6.3297  -12.9698   25.4582 C   0  0  0  0  0  0  0  0  0  0  0  0
    6.9984  -13.4868   26.7120 C   0  0  2  0  0  0  0  0  0  0  0  0
    7.4570  -12.2730   27.5282 C   0  0  0  0  0  0  0  0  0  0  0  0
    8.2513  -14.2613   26.3726 C   0  0  2  0  0  0  0  0  0  0  0  0
    8.0297  -15.3978   25.5482 N   0  0  0  0  0  0  0  0  0  0  0  0
    8.9991  -14.6610   27.5846 C   0  0  0  0  0  0  0  0  0  0  0  0
    9.0588  -15.9806   27.9826 O   0  0  0  0  0  0  0  0  0  0  0  0
    9.5984  -13.8148   28.2824 O   0  0  0  0  0  0  0  0  0  0  0  0
  2  3  1  0
  2  1  1  0
  4  5  1  0
  4  3  1  0
  5  7  1  0
  5  6  1  6
  7  8  2  0
  9  7  1  0
  9 10  1  0
 10 11  1  1
 11 12  1  0
 13 12  1  0
 13 14  1  0
 15 14  1  0
 16 10  1  0
 16 17  2  0
 19 18  1  6
 19 21  1  0
 20 19  1  0
 21 22  1  1
 21 23  1  0
 22 16  1  0
 23 24  1  0
 25 23  2  0
M  END
$$$$
