MKV.pdb
     RDKit          3D

 25 24  0  0  1  0  0  0  0  0999 V2000
    7.6310  -11.8507   19.6351 C   0  0  0  0  0  0  0  0  0  0  0  0
    8.4538  -12.8772   18.4057 S   0  0  0  0  0  0  0  0  0  0  0  0
    7.9270  -14.6167   18.5047 C   0  0  0  0  0  0  0  0  0  0  0  0
    7.9637  -15.0143   19.9590 C   0  0  0  0  0  0  0  0  0  0  0  0
    7.4373  -16.4067   20.2004 C   0  0  2  0  0  0  0  0  0  0  0  0
    6.2882  -16.7423   19.4200 N   0  0  0  0  0  0  0  0  0  0  0  0
    7.1012  -16.4918   21.6509 C   0  0  0  0  0  0  0  0  0  0  0  0
    5.9856  -16.0983   22.0790 O   0  0  0  0  0  0  0  0  0  0  0  0
    8.0106  -17.0156   22.6175 N   0  0  0  0  0  0  0  0  0  0  0  0
    7.6838  -17.1750   24.0044 C   0  0  1  0  0  0  0  0  0  0  0  0
    8.2056  -18.4770   24.5781 C   0  0  0  0  0  0  0  0  0  0  0  0
    7.8989  -18.5584   26.0314 C   0  0  0  0  0  0  0  0  0  0  0  0
    8.6864  -19.6108   26.7589 C   0  0  0  0  0  0  0  0  0  0  0  0
    8.3200  -19.6379   28.2221 C   0  0  0  0  0  0  0  0  0  0  0  0
    9.2139  -20.6069   28.8589 N   0  0  0  0  0  0  0  0  0  0  0  0
    8.2153  -16.0048   24.7465 C   0  0  0  0  0  0  0  0  0  0  0  0
    9.3865  -15.6313   24.4653 O   0  0  0  0  0  0  0  0  0  0  0  0
    7.8115  -11.7286   26.9809 C   0  0  0  0  0  0  0  0  0  0  0  0
    7.1508  -12.9171   26.3194 C   0  0  2  0  0  0  0  0  0  0  0  0
    5.9465  -13.3172   27.1794 C   0  0  0  0  0  0  0  0  0  0  0  0
    8.0766  -14.1119   26.3129 C   0  0  2  0  0  0  0  0  0  0  0  0
    7.5140  -15.2832   25.7366 N   0  0  0  0  0  0  0  0  0  0  0  0
    8.5929  -14.4183   27.6647 C   0  0  0  0  0  0  0  0  0  0  0  0
    9.5021  -13.5871   28.2859 O   0  0  0  0  0  0  0  0  0  0  0  0
    8.2202  -15.4388   28.2826 O   0  0  0  0  0  0  0  0  0  0  0  0
  2  3  1  0
  2  1  1  0
  4  5  1  0
  4  3  1  0
  5  7  1  0
  5  6  1  6
  7  8  2  0
  9  7  1  0
  9 10  1  0
 10 11  1  1
 11 12  1  0
 13 12  1  0
 13 14  1  0
 15 14  1  0
 16 10  1  0
 16 17  2  0
 19 18  1  1
 19 21  1  0
 20 19  1  0
 21 22  1  1
 21 23  1  0
 22 16  1  0
 23 24  1  0
 25 23  2  0
M  END
$$$$
