MKV.pdb
     RDKit          3D

 25 24  0  0  1  0  0  0  0  0999 V2000
    8.7278  -12.1082   19.8211 C   0  0  0  0  0  0  0  0  0  0  0  0
    7.8923  -12.9194   18.4479 S   0  0  0  0  0  0  0  0  0  0  0  0
    7.8847  -14.7309   18.6265 C   0  0  0  0  0  0  0  0  0  0  0  0
    7.3111  -15.0450   19.9854 C   0  0  0  0  0  0  0  0  0  0  0  0
    7.2537  -16.5248   20.2707 C   0  0  2  0  0  0  0  0  0  0  0  0
    6.3157  -17.2410   19.4649 N   0  0  0  0  0  0  0  0  0  0  0  0
    6.8923  -16.6696   21.7103 C   0  0  0  0  0  0  0  0  0  0  0  0
    5.7010  -16.5388   22.0929 O   0  0  0  0  0  0  0  0  0  0  0  0
    7.8609  -16.9598   22.7168 N   0  0  0  0  0  0  0  0  0  0  0  0
    7.5383  -17.0983   24.1069 C   0  0  1  0  0  0  0  0  0  0  0  0
    8.0769  -18.3834   24.7029 C   0  0  0  0  0  0  0  0  0  0  0  0
    7.7437  -18.4584   26.1507 C   0  0  0  0  0  0  0  0  0  0  0  0
    8.3160  -19.6628   26.8426 C   0  0  0  0  0  0  0  0  0  0  0  0
    7.8493  -19.7291   28.2758 C   0  0  0  0  0  0  0  0  0  0  0  0
    6.9161  -20.8541   28.3597 N   0  0  0  0  0  0  0  0  0  0  0  0
    8.0565  -15.9086   24.8269 C   0  0  0  0  0  0  0  0  0  0  0  0
    9.2330  -15.5429   24.5576 O   0  0  0  0  0  0  0  0  0  0  0  0
    6.2136  -12.4149   25.4393 C   0  0  0  0  0  0  0  0  0  0  0  0
    6.8975  -12.9132   26.6926 C   0  0  2  0  0  0  0  0  0  0  0  0
    7.7017  -11.7468   27.2779 C   0  0  0  0  0  0  0  0  0  0  0  0
    7.9033  -13.9923   26.3632 C   0  0  2  0  0  0  0  0  0  0  0  0
    7.3375  -15.1606   25.7842 N   0  0  0  0  0  0  0  0  0  0  0  0
    8.7213  -14.3627   27.5386 C   0  0  0  0  0  0  0  0  0  0  0  0
    9.8432  -13.6377   27.8834 O   0  0  0  0  0  0  0  0  0  0  0  0
    8.4193  -15.3429   28.2527 O   0  0  0  0  0  0  0  0  0  0  0  0
  2  3  1  0
  2  1  1  0
  4  5  1  0
  4  3  1  0
  5  7  1  0
  5  6  1  6
  7  8  2  0
  9  7  1  0
  9 10  1  0
 10 11  1  1
 11 12  1  0
 13 12  1  0
 13 14  1  0
 15 14  1  0
 16 10  1  0
 16 17  2  0
 19 18  1  6
 19 21  1  0
 20 19  1  0
 21 22  1  1
 21 23  1  0
 22 16  1  0
 23 24  1  0
 25 23  2  0
M  END
$$$$
