MKV.pdb
     RDKit          3D

 25 24  0  0  1  0  0  0  0  0999 V2000
    8.6415  -12.9462   20.2571 C   0  0  0  0  0  0  0  0  0  0  0  0
    7.9092  -13.6051   18.7499 S   0  0  0  0  0  0  0  0  0  0  0  0
    7.3079  -15.3090   18.9706 C   0  0  0  0  0  0  0  0  0  0  0  0
    6.9297  -15.4666   20.4221 C   0  0  0  0  0  0  0  0  0  0  0  0
    6.4249  -16.8491   20.7505 C   0  0  2  0  0  0  0  0  0  0  0  0
    5.1767  -17.1782   20.1374 N   0  0  0  0  0  0  0  0  0  0  0  0
    6.2878  -16.9137   22.2341 C   0  0  0  0  0  0  0  0  0  0  0  0
    5.3000  -16.3937   22.8141 O   0  0  0  0  0  0  0  0  0  0  0  0
    7.2528  -17.5580   23.0642 N   0  0  0  0  0  0  0  0  0  0  0  0
    7.1793  -17.5722   24.4960 C   0  0  1  0  0  0  0  0  0  0  0  0
    7.8741  -18.7755   25.1013 C   0  0  0  0  0  0  0  0  0  0  0  0
    7.8517  -18.6894   26.5862 C   0  0  0  0  0  0  0  0  0  0  0  0
    8.5043  -19.8567   27.2707 C   0  0  0  0  0  0  0  0  0  0  0  0
    8.3414  -19.7593   28.7674 C   0  0  0  0  0  0  0  0  0  0  0  0
    8.8834  -20.9983   29.3283 N   0  0  0  0  0  0  0  0  0  0  0  0
    7.7539  -16.3022   25.0054 C   0  0  0  0  0  0  0  0  0  0  0  0
    8.8134  -15.8921   24.4580 O   0  0  0  0  0  0  0  0  0  0  0  0
    6.0165  -12.7915   25.5857 C   0  0  0  0  0  0  0  0  0  0  0  0
    6.8308  -13.2051   26.7908 C   0  0  2  0  0  0  0  0  0  0  0  0
    7.6735  -11.9981   27.2185 C   0  0  0  0  0  0  0  0  0  0  0  0
    7.8134  -14.2946   26.4273 C   0  0  2  0  0  0  0  0  0  0  0  0
    7.2083  -15.5240   26.0492 N   0  0  0  0  0  0  0  0  0  0  0  0
    8.7982  -14.5327   27.5049 C   0  0  0  0  0  0  0  0  0  0  0  0
    8.9052  -15.7665   28.1130 O   0  0  0  0  0  0  0  0  0  0  0  0
    9.5614  -13.6231   27.8951 O   0  0  0  0  0  0  0  0  0  0  0  0
  2  3  1  0
  2  1  1  0
  4  5  1  0
  4  3  1  0
  5  7  1  0
  5  6  1  6
  7  8  2  0
  9  7  1  0
  9 10  1  0
 10 11  1  1
 11 12  1  0
 13 12  1  0
 13 14  1  0
 15 14  1  0
 16 10  1  0
 16 17  2  0
 19 18  1  6
 19 21  1  0
 20 19  1  0
 21 22  1  1
 21 23  1  0
 22 16  1  0
 23 24  1  0
 25 23  2  0
M  END
$$$$
