MKV.pdb
     RDKit          3D

 25 24  0  0  1  0  0  0  0  0999 V2000
    7.4076  -11.1649   25.9460 C   0  0  0  0  0  0  0  0  0  0  0  0
    6.0702  -12.0558   26.7582 S   0  0  0  0  0  0  0  0  0  0  0  0
    5.4557  -13.4379   25.7455 C   0  0  0  0  0  0  0  0  0  0  0  0
    6.5879  -14.4231   25.5971 C   0  0  0  0  0  0  0  0  0  0  0  0
    6.2661  -15.5484   24.6461 C   0  0  2  0  0  0  0  0  0  0  0  0
    5.2543  -16.4415   25.1160 N   0  0  0  0  0  0  0  0  0  0  0  0
    7.5357  -16.2994   24.4262 C   0  0  0  0  0  0  0  0  0  0  0  0
    7.7844  -17.3498   25.0722 O   0  0  0  0  0  0  0  0  0  0  0  0
    8.5221  -15.8757   23.4865 N   0  0  0  0  0  0  0  0  0  0  0  0
    9.8031  -16.5047   23.3485 C   0  0  1  0  0  0  0  0  0  0  0  0
   10.4594  -16.1999   22.0169 C   0  0  0  0  0  0  0  0  0  0  0  0
   11.4612  -17.2483   21.6851 C   0  0  0  0  0  0  0  0  0  0  0  0
   12.8636  -16.8972   22.0937 C   0  0  0  0  0  0  0  0  0  0  0  0
   13.8369  -17.1985   20.9810 C   0  0  0  0  0  0  0  0  0  0  0  0
   14.0117  -18.6519   20.9608 N   0  0  0  0  0  0  0  0  0  0  0  0
   10.6577  -16.0767   24.4839 C   0  0  0  0  0  0  0  0  0  0  0  0
   11.4260  -15.0966   24.2855 O   0  0  0  0  0  0  0  0  0  0  0  0
   10.7577  -13.9509   28.3711 C   0  0  0  0  0  0  0  0  0  0  0  0
   10.2340  -14.7102   27.1729 C   0  0  2  0  0  0  0  0  0  0  0  0
    8.8326  -15.2228   27.5240 C   0  0  0  0  0  0  0  0  0  0  0  0
   11.0744  -15.9378   26.9052 C   0  0  2  0  0  0  0  0  0  0  0  0
   10.6759  -16.6797   25.7602 N   0  0  0  0  0  0  0  0  0  0  0  0
   11.1383  -16.8311   28.0824 C   0  0  0  0  0  0  0  0  0  0  0  0
   11.8647  -16.4834   29.2026 O   0  0  0  0  0  0  0  0  0  0  0  0
   10.5361  -17.9262   28.0958 O   0  0  0  0  0  0  0  0  0  0  0  0
  2  3  1  0
  2  1  1  0
  4  5  1  0
  4  3  1  0
  5  7  1  0
  5  6  1  1
  7  8  2  0
  9  7  1  0
  9 10  1  0
 10 11  1  6
 11 12  1  0
 13 12  1  0
 13 14  1  0
 15 14  1  0
 16 10  1  0
 16 17  2  0
 19 18  1  1
 19 21  1  0
 20 19  1  0
 21 22  1  6
 21 23  1  0
 22 16  1  0
 23 24  1  0
 25 23  2  0
M  END
$$$$
