MKV.pdb
     RDKit          3D

 25 24  0  0  1  0  0  0  0  0999 V2000
    8.0150  -11.4515   20.1188 C   0  0  0  0  0  0  0  0  0  0  0  0
    8.1602  -12.9940   19.2014 S   0  0  0  0  0  0  0  0  0  0  0  0
    6.7123  -14.0708   19.4414 C   0  0  0  0  0  0  0  0  0  0  0  0
    6.6637  -14.4375   20.9035 C   0  0  0  0  0  0  0  0  0  0  0  0
    7.8404  -15.2743   21.3384 C   0  0  2  0  0  0  0  0  0  0  0  0
    8.0058  -16.4839   20.5957 N   0  0  0  0  0  0  0  0  0  0  0  0
    7.6285  -15.5950   22.7793 C   0  0  0  0  0  0  0  0  0  0  0  0
    7.0587  -14.7760   23.5457 O   0  0  0  0  0  0  0  0  0  0  0  0
    8.0527  -16.8276   23.3591 N   0  0  0  0  0  0  0  0  0  0  0  0
    7.8293  -17.1725   24.7328 C   0  0  1  0  0  0  0  0  0  0  0  0
    7.6921  -18.6673   24.9414 C   0  0  0  0  0  0  0  0  0  0  0  0
    6.4677  -19.1712   24.2633 C   0  0  0  0  0  0  0  0  0  0  0  0
    6.2978  -20.6615   24.3482 C   0  0  0  0  0  0  0  0  0  0  0  0
    5.0217  -21.0945   23.6698 C   0  0  0  0  0  0  0  0  0  0  0  0
    4.9919  -22.5570   23.7299 N   0  0  0  0  0  0  0  0  0  0  0  0
    8.9409  -16.6128   25.5411 C   0  0  0  0  0  0  0  0  0  0  0  0
   10.0984  -16.6745   25.0446 O   0  0  0  0  0  0  0  0  0  0  0  0
    8.6482  -13.9337   28.8952 C   0  0  0  0  0  0  0  0  0  0  0  0
    9.8480  -14.1283   27.9956 C   0  0  2  0  0  0  0  0  0  0  0  0
    9.6253  -13.2847   26.7352 C   0  0  0  0  0  0  0  0  0  0  0  0
    9.9426  -15.5627   27.5285 C   0  0  2  0  0  0  0  0  0  0  0  0
    8.8017  -16.0208   26.8151 N   0  0  0  0  0  0  0  0  0  0  0  0
   10.2401  -16.4884   28.6433 C   0  0  0  0  0  0  0  0  0  0  0  0
   11.4071  -16.3767   29.3706 O   0  0  0  0  0  0  0  0  0  0  0  0
    9.4426  -17.3979   28.9580 O   0  0  0  0  0  0  0  0  0  0  0  0
  2  3  1  0
  2  1  1  0
  4  5  1  0
  4  3  1  0
  5  7  1  0
  5  6  1  6
  7  8  2  0
  9  7  1  0
  9 10  1  0
 10 11  1  6
 11 12  1  0
 13 12  1  0
 13 14  1  0
 15 14  1  0
 16 10  1  0
 16 17  2  0
 19 18  1  1
 19 21  1  0
 20 19  1  0
 21 22  1  1
 21 23  1  0
 22 16  1  0
 23 24  1  0
 25 23  2  0
M  END
$$$$
