MKV.pdb
     RDKit          3D

 25 24  0  0  1  0  0  0  0  0999 V2000
    7.0339  -11.1017   25.8227 C   0  0  0  0  0  0  0  0  0  0  0  0
    5.5972  -11.9019   26.5559 S   0  0  0  0  0  0  0  0  0  0  0  0
    5.1753  -13.4574   25.7098 C   0  0  0  0  0  0  0  0  0  0  0  0
    6.4475  -14.2570   25.5809 C   0  0  0  0  0  0  0  0  0  0  0  0
    6.2627  -15.5318   24.7966 C   0  0  2  0  0  0  0  0  0  0  0  0
    5.2782  -16.4152   25.3373 N   0  0  0  0  0  0  0  0  0  0  0  0
    7.5886  -16.2139   24.7697 C   0  0  0  0  0  0  0  0  0  0  0  0
    7.9083  -17.0387   25.6641 O   0  0  0  0  0  0  0  0  0  0  0  0
    8.5521  -15.9732   23.7452 N   0  0  0  0  0  0  0  0  0  0  0  0
    9.8651  -16.5492   23.7449 C   0  0  1  0  0  0  0  0  0  0  0  0
   10.6419  -16.2235   22.4850 C   0  0  0  0  0  0  0  0  0  0  0  0
   11.4274  -17.4073   22.0443 C   0  0  0  0  0  0  0  0  0  0  0  0
   11.2454  -17.7492   20.5928 C   0  0  0  0  0  0  0  0  0  0  0  0
   11.9913  -19.0130   20.2427 C   0  0  0  0  0  0  0  0  0  0  0  0
   11.7975  -19.2287   18.8077 N   0  0  0  0  0  0  0  0  0  0  0  0
   10.5802  -16.0810   24.9581 C   0  0  0  0  0  0  0  0  0  0  0  0
   10.9912  -14.8887   24.9572 O   0  0  0  0  0  0  0  0  0  0  0  0
   10.4659  -13.9261   26.9391 C   0  0  0  0  0  0  0  0  0  0  0  0
   10.3493  -15.1550   27.8125 C   0  0  2  0  0  0  0  0  0  0  0  0
   10.8559  -14.7814   29.2102 C   0  0  0  0  0  0  0  0  0  0  0  0
   11.2599  -16.2550   27.3168 C   0  0  2  0  0  0  0  0  0  0  0  0
   10.8339  -16.8638   26.1052 N   0  0  0  0  0  0  0  0  0  0  0  0
   11.4835  -17.2932   28.3464 C   0  0  0  0  0  0  0  0  0  0  0  0
   11.0377  -18.5860   28.1638 O   0  0  0  0  0  0  0  0  0  0  0  0
   12.0827  -17.0289   29.4109 O   0  0  0  0  0  0  0  0  0  0  0  0
  2  3  1  0
  2  1  1  0
  4  5  1  0
  4  3  1  0
  5  7  1  0
  5  6  1  1
  7  8  2  0
  9  7  1  0
  9 10  1  0
 10 11  1  6
 11 12  1  0
 13 12  1  0
 13 14  1  0
 15 14  1  0
 16 10  1  0
 16 17  2  0
 19 18  1  6
 19 21  1  0
 20 19  1  0
 21 22  1  6
 21 23  1  0
 22 16  1  0
 23 24  1  0
 25 23  2  0
M  END
$$$$
