EHK.pdb
     RDKit          3D

 29 29  0  0  1  0  0  0  0  0999 V2000
   20.4714  -11.3564  -17.9341 N   0  0  0  0  0  0  0  0  0  0  0  0
   20.9522  -10.0242  -18.4034 C   0  0  1  0  0  0  0  0  0  0  0  0
   20.9083   -9.9447  -19.8525 C   0  0  0  0  0  0  0  0  0  0  0  0
   21.9787  -10.7190  -20.5711 C   0  0  0  0  0  0  0  0  0  0  0  0
   23.3575  -10.2102  -20.2629 C   0  0  0  0  0  0  0  0  0  0  0  0
   24.1613  -11.0523  -19.7994 O   0  0  0  0  0  0  0  0  0  0  0  0
   20.2591   -9.0664  -17.5665 C   0  0  0  0  0  0  0  0  0  0  0  0
   19.0217   -9.3541  -17.3341 O   0  0  0  0  0  0  0  0  0  0  0  0
   23.7775   -8.9204  -20.4511 O   0  0  0  0  0  0  0  0  0  0  0  0
   20.7076   -7.8912  -16.9792 N   0  0  0  0  0  0  0  0  0  0  0  0
   19.8046   -7.0134  -16.1421 C   0  0  1  0  0  0  0  0  0  0  0  0
   20.5872   -6.8794  -14.8850 C   0  0  0  0  0  0  0  0  0  0  0  0
   20.3624   -7.7980  -13.7887 C   0  0  0  0  0  0  0  0  0  0  0  0
   19.5250   -8.8683  -13.6134 C   0  0  0  0  0  0  0  0  0  0  0  0
   19.8065   -9.3942  -12.4017 N   0  0  0  0  0  0  0  0  0  0  0  0
   20.7882   -8.6874  -11.8241 C   0  0  0  0  0  0  0  0  0  0  0  0
   21.1472   -7.7038  -12.6528 N   0  0  0  0  0  0  0  0  0  0  0  0
   19.8351   -5.7496  -16.9627 C   0  0  0  0  0  0  0  0  0  0  0  0
   20.9127   -5.3920  -17.5736 O   0  0  0  0  0  0  0  0  0  0  0  0
   18.7494   -4.9318  -17.1066 N   0  0  0  0  0  0  0  0  0  0  0  0
   18.8178   -3.7101  -18.0270 C   0  0  1  0  0  0  0  0  0  0  0  0
   17.3773   -3.3776  -18.1742 C   0  0  0  0  0  0  0  0  0  0  0  0
   16.9009   -2.1656  -18.8248 C   0  0  0  0  0  0  0  0  0  0  0  0
   15.4525   -1.8423  -18.8961 C   0  0  0  0  0  0  0  0  0  0  0  0
   15.3995   -0.4335  -19.5758 C   0  0  0  0  0  0  0  0  0  0  0  0
   14.0131   -0.0281  -19.4672 N   0  0  0  0  0  0  0  0  0  0  0  0
   19.6362   -2.7965  -17.2231 C   0  0  0  0  0  0  0  0  0  0  0  0
   19.6715   -2.8291  -15.8601 O   0  0  0  0  0  0  0  0  0  0  0  0
   20.3471   -1.9262  -17.7797 O   0  0  0  0  0  0  0  0  0  0  0  0
  2  1  1  6
  2  3  1  0
  3  4  1  0
  4  5  1  0
  5  9  1  0
  6  5  2  0
  7  2  1  0
  7  8  2  0
 10  7  1  0
 11 10  1  0
 12 13  1  0
 11 12  1  1
 13 14  2  0
 14 15  1  0
 16 15  1  0
 17 13  1  0
 17 16  2  0
 18 11  1  0
 19 18  2  0
 20 18  1  0
 21 20  1  0
 21 22  1  1
 22 23  1  0
 24 25  1  0
 24 23  1  0
 25 26  1  0
 27 21  1  0
 28 27  1  0
 29 27  2  0
M  END
$$$$
