EHK.pdb
     RDKit          3D

 29 29  0  0  1  0  0  0  0  0999 V2000
   22.6692  -18.5504  -15.2892 N   0  0  0  0  0  0  0  0  0  0  0  0
   21.6188  -17.6346  -15.8224 C   0  0  1  0  0  0  0  0  0  0  0  0
   20.3370  -17.9050  -15.1962 C   0  0  0  0  0  0  0  0  0  0  0  0
   19.3385  -18.6237  -16.0610 C   0  0  0  0  0  0  0  0  0  0  0  0
   18.0478  -18.8926  -15.3422 C   0  0  0  0  0  0  0  0  0  0  0  0
   17.7840  -20.0976  -15.1220 O   0  0  0  0  0  0  0  0  0  0  0  0
   22.2231  -16.3188  -15.7841 C   0  0  0  0  0  0  0  0  0  0  0  0
   22.7691  -16.0123  -14.6546 O   0  0  0  0  0  0  0  0  0  0  0  0
   17.1670  -17.9301  -14.9257 O   0  0  0  0  0  0  0  0  0  0  0  0
   22.3062  -15.3359  -16.7609 N   0  0  0  0  0  0  0  0  0  0  0  0
   23.0166  -14.0222  -16.5234 C   0  0  1  0  0  0  0  0  0  0  0  0
   24.2801  -14.2154  -17.2828 C   0  0  0  0  0  0  0  0  0  0  0  0
   25.4186  -14.8465  -16.6491 C   0  0  0  0  0  0  0  0  0  0  0  0
   25.6192  -15.4047  -15.4138 C   0  0  0  0  0  0  0  0  0  0  0  0
   26.8727  -15.9076  -15.4078 N   0  0  0  0  0  0  0  0  0  0  0  0
   27.4516  -15.6808  -16.5953 C   0  0  0  0  0  0  0  0  0  0  0  0
   26.5823  -15.0325  -17.3744 N   0  0  0  0  0  0  0  0  0  0  0  0
   22.0723  -13.0833  -17.2294 C   0  0  0  0  0  0  0  0  0  0  0  0
   21.5028  -13.4346  -18.3315 O   0  0  0  0  0  0  0  0  0  0  0  0
   21.7693  -11.8385  -16.7530 N   0  0  0  0  0  0  0  0  0  0  0  0
   20.8143  -10.9255  -17.5268 C   0  0  1  0  0  0  0  0  0  0  0  0
   19.9064  -10.4707  -16.4424 C   0  0  0  0  0  0  0  0  0  0  0  0
   18.8034   -9.5461  -16.6609 C   0  0  0  0  0  0  0  0  0  0  0  0
   18.0061   -9.0092  -15.5280 C   0  0  0  0  0  0  0  0  0  0  0  0
   16.9813   -8.0347  -16.1985 C   0  0  0  0  0  0  0  0  0  0  0  0
   16.3870   -7.3128  -15.0922 N   0  0  0  0  0  0  0  0  0  0  0  0
   21.7498   -9.9375  -18.0742 C   0  0  0  0  0  0  0  0  0  0  0  0
   21.5080   -9.2341  -19.2174 O   0  0  0  0  0  0  0  0  0  0  0  0
   22.8369   -9.7046  -17.4942 O   0  0  0  0  0  0  0  0  0  0  0  0
  2  1  1  1
  2  3  1  0
  3  4  1  0
  4  5  1  0
  5  9  1  0
  6  5  2  0
  7  2  1  0
  7  8  2  0
 10  7  1  0
 11 10  1  0
 12 13  1  0
 11 12  1  6
 13 14  2  0
 14 15  1  0
 16 15  1  0
 17 13  1  0
 17 16  2  0
 18 11  1  0
 19 18  2  0
 20 18  1  0
 21 20  1  0
 21 22  1  1
 22 23  1  0
 24 25  1  0
 24 23  1  0
 25 26  1  0
 27 21  1  0
 28 27  1  0
 29 27  2  0
M  END
$$$$
