EHK.pdb
     RDKit          3D

 29 29  0  0  1  0  0  0  0  0999 V2000
   23.8058  -21.2550  -15.2923 N   0  0  0  0  0  0  0  0  0  0  0  0
   24.1575  -19.9787  -14.6042 C   0  0  1  0  0  0  0  0  0  0  0  0
   24.8057  -19.0617  -15.5246 C   0  0  0  0  0  0  0  0  0  0  0  0
   23.9594  -18.6080  -16.6819 C   0  0  0  0  0  0  0  0  0  0  0  0
   24.7152  -17.7238  -17.6315 C   0  0  0  0  0  0  0  0  0  0  0  0
   25.5313  -18.3017  -18.3865 O   0  0  0  0  0  0  0  0  0  0  0  0
   22.9600  -19.6095  -13.8778 C   0  0  0  0  0  0  0  0  0  0  0  0
   23.1050  -18.6036  -13.0808 O   0  0  0  0  0  0  0  0  0  0  0  0
   24.5720  -16.3646  -17.7197 O   0  0  0  0  0  0  0  0  0  0  0  0
   21.6870  -20.1630  -13.8968 N   0  0  0  0  0  0  0  0  0  0  0  0
   20.5510  -19.5992  -13.0731 C   0  0  1  0  0  0  0  0  0  0  0  0
   20.2422  -18.3389  -13.7991 C   0  0  0  0  0  0  0  0  0  0  0  0
   19.1012  -17.5376  -13.4092 C   0  0  0  0  0  0  0  0  0  0  0  0
   18.1908  -17.6287  -12.3892 C   0  0  0  0  0  0  0  0  0  0  0  0
   17.3843  -16.5494  -12.4837 N   0  0  0  0  0  0  0  0  0  0  0  0
   17.7654  -15.7956  -13.5245 C   0  0  0  0  0  0  0  0  0  0  0  0
   18.8154  -16.3782  -14.1086 N   0  0  0  0  0  0  0  0  0  0  0  0
   19.5051  -20.6579  -13.3114 C   0  0  0  0  0  0  0  0  0  0  0  0
   19.3639  -21.1872  -14.4786 O   0  0  0  0  0  0  0  0  0  0  0  0
   18.6695  -21.1100  -12.3288 N   0  0  0  0  0  0  0  0  0  0  0  0
   17.5864  -22.1436  -12.6494 C   0  0  1  0  0  0  0  0  0  0  0  0
   18.0307  -23.2947  -11.8219 C   0  0  0  0  0  0  0  0  0  0  0  0
   17.8672  -23.3481  -10.3763 C   0  0  0  0  0  0  0  0  0  0  0  0
   18.2548  -24.5519   -9.5965 C   0  0  0  0  0  0  0  0  0  0  0  0
   17.9734  -24.1603   -8.1076 C   0  0  0  0  0  0  0  0  0  0  0  0
   18.2915  -25.3535   -7.3503 N   0  0  0  0  0  0  0  0  0  0  0  0
   16.3799  -21.4328  -12.2135 C   0  0  0  0  0  0  0  0  0  0  0  0
   15.1188  -21.8233  -12.5561 O   0  0  0  0  0  0  0  0  0  0  0  0
   16.4720  -20.4093  -11.4948 O   0  0  0  0  0  0  0  0  0  0  0  0
  2  1  1  6
  2  3  1  0
  3  4  1  0
  4  5  1  0
  5  9  1  0
  6  5  2  0
  7  2  1  0
  7  8  2  0
 10  7  1  0
 11 10  1  0
 12 13  1  0
 11 12  1  6
 13 14  2  0
 14 15  1  0
 16 15  1  0
 17 13  1  0
 17 16  2  0
 18 11  1  0
 19 18  2  0
 20 18  1  0
 21 20  1  0
 21 22  1  1
 22 23  1  0
 24 25  1  0
 24 23  1  0
 25 26  1  0
 27 21  1  0
 28 27  1  0
 29 27  2  0
M  END
$$$$
