EHK.pdb
     RDKit          3D

 29 29  0  0  1  0  0  0  0  0999 V2000
   20.6765   -7.8495  -15.3955 N   0  0  0  0  0  0  0  0  0  0  0  0
   20.8096   -8.1237  -13.9348 C   0  0  1  0  0  0  0  0  0  0  0  0
   21.6440   -7.1202  -13.2987 C   0  0  0  0  0  0  0  0  0  0  0  0
   21.8292   -5.8491  -14.0808 C   0  0  0  0  0  0  0  0  0  0  0  0
   21.2882   -4.6489  -13.3585 C   0  0  0  0  0  0  0  0  0  0  0  0
   20.7038   -4.8792  -12.2743 O   0  0  0  0  0  0  0  0  0  0  0  0
   19.4584   -8.3879  -13.4848 C   0  0  0  0  0  0  0  0  0  0  0  0
   18.5351   -7.9533  -14.2765 O   0  0  0  0  0  0  0  0  0  0  0  0
   21.3907   -3.3564  -13.7994 O   0  0  0  0  0  0  0  0  0  0  0  0
   18.9972   -9.0269  -12.3420 N   0  0  0  0  0  0  0  0  0  0  0  0
   17.5377   -9.3702  -12.1444 C   0  0  1  0  0  0  0  0  0  0  0  0
   17.5882  -10.8486  -11.9954 C   0  0  0  0  0  0  0  0  0  0  0  0
   17.1750  -11.7029  -13.0889 C   0  0  0  0  0  0  0  0  0  0  0  0
   16.8047  -11.4600  -14.3856 C   0  0  0  0  0  0  0  0  0  0  0  0
   16.5918  -12.6609  -14.9658 N   0  0  0  0  0  0  0  0  0  0  0  0
   16.8186  -13.6355  -14.0738 C   0  0  0  0  0  0  0  0  0  0  0  0
   17.1777  -13.0758  -12.9158 N   0  0  0  0  0  0  0  0  0  0  0  0
   17.2827   -8.6793  -10.8294 C   0  0  0  0  0  0  0  0  0  0  0  0
   18.1448   -8.7530   -9.8736 O   0  0  0  0  0  0  0  0  0  0  0  0
   16.1537   -7.9500  -10.5809 N   0  0  0  0  0  0  0  0  0  0  0  0
   15.9347   -7.3066   -9.2089 C   0  0  1  0  0  0  0  0  0  0  0  0
   15.8710   -5.8672   -9.5710 C   0  0  0  0  0  0  0  0  0  0  0  0
   15.4184   -4.8328   -8.6520 C   0  0  0  0  0  0  0  0  0  0  0  0
   15.1849   -3.4385   -9.1088 C   0  0  0  0  0  0  0  0  0  0  0  0
   14.6981   -2.6837   -7.8271 C   0  0  0  0  0  0  0  0  0  0  0  0
   14.6389   -1.2918   -8.2238 N   0  0  0  0  0  0  0  0  0  0  0  0
   14.6830   -7.9477   -8.7930 C   0  0  0  0  0  0  0  0  0  0  0  0
   13.9181   -8.7052   -9.6305 O   0  0  0  0  0  0  0  0  0  0  0  0
   14.2602   -7.8113   -7.6203 O   0  0  0  0  0  0  0  0  0  0  0  0
  2  1  1  6
  2  3  1  0
  3  4  1  0
  4  5  1  0
  5  9  1  0
  6  5  2  0
  7  2  1  0
  7  8  2  0
 10  7  1  0
 11 10  1  0
 12 13  1  0
 11 12  1  1
 13 14  2  0
 14 15  1  0
 16 15  1  0
 17 13  1  0
 17 16  2  0
 18 11  1  0
 19 18  2  0
 20 18  1  0
 21 20  1  0
 21 22  1  6
 22 23  1  0
 24 25  1  0
 24 23  1  0
 25 26  1  0
 27 21  1  0
 28 27  1  0
 29 27  2  0
M  END
$$$$
