EHK.pdb
     RDKit          3D

 29 29  0  0  1  0  0  0  0  0999 V2000
   23.7878  -21.5461  -15.3881 N   0  0  0  0  0  0  0  0  0  0  0  0
   24.2900  -20.3824  -14.6009 C   0  0  1  0  0  0  0  0  0  0  0  0
   24.8875  -19.3904  -15.4767 C   0  0  0  0  0  0  0  0  0  0  0  0
   23.9519  -18.7704  -16.4776 C   0  0  0  0  0  0  0  0  0  0  0  0
   24.5987  -18.5703  -17.8180 C   0  0  0  0  0  0  0  0  0  0  0  0
   25.8492  -18.6465  -17.8398 O   0  0  0  0  0  0  0  0  0  0  0  0
   23.2043  -20.0497  -13.7016 C   0  0  0  0  0  0  0  0  0  0  0  0
   23.4800  -19.1192  -12.8494 O   0  0  0  0  0  0  0  0  0  0  0  0
   23.9255  -18.3166  -18.9833 O   0  0  0  0  0  0  0  0  0  0  0  0
   21.9212  -20.5706  -13.6055 N   0  0  0  0  0  0  0  0  0  0  0  0
   20.8769  -19.9757  -12.6876 C   0  0  1  0  0  0  0  0  0  0  0  0
   20.1135  -19.1021  -13.6175 C   0  0  0  0  0  0  0  0  0  0  0  0
   18.9097  -18.4370  -13.1650 C   0  0  0  0  0  0  0  0  0  0  0  0
   18.2612  -18.3812  -11.9592 C   0  0  0  0  0  0  0  0  0  0  0  0
   17.2159  -17.5398  -12.1130 N   0  0  0  0  0  0  0  0  0  0  0  0
   17.1975  -17.0739  -13.3697 C   0  0  0  0  0  0  0  0  0  0  0  0
   18.2247  -17.6077  -14.0354 N   0  0  0  0  0  0  0  0  0  0  0  0
   20.1086  -21.2206  -12.3247 C   0  0  0  0  0  0  0  0  0  0  0  0
   19.9659  -22.1742  -13.1806 O   0  0  0  0  0  0  0  0  0  0  0  0
   19.5363  -21.4082  -11.0977 N   0  0  0  0  0  0  0  0  0  0  0  0
   18.6851  -22.6509  -10.8231 C   0  0  1  0  0  0  0  0  0  0  0  0
   18.5486  -22.5873   -9.3450 C   0  0  0  0  0  0  0  0  0  0  0  0
   17.7907  -23.5602   -8.5715 C   0  0  0  0  0  0  0  0  0  0  0  0
   18.4549  -24.7171   -7.9172 C   0  0  0  0  0  0  0  0  0  0  0  0
   17.2802  -25.5364   -7.2861 C   0  0  0  0  0  0  0  0  0  0  0  0
   17.9272  -26.6506   -6.6241 N   0  0  0  0  0  0  0  0  0  0  0  0
   17.4890  -22.3552  -11.6184 C   0  0  0  0  0  0  0  0  0  0  0  0
   16.8708  -21.1395  -11.6133 O   0  0  0  0  0  0  0  0  0  0  0  0
   16.9776  -23.2389  -12.3465 O   0  0  0  0  0  0  0  0  0  0  0  0
  2  1  1  6
  2  3  1  0
  3  4  1  0
  4  5  1  0
  5  9  1  0
  6  5  2  0
  7  2  1  0
  7  8  2  0
 10  7  1  0
 11 10  1  0
 12 13  1  0
 11 12  1  6
 13 14  2  0
 14 15  1  0
 16 15  1  0
 17 13  1  0
 17 16  2  0
 18 11  1  0
 19 18  2  0
 20 18  1  0
 21 20  1  0
 21 22  1  1
 22 23  1  0
 24 25  1  0
 24 23  1  0
 25 26  1  0
 27 21  1  0
 28 27  1  0
 29 27  2  0
M  END
$$$$
