EHK.pdb
     RDKit          3D

 29 29  0  0  1  0  0  0  0  0999 V2000
   26.3116  -19.0725  -18.0837 N   0  0  0  0  0  0  0  0  0  0  0  0
   26.7094  -20.0855  -17.0629 C   0  0  1  0  0  0  0  0  0  0  0  0
   28.1469  -20.2894  -17.0761 C   0  0  0  0  0  0  0  0  0  0  0  0
   28.6569  -21.3302  -16.1178 C   0  0  0  0  0  0  0  0  0  0  0  0
   29.0805  -22.5910  -16.8147 C   0  0  0  0  0  0  0  0  0  0  0  0
   29.4669  -23.5239  -16.0726 O   0  0  0  0  0  0  0  0  0  0  0  0
   26.0067  -19.6913  -15.8593 C   0  0  0  0  0  0  0  0  0  0  0  0
   26.0075  -18.4203  -15.6299 O   0  0  0  0  0  0  0  0  0  0  0  0
   29.0715  -22.7780  -18.1713 O   0  0  0  0  0  0  0  0  0  0  0  0
   25.3384  -20.4568  -14.9135 N   0  0  0  0  0  0  0  0  0  0  0  0
   24.5412  -19.8334  -13.7898 C   0  0  1  0  0  0  0  0  0  0  0  0
   23.1652  -20.3107  -14.0889 C   0  0  0  0  0  0  0  0  0  0  0  0
   22.1620  -19.3816  -14.5648 C   0  0  0  0  0  0  0  0  0  0  0  0
   22.1961  -18.0579  -14.9173 C   0  0  0  0  0  0  0  0  0  0  0  0
   20.9607  -17.7359  -15.3582 N   0  0  0  0  0  0  0  0  0  0  0  0
   20.1666  -18.8137  -15.2914 C   0  0  0  0  0  0  0  0  0  0  0  0
   20.8779  -19.8357  -14.8090 N   0  0  0  0  0  0  0  0  0  0  0  0
   25.1441  -20.5536  -12.6111 C   0  0  0  0  0  0  0  0  0  0  0  0
   25.4891  -21.7921  -12.7077 O   0  0  0  0  0  0  0  0  0  0  0  0
   25.3585  -19.9505  -11.4034 N   0  0  0  0  0  0  0  0  0  0  0  0
   25.8215  -20.7744  -10.1988 C   0  0  1  0  0  0  0  0  0  0  0  0
   26.4626  -19.7279   -9.3615 C   0  0  0  0  0  0  0  0  0  0  0  0
   26.8967  -19.9579   -7.9911 C   0  0  0  0  0  0  0  0  0  0  0  0
   27.4923  -18.8694   -7.1739 C   0  0  0  0  0  0  0  0  0  0  0  0
   27.8291  -19.5483   -5.8045 C   0  0  0  0  0  0  0  0  0  0  0  0
   28.3829  -18.4822   -4.9953 N   0  0  0  0  0  0  0  0  0  0  0  0
   24.5464  -21.3222   -9.7244 C   0  0  0  0  0  0  0  0  0  0  0  0
   24.4614  -22.3563   -8.8393 O   0  0  0  0  0  0  0  0  0  0  0  0
   23.4607  -20.8466  -10.1339 O   0  0  0  0  0  0  0  0  0  0  0  0
  2  1  1  6
  2  3  1  0
  3  4  1  0
  4  5  1  0
  5  9  1  0
  6  5  2  0
  7  2  1  0
  7  8  2  0
 10  7  1  0
 11 10  1  0
 12 13  1  0
 11 12  1  6
 13 14  2  0
 14 15  1  0
 16 15  1  0
 17 13  1  0
 17 16  2  0
 18 11  1  0
 19 18  2  0
 20 18  1  0
 21 20  1  0
 21 22  1  1
 22 23  1  0
 24 25  1  0
 24 23  1  0
 25 26  1  0
 27 21  1  0
 28 27  1  0
 29 27  2  0
M  END
$$$$
