EHK.pdb
     RDKit          3D

 29 29  0  0  1  0  0  0  0  0999 V2000
   26.9311  -23.3283  -16.2277 N   0  0  0  0  0  0  0  0  0  0  0  0
   28.0470  -22.3505  -16.3858 C   0  0  1  0  0  0  0  0  0  0  0  0
   28.2699  -22.0493  -17.7886 C   0  0  0  0  0  0  0  0  0  0  0  0
   27.0432  -22.0916  -18.6575 C   0  0  0  0  0  0  0  0  0  0  0  0
   27.3507  -21.7932  -20.0966 C   0  0  0  0  0  0  0  0  0  0  0  0
   26.3781  -21.8377  -20.8854 O   0  0  0  0  0  0  0  0  0  0  0  0
   27.7650  -21.3099  -15.4185 C   0  0  0  0  0  0  0  0  0  0  0  0
   28.6540  -20.3747  -15.3626 O   0  0  0  0  0  0  0  0  0  0  0  0
   28.5924  -21.4853  -20.5855 O   0  0  0  0  0  0  0  0  0  0  0  0
   26.6993  -21.1582  -14.5421 N   0  0  0  0  0  0  0  0  0  0  0  0
   26.5716  -19.9596  -13.6288 C   0  0  1  0  0  0  0  0  0  0  0  0
   25.3372  -19.3113  -14.1449 C   0  0  0  0  0  0  0  0  0  0  0  0
   24.1072  -20.0683  -14.2451 C   0  0  0  0  0  0  0  0  0  0  0  0
   23.7701  -21.3616  -13.9428 C   0  0  0  0  0  0  0  0  0  0  0  0
   22.4465  -21.4892  -14.1796 N   0  0  0  0  0  0  0  0  0  0  0  0
   21.9552  -20.3208  -14.6158 C   0  0  0  0  0  0  0  0  0  0  0  0
   22.9517  -19.4332  -14.6648 N   0  0  0  0  0  0  0  0  0  0  0  0
   26.3346  -20.6572  -12.3140 C   0  0  0  0  0  0  0  0  0  0  0  0
   25.9774  -21.8957  -12.2855 O   0  0  0  0  0  0  0  0  0  0  0  0
   26.4845  -20.0350  -11.1062 N   0  0  0  0  0  0  0  0  0  0  0  0
   26.2467  -20.8052   -9.8045 C   0  0  1  0  0  0  0  0  0  0  0  0
   27.0167  -19.9824   -8.8364 C   0  0  0  0  0  0  0  0  0  0  0  0
   27.0592  -20.2621   -7.4084 C   0  0  0  0  0  0  0  0  0  0  0  0
   27.8234  -19.3981   -6.4719 C   0  0  0  0  0  0  0  0  0  0  0  0
   27.6725  -20.1001   -5.0812 C   0  0  0  0  0  0  0  0  0  0  0  0
   28.4040  -19.2515   -4.1631 N   0  0  0  0  0  0  0  0  0  0  0  0
   24.7840  -20.7551   -9.7100 C   0  0  0  0  0  0  0  0  0  0  0  0
   24.0216  -19.8602  -10.4013 O   0  0  0  0  0  0  0  0  0  0  0  0
   24.1694  -21.5540   -8.9639 O   0  0  0  0  0  0  0  0  0  0  0  0
  2  1  1  6
  2  3  1  0
  3  4  1  0
  4  5  1  0
  5  9  1  0
  6  5  2  0
  7  2  1  0
  7  8  2  0
 10  7  1  0
 11 10  1  0
 12 13  1  0
 11 12  1  6
 13 14  2  0
 14 15  1  0
 16 15  1  0
 17 13  1  0
 17 16  2  0
 18 11  1  0
 19 18  2  0
 20 18  1  0
 21 20  1  0
 21 22  1  1
 22 23  1  0
 24 25  1  0
 24 23  1  0
 25 26  1  0
 27 21  1  0
 28 27  1  0
 29 27  2  0
M  END
$$$$
