EHK.pdb
     RDKit          3D

 29 29  0  0  1  0  0  0  0  0999 V2000
   21.3485  -12.3016  -18.7560 N   0  0  0  0  0  0  0  0  0  0  0  0
   21.8818  -10.9589  -19.1292 C   0  0  1  0  0  0  0  0  0  0  0  0
   20.9900  -10.2946  -20.0628 C   0  0  0  0  0  0  0  0  0  0  0  0
   20.8883  -10.9343  -21.4200 C   0  0  0  0  0  0  0  0  0  0  0  0
   22.1642  -10.8203  -22.2034 C   0  0  0  0  0  0  0  0  0  0  0  0
   22.4676   -9.6683  -22.5918 O   0  0  0  0  0  0  0  0  0  0  0  0
   22.2590  -10.3493  -17.8706 C   0  0  0  0  0  0  0  0  0  0  0  0
   21.5653  -10.7431  -16.8549 O   0  0  0  0  0  0  0  0  0  0  0  0
   22.9916  -11.8673  -22.5110 O   0  0  0  0  0  0  0  0  0  0  0  0
   23.2396   -9.4102  -17.5815 N   0  0  0  0  0  0  0  0  0  0  0  0
   23.4810   -8.9037  -16.1773 C   0  0  1  0  0  0  0  0  0  0  0  0
   24.9620   -8.9840  -16.0729 C   0  0  0  0  0  0  0  0  0  0  0  0
   25.6043  -10.2583  -15.8284 C   0  0  0  0  0  0  0  0  0  0  0  0
   25.1391  -11.5430  -15.7254 C   0  0  0  0  0  0  0  0  0  0  0  0
   26.2170  -12.3400  -15.5605 N   0  0  0  0  0  0  0  0  0  0  0  0
   27.3300  -11.5930  -15.5594 C   0  0  0  0  0  0  0  0  0  0  0  0
   26.9829  -10.3139  -15.7222 N   0  0  0  0  0  0  0  0  0  0  0  0
   23.0025   -7.4823  -16.3265 C   0  0  0  0  0  0  0  0  0  0  0  0
   23.3556   -6.7768  -17.3463 O   0  0  0  0  0  0  0  0  0  0  0  0
   22.1845   -6.8751  -15.4153 N   0  0  0  0  0  0  0  0  0  0  0  0
   21.7395   -5.4246  -15.6211 C   0  0  1  0  0  0  0  0  0  0  0  0
   20.2744   -5.5940  -15.8003 C   0  0  0  0  0  0  0  0  0  0  0  0
   19.3457   -4.4756  -15.8771 C   0  0  0  0  0  0  0  0  0  0  0  0
   17.8783   -4.6914  -15.9645 C   0  0  0  0  0  0  0  0  0  0  0  0
   17.2730   -3.2487  -16.0085 C   0  0  0  0  0  0  0  0  0  0  0  0
   15.8459   -3.4560  -16.1446 N   0  0  0  0  0  0  0  0  0  0  0  0
   22.1935   -4.8096  -14.3695 C   0  0  0  0  0  0  0  0  0  0  0  0
   22.4889   -3.4832  -14.2538 O   0  0  0  0  0  0  0  0  0  0  0  0
   22.3340   -5.5056  -13.3358 O   0  0  0  0  0  0  0  0  0  0  0  0
  2  1  1  1
  2  3  1  0
  3  4  1  0
  4  5  1  0
  5  9  1  0
  6  5  2  0
  7  2  1  0
  7  8  2  0
 10  7  1  0
 11 10  1  0
 12 13  1  0
 11 12  1  6
 13 14  2  0
 14 15  1  0
 16 15  1  0
 17 13  1  0
 17 16  2  0
 18 11  1  0
 19 18  2  0
 20 18  1  0
 21 20  1  0
 21 22  1  1
 22 23  1  0
 24 25  1  0
 24 23  1  0
 25 26  1  0
 27 21  1  0
 28 27  1  0
 29 27  2  0
M  END
$$$$
