EHK.pdb
     RDKit          3D

 29 29  0  0  1  0  0  0  0  0999 V2000
   19.8904   -7.1665  -20.9158 N   0  0  0  0  0  0  0  0  0  0  0  0
   19.2254   -6.2516  -19.9426 C   0  0  1  0  0  0  0  0  0  0  0  0
   17.7830   -6.4087  -19.9946 C   0  0  0  0  0  0  0  0  0  0  0  0
   17.1772   -6.3288  -21.3687 C   0  0  0  0  0  0  0  0  0  0  0  0
   15.6773   -6.3936  -21.3375 C   0  0  0  0  0  0  0  0  0  0  0  0
   15.1820   -7.2627  -20.5830 O   0  0  0  0  0  0  0  0  0  0  0  0
   19.9666   -6.4230  -18.7100 C   0  0  0  0  0  0  0  0  0  0  0  0
   20.7268   -7.4667  -18.6822 O   0  0  0  0  0  0  0  0  0  0  0  0
   14.8424   -5.5854  -22.0623 O   0  0  0  0  0  0  0  0  0  0  0  0
   19.9886   -5.6514  -17.5562 N   0  0  0  0  0  0  0  0  0  0  0  0
   20.9172   -5.9546  -16.4018 C   0  0  1  0  0  0  0  0  0  0  0  0
   21.3734   -4.5948  -16.0102 C   0  0  0  0  0  0  0  0  0  0  0  0
   22.4811   -3.9728  -16.7047 C   0  0  0  0  0  0  0  0  0  0  0  0
   23.2747   -4.3627  -17.7514 C   0  0  0  0  0  0  0  0  0  0  0  0
   24.1072   -3.3334  -18.0192 N   0  0  0  0  0  0  0  0  0  0  0  0
   23.8545   -2.3225  -17.1760 C   0  0  0  0  0  0  0  0  0  0  0  0
   22.8624   -2.6879  -16.3603 N   0  0  0  0  0  0  0  0  0  0  0  0
   19.9301   -6.5241  -15.4154 C   0  0  0  0  0  0  0  0  0  0  0  0
   18.7973   -5.9425  -15.2134 O   0  0  0  0  0  0  0  0  0  0  0  0
   20.1703   -7.6629  -14.6986 N   0  0  0  0  0  0  0  0  0  0  0  0
   19.0880   -8.2447  -13.7853 C   0  0  1  0  0  0  0  0  0  0  0  0
   19.0362   -9.6522  -14.2579 C   0  0  0  0  0  0  0  0  0  0  0  0
   18.0879  -10.6311  -13.7462 C   0  0  0  0  0  0  0  0  0  0  0  0
   18.0621  -12.0258  -14.2575 C   0  0  0  0  0  0  0  0  0  0  0  0
   16.9307  -12.7240  -13.4315 C   0  0  0  0  0  0  0  0  0  0  0  0
   16.8900  -14.0791  -13.9415 N   0  0  0  0  0  0  0  0  0  0  0  0
   19.6751   -8.0043  -12.4630 C   0  0  0  0  0  0  0  0  0  0  0  0
   18.9472   -8.0166  -11.3097 O   0  0  0  0  0  0  0  0  0  0  0  0
   20.9011   -7.7674  -12.3475 O   0  0  0  0  0  0  0  0  0  0  0  0
  2  1  1  6
  2  3  1  0
  3  4  1  0
  4  5  1  0
  5  9  1  0
  6  5  2  0
  7  2  1  0
  7  8  2  0
 10  7  1  0
 11 10  1  0
 12 13  1  0
 11 12  1  1
 13 14  2  0
 14 15  1  0
 16 15  1  0
 17 13  1  0
 17 16  2  0
 18 11  1  0
 19 18  2  0
 20 18  1  0
 21 20  1  0
 21 22  1  6
 22 23  1  0
 24 25  1  0
 24 23  1  0
 25 26  1  0
 27 21  1  0
 28 27  1  0
 29 27  2  0
M  END
$$$$
