EHK.pdb
     RDKit          3D

 29 29  0  0  1  0  0  0  0  0999 V2000
   24.5372  -22.7293  -14.8516 N   0  0  0  0  0  0  0  0  0  0  0  0
   25.6024  -21.7359  -14.5274 C   0  0  1  0  0  0  0  0  0  0  0  0
   26.9047  -22.2274  -14.9402 C   0  0  0  0  0  0  0  0  0  0  0  0
   26.9764  -22.7531  -16.3474 C   0  0  0  0  0  0  0  0  0  0  0  0
   27.6218  -21.7786  -17.2901 C   0  0  0  0  0  0  0  0  0  0  0  0
   28.0574  -20.7233  -16.7738 O   0  0  0  0  0  0  0  0  0  0  0  0
   25.0812  -20.4695  -14.9994 C   0  0  0  0  0  0  0  0  0  0  0  0
   25.7726  -19.4387  -14.6423 O   0  0  0  0  0  0  0  0  0  0  0  0
   27.7588  -21.9668  -18.6397 O   0  0  0  0  0  0  0  0  0  0  0  0
   23.9602  -20.1856  -15.7674 N   0  0  0  0  0  0  0  0  0  0  0  0
   23.5686  -18.7704  -16.1288 C   0  0  1  0  0  0  0  0  0  0  0  0
   23.7551  -18.7680  -17.6038 C   0  0  0  0  0  0  0  0  0  0  0  0
   23.4872  -17.5675  -18.3675 C   0  0  0  0  0  0  0  0  0  0  0  0
   24.2327  -16.4587  -18.6714 C   0  0  0  0  0  0  0  0  0  0  0  0
   23.4790  -15.6886  -19.4857 N   0  0  0  0  0  0  0  0  0  0  0  0
   22.2962  -16.2833  -19.6958 C   0  0  0  0  0  0  0  0  0  0  0  0
   22.2753  -17.4362  -19.0223 N   0  0  0  0  0  0  0  0  0  0  0  0
   22.1114  -18.7965  -15.7447 C   0  0  0  0  0  0  0  0  0  0  0  0
   21.5358  -19.9083  -15.4368 O   0  0  0  0  0  0  0  0  0  0  0  0
   21.3361  -17.6719  -15.6978 N   0  0  0  0  0  0  0  0  0  0  0  0
   19.8490  -17.7716  -15.3473 C   0  0  1  0  0  0  0  0  0  0  0  0
   19.5359  -16.3592  -15.0093 C   0  0  0  0  0  0  0  0  0  0  0  0
   18.2240  -15.9192  -14.5569 C   0  0  0  0  0  0  0  0  0  0  0  0
   17.9747  -14.5106  -14.1557 C   0  0  0  0  0  0  0  0  0  0  0  0
   16.4476  -14.4653  -13.8161 C   0  0  0  0  0  0  0  0  0  0  0  0
   16.2187  -13.1150  -13.3444 N   0  0  0  0  0  0  0  0  0  0  0  0
   19.2980  -18.2973  -16.6006 C   0  0  0  0  0  0  0  0  0  0  0  0
   19.7710  -17.9440  -17.8301 O   0  0  0  0  0  0  0  0  0  0  0  0
   18.3421  -19.1087  -16.5818 O   0  0  0  0  0  0  0  0  0  0  0  0
  2  1  1  6
  2  3  1  0
  3  4  1  0
  4  5  1  0
  5  9  1  0
  6  5  2  0
  7  2  1  0
  7  8  2  0
 10  7  1  0
 11 10  1  0
 12 13  1  0
 11 12  1  6
 13 14  2  0
 14 15  1  0
 16 15  1  0
 17 13  1  0
 17 16  2  0
 18 11  1  0
 19 18  2  0
 20 18  1  0
 21 20  1  0
 21 22  1  6
 22 23  1  0
 24 25  1  0
 24 23  1  0
 25 26  1  0
 27 21  1  0
 28 27  1  0
 29 27  2  0
M  END
$$$$
