EHK.pdb
     RDKit          3D

 29 29  0  0  1  0  0  0  0  0999 V2000
   26.7490  -19.4849  -20.1918 N   0  0  0  0  0  0  0  0  0  0  0  0
   25.6567  -18.7257  -19.5161 C   0  0  1  0  0  0  0  0  0  0  0  0
   24.7976  -18.0833  -20.4946 C   0  0  0  0  0  0  0  0  0  0  0  0
   25.4461  -16.9919  -21.3008 C   0  0  0  0  0  0  0  0  0  0  0  0
   24.4765  -16.3058  -22.2194 C   0  0  0  0  0  0  0  0  0  0  0  0
   24.4600  -16.7153  -23.4035 O   0  0  0  0  0  0  0  0  0  0  0  0
   25.1305  -19.6409  -18.5244 C   0  0  0  0  0  0  0  0  0  0  0  0
   24.9485  -20.8464  -18.9506 O   0  0  0  0  0  0  0  0  0  0  0  0
   23.6345  -15.2896  -21.8533 O   0  0  0  0  0  0  0  0  0  0  0  0
   24.7878  -19.4313  -17.1956 N   0  0  0  0  0  0  0  0  0  0  0  0
   24.1818  -20.5200  -16.3386 C   0  0  1  0  0  0  0  0  0  0  0  0
   25.2831  -20.8048  -15.3812 C   0  0  0  0  0  0  0  0  0  0  0  0
   26.3358  -21.7315  -15.7405 C   0  0  0  0  0  0  0  0  0  0  0  0
   26.4352  -23.0979  -15.7198 C   0  0  0  0  0  0  0  0  0  0  0  0
   27.6403  -23.4130  -16.2422 N   0  0  0  0  0  0  0  0  0  0  0  0
   28.2868  -22.2901  -16.5853 C   0  0  0  0  0  0  0  0  0  0  0  0
   27.5096  -21.2454  -16.2889 N   0  0  0  0  0  0  0  0  0  0  0  0
   23.0587  -19.7495  -15.6932 C   0  0  0  0  0  0  0  0  0  0  0  0
   23.2608  -18.5636  -15.2294 O   0  0  0  0  0  0  0  0  0  0  0  0
   21.7922  -20.2483  -15.5686 N   0  0  0  0  0  0  0  0  0  0  0  0
   20.6820  -19.3945  -14.9499 C   0  0  1  0  0  0  0  0  0  0  0  0
   19.4724  -20.1589  -15.3494 C   0  0  0  0  0  0  0  0  0  0  0  0
   18.1236  -19.7827  -14.9513 C   0  0  0  0  0  0  0  0  0  0  0  0
   16.9298  -20.4520  -15.5295 C   0  0  0  0  0  0  0  0  0  0  0  0
   15.7137  -19.6876  -14.9079 C   0  0  0  0  0  0  0  0  0  0  0  0
   14.5510  -20.2776  -15.5388 N   0  0  0  0  0  0  0  0  0  0  0  0
   21.0565  -19.4284  -13.5323 C   0  0  0  0  0  0  0  0  0  0  0  0
   21.6798  -20.4927  -12.9502 O   0  0  0  0  0  0  0  0  0  0  0  0
   20.8032  -18.4527  -12.7864 O   0  0  0  0  0  0  0  0  0  0  0  0
  2  1  1  6
  2  3  1  0
  3  4  1  0
  4  5  1  0
  5  9  1  0
  6  5  2  0
  7  2  1  0
  7  8  2  0
 10  7  1  0
 11 10  1  0
 12 13  1  0
 11 12  1  1
 13 14  2  0
 14 15  1  0
 16 15  1  0
 17 13  1  0
 17 16  2  0
 18 11  1  0
 19 18  2  0
 20 18  1  0
 21 20  1  0
 21 22  1  1
 22 23  1  0
 24 25  1  0
 24 23  1  0
 25 26  1  0
 27 21  1  0
 28 27  1  0
 29 27  2  0
M  END
$$$$
