EHK.pdb
     RDKit          3D

 29 29  0  0  1  0  0  0  0  0999 V2000
   16.5762   -9.7248  -15.5541 N   0  0  0  0  0  0  0  0  0  0  0  0
   17.0148  -10.6735  -14.4892 C   0  0  1  0  0  0  0  0  0  0  0  0
   17.8477  -11.7228  -15.0488 C   0  0  0  0  0  0  0  0  0  0  0  0
   17.2259  -12.5065  -16.1716 C   0  0  0  0  0  0  0  0  0  0  0  0
   16.4948  -13.7239  -15.6834 C   0  0  0  0  0  0  0  0  0  0  0  0
   16.7243  -14.0627  -14.4991 O   0  0  0  0  0  0  0  0  0  0  0  0
   17.4787   -9.8268  -13.4095 C   0  0  0  0  0  0  0  0  0  0  0  0
   17.9628  -10.4659  -12.3970 O   0  0  0  0  0  0  0  0  0  0  0  0
   15.6190  -14.4650  -16.4314 O   0  0  0  0  0  0  0  0  0  0  0  0
   17.4832   -8.4441  -13.2860 N   0  0  0  0  0  0  0  0  0  0  0  0
   18.1489   -7.7412  -12.1242 C   0  0  1  0  0  0  0  0  0  0  0  0
   19.0656   -6.8000  -12.8201 C   0  0  0  0  0  0  0  0  0  0  0  0
   20.2725   -7.2939  -13.4491 C   0  0  0  0  0  0  0  0  0  0  0  0
   20.8219   -8.5420  -13.5825 C   0  0  0  0  0  0  0  0  0  0  0  0
   21.9337   -8.4043  -14.3369 N   0  0  0  0  0  0  0  0  0  0  0  0
   22.0887   -7.1164  -14.6746 C   0  0  0  0  0  0  0  0  0  0  0  0
   21.0843   -6.4146  -14.1438 N   0  0  0  0  0  0  0  0  0  0  0  0
   16.9582   -7.0332  -11.5304 C   0  0  0  0  0  0  0  0  0  0  0  0
   16.0045   -6.6094  -12.2874 O   0  0  0  0  0  0  0  0  0  0  0  0
   16.8215   -6.8083  -10.1891 N   0  0  0  0  0  0  0  0  0  0  0  0
   15.6562   -5.9675   -9.6606 C   0  0  1  0  0  0  0  0  0  0  0  0
   14.8474   -6.9999   -8.9627 C   0  0  0  0  0  0  0  0  0  0  0  0
   13.5653   -6.7178   -8.3334 C   0  0  0  0  0  0  0  0  0  0  0  0
   12.8057   -7.7735   -7.6151 C   0  0  0  0  0  0  0  0  0  0  0  0
   11.5156   -7.0486   -7.1056 C   0  0  0  0  0  0  0  0  0  0  0  0
   10.7652   -8.0795   -6.4184 N   0  0  0  0  0  0  0  0  0  0  0  0
   16.3665   -4.9954   -8.8231 C   0  0  0  0  0  0  0  0  0  0  0  0
   15.8126   -3.8187   -8.4120 O   0  0  0  0  0  0  0  0  0  0  0  0
   17.5431   -5.2190   -8.4514 O   0  0  0  0  0  0  0  0  0  0  0  0
  2  1  1  6
  2  3  1  0
  3  4  1  0
  4  5  1  0
  5  9  1  0
  6  5  2  0
  7  2  1  0
  7  8  2  0
 10  7  1  0
 11 10  1  0
 12 13  1  0
 11 12  1  6
 13 14  2  0
 14 15  1  0
 16 15  1  0
 17 13  1  0
 17 16  2  0
 18 11  1  0
 19 18  2  0
 20 18  1  0
 21 20  1  0
 21 22  1  1
 22 23  1  0
 24 25  1  0
 24 23  1  0
 25 26  1  0
 27 21  1  0
 28 27  1  0
 29 27  2  0
M  END
$$$$
