KTC.pdb
     RDKit          3D

 23 22  0  0  1  0  0  0  0  0999 V2000
   10.9775  -16.8667   19.0328 N   0  0  0  0  0  0  0  0  0  0  0  0
   11.2710  -17.4060   20.3843 C   0  0  1  0  0  0  0  0  0  0  0  0
   12.7693  -17.5375   20.4310 C   0  0  0  0  0  0  0  0  0  0  0  0
   13.3546  -18.0164   21.7006 C   0  0  0  0  0  0  0  0  0  0  0  0
   13.9305  -19.4041   21.6562 C   0  0  0  0  0  0  0  0  0  0  0  0
   14.4641  -19.8469   23.0017 C   0  0  0  0  0  0  0  0  0  0  0  0
   14.8340  -21.2482   22.9258 N   0  0  0  0  0  0  0  0  0  0  0  0
   10.8098  -16.3283   21.3331 C   0  0  0  0  0  0  0  0  0  0  0  0
   11.2471  -15.1839   21.1463 O   0  0  0  0  0  0  0  0  0  0  0  0
    7.3196  -15.2686   21.8218 C   0  0  0  0  0  0  0  0  0  0  0  0
    7.8519  -15.5710   23.2080 C   0  0  1  0  0  0  0  0  0  0  0  0
    7.2504  -16.7430   23.6147 O   0  0  0  0  0  0  0  0  0  0  0  0
    9.3335  -15.5741   23.2757 C   0  0  2  0  0  0  0  0  0  0  0  0
    9.9172  -16.5738   22.3990 N   0  0  0  0  0  0  0  0  0  0  0  0
    9.9339  -15.5452   24.6255 C   0  0  0  0  0  0  0  0  0  0  0  0
   10.7557  -16.4213   25.0214 O   0  0  0  0  0  0  0  0  0  0  0  0
    9.6044  -14.5179   25.5306 N   0  0  0  0  0  0  0  0  0  0  0  0
   10.1439  -14.5031   26.9026 C   0  0  1  0  0  0  0  0  0  0  0  0
    9.3935  -13.3982   27.6339 C   0  0  0  0  0  0  0  0  0  0  0  0
   10.0855  -13.2588   29.3016 S   0  0  0  0  0  0  0  0  0  0  0  0
    9.7371  -15.7892   27.5378 C   0  0  0  0  0  0  0  0  0  0  0  0
    8.5098  -16.3918   27.2233 O   0  0  0  0  0  0  0  0  0  0  0  0
   10.4560  -16.3810   28.3650 O   0  0  0  0  0  0  0  0  0  0  0  0
  2  8  1  0
  2  1  1  6
  3  2  1  0
  4  3  1  0
  5  6  1  0
  5  4  1  0
  6  7  1  0
  8 14  1  0
  9  8  2  0
 11 10  1  6
 11 13  1  0
 12 11  1  0
 13 14  1  1
 15 13  1  0
 16 15  2  0
 17 15  1  0
 18 17  1  0
 18 21  1  0
 18 19  1  1
 20 19  1  0
 21 22  1  0
 23 21  2  0
M  END
$$$$
