KTC.pdb
     RDKit          3D

 23 22  0  0  1  0  0  0  0  0999 V2000
   10.6942  -17.3729   18.9010 N   0  0  0  0  0  0  0  0  0  0  0  0
   10.4139  -17.8803   20.2675 C   0  0  1  0  0  0  0  0  0  0  0  0
   11.6552  -18.6335   20.6624 C   0  0  0  0  0  0  0  0  0  0  0  0
   12.9361  -18.1325   20.1221 C   0  0  0  0  0  0  0  0  0  0  0  0
   14.1268  -19.0132   20.3784 C   0  0  0  0  0  0  0  0  0  0  0  0
   15.4181  -18.3862   19.8982 C   0  0  0  0  0  0  0  0  0  0  0  0
   16.5194  -19.2821   20.1991 N   0  0  0  0  0  0  0  0  0  0  0  0
   10.2631  -16.6395   21.1113 C   0  0  0  0  0  0  0  0  0  0  0  0
   10.9634  -15.6620   20.8116 O   0  0  0  0  0  0  0  0  0  0  0  0
    7.0335  -14.6726   21.9117 C   0  0  0  0  0  0  0  0  0  0  0  0
    7.7050  -15.0917   23.2040 C   0  0  1  0  0  0  0  0  0  0  0  0
    6.9532  -16.1245   23.7225 O   0  0  0  0  0  0  0  0  0  0  0  0
    9.1483  -15.3915   23.0405 C   0  0  2  0  0  0  0  0  0  0  0  0
    9.3715  -16.5565   22.2028 N   0  0  0  0  0  0  0  0  0  0  0  0
    9.9699  -15.3774   24.2685 C   0  0  0  0  0  0  0  0  0  0  0  0
   11.1636  -14.9595   24.2815 O   0  0  0  0  0  0  0  0  0  0  0  0
    9.4366  -15.8360   25.4885 N   0  0  0  0  0  0  0  0  0  0  0  0
   10.0328  -15.4475   26.7798 C   0  0  1  0  0  0  0  0  0  0  0  0
    9.5822  -14.0152   27.0330 C   0  0  0  0  0  0  0  0  0  0  0  0
   10.2212  -13.5033   28.6483 S   0  0  0  0  0  0  0  0  0  0  0  0
    9.3832  -16.2910   27.8235 C   0  0  0  0  0  0  0  0  0  0  0  0
   10.0857  -16.6843   28.9724 O   0  0  0  0  0  0  0  0  0  0  0  0
    8.2041  -16.6808   27.7271 O   0  0  0  0  0  0  0  0  0  0  0  0
  2  8  1  0
  2  1  1  6
  3  2  1  0
  4  3  1  0
  5  6  1  0
  5  4  1  0
  6  7  1  0
  8 14  1  0
  9  8  2  0
 11 10  1  6
 11 13  1  0
 12 11  1  0
 13 14  1  1
 15 13  1  0
 16 15  2  0
 17 15  1  0
 18 17  1  0
 18 21  1  0
 18 19  1  1
 20 19  1  0
 21 22  1  0
 23 21  2  0
M  END
$$$$
