KTC.pdb
     RDKit          3D

 23 22  0  0  1  0  0  0  0  0999 V2000
   10.2040  -18.6288   19.8986 N   0  0  0  0  0  0  0  0  0  0  0  0
   11.1467  -18.2356   20.9756 C   0  0  1  0  0  0  0  0  0  0  0  0
   12.1765  -17.3764   20.2933 C   0  0  0  0  0  0  0  0  0  0  0  0
   13.4362  -18.0389   19.8958 C   0  0  0  0  0  0  0  0  0  0  0  0
   14.3605  -17.2038   19.0546 C   0  0  0  0  0  0  0  0  0  0  0  0
   15.5770  -17.9792   18.5964 C   0  0  0  0  0  0  0  0  0  0  0  0
   16.3634  -17.1436   17.7079 N   0  0  0  0  0  0  0  0  0  0  0  0
   10.3176  -17.4064   21.9239 C   0  0  0  0  0  0  0  0  0  0  0  0
    9.7227  -16.4283   21.4496 O   0  0  0  0  0  0  0  0  0  0  0  0
    7.2686  -17.8183   23.2900 C   0  0  0  0  0  0  0  0  0  0  0  0
    8.1045  -17.6194   24.5382 C   0  0  1  0  0  0  0  0  0  0  0  0
    8.1902  -18.8490   25.1559 O   0  0  0  0  0  0  0  0  0  0  0  0
    9.4077  -16.9643   24.2689 C   0  0  2  0  0  0  0  0  0  0  0  0
   10.1983  -17.7017   23.2993 N   0  0  0  0  0  0  0  0  0  0  0  0
   10.1792  -16.5174   25.4470 C   0  0  0  0  0  0  0  0  0  0  0  0
   11.2998  -17.0173   25.7538 O   0  0  0  0  0  0  0  0  0  0  0  0
    9.6811  -15.4975   26.2806 N   0  0  0  0  0  0  0  0  0  0  0  0
   10.4096  -15.0713   27.4894 C   0  0  1  0  0  0  0  0  0  0  0  0
    9.6134  -13.9096   28.0683 C   0  0  0  0  0  0  0  0  0  0  0  0
   10.4653  -13.3331   29.5588 S   0  0  0  0  0  0  0  0  0  0  0  0
   10.3072  -16.1904   28.4692 C   0  0  0  0  0  0  0  0  0  0  0  0
   11.3347  -16.4366   29.3921 O   0  0  0  0  0  0  0  0  0  0  0  0
    9.3199  -16.9485   28.5146 O   0  0  0  0  0  0  0  0  0  0  0  0
  2  8  1  0
  2  1  1  6
  3  2  1  0
  4  3  1  0
  5  6  1  0
  5  4  1  0
  6  7  1  0
  8 14  1  0
  9  8  2  0
 11 10  1  6
 11 13  1  0
 12 11  1  0
 13 14  1  1
 15 13  1  0
 16 15  2  0
 17 15  1  0
 18 17  1  0
 18 21  1  0
 18 19  1  1
 20 19  1  0
 21 22  1  0
 23 21  2  0
M  END
$$$$
