KTC.pdb
     RDKit          3D

 23 22  0  0  1  0  0  0  0  0999 V2000
   11.5747  -17.6836   19.7464 N   0  0  0  0  0  0  0  0  0  0  0  0
   11.5092  -17.5773   21.2255 C   0  0  1  0  0  0  0  0  0  0  0  0
   12.9336  -17.3649   21.6613 C   0  0  0  0  0  0  0  0  0  0  0  0
   13.9870  -17.7524   20.7001 C   0  0  0  0  0  0  0  0  0  0  0  0
   14.6739  -19.0564   20.9950 C   0  0  0  0  0  0  0  0  0  0  0  0
   16.0757  -18.8580   21.5307 C   0  0  0  0  0  0  0  0  0  0  0  0
   16.0218  -18.7793   22.9788 N   0  0  0  0  0  0  0  0  0  0  0  0
   10.6919  -16.3362   21.4825 C   0  0  0  0  0  0  0  0  0  0  0  0
   11.1290  -15.2670   21.0338 O   0  0  0  0  0  0  0  0  0  0  0  0
    7.3262  -15.4185   20.3495 C   0  0  0  0  0  0  0  0  0  0  0  0
    7.2854  -15.3431   21.8624 C   0  0  1  0  0  0  0  0  0  0  0  0
    6.5605  -16.4342   22.2925 O   0  0  0  0  0  0  0  0  0  0  0  0
    8.6287  -15.2054   22.4758 C   0  0  2  0  0  0  0  0  0  0  0  0
    9.4749  -16.3524   22.1979 N   0  0  0  0  0  0  0  0  0  0  0  0
    8.6700  -14.7651   23.8856 C   0  0  0  0  0  0  0  0  0  0  0  0
    9.2802  -15.4160   24.7822 O   0  0  0  0  0  0  0  0  0  0  0  0
    8.0197  -13.5806   24.2820 N   0  0  0  0  0  0  0  0  0  0  0  0
    7.9002  -13.2109   25.7043 C   0  0  1  0  0  0  0  0  0  0  0  0
    6.9179  -12.0484   25.7518 C   0  0  0  0  0  0  0  0  0  0  0  0
    6.7491  -11.5269   27.4779 S   0  0  0  0  0  0  0  0  0  0  0  0
    7.2396  -14.3573   26.3916 C   0  0  0  0  0  0  0  0  0  0  0  0
    6.1319  -14.9999   25.8188 O   0  0  0  0  0  0  0  0  0  0  0  0
    7.6334  -14.7926   27.4902 O   0  0  0  0  0  0  0  0  0  0  0  0
  2  8  1  0
  2  1  1  6
  3  2  1  0
  4  3  1  0
  5  6  1  0
  5  4  1  0
  6  7  1  0
  8 14  1  0
  9  8  2  0
 11 10  1  6
 11 13  1  0
 12 11  1  0
 13 14  1  1
 15 13  1  0
 16 15  2  0
 17 15  1  0
 18 17  1  0
 18 21  1  0
 18 19  1  6
 20 19  1  0
 21 22  1  0
 23 21  2  0
M  END
$$$$
