KTC.pdb
     RDKit          3D

 23 22  0  0  1  0  0  0  0  0999 V2000
    7.1506  -17.7402   16.7298 N   0  0  0  0  0  0  0  0  0  0  0  0
    6.5234  -17.2331   17.9760 C   0  0  1  0  0  0  0  0  0  0  0  0
    6.0190  -18.4620   18.6827 C   0  0  0  0  0  0  0  0  0  0  0  0
    6.9687  -19.5858   18.8202 C   0  0  0  0  0  0  0  0  0  0  0  0
    6.4356  -20.7886   19.5472 C   0  0  0  0  0  0  0  0  0  0  0  0
    7.4529  -21.9064   19.6298 C   0  0  0  0  0  0  0  0  0  0  0  0
    6.8864  -23.0062   20.3884 N   0  0  0  0  0  0  0  0  0  0  0  0
    7.6598  -16.6130   18.7496 C   0  0  0  0  0  0  0  0  0  0  0  0
    8.8048  -17.0098   18.4902 O   0  0  0  0  0  0  0  0  0  0  0  0
    7.7943  -12.7724   19.7235 C   0  0  0  0  0  0  0  0  0  0  0  0
    8.1836  -13.6177   20.9195 C   0  0  1  0  0  0  0  0  0  0  0  0
    7.1796  -13.4677   21.8524 O   0  0  0  0  0  0  0  0  0  0  0  0
    8.4991  -15.0224   20.5628 C   0  0  2  0  0  0  0  0  0  0  0  0
    7.4671  -15.6190   19.7334 N   0  0  0  0  0  0  0  0  0  0  0  0
    8.9564  -15.8971   21.6621 C   0  0  0  0  0  0  0  0  0  0  0  0
    8.2223  -16.7968   22.1636 O   0  0  0  0  0  0  0  0  0  0  0  0
   10.2523  -15.7547   22.1947 N   0  0  0  0  0  0  0  0  0  0  0  0
   10.7174  -16.5939   23.3141 C   0  0  1  0  0  0  0  0  0  0  0  0
   10.8482  -18.0032   22.7524 C   0  0  0  0  0  0  0  0  0  0  0  0
   11.8737  -17.9201   21.2620 S   0  0  0  0  0  0  0  0  0  0  0  0
   12.0966  -16.1372   23.6488 C   0  0  0  0  0  0  0  0  0  0  0  0
   12.7829  -16.6656   24.7524 O   0  0  0  0  0  0  0  0  0  0  0  0
   12.6963  -15.2781   22.9751 O   0  0  0  0  0  0  0  0  0  0  0  0
  2  8  1  0
  2  1  1  6
  3  2  1  0
  4  3  1  0
  5  6  1  0
  5  4  1  0
  6  7  1  0
  8 14  1  0
  9  8  2  0
 11 10  1  6
 11 13  1  0
 12 11  1  0
 13 14  1  1
 15 13  1  0
 16 15  2  0
 17 15  1  0
 18 17  1  0
 18 21  1  0
 18 19  1  6
 20 19  1  0
 21 22  1  0
 23 21  2  0
M  END
$$$$
