KTC.pdb
     RDKit          3D

 23 22  0  0  1  0  0  0  0  0999 V2000
    6.8083  -18.1670   20.0856 N   0  0  0  0  0  0  0  0  0  0  0  0
    6.3381  -16.9511   20.7954 C   0  0  1  0  0  0  0  0  0  0  0  0
    4.8461  -17.1164   20.8987 C   0  0  0  0  0  0  0  0  0  0  0  0
    4.2323  -18.1546   20.0449 C   0  0  0  0  0  0  0  0  0  0  0  0
    3.1017  -18.9169   20.6773 C   0  0  0  0  0  0  0  0  0  0  0  0
    2.4930  -19.9298   19.7315 C   0  0  0  0  0  0  0  0  0  0  0  0
    1.5034  -20.7120   20.4493 N   0  0  0  0  0  0  0  0  0  0  0  0
    6.9710  -17.0385   22.1614 C   0  0  0  0  0  0  0  0  0  0  0  0
    6.4243  -17.7773   22.9928 O   0  0  0  0  0  0  0  0  0  0  0  0
    9.9238  -18.5106   23.1989 C   0  0  0  0  0  0  0  0  0  0  0  0
   10.0797  -17.1097   23.7551 C   0  0  1  0  0  0  0  0  0  0  0  0
   11.0814  -16.5048   23.0261 O   0  0  0  0  0  0  0  0  0  0  0  0
    8.8028  -16.3568   23.8051 C   0  0  2  0  0  0  0  0  0  0  0  0
    8.1374  -16.3260   22.5148 N   0  0  0  0  0  0  0  0  0  0  0  0
    8.8336  -15.0471   24.4884 C   0  0  0  0  0  0  0  0  0  0  0  0
    9.2250  -13.9907   23.9132 O   0  0  0  0  0  0  0  0  0  0  0  0
    8.4168  -14.9320   25.8286 N   0  0  0  0  0  0  0  0  0  0  0  0
    8.7523  -13.7452   26.6364 C   0  0  1  0  0  0  0  0  0  0  0  0
    7.4241  -13.1880   27.1304 C   0  0  0  0  0  0  0  0  0  0  0  0
    6.4768  -12.6354   25.6892 S   0  0  0  0  0  0  0  0  0  0  0  0
    9.4834  -14.2372   27.8390 C   0  0  0  0  0  0  0  0  0  0  0  0
    9.7895  -15.5980   27.9897 O   0  0  0  0  0  0  0  0  0  0  0  0
    9.8517  -13.4757   28.7533 O   0  0  0  0  0  0  0  0  0  0  0  0
  2  8  1  0
  2  1  1  6
  3  2  1  0
  4  3  1  0
  5  6  1  0
  5  4  1  0
  6  7  1  0
  8 14  1  0
  9  8  2  0
 11 10  1  6
 11 13  1  0
 12 11  1  0
 13 14  1  6
 15 13  1  0
 16 15  2  0
 17 15  1  0
 18 17  1  0
 18 21  1  0
 18 19  1  1
 20 19  1  0
 21 22  1  0
 23 21  2  0
M  END
$$$$
