KTC.pdb
     RDKit          3D

 23 22  0  0  1  0  0  0  0  0999 V2000
   10.1644  -17.7431   19.0822 N   0  0  0  0  0  0  0  0  0  0  0  0
   10.8374  -17.8050   20.4038 C   0  0  1  0  0  0  0  0  0  0  0  0
   12.2577  -17.3874   20.1344 C   0  0  0  0  0  0  0  0  0  0  0  0
   12.9151  -17.9909   18.9565 C   0  0  0  0  0  0  0  0  0  0  0  0
   14.3824  -17.6941   18.8209 C   0  0  0  0  0  0  0  0  0  0  0  0
   15.2312  -18.9442   18.9110 C   0  0  0  0  0  0  0  0  0  0  0  0
   16.6142  -18.5972   18.6407 N   0  0  0  0  0  0  0  0  0  0  0  0
   10.1345  -16.7641   21.2386 C   0  0  0  0  0  0  0  0  0  0  0  0
    9.1259  -16.2339   20.7515 O   0  0  0  0  0  0  0  0  0  0  0  0
    7.6835  -16.3865   22.3975 C   0  0  0  0  0  0  0  0  0  0  0  0
    8.4476  -16.2427   23.6982 C   0  0  1  0  0  0  0  0  0  0  0  0
    8.4226  -17.4784   24.3092 O   0  0  0  0  0  0  0  0  0  0  0  0
    9.8008  -15.6628   23.5185 C   0  0  2  0  0  0  0  0  0  0  0  0
   10.5756  -16.3849   22.5249 N   0  0  0  0  0  0  0  0  0  0  0  0
   10.5563  -15.3528   24.7498 C   0  0  0  0  0  0  0  0  0  0  0  0
   11.5189  -14.5325   24.7668 O   0  0  0  0  0  0  0  0  0  0  0  0
   10.2186  -15.9721   25.9686 N   0  0  0  0  0  0  0  0  0  0  0  0
   10.6370  -15.3994   27.2611 C   0  0  1  0  0  0  0  0  0  0  0  0
    9.8625  -14.0969   27.4102 C   0  0  0  0  0  0  0  0  0  0  0  0
   10.3489  -13.3313   28.9777 S   0  0  0  0  0  0  0  0  0  0  0  0
   10.1344  -16.3195   28.3211 C   0  0  0  0  0  0  0  0  0  0  0  0
   10.8684  -16.5331   29.4974 O   0  0  0  0  0  0  0  0  0  0  0  0
    9.0557  -16.9332   28.2148 O   0  0  0  0  0  0  0  0  0  0  0  0
  2  8  1  0
  2  1  1  6
  3  2  1  0
  4  3  1  0
  5  6  1  0
  5  4  1  0
  6  7  1  0
  8 14  1  0
  9  8  2  0
 11 10  1  6
 11 13  1  0
 12 11  1  0
 13 14  1  6
 15 13  1  0
 16 15  2  0
 17 15  1  0
 18 17  1  0
 18 21  1  0
 18 19  1  1
 20 19  1  0
 21 22  1  0
 23 21  2  0
M  END
$$$$
