KTC.pdb
     RDKit          3D

 23 22  0  0  1  0  0  0  0  0999 V2000
   -1.7837  -28.9099   31.1361 N   0  0  0  0  0  0  0  0  0  0  0  0
   -3.1411  -28.4944   31.5701 C   0  0  1  0  0  0  0  0  0  0  0  0
   -2.9660  -28.0227   32.9883 C   0  0  0  0  0  0  0  0  0  0  0  0
   -2.6973  -29.0609   34.0050 C   0  0  0  0  0  0  0  0  0  0  0  0
   -2.3919  -28.5433   35.3827 C   0  0  0  0  0  0  0  0  0  0  0  0
   -2.2643  -29.6577   36.3990 C   0  0  0  0  0  0  0  0  0  0  0  0
   -1.9632  -29.0821   37.6967 N   0  0  0  0  0  0  0  0  0  0  0  0
   -3.4902  -27.3347   30.6715 C   0  0  0  0  0  0  0  0  0  0  0  0
   -2.5499  -26.6729   30.2095 O   0  0  0  0  0  0  0  0  0  0  0  0
   -5.2880  -27.2628   27.4593 C   0  0  0  0  0  0  0  0  0  0  0  0
   -6.0284  -26.2879   28.3526 C   0  0  1  0  0  0  0  0  0  0  0  0
   -7.2430  -26.8688   28.6493 O   0  0  0  0  0  0  0  0  0  0  0  0
   -5.2366  -25.8605   29.5316 C   0  0  2  0  0  0  0  0  0  0  0  0
   -4.8196  -26.9883   30.3459 N   0  0  0  0  0  0  0  0  0  0  0  0
   -5.7750  -24.7296   30.3152 C   0  0  0  0  0  0  0  0  0  0  0  0
   -6.2636  -24.8776   31.4725 O   0  0  0  0  0  0  0  0  0  0  0  0
   -5.7579  -23.4241   29.7874 N   0  0  0  0  0  0  0  0  0  0  0  0
   -6.2714  -22.2782   30.5600 C   0  0  1  0  0  0  0  0  0  0  0  0
   -5.2811  -21.1442   30.3321 C   0  0  0  0  0  0  0  0  0  0  0  0
   -4.9807  -21.0113   28.5511 S   0  0  0  0  0  0  0  0  0  0  0  0
   -7.5507  -21.8648   29.9155 C   0  0  0  0  0  0  0  0  0  0  0  0
   -8.3354  -20.8392   30.4637 O   0  0  0  0  0  0  0  0  0  0  0  0
   -7.9775  -22.4017   28.8757 O   0  0  0  0  0  0  0  0  0  0  0  0
  2  8  1  0
  2  1  1  6
  3  2  1  0
  4  3  1  0
  5  6  1  0
  5  4  1  0
  6  7  1  0
  8 14  1  0
  9  8  2  0
 11 10  1  1
 11 13  1  0
 12 11  1  0
 13 14  1  1
 15 13  1  0
 16 15  2  0
 17 15  1  0
 18 17  1  0
 18 21  1  0
 18 19  1  6
 20 19  1  0
 21 22  1  0
 23 21  2  0
M  END
$$$$
