KTC.pdb
     RDKit          3D

 23 22  0  0  1  0  0  0  0  0999 V2000
    4.5304  -18.5405   22.8221 N   0  0  0  0  0  0  0  0  0  0  0  0
    5.3236  -19.4694   23.6656 C   0  0  1  0  0  0  0  0  0  0  0  0
    5.4065  -20.7418   22.8666 C   0  0  0  0  0  0  0  0  0  0  0  0
    4.4120  -21.7888   23.1802 C   0  0  0  0  0  0  0  0  0  0  0  0
    4.5316  -23.0484   22.3688 C   0  0  0  0  0  0  0  0  0  0  0  0
    3.5118  -24.0910   22.7742 C   0  0  0  0  0  0  0  0  0  0  0  0
    3.7255  -25.2921   21.9883 N   0  0  0  0  0  0  0  0  0  0  0  0
    6.6833  -18.8250   23.7674 C   0  0  0  0  0  0  0  0  0  0  0  0
    7.5835  -19.4839   24.3069 O   0  0  0  0  0  0  0  0  0  0  0  0
    8.9193  -17.7048   21.1460 C   0  0  0  0  0  0  0  0  0  0  0  0
    8.7887  -16.4966   22.0514 C   0  0  1  0  0  0  0  0  0  0  0  0
    8.0874  -15.5454   21.3413 O   0  0  0  0  0  0  0  0  0  0  0  0
    8.2230  -16.8241   23.3827 C   0  0  2  0  0  0  0  0  0  0  0  0
    6.9577  -17.5292   23.2788 N   0  0  0  0  0  0  0  0  0  0  0  0
    8.2165  -15.7377   24.3840 C   0  0  0  0  0  0  0  0  0  0  0  0
    7.2875  -14.8818   24.4506 O   0  0  0  0  0  0  0  0  0  0  0  0
    9.2654  -15.6209   25.3164 N   0  0  0  0  0  0  0  0  0  0  0  0
    9.3887  -14.4376   26.1871 C   0  0  1  0  0  0  0  0  0  0  0  0
    8.2204  -14.5129   27.1608 C   0  0  0  0  0  0  0  0  0  0  0  0
    8.4457  -13.2197   28.4084 S   0  0  0  0  0  0  0  0  0  0  0  0
   10.6294  -14.6248   26.9925 C   0  0  0  0  0  0  0  0  0  0  0  0
   11.1623  -13.5714   27.7505 O   0  0  0  0  0  0  0  0  0  0  0  0
   11.2426  -15.7083   27.0304 O   0  0  0  0  0  0  0  0  0  0  0  0
  2  8  1  0
  2  1  1  6
  3  2  1  0
  4  3  1  0
  5  6  1  0
  5  4  1  0
  6  7  1  0
  8 14  1  0
  9  8  2  0
 11 10  1  6
 11 13  1  0
 12 11  1  0
 13 14  1  6
 15 13  1  0
 16 15  2  0
 17 15  1  0
 18 17  1  0
 18 21  1  0
 18 19  1  1
 20 19  1  0
 21 22  1  0
 23 21  2  0
M  END
$$$$
