KTC.pdb
     RDKit          3D

 23 22  0  0  1  0  0  0  0  0999 V2000
    6.2143  -20.0344   21.3553 N   0  0  0  0  0  0  0  0  0  0  0  0
    5.5928  -19.0515   22.2778 C   0  0  1  0  0  0  0  0  0  0  0  0
    4.9588  -19.8836   23.3594 C   0  0  0  0  0  0  0  0  0  0  0  0
    5.2006  -21.3404   23.3041 C   0  0  0  0  0  0  0  0  0  0  0  0
    6.1809  -21.8650   24.3156 C   0  0  0  0  0  0  0  0  0  0  0  0
    6.3577  -23.3652   24.2186 C   0  0  0  0  0  0  0  0  0  0  0  0
    7.3420  -23.7896   25.1969 N   0  0  0  0  0  0  0  0  0  0  0  0
    6.7527  -18.2645   22.8341 C   0  0  0  0  0  0  0  0  0  0  0  0
    7.4771  -18.8329   23.6634 O   0  0  0  0  0  0  0  0  0  0  0  0
    9.6638  -17.1722   21.2073 C   0  0  0  0  0  0  0  0  0  0  0  0
    9.1453  -15.8925   21.8318 C   0  0  1  0  0  0  0  0  0  0  0  0
    8.6999  -15.0998   20.7953 O   0  0  0  0  0  0  0  0  0  0  0  0
    8.1520  -16.1294   22.9074 C   0  0  2  0  0  0  0  0  0  0  0  0
    7.0345  -16.9357   22.4494 N   0  0  0  0  0  0  0  0  0  0  0  0
    7.7476  -14.9531   23.7049 C   0  0  0  0  0  0  0  0  0  0  0  0
    6.9861  -14.0526   23.2477 O   0  0  0  0  0  0  0  0  0  0  0  0
    8.2052  -14.7968   25.0275 N   0  0  0  0  0  0  0  0  0  0  0  0
    7.8233  -13.6255   25.8373 C   0  0  1  0  0  0  0  0  0  0  0  0
    6.3377  -13.7872   26.1296 C   0  0  0  0  0  0  0  0  0  0  0  0
    5.8691  -12.5425   27.3588 S   0  0  0  0  0  0  0  0  0  0  0  0
    8.5326  -13.7561   27.1422 C   0  0  0  0  0  0  0  0  0  0  0  0
    8.5665  -12.6904   28.0539 O   0  0  0  0  0  0  0  0  0  0  0  0
    9.1199  -14.8012   27.4801 O   0  0  0  0  0  0  0  0  0  0  0  0
  2  8  1  0
  2  1  1  6
  3  2  1  0
  4  3  1  0
  5  6  1  0
  5  4  1  0
  6  7  1  0
  8 14  1  0
  9  8  2  0
 11 10  1  6
 11 13  1  0
 12 11  1  0
 13 14  1  6
 15 13  1  0
 16 15  2  0
 17 15  1  0
 18 17  1  0
 18 21  1  0
 18 19  1  1
 20 19  1  0
 21 22  1  0
 23 21  2  0
M  END
$$$$
