KTC.pdb
     RDKit          3D

 23 22  0  0  1  0  0  0  0  0999 V2000
   10.4215  -14.2975   19.3558 N   0  0  0  0  0  0  0  0  0  0  0  0
    9.6295  -13.2569   20.0582 C   0  0  1  0  0  0  0  0  0  0  0  0
    8.5490  -12.8708   19.0848 C   0  0  0  0  0  0  0  0  0  0  0  0
    8.0347  -13.9408   18.2047 C   0  0  0  0  0  0  0  0  0  0  0  0
    8.5396  -13.9029   16.7895 C   0  0  0  0  0  0  0  0  0  0  0  0
    7.9159  -14.9807   15.9289 C   0  0  0  0  0  0  0  0  0  0  0  0
    8.5976  -15.0168   14.6483 N   0  0  0  0  0  0  0  0  0  0  0  0
    9.0341  -13.9688   21.2469 C   0  0  0  0  0  0  0  0  0  0  0  0
    8.1210  -13.3916   21.8540 O   0  0  0  0  0  0  0  0  0  0  0  0
    7.7753  -17.6030   21.4426 C   0  0  0  0  0  0  0  0  0  0  0  0
    8.7509  -17.3832   22.5811 C   0  0  1  0  0  0  0  0  0  0  0  0
    9.8732  -18.1288   22.2886 O   0  0  0  0  0  0  0  0  0  0  0  0
    9.0094  -15.9494   22.8589 C   0  0  2  0  0  0  0  0  0  0  0  0
    9.4706  -15.2401   21.6787 N   0  0  0  0  0  0  0  0  0  0  0  0
    9.7859  -15.6415   24.0777 C   0  0  0  0  0  0  0  0  0  0  0  0
   11.0274  -15.4013   24.0486 O   0  0  0  0  0  0  0  0  0  0  0  0
    9.1534  -15.6024   25.3352 N   0  0  0  0  0  0  0  0  0  0  0  0
    9.8996  -15.2532   26.5579 C   0  0  1  0  0  0  0  0  0  0  0  0
    8.9230  -14.4836   27.4370 C   0  0  0  0  0  0  0  0  0  0  0  0
    9.8380  -13.8383   28.8603 S   0  0  0  0  0  0  0  0  0  0  0  0
   10.1917  -16.5340   27.2630 C   0  0  0  0  0  0  0  0  0  0  0  0
   11.3297  -16.6679   28.0724 O   0  0  0  0  0  0  0  0  0  0  0  0
    9.4510  -17.5310   27.1687 O   0  0  0  0  0  0  0  0  0  0  0  0
  2  8  1  0
  2  1  1  6
  3  2  1  0
  4  3  1  0
  5  6  1  0
  5  4  1  0
  6  7  1  0
  8 14  1  0
  9  8  2  0
 11 10  1  6
 11 13  1  0
 12 11  1  0
 13 14  1  6
 15 13  1  0
 16 15  2  0
 17 15  1  0
 18 17  1  0
 18 21  1  0
 18 19  1  1
 20 19  1  0
 21 22  1  0
 23 21  2  0
M  END
$$$$
