EGL.pdb
     RDKit          3D

 22 21  0  0  1  0  0  0  0  0999 V2000
    9.9275  -18.4611   20.0446 N   0  0  0  0  0  0  0  0  0  0  0  0
    9.7312  -17.0251   19.8348 C   0  0  1  0  0  0  0  0  0  0  0  0
    8.8788  -16.8940   18.6000 C   0  0  0  0  0  0  0  0  0  0  0  0
    8.3741  -18.1677   18.0313 C   0  0  0  0  0  0  0  0  0  0  0  0
    7.6457  -17.9962   16.7829 C   0  0  0  0  0  0  0  0  0  0  0  0
    6.4147  -18.1967   16.7005 O   0  0  0  0  0  0  0  0  0  0  0  0
    8.9369  -16.4369   20.9511 C   0  0  0  0  0  0  0  0  0  0  0  0
    8.7106  -15.1999   20.9281 O   0  0  0  0  0  0  0  0  0  0  0  0
    8.2684  -17.5951   15.5850 O   0  0  0  0  0  0  0  0  0  0  0  0
    8.4276  -17.1911   22.0276 N   0  0  0  0  0  0  0  0  0  0  0  0
    7.5788  -16.5393   22.9947 C   0  0  0  0  0  0  0  0  0  0  0  0
    8.3501  -15.8884   24.0788 C   0  0  0  0  0  0  0  0  0  0  0  0
    9.6135  -15.9764   24.0838 O   0  0  0  0  0  0  0  0  0  0  0  0
    5.7040  -12.0506   26.8117 C   0  0  0  0  0  0  0  0  0  0  0  0
    6.7417  -12.7861   25.9070 C   0  0  1  0  0  0  0  0  0  0  0  0
    7.2999  -11.7258   24.9718 C   0  0  0  0  0  0  0  0  0  0  0  0
    7.7888  -13.3845   26.7480 C   0  0  0  0  0  0  0  0  0  0  0  0
    8.6091  -14.4522   26.1680 C   0  0  2  0  0  0  0  0  0  0  0  0
    7.7728  -15.1606   25.1314 N   0  0  0  0  0  0  0  0  0  0  0  0
    9.1403  -15.5363   26.9650 C   0  0  0  0  0  0  0  0  0  0  0  0
   10.1979  -15.3645   27.8333 O   0  0  0  0  0  0  0  0  0  0  0  0
    8.6856  -16.7374   26.9247 O   0  0  0  0  0  0  0  0  0  0  0  0
  2  1  1  1
  2  3  1  0
  3  4  1  0
  5  4  1  0
  5  6  2  0
  7  2  1  0
  7  8  2  0
  9  5  1  0
 10  7  1  0
 11 10  1  0
 11 12  1  0
 12 19  1  0
 13 12  2  0
 15 14  1  1
 15 16  1  0
 17 15  1  0
 18 17  1  1
 19 18  1  0
 20 18  1  0
 20 21  1  0
 22 20  2  0
M  END
$$$$
