EGL.pdb
     RDKit          3D

 22 21  0  0  1  0  0  0  0  0999 V2000
    6.9411  -18.0249   20.9897 N   0  0  0  0  0  0  0  0  0  0  0  0
    8.3726  -18.0959   20.6895 C   0  0  1  0  0  0  0  0  0  0  0  0
    8.4906  -18.0326   19.1893 C   0  0  0  0  0  0  0  0  0  0  0  0
    7.6334  -18.9822   18.4383 C   0  0  0  0  0  0  0  0  0  0  0  0
    7.8044  -18.9001   16.9952 C   0  0  0  0  0  0  0  0  0  0  0  0
    7.1098  -19.5759   16.2057 O   0  0  0  0  0  0  0  0  0  0  0  0
    9.0773  -16.8902   21.2119 C   0  0  0  0  0  0  0  0  0  0  0  0
   10.3350  -16.8969   21.2185 O   0  0  0  0  0  0  0  0  0  0  0  0
    8.7570  -18.0605   16.3862 O   0  0  0  0  0  0  0  0  0  0  0  0
    8.4110  -15.7468   21.6974 N   0  0  0  0  0  0  0  0  0  0  0  0
    9.1945  -14.6187   22.1379 C   0  0  0  0  0  0  0  0  0  0  0  0
    9.3169  -14.5544   23.6126 C   0  0  0  0  0  0  0  0  0  0  0  0
   10.1570  -13.7627   24.1339 O   0  0  0  0  0  0  0  0  0  0  0  0
    5.4912  -12.8196   26.1460 C   0  0  0  0  0  0  0  0  0  0  0  0
    6.9755  -13.1691   25.8125 C   0  0  1  0  0  0  0  0  0  0  0  0
    7.8102  -12.0574   26.4272 C   0  0  0  0  0  0  0  0  0  0  0  0
    7.3088  -14.4847   26.3779 C   0  0  0  0  0  0  0  0  0  0  0  0
    8.5854  -15.0943   25.9933 C   0  0  2  0  0  0  0  0  0  0  0  0
    8.5523  -15.3249   24.5028 N   0  0  0  0  0  0  0  0  0  0  0  0
    9.0201  -16.3703   26.5181 C   0  0  0  0  0  0  0  0  0  0  0  0
    9.4079  -16.5348   27.8313 O   0  0  0  0  0  0  0  0  0  0  0  0
    9.0914  -17.4420   25.8129 O   0  0  0  0  0  0  0  0  0  0  0  0
  2  1  1  6
  2  3  1  0
  3  4  1  0
  5  4  1  0
  5  6  2  0
  7  2  1  0
  7  8  2  0
  9  5  1  0
 10  7  1  0
 11 10  1  0
 11 12  1  0
 12 19  1  0
 13 12  2  0
 15 14  1  1
 15 16  1  0
 17 15  1  0
 18 17  1  1
 19 18  1  0
 20 18  1  0
 20 21  1  0
 22 20  2  0
M  END
$$$$
