EGL.pdb
     RDKit          3D

 22 21  0  0  1  0  0  0  0  0999 V2000
   11.1934  -18.3325   20.4634 N   0  0  0  0  0  0  0  0  0  0  0  0
   10.7234  -17.1368   19.7607 C   0  0  1  0  0  0  0  0  0  0  0  0
   10.1192  -17.6197   18.4683 C   0  0  0  0  0  0  0  0  0  0  0  0
   10.7977  -18.7778   17.8368 C   0  0  0  0  0  0  0  0  0  0  0  0
   10.1591  -19.2234   16.6071 C   0  0  0  0  0  0  0  0  0  0  0  0
   10.5754  -18.8769   15.4805 O   0  0  0  0  0  0  0  0  0  0  0  0
    9.6163  -16.4859   20.5181 C   0  0  0  0  0  0  0  0  0  0  0  0
    9.0609  -15.4802   20.0062 O   0  0  0  0  0  0  0  0  0  0  0  0
    9.0342  -20.0707   16.5951 O   0  0  0  0  0  0  0  0  0  0  0  0
    9.1602  -16.9363   21.7736 N   0  0  0  0  0  0  0  0  0  0  0  0
    8.1055  -16.2071   22.4341 C   0  0  0  0  0  0  0  0  0  0  0  0
    8.5540  -15.5841   23.7008 C   0  0  0  0  0  0  0  0  0  0  0  0
    9.7922  -15.5201   23.9594 O   0  0  0  0  0  0  0  0  0  0  0  0
    7.2758  -11.9370   24.6810 C   0  0  0  0  0  0  0  0  0  0  0  0
    7.1667  -12.1626   26.2216 C   0  0  1  0  0  0  0  0  0  0  0  0
    5.8869  -11.4647   26.6521 C   0  0  0  0  0  0  0  0  0  0  0  0
    7.1292  -13.6049   26.5049 C   0  0  0  0  0  0  0  0  0  0  0  0
    8.1978  -14.4418   25.9509 C   0  0  2  0  0  0  0  0  0  0  0  0
    7.6883  -15.0435   24.6647 N   0  0  0  0  0  0  0  0  0  0  0  0
    8.7325  -15.5818   26.6631 C   0  0  0  0  0  0  0  0  0  0  0  0
    9.7428  -15.4628   27.5942 O   0  0  0  0  0  0  0  0  0  0  0  0
    8.3249  -16.7871   26.4837 O   0  0  0  0  0  0  0  0  0  0  0  0
  2  1  1  1
  2  3  1  0
  3  4  1  0
  5  4  1  0
  5  6  2  0
  7  2  1  0
  7  8  2  0
  9  5  1  0
 10  7  1  0
 11 10  1  0
 11 12  1  0
 12 19  1  0
 13 12  2  0
 15 14  1  6
 15 16  1  0
 17 15  1  0
 18 17  1  1
 19 18  1  0
 20 18  1  0
 20 21  1  0
 22 20  2  0
M  END
$$$$
