EGL.pdb
     RDKit          3D

 22 21  0  0  1  0  0  0  0  0999 V2000
    8.4215  -18.3038   18.8859 N   0  0  0  0  0  0  0  0  0  0  0  0
    8.3557  -19.3841   19.8723 C   0  0  1  0  0  0  0  0  0  0  0  0
    9.7817  -19.7464   20.1941 C   0  0  0  0  0  0  0  0  0  0  0  0
   10.8182  -18.9027   19.5504 C   0  0  0  0  0  0  0  0  0  0  0  0
   12.1782  -19.3103   19.8711 C   0  0  0  0  0  0  0  0  0  0  0  0
   12.5048  -19.6861   21.0177 O   0  0  0  0  0  0  0  0  0  0  0  0
    7.7551  -18.8939   21.1459 C   0  0  0  0  0  0  0  0  0  0  0  0
    7.5939  -19.7202   22.0803 O   0  0  0  0  0  0  0  0  0  0  0  0
   13.2185  -19.3116   18.9218 O   0  0  0  0  0  0  0  0  0  0  0  0
    7.3596  -17.5575   21.3580 N   0  0  0  0  0  0  0  0  0  0  0  0
    6.6987  -17.2144   22.5932 C   0  0  0  0  0  0  0  0  0  0  0  0
    7.5090  -16.3056   23.4366 C   0  0  0  0  0  0  0  0  0  0  0  0
    8.6751  -15.9827   23.0622 O   0  0  0  0  0  0  0  0  0  0  0  0
    8.0425  -11.4666   25.2219 C   0  0  0  0  0  0  0  0  0  0  0  0
    7.1257  -12.2957   26.1749 C   0  0  1  0  0  0  0  0  0  0  0  0
    5.9347  -11.4029   26.4832 C   0  0  0  0  0  0  0  0  0  0  0  0
    6.7214  -13.5411   25.5062 C   0  0  0  0  0  0  0  0  0  0  0  0
    7.7467  -14.5648   25.2825 C   0  0  2  0  0  0  0  0  0  0  0  0
    7.0724  -15.7588   24.6536 N   0  0  0  0  0  0  0  0  0  0  0  0
    8.5072  -15.1451   26.3678 C   0  0  0  0  0  0  0  0  0  0  0  0
    8.0268  -16.1890   27.1301 O   0  0  0  0  0  0  0  0  0  0  0  0
    9.6744  -14.7360   26.7161 O   0  0  0  0  0  0  0  0  0  0  0  0
  2  1  1  6
  2  3  1  0
  3  4  1  0
  5  4  1  0
  5  6  2  0
  7  2  1  0
  7  8  2  0
  9  5  1  0
 10  7  1  0
 11 10  1  0
 11 12  1  0
 12 19  1  0
 13 12  2  0
 15 14  1  6
 15 16  1  0
 17 15  1  0
 18 17  1  1
 19 18  1  0
 20 18  1  0
 20 21  1  0
 22 20  2  0
M  END
$$$$
