EGL.pdb
     RDKit          3D

 22 21  0  0  1  0  0  0  0  0999 V2000
   11.4408  -16.7878   20.5042 N   0  0  0  0  0  0  0  0  0  0  0  0
   10.1060  -17.0226   19.9498 C   0  0  1  0  0  0  0  0  0  0  0  0
   10.0389  -18.4917   19.6246 C   0  0  0  0  0  0  0  0  0  0  0  0
   11.0128  -18.9693   18.6127 C   0  0  0  0  0  0  0  0  0  0  0  0
   10.8931  -20.3898   18.3189 C   0  0  0  0  0  0  0  0  0  0  0  0
   10.9397  -20.8315   17.1504 O   0  0  0  0  0  0  0  0  0  0  0  0
    9.0596  -16.7787   20.9835 C   0  0  0  0  0  0  0  0  0  0  0  0
    8.7689  -17.7209   21.7645 O   0  0  0  0  0  0  0  0  0  0  0  0
   10.7174  -21.3641   19.3205 O   0  0  0  0  0  0  0  0  0  0  0  0
    8.3808  -15.5522   21.1319 N   0  0  0  0  0  0  0  0  0  0  0  0
    7.4110  -15.4165   22.1909 C   0  0  0  0  0  0  0  0  0  0  0  0
    8.0415  -15.1845   23.5110 C   0  0  0  0  0  0  0  0  0  0  0  0
    9.2995  -15.0587   23.5869 O   0  0  0  0  0  0  0  0  0  0  0  0
    5.5259  -11.8832   26.7934 C   0  0  0  0  0  0  0  0  0  0  0  0
    6.6454  -12.5958   25.9719 C   0  0  1  0  0  0  0  0  0  0  0  0
    7.7389  -11.5583   25.7764 C   0  0  0  0  0  0  0  0  0  0  0  0
    7.1270  -13.7699   26.7144 C   0  0  0  0  0  0  0  0  0  0  0  0
    8.0058  -14.7121   26.0149 C   0  0  2  0  0  0  0  0  0  0  0  0
    7.3326  -15.0906   24.7190 N   0  0  0  0  0  0  0  0  0  0  0  0
    8.3756  -15.9898   26.5838 C   0  0  0  0  0  0  0  0  0  0  0  0
    9.3583  -16.1137   27.5434 O   0  0  0  0  0  0  0  0  0  0  0  0
    7.8352  -17.1039   26.2406 O   0  0  0  0  0  0  0  0  0  0  0  0
  2  1  1  1
  2  3  1  0
  3  4  1  0
  5  4  1  0
  5  6  2  0
  7  2  1  0
  7  8  2  0
  9  5  1  0
 10  7  1  0
 11 10  1  0
 11 12  1  0
 12 19  1  0
 13 12  2  0
 15 14  1  1
 15 16  1  0
 17 15  1  0
 18 17  1  1
 19 18  1  0
 20 18  1  0
 20 21  1  0
 22 20  2  0
M  END
$$$$
