EGL.pdb
     RDKit          3D

 22 21  0  0  1  0  0  0  0  0999 V2000
    8.5160  -13.0681   18.4477 N   0  0  0  0  0  0  0  0  0  0  0  0
    9.0709  -14.2345   19.1377 C   0  0  1  0  0  0  0  0  0  0  0  0
   10.4854  -13.8710   19.5058 C   0  0  0  0  0  0  0  0  0  0  0  0
   11.5186  -14.2159   18.4988 C   0  0  0  0  0  0  0  0  0  0  0  0
   12.8801  -14.0596   18.9889 C   0  0  0  0  0  0  0  0  0  0  0  0
   13.1262  -13.7331   20.1702 O   0  0  0  0  0  0  0  0  0  0  0  0
    8.3555  -14.4707   20.4243 C   0  0  0  0  0  0  0  0  0  0  0  0
    7.7750  -13.4952   20.9659 O   0  0  0  0  0  0  0  0  0  0  0  0
   14.0120  -14.2627   18.1758 O   0  0  0  0  0  0  0  0  0  0  0  0
    8.2951  -15.7254   21.0641 N   0  0  0  0  0  0  0  0  0  0  0  0
    7.4550  -15.8745   22.2270 C   0  0  0  0  0  0  0  0  0  0  0  0
    8.1493  -15.4984   23.4802 C   0  0  0  0  0  0  0  0  0  0  0  0
    9.4132  -15.4179   23.4920 O   0  0  0  0  0  0  0  0  0  0  0  0
    5.8446  -11.9696   27.0426 C   0  0  0  0  0  0  0  0  0  0  0  0
    6.8374  -12.6809   26.0707 C   0  0  1  0  0  0  0  0  0  0  0  0
    7.9476  -11.6770   25.8059 C   0  0  0  0  0  0  0  0  0  0  0  0
    7.3446  -13.9092   26.6997 C   0  0  0  0  0  0  0  0  0  0  0  0
    8.2465  -14.7599   25.9173 C   0  0  2  0  0  0  0  0  0  0  0  0
    7.4965  -15.2162   24.6905 N   0  0  0  0  0  0  0  0  0  0  0  0
    8.8003  -15.9877   26.4450 C   0  0  0  0  0  0  0  0  0  0  0  0
    9.9212  -16.0064   27.2482 O   0  0  0  0  0  0  0  0  0  0  0  0
    8.3084  -17.1502   26.2051 O   0  0  0  0  0  0  0  0  0  0  0  0
  2  1  1  1
  2  3  1  0
  3  4  1  0
  5  4  1  0
  5  6  2  0
  7  2  1  0
  7  8  2  0
  9  5  1  0
 10  7  1  0
 11 10  1  0
 11 12  1  0
 12 19  1  0
 13 12  2  0
 15 14  1  1
 15 16  1  0
 17 15  1  0
 18 17  1  1
 19 18  1  0
 20 18  1  0
 20 21  1  0
 22 20  2  0
M  END
$$$$
