EGL.pdb
     RDKit          3D

 22 21  0  0  1  0  0  0  0  0999 V2000
   10.4362  -16.7905   23.1107 N   0  0  0  0  0  0  0  0  0  0  0  0
    9.1302  -16.1280   23.1048 C   0  0  1  0  0  0  0  0  0  0  0  0
    8.4922  -16.4694   21.7838 C   0  0  0  0  0  0  0  0  0  0  0  0
    9.2045  -17.4861   20.9717 C   0  0  0  0  0  0  0  0  0  0  0  0
    8.5738  -17.7461   19.6860 C   0  0  0  0  0  0  0  0  0  0  0  0
    9.0214  -17.2714   18.6198 O   0  0  0  0  0  0  0  0  0  0  0  0
    8.2447  -16.7078   24.1549 C   0  0  0  0  0  0  0  0  0  0  0  0
    7.1735  -16.1059   24.4236 O   0  0  0  0  0  0  0  0  0  0  0  0
    7.4221  -18.5450   19.5487 O   0  0  0  0  0  0  0  0  0  0  0  0
    8.5431  -17.8912   24.8605 N   0  0  0  0  0  0  0  0  0  0  0  0
    7.6227  -18.3500   25.8718 C   0  0  0  0  0  0  0  0  0  0  0  0
    8.0941  -18.0534   27.2443 C   0  0  0  0  0  0  0  0  0  0  0  0
    7.4908  -18.5639   28.2340 O   0  0  0  0  0  0  0  0  0  0  0  0
   10.9150  -14.5293   28.0791 C   0  0  0  0  0  0  0  0  0  0  0  0
   11.5679  -15.8695   27.6167 C   0  0  1  0  0  0  0  0  0  0  0  0
   13.0519  -15.5764   27.4668 C   0  0  0  0  0  0  0  0  0  0  0  0
   11.3115  -16.9123   28.6209 C   0  0  0  0  0  0  0  0  0  0  0  0
    9.9207  -17.3101   28.8585 C   0  0  2  0  0  0  0  0  0  0  0  0
    9.1891  -17.2268   27.5417 N   0  0  0  0  0  0  0  0  0  0  0  0
    9.0561  -16.5881   29.7662 C   0  0  0  0  0  0  0  0  0  0  0  0
    8.0932  -15.7057   29.3233 O   0  0  0  0  0  0  0  0  0  0  0  0
    9.1178  -16.6976   31.0449 O   0  0  0  0  0  0  0  0  0  0  0  0
  2  1  1  6
  2  3  1  0
  3  4  1  0
  5  4  1  0
  5  6  2  0
  7  2  1  0
  7  8  2  0
  9  5  1  0
 10  7  1  0
 11 10  1  0
 11 12  1  0
 12 19  1  0
 13 12  2  0
 15 14  1  1
 15 16  1  0
 17 15  1  0
 18 17  1  6
 19 18  1  0
 20 18  1  0
 20 21  1  0
 22 20  2  0
M  END
$$$$
