EGL.pdb
     RDKit          3D

 22 21  0  0  1  0  0  0  0  0999 V2000
    7.5223  -18.4697   21.6119 N   0  0  0  0  0  0  0  0  0  0  0  0
    8.9228  -18.8889   21.6980 C   0  0  1  0  0  0  0  0  0  0  0  0
    9.3363  -19.2614   20.2985 C   0  0  0  0  0  0  0  0  0  0  0  0
    9.2029  -18.1878   19.2835 C   0  0  0  0  0  0  0  0  0  0  0  0
    9.6544  -18.5846   17.9580 C   0  0  0  0  0  0  0  0  0  0  0  0
   10.8502  -18.8597   17.7195 O   0  0  0  0  0  0  0  0  0  0  0  0
    9.7888  -17.7418   22.0947 C   0  0  0  0  0  0  0  0  0  0  0  0
   11.0259  -17.9434   22.1994 O   0  0  0  0  0  0  0  0  0  0  0  0
    8.7850  -18.6873   16.8547 O   0  0  0  0  0  0  0  0  0  0  0  0
    9.2965  -16.4474   22.3577 N   0  0  0  0  0  0  0  0  0  0  0  0
   10.2173  -15.4280   22.7975 C   0  0  0  0  0  0  0  0  0  0  0  0
   10.0477  -15.0903   24.2297 C   0  0  0  0  0  0  0  0  0  0  0  0
   10.9551  -14.4401   24.8280 O   0  0  0  0  0  0  0  0  0  0  0  0
    5.6004  -12.8879   25.8647 C   0  0  0  0  0  0  0  0  0  0  0  0
    7.0996  -13.2759   25.6693 C   0  0  1  0  0  0  0  0  0  0  0  0
    7.8969  -12.0248   25.9998 C   0  0  0  0  0  0  0  0  0  0  0  0
    7.4370  -14.3952   26.5610 C   0  0  0  0  0  0  0  0  0  0  0  0
    8.7653  -15.0015   26.4301 C   0  0  2  0  0  0  0  0  0  0  0  0
    8.9272  -15.4451   24.9973 N   0  0  0  0  0  0  0  0  0  0  0  0
    9.1579  -16.1702   27.1870 C   0  0  0  0  0  0  0  0  0  0  0  0
    9.4664  -17.3711   26.5833 O   0  0  0  0  0  0  0  0  0  0  0  0
    9.2412  -16.1918   28.4690 O   0  0  0  0  0  0  0  0  0  0  0  0
  2  1  1  6
  2  3  1  0
  3  4  1  0
  5  4  1  0
  5  6  2  0
  7  2  1  0
  7  8  2  0
  9  5  1  0
 10  7  1  0
 11 10  1  0
 11 12  1  0
 12 19  1  0
 13 12  2  0
 15 14  1  1
 15 16  1  0
 17 15  1  0
 18 17  1  6
 19 18  1  0
 20 18  1  0
 20 21  1  0
 22 20  2  0
M  END
$$$$
