EGL.pdb
     RDKit          3D

 22 21  0  0  1  0  0  0  0  0999 V2000
    7.3532  -17.9493   20.8198 N   0  0  0  0  0  0  0  0  0  0  0  0
    8.3906  -18.8778   21.2740 C   0  0  1  0  0  0  0  0  0  0  0  0
    8.9024  -19.5720   20.0393 C   0  0  0  0  0  0  0  0  0  0  0  0
    9.2898  -18.6820   18.9176 C   0  0  0  0  0  0  0  0  0  0  0  0
    9.8276  -19.3974   17.7697 C   0  0  0  0  0  0  0  0  0  0  0  0
   10.8021  -20.1739   17.8694 O   0  0  0  0  0  0  0  0  0  0  0  0
    9.5501  -18.1306   21.8401 C   0  0  0  0  0  0  0  0  0  0  0  0
   10.4531  -18.7891   22.4171 O   0  0  0  0  0  0  0  0  0  0  0  0
    9.2948  -19.2690   16.4724 O   0  0  0  0  0  0  0  0  0  0  0  0
    9.6877  -16.7298   21.7634 N   0  0  0  0  0  0  0  0  0  0  0  0
   10.7903  -16.0998   22.4472 C   0  0  0  0  0  0  0  0  0  0  0  0
   10.4000  -15.5495   23.7658 C   0  0  0  0  0  0  0  0  0  0  0  0
   11.2984  -15.1582   24.5682 O   0  0  0  0  0  0  0  0  0  0  0  0
    7.8137  -11.7387   26.4928 C   0  0  0  0  0  0  0  0  0  0  0  0
    7.0262  -13.0797   26.3588 C   0  0  1  0  0  0  0  0  0  0  0  0
    5.5763  -12.6864   26.1275 C   0  0  0  0  0  0  0  0  0  0  0  0
    7.5709  -13.8586   25.2370 C   0  0  0  0  0  0  0  0  0  0  0  0
    8.7222  -14.7275   25.4990 C   0  0  2  0  0  0  0  0  0  0  0  0
    9.0735  -15.4243   24.2079 N   0  0  0  0  0  0  0  0  0  0  0  0
    8.6697  -15.8095   26.4579 C   0  0  0  0  0  0  0  0  0  0  0  0
    9.1054  -15.6650   27.7583 O   0  0  0  0  0  0  0  0  0  0  0  0
    8.2288  -16.9841   26.1807 O   0  0  0  0  0  0  0  0  0  0  0  0
  2  1  1  6
  2  3  1  0
  3  4  1  0
  5  4  1  0
  5  6  2  0
  7  2  1  0
  7  8  2  0
  9  5  1  0
 10  7  1  0
 11 10  1  0
 11 12  1  0
 12 19  1  0
 13 12  2  0
 15 14  1  6
 15 16  1  0
 17 15  1  0
 18 17  1  6
 19 18  1  0
 20 18  1  0
 20 21  1  0
 22 20  2  0
M  END
$$$$
