EGL.pdb
     RDKit          3D

 22 21  0  0  1  0  0  0  0  0999 V2000
    6.8472  -18.5748   21.6702 N   0  0  0  0  0  0  0  0  0  0  0  0
    7.9556  -18.2922   20.7559 C   0  0  1  0  0  0  0  0  0  0  0  0
    7.4301  -18.5473   19.3676 C   0  0  0  0  0  0  0  0  0  0  0  0
    6.9496  -19.9264   19.1075 C   0  0  0  0  0  0  0  0  0  0  0  0
    6.4316  -20.1148   17.7604 C   0  0  0  0  0  0  0  0  0  0  0  0
    6.4931  -19.2154   16.8945 O   0  0  0  0  0  0  0  0  0  0  0  0
    8.3173  -16.8466   20.8031 C   0  0  0  0  0  0  0  0  0  0  0  0
    9.3550  -16.4765   20.1963 O   0  0  0  0  0  0  0  0  0  0  0  0
    5.8276  -21.3142   17.3359 O   0  0  0  0  0  0  0  0  0  0  0  0
    7.5605  -15.8754   21.4895 N   0  0  0  0  0  0  0  0  0  0  0  0
    8.0963  -14.5432   21.6258 C   0  0  0  0  0  0  0  0  0  0  0  0
    8.5508  -14.2530   23.0053 C   0  0  0  0  0  0  0  0  0  0  0  0
    9.2876  -13.2453   23.2193 O   0  0  0  0  0  0  0  0  0  0  0  0
    5.6802  -12.5275   26.5116 C   0  0  0  0  0  0  0  0  0  0  0  0
    7.0037  -12.8411   25.7458 C   0  0  1  0  0  0  0  0  0  0  0  0
    7.9230  -11.6594   26.0078 C   0  0  0  0  0  0  0  0  0  0  0  0
    7.5722  -14.1020   26.2445 C   0  0  0  0  0  0  0  0  0  0  0  0
    8.7015  -14.6834   25.5125 C   0  0  2  0  0  0  0  0  0  0  0  0
    8.2189  -15.0304   24.1260 N   0  0  0  0  0  0  0  0  0  0  0  0
    9.3618  -15.8946   25.9483 C   0  0  0  0  0  0  0  0  0  0  0  0
    9.5184  -16.9878   25.1224 O   0  0  0  0  0  0  0  0  0  0  0  0
    9.8426  -16.0568   27.1288 O   0  0  0  0  0  0  0  0  0  0  0  0
  2  1  1  1
  2  3  1  0
  3  4  1  0
  5  4  1  0
  5  6  2  0
  7  2  1  0
  7  8  2  0
  9  5  1  0
 10  7  1  0
 11 10  1  0
 11 12  1  0
 12 19  1  0
 13 12  2  0
 15 14  1  1
 15 16  1  0
 17 15  1  0
 18 17  1  1
 19 18  1  0
 20 18  1  0
 20 21  1  0
 22 20  2  0
M  END
$$$$
