EGL.pdb
     RDKit          3D

 22 21  0  0  1  0  0  0  0  0999 V2000
    8.0363  -17.5669   19.3348 N   0  0  0  0  0  0  0  0  0  0  0  0
    8.0229  -18.3601   20.5657 C   0  0  1  0  0  0  0  0  0  0  0  0
    9.4611  -18.6881   20.8695 C   0  0  0  0  0  0  0  0  0  0  0  0
   10.4076  -18.5290   19.7384 C   0  0  0  0  0  0  0  0  0  0  0  0
   11.7792  -18.8784   20.0773 C   0  0  0  0  0  0  0  0  0  0  0  0
   12.7215  -18.7239   19.2706 O   0  0  0  0  0  0  0  0  0  0  0  0
    7.5339  -17.5403   21.7111 C   0  0  0  0  0  0  0  0  0  0  0  0
    7.3488  -16.3107   21.5219 O   0  0  0  0  0  0  0  0  0  0  0  0
   12.1439  -19.4119   21.3287 O   0  0  0  0  0  0  0  0  0  0  0  0
    7.2687  -18.0684   22.9910 N   0  0  0  0  0  0  0  0  0  0  0  0
    6.6338  -17.2256   23.9743 C   0  0  0  0  0  0  0  0  0  0  0  0
    7.5989  -16.3512   24.6799 C   0  0  0  0  0  0  0  0  0  0  0  0
    8.8375  -16.4744   24.4459 O   0  0  0  0  0  0  0  0  0  0  0  0
    5.8964  -11.4334   26.3853 C   0  0  0  0  0  0  0  0  0  0  0  0
    6.7125  -12.5639   25.6838 C   0  0  1  0  0  0  0  0  0  0  0  0
    7.5278  -11.8748   24.6017 C   0  0  0  0  0  0  0  0  0  0  0  0
    7.5675  -13.2375   26.6722 C   0  0  0  0  0  0  0  0  0  0  0  0
    8.2569  -14.4645   26.2616 C   0  0  2  0  0  0  0  0  0  0  0  0
    7.2369  -15.3684   25.6147 N   0  0  0  0  0  0  0  0  0  0  0  0
    8.9170  -15.3332   27.2115 C   0  0  0  0  0  0  0  0  0  0  0  0
    8.3594  -16.5206   27.6370 O   0  0  0  0  0  0  0  0  0  0  0  0
   10.0583  -15.0713   27.7405 O   0  0  0  0  0  0  0  0  0  0  0  0
  2  1  1  6
  2  3  1  0
  3  4  1  0
  5  4  1  0
  5  6  2  0
  7  2  1  0
  7  8  2  0
  9  5  1  0
 10  7  1  0
 11 10  1  0
 11 12  1  0
 12 19  1  0
 13 12  2  0
 15 14  1  1
 15 16  1  0
 17 15  1  0
 18 17  1  1
 19 18  1  0
 20 18  1  0
 20 21  1  0
 22 20  2  0
M  END
$$$$
