MCL.pdb
     RDKit          3D

 23 22  0  0  1  0  0  0  0  0999 V2000
    7.4960  -11.8452   20.1382 C   0  0  0  0  0  0  0  0  0  0  0  0
    8.0525  -12.4369   18.5394 S   0  0  0  0  0  0  0  0  0  0  0  0
    8.5931  -14.1568   18.5590 C   0  0  0  0  0  0  0  0  0  0  0  0
    8.1397  -14.8824   19.8222 C   0  0  0  0  0  0  0  0  0  0  0  0
    8.5822  -16.3014   19.7010 C   0  0  2  0  0  0  0  0  0  0  0  0
    7.9523  -16.8942   18.5460 N   0  0  0  0  0  0  0  0  0  0  0  0
    8.3637  -17.1045   20.9288 C   0  0  0  0  0  0  0  0  0  0  0  0
    7.4050  -17.9252   20.9493 O   0  0  0  0  0  0  0  0  0  0  0  0
    9.1762  -16.9973   22.0796 N   0  0  0  0  0  0  0  0  0  0  0  0
    8.9460  -17.8006   23.2980 C   0  0  1  0  0  0  0  0  0  0  0  0
    9.1151  -19.2677   22.9635 C   0  0  0  0  0  0  0  0  0  0  0  0
    9.1882  -20.3393   24.3909 S   0  0  0  0  0  0  0  0  0  0  0  0
    9.9217  -17.3187   24.3041 C   0  0  0  0  0  0  0  0  0  0  0  0
   11.1701  -17.2250   24.0109 O   0  0  0  0  0  0  0  0  0  0  0  0
    9.3345  -13.9411   29.3949 C   0  0  0  0  0  0  0  0  0  0  0  0
   10.3659  -14.6926   28.5124 C   0  0  2  0  0  0  0  0  0  0  0  0
   11.2603  -13.5837   28.0021 C   0  0  0  0  0  0  0  0  0  0  0  0
    9.6577  -15.3963   27.4049 C   0  0  0  0  0  0  0  0  0  0  0  0
   10.4848  -16.2709   26.5273 C   0  0  2  0  0  0  0  0  0  0  0  0
    9.5735  -16.9402   25.6048 N   0  0  0  0  0  0  0  0  0  0  0  0
   11.2209  -17.3227   27.2352 C   0  0  0  0  0  0  0  0  0  0  0  0
   12.4540  -17.2418   27.4471 O   0  0  0  0  0  0  0  0  0  0  0  0
   10.6073  -18.4965   27.7242 O   0  0  0  0  0  0  0  0  0  0  0  0
  2  1  1  0
  3  2  1  0
  4  3  1  0
  5  4  1  0
  5  6  1  6
  7  5  1  0
  8  7  2  0
  9  7  1  0
 10 13  1  0
 10  9  1  0
 10 11  1  6
 12 11  1  0
 13 20  1  0
 14 13  2  0
 16 15  1  1
 16 17  1  0
 18 16  1  0
 19 18  1  1
 19 21  1  0
 20 19  1  0
 21 22  2  0
 21 23  1  0
M  END
$$$$
