MCL.pdb
     RDKit          3D

 23 22  0  0  1  0  0  0  0  0999 V2000
    6.7792  -15.0433   15.4795 C   0  0  0  0  0  0  0  0  0  0  0  0
    7.9869  -13.7206   15.5671 S   0  0  0  0  0  0  0  0  0  0  0  0
    8.9294  -13.7098   17.1041 C   0  0  0  0  0  0  0  0  0  0  0  0
    8.0366  -13.9290   18.3217 C   0  0  0  0  0  0  0  0  0  0  0  0
    8.9113  -13.8730   19.5283 C   0  0  2  0  0  0  0  0  0  0  0  0
   10.2324  -14.3325   19.1741 N   0  0  0  0  0  0  0  0  0  0  0  0
    8.3638  -14.5995   20.7000 C   0  0  0  0  0  0  0  0  0  0  0  0
    7.1946  -14.3241   21.0871 O   0  0  0  0  0  0  0  0  0  0  0  0
    9.0866  -15.5865   21.4066 N   0  0  0  0  0  0  0  0  0  0  0  0
    8.5158  -16.3312   22.5478 C   0  0  1  0  0  0  0  0  0  0  0  0
    9.1111  -17.7232   22.5787 C   0  0  0  0  0  0  0  0  0  0  0  0
   10.8969  -17.7541   22.6106 S   0  0  0  0  0  0  0  0  0  0  0  0
    8.8298  -15.5389   23.7601 C   0  0  0  0  0  0  0  0  0  0  0  0
    9.9474  -14.9109   23.8588 O   0  0  0  0  0  0  0  0  0  0  0  0
    7.8882  -11.6473   25.8168 C   0  0  0  0  0  0  0  0  0  0  0  0
    6.7860  -12.7252   25.6424 C   0  0  2  0  0  0  0  0  0  0  0  0
    5.5331  -12.0211   26.1164 C   0  0  0  0  0  0  0  0  0  0  0  0
    7.1122  -13.9142   26.4809 C   0  0  0  0  0  0  0  0  0  0  0  0
    8.3077  -14.7091   26.0832 C   0  0  2  0  0  0  0  0  0  0  0  0
    7.9654  -15.4150   24.8528 N   0  0  0  0  0  0  0  0  0  0  0  0
    8.7145  -15.7262   27.0574 C   0  0  0  0  0  0  0  0  0  0  0  0
    8.3873  -16.9304   26.9352 O   0  0  0  0  0  0  0  0  0  0  0  0
    9.4938  -15.4325   28.1975 O   0  0  0  0  0  0  0  0  0  0  0  0
  2  1  1  0
  3  2  1  0
  4  3  1  0
  5  4  1  0
  5  6  1  6
  7  5  1  0
  8  7  2  0
  9  7  1  0
 10 13  1  0
 10  9  1  0
 10 11  1  1
 12 11  1  0
 13 20  1  0
 14 13  2  0
 16 15  1  1
 16 17  1  0
 18 16  1  0
 19 18  1  1
 19 21  1  0
 20 19  1  0
 21 22  2  0
 21 23  1  0
M  END
$$$$
