MCL.pdb
     RDKit          3D

 23 22  0  0  1  0  0  0  0  0999 V2000
    7.9441  -11.9970   19.5196 C   0  0  0  0  0  0  0  0  0  0  0  0
    8.2472  -13.1591   18.1879 S   0  0  0  0  0  0  0  0  0  0  0  0
    8.0809  -14.8833   18.6882 C   0  0  0  0  0  0  0  0  0  0  0  0
    7.1833  -15.0376   19.9121 C   0  0  0  0  0  0  0  0  0  0  0  0
    7.1101  -16.4935   20.2272 C   0  0  2  0  0  0  0  0  0  0  0  0
    6.2613  -17.1431   19.2579 N   0  0  0  0  0  0  0  0  0  0  0  0
    6.6908  -16.7852   21.6198 C   0  0  0  0  0  0  0  0  0  0  0  0
    5.4659  -16.6975   21.9111 O   0  0  0  0  0  0  0  0  0  0  0  0
    7.5952  -17.1571   22.6394 N   0  0  0  0  0  0  0  0  0  0  0  0
    7.2005  -17.2590   24.0595 C   0  0  1  0  0  0  0  0  0  0  0  0
    7.3166  -18.7019   24.5038 C   0  0  0  0  0  0  0  0  0  0  0  0
    7.1446  -18.9405   26.2658 S   0  0  0  0  0  0  0  0  0  0  0  0
    8.0987  -16.3477   24.8071 C   0  0  0  0  0  0  0  0  0  0  0  0
    9.3415  -16.2515   24.4916 O   0  0  0  0  0  0  0  0  0  0  0  0
    7.5844  -11.8986   25.6333 C   0  0  0  0  0  0  0  0  0  0  0  0
    6.7833  -12.8977   26.5094 C   0  0  2  0  0  0  0  0  0  0  0  0
    5.8962  -11.9969   27.3412 C   0  0  0  0  0  0  0  0  0  0  0  0
    7.7245  -13.6904   27.3515 C   0  0  0  0  0  0  0  0  0  0  0  0
    8.5740  -14.6920   26.6485 C   0  0  2  0  0  0  0  0  0  0  0  0
    7.6800  -15.5480   25.8756 N   0  0  0  0  0  0  0  0  0  0  0  0
    9.3409  -15.5709   27.5366 C   0  0  0  0  0  0  0  0  0  0  0  0
   10.3556  -15.1688   28.1536 O   0  0  0  0  0  0  0  0  0  0  0  0
    9.0034  -16.9234   27.7610 O   0  0  0  0  0  0  0  0  0  0  0  0
  2  1  1  0
  3  2  1  0
  4  3  1  0
  5  4  1  0
  5  6  1  6
  7  5  1  0
  8  7  2  0
  9  7  1  0
 10 13  1  0
 10  9  1  0
 10 11  1  1
 12 11  1  0
 13 20  1  0
 14 13  2  0
 16 15  1  6
 16 17  1  0
 18 16  1  0
 19 18  1  1
 19 21  1  0
 20 19  1  0
 21 22  2  0
 21 23  1  0
M  END
$$$$
