MCL.pdb
     RDKit          3D

 23 22  0  0  1  0  0  0  0  0999 V2000
    8.3231  -11.7449   20.1264 C   0  0  0  0  0  0  0  0  0  0  0  0
    8.0880  -12.3491   18.4544 S   0  0  0  0  0  0  0  0  0  0  0  0
    8.2700  -14.1366   18.3049 C   0  0  0  0  0  0  0  0  0  0  0  0
    7.4836  -14.8814   19.3794 C   0  0  0  0  0  0  0  0  0  0  0  0
    8.1648  -16.1896   19.6001 C   0  0  2  0  0  0  0  0  0  0  0  0
    7.7965  -17.0971   18.5406 N   0  0  0  0  0  0  0  0  0  0  0  0
    7.9230  -16.7725   20.9426 C   0  0  0  0  0  0  0  0  0  0  0  0
    6.7525  -17.1413   21.2374 O   0  0  0  0  0  0  0  0  0  0  0  0
    8.9389  -16.9361   21.9106 N   0  0  0  0  0  0  0  0  0  0  0  0
    8.6589  -17.3520   23.3003 C   0  0  1  0  0  0  0  0  0  0  0  0
    9.4309  -18.6189   23.6036 C   0  0  0  0  0  0  0  0  0  0  0  0
    9.1889  -19.2438   25.2595 S   0  0  0  0  0  0  0  0  0  0  0  0
    9.0521  -16.2126   24.1625 C   0  0  0  0  0  0  0  0  0  0  0  0
   10.2265  -15.6976   24.0691 O   0  0  0  0  0  0  0  0  0  0  0  0
    6.2467  -11.7076   26.5856 C   0  0  0  0  0  0  0  0  0  0  0  0
    7.5834  -12.4027   26.2149 C   0  0  2  0  0  0  0  0  0  0  0  0
    7.7110  -12.1411   24.7298 C   0  0  0  0  0  0  0  0  0  0  0  0
    7.4916  -13.8589   26.5219 C   0  0  0  0  0  0  0  0  0  0  0  0
    8.6606  -14.7005   26.1419 C   0  0  2  0  0  0  0  0  0  0  0  0
    8.2064  -15.6278   25.1108 N   0  0  0  0  0  0  0  0  0  0  0  0
    9.2066  -15.5130   27.2331 C   0  0  0  0  0  0  0  0  0  0  0  0
    8.7024  -16.6143   27.5568 O   0  0  0  0  0  0  0  0  0  0  0  0
   10.3270  -15.1219   27.9983 O   0  0  0  0  0  0  0  0  0  0  0  0
  2  1  1  0
  3  2  1  0
  4  3  1  0
  5  4  1  0
  5  6  1  6
  7  5  1  0
  8  7  2  0
  9  7  1  0
 10 13  1  0
 10  9  1  0
 10 11  1  1
 12 11  1  0
 13 20  1  0
 14 13  2  0
 16 15  1  6
 16 17  1  0
 18 16  1  0
 19 18  1  1
 19 21  1  0
 20 19  1  0
 21 22  2  0
 21 23  1  0
M  END
$$$$
