MCL.pdb
     RDKit          3D

 23 22  0  0  1  0  0  0  0  0999 V2000
    9.4904  -12.1221   19.2813 C   0  0  0  0  0  0  0  0  0  0  0  0
    7.9206  -12.5454   18.5247 S   0  0  0  0  0  0  0  0  0  0  0  0
    7.6125  -14.3206   18.4561 C   0  0  0  0  0  0  0  0  0  0  0  0
    7.2539  -14.8901   19.8254 C   0  0  0  0  0  0  0  0  0  0  0  0
    8.5243  -15.0283   20.5942 C   0  0  2  0  0  0  0  0  0  0  0  0
    9.4384  -15.8588   19.8482 N   0  0  0  0  0  0  0  0  0  0  0  0
    8.3349  -15.5152   21.9825 C   0  0  0  0  0  0  0  0  0  0  0  0
    7.3685  -15.0595   22.6543 O   0  0  0  0  0  0  0  0  0  0  0  0
    9.1837  -16.4656   22.5928 N   0  0  0  0  0  0  0  0  0  0  0  0
    8.9566  -16.9786   23.9595 C   0  0  1  0  0  0  0  0  0  0  0  0
    9.7783  -18.2345   24.1603 C   0  0  0  0  0  0  0  0  0  0  0  0
    9.9104  -18.7572   25.8634 S   0  0  0  0  0  0  0  0  0  0  0  0
    9.3358  -15.8833   24.8830 C   0  0  0  0  0  0  0  0  0  0  0  0
   10.4459  -15.2533   24.7283 O   0  0  0  0  0  0  0  0  0  0  0  0
    8.0734  -11.7574   25.7830 C   0  0  0  0  0  0  0  0  0  0  0  0
    7.1384  -12.9088   26.2381 C   0  0  2  0  0  0  0  0  0  0  0  0
    5.8999  -12.1826   26.7163 C   0  0  0  0  0  0  0  0  0  0  0  0
    7.7930  -13.6814   27.3326 C   0  0  0  0  0  0  0  0  0  0  0  0
    8.9817  -14.4984   26.9602 C   0  0  2  0  0  0  0  0  0  0  0  0
    8.5437  -15.4629   25.9565 N   0  0  0  0  0  0  0  0  0  0  0  0
    9.5618  -15.2685   28.0645 C   0  0  0  0  0  0  0  0  0  0  0  0
   10.2340  -14.7239   28.9720 O   0  0  0  0  0  0  0  0  0  0  0  0
    9.4143  -16.6672   28.1891 O   0  0  0  0  0  0  0  0  0  0  0  0
  2  1  1  0
  3  2  1  0
  4  3  1  0
  5  4  1  0
  5  6  1  6
  7  5  1  0
  8  7  2  0
  9  7  1  0
 10 13  1  0
 10  9  1  0
 10 11  1  1
 12 11  1  0
 13 20  1  0
 14 13  2  0
 16 15  1  1
 16 17  1  0
 18 16  1  0
 19 18  1  1
 19 21  1  0
 20 19  1  0
 21 22  2  0
 21 23  1  0
M  END
$$$$
