MCL.pdb
     RDKit          3D

 23 22  0  0  1  0  0  0  0  0999 V2000
    7.5244  -11.7096   25.7001 C   0  0  0  0  0  0  0  0  0  0  0  0
    6.0614  -12.6290   26.1801 S   0  0  0  0  0  0  0  0  0  0  0  0
    5.8091  -14.1311   25.2155 C   0  0  0  0  0  0  0  0  0  0  0  0
    6.8312  -15.2095   25.5621 C   0  0  0  0  0  0  0  0  0  0  0  0
    6.8408  -16.1888   24.4374 C   0  0  2  0  0  0  0  0  0  0  0  0
    5.8391  -17.1979   24.6829 N   0  0  0  0  0  0  0  0  0  0  0  0
    8.1743  -16.7805   24.1690 C   0  0  0  0  0  0  0  0  0  0  0  0
    8.4778  -17.8652   24.7385 O   0  0  0  0  0  0  0  0  0  0  0  0
    9.1245  -16.1902   23.3061 N   0  0  0  0  0  0  0  0  0  0  0  0
   10.4972  -16.7139   23.1512 C   0  0  1  0  0  0  0  0  0  0  0  0
   11.0696  -16.2230   21.8381 C   0  0  0  0  0  0  0  0  0  0  0  0
   10.0361  -16.5564   20.4198 S   0  0  0  0  0  0  0  0  0  0  0  0
   11.2591  -16.2386   24.3301 C   0  0  0  0  0  0  0  0  0  0  0  0
   11.6851  -15.0268   24.3873 O   0  0  0  0  0  0  0  0  0  0  0  0
    9.1104  -13.9382   28.2293 C   0  0  0  0  0  0  0  0  0  0  0  0
   10.3162  -14.9135   28.2739 C   0  0  2  0  0  0  0  0  0  0  0  0
   11.4715  -14.0200   28.6706 C   0  0  0  0  0  0  0  0  0  0  0  0
   10.5158  -15.5238   26.9282 C   0  0  0  0  0  0  0  0  0  0  0  0
   11.5832  -16.5562   26.8104 C   0  0  2  0  0  0  0  0  0  0  0  0
   11.5626  -17.0416   25.4344 N   0  0  0  0  0  0  0  0  0  0  0  0
   11.3985  -17.7249   27.6759 C   0  0  0  0  0  0  0  0  0  0  0  0
   10.4407  -18.5193   27.5226 O   0  0  0  0  0  0  0  0  0  0  0  0
   12.2717  -18.0415   28.7392 O   0  0  0  0  0  0  0  0  0  0  0  0
  2  1  1  0
  3  2  1  0
  4  3  1  0
  5  4  1  0
  5  6  1  1
  7  5  1  0
  8  7  2  0
  9  7  1  0
 10 13  1  0
 10  9  1  0
 10 11  1  6
 12 11  1  0
 13 20  1  0
 14 13  2  0
 16 15  1  6
 16 17  1  0
 18 16  1  0
 19 18  1  6
 19 21  1  0
 20 19  1  0
 21 22  2  0
 21 23  1  0
M  END
$$$$
