GFF.pdb
     RDKit          3D

 27 28  0  0  1  0  0  0  0  0999 V2000
   21.4003  -20.1502   -8.6359 N   0  0  0  0  0  0  0  0  0  0  0  0
   22.4592  -21.1437   -8.5258 C   0  0  0  0  0  0  0  0  0  0  0  0
   23.7052  -20.5693   -9.0549 C   0  0  0  0  0  0  0  0  0  0  0  0
   23.6995  -19.7478   -9.9893 O   0  0  0  0  0  0  0  0  0  0  0  0
   24.9466  -20.9738   -8.4714 N   0  0  0  0  0  0  0  0  0  0  0  0
   26.1928  -20.5567   -9.0815 C   0  0  1  0  0  0  0  0  0  0  0  0
   27.3392  -20.9886   -8.2180 C   0  0  0  0  0  0  0  0  0  0  0  0
   27.4476  -20.2132   -6.9567 C   0  0  0  0  0  0  0  0  0  0  0  0
   27.1306  -18.8783   -6.9392 C   0  0  0  0  0  0  0  0  0  0  0  0
   27.2308  -18.1573   -5.7513 C   0  0  0  0  0  0  0  0  0  0  0  0
   27.6438  -18.7608   -4.5888 C   0  0  0  0  0  0  0  0  0  0  0  0
   27.9657  -20.1035   -4.5940 C   0  0  0  0  0  0  0  0  0  0  0  0
   27.8663  -20.8166   -5.7696 C   0  0  0  0  0  0  0  0  0  0  0  0
   26.2258  -21.0874  -10.4629 C   0  0  0  0  0  0  0  0  0  0  0  0
   25.7762  -22.2474  -10.7404 O   0  0  0  0  0  0  0  0  0  0  0  0
   26.7590  -20.3203  -11.5190 N   0  0  0  0  0  0  0  0  0  0  0  0
   26.8257  -20.7755  -12.8924 C   0  0  1  0  0  0  0  0  0  0  0  0
   25.9684  -19.8877  -13.7343 C   0  0  0  0  0  0  0  0  0  0  0  0
   26.5801  -18.6084  -14.0997 C   0  0  0  0  0  0  0  0  0  0  0  0
   27.4925  -18.5137  -15.1316 C   0  0  0  0  0  0  0  0  0  0  0  0
   28.0597  -17.3148  -15.4757 C   0  0  0  0  0  0  0  0  0  0  0  0
   27.7263  -16.1480  -14.7852 C   0  0  0  0  0  0  0  0  0  0  0  0
   26.8196  -16.2146  -13.7527 C   0  0  0  0  0  0  0  0  0  0  0  0
   26.2687  -17.4286  -13.4314 C   0  0  0  0  0  0  0  0  0  0  0  0
   28.1951  -20.9690  -13.3717 C   0  0  0  0  0  0  0  0  0  0  0  0
   29.1664  -20.6011  -12.6869 O   0  0  0  0  0  0  0  0  0  0  0  0
   28.4145  -21.5634  -14.5903 O   0  0  0  0  0  0  0  0  0  0  0  0
  1  2  1  0
  3  4  2  0
  3  2  1  0
  5  3  1  0
  6  5  1  0
  6  7  1  1
  8 13  1  0
  8  7  1  0
  9  8  2  0
 10  9  1  0
 10 11  2  0
 11 12  1  0
 12 13  2  0
 14  6  1  0
 15 14  2  0
 16 14  1  0
 17 18  1  6
 17 16  1  0
 18 19  1  0
 19 24  1  0
 19 20  2  0
 20 21  1  0
 21 22  2  0
 23 22  1  0
 24 23  2  0
 25 17  1  0
 26 25  2  0
 27 25  1  0
M  END
$$$$
