GFF.pdb
     RDKit          3D

 27 28  0  0  1  0  0  0  0  0999 V2000
   28.3793  -19.5356  -19.0382 N   0  0  0  0  0  0  0  0  0  0  0  0
   26.9395  -19.7532  -19.0489 C   0  0  0  0  0  0  0  0  0  0  0  0
   26.3983  -19.4101  -17.7255 C   0  0  0  0  0  0  0  0  0  0  0  0
   27.0712  -19.5521  -16.6886 O   0  0  0  0  0  0  0  0  0  0  0  0
   25.0641  -18.9017  -17.6430 N   0  0  0  0  0  0  0  0  0  0  0  0
   24.5161  -18.5381  -16.3520 C   0  0  1  0  0  0  0  0  0  0  0  0
   24.1621  -17.0818  -16.3535 C   0  0  0  0  0  0  0  0  0  0  0  0
   25.3488  -16.1901  -16.3319 C   0  0  0  0  0  0  0  0  0  0  0  0
   25.9170  -15.8281  -15.1365 C   0  0  0  0  0  0  0  0  0  0  0  0
   27.0330  -14.9942  -15.1234 C   0  0  0  0  0  0  0  0  0  0  0  0
   27.5795  -14.5235  -16.2922 C   0  0  0  0  0  0  0  0  0  0  0  0
   27.0165  -14.8808  -17.5012 C   0  0  0  0  0  0  0  0  0  0  0  0
   25.9124  -15.7060  -17.5138 C   0  0  0  0  0  0  0  0  0  0  0  0
   23.3854  -19.4484  -16.0624 C   0  0  0  0  0  0  0  0  0  0  0  0
   22.6187  -19.8717  -16.9885 O   0  0  0  0  0  0  0  0  0  0  0  0
   23.1216  -19.8765  -14.7452 N   0  0  0  0  0  0  0  0  0  0  0  0
   21.9804  -20.6877  -14.3743 C   0  0  1  0  0  0  0  0  0  0  0  0
   22.3219  -21.4617  -13.1430 C   0  0  0  0  0  0  0  0  0  0  0  0
   21.2377  -22.2956  -12.6200 C   0  0  0  0  0  0  0  0  0  0  0  0
   21.0468  -23.5902  -13.0601 C   0  0  0  0  0  0  0  0  0  0  0  0
   20.0351  -24.3708  -12.5656 C   0  0  0  0  0  0  0  0  0  0  0  0
   19.1636  -23.8722  -11.5954 C   0  0  0  0  0  0  0  0  0  0  0  0
   19.3317  -22.5851  -11.1396 C   0  0  0  0  0  0  0  0  0  0  0  0
   20.3532  -21.8280  -11.6533 C   0  0  0  0  0  0  0  0  0  0  0  0
   20.7279  -19.9323  -14.3173 C   0  0  0  0  0  0  0  0  0  0  0  0
   20.6937  -18.7949  -13.8145 O   0  0  0  0  0  0  0  0  0  0  0  0
   19.5755  -20.4816  -14.8240 O   0  0  0  0  0  0  0  0  0  0  0  0
  1  2  1  0
  3  4  2  0
  3  2  1  0
  5  3  1  0
  6  5  1  0
  6  7  1  6
  8 13  1  0
  8  7  1  0
  9  8  2  0
 10  9  1  0
 10 11  2  0
 11 12  1  0
 12 13  2  0
 14  6  1  0
 15 14  2  0
 16 14  1  0
 17 18  1  1
 17 16  1  0
 18 19  1  0
 19 24  1  0
 19 20  2  0
 20 21  1  0
 21 22  2  0
 23 22  1  0
 24 23  2  0
 25 17  1  0
 26 25  2  0
 27 25  1  0
M  END
$$$$
