GFF.pdb
     RDKit          3D

 27 28  0  0  1  0  0  0  0  0999 V2000
   28.7569  -21.7938  -16.0873 N   0  0  0  0  0  0  0  0  0  0  0  0
   28.4882  -20.7074  -15.1556 C   0  0  0  0  0  0  0  0  0  0  0  0
   27.8060  -21.2544  -13.9734 C   0  0  0  0  0  0  0  0  0  0  0  0
   27.1827  -22.3302  -14.0196 O   0  0  0  0  0  0  0  0  0  0  0  0
   27.8687  -20.5211  -12.7472 N   0  0  0  0  0  0  0  0  0  0  0  0
   27.0648  -20.9450  -11.6188 C   0  0  1  0  0  0  0  0  0  0  0  0
   27.7640  -20.5805  -10.3443 C   0  0  0  0  0  0  0  0  0  0  0  0
   29.1109  -21.1920  -10.2191 C   0  0  0  0  0  0  0  0  0  0  0  0
   29.4226  -21.9537   -9.1212 C   0  0  0  0  0  0  0  0  0  0  0  0
   30.6872  -22.5279   -9.0118 C   0  0  0  0  0  0  0  0  0  0  0  0
   31.6353  -22.3450   -9.9884 C   0  0  0  0  0  0  0  0  0  0  0  0
   31.3336  -21.5804  -11.0978 C   0  0  0  0  0  0  0  0  0  0  0  0
   30.0821  -21.0124  -11.2058 C   0  0  0  0  0  0  0  0  0  0  0  0
   25.7149  -20.3574  -11.7726 C   0  0  0  0  0  0  0  0  0  0  0  0
   25.5420  -19.0962  -11.8352 O   0  0  0  0  0  0  0  0  0  0  0  0
   24.5736  -21.1811  -11.8551 N   0  0  0  0  0  0  0  0  0  0  0  0
   23.3598  -20.8097  -12.5526 C   0  0  1  0  0  0  0  0  0  0  0  0
   23.7256  -20.2611  -13.8932 C   0  0  0  0  0  0  0  0  0  0  0  0
   22.5880  -19.8974  -14.7404 C   0  0  0  0  0  0  0  0  0  0  0  0
   21.9220  -18.6989  -14.5785 C   0  0  0  0  0  0  0  0  0  0  0  0
   20.8611  -18.3579  -15.3759 C   0  0  0  0  0  0  0  0  0  0  0  0
   20.4228  -19.2218  -16.3814 C   0  0  0  0  0  0  0  0  0  0  0  0
   21.0690  -20.4225  -16.5639 C   0  0  0  0  0  0  0  0  0  0  0  0
   22.1275  -20.7360  -15.7504 C   0  0  0  0  0  0  0  0  0  0  0  0
   22.3491  -21.8684  -12.5588 C   0  0  0  0  0  0  0  0  0  0  0  0
   22.6448  -23.0277  -12.8997 O   0  0  0  0  0  0  0  0  0  0  0  0
   21.0589  -21.5830  -12.1843 O   0  0  0  0  0  0  0  0  0  0  0  0
  1  2  1  0
  3  4  2  0
  3  2  1  0
  5  3  1  0
  6  5  1  0
  6  7  1  1
  8 13  1  0
  8  7  1  0
  9  8  2  0
 10  9  1  0
 10 11  2  0
 11 12  1  0
 12 13  2  0
 14  6  1  0
 15 14  2  0
 16 14  1  0
 17 18  1  6
 17 16  1  0
 18 19  1  0
 19 24  1  0
 19 20  2  0
 20 21  1  0
 21 22  2  0
 23 22  1  0
 24 23  2  0
 25 17  1  0
 26 25  2  0
 27 25  1  0
M  END
$$$$
