GFF.pdb
     RDKit          3D

 27 28  0  0  1  0  0  0  0  0999 V2000
   22.1143  -21.3012   -6.8138 N   0  0  0  0  0  0  0  0  0  0  0  0
   23.4963  -21.7317   -6.6542 C   0  0  0  0  0  0  0  0  0  0  0  0
   24.3487  -20.9287   -7.5434 C   0  0  0  0  0  0  0  0  0  0  0  0
   23.8841  -20.0003   -8.2291 O   0  0  0  0  0  0  0  0  0  0  0  0
   25.7443  -21.2336   -7.6119 N   0  0  0  0  0  0  0  0  0  0  0  0
   26.5894  -20.5104   -8.5404 C   0  0  1  0  0  0  0  0  0  0  0  0
   28.0136  -20.5854   -8.0797 C   0  0  0  0  0  0  0  0  0  0  0  0
   28.2202  -20.0254   -6.7205 C   0  0  0  0  0  0  0  0  0  0  0  0
   28.0997  -18.6755   -6.5057 C   0  0  0  0  0  0  0  0  0  0  0  0
   28.2910  -18.1569   -5.2269 C   0  0  0  0  0  0  0  0  0  0  0  0
   28.6004  -18.9763   -4.1690 C   0  0  0  0  0  0  0  0  0  0  0  0
   28.7245  -20.3363   -4.3727 C   0  0  0  0  0  0  0  0  0  0  0  0
   28.5350  -20.8491   -5.6382 C   0  0  0  0  0  0  0  0  0  0  0  0
   26.3492  -21.0542   -9.8960 C   0  0  0  0  0  0  0  0  0  0  0  0
   26.1736  -22.3016  -10.0904 O   0  0  0  0  0  0  0  0  0  0  0  0
   26.3074  -20.2028  -11.0190 N   0  0  0  0  0  0  0  0  0  0  0  0
   26.0500  -20.6606  -12.3689 C   0  0  1  0  0  0  0  0  0  0  0  0
   24.8131  -21.4983  -12.3637 C   0  0  0  0  0  0  0  0  0  0  0  0
   23.5601  -20.7448  -12.2831 C   0  0  0  0  0  0  0  0  0  0  0  0
   22.6035  -21.0354  -11.3310 C   0  0  0  0  0  0  0  0  0  0  0  0
   21.4340  -20.3256  -11.2536 C   0  0  0  0  0  0  0  0  0  0  0  0
   21.1778  -19.2810  -12.1439 C   0  0  0  0  0  0  0  0  0  0  0  0
   22.1145  -18.9708  -13.1025 C   0  0  0  0  0  0  0  0  0  0  0  0
   23.2754  -19.6989  -13.1552 C   0  0  0  0  0  0  0  0  0  0  0  0
   26.0785  -19.5840  -13.3601 C   0  0  0  0  0  0  0  0  0  0  0  0
   26.1947  -18.3969  -13.0064 O   0  0  0  0  0  0  0  0  0  0  0  0
   25.9765  -19.8834  -14.6966 O   0  0  0  0  0  0  0  0  0  0  0  0
  1  2  1  0
  3  4  2  0
  3  2  1  0
  5  3  1  0
  6  5  1  0
  6  7  1  1
  8 13  1  0
  8  7  1  0
  9  8  2  0
 10  9  1  0
 10 11  2  0
 11 12  1  0
 12 13  2  0
 14  6  1  0
 15 14  2  0
 16 14  1  0
 17 18  1  1
 17 16  1  0
 18 19  1  0
 19 24  1  0
 19 20  2  0
 20 21  1  0
 21 22  2  0
 23 22  1  0
 24 23  2  0
 25 17  1  0
 26 25  2  0
 27 25  1  0
M  END
$$$$
