GFF.pdb
     RDKit          3D

 27 28  0  0  1  0  0  0  0  0999 V2000
   25.2535  -16.9803  -16.3085 N   0  0  0  0  0  0  0  0  0  0  0  0
   24.9802  -17.2298  -14.9001 C   0  0  0  0  0  0  0  0  0  0  0  0
   25.3686  -18.6112  -14.5792 C   0  0  0  0  0  0  0  0  0  0  0  0
   24.9149  -19.5805  -15.2137 O   0  0  0  0  0  0  0  0  0  0  0  0
   26.2912  -18.8312  -13.5088 N   0  0  0  0  0  0  0  0  0  0  0  0
   26.6329  -20.1863  -13.1266 C   0  0  1  0  0  0  0  0  0  0  0  0
   28.1074  -20.3947  -13.2953 C   0  0  0  0  0  0  0  0  0  0  0  0
   28.5620  -20.2544  -14.7016 C   0  0  0  0  0  0  0  0  0  0  0  0
   29.0300  -19.0478  -15.1573 C   0  0  0  0  0  0  0  0  0  0  0  0
   29.4588  -18.9238  -16.4771 C   0  0  0  0  0  0  0  0  0  0  0  0
   29.4217  -19.9936  -17.3375 C   0  0  0  0  0  0  0  0  0  0  0  0
   28.9526  -21.2129  -16.8906 C   0  0  0  0  0  0  0  0  0  0  0  0
   28.5286  -21.3352  -15.5846 C   0  0  0  0  0  0  0  0  0  0  0  0
   26.1299  -20.4146  -11.7533 C   0  0  0  0  0  0  0  0  0  0  0  0
   26.9112  -20.7642  -10.8088 O   0  0  0  0  0  0  0  0  0  0  0  0
   24.7632  -20.2510  -11.4478 N   0  0  0  0  0  0  0  0  0  0  0  0
   24.1405  -20.7561  -10.2416 C   0  0  1  0  0  0  0  0  0  0  0  0
   24.3528  -19.7673   -9.1420 C   0  0  0  0  0  0  0  0  0  0  0  0
   25.6069  -19.9283   -8.4034 C   0  0  0  0  0  0  0  0  0  0  0  0
   26.0332  -21.1669   -7.9671 C   0  0  0  0  0  0  0  0  0  0  0  0
   27.2097  -21.3164   -7.2809 C   0  0  0  0  0  0  0  0  0  0  0  0
   28.0145  -20.2098   -7.0030 C   0  0  0  0  0  0  0  0  0  0  0  0
   27.6129  -18.9641   -7.4266 C   0  0  0  0  0  0  0  0  0  0  0  0
   26.4305  -18.8459   -8.1111 C   0  0  0  0  0  0  0  0  0  0  0  0
   22.7567  -21.1885  -10.4425 C   0  0  0  0  0  0  0  0  0  0  0  0
   22.1972  -21.0387  -11.5435 O   0  0  0  0  0  0  0  0  0  0  0  0
   22.0647  -21.7669   -9.4066 O   0  0  0  0  0  0  0  0  0  0  0  0
  1  2  1  0
  3  4  2  0
  3  2  1  0
  5  3  1  0
  6  5  1  0
  6  7  1  1
  8 13  1  0
  8  7  1  0
  9  8  2  0
 10  9  1  0
 10 11  2  0
 11 12  1  0
 12 13  2  0
 14  6  1  0
 15 14  2  0
 16 14  1  0
 17 18  1  1
 17 16  1  0
 18 19  1  0
 19 24  1  0
 19 20  2  0
 20 21  1  0
 21 22  2  0
 23 22  1  0
 24 23  2  0
 25 17  1  0
 26 25  2  0
 27 25  1  0
M  END
$$$$
