GFF.pdb
     RDKit          3D

 27 28  0  0  1  0  0  0  0  0999 V2000
   20.7376  -17.0716  -14.4477 N   0  0  0  0  0  0  0  0  0  0  0  0
   21.9983  -16.8938  -13.7410 C   0  0  0  0  0  0  0  0  0  0  0  0
   23.0825  -17.4640  -14.5544 C   0  0  0  0  0  0  0  0  0  0  0  0
   22.8482  -18.1984  -15.5310 O   0  0  0  0  0  0  0  0  0  0  0  0
   24.4346  -17.1585  -14.2028 N   0  0  0  0  0  0  0  0  0  0  0  0
   25.5182  -17.6702  -15.0172 C   0  0  1  0  0  0  0  0  0  0  0  0
   26.5758  -16.6177  -15.1577 C   0  0  0  0  0  0  0  0  0  0  0  0
   27.5729  -16.9259  -16.2133 C   0  0  0  0  0  0  0  0  0  0  0  0
   28.7777  -17.4913  -15.8792 C   0  0  0  0  0  0  0  0  0  0  0  0
   29.7076  -17.7816  -16.8752 C   0  0  0  0  0  0  0  0  0  0  0  0
   29.4402  -17.5110  -18.1949 C   0  0  0  0  0  0  0  0  0  0  0  0
   28.2314  -16.9420  -18.5434 C   0  0  0  0  0  0  0  0  0  0  0  0
   27.3115  -16.6549  -17.5576 C   0  0  0  0  0  0  0  0  0  0  0  0
   25.9850  -18.9382  -14.4127 C   0  0  0  0  0  0  0  0  0  0  0  0
   26.7141  -18.9474  -13.3672 O   0  0  0  0  0  0  0  0  0  0  0  0
   25.6347  -20.1808  -14.9795 N   0  0  0  0  0  0  0  0  0  0  0  0
   26.3188  -21.4230  -14.6847 C   0  0  1  0  0  0  0  0  0  0  0  0
   25.4746  -22.2251  -13.7488 C   0  0  0  0  0  0  0  0  0  0  0  0
   25.2249  -21.5942  -12.4512 C   0  0  0  0  0  0  0  0  0  0  0  0
   23.9944  -21.0523  -12.1375 C   0  0  0  0  0  0  0  0  0  0  0  0
   23.7610  -20.4671  -10.9207 C   0  0  0  0  0  0  0  0  0  0  0  0
   24.7708  -20.4036   -9.9586 C   0  0  0  0  0  0  0  0  0  0  0  0
   26.0063  -20.9361  -10.2457 C   0  0  0  0  0  0  0  0  0  0  0  0
   26.2099  -21.5152  -11.4720 C   0  0  0  0  0  0  0  0  0  0  0  0
   26.7780  -22.1286  -15.8820 C   0  0  0  0  0  0  0  0  0  0  0  0
   27.4946  -23.1412  -15.7877 O   0  0  0  0  0  0  0  0  0  0  0  0
   26.4157  -21.6712  -17.1254 O   0  0  0  0  0  0  0  0  0  0  0  0
  1  2  1  0
  3  4  2  0
  3  2  1  0
  5  3  1  0
  6  5  1  0
  6  7  1  1
  8 13  1  0
  8  7  1  0
  9  8  2  0
 10  9  1  0
 10 11  2  0
 11 12  1  0
 12 13  2  0
 14  6  1  0
 15 14  2  0
 16 14  1  0
 17 18  1  6
 17 16  1  0
 18 19  1  0
 19 24  1  0
 19 20  2  0
 20 21  1  0
 21 22  2  0
 23 22  1  0
 24 23  2  0
 25 17  1  0
 26 25  2  0
 27 25  1  0
M  END
$$$$
