GFF.pdb
     RDKit          3D

 27 28  0  0  1  0  0  0  0  0999 V2000
   27.6518  -22.3448  -17.3351 N   0  0  0  0  0  0  0  0  0  0  0  0
   27.2430  -21.2145  -16.5131 C   0  0  0  0  0  0  0  0  0  0  0  0
   27.2333  -21.6324  -15.1033 C   0  0  0  0  0  0  0  0  0  0  0  0
   27.1056  -22.8265  -14.7778 O   0  0  0  0  0  0  0  0  0  0  0  0
   27.3750  -20.6311  -14.0921 N   0  0  0  0  0  0  0  0  0  0  0  0
   27.3074  -21.0108  -12.6955 C   0  0  1  0  0  0  0  0  0  0  0  0
   28.0203  -19.9864  -11.8657 C   0  0  0  0  0  0  0  0  0  0  0  0
   27.8385  -20.1849  -10.4058 C   0  0  0  0  0  0  0  0  0  0  0  0
   26.7522  -19.6426   -9.7667 C   0  0  0  0  0  0  0  0  0  0  0  0
   26.5854  -19.8359   -8.3971 C   0  0  0  0  0  0  0  0  0  0  0  0
   27.4938  -20.5640   -7.6685 C   0  0  0  0  0  0  0  0  0  0  0  0
   28.5910  -21.1146   -8.3005 C   0  0  0  0  0  0  0  0  0  0  0  0
   28.7557  -20.9232   -9.6557 C   0  0  0  0  0  0  0  0  0  0  0  0
   25.8832  -21.2084  -12.3438 C   0  0  0  0  0  0  0  0  0  0  0  0
   25.5390  -21.7292  -11.2325 O   0  0  0  0  0  0  0  0  0  0  0  0
   24.8592  -20.8237  -13.2334 N   0  0  0  0  0  0  0  0  0  0  0  0
   23.4466  -20.9392  -12.9352 C   0  0  1  0  0  0  0  0  0  0  0  0
   23.1465  -20.1322  -11.7142 C   0  0  0  0  0  0  0  0  0  0  0  0
   21.7239  -20.0190  -11.3859 C   0  0  0  0  0  0  0  0  0  0  0  0
   21.1275  -20.8561  -10.4641 C   0  0  0  0  0  0  0  0  0  0  0  0
   19.7974  -20.7451  -10.1541 C   0  0  0  0  0  0  0  0  0  0  0  0
   19.0045  -19.7738  -10.7683 C   0  0  0  0  0  0  0  0  0  0  0  0
   19.5740  -18.9268  -11.6907 C   0  0  0  0  0  0  0  0  0  0  0  0
   20.9075  -19.0621  -11.9803 C   0  0  0  0  0  0  0  0  0  0  0  0
   22.5881  -20.6768  -14.0913 C   0  0  0  0  0  0  0  0  0  0  0  0
   21.5209  -21.2976  -14.2447 O   0  0  0  0  0  0  0  0  0  0  0  0
   22.9609  -19.7353  -15.0191 O   0  0  0  0  0  0  0  0  0  0  0  0
  1  2  1  0
  3  4  2  0
  3  2  1  0
  5  3  1  0
  6  5  1  0
  6  7  1  1
  8 13  1  0
  8  7  1  0
  9  8  2  0
 10  9  1  0
 10 11  2  0
 11 12  1  0
 12 13  2  0
 14  6  1  0
 15 14  2  0
 16 14  1  0
 17 18  1  1
 17 16  1  0
 18 19  1  0
 19 24  1  0
 19 20  2  0
 20 21  1  0
 21 22  2  0
 23 22  1  0
 24 23  2  0
 25 17  1  0
 26 25  2  0
 27 25  1  0
M  END
$$$$
