GFF.pdb
     RDKit          3D

 27 28  0  0  1  0  0  0  0  0999 V2000
   28.9813  -25.5797  -16.9026 N   0  0  0  0  0  0  0  0  0  0  0  0
   27.9166  -24.7321  -17.4208 C   0  0  0  0  0  0  0  0  0  0  0  0
   27.9687  -23.4326  -16.7345 C   0  0  0  0  0  0  0  0  0  0  0  0
   28.8463  -23.1751  -15.8910 O   0  0  0  0  0  0  0  0  0  0  0  0
   26.9798  -22.4502  -17.0543 N   0  0  0  0  0  0  0  0  0  0  0  0
   27.0201  -21.1568  -16.4026 C   0  0  1  0  0  0  0  0  0  0  0  0
   26.5257  -20.1060  -17.3500 C   0  0  0  0  0  0  0  0  0  0  0  0
   26.5295  -18.7413  -16.7656 C   0  0  0  0  0  0  0  0  0  0  0  0
   27.6122  -17.9178  -16.9455 C   0  0  0  0  0  0  0  0  0  0  0  0
   27.6078  -16.6368  -16.3977 C   0  0  0  0  0  0  0  0  0  0  0  0
   26.5332  -16.1787  -15.6756 C   0  0  0  0  0  0  0  0  0  0  0  0
   25.4379  -16.9982  -15.4877 C   0  0  0  0  0  0  0  0  0  0  0  0
   25.4426  -18.2656  -16.0300 C   0  0  0  0  0  0  0  0  0  0  0  0
   26.2563  -21.2576  -15.1387 C   0  0  0  0  0  0  0  0  0  0  0  0
   25.1779  -21.9332  -15.0657 O   0  0  0  0  0  0  0  0  0  0  0  0
   26.7021  -20.6051  -13.9710 N   0  0  0  0  0  0  0  0  0  0  0  0
   26.0496  -20.7215  -12.6832 C   0  0  1  0  0  0  0  0  0  0  0  0
   27.0719  -20.5391  -11.6092 C   0  0  0  0  0  0  0  0  0  0  0  0
   26.5355  -20.5155  -10.2469 C   0  0  0  0  0  0  0  0  0  0  0  0
   26.2839  -19.3269   -9.5911 C   0  0  0  0  0  0  0  0  0  0  0  0
   25.7768  -19.3067   -8.3184 C   0  0  0  0  0  0  0  0  0  0  0  0
   25.4992  -20.4986   -7.6463 C   0  0  0  0  0  0  0  0  0  0  0  0
   25.7408  -21.6971   -8.2770 C   0  0  0  0  0  0  0  0  0  0  0  0
   26.2485  -21.6854   -9.5508 C   0  0  0  0  0  0  0  0  0  0  0  0
   24.8533  -19.8868  -12.5634 C   0  0  0  0  0  0  0  0  0  0  0  0
   23.8542  -20.2926  -11.9430 O   0  0  0  0  0  0  0  0  0  0  0  0
   24.8295  -18.6407  -13.1406 O   0  0  0  0  0  0  0  0  0  0  0  0
  1  2  1  0
  3  4  2  0
  3  2  1  0
  5  3  1  0
  6  5  1  0
  6  7  1  6
  8 13  1  0
  8  7  1  0
  9  8  2  0
 10  9  1  0
 10 11  2  0
 11 12  1  0
 12 13  2  0
 14  6  1  0
 15 14  2  0
 16 14  1  0
 17 18  1  1
 17 16  1  0
 18 19  1  0
 19 24  1  0
 19 20  2  0
 20 21  1  0
 21 22  2  0
 23 22  1  0
 24 23  2  0
 25 17  1  0
 26 25  2  0
 27 25  1  0
M  END
$$$$
