GFF.pdb
     RDKit          3D

 27 28  0  0  1  0  0  0  0  0999 V2000
   28.0833  -22.2371  -13.9590 N   0  0  0  0  0  0  0  0  0  0  0  0
   28.5626  -21.1750  -13.0856 C   0  0  0  0  0  0  0  0  0  0  0  0
   28.1830  -21.4923  -11.7009 C   0  0  0  0  0  0  0  0  0  0  0  0
   27.3372  -22.3669  -11.4405 O   0  0  0  0  0  0  0  0  0  0  0  0
   28.8093  -20.7699  -10.6373 N   0  0  0  0  0  0  0  0  0  0  0  0
   28.2290  -20.8051   -9.3103 C   0  0  1  0  0  0  0  0  0  0  0  0
   29.2080  -20.2451   -8.3234 C   0  0  0  0  0  0  0  0  0  0  0  0
   28.6364  -20.0722   -6.9643 C   0  0  0  0  0  0  0  0  0  0  0  0
   28.8433  -21.0291   -6.0029 C   0  0  0  0  0  0  0  0  0  0  0  0
   28.3073  -20.8588   -4.7282 C   0  0  0  0  0  0  0  0  0  0  0  0
   27.5702  -19.7438   -4.4127 C   0  0  0  0  0  0  0  0  0  0  0  0
   27.3551  -18.7741   -5.3717 C   0  0  0  0  0  0  0  0  0  0  0  0
   27.8856  -18.9428   -6.6328 C   0  0  0  0  0  0  0  0  0  0  0  0
   26.9296  -20.0980   -9.3605 C   0  0  0  0  0  0  0  0  0  0  0  0
   26.8463  -18.8871   -9.7499 O   0  0  0  0  0  0  0  0  0  0  0  0
   25.7383  -20.7472   -8.9767 N   0  0  0  0  0  0  0  0  0  0  0  0
   24.4213  -20.1584   -9.1061 C   0  0  1  0  0  0  0  0  0  0  0  0
   24.2820  -19.5921  -10.4815 C   0  0  0  0  0  0  0  0  0  0  0  0
   23.9282  -20.5669  -11.5152 C   0  0  0  0  0  0  0  0  0  0  0  0
   24.8746  -21.0731  -12.3837 C   0  0  0  0  0  0  0  0  0  0  0  0
   24.5427  -21.9894  -13.3468 C   0  0  0  0  0  0  0  0  0  0  0  0
   23.2269  -22.4384  -13.4756 C   0  0  0  0  0  0  0  0  0  0  0  0
   22.2642  -21.9498  -12.6229 C   0  0  0  0  0  0  0  0  0  0  0  0
   22.6267  -21.0337  -11.6690 C   0  0  0  0  0  0  0  0  0  0  0  0
   23.3436  -21.0524   -8.6800 C   0  0  0  0  0  0  0  0  0  0  0  0
   22.1554  -20.6882   -8.7367 O   0  0  0  0  0  0  0  0  0  0  0  0
   23.6432  -22.3085   -8.2121 O   0  0  0  0  0  0  0  0  0  0  0  0
  1  2  1  0
  3  4  2  0
  3  2  1  0
  5  3  1  0
  6  5  1  0
  6  7  1  1
  8 13  1  0
  8  7  1  0
  9  8  2  0
 10  9  1  0
 10 11  2  0
 11 12  1  0
 12 13  2  0
 14  6  1  0
 15 14  2  0
 16 14  1  0
 17 18  1  6
 17 16  1  0
 18 19  1  0
 19 24  1  0
 19 20  2  0
 20 21  1  0
 21 22  2  0
 23 22  1  0
 24 23  2  0
 25 17  1  0
 26 25  2  0
 27 25  1  0
M  END
$$$$
