GFF.pdb
     RDKit          3D

 27 28  0  0  1  0  0  0  0  0999 V2000
   25.9635  -23.9735  -16.0223 N   0  0  0  0  0  0  0  0  0  0  0  0
   25.1468  -23.2928  -15.0272 C   0  0  0  0  0  0  0  0  0  0  0  0
   26.0097  -22.4081  -14.2304 C   0  0  0  0  0  0  0  0  0  0  0  0
   27.2450  -22.3959  -14.3778 O   0  0  0  0  0  0  0  0  0  0  0  0
   25.4002  -21.5457  -13.2659 N   0  0  0  0  0  0  0  0  0  0  0  0
   26.2254  -20.6341  -12.4996 C   0  0  1  0  0  0  0  0  0  0  0  0
   25.7806  -19.2257  -12.7543 C   0  0  0  0  0  0  0  0  0  0  0  0
   26.2405  -18.6932  -14.0615 C   0  0  0  0  0  0  0  0  0  0  0  0
   25.3738  -18.6304  -15.1234 C   0  0  0  0  0  0  0  0  0  0  0  0
   25.8107  -18.1260  -16.3463 C   0  0  0  0  0  0  0  0  0  0  0  0
   27.1016  -17.6872  -16.5114 C   0  0  0  0  0  0  0  0  0  0  0  0
   27.9831  -17.7456  -15.4502 C   0  0  0  0  0  0  0  0  0  0  0  0
   27.5504  -18.2447  -14.2402 C   0  0  0  0  0  0  0  0  0  0  0  0
   26.1717  -21.0517  -11.0805 C   0  0  0  0  0  0  0  0  0  0  0  0
   25.1516  -21.6465  -10.6007 O   0  0  0  0  0  0  0  0  0  0  0  0
   27.2544  -20.8021  -10.2124 N   0  0  0  0  0  0  0  0  0  0  0  0
   27.1920  -20.9736   -8.7756 C   0  0  1  0  0  0  0  0  0  0  0  0
   28.4363  -20.4099   -8.1707 C   0  0  0  0  0  0  0  0  0  0  0  0
   28.4126  -20.2932   -6.7112 C   0  0  0  0  0  0  0  0  0  0  0  0
   28.9427  -21.2767   -5.9002 C   0  0  0  0  0  0  0  0  0  0  0  0
   28.9245  -21.1632   -4.5348 C   0  0  0  0  0  0  0  0  0  0  0  0
   28.3642  -20.0398   -3.9236 C   0  0  0  0  0  0  0  0  0  0  0  0
   27.8290  -19.0450   -4.7088 C   0  0  0  0  0  0  0  0  0  0  0  0
   27.8618  -19.1868   -6.0724 C   0  0  0  0  0  0  0  0  0  0  0  0
   25.9363  -20.5009   -8.1907 C   0  0  0  0  0  0  0  0  0  0  0  0
   25.2866  -21.2216   -7.4120 O   0  0  0  0  0  0  0  0  0  0  0  0
   25.4668  -19.2483   -8.5019 O   0  0  0  0  0  0  0  0  0  0  0  0
  1  2  1  0
  3  4  2  0
  3  2  1  0
  5  3  1  0
  6  5  1  0
  6  7  1  1
  8 13  1  0
  8  7  1  0
  9  8  2  0
 10  9  1  0
 10 11  2  0
 11 12  1  0
 12 13  2  0
 14  6  1  0
 15 14  2  0
 16 14  1  0
 17 18  1  1
 17 16  1  0
 18 19  1  0
 19 24  1  0
 19 20  2  0
 20 21  1  0
 21 22  2  0
 23 22  1  0
 24 23  2  0
 25 17  1  0
 26 25  2  0
 27 25  1  0
M  END
$$$$
