CTD.pdb
     RDKit          3D

 22 21  0  0  1  0  0  0  0  0999 V2000
   16.6384  -13.2535  -15.4406 N   0  0  0  0  0  0  0  0  0  0  0  0
   17.0508  -12.1570  -16.2925 C   0  0  1  0  0  0  0  0  0  0  0  0
   16.0656  -11.0160  -16.0679 C   0  0  0  0  0  0  0  0  0  0  0  0
   14.5088  -11.4871  -16.8589 S   0  0  0  0  0  0  0  0  0  0  0  0
   18.4129  -11.7190  -15.8817 C   0  0  0  0  0  0  0  0  0  0  0  0
   18.8614  -11.8661  -14.7285 O   0  0  0  0  0  0  0  0  0  0  0  0
   22.9073  -10.4764  -17.4557 C   0  0  0  0  0  0  0  0  0  0  0  0
   21.5068  -10.9902  -17.6805 C   0  0  1  0  0  0  0  0  0  0  0  0
   21.5620  -12.3796  -17.7433 O   0  0  0  0  0  0  0  0  0  0  0  0
   20.6030  -10.6463  -16.4934 C   0  0  2  0  0  0  0  0  0  0  0  0
   19.2774  -11.0927  -16.8380 N   0  0  0  0  0  0  0  0  0  0  0  0
   20.5857   -9.2021  -16.2441 C   0  0  0  0  0  0  0  0  0  0  0  0
   19.9063   -8.4269  -16.9458 O   0  0  0  0  0  0  0  0  0  0  0  0
   21.3490   -8.6321  -15.1853 N   0  0  0  0  0  0  0  0  0  0  0  0
   21.4406   -7.2192  -14.9536 C   0  0  1  0  0  0  0  0  0  0  0  0
   21.9508   -6.8553  -13.5969 C   0  0  0  0  0  0  0  0  0  0  0  0
   22.0432   -5.4319  -13.3191 C   0  0  0  0  0  0  0  0  0  0  0  0
   21.0102   -4.7231  -13.3528 O   0  0  0  0  0  0  0  0  0  0  0  0
   22.1339   -6.5586  -16.0585 C   0  0  0  0  0  0  0  0  0  0  0  0
   21.6656   -5.3969  -16.6464 O   0  0  0  0  0  0  0  0  0  0  0  0
   23.2329   -4.7977  -13.0121 O   0  0  0  0  0  0  0  0  0  0  0  0
   23.1962   -7.0443  -16.5087 O   0  0  0  0  0  0  0  0  0  0  0  0
  2  1  1  1
  2  5  1  0
  2  3  1  0
  4  3  1  0
  5 11  1  0
  6  5  2  0
  8  7  1  1
  8  9  1  0
 10  8  1  0
 10 12  1  0
 10 11  1  6
 12 13  2  0
 12 14  1  0
 14 15  1  0
 15 16  1  1
 17 16  1  0
 17 21  1  0
 18 17  2  0
 19 15  1  0
 19 20  1  0
 22 19  2  0
M  END
$$$$
