CTD.pdb
     RDKit          3D

 22 21  0  0  1  0  0  0  0  0999 V2000
   18.6912  -12.9938  -16.5736 N   0  0  0  0  0  0  0  0  0  0  0  0
   19.2070  -11.7583  -17.1263 C   0  0  1  0  0  0  0  0  0  0  0  0
   18.0464  -11.0553  -17.8202 C   0  0  0  0  0  0  0  0  0  0  0  0
   17.5443  -12.0943  -19.2129 S   0  0  0  0  0  0  0  0  0  0  0  0
   19.7026  -10.9061  -16.0109 C   0  0  0  0  0  0  0  0  0  0  0  0
   19.1455  -10.8415  -14.8982 O   0  0  0  0  0  0  0  0  0  0  0  0
   22.9493  -11.2528  -14.5010 C   0  0  0  0  0  0  0  0  0  0  0  0
   22.9039   -9.8190  -14.9680 C   0  0  1  0  0  0  0  0  0  0  0  0
   23.4734   -9.7603  -16.2367 O   0  0  0  0  0  0  0  0  0  0  0  0
   21.4573   -9.3410  -15.1205 C   0  0  2  0  0  0  0  0  0  0  0  0
   20.8782  -10.1071  -16.1944 N   0  0  0  0  0  0  0  0  0  0  0  0
   21.4049   -7.9142  -15.4512 C   0  0  0  0  0  0  0  0  0  0  0  0
   21.4629   -7.5152  -16.6312 O   0  0  0  0  0  0  0  0  0  0  0  0
   21.2852   -6.9292  -14.4294 N   0  0  0  0  0  0  0  0  0  0  0  0
   21.2971   -5.5186  -14.6911 C   0  0  1  0  0  0  0  0  0  0  0  0
   19.9425   -4.9280  -14.9136 C   0  0  0  0  0  0  0  0  0  0  0  0
   19.9083   -3.4907  -15.1246 C   0  0  0  0  0  0  0  0  0  0  0  0
   20.6058   -2.9781  -16.0310 O   0  0  0  0  0  0  0  0  0  0  0  0
   22.1083   -4.8159  -13.6981 C   0  0  0  0  0  0  0  0  0  0  0  0
   22.5862   -5.4300  -12.5540 O   0  0  0  0  0  0  0  0  0  0  0  0
   19.1326   -2.6338  -14.3656 O   0  0  0  0  0  0  0  0  0  0  0  0
   22.3958   -3.6093  -13.8672 O   0  0  0  0  0  0  0  0  0  0  0  0
  2  1  1  1
  2  5  1  0
  2  3  1  0
  4  3  1  0
  5 11  1  0
  6  5  2  0
  8  7  1  6
  8  9  1  0
 10  8  1  0
 10 12  1  0
 10 11  1  6
 12 13  2  0
 12 14  1  0
 14 15  1  0
 15 16  1  1
 17 16  1  0
 17 21  1  0
 18 17  2  0
 19 15  1  0
 19 20  1  0
 22 19  2  0
M  END
$$$$
