CTD.pdb
     RDKit          3D

 22 21  0  0  1  0  0  0  0  0999 V2000
   18.2257  -13.2954  -16.0400 N   0  0  0  0  0  0  0  0  0  0  0  0
   18.2162  -11.9353  -16.5382 C   0  0  1  0  0  0  0  0  0  0  0  0
   16.8078  -11.3899  -16.3343 C   0  0  0  0  0  0  0  0  0  0  0  0
   15.7555  -12.1314  -17.6048 S   0  0  0  0  0  0  0  0  0  0  0  0
   19.1774  -11.1270  -15.7388 C   0  0  0  0  0  0  0  0  0  0  0  0
   19.2917  -11.2242  -14.5018 O   0  0  0  0  0  0  0  0  0  0  0  0
   22.7347  -11.1821  -16.1165 C   0  0  0  0  0  0  0  0  0  0  0  0
   22.3709   -9.7323  -16.3208 C   0  0  1  0  0  0  0  0  0  0  0  0
   22.2198   -9.5138  -17.6871 O   0  0  0  0  0  0  0  0  0  0  0  0
   21.0172   -9.4146  -15.6795 C   0  0  2  0  0  0  0  0  0  0  0  0
   20.0289  -10.1797  -16.3958 N   0  0  0  0  0  0  0  0  0  0  0  0
   20.7049   -7.9866  -15.7860 C   0  0  0  0  0  0  0  0  0  0  0  0
   19.8196   -7.5680  -16.5581 O   0  0  0  0  0  0  0  0  0  0  0  0
   21.4064   -7.0230  -15.0063 N   0  0  0  0  0  0  0  0  0  0  0  0
   21.0678   -5.6289  -14.9874 C   0  0  1  0  0  0  0  0  0  0  0  0
   19.6371   -5.3530  -14.6555 C   0  0  0  0  0  0  0  0  0  0  0  0
   19.2673   -3.9499  -14.5774 C   0  0  0  0  0  0  0  0  0  0  0  0
   19.3377   -3.3480  -13.4803 O   0  0  0  0  0  0  0  0  0  0  0  0
   22.0314   -4.8743  -14.1873 C   0  0  0  0  0  0  0  0  0  0  0  0
   22.2568   -3.5214  -14.3694 O   0  0  0  0  0  0  0  0  0  0  0  0
   18.8316   -3.2215  -15.6689 O   0  0  0  0  0  0  0  0  0  0  0  0
   22.6917   -5.4533  -13.2952 O   0  0  0  0  0  0  0  0  0  0  0  0
  2  1  1  1
  2  5  1  0
  2  3  1  0
  4  3  1  0
  5 11  1  0
  6  5  2  0
  8  7  1  6
  8  9  1  0
 10  8  1  0
 10 12  1  0
 10 11  1  6
 12 13  2  0
 12 14  1  0
 14 15  1  0
 15 16  1  1
 17 16  1  0
 17 21  1  0
 18 17  2  0
 19 15  1  0
 19 20  1  0
 22 19  2  0
M  END
$$$$
