CTD.pdb
     RDKit          3D

 22 21  0  0  1  0  0  0  0  0999 V2000
   18.2256  -14.6699  -15.9969 N   0  0  0  0  0  0  0  0  0  0  0  0
   17.9813  -13.2599  -16.2209 C   0  0  1  0  0  0  0  0  0  0  0  0
   17.1333  -12.7586  -15.0580 C   0  0  0  0  0  0  0  0  0  0  0  0
   15.4472  -13.3558  -15.3261 S   0  0  0  0  0  0  0  0  0  0  0  0
   19.2861  -12.5434  -16.2231 C   0  0  0  0  0  0  0  0  0  0  0  0
   20.2949  -12.9549  -15.6183 O   0  0  0  0  0  0  0  0  0  0  0  0
   22.2343   -9.5875  -18.6755 C   0  0  0  0  0  0  0  0  0  0  0  0
   21.0859  -10.5450  -18.4745 C   0  0  1  0  0  0  0  0  0  0  0  0
   21.5290  -11.8241  -18.7986 O   0  0  0  0  0  0  0  0  0  0  0  0
   20.6669  -10.5922  -17.0025 C   0  0  2  0  0  0  0  0  0  0  0  0
   19.4218  -11.3147  -16.9484 N   0  0  0  0  0  0  0  0  0  0  0  0
   20.4753   -9.2424  -16.4647 C   0  0  0  0  0  0  0  0  0  0  0  0
   19.4764   -8.5574  -16.7613 O   0  0  0  0  0  0  0  0  0  0  0  0
   21.4296   -8.6640  -15.5795 N   0  0  0  0  0  0  0  0  0  0  0  0
   21.3364   -7.3177  -15.0927 C   0  0  1  0  0  0  0  0  0  0  0  0
   22.2506   -7.0177  -13.9493 C   0  0  0  0  0  0  0  0  0  0  0  0
   22.1366   -5.6838  -13.3842 C   0  0  0  0  0  0  0  0  0  0  0  0
   23.1173   -4.9046  -13.4256 O   0  0  0  0  0  0  0  0  0  0  0  0
   21.4145   -6.3627  -16.1972 C   0  0  0  0  0  0  0  0  0  0  0  0
   20.5861   -5.2584  -16.2900 O   0  0  0  0  0  0  0  0  0  0  0  0
   20.9814   -5.2118  -12.7887 O   0  0  0  0  0  0  0  0  0  0  0  0
   22.2569   -6.5290  -17.1082 O   0  0  0  0  0  0  0  0  0  0  0  0
  2  1  1  1
  2  5  1  0
  2  3  1  0
  4  3  1  0
  5 11  1  0
  6  5  2  0
  8  7  1  1
  8  9  1  0
 10  8  1  0
 10 12  1  0
 10 11  1  6
 12 13  2  0
 12 14  1  0
 14 15  1  0
 15 16  1  1
 17 16  1  0
 17 21  1  0
 18 17  2  0
 19 15  1  0
 19 20  1  0
 22 19  2  0
M  END
$$$$
