CTD.pdb
     RDKit          3D

 22 21  0  0  1  0  0  0  0  0999 V2000
   16.5458  -13.5175  -15.4290 N   0  0  0  0  0  0  0  0  0  0  0  0
   16.7037  -12.1272  -15.8036 C   0  0  1  0  0  0  0  0  0  0  0  0
   15.8405  -11.3036  -14.8553 C   0  0  0  0  0  0  0  0  0  0  0  0
   14.1166  -11.7470  -15.1763 S   0  0  0  0  0  0  0  0  0  0  0  0
   18.1314  -11.7441  -15.6274 C   0  0  0  0  0  0  0  0  0  0  0  0
   18.8684  -12.2319  -14.7490 O   0  0  0  0  0  0  0  0  0  0  0  0
   21.0121  -12.0438  -17.9086 C   0  0  0  0  0  0  0  0  0  0  0  0
   20.7773  -10.5705  -17.6846 C   0  0  1  0  0  0  0  0  0  0  0  0
   19.9029  -10.1186  -18.6688 O   0  0  0  0  0  0  0  0  0  0  0  0
   20.0813  -10.3274  -16.3426 C   0  0  2  0  0  0  0  0  0  0  0  0
   18.7182  -10.7671  -16.4964 N   0  0  0  0  0  0  0  0  0  0  0  0
   20.1018   -8.9056  -15.9874 C   0  0  0  0  0  0  0  0  0  0  0  0
   19.1528   -8.1483  -16.2716 O   0  0  0  0  0  0  0  0  0  0  0  0
   21.2133   -8.3377  -15.3013 N   0  0  0  0  0  0  0  0  0  0  0  0
   21.2647   -6.9648  -14.8879 C   0  0  1  0  0  0  0  0  0  0  0  0
   22.2495   -6.6925  -13.7974 C   0  0  0  0  0  0  0  0  0  0  0  0
   22.2891   -5.3238  -13.3109 C   0  0  0  0  0  0  0  0  0  0  0  0
   23.0451   -4.4895  -13.8614 O   0  0  0  0  0  0  0  0  0  0  0  0
   21.3845   -6.0808  -16.0465 C   0  0  0  0  0  0  0  0  0  0  0  0
   20.6642   -4.9057  -16.1673 O   0  0  0  0  0  0  0  0  0  0  0  0
   21.5229   -4.8764  -12.2504 O   0  0  0  0  0  0  0  0  0  0  0  0
   22.1638   -6.3773  -16.9803 O   0  0  0  0  0  0  0  0  0  0  0  0
  2  1  1  1
  2  5  1  0
  2  3  1  0
  4  3  1  0
  5 11  1  0
  6  5  2  0
  8  7  1  6
  8  9  1  0
 10  8  1  0
 10 12  1  0
 10 11  1  6
 12 13  2  0
 12 14  1  0
 14 15  1  0
 15 16  1  1
 17 16  1  0
 17 21  1  0
 18 17  2  0
 19 15  1  0
 19 20  1  0
 22 19  2  0
M  END
$$$$
