CTD.pdb
     RDKit          3D

 22 21  0  0  1  0  0  0  0  0999 V2000
   24.2927  -14.9218  -15.9091 N   0  0  0  0  0  0  0  0  0  0  0  0
   23.4919  -13.8183  -16.3982 C   0  0  1  0  0  0  0  0  0  0  0  0
   22.0313  -14.1769  -16.1518 C   0  0  0  0  0  0  0  0  0  0  0  0
   21.7344  -15.7838  -16.9271 S   0  0  0  0  0  0  0  0  0  0  0  0
   23.8365  -12.5965  -15.6208 C   0  0  0  0  0  0  0  0  0  0  0  0
   23.8485  -12.5573  -14.3754 O   0  0  0  0  0  0  0  0  0  0  0  0
   26.9277  -10.8866  -15.3725 C   0  0  0  0  0  0  0  0  0  0  0  0
   25.9903   -9.8730  -15.9805 C   0  0  1  0  0  0  0  0  0  0  0  0
   26.0737   -9.9847  -17.3655 O   0  0  0  0  0  0  0  0  0  0  0  0
   24.5376  -10.1821  -15.6083 C   0  0  2  0  0  0  0  0  0  0  0  0
   24.1765  -11.3870  -16.3104 N   0  0  0  0  0  0  0  0  0  0  0  0
   23.6456   -9.0918  -16.0128 C   0  0  0  0  0  0  0  0  0  0  0  0
   23.0934   -9.0811  -17.1308 O   0  0  0  0  0  0  0  0  0  0  0  0
   23.3779   -8.0009  -15.1371 N   0  0  0  0  0  0  0  0  0  0  0  0
   22.6079   -6.8533  -15.5224 C   0  0  1  0  0  0  0  0  0  0  0  0
   22.1123   -6.0371  -14.3729 C   0  0  0  0  0  0  0  0  0  0  0  0
   21.3286   -4.8648  -14.7236 C   0  0  0  0  0  0  0  0  0  0  0  0
   20.2072   -5.0052  -15.2654 O   0  0  0  0  0  0  0  0  0  0  0  0
   23.3051   -6.0862  -16.5536 C   0  0  0  0  0  0  0  0  0  0  0  0
   22.6605   -5.5662  -17.6620 O   0  0  0  0  0  0  0  0  0  0  0  0
   21.7575   -3.5714  -14.4892 O   0  0  0  0  0  0  0  0  0  0  0  0
   24.5354   -5.8779  -16.4523 O   0  0  0  0  0  0  0  0  0  0  0  0
  2  1  1  1
  2  5  1  0
  2  3  1  0
  4  3  1  0
  5 11  1  0
  6  5  2  0
  8  7  1  1
  8  9  1  0
 10  8  1  0
 10 12  1  0
 10 11  1  6
 12 13  2  0
 12 14  1  0
 14 15  1  0
 15 16  1  1
 17 16  1  0
 17 21  1  0
 18 17  2  0
 19 15  1  0
 19 20  1  0
 22 19  2  0
M  END
$$$$
