CTD.pdb
     RDKit          3D

 22 21  0  0  1  0  0  0  0  0999 V2000
   25.8041  -15.0040  -17.0787 N   0  0  0  0  0  0  0  0  0  0  0  0
   25.0360  -13.9351  -17.6832 C   0  0  1  0  0  0  0  0  0  0  0  0
   23.7588  -14.5551  -18.2375 C   0  0  0  0  0  0  0  0  0  0  0  0
   24.2506  -15.8153  -19.4381 S   0  0  0  0  0  0  0  0  0  0  0  0
   24.6847  -12.9441  -16.6294 C   0  0  0  0  0  0  0  0  0  0  0  0
   24.1767  -13.2578  -15.5357 O   0  0  0  0  0  0  0  0  0  0  0  0
   27.0875  -10.6753  -15.1365 C   0  0  0  0  0  0  0  0  0  0  0  0
   25.9937   -9.7784  -15.6610 C   0  0  1  0  0  0  0  0  0  0  0  0
   26.3655   -9.3409  -16.9290 O   0  0  0  0  0  0  0  0  0  0  0  0
   24.6876  -10.5578  -15.8379 C   0  0  2  0  0  0  0  0  0  0  0  0
   24.9309  -11.5501  -16.8535 N   0  0  0  0  0  0  0  0  0  0  0  0
   23.5993   -9.6741  -16.2652 C   0  0  0  0  0  0  0  0  0  0  0  0
   23.2900   -9.5539  -17.4672 O   0  0  0  0  0  0  0  0  0  0  0  0
   22.8537   -8.9181  -15.3159 N   0  0  0  0  0  0  0  0  0  0  0  0
   21.7759   -8.0433  -15.6787 C   0  0  1  0  0  0  0  0  0  0  0  0
   20.5487   -8.2077  -14.8419 C   0  0  0  0  0  0  0  0  0  0  0  0
   19.4393   -7.3287  -15.1705 C   0  0  0  0  0  0  0  0  0  0  0  0
   19.3365   -6.2168  -14.6012 O   0  0  0  0  0  0  0  0  0  0  0  0
   22.2477   -6.6644  -15.7973 C   0  0  0  0  0  0  0  0  0  0  0  0
   21.5680   -5.7020  -16.5227 O   0  0  0  0  0  0  0  0  0  0  0  0
   18.4660   -7.6544  -16.0972 O   0  0  0  0  0  0  0  0  0  0  0  0
   23.3071   -6.3158  -15.2287 O   0  0  0  0  0  0  0  0  0  0  0  0
  2  1  1  1
  2  5  1  0
  2  3  1  0
  4  3  1  0
  5 11  1  0
  6  5  2  0
  8  7  1  6
  8  9  1  0
 10  8  1  0
 10 12  1  0
 10 11  1  6
 12 13  2  0
 12 14  1  0
 14 15  1  0
 15 16  1  1
 17 16  1  0
 17 21  1  0
 18 17  2  0
 19 15  1  0
 19 20  1  0
 22 19  2  0
M  END
$$$$
