CTD.pdb
     RDKit          3D

 22 21  0  0  1  0  0  0  0  0999 V2000
   17.9358  -12.3790  -15.6959 N   0  0  0  0  0  0  0  0  0  0  0  0
   18.3308  -11.1255  -16.3050 C   0  0  1  0  0  0  0  0  0  0  0  0
   17.0533  -10.3742  -16.6602 C   0  0  0  0  0  0  0  0  0  0  0  0
   16.1652  -11.3715  -17.8801 S   0  0  0  0  0  0  0  0  0  0  0  0
   19.1064  -10.3346  -15.3105 C   0  0  0  0  0  0  0  0  0  0  0  0
   18.8094  -10.2732  -14.1019 O   0  0  0  0  0  0  0  0  0  0  0  0
   22.6590  -10.6736  -14.3862 C   0  0  0  0  0  0  0  0  0  0  0  0
   22.4921   -9.2856  -14.9532 C   0  0  1  0  0  0  0  0  0  0  0  0
   22.7577   -9.3425  -16.3183 O   0  0  0  0  0  0  0  0  0  0  0  0
   21.0432   -8.8105  -14.8137 C   0  0  2  0  0  0  0  0  0  0  0  0
   20.2589   -9.5948  -15.7329 N   0  0  0  0  0  0  0  0  0  0  0  0
   20.9190   -7.3895  -15.1504 C   0  0  0  0  0  0  0  0  0  0  0  0
   20.7698   -7.0085  -16.3283 O   0  0  0  0  0  0  0  0  0  0  0  0
   20.9647   -6.3897  -14.1370 N   0  0  0  0  0  0  0  0  0  0  0  0
   20.9067   -4.9835  -14.4160 C   0  0  1  0  0  0  0  0  0  0  0  0
   19.6255   -4.3326  -14.0061 C   0  0  0  0  0  0  0  0  0  0  0  0
   19.5552   -2.8955  -14.2096 C   0  0  0  0  0  0  0  0  0  0  0  0
   19.5235   -2.4328  -15.3739 O   0  0  0  0  0  0  0  0  0  0  0  0
   22.1104   -4.3106  -13.9299 C   0  0  0  0  0  0  0  0  0  0  0  0
   22.9702   -4.8880  -13.0124 O   0  0  0  0  0  0  0  0  0  0  0  0
   19.5203   -1.9858  -13.1688 O   0  0  0  0  0  0  0  0  0  0  0  0
   22.3964   -3.1650  -14.3457 O   0  0  0  0  0  0  0  0  0  0  0  0
  2  1  1  1
  2  5  1  0
  2  3  1  0
  4  3  1  0
  5 11  1  0
  6  5  2  0
  8  7  1  6
  8  9  1  0
 10  8  1  0
 10 12  1  0
 10 11  1  6
 12 13  2  0
 12 14  1  0
 14 15  1  0
 15 16  1  1
 17 16  1  0
 17 21  1  0
 18 17  2  0
 19 15  1  0
 19 20  1  0
 22 19  2  0
M  END
$$$$
