CTD.pdb
     RDKit          3D

 22 21  0  0  1  0  0  0  0  0999 V2000
   17.7896  -10.9805  -15.3919 N   0  0  0  0  0  0  0  0  0  0  0  0
   18.1754   -9.8399  -16.1970 C   0  0  1  0  0  0  0  0  0  0  0  0
   16.9410   -8.9598  -16.3533 C   0  0  0  0  0  0  0  0  0  0  0  0
   15.6792   -9.9481  -17.1914 S   0  0  0  0  0  0  0  0  0  0  0  0
   19.2327   -9.0808  -15.4745 C   0  0  0  0  0  0  0  0  0  0  0  0
   19.1595   -8.7850  -14.2663 O   0  0  0  0  0  0  0  0  0  0  0  0
   23.9248   -7.5187  -15.6648 C   0  0  0  0  0  0  0  0  0  0  0  0
   22.7737   -8.3528  -16.1699 C   0  0  1  0  0  0  0  0  0  0  0  0
   22.9840   -9.6680  -15.7656 O   0  0  0  0  0  0  0  0  0  0  0  0
   21.4561   -7.9084  -15.5287 C   0  0  2  0  0  0  0  0  0  0  0  0
   20.4072   -8.6540  -16.1762 N   0  0  0  0  0  0  0  0  0  0  0  0
   21.2314   -6.4734  -15.7243 C   0  0  0  0  0  0  0  0  0  0  0  0
   20.8259   -6.0187  -16.8123 O   0  0  0  0  0  0  0  0  0  0  0  0
   21.4702   -5.5442  -14.6716 N   0  0  0  0  0  0  0  0  0  0  0  0
   21.1898   -4.1415  -14.7816 C   0  0  1  0  0  0  0  0  0  0  0  0
   19.7347   -3.8164  -14.8838 C   0  0  0  0  0  0  0  0  0  0  0  0
   19.4069   -2.4017  -14.9344 C   0  0  0  0  0  0  0  0  0  0  0  0
   20.1177   -1.6220  -15.6108 O   0  0  0  0  0  0  0  0  0  0  0  0
   21.9076   -3.3892  -13.7536 C   0  0  0  0  0  0  0  0  0  0  0  0
   21.8730   -2.0081  -13.6776 O   0  0  0  0  0  0  0  0  0  0  0  0
   18.3303   -1.8511  -14.2637 O   0  0  0  0  0  0  0  0  0  0  0  0
   22.5880   -3.9965  -12.8961 O   0  0  0  0  0  0  0  0  0  0  0  0
  2  1  1  1
  2  5  1  0
  2  3  1  0
  4  3  1  0
  5 11  1  0
  6  5  2  0
  8  7  1  1
  8  9  1  0
 10  8  1  0
 10 12  1  0
 10 11  1  6
 12 13  2  0
 12 14  1  0
 14 15  1  0
 15 16  1  1
 17 16  1  0
 17 21  1  0
 18 17  2  0
 19 15  1  0
 19 20  1  0
 22 19  2  0
M  END
$$$$
