CTD.pdb
     RDKit          3D

 22 21  0  0  1  0  0  0  0  0999 V2000
   18.3258  -14.0224  -16.2542 N   0  0  0  0  0  0  0  0  0  0  0  0
   17.8098  -12.6739  -16.1386 C   0  0  1  0  0  0  0  0  0  0  0  0
   17.2797  -12.5140  -14.7187 C   0  0  0  0  0  0  0  0  0  0  0  0
   15.8716  -13.6353  -14.5415 S   0  0  0  0  0  0  0  0  0  0  0  0
   18.9266  -11.7145  -16.3578 C   0  0  0  0  0  0  0  0  0  0  0  0
   20.1263  -12.0115  -16.1992 O   0  0  0  0  0  0  0  0  0  0  0  0
   19.5839   -9.9665  -19.5577 C   0  0  0  0  0  0  0  0  0  0  0  0
   19.3583   -8.9043  -18.5105 C   0  0  1  0  0  0  0  0  0  0  0  0
   18.0034   -8.5856  -18.5042 O   0  0  0  0  0  0  0  0  0  0  0  0
   19.6836   -9.4390  -17.1130 C   0  0  2  0  0  0  0  0  0  0  0  0
   18.6408  -10.3728  -16.7729 N   0  0  0  0  0  0  0  0  0  0  0  0
   19.7133   -8.3552  -16.1269 C   0  0  0  0  0  0  0  0  0  0  0  0
   18.6847   -7.9967  -15.5200 O   0  0  0  0  0  0  0  0  0  0  0  0
   20.9258   -7.6707  -15.8268 N   0  0  0  0  0  0  0  0  0  0  0  0
   21.0137   -6.6122  -14.8623 C   0  0  1  0  0  0  0  0  0  0  0  0
   22.3937   -6.3755  -14.3403 C   0  0  0  0  0  0  0  0  0  0  0  0
   22.5370   -5.2600  -13.4201 C   0  0  0  0  0  0  0  0  0  0  0  0
   22.5236   -5.4673  -12.1841 O   0  0  0  0  0  0  0  0  0  0  0  0
   20.3366   -5.4115  -15.3503 C   0  0  0  0  0  0  0  0  0  0  0  0
   20.4392   -4.9760  -16.6596 O   0  0  0  0  0  0  0  0  0  0  0  0
   22.6911   -3.9509  -13.8378 O   0  0  0  0  0  0  0  0  0  0  0  0
   19.6297   -4.7330  -14.5712 O   0  0  0  0  0  0  0  0  0  0  0  0
  2  1  1  1
  2  5  1  0
  2  3  1  0
  4  3  1  0
  5 11  1  0
  6  5  2  0
  8  7  1  6
  8  9  1  0
 10  8  1  0
 10 12  1  0
 10 11  1  1
 12 13  2  0
 12 14  1  0
 14 15  1  0
 15 16  1  6
 17 16  1  0
 17 21  1  0
 18 17  2  0
 19 15  1  0
 19 20  1  0
 22 19  2  0
M  END
$$$$
