DTW.pdb
     RDKit          3D

 30 31  0  0  1  0  0  0  0  0999 V2000
   11.6054  -14.7673   17.4097 N   0  0  0  0  0  0  0  0  0  0  0  0
   12.0455  -15.1751   18.7304 C   0  0  1  0  0  0  0  0  0  0  0  0
   13.4061  -14.5637   19.0225 C   0  0  0  0  0  0  0  0  0  0  0  0
   14.4542  -15.0884   18.1454 C   0  0  0  0  0  0  0  0  0  0  0  0
   14.1545  -15.8945   17.2210 O   0  0  0  0  0  0  0  0  0  0  0  0
   11.0691  -14.6794   19.7417 C   0  0  0  0  0  0  0  0  0  0  0  0
   10.9394  -13.4361   19.8399 O   0  0  0  0  0  0  0  0  0  0  0  0
   15.7563  -14.6767   18.3631 O   0  0  0  0  0  0  0  0  0  0  0  0
    7.4189  -14.5827   20.1222 C   0  0  0  0  0  0  0  0  0  0  0  0
    7.9622  -15.3379   21.3175 C   0  0  1  0  0  0  0  0  0  0  0  0
    7.8497  -16.6853   21.0000 O   0  0  0  0  0  0  0  0  0  0  0  0
    9.3913  -15.0472   21.5975 C   0  0  2  0  0  0  0  0  0  0  0  0
   10.3009  -15.4949   20.5746 N   0  0  0  0  0  0  0  0  0  0  0  0
    9.7956  -15.7145   22.8534 C   0  0  0  0  0  0  0  0  0  0  0  0
   10.6432  -16.6783   22.8338 O   0  0  0  0  0  0  0  0  0  0  0  0
    9.3218  -15.3834   24.1483 N   0  0  0  0  0  0  0  0  0  0  0  0
    9.7679  -16.1311   25.3422 C   0  0  1  0  0  0  0  0  0  0  0  0
    9.4650  -15.3448   26.5798 C   0  0  0  0  0  0  0  0  0  0  0  0
    8.1566  -14.6959   26.5903 C   0  0  0  0  0  0  0  0  0  0  0  0
    6.9691  -15.4358   26.5450 C   0  0  0  0  0  0  0  0  0  0  0  0
    5.9263  -14.6031   26.6061 N   0  0  0  0  0  0  0  0  0  0  0  0
    6.3585  -13.3365   26.6897 C   0  0  0  0  0  0  0  0  0  0  0  0
    5.7343  -12.1058   26.7675 C   0  0  0  0  0  0  0  0  0  0  0  0
    6.4383  -10.9225   26.8347 C   0  0  0  0  0  0  0  0  0  0  0  0
    7.8082  -10.9972   26.8217 C   0  0  0  0  0  0  0  0  0  0  0  0
    8.4414  -12.2278   26.7441 C   0  0  0  0  0  0  0  0  0  0  0  0
    7.7330  -13.3984   26.6790 C   0  0  0  0  0  0  0  0  0  0  0  0
    9.1640  -17.4663   25.2600 C   0  0  0  0  0  0  0  0  0  0  0  0
    8.2010  -17.7364   24.4631 O   0  0  0  0  0  0  0  0  0  0  0  0
    9.5966  -18.5282   26.0354 O   0  0  0  0  0  0  0  0  0  0  0  0
  2  1  1  6
  2  6  1  0
  3  2  1  0
  3  4  1  0
  4  5  2  0
  6  7  2  0
  8  4  1  0
 10  9  1  6
 10 12  1  0
 11 10  1  0
 12 13  1  6
 12 14  1  0
 13  6  1  0
 14 15  2  0
 14 16  1  0
 16 17  1  0
 17 28  1  0
 17 18  1  1
 19 18  1  0
 19 27  1  0
 20 19  2  0
 21 20  1  0
 21 22  1  0
 22 23  1  0
 22 27  2  0
 23 24  2  0
 24 25  1  0
 26 25  2  0
 27 26  1  0
 28 29  2  0
 28 30  1  0
M  END
$$$$
