DTW.pdb
     RDKit          3D

 30 31  0  0  1  0  0  0  0  0999 V2000
    9.9384  -14.8629   17.8417 N   0  0  0  0  0  0  0  0  0  0  0  0
    8.6613  -14.3413   18.2898 C   0  0  1  0  0  0  0  0  0  0  0  0
    7.6528  -14.4267   17.1558 C   0  0  0  0  0  0  0  0  0  0  0  0
    8.2946  -14.5325   15.8443 C   0  0  0  0  0  0  0  0  0  0  0  0
    9.5532  -14.5915   15.7638 O   0  0  0  0  0  0  0  0  0  0  0  0
    8.1728  -15.1675   19.4301 C   0  0  0  0  0  0  0  0  0  0  0  0
    6.9779  -15.0056   19.7743 O   0  0  0  0  0  0  0  0  0  0  0  0
    7.4877  -14.5648   14.7217 O   0  0  0  0  0  0  0  0  0  0  0  0
    7.9505  -18.9172   19.7908 C   0  0  0  0  0  0  0  0  0  0  0  0
    8.6958  -18.3835   20.9966 C   0  0  1  0  0  0  0  0  0  0  0  0
   10.0431  -18.6000   20.7381 O   0  0  0  0  0  0  0  0  0  0  0  0
    8.4955  -16.9286   21.2159 C   0  0  2  0  0  0  0  0  0  0  0  0
    8.9453  -16.0960   20.1303 N   0  0  0  0  0  0  0  0  0  0  0  0
    9.2393  -16.5022   22.4205 C   0  0  0  0  0  0  0  0  0  0  0  0
   10.1349  -15.5861   22.3412 O   0  0  0  0  0  0  0  0  0  0  0  0
    9.0571  -17.0254   23.7258 N   0  0  0  0  0  0  0  0  0  0  0  0
    9.8306  -16.5085   24.8738 C   0  0  1  0  0  0  0  0  0  0  0  0
    9.6467  -15.0270   24.9879 C   0  0  0  0  0  0  0  0  0  0  0  0
    8.3094  -14.6038   25.3949 C   0  0  0  0  0  0  0  0  0  0  0  0
    7.2280  -15.4926   25.4026 C   0  0  0  0  0  0  0  0  0  0  0  0
    6.1393  -14.8612   25.8509 N   0  0  0  0  0  0  0  0  0  0  0  0
    6.4394  -13.5877   26.1444 C   0  0  0  0  0  0  0  0  0  0  0  0
    5.7173  -12.5106   26.6227 C   0  0  0  0  0  0  0  0  0  0  0  0
    6.2864  -11.2723   26.8301 C   0  0  0  0  0  0  0  0  0  0  0  0
    7.6204  -11.1306   26.5428 C   0  0  0  0  0  0  0  0  0  0  0  0
    8.3513  -12.2063   26.0630 C   0  0  0  0  0  0  0  0  0  0  0  0
    7.7770  -13.4334   25.8615 C   0  0  0  0  0  0  0  0  0  0  0  0
    9.4379  -17.3013   26.0449 C   0  0  0  0  0  0  0  0  0  0  0  0
    8.5751  -18.2429   25.9786 O   0  0  0  0  0  0  0  0  0  0  0  0
    9.9764  -17.0892   27.3023 O   0  0  0  0  0  0  0  0  0  0  0  0
  2  1  1  6
  2  6  1  0
  3  2  1  0
  3  4  1  0
  4  5  2  0
  6  7  2  0
  8  4  1  0
 10  9  1  6
 10 12  1  0
 11 10  1  0
 12 13  1  6
 12 14  1  0
 13  6  1  0
 14 15  2  0
 14 16  1  0
 16 17  1  0
 17 28  1  0
 17 18  1  1
 19 18  1  0
 19 27  1  0
 20 19  2  0
 21 20  1  0
 21 22  1  0
 22 23  1  0
 22 27  2  0
 23 24  2  0
 24 25  1  0
 26 25  2  0
 27 26  1  0
 28 29  2  0
 28 30  1  0
M  END
$$$$
