DTW.pdb
     RDKit          3D

 30 31  0  0  1  0  0  0  0  0999 V2000
    9.9119  -14.9639   17.9112 N   0  0  0  0  0  0  0  0  0  0  0  0
    8.6888  -14.2610   18.2485 C   0  0  1  0  0  0  0  0  0  0  0  0
    7.7105  -14.3612   17.0895 C   0  0  0  0  0  0  0  0  0  0  0  0
    8.3684  -14.2203   15.7893 C   0  0  0  0  0  0  0  0  0  0  0  0
    9.0818  -15.1606   15.3411 O   0  0  0  0  0  0  0  0  0  0  0  0
    8.0779  -14.8988   19.4491 C   0  0  0  0  0  0  0  0  0  0  0  0
    7.0368  -14.3674   19.9032 O   0  0  0  0  0  0  0  0  0  0  0  0
    8.1829  -13.0440   15.0862 O   0  0  0  0  0  0  0  0  0  0  0  0
    6.9925  -18.5681   20.0390 C   0  0  0  0  0  0  0  0  0  0  0  0
    7.8856  -18.1250   21.1792 C   0  0  1  0  0  0  0  0  0  0  0  0
    9.1364  -18.6687   20.9167 O   0  0  0  0  0  0  0  0  0  0  0  0
    8.0333  -16.6503   21.2724 C   0  0  2  0  0  0  0  0  0  0  0  0
    8.5798  -16.0316   20.0924 N   0  0  0  0  0  0  0  0  0  0  0  0
    8.9379  -16.3130   22.3922 C   0  0  0  0  0  0  0  0  0  0  0  0
    9.8610  -15.4342   22.2400 O   0  0  0  0  0  0  0  0  0  0  0  0
    8.8901  -16.8874   23.6878 N   0  0  0  0  0  0  0  0  0  0  0  0
    9.7671  -16.4031   24.7740 C   0  0  1  0  0  0  0  0  0  0  0  0
    9.5829  -14.9290   24.9602 C   0  0  0  0  0  0  0  0  0  0  0  0
    8.2513  -14.5282   25.4068 C   0  0  0  0  0  0  0  0  0  0  0  0
    7.1977  -15.4459   25.4920 C   0  0  0  0  0  0  0  0  0  0  0  0
    6.1101  -14.8287   25.9619 N   0  0  0  0  0  0  0  0  0  0  0  0
    6.3842  -13.5372   26.1960 C   0  0  0  0  0  0  0  0  0  0  0  0
    5.6507  -12.4634   26.6642 C   0  0  0  0  0  0  0  0  0  0  0  0
    6.1911  -11.2027   26.8024 C   0  0  0  0  0  0  0  0  0  0  0  0
    7.5076  -11.0347   26.4548 C   0  0  0  0  0  0  0  0  0  0  0  0
    8.2497  -12.1070   25.9846 C   0  0  0  0  0  0  0  0  0  0  0  0
    7.7041  -13.3564   25.8521 C   0  0  0  0  0  0  0  0  0  0  0  0
    9.4966  -17.2423   25.9473 C   0  0  0  0  0  0  0  0  0  0  0  0
   10.1052  -17.0826   27.0606 O   0  0  0  0  0  0  0  0  0  0  0  0
    8.5611  -18.2624   25.9334 O   0  0  0  0  0  0  0  0  0  0  0  0
  2  1  1  6
  2  6  1  0
  3  2  1  0
  3  4  1  0
  4  5  2  0
  6  7  2  0
  8  4  1  0
 10  9  1  6
 10 12  1  0
 11 10  1  0
 12 13  1  6
 12 14  1  0
 13  6  1  0
 14 15  2  0
 14 16  1  0
 16 17  1  0
 17 28  1  0
 17 18  1  1
 19 18  1  0
 19 27  1  0
 20 19  2  0
 21 20  1  0
 21 22  1  0
 22 23  1  0
 22 27  2  0
 23 24  2  0
 24 25  1  0
 26 25  2  0
 27 26  1  0
 28 29  2  0
 28 30  1  0
M  END
$$$$
