DTW.pdb
     RDKit          3D

 30 31  0  0  1  0  0  0  0  0999 V2000
    9.8697  -17.4456   17.1393 N   0  0  0  0  0  0  0  0  0  0  0  0
   10.7781  -17.2822   18.2583 C   0  0  1  0  0  0  0  0  0  0  0  0
   12.0633  -16.6291   17.7766 C   0  0  0  0  0  0  0  0  0  0  0  0
   13.2315  -17.4919   17.9611 C   0  0  0  0  0  0  0  0  0  0  0  0
   13.0820  -18.6665   18.3991 O   0  0  0  0  0  0  0  0  0  0  0  0
   10.1415  -16.3973   19.2749 C   0  0  0  0  0  0  0  0  0  0  0  0
   10.0770  -15.1756   18.9996 O   0  0  0  0  0  0  0  0  0  0  0  0
   14.4776  -16.9827   17.6441 O   0  0  0  0  0  0  0  0  0  0  0  0
    6.7908  -15.7355   20.1979 C   0  0  0  0  0  0  0  0  0  0  0  0
    7.4607  -16.1873   21.4790 C   0  0  1  0  0  0  0  0  0  0  0  0
    7.1849  -17.5435   21.5952 O   0  0  0  0  0  0  0  0  0  0  0  0
    8.9356  -16.0154   21.4644 C   0  0  2  0  0  0  0  0  0  0  0  0
    9.6199  -16.8313   20.4949 N   0  0  0  0  0  0  0  0  0  0  0  0
    9.4885  -16.3685   22.7894 C   0  0  0  0  0  0  0  0  0  0  0  0
   10.2690  -17.3792   22.9198 O   0  0  0  0  0  0  0  0  0  0  0  0
    9.2356  -15.6698   23.9972 N   0  0  0  0  0  0  0  0  0  0  0  0
    9.8260  -16.1129   25.2773 C   0  0  1  0  0  0  0  0  0  0  0  0
    9.6195  -15.0638   26.3252 C   0  0  0  0  0  0  0  0  0  0  0  0
    8.2818  -14.4782   26.3527 C   0  0  0  0  0  0  0  0  0  0  0  0
    7.1318  -15.2673   26.2328 C   0  0  0  0  0  0  0  0  0  0  0  0
    6.0496  -14.4899   26.3288 N   0  0  0  0  0  0  0  0  0  0  0  0
    6.4196  -13.2135   26.5073 C   0  0  0  0  0  0  0  0  0  0  0  0
    5.7364  -12.0212   26.6557 C   0  0  0  0  0  0  0  0  0  0  0  0
    6.3821  -10.8141   26.8177 C   0  0  0  0  0  0  0  0  0  0  0  0
    7.7540  -10.8243   26.8280 C   0  0  0  0  0  0  0  0  0  0  0  0
    8.4462  -12.0161   26.6799 C   0  0  0  0  0  0  0  0  0  0  0  0
    7.7955  -13.2109   26.5208 C   0  0  0  0  0  0  0  0  0  0  0  0
    9.2666  -17.4380   25.5694 C   0  0  0  0  0  0  0  0  0  0  0  0
    9.7030  -18.1730   26.5206 O   0  0  0  0  0  0  0  0  0  0  0  0
    8.2250  -17.9840   24.8393 O   0  0  0  0  0  0  0  0  0  0  0  0
  2  1  1  6
  2  6  1  0
  3  2  1  0
  3  4  1  0
  4  5  2  0
  6  7  2  0
  8  4  1  0
 10  9  1  6
 10 12  1  0
 11 10  1  0
 12 13  1  6
 12 14  1  0
 13  6  1  0
 14 15  2  0
 14 16  1  0
 16 17  1  0
 17 28  1  0
 17 18  1  1
 19 18  1  0
 19 27  1  0
 20 19  2  0
 21 20  1  0
 21 22  1  0
 22 23  1  0
 22 27  2  0
 23 24  2  0
 24 25  1  0
 26 25  2  0
 27 26  1  0
 28 29  2  0
 28 30  1  0
M  END
$$$$
