DTW.pdb
     RDKit          3D

 30 31  0  0  1  0  0  0  0  0999 V2000
    9.8874  -17.1750   16.9780 N   0  0  0  0  0  0  0  0  0  0  0  0
   10.5362  -17.3879   18.2577 C   0  0  1  0  0  0  0  0  0  0  0  0
   11.9521  -16.8376   18.2060 C   0  0  0  0  0  0  0  0  0  0  0  0
   12.8618  -17.7058   17.4564 C   0  0  0  0  0  0  0  0  0  0  0  0
   12.4014  -18.6826   16.8022 O   0  0  0  0  0  0  0  0  0  0  0  0
    9.7765  -16.6604   19.3138 C   0  0  0  0  0  0  0  0  0  0  0  0
    9.4747  -15.4675   19.0725 O   0  0  0  0  0  0  0  0  0  0  0  0
   14.2147  -17.4215   17.4913 O   0  0  0  0  0  0  0  0  0  0  0  0
    6.3512  -16.8804   20.4172 C   0  0  0  0  0  0  0  0  0  0  0  0
    7.1962  -17.1116   21.6528 C   0  0  1  0  0  0  0  0  0  0  0  0
    7.2889  -18.4897   21.7984 O   0  0  0  0  0  0  0  0  0  0  0  0
    8.5723  -16.5660   21.5354 C   0  0  2  0  0  0  0  0  0  0  0  0
    9.3843  -17.2103   20.5356 N   0  0  0  0  0  0  0  0  0  0  0  0
    9.2777  -16.7196   22.8256 C   0  0  0  0  0  0  0  0  0  0  0  0
   10.5187  -16.4083   22.9292 O   0  0  0  0  0  0  0  0  0  0  0  0
    8.6966  -17.1989   24.0270 N   0  0  0  0  0  0  0  0  0  0  0  0
    9.3541  -16.9892   25.3336 C   0  0  1  0  0  0  0  0  0  0  0  0
    9.4680  -15.5238   25.6187 C   0  0  0  0  0  0  0  0  0  0  0  0
    8.2157  -14.8718   25.9924 C   0  0  0  0  0  0  0  0  0  0  0  0
    7.0210  -15.5910   26.1154 C   0  0  0  0  0  0  0  0  0  0  0  0
    6.0452  -14.7651   26.5032 N   0  0  0  0  0  0  0  0  0  0  0  0
    6.5292  -13.5228   26.6459 C   0  0  0  0  0  0  0  0  0  0  0  0
    5.9794  -12.3074   27.0079 C   0  0  0  0  0  0  0  0  0  0  0  0
    6.7223  -11.1476   27.0655 C   0  0  0  0  0  0  0  0  0  0  0  0
    8.0541  -11.2302   26.7465 C   0  0  0  0  0  0  0  0  0  0  0  0
    8.6127  -12.4456   26.3827 C   0  0  0  0  0  0  0  0  0  0  0  0
    7.8664  -13.5931   26.3297 C   0  0  0  0  0  0  0  0  0  0  0  0
    8.6103  -17.7839   26.3182 C   0  0  0  0  0  0  0  0  0  0  0  0
    7.5059  -18.3648   26.0385 O   0  0  0  0  0  0  0  0  0  0  0  0
    9.0535  -17.9647   27.6170 O   0  0  0  0  0  0  0  0  0  0  0  0
  2  1  1  6
  2  6  1  0
  3  2  1  0
  3  4  1  0
  4  5  2  0
  6  7  2  0
  8  4  1  0
 10  9  1  6
 10 12  1  0
 11 10  1  0
 12 13  1  6
 12 14  1  0
 13  6  1  0
 14 15  2  0
 14 16  1  0
 16 17  1  0
 17 28  1  0
 17 18  1  1
 19 18  1  0
 19 27  1  0
 20 19  2  0
 21 20  1  0
 21 22  1  0
 22 23  1  0
 22 27  2  0
 23 24  2  0
 24 25  1  0
 26 25  2  0
 27 26  1  0
 28 29  2  0
 28 30  1  0
M  END
$$$$
