DTW.pdb
     RDKit          3D

 30 31  0  0  1  0  0  0  0  0999 V2000
   10.8849  -15.7550   17.2400 N   0  0  0  0  0  0  0  0  0  0  0  0
   11.1550  -16.5617   18.4149 C   0  0  1  0  0  0  0  0  0  0  0  0
   12.6373  -16.4961   18.7450 C   0  0  0  0  0  0  0  0  0  0  0  0
   13.4735  -17.0279   17.6674 C   0  0  0  0  0  0  0  0  0  0  0  0
   13.2517  -18.1846   17.2126 O   0  0  0  0  0  0  0  0  0  0  0  0
   10.3820  -16.0158   19.5664 C   0  0  0  0  0  0  0  0  0  0  0  0
   10.6143  -14.8268   19.8902 O   0  0  0  0  0  0  0  0  0  0  0  0
   14.4932  -16.2325   17.1774 O   0  0  0  0  0  0  0  0  0  0  0  0
    6.4185  -16.3771   20.2345 C   0  0  0  0  0  0  0  0  0  0  0  0
    7.2539  -16.7519   21.4411 C   0  0  1  0  0  0  0  0  0  0  0  0
    7.3249  -18.1390   21.4391 O   0  0  0  0  0  0  0  0  0  0  0  0
    8.6387  -16.2185   21.3869 C   0  0  2  0  0  0  0  0  0  0  0  0
    9.4306  -16.7292   20.2978 N   0  0  0  0  0  0  0  0  0  0  0  0
    9.3518  -16.5642   22.6351 C   0  0  0  0  0  0  0  0  0  0  0  0
   10.6199  -16.3892   22.7292 O   0  0  0  0  0  0  0  0  0  0  0  0
    8.7502  -17.0961   23.8039 N   0  0  0  0  0  0  0  0  0  0  0  0
    9.3573  -16.8985   25.1365 C   0  0  1  0  0  0  0  0  0  0  0  0
    9.4428  -15.4363   25.4469 C   0  0  0  0  0  0  0  0  0  0  0  0
    8.1698  -14.8047   25.7840 C   0  0  0  0  0  0  0  0  0  0  0  0
    6.9661  -15.5188   25.7596 C   0  0  0  0  0  0  0  0  0  0  0  0
    5.9686  -14.7181   26.1452 N   0  0  0  0  0  0  0  0  0  0  0  0
    6.4468  -13.4975   26.4272 C   0  0  0  0  0  0  0  0  0  0  0  0
    5.8780  -12.3112   26.8508 C   0  0  0  0  0  0  0  0  0  0  0  0
    6.6202  -11.1684   27.0598 C   0  0  0  0  0  0  0  0  0  0  0  0
    7.9712  -11.2382   26.8312 C   0  0  0  0  0  0  0  0  0  0  0  0
    8.5489  -12.4245   26.4064 C   0  0  0  0  0  0  0  0  0  0  0  0
    7.8031  -13.5553   26.2028 C   0  0  0  0  0  0  0  0  0  0  0  0
    8.5883  -17.7167   26.0816 C   0  0  0  0  0  0  0  0  0  0  0  0
    8.9205  -17.8414   27.3102 O   0  0  0  0  0  0  0  0  0  0  0  0
    7.4472  -18.4072   25.7115 O   0  0  0  0  0  0  0  0  0  0  0  0
  2  1  1  6
  2  6  1  0
  3  2  1  0
  3  4  1  0
  4  5  2  0
  6  7  2  0
  8  4  1  0
 10  9  1  6
 10 12  1  0
 11 10  1  0
 12 13  1  6
 12 14  1  0
 13  6  1  0
 14 15  2  0
 14 16  1  0
 16 17  1  0
 17 28  1  0
 17 18  1  1
 19 18  1  0
 19 27  1  0
 20 19  2  0
 21 20  1  0
 21 22  1  0
 22 23  1  0
 22 27  2  0
 23 24  2  0
 24 25  1  0
 26 25  2  0
 27 26  1  0
 28 29  2  0
 28 30  1  0
M  END
$$$$
