DTW.pdb
     RDKit          3D

 30 31  0  0  1  0  0  0  0  0999 V2000
   10.7439  -18.6449   18.6511 N   0  0  0  0  0  0  0  0  0  0  0  0
   11.2885  -17.3083   18.5065 C   0  0  1  0  0  0  0  0  0  0  0  0
   11.0434  -16.8115   17.0910 C   0  0  0  0  0  0  0  0  0  0  0  0
   11.9782  -17.3920   16.1255 C   0  0  0  0  0  0  0  0  0  0  0  0
   12.8168  -18.2562   16.5046 O   0  0  0  0  0  0  0  0  0  0  0  0
   10.5973  -16.3967   19.4619 C   0  0  0  0  0  0  0  0  0  0  0  0
   10.8960  -15.1805   19.3991 O   0  0  0  0  0  0  0  0  0  0  0  0
   11.9092  -16.9670   14.8113 O   0  0  0  0  0  0  0  0  0  0  0  0
    6.8224  -15.5997   20.1495 C   0  0  0  0  0  0  0  0  0  0  0  0
    7.5125  -16.1074   21.3985 C   0  0  1  0  0  0  0  0  0  0  0  0
    7.2246  -17.4644   21.4679 O   0  0  0  0  0  0  0  0  0  0  0  0
    8.9886  -15.9497   21.3609 C   0  0  2  0  0  0  0  0  0  0  0  0
    9.6535  -16.8005   20.4080 N   0  0  0  0  0  0  0  0  0  0  0  0
    9.5547  -16.2683   22.6891 C   0  0  0  0  0  0  0  0  0  0  0  0
   10.8096  -16.1189   22.9137 O   0  0  0  0  0  0  0  0  0  0  0  0
    8.8178  -16.7458   23.8025 N   0  0  0  0  0  0  0  0  0  0  0  0
    9.3866  -16.7206   25.1661 C   0  0  1  0  0  0  0  0  0  0  0  0
    9.4669  -15.3095   25.6599 C   0  0  0  0  0  0  0  0  0  0  0  0
    8.1788  -14.6391   25.8155 C   0  0  0  0  0  0  0  0  0  0  0  0
    6.9693  -15.3295   25.6738 C   0  0  0  0  0  0  0  0  0  0  0  0
    5.9529  -14.4936   25.9042 N   0  0  0  0  0  0  0  0  0  0  0  0
    6.4240  -13.2720   26.1938 C   0  0  0  0  0  0  0  0  0  0  0  0
    5.8381  -12.0579   26.4985 C   0  0  0  0  0  0  0  0  0  0  0  0
    6.5779  -10.9223   26.7506 C   0  0  0  0  0  0  0  0  0  0  0  0
    7.9445  -11.0285   26.6899 C   0  0  0  0  0  0  0  0  0  0  0  0
    8.5393  -12.2429   26.3851 C   0  0  0  0  0  0  0  0  0  0  0  0
    7.7955  -13.3661   26.1374 C   0  0  0  0  0  0  0  0  0  0  0  0
    8.5882  -17.6460   25.9788 C   0  0  0  0  0  0  0  0  0  0  0  0
    7.4853  -18.1452   25.5668 O   0  0  0  0  0  0  0  0  0  0  0  0
    8.9743  -18.0471   27.2461 O   0  0  0  0  0  0  0  0  0  0  0  0
  2  1  1  6
  2  6  1  0
  3  2  1  0
  3  4  1  0
  4  5  2  0
  6  7  2  0
  8  4  1  0
 10  9  1  6
 10 12  1  0
 11 10  1  0
 12 13  1  6
 12 14  1  0
 13  6  1  0
 14 15  2  0
 14 16  1  0
 16 17  1  0
 17 28  1  0
 17 18  1  1
 19 18  1  0
 19 27  1  0
 20 19  2  0
 21 20  1  0
 21 22  1  0
 22 23  1  0
 22 27  2  0
 23 24  2  0
 24 25  1  0
 26 25  2  0
 27 26  1  0
 28 29  2  0
 28 30  1  0
M  END
$$$$
