DTW.pdb
     RDKit          3D

 30 31  0  0  1  0  0  0  0  0999 V2000
   10.5458  -17.6459   16.9322 N   0  0  0  0  0  0  0  0  0  0  0  0
   11.0656  -17.7493   18.2825 C   0  0  1  0  0  0  0  0  0  0  0  0
   12.4355  -17.0941   18.3498 C   0  0  0  0  0  0  0  0  0  0  0  0
   13.4630  -17.8753   17.6591 C   0  0  0  0  0  0  0  0  0  0  0  0
   13.8076  -17.5617   16.4857 O   0  0  0  0  0  0  0  0  0  0  0  0
   10.1454  -17.0353   19.2126 C   0  0  0  0  0  0  0  0  0  0  0  0
    9.2391  -16.3436   18.6905 O   0  0  0  0  0  0  0  0  0  0  0  0
   14.0293  -18.9461   18.3262 O   0  0  0  0  0  0  0  0  0  0  0  0
    7.3668  -17.6581   20.0002 C   0  0  0  0  0  0  0  0  0  0  0  0
    7.9696  -17.6749   21.3896 C   0  0  1  0  0  0  0  0  0  0  0  0
    8.3760  -18.9842   21.6126 O   0  0  0  0  0  0  0  0  0  0  0  0
    9.1564  -16.7931   21.5272 C   0  0  2  0  0  0  0  0  0  0  0  0
   10.2239  -17.0845   20.6055 N   0  0  0  0  0  0  0  0  0  0  0  0
    9.7167  -16.9256   22.8889 C   0  0  0  0  0  0  0  0  0  0  0  0
   10.6740  -17.7487   23.1207 O   0  0  0  0  0  0  0  0  0  0  0  0
    9.2864  -16.1989   24.0280 N   0  0  0  0  0  0  0  0  0  0  0  0
    9.9771  -16.3312   25.3277 C   0  0  1  0  0  0  0  0  0  0  0  0
    9.8471  -15.0594   26.1068 C   0  0  0  0  0  0  0  0  0  0  0  0
    8.4932  -14.5156   26.1735 C   0  0  0  0  0  0  0  0  0  0  0  0
    7.3664  -15.3460   26.1570 C   0  0  0  0  0  0  0  0  0  0  0  0
    6.2644  -14.5989   26.2682 N   0  0  0  0  0  0  0  0  0  0  0  0
    6.5991  -13.3035   26.3580 C   0  0  0  0  0  0  0  0  0  0  0  0
    5.8837  -12.1270   26.4782 C   0  0  0  0  0  0  0  0  0  0  0  0
    6.4950  -10.8930   26.5409 C   0  0  0  0  0  0  0  0  0  0  0  0
    7.8652  -10.8595   26.4792 C   0  0  0  0  0  0  0  0  0  0  0  0
    8.5895  -12.0352   26.3589 C   0  0  0  0  0  0  0  0  0  0  0  0
    7.9729  -13.2569   26.2987 C   0  0  0  0  0  0  0  0  0  0  0  0
    9.4492  -17.5405   25.9704 C   0  0  0  0  0  0  0  0  0  0  0  0
    8.3725  -18.1105   25.5816 O   0  0  0  0  0  0  0  0  0  0  0  0
   10.0813  -18.1520   27.0393 O   0  0  0  0  0  0  0  0  0  0  0  0
  2  1  1  6
  2  6  1  0
  3  2  1  0
  3  4  1  0
  4  5  2  0
  6  7  2  0
  8  4  1  0
 10  9  1  6
 10 12  1  0
 11 10  1  0
 12 13  1  6
 12 14  1  0
 13  6  1  0
 14 15  2  0
 14 16  1  0
 16 17  1  0
 17 28  1  0
 17 18  1  1
 19 18  1  0
 19 27  1  0
 20 19  2  0
 21 20  1  0
 21 22  1  0
 22 23  1  0
 22 27  2  0
 23 24  2  0
 24 25  1  0
 26 25  2  0
 27 26  1  0
 28 29  2  0
 28 30  1  0
M  END
$$$$
