DTW.pdb
     RDKit          3D

 30 31  0  0  1  0  0  0  0  0999 V2000
   10.4762  -15.9365   16.4082 N   0  0  0  0  0  0  0  0  0  0  0  0
   10.8405  -16.6212   17.6340 C   0  0  1  0  0  0  0  0  0  0  0  0
   12.3359  -16.8937   17.6371 C   0  0  0  0  0  0  0  0  0  0  0  0
   12.7481  -17.7607   16.5318 C   0  0  0  0  0  0  0  0  0  0  0  0
   12.1497  -18.8548   16.3350 O   0  0  0  0  0  0  0  0  0  0  0  0
   10.5092  -15.7471   18.7949 C   0  0  0  0  0  0  0  0  0  0  0  0
   11.1558  -14.6778   18.8999 O   0  0  0  0  0  0  0  0  0  0  0  0
   13.7946  -17.3447   15.7292 O   0  0  0  0  0  0  0  0  0  0  0  0
    7.2425  -14.0376   19.6763 C   0  0  0  0  0  0  0  0  0  0  0  0
    7.6955  -14.8512   20.8709 C   0  0  1  0  0  0  0  0  0  0  0  0
    6.9831  -16.0421   20.8130 O   0  0  0  0  0  0  0  0  0  0  0  0
    9.1439  -15.1777   20.8458 C   0  0  2  0  0  0  0  0  0  0  0  0
    9.5415  -16.0350   19.7591 N   0  0  0  0  0  0  0  0  0  0  0  0
    9.5173  -15.8701   22.0976 C   0  0  0  0  0  0  0  0  0  0  0  0
   10.0931  -17.0167   22.0594 O   0  0  0  0  0  0  0  0  0  0  0  0
    9.2963  -15.3741   23.4075 N   0  0  0  0  0  0  0  0  0  0  0  0
    9.7009  -16.1488   24.5990 C   0  0  1  0  0  0  0  0  0  0  0  0
    9.5361  -15.3141   25.8310 C   0  0  0  0  0  0  0  0  0  0  0  0
    8.1837  -14.8100   26.0548 C   0  0  0  0  0  0  0  0  0  0  0  0
    7.0640  -15.6453   25.9653 C   0  0  0  0  0  0  0  0  0  0  0  0
    5.9641  -14.9434   26.2522 N   0  0  0  0  0  0  0  0  0  0  0  0
    6.2932  -13.6736   26.5299 C   0  0  0  0  0  0  0  0  0  0  0  0
    5.5765  -12.5429   26.8737 C   0  0  0  0  0  0  0  0  0  0  0  0
    6.1808  -11.3247   27.1002 C   0  0  0  0  0  0  0  0  0  0  0  0
    7.5453  -11.2595   26.9725 C   0  0  0  0  0  0  0  0  0  0  0  0
    8.2709  -12.3893   26.6282 C   0  0  0  0  0  0  0  0  0  0  0  0
    7.6614  -13.5958   26.4065 C   0  0  0  0  0  0  0  0  0  0  0  0
    8.9479  -17.4081   24.5653 C   0  0  0  0  0  0  0  0  0  0  0  0
    7.8978  -17.5613   23.8517 O   0  0  0  0  0  0  0  0  0  0  0  0
    9.3233  -18.5200   25.2993 O   0  0  0  0  0  0  0  0  0  0  0  0
  2  1  1  6
  2  6  1  0
  3  2  1  0
  3  4  1  0
  4  5  2  0
  6  7  2  0
  8  4  1  0
 10  9  1  6
 10 12  1  0
 11 10  1  0
 12 13  1  6
 12 14  1  0
 13  6  1  0
 14 15  2  0
 14 16  1  0
 16 17  1  0
 17 28  1  0
 17 18  1  1
 19 18  1  0
 19 27  1  0
 20 19  2  0
 21 20  1  0
 21 22  1  0
 22 23  1  0
 22 27  2  0
 23 24  2  0
 24 25  1  0
 26 25  2  0
 27 26  1  0
 28 29  2  0
 28 30  1  0
M  END
$$$$
