DTW.pdb
     RDKit          3D

 30 31  0  0  1  0  0  0  0  0999 V2000
   10.1092  -15.0781   18.5714 N   0  0  0  0  0  0  0  0  0  0  0  0
    8.7776  -14.7069   19.0108 C   0  0  1  0  0  0  0  0  0  0  0  0
    7.8017  -14.8593   17.8554 C   0  0  0  0  0  0  0  0  0  0  0  0
    8.4311  -14.6139   16.5566 C   0  0  0  0  0  0  0  0  0  0  0  0
    9.6716  -14.3880   16.4924 O   0  0  0  0  0  0  0  0  0  0  0  0
    8.3599  -15.6165   20.1153 C   0  0  0  0  0  0  0  0  0  0  0  0
    7.1630  -15.5467   20.4827 O   0  0  0  0  0  0  0  0  0  0  0  0
    7.6328  -14.6385   15.4276 O   0  0  0  0  0  0  0  0  0  0  0  0
    8.5585  -19.5338   20.5107 C   0  0  0  0  0  0  0  0  0  0  0  0
    9.2739  -18.8216   21.6400 C   0  0  1  0  0  0  0  0  0  0  0  0
   10.6175  -18.8041   21.2887 O   0  0  0  0  0  0  0  0  0  0  0  0
    8.8271  -17.4179   21.8273 C   0  0  2  0  0  0  0  0  0  0  0  0
    9.1997  -16.5275   20.7585 N   0  0  0  0  0  0  0  0  0  0  0  0
    9.4184  -16.8712   23.0672 C   0  0  0  0  0  0  0  0  0  0  0  0
   10.3661  -16.0074   23.0096 O   0  0  0  0  0  0  0  0  0  0  0  0
    9.0270  -17.2176   24.3854 N   0  0  0  0  0  0  0  0  0  0  0  0
    9.7156  -16.6506   25.5635 C   0  0  1  0  0  0  0  0  0  0  0  0
    8.7216  -16.3578   26.6442 C   0  0  0  0  0  0  0  0  0  0  0  0
    7.6926  -15.3855   26.2850 C   0  0  0  0  0  0  0  0  0  0  0  0
    6.4466  -15.7844   25.7869 C   0  0  0  0  0  0  0  0  0  0  0  0
    5.6871  -14.7052   25.5789 N   0  0  0  0  0  0  0  0  0  0  0  0
    6.3660  -13.5985   25.9138 C   0  0  0  0  0  0  0  0  0  0  0  0
    6.0796  -12.2465   25.8945 C   0  0  0  0  0  0  0  0  0  0  0  0
    6.9899  -11.2919   26.2953 C   0  0  0  0  0  0  0  0  0  0  0  0
    8.2184  -11.7268   26.7243 C   0  0  0  0  0  0  0  0  0  0  0  0
    8.5129  -13.0811   26.7467 C   0  0  0  0  0  0  0  0  0  0  0  0
    7.6011  -14.0222   26.3476 C   0  0  0  0  0  0  0  0  0  0  0  0
   10.7971  -17.5790   25.9136 C   0  0  0  0  0  0  0  0  0  0  0  0
   10.9009  -18.7410   25.3897 O   0  0  0  0  0  0  0  0  0  0  0  0
   11.7832  -17.2613   26.8316 O   0  0  0  0  0  0  0  0  0  0  0  0
  2  1  1  6
  2  6  1  0
  3  2  1  0
  3  4  1  0
  4  5  2  0
  6  7  2  0
  8  4  1  0
 10  9  1  6
 10 12  1  0
 11 10  1  0
 12 13  1  6
 12 14  1  0
 13  6  1  0
 14 15  2  0
 14 16  1  0
 16 17  1  0
 17 28  1  0
 17 18  1  1
 19 18  1  0
 19 27  1  0
 20 19  2  0
 21 20  1  0
 21 22  1  0
 22 23  1  0
 22 27  2  0
 23 24  2  0
 24 25  1  0
 26 25  2  0
 27 26  1  0
 28 29  2  0
 28 30  1  0
M  END
$$$$
