DTW.pdb
     RDKit          3D

 30 31  0  0  1  0  0  0  0  0999 V2000
   11.4513  -16.3891   18.2408 N   0  0  0  0  0  0  0  0  0  0  0  0
   12.0203  -16.1802   19.5587 C   0  0  1  0  0  0  0  0  0  0  0  0
   12.8023  -14.8768   19.5723 C   0  0  0  0  0  0  0  0  0  0  0  0
   14.1958  -15.0572   19.1613 C   0  0  0  0  0  0  0  0  0  0  0  0
   14.6267  -16.2129   18.8919 O   0  0  0  0  0  0  0  0  0  0  0  0
   10.9156  -16.0878   20.5550 C   0  0  0  0  0  0  0  0  0  0  0  0
    9.9882  -15.2840   20.2976 O   0  0  0  0  0  0  0  0  0  0  0  0
   15.0043  -13.9381   19.0811 O   0  0  0  0  0  0  0  0  0  0  0  0
    8.3928  -18.5435   21.2233 C   0  0  0  0  0  0  0  0  0  0  0  0
    9.0097  -18.2332   22.5714 C   0  0  1  0  0  0  0  0  0  0  0  0
    9.9513  -19.2288   22.7975 O   0  0  0  0  0  0  0  0  0  0  0  0
    9.7052  -16.9218   22.6126 C   0  0  2  0  0  0  0  0  0  0  0  0
   10.8454  -16.8255   21.7382 N   0  0  0  0  0  0  0  0  0  0  0  0
   10.1929  -16.6628   23.9841 C   0  0  0  0  0  0  0  0  0  0  0  0
   11.4522  -16.6186   24.2287 O   0  0  0  0  0  0  0  0  0  0  0  0
    9.3722  -16.4444   25.1197 N   0  0  0  0  0  0  0  0  0  0  0  0
    9.9587  -16.2012   26.4540 C   0  0  1  0  0  0  0  0  0  0  0  0
    8.9335  -15.5915   27.3590 C   0  0  0  0  0  0  0  0  0  0  0  0
    7.8269  -14.9282   26.6745 C   0  0  0  0  0  0  0  0  0  0  0  0
    6.7403  -15.6489   26.1651 C   0  0  0  0  0  0  0  0  0  0  0  0
    5.8593  -14.8004   25.6277 N   0  0  0  0  0  0  0  0  0  0  0  0
    6.3045  -13.5417   25.7519 C   0  0  0  0  0  0  0  0  0  0  0  0
    5.8173  -12.3034   25.3783 C   0  0  0  0  0  0  0  0  0  0  0  0
    6.5032  -11.1335   25.6261 C   0  0  0  0  0  0  0  0  0  0  0  0
    7.7117  -11.2299   26.2683 C   0  0  0  0  0  0  0  0  0  0  0  0
    8.2067  -12.4683   26.6463 C   0  0  0  0  0  0  0  0  0  0  0  0
    7.5171  -13.6252   26.3968 C   0  0  0  0  0  0  0  0  0  0  0  0
   10.5432  -17.4710   26.9013 C   0  0  0  0  0  0  0  0  0  0  0  0
   10.2978  -18.5827   26.3188 O   0  0  0  0  0  0  0  0  0  0  0  0
   11.4043  -17.5546   27.9818 O   0  0  0  0  0  0  0  0  0  0  0  0
  2  1  1  6
  2  6  1  0
  3  2  1  0
  3  4  1  0
  4  5  2  0
  6  7  2  0
  8  4  1  0
 10  9  1  6
 10 12  1  0
 11 10  1  0
 12 13  1  6
 12 14  1  0
 13  6  1  0
 14 15  2  0
 14 16  1  0
 16 17  1  0
 17 28  1  0
 17 18  1  1
 19 18  1  0
 19 27  1  0
 20 19  2  0
 21 20  1  0
 21 22  1  0
 22 23  1  0
 22 27  2  0
 23 24  2  0
 24 25  1  0
 26 25  2  0
 27 26  1  0
 28 29  2  0
 28 30  1  0
M  END
$$$$
