DTW.pdb
     RDKit          3D

 30 31  0  0  1  0  0  0  0  0999 V2000
   12.0223  -20.4652   17.3706 N   0  0  0  0  0  0  0  0  0  0  0  0
   12.8442  -19.4520   16.7365 C   0  0  1  0  0  0  0  0  0  0  0  0
   12.7045  -19.5579   15.2267 C   0  0  0  0  0  0  0  0  0  0  0  0
   13.5983  -20.5651   14.6523 C   0  0  0  0  0  0  0  0  0  0  0  0
   14.3041  -21.2851   15.4121 O   0  0  0  0  0  0  0  0  0  0  0  0
   12.3740  -18.1054   17.1690 C   0  0  0  0  0  0  0  0  0  0  0  0
   13.0839  -17.1259   16.8387 O   0  0  0  0  0  0  0  0  0  0  0  0
   13.6391  -20.6950   13.2761 O   0  0  0  0  0  0  0  0  0  0  0  0
    8.5907  -16.6685   16.9267 C   0  0  0  0  0  0  0  0  0  0  0  0
    9.2150  -16.4859   18.2945 C   0  0  1  0  0  0  0  0  0  0  0  0
    8.7274  -17.5243   19.0774 O   0  0  0  0  0  0  0  0  0  0  0  0
   10.6973  -16.5739   18.2816 C   0  0  2  0  0  0  0  0  0  0  0  0
   11.2132  -17.8651   17.9064 N   0  0  0  0  0  0  0  0  0  0  0  0
   11.2229  -16.2773   19.6313 C   0  0  0  0  0  0  0  0  0  0  0  0
   12.0456  -15.3085   19.8102 O   0  0  0  0  0  0  0  0  0  0  0  0
   10.8952  -16.9875   20.8142 N   0  0  0  0  0  0  0  0  0  0  0  0
   11.4133  -16.5632   22.1314 C   0  0  1  0  0  0  0  0  0  0  0  0
   11.0350  -15.1386   22.3942 C   0  0  0  0  0  0  0  0  0  0  0  0
    9.6139  -14.8413   22.2354 C   0  0  0  0  0  0  0  0  0  0  0  0
    8.6526  -15.3584   23.1118 C   0  0  0  0  0  0  0  0  0  0  0  0
    7.4461  -14.9016   22.7648 N   0  0  0  0  0  0  0  0  0  0  0  0
    7.5522  -14.1012   21.6943 C   0  0  0  0  0  0  0  0  0  0  0  0
    6.6502  -13.3850   20.9304 C   0  0  0  0  0  0  0  0  0  0  0  0
    7.0370  -12.6293   19.8441 C   0  0  0  0  0  0  0  0  0  0  0  0
    8.3726  -12.6048   19.5312 C   0  0  0  0  0  0  0  0  0  0  0  0
    9.2833  -13.3204   20.2928 C   0  0  0  0  0  0  0  0  0  0  0  0
    8.8892  -14.0674   21.3712 C   0  0  0  0  0  0  0  0  0  0  0  0
   10.9438  -17.5488   23.1124 C   0  0  0  0  0  0  0  0  0  0  0  0
   10.0975  -18.4612   22.8179 O   0  0  0  0  0  0  0  0  0  0  0  0
   11.3867  -17.5634   24.4238 O   0  0  0  0  0  0  0  0  0  0  0  0
  2  1  1  1
  2  6  1  0
  3  2  1  0
  3  4  1  0
  4  5  2  0
  6  7  2  0
  8  4  1  0
 10  9  1  6
 10 12  1  0
 11 10  1  0
 12 13  1  1
 12 14  1  0
 13  6  1  0
 14 15  2  0
 14 16  1  0
 16 17  1  0
 17 28  1  0
 17 18  1  1
 19 18  1  0
 19 27  1  0
 20 19  2  0
 21 20  1  0
 21 22  1  0
 22 23  1  0
 22 27  2  0
 23 24  2  0
 24 25  1  0
 26 25  2  0
 27 26  1  0
 28 29  2  0
 28 30  1  0
M  END
$$$$
