DTW.pdb
     RDKit          3D

 30 31  0  0  1  0  0  0  0  0999 V2000
   10.3921  -18.0947   16.6768 N   0  0  0  0  0  0  0  0  0  0  0  0
   11.0268  -18.1106   17.9810 C   0  0  1  0  0  0  0  0  0  0  0  0
   12.3491  -17.3643   17.9103 C   0  0  0  0  0  0  0  0  0  0  0  0
   13.3758  -18.1145   17.1849 C   0  0  0  0  0  0  0  0  0  0  0  0
   13.0808  -19.2118   16.6345 O   0  0  0  0  0  0  0  0  0  0  0  0
   10.1390  -17.4229   18.9611 C   0  0  0  0  0  0  0  0  0  0  0  0
    9.5402  -16.3973   18.5585 O   0  0  0  0  0  0  0  0  0  0  0  0
   14.6529  -17.5871   17.1265 O   0  0  0  0  0  0  0  0  0  0  0  0
    6.9529  -18.2609   19.9975 C   0  0  0  0  0  0  0  0  0  0  0  0
    7.7171  -18.1425   21.2998 C   0  0  1  0  0  0  0  0  0  0  0  0
    8.0949  -19.4353   21.6387 O   0  0  0  0  0  0  0  0  0  0  0  0
    8.9461  -17.3164   21.1881 C   0  0  2  0  0  0  0  0  0  0  0  0
    9.9327  -17.8380   20.2779 N   0  0  0  0  0  0  0  0  0  0  0  0
    9.5957  -17.2135   22.5123 C   0  0  0  0  0  0  0  0  0  0  0  0
   10.6554  -17.8901   22.7709 O   0  0  0  0  0  0  0  0  0  0  0  0
    9.1487  -16.4008   23.5850 N   0  0  0  0  0  0  0  0  0  0  0  0
    9.8949  -16.3340   24.8587 C   0  0  1  0  0  0  0  0  0  0  0  0
    9.6993  -14.9932   25.4954 C   0  0  0  0  0  0  0  0  0  0  0  0
    8.3055  -14.6104   25.7050 C   0  0  0  0  0  0  0  0  0  0  0  0
    7.2692  -15.5498   25.6494 C   0  0  0  0  0  0  0  0  0  0  0  0
    6.1082  -14.9442   25.9141 N   0  0  0  0  0  0  0  0  0  0  0  0
    6.3165  -13.6398   26.1444 C   0  0  0  0  0  0  0  0  0  0  0  0
    5.4967  -12.5695   26.4491 C   0  0  0  0  0  0  0  0  0  0  0  0
    5.9840  -11.2926   26.6293 C   0  0  0  0  0  0  0  0  0  0  0  0
    7.3364  -11.1044   26.4951 C   0  0  0  0  0  0  0  0  0  0  0  0
    8.1649  -12.1729   26.1898 C   0  0  0  0  0  0  0  0  0  0  0  0
    7.6714  -13.4385   26.0139 C   0  0  0  0  0  0  0  0  0  0  0  0
    9.4829  -17.4953   25.6562 C   0  0  0  0  0  0  0  0  0  0  0  0
    8.4308  -18.1721   25.3908 O   0  0  0  0  0  0  0  0  0  0  0  0
   10.2057  -17.9426   26.7486 O   0  0  0  0  0  0  0  0  0  0  0  0
  2  1  1  6
  2  6  1  0
  3  2  1  0
  3  4  1  0
  4  5  2  0
  6  7  2  0
  8  4  1  0
 10  9  1  6
 10 12  1  0
 11 10  1  0
 12 13  1  6
 12 14  1  0
 13  6  1  0
 14 15  2  0
 14 16  1  0
 16 17  1  0
 17 28  1  0
 17 18  1  1
 19 18  1  0
 19 27  1  0
 20 19  2  0
 21 20  1  0
 21 22  1  0
 22 23  1  0
 22 27  2  0
 23 24  2  0
 24 25  1  0
 26 25  2  0
 27 26  1  0
 28 29  2  0
 28 30  1  0
M  END
$$$$
