YRR.pdb
     RDKit          3D

 35 35  0  0  1  0  0  0  0  0999 V2000
   21.9169  -24.9553  -14.8639 O   0  0  0  0  0  0  0  0  0  0  0  0
   21.2803  -25.1820  -13.6502 C   0  0  0  0  0  0  0  0  0  0  0  0
   21.3035  -26.4410  -13.0829 C   0  0  0  0  0  0  0  0  0  0  0  0
   20.6651  -26.6413  -11.8785 C   0  0  0  0  0  0  0  0  0  0  0  0
   20.0282  -25.6039  -11.2738 C   0  0  0  0  0  0  0  0  0  0  0  0
   19.3421  -25.8135   -9.9842 C   0  0  0  0  0  0  0  0  0  0  0  0
   18.0837  -26.6433  -10.2674 C   0  0  2  0  0  0  0  0  0  0  0  0
   17.1504  -25.9087  -11.0614 N   0  0  0  0  0  0  0  0  0  0  0  0
   17.5610  -27.0745   -8.9541 C   0  0  0  0  0  0  0  0  0  0  0  0
   16.9774  -26.2479   -8.2414 O   0  0  0  0  0  0  0  0  0  0  0  0
   19.9961  -24.3468  -11.8249 C   0  0  0  0  0  0  0  0  0  0  0  0
   20.6267  -24.1189  -13.0291 C   0  0  0  0  0  0  0  0  0  0  0  0
   19.1063  -34.5864   -5.4301 N   0  0  0  0  0  0  0  0  0  0  0  0
   19.4725  -33.4316   -4.7089 C   0  0  0  0  0  0  0  0  0  0  0  0
   20.3915  -33.5920   -3.7887 N   0  0  0  0  0  0  0  0  0  0  0  0
   18.8997  -32.1598   -4.9399 N   0  0  0  0  0  0  0  0  0  0  0  0
   17.4890  -32.1230   -5.3239 C   0  0  0  0  0  0  0  0  0  0  0  0
   17.0364  -30.6780   -5.5188 C   0  0  0  0  0  0  0  0  0  0  0  0
   17.6091  -30.2052   -6.8349 C   0  0  0  0  0  0  0  0  0  0  0  0
   17.1677  -28.7918   -7.1573 C   0  0  2  0  0  0  0  0  0  0  0  0
   17.6885  -28.4095   -8.4439 N   0  0  0  0  0  0  0  0  0  0  0  0
   17.6930  -27.8924   -6.0697 C   0  0  0  0  0  0  0  0  0  0  0  0
   18.9092  -27.6057   -5.9880 O   0  0  0  0  0  0  0  0  0  0  0  0
   20.6900  -32.8105   -3.1688 N   0  0  0  0  0  0  0  0  0  0  0  0
   12.6742  -21.7212   -4.4994 C   0  0  0  0  0  0  0  0  0  0  0  0
   13.3311  -21.9731   -5.7632 N   0  0  0  0  0  0  0  0  0  0  0  0
   12.9158  -21.3907   -6.8293 N   0  0  0  0  0  0  0  0  0  0  0  0
   14.4304  -22.8623   -5.8230 C   0  0  0  0  0  0  0  0  0  0  0  0
   14.6999  -23.7420   -4.6629 C   0  0  0  0  0  0  0  0  0  0  0  0
   15.8497  -24.6376   -4.9513 C   0  0  0  0  0  0  0  0  0  0  0  0
   16.3236  -25.4664   -3.8681 C   0  0  2  0  0  0  0  0  0  0  0  0
   17.4047  -26.4633   -4.0397 N   0  0  0  0  0  0  0  0  0  0  0  0
   16.8259  -27.3471   -5.1097 C   0  0  0  0  0  0  0  0  0  0  0  0
   17.7827  -27.2802   -2.9181 O   0  0  0  0  0  0  0  0  0  0  0  0
   17.3429  -28.4130   -2.6283 O   0  0  0  0  0  0  0  0  0  0  0  0
  2  1  1  0
  2 12  2  0
  3  2  1  0
  4  3  2  0
  4  5  1  0
  5 11  2  0
  6  5  1  0
  7  6  1  0
  7  8  1  1
  9 21  1  0
  9  7  1  0
 10  9  2  0
 11 12  1  0
 14 13  1  0
 15 14  2  0
 16 14  1  0
 17 16  1  0
 18 17  1  0
 18 19  1  0
 20 19  1  1
 20 21  1  0
 22 20  1  0
 22 32  1  0
 23 22  2  0
 25 24  1  0
 26 25  2  0
 27 25  1  0
 28 27  1  0
 29 28  1  0
 30 29  1  0
 31 32  1  0
 31 30  1  6
 33 35  1  0
 33 31  1  0
 34 33  2  0
M  END
$$$$
