YRR.pdb
     RDKit          3D

 35 35  0  0  1  0  0  0  0  0999 V2000
   27.3320  -21.1436  -13.0005 O   0  0  0  0  0  0  0  0  0  0  0  0
   26.0542  -20.9677  -12.4848 C   0  0  0  0  0  0  0  0  0  0  0  0
   25.6845  -21.6128  -11.3210 C   0  0  0  0  0  0  0  0  0  0  0  0
   24.4118  -21.4225  -10.8287 C   0  0  0  0  0  0  0  0  0  0  0  0
   23.5484  -20.6090  -11.4922 C   0  0  0  0  0  0  0  0  0  0  0  0
   22.1838  -20.4027  -10.9697 C   0  0  0  0  0  0  0  0  0  0  0  0
   21.2800  -21.4515  -11.6296 C   0  0  2  0  0  0  0  0  0  0  0  0
   21.1211  -21.1896  -13.0251 N   0  0  0  0  0  0  0  0  0  0  0  0
   20.0168  -21.4593  -10.8627 C   0  0  0  0  0  0  0  0  0  0  0  0
   19.0063  -20.9542  -11.3683 O   0  0  0  0  0  0  0  0  0  0  0  0
   23.9007  -19.9608  -12.6502 C   0  0  0  0  0  0  0  0  0  0  0  0
   25.1678  -20.1336  -13.1644 C   0  0  0  0  0  0  0  0  0  0  0  0
   18.6946  -28.1334  -13.3174 N   0  0  0  0  0  0  0  0  0  0  0  0
   17.5041  -27.7937  -12.6429 C   0  0  0  0  0  0  0  0  0  0  0  0
   16.5577  -28.7000  -12.6484 N   0  0  0  0  0  0  0  0  0  0  0  0
   17.3104  -26.5549  -11.9894 N   0  0  0  0  0  0  0  0  0  0  0  0
   18.4154  -25.5979  -12.0322 C   0  0  0  0  0  0  0  0  0  0  0  0
   18.0761  -24.3679  -11.1937 C   0  0  0  0  0  0  0  0  0  0  0  0
   19.1443  -24.2438  -10.1320 C   0  0  0  0  0  0  0  0  0  0  0  0
   18.9092  -23.0374   -9.2455 C   0  0  2  0  0  0  0  0  0  0  0  0
   19.8841  -22.0226   -9.5497 N   0  0  0  0  0  0  0  0  0  0  0  0
   19.0286  -23.4940   -7.8156 C   0  0  0  0  0  0  0  0  0  0  0  0
   19.9380  -24.2742   -7.4515 O   0  0  0  0  0  0  0  0  0  0  0  0
   15.6361  -28.5342  -12.1932 N   0  0  0  0  0  0  0  0  0  0  0  0
   13.2245  -22.2370   -1.5380 C   0  0  0  0  0  0  0  0  0  0  0  0
   13.4334  -23.6655   -1.4498 N   0  0  0  0  0  0  0  0  0  0  0  0
   12.8496  -24.3435   -0.5291 N   0  0  0  0  0  0  0  0  0  0  0  0
   14.2820  -24.3140   -2.3783 C   0  0  0  0  0  0  0  0  0  0  0  0
   14.9369  -23.5051   -3.4314 C   0  0  0  0  0  0  0  0  0  0  0  0
   15.7157  -24.3810   -4.3445 C   0  0  0  0  0  0  0  0  0  0  0  0
   16.4304  -23.7363   -5.4209 C   0  0  2  0  0  0  0  0  0  0  0  0
   17.8844  -23.9163   -5.6341 N   0  0  0  0  0  0  0  0  0  0  0  0
   18.1155  -23.0541   -6.8442 C   0  0  0  0  0  0  0  0  0  0  0  0
   18.3907  -25.2355   -5.9013 O   0  0  0  0  0  0  0  0  0  0  0  0
   18.1711  -25.9370   -6.9113 O   0  0  0  0  0  0  0  0  0  0  0  0
  2  1  1  0
  2 12  2  0
  3  2  1  0
  4  3  2  0
  4  5  1  0
  5 11  2  0
  6  5  1  0
  7  6  1  0
  7  8  1  6
  9 21  1  0
  9  7  1  0
 10  9  2  0
 11 12  1  0
 14 13  1  0
 15 14  2  0
 16 14  1  0
 17 16  1  0
 18 17  1  0
 18 19  1  0
 20 19  1  6
 20 21  1  0
 22 20  1  0
 22 32  1  0
 23 22  2  0
 25 24  1  0
 26 25  2  0
 27 25  1  0
 28 27  1  0
 29 28  1  0
 30 29  1  0
 31 32  1  0
 31 30  1  1
 33 35  1  0
 33 31  1  0
 34 33  2  0
M  END
$$$$
