YRR.pdb
     RDKit          3D

 35 35  0  0  1  0  0  0  0  0999 V2000
   26.4451  -33.5778   -9.9455 O   0  0  0  0  0  0  0  0  0  0  0  0
   25.4438  -32.7217  -10.3864 C   0  0  0  0  0  0  0  0  0  0  0  0
   24.8953  -31.7966   -9.5200 C   0  0  0  0  0  0  0  0  0  0  0  0
   23.9036  -30.9582   -9.9805 C   0  0  0  0  0  0  0  0  0  0  0  0
   23.4854  -31.0554  -11.2700 C   0  0  0  0  0  0  0  0  0  0  0  0
   22.4228  -30.1605  -11.7678 C   0  0  0  0  0  0  0  0  0  0  0  0
   21.1243  -30.5532  -11.0523 C   0  0  2  0  0  0  0  0  0  0  0  0
   20.6432  -31.8164  -11.5151 N   0  0  0  0  0  0  0  0  0  0  0  0
   20.1814  -29.4323  -11.2484 C   0  0  0  0  0  0  0  0  0  0  0  0
   19.4675  -29.4204  -12.2593 O   0  0  0  0  0  0  0  0  0  0  0  0
   24.0205  -31.9697  -12.1434 C   0  0  0  0  0  0  0  0  0  0  0  0
   25.0140  -32.8205  -11.7087 C   0  0  0  0  0  0  0  0  0  0  0  0
   16.0733  -22.8925   -9.5457 N   0  0  0  0  0  0  0  0  0  0  0  0
   15.4178  -23.8101   -8.6995 C   0  0  0  0  0  0  0  0  0  0  0  0
   14.1081  -23.7697   -8.7071 N   0  0  0  0  0  0  0  0  0  0  0  0
   16.1046  -24.7326   -7.8771 N   0  0  0  0  0  0  0  0  0  0  0  0
   17.5511  -24.8432   -8.0619 C   0  0  0  0  0  0  0  0  0  0  0  0
   17.8611  -25.4080   -9.4460 C   0  0  0  0  0  0  0  0  0  0  0  0
   18.7240  -26.6320   -9.2449 C   0  0  0  0  0  0  0  0  0  0  0  0
   19.1280  -27.2506  -10.5681 C   0  0  2  0  0  0  0  0  0  0  0  0
   20.0383  -28.3401  -10.3290 N   0  0  0  0  0  0  0  0  0  0  0  0
   19.7770  -26.1721  -11.3946 C   0  0  0  0  0  0  0  0  0  0  0  0
   20.9020  -25.7084  -11.0986 O   0  0  0  0  0  0  0  0  0  0  0  0
   13.5366  -24.3734   -8.0802 N   0  0  0  0  0  0  0  0  0  0  0  0
   17.9747  -22.5458  -18.8345 C   0  0  0  0  0  0  0  0  0  0  0  0
   18.9713  -23.5484  -19.1408 N   0  0  0  0  0  0  0  0  0  0  0  0
   19.0661  -24.0154  -20.3329 N   0  0  0  0  0  0  0  0  0  0  0  0
   19.8402  -24.0141  -18.1254 C   0  0  0  0  0  0  0  0  0  0  0  0
   19.4638  -23.7967  -16.7100 C   0  0  0  0  0  0  0  0  0  0  0  0
   20.4188  -24.4932  -15.8099 C   0  0  0  0  0  0  0  0  0  0  0  0
   19.8627  -25.1779  -14.6667 C   0  0  1  0  0  0  0  0  0  0  0  0
   19.8237  -24.5740  -13.3156 N   0  0  0  0  0  0  0  0  0  0  0  0
   19.1325  -25.6527  -12.5285 C   0  0  0  0  0  0  0  0  0  0  0  0
   19.1160  -23.3364  -13.1265 O   0  0  0  0  0  0  0  0  0  0  0  0
   19.4503  -22.2060  -13.5401 O   0  0  0  0  0  0  0  0  0  0  0  0
  2  1  1  0
  2 12  2  0
  3  2  1  0
  4  3  2  0
  4  5  1  0
  5 11  2  0
  6  5  1  0
  7  6  1  0
  7  8  1  6
  9 21  1  0
  9  7  1  0
 10  9  2  0
 11 12  1  0
 14 13  1  0
 15 14  2  0
 16 14  1  0
 17 16  1  0
 18 17  1  0
 18 19  1  0
 20 19  1  1
 20 21  1  0
 22 20  1  0
 22 32  1  0
 23 22  2  0
 25 24  1  0
 26 25  2  0
 27 25  1  0
 28 27  1  0
 29 28  1  0
 30 29  1  0
 31 32  1  0
 31 30  1  1
 33 35  1  0
 33 31  1  0
 34 33  2  0
M  END
$$$$
