YRR.pdb
     RDKit          3D

 35 35  0  0  1  0  0  0  0  0999 V2000
   23.6597   -9.7139  -15.6650 O   0  0  0  0  0  0  0  0  0  0  0  0
   23.6472  -11.0971  -15.5374 C   0  0  0  0  0  0  0  0  0  0  0  0
   22.4451  -11.7741  -15.4771 C   0  0  0  0  0  0  0  0  0  0  0  0
   22.4583  -13.1461  -15.3508 C   0  0  0  0  0  0  0  0  0  0  0  0
   23.6456  -13.8047  -15.2882 C   0  0  0  0  0  0  0  0  0  0  0  0
   23.6651  -15.2739  -15.1519 C   0  0  0  0  0  0  0  0  0  0  0  0
   24.4206  -15.8338  -16.3636 C   0  0  2  0  0  0  0  0  0  0  0  0
   23.7513  -15.5080  -17.5831 N   0  0  0  0  0  0  0  0  0  0  0  0
   24.5819  -17.2831  -16.1246 C   0  0  0  0  0  0  0  0  0  0  0  0
   23.5927  -18.0202  -16.2249 O   0  0  0  0  0  0  0  0  0  0  0  0
   24.8489  -13.1461  -15.3467 C   0  0  0  0  0  0  0  0  0  0  0  0
   24.8643  -11.7736  -15.4731 C   0  0  0  0  0  0  0  0  0  0  0  0
   29.7178  -24.3015  -15.3865 N   0  0  0  0  0  0  0  0  0  0  0  0
   29.5147  -23.6789  -16.6350 C   0  0  0  0  0  0  0  0  0  0  0  0
   29.4818  -24.4719  -17.6777 N   0  0  0  0  0  0  0  0  0  0  0  0
   29.3535  -22.2826  -16.7874 N   0  0  0  0  0  0  0  0  0  0  0  0
   29.0751  -21.5071  -15.5791 C   0  0  0  0  0  0  0  0  0  0  0  0
   27.5803  -21.2136  -15.4775 C   0  0  0  0  0  0  0  0  0  0  0  0
   27.4029  -19.7273  -15.6840 C   0  0  0  0  0  0  0  0  0  0  0  0
   25.9491  -19.3183  -15.5578 C   0  0  2  0  0  0  0  0  0  0  0  0
   25.8299  -17.9005  -15.7782 N   0  0  0  0  0  0  0  0  0  0  0  0
   25.4900  -19.6932  -14.1736 C   0  0  0  0  0  0  0  0  0  0  0  0
   25.9373  -19.1152  -13.1567 O   0  0  0  0  0  0  0  0  0  0  0  0
   29.3964  -24.1011  -18.6469 N   0  0  0  0  0  0  0  0  0  0  0  0
   19.3589  -21.7013  -10.0536 C   0  0  0  0  0  0  0  0  0  0  0  0
   18.7665  -20.7066  -10.9207 N   0  0  0  0  0  0  0  0  0  0  0  0
   17.8876  -19.8935  -10.4575 N   0  0  0  0  0  0  0  0  0  0  0  0
   19.1560  -20.6316  -12.2792 C   0  0  0  0  0  0  0  0  0  0  0  0
   20.2673  -21.4890  -12.7506 C   0  0  0  0  0  0  0  0  0  0  0  0
   21.5737  -20.9070  -12.3481 C   0  0  0  0  0  0  0  0  0  0  0  0
   22.7632  -21.5887  -12.8014 C   0  0  2  0  0  0  0  0  0  0  0  0
   24.1248  -21.0510  -12.5802 N   0  0  0  0  0  0  0  0  0  0  0  0
   24.5406  -20.7099  -13.9844 C   0  0  0  0  0  0  0  0  0  0  0  0
   25.1237  -21.9045  -11.9953 O   0  0  0  0  0  0  0  0  0  0  0  0
   25.9143  -22.6617  -12.5970 O   0  0  0  0  0  0  0  0  0  0  0  0
  2  1  1  0
  2 12  2  0
  3  2  1  0
  4  3  2  0
  4  5  1  0
  5 11  2  0
  6  5  1  0
  7  6  1  0
  7  8  1  6
  9 21  1  0
  9  7  1  0
 10  9  2  0
 11 12  1  0
 14 13  1  0
 15 14  2  0
 16 14  1  0
 17 16  1  0
 18 17  1  0
 18 19  1  0
 20 19  1  1
 20 21  1  0
 22 20  1  0
 22 32  1  0
 23 22  2  0
 25 24  1  0
 26 25  2  0
 27 25  1  0
 28 27  1  0
 29 28  1  0
 30 29  1  0
 31 32  1  0
 31 30  1  1
 33 35  1  0
 33 31  1  0
 34 33  2  0
M  END
$$$$
