YRR.pdb
     RDKit          3D

 35 35  0  0  1  0  0  0  0  0999 V2000
   25.8101   -3.8634  -15.7310 O   0  0  0  0  0  0  0  0  0  0  0  0
   24.5119   -3.9329  -15.2415 C   0  0  0  0  0  0  0  0  0  0  0  0
   23.7697   -2.7787  -15.0865 C   0  0  0  0  0  0  0  0  0  0  0  0
   22.4843   -2.8731  -14.5994 C   0  0  0  0  0  0  0  0  0  0  0  0
   21.9727   -4.0917  -14.2822 C   0  0  0  0  0  0  0  0  0  0  0  0
   20.5970   -4.1981  -13.7592 C   0  0  0  0  0  0  0  0  0  0  0  0
   19.6644   -4.3773  -14.9636 C   0  0  2  0  0  0  0  0  0  0  0  0
   19.2545   -3.1138  -15.4899 N   0  0  0  0  0  0  0  0  0  0  0  0
   18.5527   -5.2385  -14.5092 C   0  0  0  0  0  0  0  0  0  0  0  0
   17.5102   -4.7072  -14.1059 O   0  0  0  0  0  0  0  0  0  0  0  0
   22.6978   -5.2482  -14.4305 C   0  0  0  0  0  0  0  0  0  0  0  0
   23.9862   -5.1822  -14.9158 C   0  0  0  0  0  0  0  0  0  0  0  0
   16.7011  -13.7806  -15.9189 N   0  0  0  0  0  0  0  0  0  0  0  0
   15.7087  -13.3580  -15.0110 C   0  0  0  0  0  0  0  0  0  0  0  0
   14.7458  -14.2129  -14.7679 N   0  0  0  0  0  0  0  0  0  0  0  0
   15.7220  -12.0913  -14.3831 N   0  0  0  0  0  0  0  0  0  0  0  0
   16.7938  -11.1706  -14.7605 C   0  0  0  0  0  0  0  0  0  0  0  0
   16.5401   -9.7934  -14.1521 C   0  0  0  0  0  0  0  0  0  0  0  0
   17.6640   -8.8915  -14.6068 C   0  0  0  0  0  0  0  0  0  0  0  0
   17.4882   -7.4791  -14.0864 C   0  0  2  0  0  0  0  0  0  0  0  0
   18.6048   -6.6724  -14.5048 N   0  0  0  0  0  0  0  0  0  0  0  0
   17.4055   -7.5550  -12.5848 C   0  0  0  0  0  0  0  0  0  0  0  0
   18.4046   -7.8460  -11.8882 O   0  0  0  0  0  0  0  0  0  0  0  0
   14.0092  -14.0226  -14.0571 N   0  0  0  0  0  0  0  0  0  0  0  0
   10.0431   -6.9416   -7.2771 C   0  0  0  0  0  0  0  0  0  0  0  0
   11.1634   -6.1409   -6.8341 N   0  0  0  0  0  0  0  0  0  0  0  0
   10.9595   -5.0847   -6.1333 N   0  0  0  0  0  0  0  0  0  0  0  0
   12.4829   -6.5226   -7.1744 C   0  0  0  0  0  0  0  0  0  0  0  0
   12.9444   -6.3280   -8.5678 C   0  0  0  0  0  0  0  0  0  0  0  0
   14.2726   -6.9641   -8.7644 C   0  0  0  0  0  0  0  0  0  0  0  0
   14.8057   -6.9686  -10.1063 C   0  0  2  0  0  0  0  0  0  0  0  0
   16.1212   -7.5600  -10.4407 N   0  0  0  0  0  0  0  0  0  0  0  0
   16.1956   -7.3001  -11.9199 C   0  0  0  0  0  0  0  0  0  0  0  0
   16.3338   -8.9627  -10.2053 O   0  0  0  0  0  0  0  0  0  0  0  0
   15.9417   -9.9140  -10.9136 O   0  0  0  0  0  0  0  0  0  0  0  0
  2  1  1  0
  2 12  2  0
  3  2  1  0
  4  3  2  0
  4  5  1  0
  5 11  2  0
  6  5  1  0
  7  6  1  0
  7  8  1  1
  9 21  1  0
  9  7  1  0
 10  9  2  0
 11 12  1  0
 14 13  1  0
 15 14  2  0
 16 14  1  0
 17 16  1  0
 18 17  1  0
 18 19  1  0
 20 19  1  6
 20 21  1  0
 22 20  1  0
 22 32  1  0
 23 22  2  0
 25 24  1  0
 26 25  2  0
 27 25  1  0
 28 27  1  0
 29 28  1  0
 30 29  1  0
 31 32  1  0
 31 30  1  1
 33 35  1  0
 33 31  1  0
 34 33  2  0
M  END
$$$$
