YRR.pdb
     RDKit          3D

 35 35  0  0  1  0  0  0  0  0999 V2000
   29.3299  -14.8011  -20.1398 O   0  0  0  0  0  0  0  0  0  0  0  0
   28.5436  -15.6988  -19.4288 C   0  0  0  0  0  0  0  0  0  0  0  0
   27.6957  -16.5569  -20.1011 C   0  0  0  0  0  0  0  0  0  0  0  0
   26.9258  -17.4386  -19.3741 C   0  0  0  0  0  0  0  0  0  0  0  0
   27.0136  -17.4484  -18.0178 C   0  0  0  0  0  0  0  0  0  0  0  0
   26.1904  -18.3900  -17.2346 C   0  0  0  0  0  0  0  0  0  0  0  0
   27.1080  -19.5354  -16.7889 C   0  0  2  0  0  0  0  0  0  0  0  0
   27.5247  -20.3250  -17.9043 N   0  0  0  0  0  0  0  0  0  0  0  0
   26.3694  -20.2859  -15.7521 C   0  0  0  0  0  0  0  0  0  0  0  0
   25.5651  -21.1585  -16.1035 O   0  0  0  0  0  0  0  0  0  0  0  0
   27.8514  -16.6017  -17.3349 C   0  0  0  0  0  0  0  0  0  0  0  0
   28.6327  -15.7098  -18.0378 C   0  0  0  0  0  0  0  0  0  0  0  0
   26.8930  -20.7304   -6.8815 N   0  0  0  0  0  0  0  0  0  0  0  0
   25.5632  -21.0975   -7.1725 C   0  0  0  0  0  0  0  0  0  0  0  0
   24.7996  -21.3681   -6.1426 N   0  0  0  0  0  0  0  0  0  0  0  0
   25.0525  -21.1794   -8.4884 N   0  0  0  0  0  0  0  0  0  0  0  0
   25.9001  -20.6707   -9.5661 C   0  0  0  0  0  0  0  0  0  0  0  0
   25.2526  -20.9528  -10.9197 C   0  0  0  0  0  0  0  0  0  0  0  0
   26.1699  -20.3873  -11.9790 C   0  0  0  0  0  0  0  0  0  0  0  0
   25.6287  -20.6351  -13.3727 C   0  0  2  0  0  0  0  0  0  0  0  0
   26.5262  -20.0646  -14.3431 N   0  0  0  0  0  0  0  0  0  0  0  0
   24.2669  -19.9972  -13.4515 C   0  0  0  0  0  0  0  0  0  0  0  0
   24.1093  -18.7672  -13.2773 O   0  0  0  0  0  0  0  0  0  0  0  0
   23.8135  -21.6819   -6.2576 N   0  0  0  0  0  0  0  0  0  0  0  0
   19.8111  -21.6121  -19.7211 C   0  0  0  0  0  0  0  0  0  0  0  0
   20.9536  -22.0439  -18.9463 N   0  0  0  0  0  0  0  0  0  0  0  0
   21.6950  -23.0004  -19.3751 N   0  0  0  0  0  0  0  0  0  0  0  0
   21.2524  -21.4120  -17.7157 C   0  0  0  0  0  0  0  0  0  0  0  0
   20.4849  -20.2064  -17.3287 C   0  0  0  0  0  0  0  0  0  0  0  0
   21.0277  -19.6319  -16.0705 C   0  0  0  0  0  0  0  0  0  0  0  0
   21.1882  -20.5329  -14.9537 C   0  0  2  0  0  0  0  0  0  0  0  0
   21.7791  -20.1087  -13.6642 N   0  0  0  0  0  0  0  0  0  0  0  0
   23.1277  -20.7711  -13.7239 C   0  0  0  0  0  0  0  0  0  0  0  0
   21.1282  -20.4920  -12.4405 O   0  0  0  0  0  0  0  0  0  0  0  0
   21.4132  -21.4621  -11.7068 O   0  0  0  0  0  0  0  0  0  0  0  0
  2  1  1  0
  2 12  2  0
  3  2  1  0
  4  3  2  0
  4  5  1  0
  5 11  2  0
  6  5  1  0
  7  6  1  0
  7  8  1  6
  9 21  1  0
  9  7  1  0
 10  9  2  0
 11 12  1  0
 14 13  1  0
 15 14  2  0
 16 14  1  0
 17 16  1  0
 18 17  1  0
 18 19  1  0
 20 19  1  1
 20 21  1  0
 22 20  1  0
 22 32  1  0
 23 22  2  0
 25 24  1  0
 26 25  2  0
 27 25  1  0
 28 27  1  0
 29 28  1  0
 30 29  1  0
 31 32  1  0
 31 30  1  6
 33 35  1  0
 33 31  1  0
 34 33  2  0
M  END
$$$$
