YRR.pdb
     RDKit          3D

 35 35  0  0  1  0  0  0  0  0999 V2000
   24.6922  -14.7166  -21.2011 O   0  0  0  0  0  0  0  0  0  0  0  0
   24.3661  -15.7076  -20.2838 C   0  0  0  0  0  0  0  0  0  0  0  0
   24.4009  -15.4342  -18.9306 C   0  0  0  0  0  0  0  0  0  0  0  0
   24.0730  -16.4332  -18.0401 C   0  0  0  0  0  0  0  0  0  0  0  0
   23.7236  -17.6615  -18.5055 C   0  0  0  0  0  0  0  0  0  0  0  0
   23.3727  -18.7351  -17.5559 C   0  0  0  0  0  0  0  0  0  0  0  0
   24.6812  -19.4127  -17.1305 C   0  0  2  0  0  0  0  0  0  0  0  0
   25.2497  -20.1574  -18.2092 N   0  0  0  0  0  0  0  0  0  0  0  0
   24.3666  -20.2182  -15.9322 C   0  0  0  0  0  0  0  0  0  0  0  0
   23.7128  -21.2605  -16.0662 O   0  0  0  0  0  0  0  0  0  0  0  0
   23.6844  -17.9489  -19.8475 C   0  0  0  0  0  0  0  0  0  0  0  0
   24.0077  -16.9677  -20.7600 C   0  0  0  0  0  0  0  0  0  0  0  0
   27.9197  -22.7404  -10.0786 N   0  0  0  0  0  0  0  0  0  0  0  0
   28.2564  -21.3825  -10.2531 C   0  0  0  0  0  0  0  0  0  0  0  0
   29.5345  -21.0951  -10.2204 N   0  0  0  0  0  0  0  0  0  0  0  0
   27.2949  -20.3654  -10.4528 N   0  0  0  0  0  0  0  0  0  0  0  0
   25.9442  -20.6161   -9.9513 C   0  0  0  0  0  0  0  0  0  0  0  0
   25.0547  -21.1354  -11.0783 C   0  0  0  0  0  0  0  0  0  0  0  0
   25.2885  -20.2453  -12.2768 C   0  0  0  0  0  0  0  0  0  0  0  0
   24.4372  -20.6676  -13.4572 C   0  0  2  0  0  0  0  0  0  0  0  0
   24.7756  -19.8645  -14.6032 N   0  0  0  0  0  0  0  0  0  0  0  0
   22.9948  -20.4783  -13.0682 C   0  0  0  0  0  0  0  0  0  0  0  0
   22.5605  -19.3678  -12.6859 O   0  0  0  0  0  0  0  0  0  0  0  0
   29.8810  -20.1200  -10.3352 N   0  0  0  0  0  0  0  0  0  0  0  0
   15.5623  -25.8741  -13.0458 C   0  0  0  0  0  0  0  0  0  0  0  0
   16.7831  -25.7250  -12.2844 N   0  0  0  0  0  0  0  0  0  0  0  0
   16.7475  -25.7621  -11.0016 N   0  0  0  0  0  0  0  0  0  0  0  0
   18.0153  -25.5377  -12.9546 C   0  0  0  0  0  0  0  0  0  0  0  0
   19.1391  -24.9139  -12.2195 C   0  0  0  0  0  0  0  0  0  0  0  0
   19.2643  -23.4803  -12.5894 C   0  0  0  0  0  0  0  0  0  0  0  0
   20.4237  -22.7746  -12.0969 C   0  0  2  0  0  0  0  0  0  0  0  0
   20.7375  -21.3823  -12.4904 N   0  0  0  0  0  0  0  0  0  0  0  0
   22.0910  -21.5510  -13.1236 C   0  0  0  0  0  0  0  0  0  0  0  0
   20.8260  -20.3734  -11.4693 O   0  0  0  0  0  0  0  0  0  0  0  0
   21.8203  -20.0995  -10.7644 O   0  0  0  0  0  0  0  0  0  0  0  0
  2  1  1  0
  2 12  2  0
  3  2  1  0
  4  3  2  0
  4  5  1  0
  5 11  2  0
  6  5  1  0
  7  6  1  0
  7  8  1  6
  9 21  1  0
  9  7  1  0
 10  9  2  0
 11 12  1  0
 14 13  1  0
 15 14  2  0
 16 14  1  0
 17 16  1  0
 18 17  1  0
 18 19  1  0
 20 19  1  1
 20 21  1  0
 22 20  1  0
 22 32  1  0
 23 22  2  0
 25 24  1  0
 26 25  2  0
 27 25  1  0
 28 27  1  0
 29 28  1  0
 30 29  1  0
 31 32  1  0
 31 30  1  6
 33 35  1  0
 33 31  1  0
 34 33  2  0
M  END
$$$$
