YRR.pdb
     RDKit          3D

 35 35  0  0  1  0  0  0  0  0999 V2000
   28.9229  -20.4173   -3.9083 O   0  0  0  0  0  0  0  0  0  0  0  0
   28.5047  -20.2281   -5.2194 C   0  0  0  0  0  0  0  0  0  0  0  0
   27.1688  -20.3595   -5.5437 C   0  0  0  0  0  0  0  0  0  0  0  0
   26.7781  -20.1669   -6.8509 C   0  0  0  0  0  0  0  0  0  0  0  0
   27.7075  -19.8530   -7.7917 C   0  0  0  0  0  0  0  0  0  0  0  0
   27.2943  -19.6467   -9.1932 C   0  0  0  0  0  0  0  0  0  0  0  0
   27.3647  -21.0091   -9.8942 C   0  0  2  0  0  0  0  0  0  0  0  0
   28.7145  -21.4660   -9.9970 N   0  0  0  0  0  0  0  0  0  0  0  0
   26.6740  -20.8502  -11.1908 C   0  0  0  0  0  0  0  0  0  0  0  0
   27.3511  -20.6846  -12.2135 O   0  0  0  0  0  0  0  0  0  0  0  0
   29.0391  -19.7189   -7.4851 C   0  0  0  0  0  0  0  0  0  0  0  0
   29.4570  -19.9062   -6.1851 C   0  0  0  0  0  0  0  0  0  0  0  0
   26.3746  -25.5414  -16.2384 N   0  0  0  0  0  0  0  0  0  0  0  0
   26.6345  -24.1602  -16.1268 C   0  0  0  0  0  0  0  0  0  0  0  0
   27.3691  -23.6318  -17.0745 N   0  0  0  0  0  0  0  0  0  0  0  0
   26.1467  -23.3634  -15.0656 N   0  0  0  0  0  0  0  0  0  0  0  0
   25.5006  -24.0575  -13.9523 C   0  0  0  0  0  0  0  0  0  0  0  0
   25.0405  -23.0493  -12.9021 C   0  0  0  0  0  0  0  0  0  0  0  0
   24.9411  -21.7061  -13.5873 C   0  0  0  0  0  0  0  0  0  0  0  0
   24.6059  -20.6037  -12.6031 C   0  0  2  0  0  0  0  0  0  0  0  0
   25.2475  -20.8753  -11.3432 N   0  0  0  0  0  0  0  0  0  0  0  0
   23.1079  -20.5683  -12.4532 C   0  0  0  0  0  0  0  0  0  0  0  0
   22.5296  -21.1658  -11.5169 O   0  0  0  0  0  0  0  0  0  0  0  0
   27.6146  -22.6199  -17.0791 N   0  0  0  0  0  0  0  0  0  0  0  0
   21.5827  -15.5606  -18.6630 C   0  0  0  0  0  0  0  0  0  0  0  0
   21.7041  -15.6833  -17.2269 N   0  0  0  0  0  0  0  0  0  0  0  0
   22.2723  -14.7525  -16.5493 N   0  0  0  0  0  0  0  0  0  0  0  0
   21.1972  -16.8300  -16.5705 C   0  0  0  0  0  0  0  0  0  0  0  0
   20.3957  -16.6504  -15.3385 C   0  0  0  0  0  0  0  0  0  0  0  0
   20.9143  -17.5240  -14.2544 C   0  0  0  0  0  0  0  0  0  0  0  0
   20.3965  -18.8704  -14.1926 C   0  0  2  0  0  0  0  0  0  0  0  0
   20.8234  -19.8434  -13.1616 N   0  0  0  0  0  0  0  0  0  0  0  0
   22.3129  -19.8590  -13.3673 C   0  0  0  0  0  0  0  0  0  0  0  0
   20.3316  -21.1930  -13.2320 O   0  0  0  0  0  0  0  0  0  0  0  0
   20.8358  -22.1473  -13.8610 O   0  0  0  0  0  0  0  0  0  0  0  0
  2  1  1  0
  2 12  2  0
  3  2  1  0
  4  3  2  0
  4  5  1  0
  5 11  2  0
  6  5  1  0
  7  6  1  0
  7  8  1  6
  9 21  1  0
  9  7  1  0
 10  9  2  0
 11 12  1  0
 14 13  1  0
 15 14  2  0
 16 14  1  0
 17 16  1  0
 18 17  1  0
 18 19  1  0
 20 19  1  6
 20 21  1  0
 22 20  1  0
 22 32  1  0
 23 22  2  0
 25 24  1  0
 26 25  2  0
 27 25  1  0
 28 27  1  0
 29 28  1  0
 30 29  1  0
 31 32  1  0
 31 30  1  1
 33 35  1  0
 33 31  1  0
 34 33  2  0
M  END
$$$$
