YRR.pdb
     RDKit          3D

 35 35  0  0  1  0  0  0  0  0999 V2000
   18.1612  -23.1560   -7.8365 O   0  0  0  0  0  0  0  0  0  0  0  0
   19.3079  -22.8008   -8.5355 C   0  0  0  0  0  0  0  0  0  0  0  0
   20.5468  -23.2112   -8.0839 C   0  0  0  0  0  0  0  0  0  0  0  0
   21.6696  -22.8467   -8.7943 C   0  0  0  0  0  0  0  0  0  0  0  0
   21.5395  -22.0950   -9.9193 C   0  0  0  0  0  0  0  0  0  0  0  0
   22.7391  -21.7012  -10.6832 C   0  0  0  0  0  0  0  0  0  0  0  0
   23.7245  -21.0712   -9.6910 C   0  0  2  0  0  0  0  0  0  0  0  0
   23.1069  -20.0161   -8.9516 N   0  0  0  0  0  0  0  0  0  0  0  0
   24.9043  -20.6555  -10.4778 C   0  0  0  0  0  0  0  0  0  0  0  0
   24.7533  -19.8431  -11.3992 O   0  0  0  0  0  0  0  0  0  0  0  0
   20.3152  -21.6792  -10.3811 C   0  0  0  0  0  0  0  0  0  0  0  0
   19.1757  -22.0299   -9.6894 C   0  0  0  0  0  0  0  0  0  0  0  0
   31.9203  -24.2043  -10.3063 N   0  0  0  0  0  0  0  0  0  0  0  0
   32.2365  -23.4294  -11.4408 C   0  0  0  0  0  0  0  0  0  0  0  0
   32.7637  -24.0740  -12.4526 N   0  0  0  0  0  0  0  0  0  0  0  0
   32.0116  -22.0354  -11.5141 N   0  0  0  0  0  0  0  0  0  0  0  0
   31.0641  -21.4613  -10.5594 C   0  0  0  0  0  0  0  0  0  0  0  0
   29.8352  -20.9319  -11.2945 C   0  0  0  0  0  0  0  0  0  0  0  0
   28.6230  -21.3512  -10.4957 C   0  0  0  0  0  0  0  0  0  0  0  0
   27.3515  -20.7466  -11.0564 C   0  0  2  0  0  0  0  0  0  0  0  0
   26.2335  -21.1403  -10.2393 N   0  0  0  0  0  0  0  0  0  0  0  0
   27.1949  -21.2463  -12.4683 C   0  0  0  0  0  0  0  0  0  0  0  0
   26.7942  -22.4077  -12.7108 O   0  0  0  0  0  0  0  0  0  0  0  0
   33.0593  -23.5835  -13.3221 N   0  0  0  0  0  0  0  0  0  0  0  0
   23.6802  -19.8020  -19.0780 C   0  0  0  0  0  0  0  0  0  0  0  0
   23.3744  -19.0332  -17.8915 N   0  0  0  0  0  0  0  0  0  0  0  0
   22.1573  -18.9137  -17.5006 N   0  0  0  0  0  0  0  0  0  0  0  0
   24.4173  -18.4128  -17.1635 C   0  0  0  0  0  0  0  0  0  0  0  0
   25.8126  -18.5885  -17.6268 C   0  0  0  0  0  0  0  0  0  0  0  0
   26.3943  -19.8288  -17.0518 C   0  0  0  0  0  0  0  0  0  0  0  0
   26.6800  -19.8246  -15.6364 C   0  0  1  0  0  0  0  0  0  0  0  0
   27.3239  -20.9666  -14.9485 N   0  0  0  0  0  0  0  0  0  0  0  0
   27.4971  -20.4168  -13.5597 C   0  0  0  0  0  0  0  0  0  0  0  0
   28.5974  -21.4368  -15.4231 O   0  0  0  0  0  0  0  0  0  0  0  0
   29.7272  -21.0971  -15.0122 O   0  0  0  0  0  0  0  0  0  0  0  0
  2  1  1  0
  2 12  2  0
  3  2  1  0
  4  3  2  0
  4  5  1  0
  5 11  2  0
  6  5  1  0
  7  6  1  0
  7  8  1  6
  9 21  1  0
  9  7  1  0
 10  9  2  0
 11 12  1  0
 14 13  1  0
 15 14  2  0
 16 14  1  0
 17 16  1  0
 18 17  1  0
 18 19  1  0
 20 19  1  1
 20 21  1  0
 22 20  1  0
 22 32  1  0
 23 22  2  0
 25 24  1  0
 26 25  2  0
 27 25  1  0
 28 27  1  0
 29 28  1  0
 30 29  1  0
 31 32  1  0
 31 30  1  1
 33 35  1  0
 33 31  1  0
 34 33  2  0
M  END
$$$$
