FHW.pdb
     RDKit          3D

 36 39  0  0  1  0  0  0  0  0999 V2000
   20.5890  -36.8404  -12.4689 N   0  0  0  0  0  0  0  0  0  0  0  0
   20.7894  -35.5294  -11.9302 C   0  0  1  0  0  0  0  0  0  0  0  0
   19.4208  -34.9326  -11.5883 C   0  0  0  0  0  0  0  0  0  0  0  0
   18.7056  -34.6486  -12.8596 C   0  0  0  0  0  0  0  0  0  0  0  0
   17.6989  -35.4719  -13.3212 C   0  0  0  0  0  0  0  0  0  0  0  0
   17.0403  -35.2020  -14.4994 C   0  0  0  0  0  0  0  0  0  0  0  0
   17.3511  -34.1033  -15.2719 C   0  0  0  0  0  0  0  0  0  0  0  0
   18.3597  -33.2778  -14.8100 C   0  0  0  0  0  0  0  0  0  0  0  0
   19.0244  -33.5440  -13.6277 C   0  0  0  0  0  0  0  0  0  0  0  0
   21.6355  -35.5311  -10.7092 C   0  0  0  0  0  0  0  0  0  0  0  0
   21.4825  -36.5112   -9.9218 O   0  0  0  0  0  0  0  0  0  0  0  0
   22.5694  -34.5341  -10.3886 N   0  0  0  0  0  0  0  0  0  0  0  0
   23.4563  -34.7184   -9.2048 C   0  0  1  0  0  0  0  0  0  0  0  0
   24.6848  -33.9210   -9.4662 C   0  0  0  0  0  0  0  0  0  0  0  0
   25.6586  -33.9946   -8.3833 C   0  0  0  0  0  0  0  0  0  0  0  0
   25.4155  -34.5431   -7.1161 C   0  0  0  0  0  0  0  0  0  0  0  0
   26.5544  -34.4152   -6.4199 N   0  0  0  0  0  0  0  0  0  0  0  0
   27.4956  -33.8209   -7.1718 C   0  0  0  0  0  0  0  0  0  0  0  0
   26.9277  -33.5751   -8.3600 N   0  0  0  0  0  0  0  0  0  0  0  0
   22.7181  -34.2524   -8.0242 C   0  0  0  0  0  0  0  0  0  0  0  0
   22.0466  -33.1749   -8.1449 O   0  0  0  0  0  0  0  0  0  0  0  0
   22.6608  -34.8635   -6.7706 N   0  0  0  0  0  0  0  0  0  0  0  0
   21.8309  -34.3335   -5.6949 C   0  0  1  0  0  0  0  0  0  0  0  0
   20.3995  -34.7187   -5.8993 C   0  0  0  0  0  0  0  0  0  0  0  0
   19.5521  -34.3655   -4.7551 C   0  0  0  0  0  0  0  0  0  0  0  0
   19.3898  -35.0800   -3.5683 C   0  0  0  0  0  0  0  0  0  0  0  0
   18.5081  -34.4574   -2.7785 N   0  0  0  0  0  0  0  0  0  0  0  0
   18.0587  -33.3460   -3.3711 C   0  0  0  0  0  0  0  0  0  0  0  0
   17.1615  -32.3793   -2.9495 C   0  0  0  0  0  0  0  0  0  0  0  0
   16.9151  -31.3267   -3.7910 C   0  0  0  0  0  0  0  0  0  0  0  0
   17.5437  -31.2242   -5.0349 C   0  0  0  0  0  0  0  0  0  0  0  0
   18.4291  -32.2010   -5.4252 C   0  0  0  0  0  0  0  0  0  0  0  0
   18.6928  -33.2689   -4.5976 C   0  0  0  0  0  0  0  0  0  0  0  0
   22.3778  -34.5295   -4.3553 C   0  0  0  0  0  0  0  0  0  0  0  0
   22.0489  -33.5660   -3.3835 O   0  0  0  0  0  0  0  0  0  0  0  0
   23.1193  -35.4667   -3.9769 O   0  0  0  0  0  0  0  0  0  0  0  0
  2  1  1  1
  3  2  1  0
  3  4  1  0
  4  5  2  0
  4  9  1  0
  5  6  1  0
  6  7  2  0
  8  7  1  0
  9  8  2  0
 10  2  1  0
 11 10  2  0
 12 10  1  0
 13 12  1  0
 13 14  1  6
 14 15  1  0
 15 19  1  0
 15 16  2  0
 16 17  1  0
 18 17  1  0
 19 18  2  0
 20 21  2  0
 20 13  1  0
 22 20  1  0
 23 22  1  0
 23 24  1  1
 24 25  1  0
 25 26  2  0
 25 33  1  0
 26 27  1  0
 27 28  1  0
 28 29  2  0
 29 30  1  0
 31 30  2  0
 32 31  1  0
 33 32  2  0
 33 28  1  0
 34 23  1  0
 35 34  1  0
 36 34  2  0
M  END
$$$$
