FHW.pdb
     RDKit          3D

 36 39  0  0  1  0  0  0  0  0999 V2000
   24.9810  -17.6104  -15.8570 N   0  0  0  0  0  0  0  0  0  0  0  0
   25.8688  -18.2797  -14.9554 C   0  0  1  0  0  0  0  0  0  0  0  0
   26.9184  -17.2734  -14.4741 C   0  0  0  0  0  0  0  0  0  0  0  0
   27.8865  -17.0458  -15.5785 C   0  0  0  0  0  0  0  0  0  0  0  0
   28.7508  -18.0369  -15.9967 C   0  0  0  0  0  0  0  0  0  0  0  0
   29.6444  -17.8191  -17.0209 C   0  0  0  0  0  0  0  0  0  0  0  0
   29.7201  -16.6083  -17.6756 C   0  0  0  0  0  0  0  0  0  0  0  0
   28.8542  -15.6146  -17.2571 C   0  0  0  0  0  0  0  0  0  0  0  0
   27.9551  -15.8278  -16.2293 C   0  0  0  0  0  0  0  0  0  0  0  0
   25.1696  -18.8512  -13.7759 C   0  0  0  0  0  0  0  0  0  0  0  0
   24.4902  -18.0407  -13.0793 O   0  0  0  0  0  0  0  0  0  0  0  0
   25.2188  -20.2026  -13.4012 N   0  0  0  0  0  0  0  0  0  0  0  0
   24.4697  -20.6528  -12.1937 C   0  0  1  0  0  0  0  0  0  0  0  0
   23.7280  -21.8808  -12.5874 C   0  0  0  0  0  0  0  0  0  0  0  0
   22.5205  -21.6011  -13.3557 C   0  0  0  0  0  0  0  0  0  0  0  0
   21.8888  -20.3522  -13.4388 C   0  0  0  0  0  0  0  0  0  0  0  0
   20.8210  -20.5166  -14.2331 N   0  0  0  0  0  0  0  0  0  0  0  0
   20.7445  -21.7903  -14.6528 C   0  0  0  0  0  0  0  0  0  0  0  0
   21.7877  -22.4294  -14.1067 N   0  0  0  0  0  0  0  0  0  0  0  0
   25.4530  -20.8999  -11.1317 C   0  0  0  0  0  0  0  0  0  0  0  0
   26.4189  -21.6868  -11.4038 O   0  0  0  0  0  0  0  0  0  0  0  0
   25.4560  -20.3614   -9.8439 N   0  0  0  0  0  0  0  0  0  0  0  0
   26.4024  -20.8065   -8.8275 C   0  0  1  0  0  0  0  0  0  0  0  0
   27.3175  -19.6884   -8.4384 C   0  0  0  0  0  0  0  0  0  0  0  0
   28.2630  -20.0747   -7.3853 C   0  0  0  0  0  0  0  0  0  0  0  0
   29.2082  -21.0994   -7.4293 C   0  0  0  0  0  0  0  0  0  0  0  0
   29.8619  -21.1666   -6.2643 N   0  0  0  0  0  0  0  0  0  0  0  0
   29.4071  -20.2320   -5.4229 C   0  0  0  0  0  0  0  0  0  0  0  0
   29.7754  -19.9042   -4.1290 C   0  0  0  0  0  0  0  0  0  0  0  0
   29.1232  -18.8623   -3.5242 C   0  0  0  0  0  0  0  0  0  0  0  0
   28.1188  -18.1488   -4.1838 C   0  0  0  0  0  0  0  0  0  0  0  0
   27.7753  -18.4993   -5.4681 C   0  0  0  0  0  0  0  0  0  0  0  0
   28.4155  -19.5431   -6.0969 C   0  0  0  0  0  0  0  0  0  0  0  0
   25.8049  -21.5740   -7.7384 C   0  0  0  0  0  0  0  0  0  0  0  0
   24.6516  -21.0373   -7.1360 O   0  0  0  0  0  0  0  0  0  0  0  0
   26.2154  -22.6640   -7.2747 O   0  0  0  0  0  0  0  0  0  0  0  0
  2  1  1  6
  3  2  1  0
  3  4  1  0
  4  5  2  0
  4  9  1  0
  5  6  1  0
  6  7  2  0
  8  7  1  0
  9  8  2  0
 10  2  1  0
 11 10  2  0
 12 10  1  0
 13 12  1  0
 13 14  1  6
 14 15  1  0
 15 19  1  0
 15 16  2  0
 16 17  1  0
 18 17  1  0
 19 18  2  0
 20 21  2  0
 20 13  1  0
 22 20  1  0
 23 22  1  0
 23 24  1  1
 24 25  1  0
 25 26  2  0
 25 33  1  0
 26 27  1  0
 27 28  1  0
 28 29  2  0
 29 30  1  0
 31 30  2  0
 32 31  1  0
 33 32  2  0
 33 28  1  0
 34 23  1  0
 35 34  1  0
 36 34  2  0
M  END
$$$$
