FHW.pdb
     RDKit          3D

 36 39  0  0  1  0  0  0  0  0999 V2000
   23.4455  -19.7500  -15.9915 N   0  0  0  0  0  0  0  0  0  0  0  0
   24.1184  -19.2265  -14.8417 C   0  0  1  0  0  0  0  0  0  0  0  0
   23.0634  -18.8010  -13.8160 C   0  0  0  0  0  0  0  0  0  0  0  0
   22.2869  -17.6703  -14.3880 C   0  0  0  0  0  0  0  0  0  0  0  0
   22.8612  -16.4332  -14.5982 C   0  0  0  0  0  0  0  0  0  0  0  0
   22.1359  -15.3908  -15.1292 C   0  0  0  0  0  0  0  0  0  0  0  0
   20.8087  -15.5293  -15.4752 C   0  0  0  0  0  0  0  0  0  0  0  0
   20.2325  -16.7686  -15.2649 C   0  0  0  0  0  0  0  0  0  0  0  0
   20.9561  -17.8189  -14.7320 C   0  0  0  0  0  0  0  0  0  0  0  0
   25.0356  -20.2112  -14.2125 C   0  0  0  0  0  0  0  0  0  0  0  0
   24.6423  -21.4150  -14.1982 O   0  0  0  0  0  0  0  0  0  0  0  0
   26.2799  -19.8903  -13.6486 N   0  0  0  0  0  0  0  0  0  0  0  0
   27.1189  -20.9759  -13.0661 C   0  0  1  0  0  0  0  0  0  0  0  0
   28.4747  -20.8304  -13.6611 C   0  0  0  0  0  0  0  0  0  0  0  0
   28.5677  -21.3629  -15.0155 C   0  0  0  0  0  0  0  0  0  0  0  0
   27.5273  -22.0034  -15.7034 C   0  0  0  0  0  0  0  0  0  0  0  0
   28.0159  -22.3417  -16.9054 N   0  0  0  0  0  0  0  0  0  0  0  0
   29.2972  -21.9531  -17.0135 C   0  0  0  0  0  0  0  0  0  0  0  0
   29.6097  -21.3610  -15.8530 N   0  0  0  0  0  0  0  0  0  0  0  0
   27.1174  -20.8001  -11.6084 C   0  0  0  0  0  0  0  0  0  0  0  0
   27.5983  -19.7105  -11.1526 O   0  0  0  0  0  0  0  0  0  0  0  0
   26.6387  -21.6968  -10.6519 N   0  0  0  0  0  0  0  0  0  0  0  0
   26.6025  -21.3600   -9.2334 C   0  0  1  0  0  0  0  0  0  0  0  0
   27.6812  -20.3778   -8.9006 C   0  0  0  0  0  0  0  0  0  0  0  0
   27.6015  -19.9012   -7.5154 C   0  0  0  0  0  0  0  0  0  0  0  0
   26.5826  -19.1445   -6.9369 C   0  0  0  0  0  0  0  0  0  0  0  0
   26.8827  -18.8757   -5.6615 N   0  0  0  0  0  0  0  0  0  0  0  0
   28.0628  -19.4158   -5.3391 C   0  0  0  0  0  0  0  0  0  0  0  0
   28.7759  -19.4222   -4.1522 C   0  0  0  0  0  0  0  0  0  0  0  0
   29.9709  -20.0916   -4.1291 C   0  0  0  0  0  0  0  0  0  0  0  0
   30.4612  -20.7487   -5.2608 C   0  0  0  0  0  0  0  0  0  0  0  0
   29.7299  -20.7233   -6.4248 C   0  0  0  0  0  0  0  0  0  0  0  0
   28.5265  -20.0567   -6.4733 C   0  0  0  0  0  0  0  0  0  0  0  0
   25.2691  -21.0707   -8.7134 C   0  0  0  0  0  0  0  0  0  0  0  0
   25.0103  -21.4361   -7.3791 O   0  0  0  0  0  0  0  0  0  0  0  0
   24.3214  -20.5340   -9.3342 O   0  0  0  0  0  0  0  0  0  0  0  0
  2  1  1  6
  3  2  1  0
  3  4  1  0
  4  5  2  0
  4  9  1  0
  5  6  1  0
  6  7  2  0
  8  7  1  0
  9  8  2  0
 10  2  1  0
 11 10  2  0
 12 10  1  0
 13 12  1  0
 13 14  1  6
 14 15  1  0
 15 19  1  0
 15 16  2  0
 16 17  1  0
 18 17  1  0
 19 18  2  0
 20 21  2  0
 20 13  1  0
 22 20  1  0
 23 22  1  0
 23 24  1  6
 24 25  1  0
 25 26  2  0
 25 33  1  0
 26 27  1  0
 27 28  1  0
 28 29  2  0
 29 30  1  0
 31 30  2  0
 32 31  1  0
 33 32  2  0
 33 28  1  0
 34 23  1  0
 35 34  1  0
 36 34  2  0
M  END
$$$$
