FHW.pdb
     RDKit          3D

 36 39  0  0  1  0  0  0  0  0999 V2000
   14.6151   -8.8167  -15.9988 N   0  0  0  0  0  0  0  0  0  0  0  0
   15.0591   -7.6256  -16.6570 C   0  0  1  0  0  0  0  0  0  0  0  0
   14.8889   -6.4480  -15.6925 C   0  0  0  0  0  0  0  0  0  0  0  0
   13.5095   -5.9165  -15.8450 C   0  0  0  0  0  0  0  0  0  0  0  0
   13.1098   -5.2642  -16.9936 C   0  0  0  0  0  0  0  0  0  0  0  0
   11.8301   -4.7753  -17.1280 C   0  0  0  0  0  0  0  0  0  0  0  0
   10.8901   -4.9118  -16.1289 C   0  0  0  0  0  0  0  0  0  0  0  0
   11.2898   -5.5654  -14.9777 C   0  0  0  0  0  0  0  0  0  0  0  0
   12.5734   -6.0583  -14.8373 C   0  0  0  0  0  0  0  0  0  0  0  0
   16.4797   -7.6991  -17.0852 C   0  0  0  0  0  0  0  0  0  0  0  0
   17.2378   -8.4382  -16.3902 O   0  0  0  0  0  0  0  0  0  0  0  0
   17.0136   -7.0138  -18.1872 N   0  0  0  0  0  0  0  0  0  0  0  0
   18.4511   -7.1991  -18.5352 C   0  0  1  0  0  0  0  0  0  0  0  0
   18.5423   -7.1233  -20.0182 C   0  0  0  0  0  0  0  0  0  0  0  0
   18.2180   -8.3823  -20.6787 C   0  0  0  0  0  0  0  0  0  0  0  0
   17.9442   -9.5904  -20.0219 C   0  0  0  0  0  0  0  0  0  0  0  0
   17.7000  -10.4980  -20.9783 N   0  0  0  0  0  0  0  0  0  0  0  0
   17.8035   -9.9339  -22.1930 C   0  0  0  0  0  0  0  0  0  0  0  0
   18.1189   -8.6485  -21.9850 N   0  0  0  0  0  0  0  0  0  0  0  0
   19.2077   -6.1339  -17.8652 C   0  0  0  0  0  0  0  0  0  0  0  0
   18.7438   -4.9490  -17.9488 O   0  0  0  0  0  0  0  0  0  0  0  0
   20.3880   -6.2711  -17.1329 N   0  0  0  0  0  0  0  0  0  0  0  0
   21.0563   -5.1231  -16.5310 C   0  0  1  0  0  0  0  0  0  0  0  0
   21.5688   -5.4703  -15.1687 C   0  0  0  0  0  0  0  0  0  0  0  0
   22.5518   -6.5589  -15.1971 C   0  0  0  0  0  0  0  0  0  0  0  0
   23.6229   -6.7107  -16.0774 C   0  0  0  0  0  0  0  0  0  0  0  0
   24.2745   -7.8479  -15.8105 N   0  0  0  0  0  0  0  0  0  0  0  0
   23.6977   -8.4829  -14.7846 C   0  0  0  0  0  0  0  0  0  0  0  0
   24.0141   -9.6691  -14.1443 C   0  0  0  0  0  0  0  0  0  0  0  0
   23.2286  -10.0547  -13.0902 C   0  0  0  0  0  0  0  0  0  0  0  0
   22.1426   -9.2827  -12.6687 C   0  0  0  0  0  0  0  0  0  0  0  0
   21.8537   -8.1101  -13.3258 C   0  0  0  0  0  0  0  0  0  0  0  0
   22.6277   -7.7016  -14.3883 C   0  0  0  0  0  0  0  0  0  0  0  0
   21.9800   -4.4250  -17.4208 C   0  0  0  0  0  0  0  0  0  0  0  0
   22.4242   -3.1539  -17.0111 O   0  0  0  0  0  0  0  0  0  0  0  0
   22.4177   -4.8363  -18.5211 O   0  0  0  0  0  0  0  0  0  0  0  0
  2  1  1  1
  3  2  1  0
  3  4  1  0
  4  5  2  0
  4  9  1  0
  5  6  1  0
  6  7  2  0
  8  7  1  0
  9  8  2  0
 10  2  1  0
 11 10  2  0
 12 10  1  0
 13 12  1  0
 13 14  1  6
 14 15  1  0
 15 19  1  0
 15 16  2  0
 16 17  1  0
 18 17  1  0
 19 18  2  0
 20 21  2  0
 20 13  1  0
 22 20  1  0
 23 22  1  0
 23 24  1  1
 24 25  1  0
 25 26  2  0
 25 33  1  0
 26 27  1  0
 27 28  1  0
 28 29  2  0
 29 30  1  0
 31 30  2  0
 32 31  1  0
 33 32  2  0
 33 28  1  0
 34 23  1  0
 35 34  1  0
 36 34  2  0
M  END
$$$$
