FHW.pdb
     RDKit          3D

 36 39  0  0  1  0  0  0  0  0999 V2000
   19.8641   -2.0265  -21.1139 N   0  0  0  0  0  0  0  0  0  0  0  0
   21.0006   -2.5741  -20.4373 C   0  0  1  0  0  0  0  0  0  0  0  0
   21.2128   -1.7920  -19.1376 C   0  0  0  0  0  0  0  0  0  0  0  0
   21.6798   -0.4252  -19.4872 C   0  0  0  0  0  0  0  0  0  0  0  0
   20.8348    0.6642  -19.4262 C   0  0  0  0  0  0  0  0  0  0  0  0
   21.2747    1.9275  -19.7509 C   0  0  0  0  0  0  0  0  0  0  0  0
   22.5723    2.1661  -20.1505 C   0  0  0  0  0  0  0  0  0  0  0  0
   23.4196    1.0750  -20.2118 C   0  0  0  0  0  0  0  0  0  0  0  0
   22.9833   -0.1956  -19.8870 C   0  0  0  0  0  0  0  0  0  0  0  0
   20.8400   -4.0152  -20.1144 C   0  0  0  0  0  0  0  0  0  0  0  0
   19.6508   -4.4440  -20.0383 O   0  0  0  0  0  0  0  0  0  0  0  0
   21.9040   -4.9034  -19.8950 N   0  0  0  0  0  0  0  0  0  0  0  0
   21.6101   -6.3151  -19.5175 C   0  0  1  0  0  0  0  0  0  0  0  0
   22.8037   -7.1151  -19.9032 C   0  0  0  0  0  0  0  0  0  0  0  0
   22.6618   -8.5365  -19.6098 C   0  0  0  0  0  0  0  0  0  0  0  0
   22.9171   -9.1327  -18.3668 C   0  0  0  0  0  0  0  0  0  0  0  0
   22.6723  -10.4428  -18.5144 N   0  0  0  0  0  0  0  0  0  0  0  0
   22.2796  -10.7044  -19.7720 C   0  0  0  0  0  0  0  0  0  0  0  0
   22.2810   -9.5308  -20.4181 N   0  0  0  0  0  0  0  0  0  0  0  0
   21.3531   -6.3405  -18.0721 C   0  0  0  0  0  0  0  0  0  0  0  0
   20.9043   -7.4276  -17.5793 O   0  0  0  0  0  0  0  0  0  0  0  0
   21.5516   -5.3006  -17.1625 N   0  0  0  0  0  0  0  0  0  0  0  0
   21.1251   -5.4048  -15.7717 C   0  0  1  0  0  0  0  0  0  0  0  0
   22.3093   -5.3774  -14.8573 C   0  0  0  0  0  0  0  0  0  0  0  0
   23.1413   -6.5797  -14.9769 C   0  0  0  0  0  0  0  0  0  0  0  0
   24.3478   -6.7103  -15.6644 C   0  0  0  0  0  0  0  0  0  0  0  0
   24.7906   -7.9691  -15.5727 N   0  0  0  0  0  0  0  0  0  0  0  0
   23.9410   -8.7081  -14.8514 C   0  0  0  0  0  0  0  0  0  0  0  0
   23.9743  -10.0401  -14.4747 C   0  0  0  0  0  0  0  0  0  0  0  0
   22.9455  -10.5110  -13.7024 C   0  0  0  0  0  0  0  0  0  0  0  0
   21.8937   -9.6818  -13.3034 C   0  0  0  0  0  0  0  0  0  0  0  0
   21.8890   -8.3637  -13.6945 C   0  0  0  0  0  0  0  0  0  0  0  0
   22.9111   -7.8671  -14.4714 C   0  0  0  0  0  0  0  0  0  0  0  0
   20.0021   -4.5419  -15.4163 C   0  0  0  0  0  0  0  0  0  0  0  0
   19.4038   -4.7563  -14.1605 O   0  0  0  0  0  0  0  0  0  0  0  0
   19.5061   -3.6284  -16.1171 O   0  0  0  0  0  0  0  0  0  0  0  0
  2  1  1  1
  3  2  1  0
  3  4  1  0
  4  5  2  0
  4  9  1  0
  5  6  1  0
  6  7  2  0
  8  7  1  0
  9  8  2  0
 10  2  1  0
 11 10  2  0
 12 10  1  0
 13 12  1  0
 13 14  1  1
 14 15  1  0
 15 19  1  0
 15 16  2  0
 16 17  1  0
 18 17  1  0
 19 18  2  0
 20 21  2  0
 20 13  1  0
 22 20  1  0
 23 22  1  0
 23 24  1  1
 24 25  1  0
 25 26  2  0
 25 33  1  0
 26 27  1  0
 27 28  1  0
 28 29  2  0
 29 30  1  0
 31 30  2  0
 32 31  1  0
 33 32  2  0
 33 28  1  0
 34 23  1  0
 35 34  1  0
 36 34  2  0
M  END
$$$$
