FHW.pdb
     RDKit          3D

 36 39  0  0  1  0  0  0  0  0999 V2000
   27.0064  -19.7706  -19.7395 N   0  0  0  0  0  0  0  0  0  0  0  0
   26.5793  -19.3724  -18.4326 C   0  0  1  0  0  0  0  0  0  0  0  0
   25.8425  -18.0348  -18.5512 C   0  0  0  0  0  0  0  0  0  0  0  0
   26.8088  -17.0114  -19.0281 C   0  0  0  0  0  0  0  0  0  0  0  0
   27.9123  -16.6559  -18.2794 C   0  0  0  0  0  0  0  0  0  0  0  0
   28.8035  -15.7076  -18.7280 C   0  0  0  0  0  0  0  0  0  0  0  0
   28.6396  -15.0698  -19.9391 C   0  0  0  0  0  0  0  0  0  0  0  0
   27.5341  -15.4255  -20.6898 C   0  0  0  0  0  0  0  0  0  0  0  0
   26.6360  -16.3770  -20.2444 C   0  0  0  0  0  0  0  0  0  0  0  0
   25.6789  -20.3658  -17.7927 C   0  0  0  0  0  0  0  0  0  0  0  0
   24.9470  -21.0439  -18.5727 O   0  0  0  0  0  0  0  0  0  0  0  0
   25.5968  -20.5884  -16.4097 N   0  0  0  0  0  0  0  0  0  0  0  0
   24.6658  -21.6312  -15.8924 C   0  0  1  0  0  0  0  0  0  0  0  0
   25.4507  -22.4702  -14.9473 C   0  0  0  0  0  0  0  0  0  0  0  0
   26.4039  -23.3490  -15.6149 C   0  0  0  0  0  0  0  0  0  0  0  0
   26.1995  -24.7116  -15.8745 C   0  0  0  0  0  0  0  0  0  0  0  0
   27.3041  -25.1520  -16.4943 N   0  0  0  0  0  0  0  0  0  0  0  0
   28.1875  -24.1505  -16.6392 C   0  0  0  0  0  0  0  0  0  0  0  0
   27.6180  -23.0656  -16.0974 N   0  0  0  0  0  0  0  0  0  0  0  0
   23.5466  -20.9390  -15.2412 C   0  0  0  0  0  0  0  0  0  0  0  0
   23.8149  -19.8646  -14.6088 O   0  0  0  0  0  0  0  0  0  0  0  0
   22.2046  -21.3228  -15.2395 N   0  0  0  0  0  0  0  0  0  0  0  0
   21.1589  -20.4575  -14.7059 C   0  0  1  0  0  0  0  0  0  0  0  0
   21.3142  -19.0644  -15.2292 C   0  0  0  0  0  0  0  0  0  0  0  0
   20.7117  -18.8903  -16.5554 C   0  0  0  0  0  0  0  0  0  0  0  0
   19.4057  -19.1943  -16.9393 C   0  0  0  0  0  0  0  0  0  0  0  0
   19.2394  -18.9283  -18.2396 N   0  0  0  0  0  0  0  0  0  0  0  0
   20.3742  -18.4541  -18.7647 C   0  0  0  0  0  0  0  0  0  0  0  0
   20.6865  -18.0309  -20.0456 C   0  0  0  0  0  0  0  0  0  0  0  0
   21.9563  -17.5704  -20.2738 C   0  0  0  0  0  0  0  0  0  0  0  0
   22.9107  -17.5258  -19.2540 C   0  0  0  0  0  0  0  0  0  0  0  0
   22.5699  -17.9540  -17.9926 C   0  0  0  0  0  0  0  0  0  0  0  0
   21.3005  -18.4218  -17.7385 C   0  0  0  0  0  0  0  0  0  0  0  0
   19.8164  -21.0299  -14.7532 C   0  0  0  0  0  0  0  0  0  0  0  0
   18.8640  -20.4998  -13.8628 O   0  0  0  0  0  0  0  0  0  0  0  0
   19.4201  -21.9536  -15.5023 O   0  0  0  0  0  0  0  0  0  0  0  0
  2  1  1  6
  3  2  1  0
  3  4  1  0
  4  5  2  0
  4  9  1  0
  5  6  1  0
  6  7  2  0
  8  7  1  0
  9  8  2  0
 10  2  1  0
 11 10  2  0
 12 10  1  0
 13 12  1  0
 13 14  1  1
 14 15  1  0
 15 19  1  0
 15 16  2  0
 16 17  1  0
 18 17  1  0
 19 18  2  0
 20 21  2  0
 20 13  1  0
 22 20  1  0
 23 22  1  0
 23 24  1  6
 24 25  1  0
 25 26  2  0
 25 33  1  0
 26 27  1  0
 27 28  1  0
 28 29  2  0
 29 30  1  0
 31 30  2  0
 32 31  1  0
 33 32  2  0
 33 28  1  0
 34 23  1  0
 35 34  1  0
 36 34  2  0
M  END
$$$$
