FHW.pdb
     RDKit          3D

 36 39  0  0  1  0  0  0  0  0999 V2000
   24.3974  -33.2948   -8.2735 N   0  0  0  0  0  0  0  0  0  0  0  0
   24.6891  -32.4451   -7.1589 C   0  0  1  0  0  0  0  0  0  0  0  0
   23.4070  -31.7045   -6.7668 C   0  0  0  0  0  0  0  0  0  0  0  0
   23.0399  -30.7883   -7.8778 C   0  0  0  0  0  0  0  0  0  0  0  0
   23.7703  -29.6482   -8.1448 C   0  0  0  0  0  0  0  0  0  0  0  0
   23.4247  -28.8046   -9.1761 C   0  0  0  0  0  0  0  0  0  0  0  0
   22.3392  -29.0545   -9.9883 C   0  0  0  0  0  0  0  0  0  0  0  0
   21.6069  -30.1967   -9.7215 C   0  0  0  0  0  0  0  0  0  0  0  0
   21.9493  -31.0473   -8.6872 C   0  0  0  0  0  0  0  0  0  0  0  0
   25.1952  -33.1941   -5.9801 C   0  0  0  0  0  0  0  0  0  0  0  0
   24.7072  -34.3483   -5.7968 O   0  0  0  0  0  0  0  0  0  0  0  0
   26.1579  -32.7069   -5.0829 N   0  0  0  0  0  0  0  0  0  0  0  0
   26.5685  -33.5500   -3.9242 C   0  0  1  0  0  0  0  0  0  0  0  0
   28.0371  -33.7535   -4.0464 C   0  0  0  0  0  0  0  0  0  0  0  0
   28.3968  -34.7638   -5.0346 C   0  0  0  0  0  0  0  0  0  0  0  0
   28.6021  -34.5192   -6.3999 C   0  0  0  0  0  0  0  0  0  0  0  0
   28.9099  -35.6994   -6.9570 N   0  0  0  0  0  0  0  0  0  0  0  0
   28.9103  -36.6679   -6.0262 C   0  0  0  0  0  0  0  0  0  0  0  0
   28.5959  -36.0750   -4.8667 N   0  0  0  0  0  0  0  0  0  0  0  0
   26.1956  -32.8292   -2.7006 C   0  0  0  0  0  0  0  0  0  0  0  0
   26.5312  -31.6013   -2.6226 O   0  0  0  0  0  0  0  0  0  0  0  0
   25.5019  -33.3376   -1.6012 N   0  0  0  0  0  0  0  0  0  0  0  0
   25.2138  -32.5189   -0.4292 C   0  0  1  0  0  0  0  0  0  0  0  0
   23.7433  -32.4987   -0.1530 C   0  0  0  0  0  0  0  0  0  0  0  0
   22.9817  -31.8174   -1.2056 C   0  0  0  0  0  0  0  0  0  0  0  0
   22.5356  -32.3560   -2.4124 C   0  0  0  0  0  0  0  0  0  0  0  0
   21.9054  -31.4162   -3.1255 N   0  0  0  0  0  0  0  0  0  0  0  0
   21.8986  -30.2561   -2.4602 C   0  0  0  0  0  0  0  0  0  0  0  0
   21.3624  -29.0194   -2.7768 C   0  0  0  0  0  0  0  0  0  0  0  0
   21.5047  -28.0090   -1.8628 C   0  0  0  0  0  0  0  0  0  0  0  0
   22.1674  -28.2109   -0.6490 C   0  0  0  0  0  0  0  0  0  0  0  0
   22.6896  -29.4505   -0.3643 C   0  0  0  0  0  0  0  0  0  0  0  0
   22.5602  -30.4817   -1.2670 C   0  0  0  0  0  0  0  0  0  0  0  0
   26.0920  -32.7640    0.7114 C   0  0  0  0  0  0  0  0  0  0  0  0
   25.9509  -31.9104    1.8215 O   0  0  0  0  0  0  0  0  0  0  0  0
   26.9685  -33.6551    0.8062 O   0  0  0  0  0  0  0  0  0  0  0  0
  2  1  1  6
  3  2  1  0
  3  4  1  0
  4  5  2  0
  4  9  1  0
  5  6  1  0
  6  7  2  0
  8  7  1  0
  9  8  2  0
 10  2  1  0
 11 10  2  0
 12 10  1  0
 13 12  1  0
 13 14  1  1
 14 15  1  0
 15 19  1  0
 15 16  2  0
 16 17  1  0
 18 17  1  0
 19 18  2  0
 20 21  2  0
 20 13  1  0
 22 20  1  0
 23 22  1  0
 23 24  1  1
 24 25  1  0
 25 26  2  0
 25 33  1  0
 26 27  1  0
 27 28  1  0
 28 29  2  0
 29 30  1  0
 31 30  2  0
 32 31  1  0
 33 32  2  0
 33 28  1  0
 34 23  1  0
 35 34  1  0
 36 34  2  0
M  END
$$$$
