FHW.pdb
     RDKit          3D

 36 39  0  0  1  0  0  0  0  0999 V2000
   28.6285  -21.1972   -9.2894 N   0  0  0  0  0  0  0  0  0  0  0  0
   27.2364  -20.8636   -9.2941 C   0  0  1  0  0  0  0  0  0  0  0  0
   27.0627  -19.5034   -8.6115 C   0  0  0  0  0  0  0  0  0  0  0  0
   27.5045  -19.6315   -7.1984 C   0  0  0  0  0  0  0  0  0  0  0  0
   28.6914  -19.0806   -6.7601 C   0  0  0  0  0  0  0  0  0  0  0  0
   29.0937  -19.2026   -5.4494 C   0  0  0  0  0  0  0  0  0  0  0  0
   28.3364  -19.8767   -4.5153 C   0  0  0  0  0  0  0  0  0  0  0  0
   27.1469  -20.4289   -4.9536 C   0  0  0  0  0  0  0  0  0  0  0  0
   26.7380  -20.3095   -6.2685 C   0  0  0  0  0  0  0  0  0  0  0  0
   26.6648  -20.7944  -10.6635 C   0  0  0  0  0  0  0  0  0  0  0  0
   27.2366  -20.0038  -11.4709 O   0  0  0  0  0  0  0  0  0  0  0  0
   25.5567  -21.5364  -11.1001 N   0  0  0  0  0  0  0  0  0  0  0  0
   25.1099  -21.4155  -12.5170 C   0  0  1  0  0  0  0  0  0  0  0  0
   24.9802  -22.8017  -13.0413 C   0  0  0  0  0  0  0  0  0  0  0  0
   26.0897  -23.1968  -13.9012 C   0  0  0  0  0  0  0  0  0  0  0  0
   27.1397  -22.3574  -14.2995 C   0  0  0  0  0  0  0  0  0  0  0  0
   27.9425  -23.0947  -15.0806 N   0  0  0  0  0  0  0  0  0  0  0  0
   27.4610  -24.3434  -15.1963 C   0  0  0  0  0  0  0  0  0  0  0  0
   26.3351  -24.3809  -14.4712 N   0  0  0  0  0  0  0  0  0  0  0  0
   23.8347  -20.6876  -12.5165 C   0  0  0  0  0  0  0  0  0  0  0  0
   22.9416  -21.0780  -11.6942 O   0  0  0  0  0  0  0  0  0  0  0  0
   23.4849  -19.5999  -13.3182 N   0  0  0  0  0  0  0  0  0  0  0  0
   22.1345  -19.0491  -13.3187 C   0  0  1  0  0  0  0  0  0  0  0  0
   22.1273  -17.6806  -13.9238 C   0  0  0  0  0  0  0  0  0  0  0  0
   23.0292  -17.5691  -15.0755 C   0  0  0  0  0  0  0  0  0  0  0  0
   22.7141  -17.7625  -16.4204 C   0  0  0  0  0  0  0  0  0  0  0  0
   23.8093  -17.6057  -17.1721 N   0  0  0  0  0  0  0  0  0  0  0  0
   24.8622  -17.3121  -16.4017 C   0  0  0  0  0  0  0  0  0  0  0  0
   26.1852  -17.0507  -16.7160 C   0  0  0  0  0  0  0  0  0  0  0  0
   27.0398  -16.7571  -15.6863 C   0  0  0  0  0  0  0  0  0  0  0  0
   26.5997  -16.7205  -14.3605 C   0  0  0  0  0  0  0  0  0  0  0  0
   25.2798  -16.9855  -14.0808 C   0  0  0  0  0  0  0  0  0  0  0  0
   24.4017  -17.2839  -15.0981 C   0  0  0  0  0  0  0  0  0  0  0  0
   21.1030  -19.9748  -13.7784 C   0  0  0  0  0  0  0  0  0  0  0  0
   21.5184  -21.0348  -14.6058 O   0  0  0  0  0  0  0  0  0  0  0  0
   19.8777  -19.9226  -13.5188 O   0  0  0  0  0  0  0  0  0  0  0  0
  2  1  1  6
  3  2  1  0
  3  4  1  0
  4  5  2  0
  4  9  1  0
  5  6  1  0
  6  7  2  0
  8  7  1  0
  9  8  2  0
 10  2  1  0
 11 10  2  0
 12 10  1  0
 13 12  1  0
 13 14  1  1
 14 15  1  0
 15 19  1  0
 15 16  2  0
 16 17  1  0
 18 17  1  0
 19 18  2  0
 20 21  2  0
 20 13  1  0
 22 20  1  0
 23 22  1  0
 23 24  1  6
 24 25  1  0
 25 26  2  0
 25 33  1  0
 26 27  1  0
 27 28  1  0
 28 29  2  0
 29 30  1  0
 31 30  2  0
 32 31  1  0
 33 32  2  0
 33 28  1  0
 34 23  1  0
 35 34  1  0
 36 34  2  0
M  END
$$$$
