FHW.pdb
     RDKit          3D

 36 39  0  0  1  0  0  0  0  0999 V2000
   27.6224  -20.2303  -10.7486 N   0  0  0  0  0  0  0  0  0  0  0  0
   26.4998  -21.1102  -10.6283 C   0  0  1  0  0  0  0  0  0  0  0  0
   25.7251  -20.7353   -9.3612 C   0  0  0  0  0  0  0  0  0  0  0  0
   26.6966  -20.5955   -8.2454 C   0  0  0  0  0  0  0  0  0  0  0  0
   26.6575  -19.5175   -7.3848 C   0  0  0  0  0  0  0  0  0  0  0  0
   27.5603  -19.3951   -6.3529 C   0  0  0  0  0  0  0  0  0  0  0  0
   28.5420  -20.3367   -6.1290 C   0  0  0  0  0  0  0  0  0  0  0  0
   28.5818  -21.4173   -6.9910 C   0  0  0  0  0  0  0  0  0  0  0  0
   27.6778  -21.5453   -8.0288 C   0  0  0  0  0  0  0  0  0  0  0  0
   25.5832  -21.0380  -11.7952 C   0  0  0  0  0  0  0  0  0  0  0  0
   25.2499  -19.8770  -12.1759 O   0  0  0  0  0  0  0  0  0  0  0  0
   25.0800  -22.1545  -12.4802 N   0  0  0  0  0  0  0  0  0  0  0  0
   24.2477  -21.9484  -13.6996 C   0  0  1  0  0  0  0  0  0  0  0  0
   25.0293  -22.4898  -14.8438 C   0  0  0  0  0  0  0  0  0  0  0  0
   26.0195  -21.5512  -15.3584 C   0  0  0  0  0  0  0  0  0  0  0  0
   26.1733  -20.2253  -14.9291 C   0  0  0  0  0  0  0  0  0  0  0  0
   27.1809  -19.7065  -15.6459 N   0  0  0  0  0  0  0  0  0  0  0  0
   27.6678  -20.6244  -16.4971 C   0  0  0  0  0  0  0  0  0  0  0  0
   26.9463  -21.7365  -16.3039 N   0  0  0  0  0  0  0  0  0  0  0  0
   22.9792  -22.6583  -13.4925 C   0  0  0  0  0  0  0  0  0  0  0  0
   22.9656  -23.5822  -12.6136 O   0  0  0  0  0  0  0  0  0  0  0  0
   21.7695  -22.4318  -14.1509 N   0  0  0  0  0  0  0  0  0  0  0  0
   20.4855  -22.6347  -13.4896 C   0  0  1  0  0  0  0  0  0  0  0  0
   20.4493  -21.9081  -12.1820 C   0  0  0  0  0  0  0  0  0  0  0  0
   19.2281  -22.1848  -11.4175 C   0  0  0  0  0  0  0  0  0  0  0  0
   19.0479  -23.1526  -10.4295 C   0  0  0  0  0  0  0  0  0  0  0  0
   17.7860  -23.1229   -9.9872 N   0  0  0  0  0  0  0  0  0  0  0  0
   17.0923  -22.1760  -10.6280 C   0  0  0  0  0  0  0  0  0  0  0  0
   15.7761  -21.7629  -10.5086 C   0  0  0  0  0  0  0  0  0  0  0  0
   15.3556  -20.7325  -11.3075 C   0  0  0  0  0  0  0  0  0  0  0  0
   16.2193  -20.1135  -12.2152 C   0  0  0  0  0  0  0  0  0  0  0  0
   17.5205  -20.5474  -12.3108 C   0  0  0  0  0  0  0  0  0  0  0  0
   17.9666  -21.5815  -11.5193 C   0  0  0  0  0  0  0  0  0  0  0  0
   19.3241  -22.4760  -14.3604 C   0  0  0  0  0  0  0  0  0  0  0  0
   18.3314  -23.4711  -14.2893 O   0  0  0  0  0  0  0  0  0  0  0  0
   19.1179  -21.5455  -15.1747 O   0  0  0  0  0  0  0  0  0  0  0  0
  2  1  1  6
  3  2  1  0
  3  4  1  0
  4  5  2  0
  4  9  1  0
  5  6  1  0
  6  7  2  0
  8  7  1  0
  9  8  2  0
 10  2  1  0
 11 10  2  0
 12 10  1  0
 13 12  1  0
 13 14  1  6
 14 15  1  0
 15 19  1  0
 15 16  2  0
 16 17  1  0
 18 17  1  0
 19 18  2  0
 20 21  2  0
 20 13  1  0
 22 20  1  0
 23 22  1  0
 23 24  1  1
 24 25  1  0
 25 26  2  0
 25 33  1  0
 26 27  1  0
 27 28  1  0
 28 29  2  0
 29 30  1  0
 31 30  2  0
 32 31  1  0
 33 32  2  0
 33 28  1  0
 34 23  1  0
 35 34  1  0
 36 34  2  0
M  END
$$$$
