FHW.pdb
     RDKit          3D

 36 39  0  0  1  0  0  0  0  0999 V2000
   27.5929  -20.0506  -18.4271 N   0  0  0  0  0  0  0  0  0  0  0  0
   27.4359  -20.1552  -17.0081 C   0  0  1  0  0  0  0  0  0  0  0  0
   27.2939  -18.7432  -16.4318 C   0  0  0  0  0  0  0  0  0  0  0  0
   28.4970  -17.9600  -16.8158 C   0  0  0  0  0  0  0  0  0  0  0  0
   28.3953  -16.6741  -17.3062 C   0  0  0  0  0  0  0  0  0  0  0  0
   29.5144  -15.9544  -17.6592 C   0  0  0  0  0  0  0  0  0  0  0  0
   30.7840  -16.4785  -17.5413 C   0  0  0  0  0  0  0  0  0  0  0  0
   30.8867  -17.7669  -17.0500 C   0  0  0  0  0  0  0  0  0  0  0  0
   29.7665  -18.4942  -16.6940 C   0  0  0  0  0  0  0  0  0  0  0  0
   26.2495  -20.9592  -16.6172 C   0  0  0  0  0  0  0  0  0  0  0  0
   25.3215  -21.0436  -17.4748 O   0  0  0  0  0  0  0  0  0  0  0  0
   26.1041  -21.6126  -15.3838 N   0  0  0  0  0  0  0  0  0  0  0  0
   24.9357  -22.5126  -15.1681 C   0  0  1  0  0  0  0  0  0  0  0  0
   25.4703  -23.7678  -14.5748 C   0  0  0  0  0  0  0  0  0  0  0  0
   26.1921  -24.5949  -15.5347 C   0  0  0  0  0  0  0  0  0  0  0  0
   25.6413  -25.6685  -16.2487 C   0  0  0  0  0  0  0  0  0  0  0  0
   26.6250  -26.1622  -17.0147 N   0  0  0  0  0  0  0  0  0  0  0  0
   27.7574  -25.4648  -16.8252 C   0  0  0  0  0  0  0  0  0  0  0  0
   27.4693  -24.5183  -15.9219 N   0  0  0  0  0  0  0  0  0  0  0  0
   24.0016  -21.8158  -14.2748 C   0  0  0  0  0  0  0  0  0  0  0  0
   24.5060  -21.1236  -13.3300 O   0  0  0  0  0  0  0  0  0  0  0  0
   22.6076  -21.8189  -14.3448 N   0  0  0  0  0  0  0  0  0  0  0  0
   21.7961  -20.9146  -13.5382 C   0  0  1  0  0  0  0  0  0  0  0  0
   22.2885  -19.5080  -13.6727 C   0  0  0  0  0  0  0  0  0  0  0  0
   21.6187  -18.7777  -14.7544 C   0  0  0  0  0  0  0  0  0  0  0  0
   20.4521  -18.0180  -14.6684 C   0  0  0  0  0  0  0  0  0  0  0  0
   20.1338  -17.5338  -15.8739 N   0  0  0  0  0  0  0  0  0  0  0  0
   21.0317  -17.9273  -16.7834 C   0  0  0  0  0  0  0  0  0  0  0  0
   21.1359  -17.6725  -18.1405 C   0  0  0  0  0  0  0  0  0  0  0  0
   22.2016  -18.2120  -18.8112 C   0  0  0  0  0  0  0  0  0  0  0  0
   23.1562  -18.9943  -18.1557 C   0  0  0  0  0  0  0  0  0  0  0  0
   23.0242  -19.2298  -16.8075 C   0  0  0  0  0  0  0  0  0  0  0  0
   21.9616  -18.6993  -16.1116 C   0  0  0  0  0  0  0  0  0  0  0  0
   20.3557  -21.1198  -13.6623 C   0  0  0  0  0  0  0  0  0  0  0  0
   19.5594  -20.7410  -12.5653 O   0  0  0  0  0  0  0  0  0  0  0  0
   19.7486  -21.6065  -14.6452 O   0  0  0  0  0  0  0  0  0  0  0  0
  2  1  1  6
  3  2  1  0
  3  4  1  0
  4  5  2  0
  4  9  1  0
  5  6  1  0
  6  7  2  0
  8  7  1  0
  9  8  2  0
 10  2  1  0
 11 10  2  0
 12 10  1  0
 13 12  1  0
 13 14  1  1
 14 15  1  0
 15 19  1  0
 15 16  2  0
 16 17  1  0
 18 17  1  0
 19 18  2  0
 20 21  2  0
 20 13  1  0
 22 20  1  0
 23 22  1  0
 23 24  1  6
 24 25  1  0
 25 26  2  0
 25 33  1  0
 26 27  1  0
 27 28  1  0
 28 29  2  0
 29 30  1  0
 31 30  2  0
 32 31  1  0
 33 32  2  0
 33 28  1  0
 34 23  1  0
 35 34  1  0
 36 34  2  0
M  END
$$$$
