FHW.pdb
     RDKit          3D

 36 39  0  0  1  0  0  0  0  0999 V2000
   17.1386  -10.7999  -15.6821 N   0  0  0  0  0  0  0  0  0  0  0  0
   17.3827   -9.6198  -16.4547 C   0  0  1  0  0  0  0  0  0  0  0  0
   16.0335   -8.9964  -16.8249 C   0  0  0  0  0  0  0  0  0  0  0  0
   15.4233   -9.8140  -17.9054 C   0  0  0  0  0  0  0  0  0  0  0  0
   14.4656  -10.7699  -17.6344 C   0  0  0  0  0  0  0  0  0  0  0  0
   13.9041  -11.5230  -18.6406 C   0  0  0  0  0  0  0  0  0  0  0  0
   14.2679  -11.3612  -19.9604 C   0  0  0  0  0  0  0  0  0  0  0  0
   15.2275  -10.4035  -20.2328 C   0  0  0  0  0  0  0  0  0  0  0  0
   15.7946   -9.6445  -19.2265 C   0  0  0  0  0  0  0  0  0  0  0  0
   18.1979   -8.6131  -15.7275 C   0  0  0  0  0  0  0  0  0  0  0  0
   18.0622   -8.5847  -14.4686 O   0  0  0  0  0  0  0  0  0  0  0  0
   19.0857   -7.7164  -16.3413 N   0  0  0  0  0  0  0  0  0  0  0  0
   19.8529   -6.7565  -15.4977 C   0  0  1  0  0  0  0  0  0  0  0  0
   21.2869   -6.9299  -15.8541 C   0  0  0  0  0  0  0  0  0  0  0  0
   21.8604   -8.1688  -15.3416 C   0  0  0  0  0  0  0  0  0  0  0  0
   21.1697   -9.1232  -14.5814 C   0  0  0  0  0  0  0  0  0  0  0  0
   22.0459  -10.1012  -14.3093 N   0  0  0  0  0  0  0  0  0  0  0  0
   23.2420   -9.8191  -14.8515 C   0  0  0  0  0  0  0  0  0  0  0  0
   23.1044   -8.6404  -15.4733 N   0  0  0  0  0  0  0  0  0  0  0  0
   19.3528   -5.4089  -15.7975 C   0  0  0  0  0  0  0  0  0  0  0  0
   19.5171   -4.9778  -16.9863 O   0  0  0  0  0  0  0  0  0  0  0  0
   18.7046   -4.5364  -14.9218 N   0  0  0  0  0  0  0  0  0  0  0  0
   17.6463   -3.6405  -15.3736 C   0  0  1  0  0  0  0  0  0  0  0  0
   16.7525   -4.3367  -16.3510 C   0  0  0  0  0  0  0  0  0  0  0  0
   15.6580   -3.4810  -16.8222 C   0  0  0  0  0  0  0  0  0  0  0  0
   15.5855   -2.0893  -16.7646 C   0  0  0  0  0  0  0  0  0  0  0  0
   14.4160   -1.6729  -17.2626 N   0  0  0  0  0  0  0  0  0  0  0  0
   13.6830   -2.7183  -17.6604 C   0  0  0  0  0  0  0  0  0  0  0  0
   12.4297   -2.7915  -18.2444 C   0  0  0  0  0  0  0  0  0  0  0  0
   11.9447   -4.0329  -18.5614 C   0  0  0  0  0  0  0  0  0  0  0  0
   12.6835   -5.1917  -18.3074 C   0  0  0  0  0  0  0  0  0  0  0  0
   13.9248   -5.0857  -17.7255 C   0  0  0  0  0  0  0  0  0  0  0  0
   14.4335   -3.8495  -17.3971 C   0  0  0  0  0  0  0  0  0  0  0  0
   16.9917   -2.8895  -14.3060 C   0  0  0  0  0  0  0  0  0  0  0  0
   17.0131   -3.4582  -13.0187 O   0  0  0  0  0  0  0  0  0  0  0  0
   16.4030   -1.7881  -14.4149 O   0  0  0  0  0  0  0  0  0  0  0  0
  2  1  1  1
  3  2  1  0
  3  4  1  0
  4  5  2  0
  4  9  1  0
  5  6  1  0
  6  7  2  0
  8  7  1  0
  9  8  2  0
 10  2  1  0
 11 10  2  0
 12 10  1  0
 13 12  1  0
 13 14  1  6
 14 15  1  0
 15 19  1  0
 15 16  2  0
 16 17  1  0
 18 17  1  0
 19 18  2  0
 20 21  2  0
 20 13  1  0
 22 20  1  0
 23 22  1  0
 23 24  1  1
 24 25  1  0
 25 26  2  0
 25 33  1  0
 26 27  1  0
 27 28  1  0
 28 29  2  0
 29 30  1  0
 31 30  2  0
 32 31  1  0
 33 32  2  0
 33 28  1  0
 34 23  1  0
 35 34  1  0
 36 34  2  0
M  END
$$$$
