VGN.pdb
     RDKit          3D

 20 19  0  0  1  0  0  0  0  0999 V2000
    7.7315  -15.5675   19.6258 C   0  0  0  0  0  0  0  0  0  0  0  0
    7.6915  -14.7575   20.8833 C   0  0  1  0  0  0  0  0  0  0  0  0
    6.2435  -14.4974   21.2647 C   0  0  0  0  0  0  0  0  0  0  0  0
    8.3434  -15.4700   22.0439 C   0  0  2  0  0  0  0  0  0  0  0  0
    7.6281  -16.7211   22.2489 N   0  0  0  0  0  0  0  0  0  0  0  0
    8.3162  -14.6340   23.2802 C   0  0  0  0  0  0  0  0  0  0  0  0
    9.0228  -13.6169   23.3281 O   0  0  0  0  0  0  0  0  0  0  0  0
    7.5092  -14.9659   24.3994 N   0  0  0  0  0  0  0  0  0  0  0  0
    7.3625  -14.1047   25.5522 C   0  0  0  0  0  0  0  0  0  0  0  0
    8.5661  -14.1685   26.4352 C   0  0  0  0  0  0  0  0  0  0  0  0
    8.5608  -13.5645   27.5463 O   0  0  0  0  0  0  0  0  0  0  0  0
   10.9440  -14.3977   29.5157 N   0  0  0  0  0  0  0  0  0  0  0  0
   10.2932  -15.6600   29.4233 C   0  0  0  0  0  0  0  0  0  0  0  0
    9.9368  -16.2530   30.4760 O   0  0  0  0  0  0  0  0  0  0  0  0
   10.0627  -16.2249   28.0775 C   0  0  0  0  0  0  0  0  0  0  0  0
   10.6994  -15.3802   27.0206 C   0  0  2  0  0  0  0  0  0  0  0  0
    9.7240  -14.8962   26.0533 N   0  0  0  0  0  0  0  0  0  0  0  0
   11.8094  -16.0853   26.3659 C   0  0  0  0  0  0  0  0  0  0  0  0
   13.1464  -15.8995   26.6576 O   0  0  0  0  0  0  0  0  0  0  0  0
   11.5770  -16.9461   25.4486 O   0  0  0  0  0  0  0  0  0  0  0  0
  2  1  1  6
  3  2  1  0
  4  2  1  0
  4  5  1  1
  6  8  1  0
  6  4  1  0
  7  6  2  0
  9  8  1  0
 10  9  1  0
 11 10  2  0
 13 12  1  0
 14 13  2  0
 15 13  1  0
 16 15  1  1
 16 17  1  0
 17 10  1  0
 18 19  1  0
 18 16  1  0
 20 18  2  0
M  END
$$$$
