VGN.pdb
     RDKit          3D

 20 19  0  0  1  0  0  0  0  0999 V2000
    8.5873  -12.5214   21.1234 C   0  0  0  0  0  0  0  0  0  0  0  0
    7.5037  -13.2787   20.4225 C   0  0  1  0  0  0  0  0  0  0  0  0
    7.2875  -12.6800   19.0424 C   0  0  0  0  0  0  0  0  0  0  0  0
    7.8535  -14.7352   20.2334 C   0  0  2  0  0  0  0  0  0  0  0  0
    6.8761  -15.3063   19.3181 N   0  0  0  0  0  0  0  0  0  0  0  0
    7.8546  -15.4678   21.5339 C   0  0  0  0  0  0  0  0  0  0  0  0
    6.7804  -15.6223   22.1324 O   0  0  0  0  0  0  0  0  0  0  0  0
    9.0434  -15.9917   22.1051 N   0  0  0  0  0  0  0  0  0  0  0  0
    9.0833  -16.6292   23.4029 C   0  0  0  0  0  0  0  0  0  0  0  0
    9.3773  -15.6418   24.4850 C   0  0  0  0  0  0  0  0  0  0  0  0
   10.5214  -15.1071   24.5514 O   0  0  0  0  0  0  0  0  0  0  0  0
    5.7767  -12.5453   26.0609 N   0  0  0  0  0  0  0  0  0  0  0  0
    7.1479  -12.6992   26.4100 C   0  0  0  0  0  0  0  0  0  0  0  0
    7.9888  -11.8504   26.0112 O   0  0  0  0  0  0  0  0  0  0  0  0
    7.5270  -13.8644   27.2359 C   0  0  0  0  0  0  0  0  0  0  0  0
    8.7209  -14.5633   26.6685 C   0  0  2  0  0  0  0  0  0  0  0  0
    8.3954  -15.2874   25.4474 N   0  0  0  0  0  0  0  0  0  0  0  0
    9.3558  -15.4366   27.6647 C   0  0  0  0  0  0  0  0  0  0  0  0
    9.6283  -16.7780   27.4816 O   0  0  0  0  0  0  0  0  0  0  0  0
    9.7014  -14.9716   28.8052 O   0  0  0  0  0  0  0  0  0  0  0  0
  2  1  1  6
  3  2  1  0
  4  2  1  0
  4  5  1  6
  6  8  1  0
  6  4  1  0
  7  6  2  0
  9  8  1  0
 10  9  1  0
 11 10  2  0
 13 12  1  0
 14 13  2  0
 15 13  1  0
 16 15  1  1
 16 17  1  0
 17 10  1  0
 18 19  1  0
 18 16  1  0
 20 18  2  0
M  END
$$$$
