VGN.pdb
     RDKit          3D

 20 19  0  0  1  0  0  0  0  0999 V2000
    8.2591  -15.2967   19.3361 C   0  0  0  0  0  0  0  0  0  0  0  0
    8.1428  -14.2205   20.3693 C   0  0  1  0  0  0  0  0  0  0  0  0
    6.8993  -13.3922   20.0908 C   0  0  0  0  0  0  0  0  0  0  0  0
    8.0099  -14.7796   21.7655 C   0  0  2  0  0  0  0  0  0  0  0  0
    7.7656  -13.6613   22.6649 N   0  0  0  0  0  0  0  0  0  0  0  0
    9.2357  -15.5288   22.1706 C   0  0  0  0  0  0  0  0  0  0  0  0
    9.3505  -16.7144   21.8281 O   0  0  0  0  0  0  0  0  0  0  0  0
   10.2710  -14.9284   22.9332 N   0  0  0  0  0  0  0  0  0  0  0  0
   11.4834  -15.6233   23.3067 C   0  0  0  0  0  0  0  0  0  0  0  0
   11.5103  -15.9211   24.7706 C   0  0  0  0  0  0  0  0  0  0  0  0
   12.5802  -16.3290   25.3075 O   0  0  0  0  0  0  0  0  0  0  0  0
   10.7710  -13.4041   27.1938 N   0  0  0  0  0  0  0  0  0  0  0  0
    9.5374  -13.8593   27.7383 C   0  0  0  0  0  0  0  0  0  0  0  0
    8.7223  -13.0240   28.2122 O   0  0  0  0  0  0  0  0  0  0  0  0
    9.2660  -15.3118   27.7224 C   0  0  0  0  0  0  0  0  0  0  0  0
   10.3461  -16.0555   27.0041 C   0  0  2  0  0  0  0  0  0  0  0  0
   10.3546  -15.7559   25.5788 N   0  0  0  0  0  0  0  0  0  0  0  0
   10.2613  -17.5005   27.2547 C   0  0  0  0  0  0  0  0  0  0  0  0
    9.8011  -18.4349   26.3479 O   0  0  0  0  0  0  0  0  0  0  0  0
   10.6269  -17.9837   28.3813 O   0  0  0  0  0  0  0  0  0  0  0  0
  2  1  1  6
  3  2  1  0
  4  2  1  0
  4  5  1  1
  6  8  1  0
  6  4  1  0
  7  6  2  0
  9  8  1  0
 10  9  1  0
 11 10  2  0
 13 12  1  0
 14 13  2  0
 15 13  1  0
 16 15  1  1
 16 17  1  0
 17 10  1  0
 18 19  1  0
 18 16  1  0
 20 18  2  0
M  END
$$$$
