VGN.pdb
     RDKit          3D

 20 19  0  0  1  0  0  0  0  0999 V2000
    6.0502  -18.4294   19.5451 C   0  0  0  0  0  0  0  0  0  0  0  0
    6.8016  -17.2448   20.0659 C   0  0  1  0  0  0  0  0  0  0  0  0
    8.1054  -17.7145   20.6900 C   0  0  0  0  0  0  0  0  0  0  0  0
    7.1515  -16.2634   18.9733 C   0  0  2  0  0  0  0  0  0  0  0  0
    8.0508  -16.9380   18.0485 N   0  0  0  0  0  0  0  0  0  0  0  0
    7.7874  -15.0331   19.5301 C   0  0  0  0  0  0  0  0  0  0  0  0
    9.0236  -14.9811   19.6021 O   0  0  0  0  0  0  0  0  0  0  0  0
    7.0236  -13.9242   19.9783 N   0  0  0  0  0  0  0  0  0  0  0  0
    7.6175  -12.7216   20.5200 C   0  0  0  0  0  0  0  0  0  0  0  0
    8.1385  -12.9474   21.9020 C   0  0  0  0  0  0  0  0  0  0  0  0
    8.6585  -11.9874   22.5402 O   0  0  0  0  0  0  0  0  0  0  0  0
    6.9415  -12.6911   24.9345 N   0  0  0  0  0  0  0  0  0  0  0  0
    6.6734  -14.0497   25.2629 C   0  0  0  0  0  0  0  0  0  0  0  0
    5.6634  -14.3319   25.9606 O   0  0  0  0  0  0  0  0  0  0  0  0
    7.6060  -15.0813   24.7632 C   0  0  0  0  0  0  0  0  0  0  0  0
    8.6213  -14.4896   23.8386 C   0  0  2  0  0  0  0  0  0  0  0  0
    8.0631  -14.2236   22.5198 N   0  0  0  0  0  0  0  0  0  0  0  0
    9.8270  -15.3250   23.7593 C   0  0  0  0  0  0  0  0  0  0  0  0
   10.6887  -15.5720   24.8099 O   0  0  0  0  0  0  0  0  0  0  0  0
   10.1511  -15.8894   22.6581 O   0  0  0  0  0  0  0  0  0  0  0  0
  2  1  1  6
  3  2  1  0
  4  2  1  0
  4  5  1  6
  6  8  1  0
  6  4  1  0
  7  6  2  0
  9  8  1  0
 10  9  1  0
 11 10  2  0
 13 12  1  0
 14 13  2  0
 15 13  1  0
 16 15  1  1
 16 17  1  0
 17 10  1  0
 18 19  1  0
 18 16  1  0
 20 18  2  0
M  END
$$$$
