VGN.pdb
     RDKit          3D

 20 19  0  0  1  0  0  0  0  0999 V2000
    5.2614  -12.4791   25.6436 C   0  0  0  0  0  0  0  0  0  0  0  0
    6.6793  -12.3971   26.1147 C   0  0  1  0  0  0  0  0  0  0  0  0
    6.7734  -11.3830   27.2429 C   0  0  0  0  0  0  0  0  0  0  0  0
    7.1818  -13.7163   26.6499 C   0  0  2  0  0  0  0  0  0  0  0  0
    8.4310  -13.4585   27.3515 N   0  0  0  0  0  0  0  0  0  0  0  0
    7.3841  -14.7074   25.5522 C   0  0  0  0  0  0  0  0  0  0  0  0
    8.3493  -14.5627   24.7885 O   0  0  0  0  0  0  0  0  0  0  0  0
    6.5087  -15.8069   25.3559 N   0  0  0  0  0  0  0  0  0  0  0  0
    6.6831  -16.7781   24.2983 C   0  0  0  0  0  0  0  0  0  0  0  0
    7.7434  -17.7728   24.6429 C   0  0  0  0  0  0  0  0  0  0  0  0
    7.5251  -19.0064   24.4706 O   0  0  0  0  0  0  0  0  0  0  0  0
   10.1069  -16.2152   23.9626 N   0  0  0  0  0  0  0  0  0  0  0  0
   11.2749  -17.0278   23.9933 C   0  0  0  0  0  0  0  0  0  0  0  0
   12.2610  -16.7248   23.2704 O   0  0  0  0  0  0  0  0  0  0  0  0
   11.2768  -18.2065   24.8844 C   0  0  0  0  0  0  0  0  0  0  0  0
    9.9943  -18.3099   25.6463 C   0  0  2  0  0  0  0  0  0  0  0  0
    8.9992  -17.3624   25.1633 N   0  0  0  0  0  0  0  0  0  0  0  0
   10.2161  -18.1744   27.0922 C   0  0  0  0  0  0  0  0  0  0  0  0
   10.9648  -19.0424   27.8624 O   0  0  0  0  0  0  0  0  0  0  0  0
    9.6990  -17.1979   27.7367 O   0  0  0  0  0  0  0  0  0  0  0  0
  2  1  1  1
  3  2  1  0
  4  2  1  0
  4  5  1  6
  6  8  1  0
  6  4  1  0
  7  6  2  0
  9  8  1  0
 10  9  1  0
 11 10  2  0
 13 12  1  0
 14 13  2  0
 15 13  1  0
 16 15  1  6
 16 17  1  0
 17 10  1  0
 18 19  1  0
 18 16  1  0
 20 18  2  0
M  END
$$$$
