VGN.pdb
     RDKit          3D

 20 19  0  0  1  0  0  0  0  0999 V2000
    7.8799  -12.2079   20.4182 C   0  0  0  0  0  0  0  0  0  0  0  0
    7.7238  -13.6420   20.0205 C   0  0  1  0  0  0  0  0  0  0  0  0
    8.5340  -13.9027   18.7613 C   0  0  0  0  0  0  0  0  0  0  0  0
    8.2250  -14.5887   21.0844 C   0  0  2  0  0  0  0  0  0  0  0  0
    8.0837  -15.9429   20.5691 N   0  0  0  0  0  0  0  0  0  0  0  0
    7.4673  -14.4243   22.3599 C   0  0  0  0  0  0  0  0  0  0  0  0
    6.3699  -14.9877   22.4786 O   0  0  0  0  0  0  0  0  0  0  0  0
    7.9624  -13.6455   23.4380 N   0  0  0  0  0  0  0  0  0  0  0  0
    7.2159  -13.4140   24.6551 C   0  0  0  0  0  0  0  0  0  0  0  0
    7.3695  -14.5514   25.6117 C   0  0  0  0  0  0  0  0  0  0  0  0
    7.3411  -14.3312   26.8568 O   0  0  0  0  0  0  0  0  0  0  0  0
    7.4074  -17.7463   23.4994 N   0  0  0  0  0  0  0  0  0  0  0  0
    6.6534  -18.4787   24.4589 C   0  0  0  0  0  0  0  0  0  0  0  0
    5.9217  -19.4306   24.0779 O   0  0  0  0  0  0  0  0  0  0  0  0
    6.7652  -18.0826   25.8781 C   0  0  0  0  0  0  0  0  0  0  0  0
    7.7802  -16.9996   26.0586 C   0  0  2  0  0  0  0  0  0  0  0  0
    7.5481  -15.8831   25.1526 N   0  0  0  0  0  0  0  0  0  0  0  0
    9.1485  -17.5205   25.9389 C   0  0  0  0  0  0  0  0  0  0  0  0
    9.7174  -18.4517   26.7853 O   0  0  0  0  0  0  0  0  0  0  0  0
    9.9149  -17.1142   24.9987 O   0  0  0  0  0  0  0  0  0  0  0  0
  2  1  1  1
  3  2  1  0
  4  2  1  0
  4  5  1  6
  6  8  1  0
  6  4  1  0
  7  6  2  0
  9  8  1  0
 10  9  1  0
 11 10  2  0
 13 12  1  0
 14 13  2  0
 15 13  1  0
 16 15  1  6
 16 17  1  0
 17 10  1  0
 18 19  1  0
 18 16  1  0
 20 18  2  0
M  END
$$$$
