VGN.pdb
     RDKit          3D

 20 19  0  0  1  0  0  0  0  0999 V2000
    7.0108  -13.3752   18.9373 C   0  0  0  0  0  0  0  0  0  0  0  0
    8.2153  -13.5680   19.8039 C   0  0  1  0  0  0  0  0  0  0  0  0
    8.0401  -12.7736   21.0877 C   0  0  0  0  0  0  0  0  0  0  0  0
    8.4164  -15.0135   20.1909 C   0  0  2  0  0  0  0  0  0  0  0  0
    7.2092  -15.4577   20.8724 N   0  0  0  0  0  0  0  0  0  0  0  0
    9.6130  -15.1807   21.0674 C   0  0  0  0  0  0  0  0  0  0  0  0
   10.7405  -15.0971   20.5597 O   0  0  0  0  0  0  0  0  0  0  0  0
    9.5010  -15.4316   22.4596 N   0  0  0  0  0  0  0  0  0  0  0  0
   10.6431  -15.5123   23.3435 C   0  0  0  0  0  0  0  0  0  0  0  0
   10.2279  -15.8471   24.7392 C   0  0  0  0  0  0  0  0  0  0  0  0
    9.0039  -16.0239   25.0034 O   0  0  0  0  0  0  0  0  0  0  0  0
   11.2401  -13.8941   28.3527 N   0  0  0  0  0  0  0  0  0  0  0  0
    9.8704  -14.2390   28.1775 C   0  0  0  0  0  0  0  0  0  0  0  0
    8.9754  -13.4344   28.5492 O   0  0  0  0  0  0  0  0  0  0  0  0
    9.5572  -15.5440   27.5591 C   0  0  0  0  0  0  0  0  0  0  0  0
   10.8043  -16.2655   27.1588 C   0  0  2  0  0  0  0  0  0  0  0  0
   11.1822  -15.9720   25.7832 N   0  0  0  0  0  0  0  0  0  0  0  0
   10.6872  -17.7110   27.3931 C   0  0  0  0  0  0  0  0  0  0  0  0
   10.4886  -18.2989   28.6268 O   0  0  0  0  0  0  0  0  0  0  0  0
   10.7692  -18.5328   26.4162 O   0  0  0  0  0  0  0  0  0  0  0  0
  2  1  1  6
  3  2  1  0
  4  2  1  0
  4  5  1  1
  6  8  1  0
  6  4  1  0
  7  6  2  0
  9  8  1  0
 10  9  1  0
 11 10  2  0
 13 12  1  0
 14 13  2  0
 15 13  1  0
 16 15  1  6
 16 17  1  0
 17 10  1  0
 18 19  1  0
 18 16  1  0
 20 18  2  0
M  END
$$$$
