VGN.pdb
     RDKit          3D

 20 19  0  0  1  0  0  0  0  0999 V2000
    8.3871  -12.5833   18.9694 C   0  0  0  0  0  0  0  0  0  0  0  0
    8.5703  -13.3711   20.2283 C   0  0  1  0  0  0  0  0  0  0  0  0
    7.4607  -13.0180   21.2051 C   0  0  0  0  0  0  0  0  0  0  0  0
    8.5026  -14.8599   19.9867 C   0  0  2  0  0  0  0  0  0  0  0  0
    7.3896  -15.1079   19.0818 N   0  0  0  0  0  0  0  0  0  0  0  0
    8.3257  -15.6111   21.2644 C   0  0  0  0  0  0  0  0  0  0  0  0
    7.2146  -15.6008   21.8133 O   0  0  0  0  0  0  0  0  0  0  0  0
    9.3864  -16.3346   21.8689 N   0  0  0  0  0  0  0  0  0  0  0  0
    9.2608  -17.0049   23.1445 C   0  0  0  0  0  0  0  0  0  0  0  0
   10.0122  -16.2822   24.2147 C   0  0  0  0  0  0  0  0  0  0  0  0
   10.4934  -15.1368   23.9782 O   0  0  0  0  0  0  0  0  0  0  0  0
    8.5325  -12.9082   27.8501 N   0  0  0  0  0  0  0  0  0  0  0  0
    9.4843  -13.9567   27.7080 C   0  0  0  0  0  0  0  0  0  0  0  0
   10.5738  -13.8953   28.3372 O   0  0  0  0  0  0  0  0  0  0  0  0
    9.1457  -15.0849   26.8159 C   0  0  0  0  0  0  0  0  0  0  0  0
   10.2819  -16.0514   26.7119 C   0  0  2  0  0  0  0  0  0  0  0  0
   10.2003  -16.8553   25.5001 N   0  0  0  0  0  0  0  0  0  0  0  0
   10.3855  -16.8899   27.9137 C   0  0  0  0  0  0  0  0  0  0  0  0
   11.3446  -16.7479   28.8971 O   0  0  0  0  0  0  0  0  0  0  0  0
    9.5509  -17.8385   28.1139 O   0  0  0  0  0  0  0  0  0  0  0  0
  2  1  1  6
  3  2  1  0
  4  2  1  0
  4  5  1  6
  6  8  1  0
  6  4  1  0
  7  6  2  0
  9  8  1  0
 10  9  1  0
 11 10  2  0
 13 12  1  0
 14 13  2  0
 15 13  1  0
 16 15  1  1
 16 17  1  0
 17 10  1  0
 18 19  1  0
 18 16  1  0
 20 18  2  0
M  END
$$$$
