VGN.pdb
     RDKit          3D

 20 19  0  0  1  0  0  0  0  0999 V2000
    7.2721  -13.0400   17.9603 C   0  0  0  0  0  0  0  0  0  0  0  0
    8.3452  -13.0438   19.0032 C   0  0  1  0  0  0  0  0  0  0  0  0
    7.7068  -12.9302   20.3778 C   0  0  0  0  0  0  0  0  0  0  0  0
    9.1561  -14.3172   18.9854 C   0  0  2  0  0  0  0  0  0  0  0  0
    8.2409  -15.4240   19.2236 N   0  0  0  0  0  0  0  0  0  0  0  0
   10.2354  -14.2894   20.0160 C   0  0  0  0  0  0  0  0  0  0  0  0
   11.2026  -13.5332   19.8465 O   0  0  0  0  0  0  0  0  0  0  0  0
   10.1894  -15.0990   21.1807 N   0  0  0  0  0  0  0  0  0  0  0  0
   11.2167  -15.0798   22.1987 C   0  0  0  0  0  0  0  0  0  0  0  0
   12.5093  -15.6177   21.6770 C   0  0  0  0  0  0  0  0  0  0  0  0
   12.5076  -16.6401   20.9326 O   0  0  0  0  0  0  0  0  0  0  0  0
   14.5238  -13.3455   19.2888 N   0  0  0  0  0  0  0  0  0  0  0  0
   15.3639  -14.4713   19.5176 C   0  0  0  0  0  0  0  0  0  0  0  0
   15.6265  -15.2534   18.5657 O   0  0  0  0  0  0  0  0  0  0  0  0
   15.8968  -14.6737   20.8809 C   0  0  0  0  0  0  0  0  0  0  0  0
   15.0316  -15.6066   21.6663 C   0  0  2  0  0  0  0  0  0  0  0  0
   13.7483  -15.0039   21.9999 N   0  0  0  0  0  0  0  0  0  0  0  0
   15.7250  -16.1040   22.8620 C   0  0  0  0  0  0  0  0  0  0  0  0
   15.2714  -15.9571   24.1580 O   0  0  0  0  0  0  0  0  0  0  0  0
   16.8373  -16.7262   22.7522 O   0  0  0  0  0  0  0  0  0  0  0  0
  2  1  1  6
  3  2  1  0
  4  2  1  0
  4  5  1  1
  6  8  1  0
  6  4  1  0
  7  6  2  0
  9  8  1  0
 10  9  1  0
 11 10  2  0
 13 12  1  0
 14 13  2  0
 15 13  1  0
 16 15  1  1
 16 17  1  0
 17 10  1  0
 18 19  1  0
 18 16  1  0
 20 18  2  0
M  END
$$$$
