VGN.pdb
     RDKit          3D

 20 19  0  0  1  0  0  0  0  0999 V2000
    7.4277  -11.1985   25.5778 C   0  0  0  0  0  0  0  0  0  0  0  0
    7.5403  -12.6900   25.6210 C   0  0  1  0  0  0  0  0  0  0  0  0
    8.0303  -13.1148   26.9955 C   0  0  0  0  0  0  0  0  0  0  0  0
    6.2139  -13.3711   25.3838 C   0  0  2  0  0  0  0  0  0  0  0  0
    5.3098  -12.9538   26.4457 N   0  0  0  0  0  0  0  0  0  0  0  0
    6.3607  -14.8564   25.3645 C   0  0  0  0  0  0  0  0  0  0  0  0
    6.2560  -15.4799   26.4304 O   0  0  0  0  0  0  0  0  0  0  0  0
    6.6156  -15.5752   24.1677 N   0  0  0  0  0  0  0  0  0  0  0  0
    6.6359  -17.0200   24.1016 C   0  0  0  0  0  0  0  0  0  0  0  0
    8.0033  -17.5575   24.3730 C   0  0  0  0  0  0  0  0  0  0  0  0
    8.2168  -18.8009   24.2846 O   0  0  0  0  0  0  0  0  0  0  0  0
   10.1455  -17.1599   22.3149 N   0  0  0  0  0  0  0  0  0  0  0  0
   11.0244  -16.2640   22.9861 C   0  0  0  0  0  0  0  0  0  0  0  0
   11.3778  -15.1977   22.4162 O   0  0  0  0  0  0  0  0  0  0  0  0
   11.4888  -16.6317   24.3399 C   0  0  0  0  0  0  0  0  0  0  0  0
   10.3745  -17.2034   25.1567 C   0  0  2  0  0  0  0  0  0  0  0  0
    9.0763  -16.6990   24.7305 N   0  0  0  0  0  0  0  0  0  0  0  0
   10.5959  -16.9878   26.5928 C   0  0  0  0  0  0  0  0  0  0  0  0
    9.7600  -16.2667   27.4226 O   0  0  0  0  0  0  0  0  0  0  0  0
   11.6253  -17.4819   27.1695 O   0  0  0  0  0  0  0  0  0  0  0  0
  2  1  1  1
  3  2  1  0
  4  2  1  0
  4  5  1  1
  6  8  1  0
  6  4  1  0
  7  6  2  0
  9  8  1  0
 10  9  1  0
 11 10  2  0
 13 12  1  0
 14 13  2  0
 15 13  1  0
 16 15  1  6
 16 17  1  0
 17 10  1  0
 18 19  1  0
 18 16  1  0
 20 18  2  0
M  END
$$$$
