VGN.pdb
     RDKit          3D

 20 19  0  0  1  0  0  0  0  0999 V2000
    8.1505  -11.9833   19.5162 C   0  0  0  0  0  0  0  0  0  0  0  0
    8.5140  -13.4180   19.7362 C   0  0  1  0  0  0  0  0  0  0  0  0
    7.2653  -14.1978   20.1141 C   0  0  0  0  0  0  0  0  0  0  0  0
    9.0891  -14.0593   18.4963 C   0  0  2  0  0  0  0  0  0  0  0  0
    8.0982  -13.9345   17.4372 N   0  0  0  0  0  0  0  0  0  0  0  0
    9.4340  -15.4919   18.7346 C   0  0  0  0  0  0  0  0  0  0  0  0
    8.8965  -16.3596   18.0317 O   0  0  0  0  0  0  0  0  0  0  0  0
   10.3553  -15.8907   19.7377 N   0  0  0  0  0  0  0  0  0  0  0  0
   11.1625  -17.0870   19.6401 C   0  0  0  0  0  0  0  0  0  0  0  0
   11.9734  -17.2982   20.8771 C   0  0  0  0  0  0  0  0  0  0  0  0
   13.2360  -17.2681   20.8113 O   0  0  0  0  0  0  0  0  0  0  0  0
    9.1299  -16.0983   25.0326 N   0  0  0  0  0  0  0  0  0  0  0  0
   10.4660  -16.1168   24.5424 C   0  0  0  0  0  0  0  0  0  0  0  0
   10.9812  -15.0539   24.1048 O   0  0  0  0  0  0  0  0  0  0  0  0
   11.1973  -17.4006   24.5696 C   0  0  0  0  0  0  0  0  0  0  0  0
   12.1002  -17.5333   23.3852 C   0  0  2  0  0  0  0  0  0  0  0  0
   11.3554  -17.5338   22.1335 N   0  0  0  0  0  0  0  0  0  0  0  0
   12.9681  -18.7128   23.5009 C   0  0  0  0  0  0  0  0  0  0  0  0
   14.3035  -18.6810   23.8516 O   0  0  0  0  0  0  0  0  0  0  0  0
   12.5039  -19.8821   23.2694 O   0  0  0  0  0  0  0  0  0  0  0  0
  2  1  1  6
  3  2  1  0
  4  2  1  0
  4  5  1  6
  6  8  1  0
  6  4  1  0
  7  6  2  0
  9  8  1  0
 10  9  1  0
 11 10  2  0
 13 12  1  0
 14 13  2  0
 15 13  1  0
 16 15  1  1
 16 17  1  0
 17 10  1  0
 18 19  1  0
 18 16  1  0
 20 18  2  0
M  END
$$$$
