VGN.pdb
     RDKit          3D

 20 19  0  0  1  0  0  0  0  0999 V2000
    8.2641  -12.1252   20.0614 C   0  0  0  0  0  0  0  0  0  0  0  0
    7.5427  -13.3780   19.6754 C   0  0  1  0  0  0  0  0  0  0  0  0
    7.2866  -13.3662   18.1773 C   0  0  0  0  0  0  0  0  0  0  0  0
    8.3442  -14.6190   19.9870 C   0  0  2  0  0  0  0  0  0  0  0  0
    7.5341  -15.7699   19.6150 N   0  0  0  0  0  0  0  0  0  0  0  0
    8.7179  -14.6772   21.4309 C   0  0  0  0  0  0  0  0  0  0  0  0
    9.7142  -14.0479   21.8149 O   0  0  0  0  0  0  0  0  0  0  0  0
    7.9707  -15.4279   22.3754 N   0  0  0  0  0  0  0  0  0  0  0  0
    8.2892  -15.4661   23.7858 C   0  0  0  0  0  0  0  0  0  0  0  0
    9.2161  -16.5941   24.1035 C   0  0  0  0  0  0  0  0  0  0  0  0
    8.7436  -17.7312   24.3917 O   0  0  0  0  0  0  0  0  0  0  0  0
   14.2737  -15.5555   23.4257 N   0  0  0  0  0  0  0  0  0  0  0  0
   13.0351  -16.0928   22.9753 C   0  0  0  0  0  0  0  0  0  0  0  0
   12.2681  -15.3808   22.2742 O   0  0  0  0  0  0  0  0  0  0  0  0
   12.7012  -17.4808   23.3567 C   0  0  0  0  0  0  0  0  0  0  0  0
   11.5541  -17.5167   24.3151 C   0  0  2  0  0  0  0  0  0  0  0  0
   10.6250  -16.4180   24.0896 N   0  0  0  0  0  0  0  0  0  0  0  0
   12.0190  -17.5574   25.7080 C   0  0  0  0  0  0  0  0  0  0  0  0
   12.8718  -18.5101   26.2298 O   0  0  0  0  0  0  0  0  0  0  0  0
   11.6351  -16.6683   26.5438 O   0  0  0  0  0  0  0  0  0  0  0  0
  2  1  1  6
  3  2  1  0
  4  2  1  0
  4  5  1  1
  6  8  1  0
  6  4  1  0
  7  6  2  0
  9  8  1  0
 10  9  1  0
 11 10  2  0
 13 12  1  0
 14 13  2  0
 15 13  1  0
 16 15  1  6
 16 17  1  0
 17 10  1  0
 18 19  1  0
 18 16  1  0
 20 18  2  0
M  END
$$$$
