VGN.pdb
     RDKit          3D

 20 19  0  0  1  0  0  0  0  0999 V2000
    7.1414  -13.9523   20.7630 C   0  0  0  0  0  0  0  0  0  0  0  0
    8.0655  -13.7150   19.6103 C   0  0  1  0  0  0  0  0  0  0  0  0
    7.8555  -12.3050   19.0832 C   0  0  0  0  0  0  0  0  0  0  0  0
    9.5174  -13.8378   20.0060 C   0  0  2  0  0  0  0  0  0  0  0  0
   10.3184  -13.6217   18.8099 N   0  0  0  0  0  0  0  0  0  0  0  0
    9.8070  -15.1742   20.6047 C   0  0  0  0  0  0  0  0  0  0  0  0
   10.0747  -16.1203   19.8503 O   0  0  0  0  0  0  0  0  0  0  0  0
    9.7857  -15.3950   22.0064 N   0  0  0  0  0  0  0  0  0  0  0  0
   10.1149  -16.6666   22.6121 C   0  0  0  0  0  0  0  0  0  0  0  0
   11.5937  -16.8626   22.6954 C   0  0  0  0  0  0  0  0  0  0  0  0
   12.0576  -17.9691   23.0950 O   0  0  0  0  0  0  0  0  0  0  0  0
   13.4302  -14.2785   19.4354 N   0  0  0  0  0  0  0  0  0  0  0  0
   14.1675  -15.3231   20.0604 C   0  0  0  0  0  0  0  0  0  0  0  0
   14.3832  -16.3929   19.4313 O   0  0  0  0  0  0  0  0  0  0  0  0
   14.6526  -15.1015   21.4385 C   0  0  0  0  0  0  0  0  0  0  0  0
   13.9425  -15.9884   22.4105 C   0  0  2  0  0  0  0  0  0  0  0  0
   12.4969  -15.8282   22.3341 N   0  0  0  0  0  0  0  0  0  0  0  0
   14.4389  -15.7915   23.7791 C   0  0  0  0  0  0  0  0  0  0  0  0
   13.6531  -15.4619   24.8658 O   0  0  0  0  0  0  0  0  0  0  0  0
   15.6845  -15.9216   24.0398 O   0  0  0  0  0  0  0  0  0  0  0  0
  2  1  1  1
  3  2  1  0
  4  2  1  0
  4  5  1  6
  6  8  1  0
  6  4  1  0
  7  6  2  0
  9  8  1  0
 10  9  1  0
 11 10  2  0
 13 12  1  0
 14 13  2  0
 15 13  1  0
 16 15  1  6
 16 17  1  0
 17 10  1  0
 18 19  1  0
 18 16  1  0
 20 18  2  0
M  END
$$$$
