VGN.pdb
     RDKit          3D

 20 19  0  0  1  0  0  0  0  0999 V2000
    9.1247  -12.9015   18.7864 C   0  0  0  0  0  0  0  0  0  0  0  0
    8.2712  -13.0953   20.0001 C   0  0  1  0  0  0  0  0  0  0  0  0
    6.8080  -13.0845   19.5893 C   0  0  0  0  0  0  0  0  0  0  0  0
    8.5390  -14.4147   20.6833 C   0  0  2  0  0  0  0  0  0  0  0  0
    8.3070  -15.4697   19.7075 N   0  0  0  0  0  0  0  0  0  0  0  0
    7.6642  -14.5957   21.8792 C   0  0  0  0  0  0  0  0  0  0  0  0
    6.6729  -15.3337   21.7866 O   0  0  0  0  0  0  0  0  0  0  0  0
    7.9309  -13.9515   23.1152 N   0  0  0  0  0  0  0  0  0  0  0  0
    7.0752  -14.0785   24.2744 C   0  0  0  0  0  0  0  0  0  0  0  0
    7.4130  -15.2982   25.0686 C   0  0  0  0  0  0  0  0  0  0  0  0
    6.7831  -15.5444   26.1372 O   0  0  0  0  0  0  0  0  0  0  0  0
    6.2344  -17.6986   24.8385 N   0  0  0  0  0  0  0  0  0  0  0  0
    7.0790  -18.8385   24.7245 C   0  0  0  0  0  0  0  0  0  0  0  0
    6.5660  -19.9769   24.5588 O   0  0  0  0  0  0  0  0  0  0  0  0
    8.5396  -18.6308   24.8075 C   0  0  0  0  0  0  0  0  0  0  0  0
    8.8635  -17.3244   25.4588 C   0  0  2  0  0  0  0  0  0  0  0  0
    8.4320  -16.1934   24.6489 N   0  0  0  0  0  0  0  0  0  0  0  0
   10.2891  -17.2341   25.8018 C   0  0  0  0  0  0  0  0  0  0  0  0
   11.2047  -16.4167   25.1688 O   0  0  0  0  0  0  0  0  0  0  0  0
   10.7723  -17.9450   26.7491 O   0  0  0  0  0  0  0  0  0  0  0  0
  2  1  1  6
  3  2  1  0
  4  2  1  0
  4  5  1  6
  6  8  1  0
  6  4  1  0
  7  6  2  0
  9  8  1  0
 10  9  1  0
 11 10  2  0
 13 12  1  0
 14 13  2  0
 15 13  1  0
 16 15  1  6
 16 17  1  0
 17 10  1  0
 18 19  1  0
 18 16  1  0
 20 18  2  0
M  END
$$$$
