VGN.pdb
     RDKit          3D

 20 19  0  0  1  0  0  0  0  0999 V2000
    8.4199  -13.6117   18.5884 C   0  0  0  0  0  0  0  0  0  0  0  0
    8.3222  -13.4237   20.0697 C   0  0  1  0  0  0  0  0  0  0  0  0
    7.1520  -12.5051   20.3809 C   0  0  0  0  0  0  0  0  0  0  0  0
    8.0812  -14.7246   20.7970 C   0  0  2  0  0  0  0  0  0  0  0  0
    6.9601  -15.3892   20.1486 N   0  0  0  0  0  0  0  0  0  0  0  0
    7.7972  -14.4944   22.2442 C   0  0  0  0  0  0  0  0  0  0  0  0
    6.6178  -14.4688   22.6238 O   0  0  0  0  0  0  0  0  0  0  0  0
    8.8321  -14.3045   23.1966 N   0  0  0  0  0  0  0  0  0  0  0  0
    8.5807  -14.0593   24.5998 C   0  0  0  0  0  0  0  0  0  0  0  0
    8.6142  -15.3281   25.3880 C   0  0  0  0  0  0  0  0  0  0  0  0
    8.4735  -15.2893   26.6442 O   0  0  0  0  0  0  0  0  0  0  0  0
    5.5108  -17.8875   25.2711 N   0  0  0  0  0  0  0  0  0  0  0  0
    6.5392  -18.1221   24.3156 C   0  0  0  0  0  0  0  0  0  0  0  0
    6.3753  -17.7499   23.1234 O   0  0  0  0  0  0  0  0  0  0  0  0
    7.7692  -18.8013   24.7728 C   0  0  0  0  0  0  0  0  0  0  0  0
    8.6850  -17.8480   25.4718 C   0  0  2  0  0  0  0  0  0  0  0  0
    8.8020  -16.5853   24.7553 N   0  0  0  0  0  0  0  0  0  0  0  0
    9.9997  -18.4532   25.7236 C   0  0  0  0  0  0  0  0  0  0  0  0
   10.2189  -19.5743   26.4996 O   0  0  0  0  0  0  0  0  0  0  0  0
   11.0549  -17.9431   25.2111 O   0  0  0  0  0  0  0  0  0  0  0  0
  2  1  1  6
  3  2  1  0
  4  2  1  0
  4  5  1  6
  6  8  1  0
  6  4  1  0
  7  6  2  0
  9  8  1  0
 10  9  1  0
 11 10  2  0
 13 12  1  0
 14 13  2  0
 15 13  1  0
 16 15  1  6
 16 17  1  0
 17 10  1  0
 18 19  1  0
 18 16  1  0
 20 18  2  0
M  END
$$$$
