DID.pdb
     RDKit          3D

 25 24  0  0  1  0  0  0  0  0999 V2000
   21.1641  -14.1930  -16.3952 N   0  0  0  0  0  0  0  0  0  0  0  0
   21.3247  -12.9516  -17.1204 C   0  0  1  0  0  0  0  0  0  0  0  0
   19.9266  -12.5211  -17.5647 C   0  0  0  0  0  0  0  0  0  0  0  0
   19.3860  -13.5175  -18.5237 C   0  0  0  0  0  0  0  0  0  0  0  0
   18.4042  -14.2654  -18.2818 O   0  0  0  0  0  0  0  0  0  0  0  0
   21.9040  -11.8933  -16.2531 C   0  0  0  0  0  0  0  0  0  0  0  0
   21.4808  -11.7155  -15.0619 O   0  0  0  0  0  0  0  0  0  0  0  0
   19.9905  -13.6367  -19.7559 O   0  0  0  0  0  0  0  0  0  0  0  0
   27.1030  -11.5053  -15.5240 C   0  0  0  0  0  0  0  0  0  0  0  0
   25.5795  -11.5131  -15.4226 C   0  0  0  0  0  0  0  0  0  0  0  0
   25.0577  -10.1992  -15.8480 C   0  0  2  0  0  0  0  0  0  0  0  0
   25.6242   -9.1355  -14.8974 C   0  0  0  0  0  0  0  0  0  0  0  0
   23.5790  -10.0396  -15.8468 C   0  0  2  0  0  0  0  0  0  0  0  0
   22.9446  -11.0310  -16.6890 N   0  0  0  0  0  0  0  0  0  0  0  0
   23.0626   -8.7261  -16.1635 C   0  0  0  0  0  0  0  0  0  0  0  0
   23.1609   -8.1511  -17.2905 O   0  0  0  0  0  0  0  0  0  0  0  0
   22.3860   -7.9945  -15.1551 N   0  0  0  0  0  0  0  0  0  0  0  0
   21.9092   -6.6277  -15.4056 C   0  0  1  0  0  0  0  0  0  0  0  0
   20.4204   -6.6030  -15.4794 C   0  0  0  0  0  0  0  0  0  0  0  0
   19.7912   -5.2887  -15.5842 C   0  0  0  0  0  0  0  0  0  0  0  0
   18.9023   -4.9955  -14.7102 O   0  0  0  0  0  0  0  0  0  0  0  0
   22.3969   -5.7371  -14.3185 C   0  0  0  0  0  0  0  0  0  0  0  0
   22.7544   -6.1838  -13.1938 O   0  0  0  0  0  0  0  0  0  0  0  0
   20.0672   -4.3335  -16.5443 O   0  0  0  0  0  0  0  0  0  0  0  0
   22.4719   -4.3835  -14.5156 O   0  0  0  0  0  0  0  0  0  0  0  0
  2  1  1  1
  3  2  1  0
  3  4  1  0
  4  5  2  0
  6  2  1  0
  6  7  2  0
  8  4  1  0
  9 10  1  0
 10 11  1  0
 11 13  1  0
 11 12  1  1
 13 14  1  6
 14  6  1  0
 15 13  1  0
 15 16  2  0
 17 18  1  0
 17 15  1  0
 18 19  1  1
 19 20  1  0
 20 24  1  0
 21 20  2  0
 22 18  1  0
 23 22  2  0
 25 22  1  0
M  END
$$$$
