DID.pdb
     RDKit          3D

 25 24  0  0  1  0  0  0  0  0999 V2000
   19.5637  -13.0909  -18.4826 N   0  0  0  0  0  0  0  0  0  0  0  0
   20.3144  -11.8691  -18.6738 C   0  0  1  0  0  0  0  0  0  0  0  0
   19.5993  -11.0847  -19.7741 C   0  0  0  0  0  0  0  0  0  0  0  0
   19.7134  -11.8218  -21.0580 C   0  0  0  0  0  0  0  0  0  0  0  0
   20.7848  -12.3185  -21.4908 O   0  0  0  0  0  0  0  0  0  0  0  0
   20.3361  -11.0517  -17.4331 C   0  0  0  0  0  0  0  0  0  0  0  0
   19.3036  -10.9610  -16.6879 O   0  0  0  0  0  0  0  0  0  0  0  0
   18.5818  -11.9759  -21.8285 O   0  0  0  0  0  0  0  0  0  0  0  0
   23.9170  -11.6552  -13.7138 C   0  0  0  0  0  0  0  0  0  0  0  0
   22.6413  -11.3634  -14.5005 C   0  0  0  0  0  0  0  0  0  0  0  0
   22.6400   -9.9466  -14.9156 C   0  0  2  0  0  0  0  0  0  0  0  0
   22.5478   -9.0834  -13.6498 C   0  0  0  0  0  0  0  0  0  0  0  0
   21.5352   -9.5189  -15.8146 C   0  0  2  0  0  0  0  0  0  0  0  0
   21.4861  -10.3348  -17.0089 N   0  0  0  0  0  0  0  0  0  0  0  0
   21.4910   -8.1190  -16.1763 C   0  0  0  0  0  0  0  0  0  0  0  0
   22.4079   -7.4900  -16.7880 O   0  0  0  0  0  0  0  0  0  0  0  0
   20.3442   -7.3589  -15.8346 N   0  0  0  0  0  0  0  0  0  0  0  0
   20.2173   -5.9557  -16.2506 C   0  0  1  0  0  0  0  0  0  0  0  0
   18.9844   -5.7660  -17.0670 C   0  0  0  0  0  0  0  0  0  0  0  0
   18.6491   -4.3935  -17.4383 C   0  0  0  0  0  0  0  0  0  0  0  0
   19.5859   -3.6788  -17.9399 O   0  0  0  0  0  0  0  0  0  0  0  0
   20.1848   -5.0920  -15.0399 C   0  0  0  0  0  0  0  0  0  0  0  0
   19.8661   -5.5395  -13.9038 O   0  0  0  0  0  0  0  0  0  0  0  0
   17.4114   -3.7953  -17.2942 O   0  0  0  0  0  0  0  0  0  0  0  0
   20.5068   -3.7636  -15.1299 O   0  0  0  0  0  0  0  0  0  0  0  0
  2  1  1  1
  3  2  1  0
  3  4  1  0
  4  5  2  0
  6  2  1  0
  6  7  2  0
  8  4  1  0
  9 10  1  0
 10 11  1  0
 11 13  1  0
 11 12  1  1
 13 14  1  6
 14  6  1  0
 15 13  1  0
 15 16  2  0
 17 18  1  0
 17 15  1  0
 18 19  1  1
 19 20  1  0
 20 24  1  0
 21 20  2  0
 22 18  1  0
 23 22  2  0
 25 22  1  0
M  END
$$$$
