DID.pdb
     RDKit          3D

 25 24  0  0  1  0  0  0  0  0999 V2000
   15.7995  -10.6646  -13.7739 N   0  0  0  0  0  0  0  0  0  0  0  0
   16.4562   -9.7360  -14.6679 C   0  0  1  0  0  0  0  0  0  0  0  0
   15.5302   -8.5266  -14.7989 C   0  0  0  0  0  0  0  0  0  0  0  0
   14.2845   -8.9334  -15.4971 C   0  0  0  0  0  0  0  0  0  0  0  0
   14.2487   -9.3610  -16.6793 O   0  0  0  0  0  0  0  0  0  0  0  0
   17.7609   -9.2887  -14.1151 C   0  0  0  0  0  0  0  0  0  0  0  0
   17.9070   -9.0785  -12.8644 O   0  0  0  0  0  0  0  0  0  0  0  0
   13.0906   -8.8401  -14.8161 O   0  0  0  0  0  0  0  0  0  0  0  0
   23.4179  -10.7224  -14.2044 C   0  0  0  0  0  0  0  0  0  0  0  0
   22.5722   -9.4538  -14.1216 C   0  0  0  0  0  0  0  0  0  0  0  0
   21.1989   -9.7554  -14.5717 C   0  0  2  0  0  0  0  0  0  0  0  0
   21.2571  -10.1049  -16.0652 C   0  0  0  0  0  0  0  0  0  0  0  0
   20.1959   -8.6680  -14.4187 C   0  0  2  0  0  0  0  0  0  0  0  0
   18.9035   -9.0718  -14.9298 N   0  0  0  0  0  0  0  0  0  0  0  0
   20.5500   -7.3715  -14.9537 C   0  0  0  0  0  0  0  0  0  0  0  0
   20.5880   -7.0718  -16.1863 O   0  0  0  0  0  0  0  0  0  0  0  0
   20.8874   -6.3284  -14.0550 N   0  0  0  0  0  0  0  0  0  0  0  0
   21.2048   -4.9811  -14.5473 C   0  0  1  0  0  0  0  0  0  0  0  0
   20.0461   -4.0664  -14.3393 C   0  0  0  0  0  0  0  0  0  0  0  0
   20.2425   -2.6661  -14.7064 C   0  0  0  0  0  0  0  0  0  0  0  0
   19.6759   -1.7845  -13.9704 O   0  0  0  0  0  0  0  0  0  0  0  0
   22.4087   -4.4756  -13.8347 C   0  0  0  0  0  0  0  0  0  0  0  0
   22.6137   -4.7106  -12.6119 O   0  0  0  0  0  0  0  0  0  0  0  0
   20.9832   -2.2068  -15.7792 O   0  0  0  0  0  0  0  0  0  0  0  0
   23.3433   -3.7282  -14.5015 O   0  0  0  0  0  0  0  0  0  0  0  0
  2  1  1  1
  3  2  1  0
  3  4  1  0
  4  5  2  0
  6  2  1  0
  6  7  2  0
  8  4  1  0
  9 10  1  0
 10 11  1  0
 11 13  1  0
 11 12  1  6
 13 14  1  6
 14  6  1  0
 15 13  1  0
 15 16  2  0
 17 18  1  0
 17 15  1  0
 18 19  1  1
 19 20  1  0
 20 24  1  0
 21 20  2  0
 22 18  1  0
 23 22  2  0
 25 22  1  0
M  END
$$$$
