DID.pdb
     RDKit          3D

 25 24  0  0  1  0  0  0  0  0999 V2000
   18.6274  -12.1884  -17.8462 N   0  0  0  0  0  0  0  0  0  0  0  0
   17.7208  -11.2263  -17.2586 C   0  0  1  0  0  0  0  0  0  0  0  0
   17.5678  -11.6121  -15.7872 C   0  0  0  0  0  0  0  0  0  0  0  0
   16.8004  -12.8794  -15.6877 C   0  0  0  0  0  0  0  0  0  0  0  0
   16.1846  -13.4059  -16.6497 O   0  0  0  0  0  0  0  0  0  0  0  0
   18.2707   -9.8484  -17.3427 C   0  0  0  0  0  0  0  0  0  0  0  0
   19.5306   -9.6444  -17.3707 O   0  0  0  0  0  0  0  0  0  0  0  0
   16.7547  -13.5246  -14.4713 O   0  0  0  0  0  0  0  0  0  0  0  0
   15.5762   -6.3302  -20.4796 C   0  0  0  0  0  0  0  0  0  0  0  0
   16.7488   -7.0863  -19.8591 C   0  0  0  0  0  0  0  0  0  0  0  0
   16.9793   -6.5855  -18.4896 C   0  0  2  0  0  0  0  0  0  0  0  0
   17.5307   -5.1570  -18.5953 C   0  0  0  0  0  0  0  0  0  0  0  0
   17.9342   -7.3588  -17.6516 C   0  0  2  0  0  0  0  0  0  0  0  0
   17.4429   -8.6959  -17.3960 N   0  0  0  0  0  0  0  0  0  0  0  0
   18.3586   -6.7482  -16.4108 C   0  0  0  0  0  0  0  0  0  0  0  0
   17.6128   -6.5304  -15.4075 O   0  0  0  0  0  0  0  0  0  0  0  0
   19.7117   -6.3489  -16.2714 N   0  0  0  0  0  0  0  0  0  0  0  0
   20.1651   -5.6227  -15.0776 C   0  0  1  0  0  0  0  0  0  0  0  0
   21.6430   -5.7465  -14.9251 C   0  0  0  0  0  0  0  0  0  0  0  0
   22.2621   -4.9475  -13.8705 C   0  0  0  0  0  0  0  0  0  0  0  0
   21.8504   -5.1409  -12.6734 O   0  0  0  0  0  0  0  0  0  0  0  0
   19.7665   -4.1946  -15.1982 C   0  0  0  0  0  0  0  0  0  0  0  0
   19.8257   -3.5708  -16.2936 O   0  0  0  0  0  0  0  0  0  0  0  0
   23.2513   -3.9988  -14.0488 O   0  0  0  0  0  0  0  0  0  0  0  0
   19.3161   -3.5080  -14.1017 O   0  0  0  0  0  0  0  0  0  0  0  0
  2  1  1  6
  3  2  1  0
  3  4  1  0
  4  5  2  0
  6  2  1  0
  6  7  2  0
  8  4  1  0
  9 10  1  0
 10 11  1  0
 11 13  1  0
 11 12  1  6
 13 14  1  1
 14  6  1  0
 15 13  1  0
 15 16  2  0
 17 18  1  0
 17 15  1  0
 18 19  1  6
 19 20  1  0
 20 24  1  0
 21 20  2  0
 22 18  1  0
 23 22  2  0
 25 22  1  0
M  END
$$$$
