DID.pdb
     RDKit          3D

 25 24  0  0  1  0  0  0  0  0999 V2000
   16.8810  -11.7083  -15.4337 N   0  0  0  0  0  0  0  0  0  0  0  0
   17.6823  -10.8032  -16.2285 C   0  0  1  0  0  0  0  0  0  0  0  0
   16.7214   -9.7682  -16.8138 C   0  0  0  0  0  0  0  0  0  0  0  0
   15.7906  -10.4383  -17.7569 C   0  0  0  0  0  0  0  0  0  0  0  0
   16.1492  -10.9760  -18.8358 O   0  0  0  0  0  0  0  0  0  0  0  0
   18.6941  -10.1060  -15.3930 C   0  0  0  0  0  0  0  0  0  0  0  0
   18.4506   -9.8125  -14.1747 O   0  0  0  0  0  0  0  0  0  0  0  0
   14.4507  -10.4781  -17.4388 O   0  0  0  0  0  0  0  0  0  0  0  0
   23.6047  -11.9025  -14.7350 C   0  0  0  0  0  0  0  0  0  0  0  0
   22.2260  -11.2618  -14.5934 C   0  0  0  0  0  0  0  0  0  0  0  0
   22.2680   -9.8924  -15.1435 C   0  0  2  0  0  0  0  0  0  0  0  0
   23.3195   -9.0988  -14.3558 C   0  0  0  0  0  0  0  0  0  0  0  0
   21.0022   -9.1138  -15.0847 C   0  0  2  0  0  0  0  0  0  0  0  0
   19.9701   -9.7306  -15.8903 N   0  0  0  0  0  0  0  0  0  0  0  0
   21.0868   -7.7034  -15.3944 C   0  0  0  0  0  0  0  0  0  0  0  0
   21.7347   -6.8425  -14.7238 O   0  0  0  0  0  0  0  0  0  0  0  0
   20.4017   -7.2096  -16.5330 N   0  0  0  0  0  0  0  0  0  0  0  0
   20.3644   -5.7705  -16.8262 C   0  0  1  0  0  0  0  0  0  0  0  0
   20.5436   -5.5339  -18.2873 C   0  0  0  0  0  0  0  0  0  0  0  0
   20.3872   -4.1579  -18.7522 C   0  0  0  0  0  0  0  0  0  0  0  0
   20.8087   -3.2286  -17.9785 O   0  0  0  0  0  0  0  0  0  0  0  0
   19.0669   -5.2137  -16.3583 C   0  0  0  0  0  0  0  0  0  0  0  0
   18.0406   -5.9334  -16.2120 O   0  0  0  0  0  0  0  0  0  0  0  0
   19.8223   -3.7682  -19.9519 O   0  0  0  0  0  0  0  0  0  0  0  0
   18.9517   -3.8798  -16.0685 O   0  0  0  0  0  0  0  0  0  0  0  0
  2  1  1  1
  3  2  1  0
  3  4  1  0
  4  5  2  0
  6  2  1  0
  6  7  2  0
  8  4  1  0
  9 10  1  0
 10 11  1  0
 11 13  1  0
 11 12  1  1
 13 14  1  6
 14  6  1  0
 15 13  1  0
 15 16  2  0
 17 18  1  0
 17 15  1  0
 18 19  1  6
 19 20  1  0
 20 24  1  0
 21 20  2  0
 22 18  1  0
 23 22  2  0
 25 22  1  0
M  END
$$$$
