DID.pdb
     RDKit          3D

 25 24  0  0  1  0  0  0  0  0999 V2000
   21.5124  -14.0345  -16.4121 N   0  0  0  0  0  0  0  0  0  0  0  0
   21.7309  -12.7278  -16.9930 C   0  0  1  0  0  0  0  0  0  0  0  0
   20.3572  -12.0677  -17.1130 C   0  0  0  0  0  0  0  0  0  0  0  0
   19.4834  -12.9024  -17.9760 C   0  0  0  0  0  0  0  0  0  0  0  0
   19.8466  -13.3993  -19.0728 O   0  0  0  0  0  0  0  0  0  0  0  0
   22.5957  -11.8901  -16.1222 C   0  0  0  0  0  0  0  0  0  0  0  0
   22.3865  -11.8156  -14.8650 O   0  0  0  0  0  0  0  0  0  0  0  0
   18.1950  -13.1530  -17.5575 O   0  0  0  0  0  0  0  0  0  0  0  0
   27.8840  -12.1129  -16.1631 C   0  0  0  0  0  0  0  0  0  0  0  0
   26.4129  -11.9719  -15.7790 C   0  0  0  0  0  0  0  0  0  0  0  0
   25.9728  -10.5875  -16.0420 C   0  0  2  0  0  0  0  0  0  0  0  0
   26.7758   -9.6542  -15.1254 C   0  0  0  0  0  0  0  0  0  0  0  0
   24.5338  -10.2924  -15.8092 C   0  0  2  0  0  0  0  0  0  0  0  0
   23.6875  -11.1352  -16.6266 N   0  0  0  0  0  0  0  0  0  0  0  0
   24.1199   -8.9123  -15.9377 C   0  0  0  0  0  0  0  0  0  0  0  0
   24.6335   -7.9315  -15.3174 O   0  0  0  0  0  0  0  0  0  0  0  0
   23.0568   -8.5952  -16.8202 N   0  0  0  0  0  0  0  0  0  0  0  0
   22.5204   -7.2296  -16.8957 C   0  0  1  0  0  0  0  0  0  0  0  0
   21.9954   -6.9532  -18.2634 C   0  0  0  0  0  0  0  0  0  0  0  0
   21.3286   -5.6687  -18.4622 C   0  0  0  0  0  0  0  0  0  0  0  0
   21.8564   -4.6442  -17.9037 O   0  0  0  0  0  0  0  0  0  0  0  0
   21.4464   -7.0736  -15.8784 C   0  0  0  0  0  0  0  0  0  0  0  0
   21.0116   -8.0486  -15.2056 O   0  0  0  0  0  0  0  0  0  0  0  0
   20.1768   -5.4598  -19.1970 O   0  0  0  0  0  0  0  0  0  0  0  0
   20.8921   -5.8433  -15.6418 O   0  0  0  0  0  0  0  0  0  0  0  0
  2  1  1  1
  3  2  1  0
  3  4  1  0
  4  5  2  0
  6  2  1  0
  6  7  2  0
  8  4  1  0
  9 10  1  0
 10 11  1  0
 11 13  1  0
 11 12  1  1
 13 14  1  6
 14  6  1  0
 15 13  1  0
 15 16  2  0
 17 18  1  0
 17 15  1  0
 18 19  1  6
 19 20  1  0
 20 24  1  0
 21 20  2  0
 22 18  1  0
 23 22  2  0
 25 22  1  0
M  END
$$$$
