DID.pdb
     RDKit          3D

 25 24  0  0  1  0  0  0  0  0999 V2000
   19.9846   -4.4314  -14.9386 N   0  0  0  0  0  0  0  0  0  0  0  0
   19.7614   -5.6632  -15.6636 C   0  0  1  0  0  0  0  0  0  0  0  0
   19.4120   -5.2683  -17.0986 C   0  0  0  0  0  0  0  0  0  0  0  0
   18.1229   -4.5313  -17.1066 C   0  0  0  0  0  0  0  0  0  0  0  0
   17.1186   -4.8641  -16.4265 O   0  0  0  0  0  0  0  0  0  0  0  0
   20.9840   -6.5075  -15.6783 C   0  0  0  0  0  0  0  0  0  0  0  0
   22.1465   -5.9801  -15.6916 O   0  0  0  0  0  0  0  0  0  0  0  0
   18.0113   -3.4139  -17.9046 O   0  0  0  0  0  0  0  0  0  0  0  0
   22.1905   -9.6852  -11.9146 C   0  0  0  0  0  0  0  0  0  0  0  0
   22.2818   -8.7501  -13.1182 C   0  0  0  0  0  0  0  0  0  0  0  0
   22.1639   -9.5421  -14.3586 C   0  0  2  0  0  0  0  0  0  0  0  0
   23.3864  -10.4661  -14.4472 C   0  0  0  0  0  0  0  0  0  0  0  0
   22.1047   -8.7766  -15.6323 C   0  0  2  0  0  0  0  0  0  0  0  0
   20.9342   -7.9266  -15.6786 N   0  0  0  0  0  0  0  0  0  0  0  0
   22.2051   -9.5378  -16.8583 C   0  0  0  0  0  0  0  0  0  0  0  0
   21.3407  -10.3651  -17.2812 O   0  0  0  0  0  0  0  0  0  0  0  0
   23.3498   -9.3695  -17.6774 N   0  0  0  0  0  0  0  0  0  0  0  0
   23.5315  -10.1720  -18.8945 C   0  0  1  0  0  0  0  0  0  0  0  0
   24.5927   -9.5757  -19.7554 C   0  0  0  0  0  0  0  0  0  0  0  0
   24.8478  -10.2363  -21.0331 C   0  0  0  0  0  0  0  0  0  0  0  0
   23.8799  -10.2819  -21.8705 O   0  0  0  0  0  0  0  0  0  0  0  0
   23.8872  -11.5639  -18.5090 C   0  0  0  0  0  0  0  0  0  0  0  0
   24.7779  -11.8168  -17.6516 O   0  0  0  0  0  0  0  0  0  0  0  0
   26.0400  -10.8195  -21.4190 O   0  0  0  0  0  0  0  0  0  0  0  0
   23.2438  -12.6266  -19.0864 O   0  0  0  0  0  0  0  0  0  0  0  0
  2  1  1  1
  3  2  1  0
  3  4  1  0
  4  5  2  0
  6  2  1  0
  6  7  2  0
  8  4  1  0
  9 10  1  0
 10 11  1  0
 11 13  1  0
 11 12  1  6
 13 14  1  6
 14  6  1  0
 15 13  1  0
 15 16  2  0
 17 18  1  0
 17 15  1  0
 18 19  1  6
 19 20  1  0
 20 24  1  0
 21 20  2  0
 22 18  1  0
 23 22  2  0
 25 22  1  0
M  END
$$$$
