DID.pdb
     RDKit          3D

 25 24  0  0  1  0  0  0  0  0999 V2000
   20.9152  -13.2842  -18.2612 N   0  0  0  0  0  0  0  0  0  0  0  0
   21.2863  -11.9306  -18.6115 C   0  0  1  0  0  0  0  0  0  0  0  0
   20.0272  -11.2610  -19.1627 C   0  0  0  0  0  0  0  0  0  0  0  0
   19.7055  -11.8367  -20.4931 C   0  0  0  0  0  0  0  0  0  0  0  0
   20.5696  -12.2514  -21.3073 O   0  0  0  0  0  0  0  0  0  0  0  0
   21.7536  -11.1757  -17.4200 C   0  0  0  0  0  0  0  0  0  0  0  0
   21.1771  -11.3109  -16.2891 O   0  0  0  0  0  0  0  0  0  0  0  0
   18.3824  -11.9257  -20.8665 O   0  0  0  0  0  0  0  0  0  0  0  0
   26.6029  -11.4688  -15.6018 C   0  0  0  0  0  0  0  0  0  0  0  0
   25.0949  -11.3086  -15.7802 C   0  0  0  0  0  0  0  0  0  0  0  0
   24.7872   -9.8930  -16.0645 C   0  0  2  0  0  0  0  0  0  0  0  0
   25.2359   -9.0599  -14.8559 C   0  0  0  0  0  0  0  0  0  0  0  0
   23.3592   -9.5610  -16.3149 C   0  0  2  0  0  0  0  0  0  0  0  0
   22.8498  -10.2743  -17.4665 N   0  0  0  0  0  0  0  0  0  0  0  0
   23.0225   -8.1581  -16.4203 C   0  0  0  0  0  0  0  0  0  0  0  0
   23.3036   -7.4080  -17.4046 O   0  0  0  0  0  0  0  0  0  0  0  0
   22.3215   -7.5398  -15.3545 N   0  0  0  0  0  0  0  0  0  0  0  0
   21.9930   -6.1086  -15.3970 C   0  0  1  0  0  0  0  0  0  0  0  0
   20.5202   -5.9180  -15.5293 C   0  0  0  0  0  0  0  0  0  0  0  0
   20.0403   -4.5394  -15.5844 C   0  0  0  0  0  0  0  0  0  0  0  0
   19.7336   -3.9829  -14.4725 O   0  0  0  0  0  0  0  0  0  0  0  0
   22.4985   -5.4580  -14.1585 C   0  0  0  0  0  0  0  0  0  0  0  0
   22.7072   -6.1064  -13.0962 O   0  0  0  0  0  0  0  0  0  0  0  0
   19.8844   -3.7817  -16.7298 O   0  0  0  0  0  0  0  0  0  0  0  0
   22.7554   -4.1125  -14.1402 O   0  0  0  0  0  0  0  0  0  0  0  0
  2  1  1  1
  3  2  1  0
  3  4  1  0
  4  5  2  0
  6  2  1  0
  6  7  2  0
  8  4  1  0
  9 10  1  0
 10 11  1  0
 11 13  1  0
 11 12  1  1
 13 14  1  6
 14  6  1  0
 15 13  1  0
 15 16  2  0
 17 18  1  0
 17 15  1  0
 18 19  1  1
 19 20  1  0
 20 24  1  0
 21 20  2  0
 22 18  1  0
 23 22  2  0
 25 22  1  0
M  END
$$$$
