DID.pdb
     RDKit          3D

 25 24  0  0  1  0  0  0  0  0999 V2000
   22.4849  -10.3420  -18.9181 N   0  0  0  0  0  0  0  0  0  0  0  0
   22.5207   -9.0350  -18.2988 C   0  0  1  0  0  0  0  0  0  0  0  0
   22.1014   -8.0310  -19.3728 C   0  0  0  0  0  0  0  0  0  0  0  0
   23.1572   -7.9538  -20.4140 C   0  0  0  0  0  0  0  0  0  0  0  0
   23.0210   -8.3869  -21.5869 O   0  0  0  0  0  0  0  0  0  0  0  0
   21.5682   -8.9528  -17.1614 C   0  0  0  0  0  0  0  0  0  0  0  0
   20.4699   -9.6033  -17.1758 O   0  0  0  0  0  0  0  0  0  0  0  0
   24.3625   -7.3741  -20.0839 O   0  0  0  0  0  0  0  0  0  0  0  0
   22.8054  -10.1031  -12.2554 C   0  0  0  0  0  0  0  0  0  0  0  0
   22.0994   -9.8678  -13.5887 C   0  0  0  0  0  0  0  0  0  0  0  0
   21.5740   -8.4886  -13.6233 C   0  0  2  0  0  0  0  0  0  0  0  0
   20.5339   -8.3508  -12.5029 C   0  0  0  0  0  0  0  0  0  0  0  0
   20.9126   -8.0611  -14.8850 C   0  0  2  0  0  0  0  0  0  0  0  0
   21.8175   -8.1597  -16.0101 N   0  0  0  0  0  0  0  0  0  0  0  0
   20.2754   -6.7625  -14.8821 C   0  0  0  0  0  0  0  0  0  0  0  0
   20.8138   -5.6819  -14.4909 O   0  0  0  0  0  0  0  0  0  0  0  0
   18.9411   -6.6530  -15.3479 N   0  0  0  0  0  0  0  0  0  0  0  0
   18.2594   -5.3522  -15.3864 C   0  0  1  0  0  0  0  0  0  0  0  0
   17.2049   -5.3499  -16.4404 C   0  0  0  0  0  0  0  0  0  0  0  0
   16.4653   -4.1038  -16.6246 C   0  0  0  0  0  0  0  0  0  0  0  0
   16.8023   -3.1106  -15.8897 O   0  0  0  0  0  0  0  0  0  0  0  0
   17.6680   -5.0749  -14.0499 C   0  0  0  0  0  0  0  0  0  0  0  0
   17.0814   -5.9666  -13.3768 O   0  0  0  0  0  0  0  0  0  0  0  0
   15.4317   -3.9007  -17.5194 O   0  0  0  0  0  0  0  0  0  0  0  0
   17.7475   -3.8201  -13.5060 O   0  0  0  0  0  0  0  0  0  0  0  0
  2  1  1  6
  3  2  1  0
  3  4  1  0
  4  5  2  0
  6  2  1  0
  6  7  2  0
  8  4  1  0
  9 10  1  0
 10 11  1  0
 11 13  1  0
 11 12  1  1
 13 14  1  6
 14  6  1  0
 15 13  1  0
 15 16  2  0
 17 18  1  0
 17 15  1  0
 18 19  1  6
 19 20  1  0
 20 24  1  0
 21 20  2  0
 22 18  1  0
 23 22  2  0
 25 22  1  0
M  END
$$$$
