DID.pdb
     RDKit          3D

 25 24  0  0  1  0  0  0  0  0999 V2000
   20.9273  -13.9464  -17.6517 N   0  0  0  0  0  0  0  0  0  0  0  0
   21.4599  -12.7334  -18.2328 C   0  0  1  0  0  0  0  0  0  0  0  0
   20.2894  -12.0258  -18.9160 C   0  0  0  0  0  0  0  0  0  0  0  0
   19.7811  -12.8729  -20.0246 C   0  0  0  0  0  0  0  0  0  0  0  0
   20.5121  -13.3821  -20.9124 O   0  0  0  0  0  0  0  0  0  0  0  0
   22.0228  -11.8389  -17.1883 C   0  0  0  0  0  0  0  0  0  0  0  0
   21.4195  -11.6661  -16.0766 O   0  0  0  0  0  0  0  0  0  0  0  0
   18.4278  -13.1215  -20.0924 O   0  0  0  0  0  0  0  0  0  0  0  0
   27.2631  -11.8975  -15.9853 C   0  0  0  0  0  0  0  0  0  0  0  0
   25.7374  -11.8478  -15.9508 C   0  0  0  0  0  0  0  0  0  0  0  0
   25.2895  -10.4725  -16.2465 C   0  0  2  0  0  0  0  0  0  0  0  0
   25.7864   -9.5604  -15.1164 C   0  0  0  0  0  0  0  0  0  0  0  0
   23.8216  -10.2621  -16.3610 C   0  0  2  0  0  0  0  0  0  0  0  0
   23.2439  -11.1349  -17.3605 N   0  0  0  0  0  0  0  0  0  0  0  0
   23.3702   -8.9049  -16.5769 C   0  0  0  0  0  0  0  0  0  0  0  0
   23.4534   -8.2695  -17.6723 O   0  0  0  0  0  0  0  0  0  0  0  0
   22.7821   -8.1986  -15.4976 N   0  0  0  0  0  0  0  0  0  0  0  0
   22.2593   -6.8380  -15.6815 C   0  0  1  0  0  0  0  0  0  0  0  0
   20.9914   -6.8709  -16.4650 C   0  0  0  0  0  0  0  0  0  0  0  0
   20.2922   -5.5994  -16.6338 C   0  0  0  0  0  0  0  0  0  0  0  0
   19.0778   -5.5428  -16.2312 O   0  0  0  0  0  0  0  0  0  0  0  0
   22.0374   -6.2193  -14.3471 C   0  0  0  0  0  0  0  0  0  0  0  0
   22.0651   -6.8938  -13.2809 O   0  0  0  0  0  0  0  0  0  0  0  0
   20.8229   -4.4517  -17.1919 O   0  0  0  0  0  0  0  0  0  0  0  0
   21.7929   -4.8756  -14.2406 O   0  0  0  0  0  0  0  0  0  0  0  0
  2  1  1  1
  3  2  1  0
  3  4  1  0
  4  5  2  0
  6  2  1  0
  6  7  2  0
  8  4  1  0
  9 10  1  0
 10 11  1  0
 11 13  1  0
 11 12  1  1
 13 14  1  6
 14  6  1  0
 15 13  1  0
 15 16  2  0
 17 18  1  0
 17 15  1  0
 18 19  1  1
 19 20  1  0
 20 24  1  0
 21 20  2  0
 22 18  1  0
 23 22  2  0
 25 22  1  0
M  END
$$$$
