VWH.pdb
     RDKit          3D

 32 34  0  0  1  0  0  0  0  0999 V2000
   18.2475  -11.1941  -20.6725 C   0  0  0  0  0  0  0  0  0  0  0  0
   19.7301  -11.5446  -20.7380 C   0  0  2  0  0  0  0  0  0  0  0  0
   20.0530  -12.2433  -22.0415 C   0  0  0  0  0  0  0  0  0  0  0  0
   20.1779  -12.3061  -19.5338 C   0  0  2  0  0  0  0  0  0  0  0  0
   19.6151  -13.6381  -19.6066 N   0  0  0  0  0  0  0  0  0  0  0  0
   19.7845  -11.6961  -18.2494 C   0  0  0  0  0  0  0  0  0  0  0  0
   18.6951  -12.0273  -17.7078 O   0  0  0  0  0  0  0  0  0  0  0  0
   20.6030  -10.7426  -17.6043 N   0  0  0  0  0  0  0  0  0  0  0  0
   20.1300   -9.9390  -16.4522 C   0  0  1  0  0  0  0  0  0  0  0  0
   21.2087   -9.8845  -15.4557 C   0  0  0  0  0  0  0  0  0  0  0  0
   21.1147   -9.0088  -14.3093 C   0  0  0  0  0  0  0  0  0  0  0  0
   20.5301   -9.2295  -13.0824 C   0  0  0  0  0  0  0  0  0  0  0  0
   20.6993   -8.1308  -12.3441 N   0  0  0  0  0  0  0  0  0  0  0  0
   21.3640   -7.2122  -13.0331 C   0  0  0  0  0  0  0  0  0  0  0  0
   21.7977   -5.9187  -12.7037 C   0  0  0  0  0  0  0  0  0  0  0  0
   22.5042   -5.1444  -13.6066 C   0  0  0  0  0  0  0  0  0  0  0  0
   22.7767   -5.6682  -14.8440 C   0  0  0  0  0  0  0  0  0  0  0  0
   22.3493   -6.9343  -15.1600 C   0  0  0  0  0  0  0  0  0  0  0  0
   21.6425   -7.7286  -14.2766 C   0  0  0  0  0  0  0  0  0  0  0  0
   19.5001   -8.7167  -16.9090 C   0  0  0  0  0  0  0  0  0  0  0  0
   19.9746   -8.0877  -17.9250 O   0  0  0  0  0  0  0  0  0  0  0  0
   18.3548   -8.1254  -16.3239 N   0  0  0  0  0  0  0  0  0  0  0  0
   17.7855   -6.8960  -16.9241 C   0  0  1  0  0  0  0  0  0  0  0  0
   16.2651   -7.0834  -16.9833 C   0  0  0  0  0  0  0  0  0  0  0  0
   15.6666   -5.9304  -17.6802 C   0  0  0  0  0  0  0  0  0  0  0  0
   15.4306   -4.6775  -17.0790 C   0  0  0  0  0  0  0  0  0  0  0  0
   14.8849   -3.8654  -17.9831 N   0  0  0  0  0  0  0  0  0  0  0  0
   14.7564   -4.5248  -19.1324 C   0  0  0  0  0  0  0  0  0  0  0  0
   15.2263   -5.7498  -18.9322 N   0  0  0  0  0  0  0  0  0  0  0  0
   18.0325   -5.7772  -15.9845 C   0  0  0  0  0  0  0  0  0  0  0  0
   18.2915   -4.4780  -16.4892 O   0  0  0  0  0  0  0  0  0  0  0  0
   18.0427   -5.8459  -14.7390 O   0  0  0  0  0  0  0  0  0  0  0  0
  2  1  1  1
  2  3  1  0
  4  2  1  0
  4  5  1  6
  6  4  1  0
  6  7  2  0
  8  6  1  0
  9 10  1  1
  9  8  1  0
 11 10  1  0
 11 12  2  0
 13 12  1  0
 14 13  1  0
 15 14  2  0
 16 15  1  0
 17 16  2  0
 17 18  1  0
 18 19  2  0
 19 14  1  0
 19 11  1  0
 20  9  1  0
 21 20  2  0
 22 20  1  0
 23 24  1  1
 23 22  1  0
 24 25  1  0
 25 29  1  0
 26 25  2  0
 26 27  1  0
 27 28  1  0
 29 28  2  0
 30 31  1  0
 30 23  1  0
 32 30  2  0
M  END
$$$$
