VWH.pdb
     RDKit          3D

 32 34  0  0  1  0  0  0  0  0999 V2000
   26.5667  -18.7018  -14.9258 C   0  0  0  0  0  0  0  0  0  0  0  0
   27.9939  -19.0206  -14.4936 C   0  0  2  0  0  0  0  0  0  0  0  0
   28.9803  -18.5805  -15.5542 C   0  0  0  0  0  0  0  0  0  0  0  0
   28.1516  -20.4524  -14.0992 C   0  0  2  0  0  0  0  0  0  0  0  0
   27.8385  -21.2748  -15.2489 N   0  0  0  0  0  0  0  0  0  0  0  0
   27.2951  -20.8692  -12.9726 C   0  0  0  0  0  0  0  0  0  0  0  0
   26.1800  -21.4112  -13.2021 O   0  0  0  0  0  0  0  0  0  0  0  0
   27.6945  -20.6756  -11.6316 N   0  0  0  0  0  0  0  0  0  0  0  0
   26.8107  -20.9949  -10.4853 C   0  0  1  0  0  0  0  0  0  0  0  0
   27.6057  -20.9053   -9.2526 C   0  0  0  0  0  0  0  0  0  0  0  0
   26.9656  -20.7151   -7.9704 C   0  0  0  0  0  0  0  0  0  0  0  0
   25.6718  -20.9883   -7.5867 C   0  0  0  0  0  0  0  0  0  0  0  0
   25.5449  -20.6494   -6.3022 N   0  0  0  0  0  0  0  0  0  0  0  0
   26.6922  -20.1714   -5.8378 C   0  0  0  0  0  0  0  0  0  0  0  0
   27.0735  -19.7033   -4.5708 C   0  0  0  0  0  0  0  0  0  0  0  0
   28.3614  -19.2631   -4.3233 C   0  0  0  0  0  0  0  0  0  0  0  0
   29.2704  -19.2917   -5.3494 C   0  0  0  0  0  0  0  0  0  0  0  0
   28.8908  -19.7506   -6.5867 C   0  0  0  0  0  0  0  0  0  0  0  0
   27.6112  -20.1964   -6.8602 C   0  0  0  0  0  0  0  0  0  0  0  0
   25.5564  -20.2777  -10.5950 C   0  0  0  0  0  0  0  0  0  0  0  0
   25.5544  -18.9984  -10.7232 O   0  0  0  0  0  0  0  0  0  0  0  0
   24.2743  -20.8773  -10.5833 N   0  0  0  0  0  0  0  0  0  0  0  0
   23.1656  -20.2354  -11.3281 C   0  0  1  0  0  0  0  0  0  0  0  0
   23.5335  -20.2810  -12.8156 C   0  0  0  0  0  0  0  0  0  0  0  0
   22.5370  -19.5087  -13.5799 C   0  0  0  0  0  0  0  0  0  0  0  0
   21.4221  -18.8666  -13.0041 C   0  0  0  0  0  0  0  0  0  0  0  0
   20.7314  -18.2618  -13.9694 N   0  0  0  0  0  0  0  0  0  0  0  0
   21.3388  -18.4784  -15.1341 C   0  0  0  0  0  0  0  0  0  0  0  0
   22.4094  -19.2211  -14.8818 N   0  0  0  0  0  0  0  0  0  0  0  0
   21.9618  -21.0846  -11.1689 C   0  0  0  0  0  0  0  0  0  0  0  0
   20.6738  -20.4930  -11.1994 O   0  0  0  0  0  0  0  0  0  0  0  0
   21.9455  -22.3204  -11.0003 O   0  0  0  0  0  0  0  0  0  0  0  0
  2  1  1  6
  2  3  1  0
  4  2  1  0
  4  5  1  6
  6  4  1  0
  6  7  2  0
  8  6  1  0
  9 10  1  1
  9  8  1  0
 11 10  1  0
 11 12  2  0
 13 12  1  0
 14 13  1  0
 15 14  2  0
 16 15  1  0
 17 16  2  0
 17 18  1  0
 18 19  2  0
 19 14  1  0
 19 11  1  0
 20  9  1  0
 21 20  2  0
 22 20  1  0
 23 24  1  6
 23 22  1  0
 24 25  1  0
 25 29  1  0
 26 25  2  0
 26 27  1  0
 27 28  1  0
 29 28  2  0
 30 31  1  0
 30 23  1  0
 32 30  2  0
M  END
$$$$
