VWH.pdb
     RDKit          3D

 32 34  0  0  1  0  0  0  0  0999 V2000
   28.6936  -18.7380  -16.0717 C   0  0  0  0  0  0  0  0  0  0  0  0
   27.7259  -19.2771  -15.0238 C   0  0  2  0  0  0  0  0  0  0  0  0
   27.3557  -18.1919  -14.0353 C   0  0  0  0  0  0  0  0  0  0  0  0
   28.2424  -20.5175  -14.3719 C   0  0  2  0  0  0  0  0  0  0  0  0
   28.2915  -21.5654  -15.3698 N   0  0  0  0  0  0  0  0  0  0  0  0
   27.4309  -20.9872  -13.2328 C   0  0  0  0  0  0  0  0  0  0  0  0
   26.3794  -21.6498  -13.4454 O   0  0  0  0  0  0  0  0  0  0  0  0
   27.8038  -20.7121  -11.8985 N   0  0  0  0  0  0  0  0  0  0  0  0
   26.9157  -21.0055  -10.7486 C   0  0  1  0  0  0  0  0  0  0  0  0
   27.7218  -20.9576   -9.5209 C   0  0  0  0  0  0  0  0  0  0  0  0
   27.0987  -20.7482   -8.2333 C   0  0  0  0  0  0  0  0  0  0  0  0
   25.8037  -20.9932   -7.8351 C   0  0  0  0  0  0  0  0  0  0  0  0
   25.6968  -20.6456   -6.5511 N   0  0  0  0  0  0  0  0  0  0  0  0
   26.8582  -20.1889   -6.1007 C   0  0  0  0  0  0  0  0  0  0  0  0
   27.2618  -19.7225   -4.8400 C   0  0  0  0  0  0  0  0  0  0  0  0
   28.5608  -19.3074   -4.6078 C   0  0  0  0  0  0  0  0  0  0  0  0
   29.4585  -19.3594   -5.6428 C   0  0  0  0  0  0  0  0  0  0  0  0
   29.0572  -19.8164   -6.8739 C   0  0  0  0  0  0  0  0  0  0  0  0
   27.7661  -20.2374   -7.1322 C   0  0  0  0  0  0  0  0  0  0  0  0
   25.6901  -20.2384  -10.8439 C   0  0  0  0  0  0  0  0  0  0  0  0
   25.7372  -18.9739  -11.0717 O   0  0  0  0  0  0  0  0  0  0  0  0
   24.3856  -20.7721  -10.7134 N   0  0  0  0  0  0  0  0  0  0  0  0
   23.2700  -20.1557  -11.4693 C   0  0  1  0  0  0  0  0  0  0  0  0
   23.5429  -20.3991  -12.9581 C   0  0  0  0  0  0  0  0  0  0  0  0
   22.5179  -19.6997  -13.7540 C   0  0  0  0  0  0  0  0  0  0  0  0
   21.5049  -18.8890  -13.2031 C   0  0  0  0  0  0  0  0  0  0  0  0
   20.7538  -18.4109  -14.1940 N   0  0  0  0  0  0  0  0  0  0  0  0
   21.2261  -18.8680  -15.3517 C   0  0  0  0  0  0  0  0  0  0  0  0
   22.2741  -19.6318  -15.0693 N   0  0  0  0  0  0  0  0  0  0  0  0
   22.0338  -20.9048  -11.1430 C   0  0  0  0  0  0  0  0  0  0  0  0
   20.8165  -20.2044  -10.9496 O   0  0  0  0  0  0  0  0  0  0  0  0
   21.9315  -22.1408  -11.0091 O   0  0  0  0  0  0  0  0  0  0  0  0
  2  1  1  6
  2  3  1  0
  4  2  1  0
  4  5  1  6
  6  4  1  0
  6  7  2  0
  8  6  1  0
  9 10  1  1
  9  8  1  0
 11 10  1  0
 11 12  2  0
 13 12  1  0
 14 13  1  0
 15 14  2  0
 16 15  1  0
 17 16  2  0
 17 18  1  0
 18 19  2  0
 19 14  1  0
 19 11  1  0
 20  9  1  0
 21 20  2  0
 22 20  1  0
 23 24  1  6
 23 22  1  0
 24 25  1  0
 25 29  1  0
 26 25  2  0
 26 27  1  0
 27 28  1  0
 29 28  2  0
 30 31  1  0
 30 23  1  0
 32 30  2  0
M  END
$$$$
