VWH.pdb
     RDKit          3D

 32 34  0  0  1  0  0  0  0  0999 V2000
   29.9568  -19.6368  -13.5338 C   0  0  0  0  0  0  0  0  0  0  0  0
   29.3548  -20.3642  -14.7312 C   0  0  2  0  0  0  0  0  0  0  0  0
   29.8169  -19.7287  -16.0251 C   0  0  0  0  0  0  0  0  0  0  0  0
   27.8693  -20.4774  -14.6272 C   0  0  2  0  0  0  0  0  0  0  0  0
   27.2992  -19.1662  -14.8558 N   0  0  0  0  0  0  0  0  0  0  0  0
   27.3888  -20.9815  -13.3267 C   0  0  0  0  0  0  0  0  0  0  0  0
   27.5156  -22.2039  -13.0446 O   0  0  0  0  0  0  0  0  0  0  0  0
   26.7852  -20.1238  -12.3805 N   0  0  0  0  0  0  0  0  0  0  0  0
   26.1427  -20.6307  -11.1447 C   0  0  1  0  0  0  0  0  0  0  0  0
   26.9962  -20.2738  -10.0029 C   0  0  0  0  0  0  0  0  0  0  0  0
   26.5100  -20.3981   -8.6472 C   0  0  0  0  0  0  0  0  0  0  0  0
   25.3287  -20.9330   -8.1844 C   0  0  0  0  0  0  0  0  0  0  0  0
   25.3258  -20.8310   -6.8539 N   0  0  0  0  0  0  0  0  0  0  0  0
   26.4463  -20.2571   -6.4348 C   0  0  0  0  0  0  0  0  0  0  0  0
   26.9219  -19.9452   -5.1517 C   0  0  0  0  0  0  0  0  0  0  0  0
   28.1571  -19.3506   -4.9665 C   0  0  0  0  0  0  0  0  0  0  0  0
   28.9184  -19.0673   -6.0711 C   0  0  0  0  0  0  0  0  0  0  0  0
   28.4472  -19.3748   -7.3237 C   0  0  0  0  0  0  0  0  0  0  0  0
   27.2174  -19.9692   -7.5362 C   0  0  0  0  0  0  0  0  0  0  0  0
   24.7328  -20.2965  -11.1308 C   0  0  0  0  0  0  0  0  0  0  0  0
   24.3596  -19.0711  -11.2407 O   0  0  0  0  0  0  0  0  0  0  0  0
   23.6775  -21.2323  -11.0114 N   0  0  0  0  0  0  0  0  0  0  0  0
   22.2766  -20.7676  -11.1436 C   0  0  1  0  0  0  0  0  0  0  0  0
   21.5355  -21.8017  -11.9990 C   0  0  0  0  0  0  0  0  0  0  0  0
   21.7451  -21.4844  -13.4234 C   0  0  0  0  0  0  0  0  0  0  0  0
   22.4697  -20.3678  -13.8873 C   0  0  0  0  0  0  0  0  0  0  0  0
   22.4675  -20.3801  -15.2194 N   0  0  0  0  0  0  0  0  0  0  0  0
   21.7824  -21.4416  -15.6392 C   0  0  0  0  0  0  0  0  0  0  0  0
   21.3614  -22.0850  -14.5574 N   0  0  0  0  0  0  0  0  0  0  0  0
   21.6552  -20.8146   -9.7993 C   0  0  0  0  0  0  0  0  0  0  0  0
   20.3818  -20.2273   -9.5912 O   0  0  0  0  0  0  0  0  0  0  0  0
   22.1447  -21.3336   -8.7760 O   0  0  0  0  0  0  0  0  0  0  0  0
  2  1  1  1
  2  3  1  0
  4  2  1  0
  4  5  1  1
  6  4  1  0
  6  7  2  0
  8  6  1  0
  9 10  1  1
  9  8  1  0
 11 10  1  0
 11 12  2  0
 13 12  1  0
 14 13  1  0
 15 14  2  0
 16 15  1  0
 17 16  2  0
 17 18  1  0
 18 19  2  0
 19 14  1  0
 19 11  1  0
 20  9  1  0
 21 20  2  0
 22 20  1  0
 23 24  1  6
 23 22  1  0
 24 25  1  0
 25 29  1  0
 26 25  2  0
 26 27  1  0
 27 28  1  0
 29 28  2  0
 30 31  1  0
 30 23  1  0
 32 30  2  0
M  END
$$$$
