VWH.pdb
     RDKit          3D

 32 34  0  0  1  0  0  0  0  0999 V2000
   27.7671  -18.1878  -15.2152 C   0  0  0  0  0  0  0  0  0  0  0  0
   27.9347  -19.3937  -16.1333 C   0  0  2  0  0  0  0  0  0  0  0  0
   26.6367  -19.6996  -16.8498 C   0  0  0  0  0  0  0  0  0  0  0  0
   28.5015  -20.5716  -15.4109 C   0  0  2  0  0  0  0  0  0  0  0  0
   28.7101  -21.6337  -16.3724 N   0  0  0  0  0  0  0  0  0  0  0  0
   27.6491  -21.0819  -14.3202 C   0  0  0  0  0  0  0  0  0  0  0  0
   26.7081  -21.8789  -14.5830 O   0  0  0  0  0  0  0  0  0  0  0  0
   27.8610  -20.6982  -12.9774 N   0  0  0  0  0  0  0  0  0  0  0  0
   26.9258  -21.0677  -11.8884 C   0  0  1  0  0  0  0  0  0  0  0  0
   27.5873  -20.8005  -10.6037 C   0  0  0  0  0  0  0  0  0  0  0  0
   26.8182  -20.6784   -9.3857 C   0  0  0  0  0  0  0  0  0  0  0  0
   25.4586  -20.7776   -9.1931 C   0  0  0  0  0  0  0  0  0  0  0  0
   25.2143  -20.5975   -7.8936 N   0  0  0  0  0  0  0  0  0  0  0  0
   26.3484  -20.3874   -7.2379 C   0  0  0  0  0  0  0  0  0  0  0  0
   26.6238  -20.1648   -5.8798 C   0  0  0  0  0  0  0  0  0  0  0  0
   27.9189  -19.9862   -5.4275 C   0  0  0  0  0  0  0  0  0  0  0  0
   28.9417  -20.0304   -6.3396 C   0  0  0  0  0  0  0  0  0  0  0  0
   28.6655  -20.2482   -7.6669 C   0  0  0  0  0  0  0  0  0  0  0  0
   27.3811  -20.4301   -8.1447 C   0  0  0  0  0  0  0  0  0  0  0  0
   25.6043  -20.5344  -12.1503 C   0  0  0  0  0  0  0  0  0  0  0  0
   25.4523  -19.2827  -12.4015 O   0  0  0  0  0  0  0  0  0  0  0  0
   24.4102  -21.2944  -12.1659 N   0  0  0  0  0  0  0  0  0  0  0  0
   23.1190  -20.6129  -12.4193 C   0  0  1  0  0  0  0  0  0  0  0  0
   22.3444  -21.4710  -13.4263 C   0  0  0  0  0  0  0  0  0  0  0  0
   22.3681  -20.8055  -14.7416 C   0  0  0  0  0  0  0  0  0  0  0  0
   22.9448  -19.5413  -14.9787 C   0  0  0  0  0  0  0  0  0  0  0  0
   22.7955  -19.2382  -16.2673 N   0  0  0  0  0  0  0  0  0  0  0  0
   22.1552  -20.2360  -16.8731 C   0  0  0  0  0  0  0  0  0  0  0  0
   21.9100  -21.1575  -15.9500 N   0  0  0  0  0  0  0  0  0  0  0  0
   22.3384  -20.6391  -11.1602 C   0  0  0  0  0  0  0  0  0  0  0  0
   21.2099  -19.7936  -11.0136 O   0  0  0  0  0  0  0  0  0  0  0  0
   22.5688  -21.3506  -10.1618 O   0  0  0  0  0  0  0  0  0  0  0  0
  2  1  1  1
  2  3  1  0
  4  2  1  0
  4  5  1  6
  6  4  1  0
  6  7  2  0
  8  6  1  0
  9 10  1  1
  9  8  1  0
 11 10  1  0
 11 12  2  0
 13 12  1  0
 14 13  1  0
 15 14  2  0
 16 15  1  0
 17 16  2  0
 17 18  1  0
 18 19  2  0
 19 14  1  0
 19 11  1  0
 20  9  1  0
 21 20  2  0
 22 20  1  0
 23 24  1  6
 23 22  1  0
 24 25  1  0
 25 29  1  0
 26 25  2  0
 26 27  1  0
 27 28  1  0
 29 28  2  0
 30 31  1  0
 30 23  1  0
 32 30  2  0
M  END
$$$$
