VWH.pdb
     RDKit          3D

 32 34  0  0  1  0  0  0  0  0999 V2000
   21.2417  -10.6698    7.5691 C   0  0  0  0  0  0  0  0  0  0  0  0
   20.4684  -11.9826    7.5062 C   0  0  2  0  0  0  0  0  0  0  0  0
   21.3745  -13.1114    7.0629 C   0  0  0  0  0  0  0  0  0  0  0  0
   19.2293  -11.8623    6.6812 C   0  0  2  0  0  0  0  0  0  0  0  0
   18.3498  -10.9084    7.3238 N   0  0  0  0  0  0  0  0  0  0  0  0
   18.4977  -13.1300    6.4968 C   0  0  0  0  0  0  0  0  0  0  0  0
   17.8055  -13.5956    7.4422 O   0  0  0  0  0  0  0  0  0  0  0  0
   18.5525  -13.8427    5.2784 N   0  0  0  0  0  0  0  0  0  0  0  0
   17.9099  -15.1667    5.1027 C   0  0  1  0  0  0  0  0  0  0  0  0
   17.3242  -15.2186    3.7560 C   0  0  0  0  0  0  0  0  0  0  0  0
   16.4677  -16.3147    3.3623 C   0  0  0  0  0  0  0  0  0  0  0  0
   15.2077  -16.6467    3.8069 C   0  0  0  0  0  0  0  0  0  0  0  0
   14.8148  -17.7386    3.1478 N   0  0  0  0  0  0  0  0  0  0  0  0
   15.7584  -18.1276    2.3000 C   0  0  0  0  0  0  0  0  0  0  0  0
   15.8223  -19.1896    1.3846 C   0  0  0  0  0  0  0  0  0  0  0  0
   16.9318  -19.3817    0.5810 C   0  0  0  0  0  0  0  0  0  0  0  0
   17.9812  -18.5067    0.6955 C   0  0  0  0  0  0  0  0  0  0  0  0
   17.9124  -17.4700    1.5932 C   0  0  0  0  0  0  0  0  0  0  0  0
   16.8159  -17.2554    2.4071 C   0  0  0  0  0  0  0  0  0  0  0  0
   18.7925  -16.2241    5.5527 C   0  0  0  0  0  0  0  0  0  0  0  0
   19.9675  -16.3429    5.0447 O   0  0  0  0  0  0  0  0  0  0  0  0
   18.4753  -17.1774    6.5498 N   0  0  0  0  0  0  0  0  0  0  0  0
   19.3716  -18.3395    6.7546 C   0  0  1  0  0  0  0  0  0  0  0  0
   20.7163  -17.7928    7.2478 C   0  0  0  0  0  0  0  0  0  0  0  0
   20.5083  -17.0912    8.5276 C   0  0  0  0  0  0  0  0  0  0  0  0
   19.2437  -16.8510    9.1021 C   0  0  0  0  0  0  0  0  0  0  0  0
   19.4132  -16.1998   10.2518 N   0  0  0  0  0  0  0  0  0  0  0  0
   20.7155  -16.0072   10.4498 C   0  0  0  0  0  0  0  0  0  0  0  0
   21.3494  -16.5439    9.4146 N   0  0  0  0  0  0  0  0  0  0  0  0
   18.8169  -19.1490    7.8648 C   0  0  0  0  0  0  0  0  0  0  0  0
   19.5462  -20.2598    8.3590 O   0  0  0  0  0  0  0  0  0  0  0  0
   17.7284  -18.9618    8.4446 O   0  0  0  0  0  0  0  0  0  0  0  0
  2  1  1  6
  2  3  1  0
  4  2  1  0
  4  5  1  1
  6  4  1  0
  6  7  2  0
  8  6  1  0
  9 10  1  6
  9  8  1  0
 11 10  1  0
 11 12  2  0
 13 12  1  0
 14 13  1  0
 15 14  2  0
 16 15  1  0
 17 16  2  0
 17 18  1  0
 18 19  2  0
 19 14  1  0
 19 11  1  0
 20  9  1  0
 21 20  2  0
 22 20  1  0
 23 24  1  1
 23 22  1  0
 24 25  1  0
 25 29  1  0
 26 25  2  0
 26 27  1  0
 27 28  1  0
 29 28  2  0
 30 31  1  0
 30 23  1  0
 32 30  2  0
M  END
$$$$
