VWH.pdb
     RDKit          3D

 32 34  0  0  1  0  0  0  0  0999 V2000
   22.7910  -15.1162  -16.9841 C   0  0  0  0  0  0  0  0  0  0  0  0
   23.8195  -14.3250  -16.1833 C   0  0  2  0  0  0  0  0  0  0  0  0
   23.6295  -12.8385  -16.3976 C   0  0  0  0  0  0  0  0  0  0  0  0
   25.2138  -14.7865  -16.4541 C   0  0  2  0  0  0  0  0  0  0  0  0
   25.5172  -14.5163  -17.8439 N   0  0  0  0  0  0  0  0  0  0  0  0
   25.4401  -16.2204  -16.1911 C   0  0  0  0  0  0  0  0  0  0  0  0
   25.3277  -17.0537  -17.1306 O   0  0  0  0  0  0  0  0  0  0  0  0
   25.7824  -16.6889  -14.9032 N   0  0  0  0  0  0  0  0  0  0  0  0
   25.9744  -18.1284  -14.6063 C   0  0  1  0  0  0  0  0  0  0  0  0
   27.0191  -18.2510  -13.5802 C   0  0  0  0  0  0  0  0  0  0  0  0
   27.3037  -19.5262  -12.9615 C   0  0  0  0  0  0  0  0  0  0  0  0
   28.1068  -20.5546  -13.4008 C   0  0  0  0  0  0  0  0  0  0  0  0
   28.0622  -21.5279  -12.4890 N   0  0  0  0  0  0  0  0  0  0  0  0
   27.2707  -21.1789  -11.4830 C   0  0  0  0  0  0  0  0  0  0  0  0
   26.9130  -21.8346  -10.2948 C   0  0  0  0  0  0  0  0  0  0  0  0
   26.0662  -21.2447   -9.3736 C   0  0  0  0  0  0  0  0  0  0  0  0
   25.5756  -19.9934   -9.6444 C   0  0  0  0  0  0  0  0  0  0  0  0
   25.9291  -19.3574  -10.8089 C   0  0  0  0  0  0  0  0  0  0  0  0
   26.7736  -19.9241  -11.7453 C   0  0  0  0  0  0  0  0  0  0  0  0
   24.6957  -18.7849  -14.4239 C   0  0  0  0  0  0  0  0  0  0  0  0
   23.7530  -18.1929  -13.7807 O   0  0  0  0  0  0  0  0  0  0  0  0
   24.3653  -20.0706  -14.9156 N   0  0  0  0  0  0  0  0  0  0  0  0
   23.0471  -20.6591  -14.5814 C   0  0  1  0  0  0  0  0  0  0  0  0
   22.0492  -19.5006  -14.4702 C   0  0  0  0  0  0  0  0  0  0  0  0
   21.3469  -19.5950  -13.1775 C   0  0  0  0  0  0  0  0  0  0  0  0
   21.6472  -20.5460  -12.1812 C   0  0  0  0  0  0  0  0  0  0  0  0
   20.8306  -20.3534  -11.1464 N   0  0  0  0  0  0  0  0  0  0  0  0
   20.0217  -19.3322  -11.4203 C   0  0  0  0  0  0  0  0  0  0  0  0
   20.3440  -18.8952  -12.6313 N   0  0  0  0  0  0  0  0  0  0  0  0
   22.6106  -21.4774  -15.7370 C   0  0  0  0  0  0  0  0  0  0  0  0
   23.4094  -21.5261  -16.9072 O   0  0  0  0  0  0  0  0  0  0  0  0
   21.5699  -22.1616  -15.8077 O   0  0  0  0  0  0  0  0  0  0  0  0
  2  1  1  6
  2  3  1  0
  4  2  1  0
  4  5  1  6
  6  4  1  0
  6  7  2  0
  8  6  1  0
  9 10  1  1
  9  8  1  0
 11 10  1  0
 11 12  2  0
 13 12  1  0
 14 13  1  0
 15 14  2  0
 16 15  1  0
 17 16  2  0
 17 18  1  0
 18 19  2  0
 19 14  1  0
 19 11  1  0
 20  9  1  0
 21 20  2  0
 22 20  1  0
 23 24  1  6
 23 22  1  0
 24 25  1  0
 25 29  1  0
 26 25  2  0
 26 27  1  0
 27 28  1  0
 29 28  2  0
 30 31  1  0
 30 23  1  0
 32 30  2  0
M  END
$$$$
