VWH.pdb
     RDKit          3D

 32 34  0  0  1  0  0  0  0  0999 V2000
   28.1221  -18.7043  -12.0861 C   0  0  0  0  0  0  0  0  0  0  0  0
   28.5539  -20.1136  -12.4768 C   0  0  2  0  0  0  0  0  0  0  0  0
   29.0914  -20.1307  -13.8919 C   0  0  0  0  0  0  0  0  0  0  0  0
   27.4698  -21.1145  -12.2455 C   0  0  2  0  0  0  0  0  0  0  0  0
   26.3660  -20.7965  -13.1268 N   0  0  0  0  0  0  0  0  0  0  0  0
   26.9699  -21.1575  -10.8582 C   0  0  0  0  0  0  0  0  0  0  0  0
   27.5922  -21.8274   -9.9899 O   0  0  0  0  0  0  0  0  0  0  0  0
   25.8022  -20.4621  -10.4731 N   0  0  0  0  0  0  0  0  0  0  0  0
   25.2538  -20.5305   -9.0977 C   0  0  1  0  0  0  0  0  0  0  0  0
   25.4562  -19.2239   -8.4564 C   0  0  0  0  0  0  0  0  0  0  0  0
   26.5971  -18.9873   -7.6007 C   0  0  0  0  0  0  0  0  0  0  0  0
   27.5293  -17.9750   -7.6415 C   0  0  0  0  0  0  0  0  0  0  0  0
   28.3934  -18.1728   -6.6440 N   0  0  0  0  0  0  0  0  0  0  0  0
   28.0652  -19.2622   -5.9613 C   0  0  0  0  0  0  0  0  0  0  0  0
   28.6363  -19.8760   -4.8358 C   0  0  0  0  0  0  0  0  0  0  0  0
   28.0894  -21.0210   -4.2848 C   0  0  0  0  0  0  0  0  0  0  0  0
   26.9663  -21.5530   -4.8641 C   0  0  0  0  0  0  0  0  0  0  0  0
   26.4127  -20.9477   -5.9654 C   0  0  0  0  0  0  0  0  0  0  0  0
   26.9388  -19.8033   -6.5349 C   0  0  0  0  0  0  0  0  0  0  0  0
   23.9400  -21.1415   -9.1039 C   0  0  0  0  0  0  0  0  0  0  0  0
   23.3251  -21.3368  -10.2160 O   0  0  0  0  0  0  0  0  0  0  0  0
   23.2392  -21.5723   -7.9520 N   0  0  0  0  0  0  0  0  0  0  0  0
   21.9492  -22.2840   -8.1107 C   0  0  1  0  0  0  0  0  0  0  0  0
   21.3960  -22.5374   -6.7036 C   0  0  0  0  0  0  0  0  0  0  0  0
   20.0769  -23.1860   -6.8167 C   0  0  0  0  0  0  0  0  0  0  0  0
   19.4380  -23.4724   -8.0401 C   0  0  0  0  0  0  0  0  0  0  0  0
   18.2688  -24.0576   -7.7850 N   0  0  0  0  0  0  0  0  0  0  0  0
   18.1190  -24.1641   -6.4665 C   0  0  0  0  0  0  0  0  0  0  0  0
   19.2036  -23.6407   -5.9087 N   0  0  0  0  0  0  0  0  0  0  0  0
   21.0000  -21.3586   -8.7727 C   0  0  0  0  0  0  0  0  0  0  0  0
   20.0252  -21.8701   -9.6660 O   0  0  0  0  0  0  0  0  0  0  0  0
   20.9554  -20.1199   -8.6326 O   0  0  0  0  0  0  0  0  0  0  0  0
  2  1  1  6
  2  3  1  0
  4  2  1  0
  4  5  1  6
  6  4  1  0
  6  7  2  0
  8  6  1  0
  9 10  1  6
  9  8  1  0
 11 10  1  0
 11 12  2  0
 13 12  1  0
 14 13  1  0
 15 14  2  0
 16 15  1  0
 17 16  2  0
 17 18  1  0
 18 19  2  0
 19 14  1  0
 19 11  1  0
 20  9  1  0
 21 20  2  0
 22 20  1  0
 23 24  1  1
 23 22  1  0
 24 25  1  0
 25 29  1  0
 26 25  2  0
 26 27  1  0
 27 28  1  0
 29 28  2  0
 30 31  1  0
 30 23  1  0
 32 30  2  0
M  END
$$$$
