VWH.pdb
     RDKit          3D

 32 34  0  0  1  0  0  0  0  0999 V2000
   26.6546  -18.7437  -15.1051 C   0  0  0  0  0  0  0  0  0  0  0  0
   28.0512  -19.0764  -14.5911 C   0  0  2  0  0  0  0  0  0  0  0  0
   29.1010  -18.6567  -15.5977 C   0  0  0  0  0  0  0  0  0  0  0  0
   28.1685  -20.5068  -14.1781 C   0  0  2  0  0  0  0  0  0  0  0  0
   27.8364  -21.3349  -15.3185 N   0  0  0  0  0  0  0  0  0  0  0  0
   27.2976  -20.8857  -13.0492 C   0  0  0  0  0  0  0  0  0  0  0  0
   26.2038  -21.4719  -13.2727 O   0  0  0  0  0  0  0  0  0  0  0  0
   27.6596  -20.6069  -11.7126 N   0  0  0  0  0  0  0  0  0  0  0  0
   26.7703  -20.9156  -10.5676 C   0  0  1  0  0  0  0  0  0  0  0  0
   27.5492  -20.7752   -9.3294 C   0  0  0  0  0  0  0  0  0  0  0  0
   26.8905  -20.6922   -8.0453 C   0  0  0  0  0  0  0  0  0  0  0  0
   25.6001  -21.0239   -7.6982 C   0  0  0  0  0  0  0  0  0  0  0  0
   25.4505  -20.7800   -6.3947 N   0  0  0  0  0  0  0  0  0  0  0  0
   26.5800  -20.3077   -5.8833 C   0  0  0  0  0  0  0  0  0  0  0  0
   26.9352  -19.9211   -4.5817 C   0  0  0  0  0  0  0  0  0  0  0  0
   28.2086  -19.4675   -4.2875 C   0  0  0  0  0  0  0  0  0  0  0  0
   29.1292  -19.4009   -5.3014 C   0  0  0  0  0  0  0  0  0  0  0  0
   28.7751  -19.7803   -6.5727 C   0  0  0  0  0  0  0  0  0  0  0  0
   27.5104  -20.2374   -6.8931 C   0  0  0  0  0  0  0  0  0  0  0  0
   25.5017  -20.2302  -10.7099 C   0  0  0  0  0  0  0  0  0  0  0  0
   25.4435  -18.9510  -10.5945 O   0  0  0  0  0  0  0  0  0  0  0  0
   24.2645  -20.8604  -10.9853 N   0  0  0  0  0  0  0  0  0  0  0  0
   23.0544  -20.0286  -11.1847 C   0  0  1  0  0  0  0  0  0  0  0  0
   22.5922  -20.2412  -12.6309 C   0  0  0  0  0  0  0  0  0  0  0  0
   21.3328  -19.5054  -12.8448 C   0  0  0  0  0  0  0  0  0  0  0  0
   21.0839  -18.2049  -12.3614 C   0  0  0  0  0  0  0  0  0  0  0  0
   19.8576  -17.8388  -12.7311 N   0  0  0  0  0  0  0  0  0  0  0  0
   19.3029  -18.8302  -13.4252 C   0  0  0  0  0  0  0  0  0  0  0  0
   20.1949  -19.8113  -13.4818 N   0  0  0  0  0  0  0  0  0  0  0  0
   21.9826  -20.5738  -10.3189 C   0  0  0  0  0  0  0  0  0  0  0  0
   22.0019  -21.9431   -9.9521 O   0  0  0  0  0  0  0  0  0  0  0  0
   21.0146  -19.9402   -9.8524 O   0  0  0  0  0  0  0  0  0  0  0  0
  2  1  1  6
  2  3  1  0
  4  2  1  0
  4  5  1  6
  6  4  1  0
  6  7  2  0
  8  6  1  0
  9 10  1  1
  9  8  1  0
 11 10  1  0
 11 12  2  0
 13 12  1  0
 14 13  1  0
 15 14  2  0
 16 15  1  0
 17 16  2  0
 17 18  1  0
 18 19  2  0
 19 14  1  0
 19 11  1  0
 20  9  1  0
 21 20  2  0
 22 20  1  0
 23 24  1  6
 23 22  1  0
 24 25  1  0
 25 29  1  0
 26 25  2  0
 26 27  1  0
 27 28  1  0
 29 28  2  0
 30 31  1  0
 30 23  1  0
 32 30  2  0
M  END
$$$$
