VWH.pdb
     RDKit          3D

 32 34  0  0  1  0  0  0  0  0999 V2000
   29.2947  -18.7578  -16.2390 C   0  0  0  0  0  0  0  0  0  0  0  0
   28.2571  -19.2673  -15.2446 C   0  0  2  0  0  0  0  0  0  0  0  0
   27.7357  -18.1300  -14.3923 C   0  0  0  0  0  0  0  0  0  0  0  0
   28.7695  -20.4184  -14.4427 C   0  0  2  0  0  0  0  0  0  0  0  0
   29.0380  -21.5157  -15.3483 N   0  0  0  0  0  0  0  0  0  0  0  0
   27.8440  -20.8868  -13.3937 C   0  0  0  0  0  0  0  0  0  0  0  0
   26.8368  -21.5760  -13.7109 O   0  0  0  0  0  0  0  0  0  0  0  0
   28.0578  -20.5812  -12.0313 N   0  0  0  0  0  0  0  0  0  0  0  0
   27.1040  -20.9785  -10.9686 C   0  0  1  0  0  0  0  0  0  0  0  0
   27.7463  -20.7532   -9.6663 C   0  0  0  0  0  0  0  0  0  0  0  0
   26.9642  -20.7162   -8.4511 C   0  0  0  0  0  0  0  0  0  0  0  0
   25.6388  -21.0308   -8.2509 C   0  0  0  0  0  0  0  0  0  0  0  0
   25.3647  -20.8475   -6.9578 N   0  0  0  0  0  0  0  0  0  0  0  0
   26.4470  -20.4306   -6.3134 C   0  0  0  0  0  0  0  0  0  0  0  0
   26.6782  -20.1180   -4.9649 C   0  0  0  0  0  0  0  0  0  0  0  0
   27.9250  -19.7129   -4.5232 C   0  0  0  0  0  0  0  0  0  0  0  0
   28.9437  -19.6205   -5.4363 C   0  0  0  0  0  0  0  0  0  0  0  0
   28.7107  -19.9276   -6.7542 C   0  0  0  0  0  0  0  0  0  0  0  0
   27.4752  -20.3350   -7.2213 C   0  0  0  0  0  0  0  0  0  0  0  0
   25.7891  -20.4311  -11.2350 C   0  0  0  0  0  0  0  0  0  0  0  0
   25.6297  -19.1599  -11.3428 O   0  0  0  0  0  0  0  0  0  0  0  0
   24.6101  -21.1959  -11.4049 N   0  0  0  0  0  0  0  0  0  0  0  0
   23.3486  -20.5126  -11.7757 C   0  0  1  0  0  0  0  0  0  0  0  0
   22.6274  -21.4113  -12.7869 C   0  0  0  0  0  0  0  0  0  0  0  0
   21.3352  -20.7954  -13.1396 C   0  0  0  0  0  0  0  0  0  0  0  0
   20.8704  -19.5738  -12.6118 C   0  0  0  0  0  0  0  0  0  0  0  0
   19.6760  -19.3075  -13.1384 N   0  0  0  0  0  0  0  0  0  0  0  0
   19.3459  -20.2887  -13.9754 C   0  0  0  0  0  0  0  0  0  0  0  0
   20.3443  -21.1630  -13.9623 N   0  0  0  0  0  0  0  0  0  0  0  0
   22.4881  -20.4653  -10.5703 C   0  0  0  0  0  0  0  0  0  0  0  0
   21.6871  -19.3224  -10.3214 O   0  0  0  0  0  0  0  0  0  0  0  0
   22.3806  -21.3553   -9.7029 O   0  0  0  0  0  0  0  0  0  0  0  0
  2  1  1  1
  2  3  1  0
  4  2  1  0
  4  5  1  6
  6  4  1  0
  6  7  2  0
  8  6  1  0
  9 10  1  1
  9  8  1  0
 11 10  1  0
 11 12  2  0
 13 12  1  0
 14 13  1  0
 15 14  2  0
 16 15  1  0
 17 16  2  0
 17 18  1  0
 18 19  2  0
 19 14  1  0
 19 11  1  0
 20  9  1  0
 21 20  2  0
 22 20  1  0
 23 24  1  6
 23 22  1  0
 24 25  1  0
 25 29  1  0
 26 25  2  0
 26 27  1  0
 27 28  1  0
 29 28  2  0
 30 31  1  0
 30 23  1  0
 32 30  2  0
M  END
$$$$
