TNK.pdb
     RDKit          3D

 25 24  0  0  1  0  0  0  0  0999 V2000
   26.1070  -19.0462  -16.9096 C   0  0  0  0  0  0  0  0  0  0  0  0
   27.1132  -20.1158  -17.2567 C   0  0  1  0  0  0  0  0  0  0  0  0
   28.0295  -19.5330  -18.1653 O   0  0  0  0  0  0  0  0  0  0  0  0
   27.8680  -20.6215  -16.0351 C   0  0  2  0  0  0  0  0  0  0  0  0
   28.7345  -21.7132  -16.5145 N   0  0  0  0  0  0  0  0  0  0  0  0
   26.9778  -21.1292  -14.9833 C   0  0  0  0  0  0  0  0  0  0  0  0
   26.6415  -22.3665  -15.0227 O   0  0  0  0  0  0  0  0  0  0  0  0
   25.4684  -21.8229   -9.5957 N   0  0  0  0  0  0  0  0  0  0  0  0
   25.0184  -20.8659  -10.5199 C   0  0  0  0  0  0  0  0  0  0  0  0
   23.8008  -20.4985  -10.3945 O   0  0  0  0  0  0  0  0  0  0  0  0
   25.8506  -20.3081  -11.5612 C   0  0  0  0  0  0  0  0  0  0  0  0
   25.6397  -20.8791  -12.9246 C   0  0  2  0  0  0  0  0  0  0  0  0
   26.4897  -20.3030  -13.9388 N   0  0  0  0  0  0  0  0  0  0  0  0
   24.2281  -20.7631  -13.3500 C   0  0  0  0  0  0  0  0  0  0  0  0
   23.7242  -19.6965  -13.8434 O   0  0  0  0  0  0  0  0  0  0  0  0
   23.2908  -21.8535  -13.2442 N   0  0  0  0  0  0  0  0  0  0  0  0
   21.8905  -21.6931  -13.6234 C   0  0  1  0  0  0  0  0  0  0  0  0
   21.2662  -23.0244  -13.9615 C   0  0  0  0  0  0  0  0  0  0  0  0
   19.8604  -22.9351  -14.4359 C   0  0  0  0  0  0  0  0  0  0  0  0
   19.3274  -24.2849  -14.8585 C   0  0  0  0  0  0  0  0  0  0  0  0
   17.8901  -24.1730  -15.3239 C   0  0  0  0  0  0  0  0  0  0  0  0
   17.3986  -25.4320  -15.8340 N   0  0  0  0  0  0  0  0  0  0  0  0
   21.1924  -20.9832  -12.5483 C   0  0  0  0  0  0  0  0  0  0  0  0
   20.4786  -19.8090  -12.7410 O   0  0  0  0  0  0  0  0  0  0  0  0
   21.2234  -21.4369  -11.3786 O   0  0  0  0  0  0  0  0  0  0  0  0
  2  1  1  1
  3  2  1  0
  4  2  1  0
  4  5  1  6
  6  4  1  0
  6  7  2  0
  9 11  1  0
  9  8  1  0
 10  9  2  0
 12 13  1  0
 12 11  1  1
 13  6  1  0
 14 12  1  0
 15 14  2  0
 16 14  1  0
 17 18  1  1
 17 16  1  0
 19 20  1  0
 19 18  1  0
 20 21  1  0
 21 22  1  0
 23 24  1  0
 23 17  1  0
 25 23  2  0
M  END
$$$$
