TNK.pdb
     RDKit          3D

 25 24  0  0  1  0  0  0  0  0999 V2000
   25.1325  -23.5179  -14.8968 C   0  0  0  0  0  0  0  0  0  0  0  0
   25.8024  -22.1952  -15.1773 C   0  0  1  0  0  0  0  0  0  0  0  0
   26.9186  -22.4716  -16.0034 O   0  0  0  0  0  0  0  0  0  0  0  0
   24.8791  -21.2161  -15.8891 C   0  0  2  0  0  0  0  0  0  0  0  0
   25.7004  -20.0313  -16.1962 N   0  0  0  0  0  0  0  0  0  0  0  0
   23.7293  -20.8152  -15.0683 C   0  0  0  0  0  0  0  0  0  0  0  0
   23.8999  -19.8808  -14.2062 O   0  0  0  0  0  0  0  0  0  0  0  0
   21.1741  -18.1105  -16.2215 N   0  0  0  0  0  0  0  0  0  0  0  0
   20.7579  -18.7293  -15.0314 C   0  0  0  0  0  0  0  0  0  0  0  0
   20.7283  -17.9824  -13.9949 O   0  0  0  0  0  0  0  0  0  0  0  0
   20.3788  -20.1210  -14.9452 C   0  0  0  0  0  0  0  0  0  0  0  0
   21.3884  -21.0222  -14.3143 C   0  0  2  0  0  0  0  0  0  0  0  0
   22.4538  -21.4210  -15.2025 N   0  0  0  0  0  0  0  0  0  0  0  0
   20.7560  -22.2298  -13.7409 C   0  0  0  0  0  0  0  0  0  0  0  0
   20.6762  -23.3465  -14.3584 O   0  0  0  0  0  0  0  0  0  0  0  0
   20.1701  -22.2511  -12.4237 N   0  0  0  0  0  0  0  0  0  0  0  0
   19.5549  -23.4596  -11.8837 C   0  0  1  0  0  0  0  0  0  0  0  0
   19.4778  -23.4004  -10.3780 C   0  0  0  0  0  0  0  0  0  0  0  0
   18.7168  -24.5190   -9.7626 C   0  0  0  0  0  0  0  0  0  0  0  0
   18.5550  -24.3299   -8.2717 C   0  0  0  0  0  0  0  0  0  0  0  0
   17.6636  -25.4065   -7.6875 C   0  0  0  0  0  0  0  0  0  0  0  0
   17.5893  -25.3097   -6.2480 N   0  0  0  0  0  0  0  0  0  0  0  0
   18.2497  -23.6465  -12.5228 C   0  0  0  0  0  0  0  0  0  0  0  0
   17.7289  -24.8888  -12.8557 O   0  0  0  0  0  0  0  0  0  0  0  0
   17.5407  -22.6478  -12.7969 O   0  0  0  0  0  0  0  0  0  0  0  0
  2  1  1  6
  3  2  1  0
  4  2  1  0
  4  5  1  1
  6  4  1  0
  6  7  2  0
  9 11  1  0
  9  8  1  0
 10  9  2  0
 12 13  1  0
 12 11  1  6
 13  6  1  0
 14 12  1  0
 15 14  2  0
 16 14  1  0
 17 18  1  1
 17 16  1  0
 19 20  1  0
 19 18  1  0
 20 21  1  0
 21 22  1  0
 23 24  1  0
 23 17  1  0
 25 23  2  0
M  END
$$$$
