TNK.pdb
     RDKit          3D

 25 24  0  0  1  0  0  0  0  0999 V2000
   16.4891  -11.1145  -10.7002 C   0  0  0  0  0  0  0  0  0  0  0  0
   15.0047  -10.9126  -10.8810 C   0  0  1  0  0  0  0  0  0  0  0  0
   14.3843  -12.1434  -10.5571 O   0  0  0  0  0  0  0  0  0  0  0  0
   14.4534   -9.8177   -9.9781 C   0  0  2  0  0  0  0  0  0  0  0  0
   13.0036   -9.7661  -10.2389 N   0  0  0  0  0  0  0  0  0  0  0  0
   15.0464   -8.5018  -10.2484 C   0  0  0  0  0  0  0  0  0  0  0  0
   14.7536   -7.9239  -11.3555 O   0  0  0  0  0  0  0  0  0  0  0  0
   17.6790   -4.0184  -10.1668 N   0  0  0  0  0  0  0  0  0  0  0  0
   17.0607   -4.2952   -8.9365 C   0  0  0  0  0  0  0  0  0  0  0  0
   17.0289   -3.3309   -8.0985 O   0  0  0  0  0  0  0  0  0  0  0  0
   16.4848   -5.5778   -8.6028 C   0  0  0  0  0  0  0  0  0  0  0  0
   16.5141   -6.5966   -9.6939 C   0  0  2  0  0  0  0  0  0  0  0  0
   15.9181   -7.8601   -9.3317 N   0  0  0  0  0  0  0  0  0  0  0  0
   17.8904   -6.8306  -10.1822 C   0  0  0  0  0  0  0  0  0  0  0  0
   18.7421   -7.5625   -9.5709 O   0  0  0  0  0  0  0  0  0  0  0  0
   18.3937   -6.2481  -11.4012 N   0  0  0  0  0  0  0  0  0  0  0  0
   19.6970   -6.6216  -11.9419 C   0  0  1  0  0  0  0  0  0  0  0  0
   19.5488   -7.5908  -13.0887 C   0  0  0  0  0  0  0  0  0  0  0  0
   20.8313   -7.9630  -13.7413 C   0  0  0  0  0  0  0  0  0  0  0  0
   20.6069   -8.8352  -14.9553 C   0  0  0  0  0  0  0  0  0  0  0  0
   21.9254   -9.1967  -15.6078 C   0  0  0  0  0  0  0  0  0  0  0  0
   21.7374  -10.1062  -16.7144 N   0  0  0  0  0  0  0  0  0  0  0  0
   20.4204   -5.4006  -12.3063 C   0  0  0  0  0  0  0  0  0  0  0  0
   21.7997   -5.2725  -12.2256 O   0  0  0  0  0  0  0  0  0  0  0  0
   19.7858   -4.3988  -12.7172 O   0  0  0  0  0  0  0  0  0  0  0  0
  2  1  1  1
  3  2  1  0
  4  2  1  0
  4  5  1  6
  6  4  1  0
  6  7  2  0
  9 11  1  0
  9  8  1  0
 10  9  2  0
 12 13  1  0
 12 11  1  1
 13  6  1  0
 14 12  1  0
 15 14  2  0
 16 14  1  0
 17 18  1  6
 17 16  1  0
 19 20  1  0
 19 18  1  0
 20 21  1  0
 21 22  1  0
 23 24  1  0
 23 17  1  0
 25 23  2  0
M  END
$$$$
