TNK.pdb
     RDKit          3D

 25 24  0  0  1  0  0  0  0  0999 V2000
   18.8391  -10.8588  -18.9095 C   0  0  0  0  0  0  0  0  0  0  0  0
   17.8821  -11.5437  -17.9651 C   0  0  1  0  0  0  0  0  0  0  0  0
   17.4879  -12.7514  -18.5903 O   0  0  0  0  0  0  0  0  0  0  0  0
   18.5199  -11.8582  -16.6190 C   0  0  2  0  0  0  0  0  0  0  0  0
   17.5032  -12.5972  -15.8491 N   0  0  0  0  0  0  0  0  0  0  0  0
   18.9144  -10.6532  -15.8782 C   0  0  0  0  0  0  0  0  0  0  0  0
   17.9886   -9.8600  -15.4792 O   0  0  0  0  0  0  0  0  0  0  0  0
   23.6791  -10.6362  -14.9365 N   0  0  0  0  0  0  0  0  0  0  0  0
   23.0549   -9.3809  -14.8535 C   0  0  0  0  0  0  0  0  0  0  0  0
   23.6348   -8.4271  -15.4757 O   0  0  0  0  0  0  0  0  0  0  0  0
   21.8326   -9.1437  -14.1202 C   0  0  0  0  0  0  0  0  0  0  0  0
   20.5889   -9.0985  -14.9453 C   0  0  2  0  0  0  0  0  0  0  0  0
   20.2700  -10.3482  -15.5931 N   0  0  0  0  0  0  0  0  0  0  0  0
   20.6497   -8.0259  -15.9616 C   0  0  0  0  0  0  0  0  0  0  0  0
   21.0114   -8.2196  -17.1726 O   0  0  0  0  0  0  0  0  0  0  0  0
   20.3023   -6.6571  -15.6708 N   0  0  0  0  0  0  0  0  0  0  0  0
   20.3657   -5.6212  -16.6971 C   0  0  1  0  0  0  0  0  0  0  0  0
   19.4710   -5.9605  -17.8637 C   0  0  0  0  0  0  0  0  0  0  0  0
   19.9972   -5.5218  -19.1827 C   0  0  0  0  0  0  0  0  0  0  0  0
   19.1162   -5.9896  -20.3184 C   0  0  0  0  0  0  0  0  0  0  0  0
   19.6411   -5.4868  -21.6475 C   0  0  0  0  0  0  0  0  0  0  0  0
   18.8367   -5.9622  -22.7492 N   0  0  0  0  0  0  0  0  0  0  0  0
   20.0476   -4.3307  -16.0804 C   0  0  0  0  0  0  0  0  0  0  0  0
   19.6904   -4.1841  -14.7477 O   0  0  0  0  0  0  0  0  0  0  0  0
   20.0915   -3.2825  -16.7694 O   0  0  0  0  0  0  0  0  0  0  0  0
  2  1  1  6
  3  2  1  0
  4  2  1  0
  4  5  1  1
  6  4  1  0
  6  7  2  0
  9 11  1  0
  9  8  1  0
 10  9  2  0
 12 13  1  0
 12 11  1  6
 13  6  1  0
 14 12  1  0
 15 14  2  0
 16 14  1  0
 17 18  1  6
 17 16  1  0
 19 20  1  0
 19 18  1  0
 20 21  1  0
 21 22  1  0
 23 24  1  0
 23 17  1  0
 25 23  2  0
M  END
$$$$
