TNK.pdb
     RDKit          3D

 25 24  0  0  1  0  0  0  0  0999 V2000
   23.2781  -26.0500  -16.5463 C   0  0  0  0  0  0  0  0  0  0  0  0
   24.6547  -25.5209  -16.2271 C   0  0  1  0  0  0  0  0  0  0  0  0
   25.4913  -25.8840  -17.3102 O   0  0  0  0  0  0  0  0  0  0  0  0
   24.6715  -24.0074  -16.0632 C   0  0  2  0  0  0  0  0  0  0  0  0
   26.0635  -23.6482  -15.7379 N   0  0  0  0  0  0  0  0  0  0  0  0
   23.7823  -23.5388  -14.9926 C   0  0  0  0  0  0  0  0  0  0  0  0
   24.1772  -23.6704  -13.7793 O   0  0  0  0  0  0  0  0  0  0  0  0
   23.2515  -19.7207  -13.8848 N   0  0  0  0  0  0  0  0  0  0  0  0
   22.0025  -20.2014  -13.4590 C   0  0  0  0  0  0  0  0  0  0  0  0
   21.5838  -19.7513  -12.3386 O   0  0  0  0  0  0  0  0  0  0  0  0
   21.2109  -21.1461  -14.2132 C   0  0  0  0  0  0  0  0  0  0  0  0
   21.6761  -22.5636  -14.1534 C   0  0  2  0  0  0  0  0  0  0  0  0
   22.5193  -22.9506  -15.2589 N   0  0  0  0  0  0  0  0  0  0  0  0
   20.5395  -23.5049  -14.0563 C   0  0  0  0  0  0  0  0  0  0  0  0
   19.8149  -23.8430  -15.0540 O   0  0  0  0  0  0  0  0  0  0  0  0
   20.1483  -24.1280  -12.8164 N   0  0  0  0  0  0  0  0  0  0  0  0
   19.0570  -25.0958  -12.7619 C   0  0  1  0  0  0  0  0  0  0  0  0
   19.2908  -26.1132  -11.6725 C   0  0  0  0  0  0  0  0  0  0  0  0
   18.3011  -27.2220  -11.6519 C   0  0  0  0  0  0  0  0  0  0  0  0
   18.5258  -28.1486  -10.4790 C   0  0  0  0  0  0  0  0  0  0  0  0
   19.7087  -29.0601  -10.7338 C   0  0  0  0  0  0  0  0  0  0  0  0
   19.9242  -29.9693   -9.6320 N   0  0  0  0  0  0  0  0  0  0  0  0
   17.7933  -24.3692  -12.6133 C   0  0  0  0  0  0  0  0  0  0  0  0
   16.5799  -24.8318  -13.1021 O   0  0  0  0  0  0  0  0  0  0  0  0
   17.7751  -23.2654  -12.0164 O   0  0  0  0  0  0  0  0  0  0  0  0
  2  1  1  6
  3  2  1  0
  4  2  1  0
  4  5  1  1
  6  4  1  0
  6  7  2  0
  9 11  1  0
  9  8  1  0
 10  9  2  0
 12 13  1  0
 12 11  1  6
 13  6  1  0
 14 12  1  0
 15 14  2  0
 16 14  1  0
 17 18  1  1
 17 16  1  0
 19 20  1  0
 19 18  1  0
 20 21  1  0
 21 22  1  0
 23 24  1  0
 23 17  1  0
 25 23  2  0
M  END
$$$$
