TNK.pdb
     RDKit          3D

 25 24  0  0  1  0  0  0  0  0999 V2000
   17.3773  -11.9324  -16.8622 C   0  0  0  0  0  0  0  0  0  0  0  0
   18.4745  -12.8240  -16.3347 C   0  0  1  0  0  0  0  0  0  0  0  0
   18.4271  -14.0191  -17.0925 O   0  0  0  0  0  0  0  0  0  0  0  0
   19.8530  -12.1932  -16.4745 C   0  0  2  0  0  0  0  0  0  0  0  0
   20.8126  -13.1976  -15.9817 N   0  0  0  0  0  0  0  0  0  0  0  0
   19.9967  -10.9560  -15.6966 C   0  0  0  0  0  0  0  0  0  0  0  0
   20.0740  -11.0516  -14.4198 O   0  0  0  0  0  0  0  0  0  0  0  0
   23.0628   -8.9993  -16.0685 N   0  0  0  0  0  0  0  0  0  0  0  0
   22.4802   -7.7664  -16.4045 C   0  0  0  0  0  0  0  0  0  0  0  0
   23.2591   -6.9105  -16.9468 O   0  0  0  0  0  0  0  0  0  0  0  0
   21.0907   -7.4487  -16.1677 C   0  0  0  0  0  0  0  0  0  0  0  0
   20.2963   -8.5151  -15.4886 C   0  0  2  0  0  0  0  0  0  0  0  0
   20.0550   -9.6778  -16.3088 N   0  0  0  0  0  0  0  0  0  0  0  0
   19.0047   -7.9960  -14.9892 C   0  0  0  0  0  0  0  0  0  0  0  0
   17.9579   -7.8890  -15.7156 O   0  0  0  0  0  0  0  0  0  0  0  0
   18.8137   -7.5625  -13.6275 N   0  0  0  0  0  0  0  0  0  0  0  0
   17.5042   -7.1415  -13.1392 C   0  0  1  0  0  0  0  0  0  0  0  0
   17.1776   -7.8074  -11.8253 C   0  0  0  0  0  0  0  0  0  0  0  0
   15.8662   -7.4093  -11.2500 C   0  0  0  0  0  0  0  0  0  0  0  0
   15.6755   -7.9665   -9.8579 C   0  0  0  0  0  0  0  0  0  0  0  0
   14.2670   -7.7074   -9.3641 C   0  0  0  0  0  0  0  0  0  0  0  0
   14.1070   -8.1064   -7.9849 N   0  0  0  0  0  0  0  0  0  0  0  0
   17.4791   -5.6782  -13.0680 C   0  0  0  0  0  0  0  0  0  0  0  0
   16.3117   -4.9286  -13.0907 O   0  0  0  0  0  0  0  0  0  0  0  0
   18.5559   -5.0394  -12.9815 O   0  0  0  0  0  0  0  0  0  0  0  0
  2  1  1  6
  3  2  1  0
  4  2  1  0
  4  5  1  1
  6  4  1  0
  6  7  2  0
  9 11  1  0
  9  8  1  0
 10  9  2  0
 12 13  1  0
 12 11  1  6
 13  6  1  0
 14 12  1  0
 15 14  2  0
 16 14  1  0
 17 18  1  1
 17 16  1  0
 19 20  1  0
 19 18  1  0
 20 21  1  0
 21 22  1  0
 23 24  1  0
 23 17  1  0
 25 23  2  0
M  END
$$$$
