TNK.pdb
     RDKit          3D

 25 24  0  0  1  0  0  0  0  0999 V2000
   25.0819  -24.0704  -18.9257 C   0  0  0  0  0  0  0  0  0  0  0  0
   26.1465  -24.7190  -18.0755 C   0  0  1  0  0  0  0  0  0  0  0  0
   26.7768  -25.6938  -18.8863 O   0  0  0  0  0  0  0  0  0  0  0  0
   27.1872  -23.7211  -17.5868 C   0  0  2  0  0  0  0  0  0  0  0  0
   28.0917  -24.4764  -16.7013 N   0  0  0  0  0  0  0  0  0  0  0  0
   26.5986  -22.5997  -16.8436 C   0  0  0  0  0  0  0  0  0  0  0  0
   26.4842  -22.7130  -15.5709 O   0  0  0  0  0  0  0  0  0  0  0  0
   28.4448  -19.8039  -15.9750 N   0  0  0  0  0  0  0  0  0  0  0  0
   27.7124  -18.8348  -16.6799 C   0  0  0  0  0  0  0  0  0  0  0  0
   28.3495  -17.7720  -16.9926 O   0  0  0  0  0  0  0  0  0  0  0  0
   26.3239  -18.9937  -17.0468 C   0  0  0  0  0  0  0  0  0  0  0  0
   25.7094  -20.3034  -16.6774 C   0  0  2  0  0  0  0  0  0  0  0  0
   26.1627  -21.4113  -17.4836 N   0  0  0  0  0  0  0  0  0  0  0  0
   24.2324  -20.2424  -16.7215 C   0  0  0  0  0  0  0  0  0  0  0  0
   23.5635  -20.0888  -17.8003 O   0  0  0  0  0  0  0  0  0  0  0  0
   23.4129  -20.3526  -15.5404 N   0  0  0  0  0  0  0  0  0  0  0  0
   21.9562  -20.3010  -15.6171 C   0  0  1  0  0  0  0  0  0  0  0  0
   21.3444  -21.6010  -15.1565 C   0  0  0  0  0  0  0  0  0  0  0  0
   19.8581  -21.6046  -15.1456 C   0  0  0  0  0  0  0  0  0  0  0  0
   19.3059  -22.9712  -14.8102 C   0  0  0  0  0  0  0  0  0  0  0  0
   17.7911  -22.9528  -14.8091 C   0  0  0  0  0  0  0  0  0  0  0  0
   17.2455  -24.2574  -14.5136 N   0  0  0  0  0  0  0  0  0  0  0  0
   21.4879  -19.1397  -14.8561 C   0  0  0  0  0  0  0  0  0  0  0  0
   20.2385  -18.5614  -15.0296 O   0  0  0  0  0  0  0  0  0  0  0  0
   22.2345  -18.6169  -13.9934 O   0  0  0  0  0  0  0  0  0  0  0  0
  2  1  1  6
  3  2  1  0
  4  2  1  0
  4  5  1  1
  6  4  1  0
  6  7  2  0
  9 11  1  0
  9  8  1  0
 10  9  2  0
 12 13  1  0
 12 11  1  6
 13  6  1  0
 14 12  1  0
 15 14  2  0
 16 14  1  0
 17 18  1  1
 17 16  1  0
 19 20  1  0
 19 18  1  0
 20 21  1  0
 21 22  1  0
 23 24  1  0
 23 17  1  0
 25 23  2  0
M  END
$$$$
