TNK.pdb
     RDKit          3D

 25 24  0  0  1  0  0  0  0  0999 V2000
   27.2936  -24.5654  -18.3435 C   0  0  0  0  0  0  0  0  0  0  0  0
   26.3736  -23.5125  -17.7763 C   0  0  1  0  0  0  0  0  0  0  0  0
   26.0135  -23.9442  -16.4767 O   0  0  0  0  0  0  0  0  0  0  0  0
   27.0398  -22.1465  -17.6866 C   0  0  2  0  0  0  0  0  0  0  0  0
   28.2012  -22.3173  -16.7953 N   0  0  0  0  0  0  0  0  0  0  0  0
   26.1517  -21.1124  -17.1405 C   0  0  0  0  0  0  0  0  0  0  0  0
   26.3602  -20.7102  -15.9404 O   0  0  0  0  0  0  0  0  0  0  0  0
   27.2729  -17.5358  -17.8625 N   0  0  0  0  0  0  0  0  0  0  0  0
   26.0233  -17.5917  -17.2240 C   0  0  0  0  0  0  0  0  0  0  0  0
   25.9899  -17.1550  -16.0235 O   0  0  0  0  0  0  0  0  0  0  0  0
   24.8274  -18.1041  -17.8528 C   0  0  0  0  0  0  0  0  0  0  0  0
   24.3581  -19.4302  -17.3522 C   0  0  2  0  0  0  0  0  0  0  0  0
   25.0877  -20.5520  -17.8928 N   0  0  0  0  0  0  0  0  0  0  0  0
   22.9133  -19.6247  -17.6009 C   0  0  0  0  0  0  0  0  0  0  0  0
   22.4436  -20.1338  -18.6756 O   0  0  0  0  0  0  0  0  0  0  0  0
   21.9015  -19.2538  -16.6432 N   0  0  0  0  0  0  0  0  0  0  0  0
   20.4929  -19.5659  -16.8645 C   0  0  1  0  0  0  0  0  0  0  0  0
   19.8134  -19.9437  -15.5714 C   0  0  0  0  0  0  0  0  0  0  0  0
   18.3812  -20.3122  -15.7209 C   0  0  0  0  0  0  0  0  0  0  0  0
   17.7147  -20.5164  -14.3797 C   0  0  0  0  0  0  0  0  0  0  0  0
   16.2657  -20.9216  -14.5563 C   0  0  0  0  0  0  0  0  0  0  0  0
   15.5383  -20.8446  -13.3105 N   0  0  0  0  0  0  0  0  0  0  0  0
   19.8615  -18.4287  -17.5390 C   0  0  0  0  0  0  0  0  0  0  0  0
   18.7409  -18.5426  -18.3494 O   0  0  0  0  0  0  0  0  0  0  0  0
   20.3370  -17.2761  -17.3958 O   0  0  0  0  0  0  0  0  0  0  0  0
  2  1  1  1
  3  2  1  0
  4  2  1  0
  4  5  1  1
  6  4  1  0
  6  7  2  0
  9 11  1  0
  9  8  1  0
 10  9  2  0
 12 13  1  0
 12 11  1  6
 13  6  1  0
 14 12  1  0
 15 14  2  0
 16 14  1  0
 17 18  1  1
 17 16  1  0
 19 20  1  0
 19 18  1  0
 20 21  1  0
 21 22  1  0
 23 24  1  0
 23 17  1  0
 25 23  2  0
M  END
$$$$
