TNK.pdb
     RDKit          3D

 25 24  0  0  1  0  0  0  0  0999 V2000
   25.0018   -9.3668  -18.4491 C   0  0  0  0  0  0  0  0  0  0  0  0
   24.4628  -10.7168  -18.0443 C   0  0  1  0  0  0  0  0  0  0  0  0
   25.5557  -11.6165  -18.0731 O   0  0  0  0  0  0  0  0  0  0  0  0
   23.8565  -10.7052  -16.6479 C   0  0  2  0  0  0  0  0  0  0  0  0
   23.4862  -12.1010  -16.3528 N   0  0  0  0  0  0  0  0  0  0  0  0
   22.6657   -9.8516  -16.5491 C   0  0  0  0  0  0  0  0  0  0  0  0
   21.6136  -10.2069  -17.1911 O   0  0  0  0  0  0  0  0  0  0  0  0
   19.9189   -9.6477  -14.2791 N   0  0  0  0  0  0  0  0  0  0  0  0
   20.2497   -8.3886  -13.7521 C   0  0  0  0  0  0  0  0  0  0  0  0
   19.8608   -8.1648  -12.5555 O   0  0  0  0  0  0  0  0  0  0  0  0
   20.9830   -7.3831  -14.4864 C   0  0  0  0  0  0  0  0  0  0  0  0
   21.4857   -7.8078  -15.8267 C   0  0  2  0  0  0  0  0  0  0  0  0
   22.6457   -8.6647  -15.7726 N   0  0  0  0  0  0  0  0  0  0  0  0
   21.7810   -6.6440  -16.6902 C   0  0  0  0  0  0  0  0  0  0  0  0
   22.8652   -5.9699  -16.6209 O   0  0  0  0  0  0  0  0  0  0  0  0
   20.8627   -6.1661  -17.6937 N   0  0  0  0  0  0  0  0  0  0  0  0
   21.1798   -5.0106  -18.5272 C   0  0  1  0  0  0  0  0  0  0  0  0
   20.5525   -5.1410  -19.8932 C   0  0  0  0  0  0  0  0  0  0  0  0
   20.8279   -3.9974  -20.8017 C   0  0  0  0  0  0  0  0  0  0  0  0
   20.1735   -4.1867  -22.1511 C   0  0  0  0  0  0  0  0  0  0  0  0
   20.5077   -3.0347  -23.0763 C   0  0  0  0  0  0  0  0  0  0  0  0
   19.7760   -3.1233  -24.3188 N   0  0  0  0  0  0  0  0  0  0  0  0
   20.7727   -3.7951  -17.8174 C   0  0  0  0  0  0  0  0  0  0  0  0
   21.3974   -2.5666  -17.9784 O   0  0  0  0  0  0  0  0  0  0  0  0
   19.8101   -3.8353  -17.0131 O   0  0  0  0  0  0  0  0  0  0  0  0
  2  1  1  1
  3  2  1  0
  4  2  1  0
  4  5  1  6
  6  4  1  0
  6  7  2  0
  9 11  1  0
  9  8  1  0
 10  9  2  0
 12 13  1  0
 12 11  1  1
 13  6  1  0
 14 12  1  0
 15 14  2  0
 16 14  1  0
 17 18  1  6
 17 16  1  0
 19 20  1  0
 19 18  1  0
 20 21  1  0
 21 22  1  0
 23 24  1  0
 23 17  1  0
 25 23  2  0
M  END
$$$$
