TNK.pdb
     RDKit          3D

 25 24  0  0  1  0  0  0  0  0999 V2000
   26.7763  -18.6121  -17.2787 C   0  0  0  0  0  0  0  0  0  0  0  0
   27.2045  -18.8233  -15.8473 C   0  0  1  0  0  0  0  0  0  0  0  0
   28.5660  -19.2104  -15.8829 O   0  0  0  0  0  0  0  0  0  0  0  0
   27.0612  -17.5624  -15.0063 C   0  0  2  0  0  0  0  0  0  0  0  0
   27.4789  -17.9329  -13.6421 N   0  0  0  0  0  0  0  0  0  0  0  0
   25.6854  -17.0501  -14.9746 C   0  0  0  0  0  0  0  0  0  0  0  0
   24.9031  -17.4780  -14.0524 O   0  0  0  0  0  0  0  0  0  0  0  0
   21.8099  -12.8868  -15.2691 N   0  0  0  0  0  0  0  0  0  0  0  0
   22.2638  -13.7817  -16.2517 C   0  0  0  0  0  0  0  0  0  0  0  0
   21.3923  -14.1621  -17.1055 O   0  0  0  0  0  0  0  0  0  0  0  0
   23.6238  -14.2644  -16.3252 C   0  0  0  0  0  0  0  0  0  0  0  0
   23.8368  -15.6573  -15.8316 C   0  0  2  0  0  0  0  0  0  0  0  0
   25.2054  -16.1069  -15.9191 N   0  0  0  0  0  0  0  0  0  0  0  0
   22.9625  -16.6221  -16.5330 C   0  0  0  0  0  0  0  0  0  0  0  0
   23.2937  -17.2195  -17.6138 O   0  0  0  0  0  0  0  0  0  0  0  0
   21.6497  -16.9751  -16.0528 N   0  0  0  0  0  0  0  0  0  0  0  0
   20.8063  -17.9252  -16.7715 C   0  0  1  0  0  0  0  0  0  0  0  0
   19.9856  -18.7522  -15.8128 C   0  0  0  0  0  0  0  0  0  0  0  0
   19.1293  -19.7746  -16.4691 C   0  0  0  0  0  0  0  0  0  0  0  0
   18.2750  -20.5144  -15.4653 C   0  0  0  0  0  0  0  0  0  0  0  0
   17.4050  -21.5443  -16.1562 C   0  0  0  0  0  0  0  0  0  0  0  0
   16.4558  -22.1356  -15.2417 N   0  0  0  0  0  0  0  0  0  0  0  0
   19.9930  -17.1885  -17.7425 C   0  0  0  0  0  0  0  0  0  0  0  0
   19.1850  -16.1116  -17.4069 O   0  0  0  0  0  0  0  0  0  0  0  0
   20.0065  -17.5262  -18.9512 O   0  0  0  0  0  0  0  0  0  0  0  0
  2  1  1  6
  3  2  1  0
  4  2  1  0
  4  5  1  1
  6  4  1  0
  6  7  2  0
  9 11  1  0
  9  8  1  0
 10  9  2  0
 12 13  1  0
 12 11  1  6
 13  6  1  0
 14 12  1  0
 15 14  2  0
 16 14  1  0
 17 18  1  1
 17 16  1  0
 19 20  1  0
 19 18  1  0
 20 21  1  0
 21 22  1  0
 23 24  1  0
 23 17  1  0
 25 23  2  0
M  END
$$$$
