TNK.pdb
     RDKit          3D

 25 24  0  0  1  0  0  0  0  0999 V2000
   15.9798   -8.5788  -15.1980 C   0  0  0  0  0  0  0  0  0  0  0  0
   16.9112   -9.7658  -15.2218 C   0  0  1  0  0  0  0  0  0  0  0  0
   16.7382  -10.3935  -16.4791 O   0  0  0  0  0  0  0  0  0  0  0  0
   18.3700   -9.3627  -15.0566 C   0  0  2  0  0  0  0  0  0  0  0  0
   19.1517  -10.6074  -15.1671 N   0  0  0  0  0  0  0  0  0  0  0  0
   18.6437   -8.7262  -13.7619 C   0  0  0  0  0  0  0  0  0  0  0  0
   18.4806   -9.4258  -12.6991 O   0  0  0  0  0  0  0  0  0  0  0  0
   22.1424   -7.3376  -12.5921 N   0  0  0  0  0  0  0  0  0  0  0  0
   21.6601   -6.0186  -12.5904 C   0  0  0  0  0  0  0  0  0  0  0  0
   22.5259   -5.1075  -12.8216 O   0  0  0  0  0  0  0  0  0  0  0  0
   20.2781   -5.6739  -12.3466 C   0  0  0  0  0  0  0  0  0  0  0  0
   19.3220   -6.8207  -12.3475 C   0  0  2  0  0  0  0  0  0  0  0  0
   19.0801   -7.3808  -13.6554 N   0  0  0  0  0  0  0  0  0  0  0  0
   18.0298   -6.4514  -11.7303 C   0  0  0  0  0  0  0  0  0  0  0  0
   17.1558   -5.7173  -12.3065 O   0  0  0  0  0  0  0  0  0  0  0  0
   17.6414   -6.8925  -10.4137 N   0  0  0  0  0  0  0  0  0  0  0  0
   16.3689   -6.4921   -9.8214 C   0  0  1  0  0  0  0  0  0  0  0  0
   15.5438   -7.6985   -9.4468 C   0  0  0  0  0  0  0  0  0  0  0  0
   14.2318   -7.3714   -8.8295 C   0  0  0  0  0  0  0  0  0  0  0  0
   13.4527   -8.6189   -8.4810 C   0  0  0  0  0  0  0  0  0  0  0  0
   12.0747   -8.2637   -7.9614 C   0  0  0  0  0  0  0  0  0  0  0  0
   11.3094   -9.4456   -7.6380 N   0  0  0  0  0  0  0  0  0  0  0  0
   16.6385   -5.6016   -8.6895 C   0  0  0  0  0  0  0  0  0  0  0  0
   17.8781   -5.4947   -8.0753 O   0  0  0  0  0  0  0  0  0  0  0  0
   15.7184   -4.8839   -8.2275 O   0  0  0  0  0  0  0  0  0  0  0  0
  2  1  1  6
  3  2  1  0
  4  2  1  0
  4  5  1  1
  6  4  1  0
  6  7  2  0
  9 11  1  0
  9  8  1  0
 10  9  2  0
 12 13  1  0
 12 11  1  6
 13  6  1  0
 14 12  1  0
 15 14  2  0
 16 14  1  0
 17 18  1  1
 17 16  1  0
 19 20  1  0
 19 18  1  0
 20 21  1  0
 21 22  1  0
 23 24  1  0
 23 17  1  0
 25 23  2  0
M  END
$$$$
