TNK.pdb
     RDKit          3D

 25 24  0  0  1  0  0  0  0  0999 V2000
   13.1891   -9.7828  -14.1110 C   0  0  0  0  0  0  0  0  0  0  0  0
   13.5562  -11.2420  -13.9974 C   0  0  1  0  0  0  0  0  0  0  0  0
   12.8284  -11.9240  -15.0023 O   0  0  0  0  0  0  0  0  0  0  0  0
   15.0453  -11.4837  -14.2021 C   0  0  2  0  0  0  0  0  0  0  0  0
   15.2507  -12.9328  -14.0269 N   0  0  0  0  0  0  0  0  0  0  0  0
   15.8804  -10.7514  -13.2416 C   0  0  0  0  0  0  0  0  0  0  0  0
   15.9623  -11.2050  -12.0445 O   0  0  0  0  0  0  0  0  0  0  0  0
   20.3896   -7.9182  -11.4293 N   0  0  0  0  0  0  0  0  0  0  0  0
   19.2868   -7.3985  -12.1266 C   0  0  0  0  0  0  0  0  0  0  0  0
   18.9662   -6.1938  -11.8457 O   0  0  0  0  0  0  0  0  0  0  0  0
   18.5366   -8.1487  -13.1077 C   0  0  0  0  0  0  0  0  0  0  0  0
   17.3427   -8.8755  -12.5826 C   0  0  2  0  0  0  0  0  0  0  0  0
   16.5909   -9.5760  -13.5961 N   0  0  0  0  0  0  0  0  0  0  0  0
   16.4364   -7.9698  -11.8441 C   0  0  0  0  0  0  0  0  0  0  0  0
   15.6065   -7.1818  -12.4142 O   0  0  0  0  0  0  0  0  0  0  0  0
   16.4107   -7.8980  -10.4044 N   0  0  0  0  0  0  0  0  0  0  0  0
   15.4703   -7.0302   -9.7022 C   0  0  1  0  0  0  0  0  0  0  0  0
   14.5775   -7.8301   -8.7859 C   0  0  0  0  0  0  0  0  0  0  0  0
   13.5592   -7.0199   -8.0677 C   0  0  0  0  0  0  0  0  0  0  0  0
   12.6664   -7.8828   -7.2056 C   0  0  0  0  0  0  0  0  0  0  0  0
   11.6321   -7.0383   -6.4900 C   0  0  0  0  0  0  0  0  0  0  0  0
   10.4055   -6.9476   -7.2479 N   0  0  0  0  0  0  0  0  0  0  0  0
   16.2265   -5.9859   -9.0061 C   0  0  0  0  0  0  0  0  0  0  0  0
   17.6090   -5.9889   -8.8879 O   0  0  0  0  0  0  0  0  0  0  0  0
   15.6190   -5.0234   -8.4773 O   0  0  0  0  0  0  0  0  0  0  0  0
  2  1  1  6
  3  2  1  0
  4  2  1  0
  4  5  1  1
  6  4  1  0
  6  7  2  0
  9 11  1  0
  9  8  1  0
 10  9  2  0
 12 13  1  0
 12 11  1  6
 13  6  1  0
 14 12  1  0
 15 14  2  0
 16 14  1  0
 17 18  1  1
 17 16  1  0
 19 20  1  0
 19 18  1  0
 20 21  1  0
 21 22  1  0
 23 24  1  0
 23 17  1  0
 25 23  2  0
M  END
$$$$
