TNK.pdb
     RDKit          3D

 25 24  0  0  1  0  0  0  0  0999 V2000
   26.2369  -14.8370  -15.2637 C   0  0  0  0  0  0  0  0  0  0  0  0
   26.1752  -16.1285  -16.0415 C   0  0  1  0  0  0  0  0  0  0  0  0
   27.3699  -16.8328  -15.7561 O   0  0  0  0  0  0  0  0  0  0  0  0
   24.9795  -16.9857  -15.6499 C   0  0  2  0  0  0  0  0  0  0  0  0
   25.1496  -18.2688  -16.3551 N   0  0  0  0  0  0  0  0  0  0  0  0
   23.6956  -16.3838  -16.0318 C   0  0  0  0  0  0  0  0  0  0  0  0
   23.3468  -16.4381  -17.2650 O   0  0  0  0  0  0  0  0  0  0  0  0
   20.4474  -17.8374  -15.5957 N   0  0  0  0  0  0  0  0  0  0  0  0
   19.9511  -16.8775  -14.6987 C   0  0  0  0  0  0  0  0  0  0  0  0
   19.0243  -17.2741  -13.9133 O   0  0  0  0  0  0  0  0  0  0  0  0
   20.4333  -15.5167  -14.6379 C   0  0  0  0  0  0  0  0  0  0  0  0
   21.5853  -15.2044  -15.5350 C   0  0  2  0  0  0  0  0  0  0  0  0
   22.8418  -15.7566  -15.0886 N   0  0  0  0  0  0  0  0  0  0  0  0
   21.7386  -13.7472  -15.7354 C   0  0  0  0  0  0  0  0  0  0  0  0
   22.0883  -12.9394  -14.8081 O   0  0  0  0  0  0  0  0  0  0  0  0
   21.5050  -13.1071  -17.0060 N   0  0  0  0  0  0  0  0  0  0  0  0
   21.7386  -11.6785  -17.1930 C   0  0  1  0  0  0  0  0  0  0  0  0
   21.7765  -11.3244  -18.6592 C   0  0  0  0  0  0  0  0  0  0  0  0
   22.9434  -11.8833  -19.3909 C   0  0  0  0  0  0  0  0  0  0  0  0
   22.8271  -11.6589  -20.8811 C   0  0  0  0  0  0  0  0  0  0  0  0
   23.9923  -12.2934  -21.6123 C   0  0  0  0  0  0  0  0  0  0  0  0
   23.8014  -12.2598  -23.0439 N   0  0  0  0  0  0  0  0  0  0  0  0
   20.7213  -10.9355  -16.4447 C   0  0  0  0  0  0  0  0  0  0  0  0
   20.9028   -9.6404  -15.9808 O   0  0  0  0  0  0  0  0  0  0  0  0
   19.6153  -11.4729  -16.1936 O   0  0  0  0  0  0  0  0  0  0  0  0
  2  1  1  1
  3  2  1  0
  4  2  1  0
  4  5  1  6
  6  4  1  0
  6  7  2  0
  9 11  1  0
  9  8  1  0
 10  9  2  0
 12 13  1  0
 12 11  1  1
 13  6  1  0
 14 12  1  0
 15 14  2  0
 16 14  1  0
 17 18  1  6
 17 16  1  0
 19 20  1  0
 19 18  1  0
 20 21  1  0
 21 22  1  0
 23 24  1  0
 23 17  1  0
 25 23  2  0
M  END
$$$$
