TNK.pdb
     RDKit          3D

 25 24  0  0  1  0  0  0  0  0999 V2000
   27.8934  -19.3197   -7.4150 C   0  0  0  0  0  0  0  0  0  0  0  0
   26.8535  -20.4120   -7.3674 C   0  0  1  0  0  0  0  0  0  0  0  0
   26.3964  -20.4804   -6.0290 O   0  0  0  0  0  0  0  0  0  0  0  0
   25.6743  -20.1316   -8.2886 C   0  0  2  0  0  0  0  0  0  0  0  0
   24.5935  -21.0344   -7.8532 N   0  0  0  0  0  0  0  0  0  0  0  0
   25.9816  -20.3825   -9.7025 C   0  0  0  0  0  0  0  0  0  0  0  0
   27.2145  -20.4177  -10.0550 O   0  0  0  0  0  0  0  0  0  0  0  0
   24.8161  -23.1888  -14.7687 N   0  0  0  0  0  0  0  0  0  0  0  0
   25.6159  -22.4553  -13.8773 C   0  0  0  0  0  0  0  0  0  0  0  0
   26.7073  -21.9945  -14.3566 O   0  0  0  0  0  0  0  0  0  0  0  0
   25.2603  -22.2154  -12.4974 C   0  0  0  0  0  0  0  0  0  0  0  0
   25.3460  -20.7929  -12.0517 C   0  0  2  0  0  0  0  0  0  0  0  0
   24.9686  -20.5870  -10.6740 N   0  0  0  0  0  0  0  0  0  0  0  0
   24.5393  -19.9034  -12.9149 C   0  0  0  0  0  0  0  0  0  0  0  0
   23.2743  -19.7605  -12.7958 O   0  0  0  0  0  0  0  0  0  0  0  0
   25.1161  -19.1135  -13.9741 N   0  0  0  0  0  0  0  0  0  0  0  0
   24.2816  -18.3354  -14.8844 C   0  0  1  0  0  0  0  0  0  0  0  0
   25.1280  -17.5539  -15.8589 C   0  0  0  0  0  0  0  0  0  0  0  0
   24.3506  -16.6816  -16.7776 C   0  0  0  0  0  0  0  0  0  0  0  0
   25.2516  -15.9403  -17.7386 C   0  0  0  0  0  0  0  0  0  0  0  0
   24.4359  -15.1019  -18.7012 C   0  0  0  0  0  0  0  0  0  0  0  0
   25.2760  -14.2240  -19.4827 N   0  0  0  0  0  0  0  0  0  0  0  0
   23.3325  -19.2400  -15.5386 C   0  0  0  0  0  0  0  0  0  0  0  0
   21.9585  -19.0465  -15.5317 O   0  0  0  0  0  0  0  0  0  0  0  0
   23.7546  -20.2538  -16.1461 O   0  0  0  0  0  0  0  0  0  0  0  0
  2  1  1  1
  3  2  1  0
  4  2  1  0
  4  5  1  1
  6  4  1  0
  6  7  2  0
  9 11  1  0
  9  8  1  0
 10  9  2  0
 12 13  1  0
 12 11  1  6
 13  6  1  0
 14 12  1  0
 15 14  2  0
 16 14  1  0
 17 18  1  6
 17 16  1  0
 19 20  1  0
 19 18  1  0
 20 21  1  0
 21 22  1  0
 23 24  1  0
 23 17  1  0
 25 23  2  0
M  END
$$$$
