GCC.pdb
     RDKit          3D

 17 16  0  0  1  0  0  0  0  0999 V2000
   17.9524  -10.4923  -17.7170 N   0  0  0  0  0  0  0  0  0  0  0  0
   18.3552   -9.2537  -18.3010 C   0  0  0  0  0  0  0  0  0  0  0  0
   18.7860   -8.3277  -17.2212 C   0  0  0  0  0  0  0  0  0  0  0  0
   17.9256   -7.9031  -16.4085 O   0  0  0  0  0  0  0  0  0  0  0  0
   20.1230   -7.9018  -17.0665 N   0  0  0  0  0  0  0  0  0  0  0  0
   20.4002   -6.8939  -16.0365 C   0  0  1  0  0  0  0  0  0  0  0  0
   21.8632   -7.0326  -15.5997 C   0  0  0  0  0  0  0  0  0  0  0  0
   22.0599   -8.3492  -14.4108 S   0  0  0  0  0  0  0  0  0  0  0  0
   20.2795   -5.5866  -16.7293 C   0  0  0  0  0  0  0  0  0  0  0  0
   20.4267   -5.5023  -18.0044 O   0  0  0  0  0  0  0  0  0  0  0  0
   19.9990   -4.3504  -16.0820 N   0  0  0  0  0  0  0  0  0  0  0  0
   19.7469   -3.1304  -16.8690 C   0  0  1  0  0  0  0  0  0  0  0  0
   18.6033   -3.3620  -17.8340 C   0  0  0  0  0  0  0  0  0  0  0  0
   18.0761   -1.8114  -18.6061 S   0  0  0  0  0  0  0  0  0  0  0  0
   19.5008   -2.0092  -15.9457 C   0  0  0  0  0  0  0  0  0  0  0  0
   19.9701   -0.7462  -16.2225 O   0  0  0  0  0  0  0  0  0  0  0  0
   18.8575   -2.2066  -14.8972 O   0  0  0  0  0  0  0  0  0  0  0  0
  1  2  1  0
  2  3  1  0
  3  4  2  0
  3  5  1  0
  5  6  1  0
  6  7  1  6
  8  7  1  0
  9 11  1  0
  9  6  1  0
 10  9  2  0
 12 11  1  0
 12 15  1  0
 12 13  1  6
 14 13  1  0
 15 16  1  0
 17 15  2  0
M  END
$$$$
