GCC.pdb
     RDKit          3D

 17 16  0  0  1  0  0  0  0  0999 V2000
   13.5811   -9.9529  -10.0033 N   0  0  0  0  0  0  0  0  0  0  0  0
   14.6558   -9.4755   -9.1944 C   0  0  0  0  0  0  0  0  0  0  0  0
   15.1981   -8.2299   -9.7974 C   0  0  0  0  0  0  0  0  0  0  0  0
   14.7584   -7.8567  -10.9148 O   0  0  0  0  0  0  0  0  0  0  0  0
   16.1886   -7.4440   -9.1695 N   0  0  0  0  0  0  0  0  0  0  0  0
   16.5805   -6.1921   -9.8271 C   0  0  1  0  0  0  0  0  0  0  0  0
   16.4464   -5.0474   -8.8161 C   0  0  0  0  0  0  0  0  0  0  0  0
   14.7332   -4.6374   -8.5285 S   0  0  0  0  0  0  0  0  0  0  0  0
   18.0284   -6.3424  -10.1181 C   0  0  0  0  0  0  0  0  0  0  0  0
   18.7828   -7.0492   -9.3528 O   0  0  0  0  0  0  0  0  0  0  0  0
   18.6974   -5.7481  -11.2250 N   0  0  0  0  0  0  0  0  0  0  0  0
   20.0479   -6.1918  -11.6131 C   0  0  1  0  0  0  0  0  0  0  0  0
   20.0181   -7.6490  -12.0232 C   0  0  0  0  0  0  0  0  0  0  0  0
   21.6092   -8.1652  -12.7161 S   0  0  0  0  0  0  0  0  0  0  0  0
   20.5540   -5.3064  -12.6762 C   0  0  0  0  0  0  0  0  0  0  0  0
   19.7234   -4.8462  -13.6714 O   0  0  0  0  0  0  0  0  0  0  0  0
   21.7531   -4.9684  -12.6753 O   0  0  0  0  0  0  0  0  0  0  0  0
  1  2  1  0
  2  3  1  0
  3  4  2  0
  3  5  1  0
  5  6  1  0
  6  7  1  1
  8  7  1  0
  9 11  1  0
  9  6  1  0
 10  9  2  0
 12 11  1  0
 12 15  1  0
 12 13  1  6
 14 13  1  0
 15 16  1  0
 17 15  2  0
M  END
$$$$
