GCC.pdb
     RDKit          3D

 17 16  0  0  1  0  0  0  0  0999 V2000
   27.1533  -18.3931  -17.7244 N   0  0  0  0  0  0  0  0  0  0  0  0
   27.4337  -17.9071  -16.4120 C   0  0  0  0  0  0  0  0  0  0  0  0
   27.5150  -19.0596  -15.4770 C   0  0  0  0  0  0  0  0  0  0  0  0
   26.7796  -20.0588  -15.6820 O   0  0  0  0  0  0  0  0  0  0  0  0
   28.3842  -19.0831  -14.3649 N   0  0  0  0  0  0  0  0  0  0  0  0
   28.2896  -20.2286  -13.4526 C   0  0  1  0  0  0  0  0  0  0  0  0
   29.5189  -20.2254  -12.5366 C   0  0  0  0  0  0  0  0  0  0  0  0
   29.3179  -21.3706  -11.1824 S   0  0  0  0  0  0  0  0  0  0  0  0
   27.1120  -19.9458  -12.5942 C   0  0  0  0  0  0  0  0  0  0  0  0
   26.8783  -18.7539  -12.1705 O   0  0  0  0  0  0  0  0  0  0  0  0
   26.1639  -20.9208  -12.1740 N   0  0  0  0  0  0  0  0  0  0  0  0
   25.1146  -20.5768  -11.1983 C   0  0  1  0  0  0  0  0  0  0  0  0
   23.7747  -21.1010  -11.6700 C   0  0  0  0  0  0  0  0  0  0  0  0
   22.5608  -21.0937  -10.3266 S   0  0  0  0  0  0  0  0  0  0  0  0
   25.5022  -21.0989   -9.8765 C   0  0  0  0  0  0  0  0  0  0  0  0
   25.1577  -20.4345   -8.7224 O   0  0  0  0  0  0  0  0  0  0  0  0
   26.1524  -22.1590   -9.8012 O   0  0  0  0  0  0  0  0  0  0  0  0
  1  2  1  0
  2  3  1  0
  3  4  2  0
  3  5  1  0
  5  6  1  0
  6  7  1  1
  8  7  1  0
  9 11  1  0
  9  6  1  0
 10  9  2  0
 12 11  1  0
 12 15  1  0
 12 13  1  6
 14 13  1  0
 15 16  1  0
 17 15  2  0
M  END
$$$$
