GCC.pdb
     RDKit          3D

 17 16  0  0  1  0  0  0  0  0999 V2000
   22.2446  -13.0260  -19.2922 N   0  0  0  0  0  0  0  0  0  0  0  0
   22.8556  -11.7417  -19.4127 C   0  0  0  0  0  0  0  0  0  0  0  0
   23.2001  -11.2412  -18.0563 C   0  0  0  0  0  0  0  0  0  0  0  0
   22.4788  -11.5812  -17.0840 O   0  0  0  0  0  0  0  0  0  0  0  0
   24.3052  -10.3981  -17.8095 N   0  0  0  0  0  0  0  0  0  0  0  0
   24.4865   -9.8985  -16.4417 C   0  0  1  0  0  0  0  0  0  0  0  0
   25.9717  -10.0048  -16.0765 C   0  0  0  0  0  0  0  0  0  0  0  0
   26.3001   -9.2634  -14.4864 S   0  0  0  0  0  0  0  0  0  0  0  0
   24.1622   -8.4515  -16.5100 C   0  0  0  0  0  0  0  0  0  0  0  0
   24.7563   -7.6838  -17.3540 O   0  0  0  0  0  0  0  0  0  0  0  0
   23.2026   -7.7974  -15.6872 N   0  0  0  0  0  0  0  0  0  0  0  0
   22.9351   -6.3569  -15.8446 C   0  0  1  0  0  0  0  0  0  0  0  0
   21.7048   -6.1476  -16.7021 C   0  0  0  0  0  0  0  0  0  0  0  0
   20.2977   -7.0941  -16.0675 S   0  0  0  0  0  0  0  0  0  0  0  0
   22.8153   -5.7450  -14.5098 C   0  0  0  0  0  0  0  0  0  0  0  0
   22.5848   -4.3966  -14.3656 O   0  0  0  0  0  0  0  0  0  0  0  0
   22.9243   -6.4590  -13.4947 O   0  0  0  0  0  0  0  0  0  0  0  0
  1  2  1  0
  2  3  1  0
  3  4  2  0
  3  5  1  0
  5  6  1  0
  6  7  1  6
  8  7  1  0
  9 11  1  0
  9  6  1  0
 10  9  2  0
 12 11  1  0
 12 15  1  0
 12 13  1  6
 14 13  1  0
 15 16  1  0
 17 15  2  0
M  END
$$$$
