GCC.pdb
     RDKit          3D

 17 16  0  0  1  0  0  0  0  0999 V2000
   19.7055  -16.8390  -17.0467 N   0  0  0  0  0  0  0  0  0  0  0  0
   20.9561  -16.3408  -17.5211 C   0  0  0  0  0  0  0  0  0  0  0  0
   21.4787  -15.3438  -16.5505 C   0  0  0  0  0  0  0  0  0  0  0  0
   20.7541  -15.0062  -15.5798 O   0  0  0  0  0  0  0  0  0  0  0  0
   22.7569  -14.7565  -16.6700 N   0  0  0  0  0  0  0  0  0  0  0  0
   23.1157  -13.7085  -15.7076 C   0  0  1  0  0  0  0  0  0  0  0  0
   24.6438  -13.6476  -15.6000 C   0  0  0  0  0  0  0  0  0  0  0  0
   25.1613  -12.3559  -14.4823 S   0  0  0  0  0  0  0  0  0  0  0  0
   22.6771  -12.4370  -16.3357 C   0  0  0  0  0  0  0  0  0  0  0  0
   22.9591  -12.1790  -17.5640 O   0  0  0  0  0  0  0  0  0  0  0  0
   21.9317  -11.4218  -15.6728 N   0  0  0  0  0  0  0  0  0  0  0  0
   21.5539  -10.1848  -16.3789 C   0  0  1  0  0  0  0  0  0  0  0  0
   20.0511  -10.1246  -16.5535 C   0  0  0  0  0  0  0  0  0  0  0  0
   19.4254  -11.6256  -17.3496 S   0  0  0  0  0  0  0  0  0  0  0  0
   22.0926   -9.0299  -15.6398 C   0  0  0  0  0  0  0  0  0  0  0  0
   22.8253   -9.2034  -14.4887 O   0  0  0  0  0  0  0  0  0  0  0  0
   21.8821   -7.8772  -16.0631 O   0  0  0  0  0  0  0  0  0  0  0  0
  1  2  1  0
  2  3  1  0
  3  4  2  0
  3  5  1  0
  5  6  1  0
  6  7  1  6
  8  7  1  0
  9 11  1  0
  9  6  1  0
 10  9  2  0
 12 11  1  0
 12 15  1  0
 12 13  1  1
 14 13  1  0
 15 16  1  0
 17 15  2  0
M  END
$$$$
