GCC.pdb
     RDKit          3D

 17 16  0  0  1  0  0  0  0  0999 V2000
   19.6548  -12.6338  -18.4497 N   0  0  0  0  0  0  0  0  0  0  0  0
   19.8306  -11.2225  -18.5702 C   0  0  0  0  0  0  0  0  0  0  0  0
   20.5958  -10.7288  -17.3956 C   0  0  0  0  0  0  0  0  0  0  0  0
   20.0156  -10.6544  -16.2825 O   0  0  0  0  0  0  0  0  0  0  0  0
   21.9501  -10.3381  -17.4737 N   0  0  0  0  0  0  0  0  0  0  0  0
   22.5892   -9.8525  -16.2452 C   0  0  1  0  0  0  0  0  0  0  0  0
   24.0601  -10.2845  -16.2570 C   0  0  0  0  0  0  0  0  0  0  0  0
   24.6565  -10.5899  -14.6027 S   0  0  0  0  0  0  0  0  0  0  0  0
   22.5739   -8.3724  -16.3578 C   0  0  0  0  0  0  0  0  0  0  0  0
   23.0501   -7.7875  -17.3998 O   0  0  0  0  0  0  0  0  0  0  0  0
   22.0522   -7.4909  -15.3696 N   0  0  0  0  0  0  0  0  0  0  0  0
   22.1193   -6.0305  -15.5547 C   0  0  1  0  0  0  0  0  0  0  0  0
   20.8706   -5.5378  -16.2553 C   0  0  0  0  0  0  0  0  0  0  0  0
   19.3788   -6.0364  -15.3585 S   0  0  0  0  0  0  0  0  0  0  0  0
   22.3317   -5.3925  -14.2439 C   0  0  0  0  0  0  0  0  0  0  0  0
   22.4493   -4.0267  -14.1305 O   0  0  0  0  0  0  0  0  0  0  0  0
   22.4061   -6.1000  -13.2211 O   0  0  0  0  0  0  0  0  0  0  0  0
  1  2  1  0
  2  3  1  0
  3  4  2  0
  3  5  1  0
  5  6  1  0
  6  7  1  6
  8  7  1  0
  9 11  1  0
  9  6  1  0
 10  9  2  0
 12 11  1  0
 12 15  1  0
 12 13  1  1
 14 13  1  0
 15 16  1  0
 17 15  2  0
M  END
$$$$
