GCC.pdb
     RDKit          3D

 17 16  0  0  1  0  0  0  0  0999 V2000
   17.3615  -12.1908    4.1947 N   0  0  0  0  0  0  0  0  0  0  0  0
   18.1663  -13.3695    4.1773 C   0  0  0  0  0  0  0  0  0  0  0  0
   18.0725  -14.0384    5.5012 C   0  0  0  0  0  0  0  0  0  0  0  0
   17.2795  -13.5740    6.3596 O   0  0  0  0  0  0  0  0  0  0  0  0
   18.8367  -15.1761    5.8397 N   0  0  0  0  0  0  0  0  0  0  0  0
   18.5855  -15.7998    7.1440 C   0  0  1  0  0  0  0  0  0  0  0  0
   17.5122  -16.8805    6.9693 C   0  0  0  0  0  0  0  0  0  0  0  0
   17.6028  -17.6244    5.3494 S   0  0  0  0  0  0  0  0  0  0  0  0
   19.8484  -16.4989    7.4904 C   0  0  0  0  0  0  0  0  0  0  0  0
   20.5509  -17.0765    6.5806 O   0  0  0  0  0  0  0  0  0  0  0  0
   20.3864  -16.5945    8.8046 N   0  0  0  0  0  0  0  0  0  0  0  0
   21.6673  -17.2826    9.0439 C   0  0  1  0  0  0  0  0  0  0  0  0
   22.6828  -16.3096    9.6051 C   0  0  0  0  0  0  0  0  0  0  0  0
   23.3208  -15.2137    8.3127 S   0  0  0  0  0  0  0  0  0  0  0  0
   21.4307  -18.4381    9.9266 C   0  0  0  0  0  0  0  0  0  0  0  0
   22.2811  -19.5192    9.9231 O   0  0  0  0  0  0  0  0  0  0  0  0
   20.4452  -18.4373   10.6888 O   0  0  0  0  0  0  0  0  0  0  0  0
  1  2  1  0
  2  3  1  0
  3  4  2  0
  3  5  1  0
  5  6  1  0
  6  7  1  6
  8  7  1  0
  9 11  1  0
  9  6  1  0
 10  9  2  0
 12 11  1  0
 12 15  1  0
 12 13  1  1
 14 13  1  0
 15 16  1  0
 17 15  2  0
M  END
$$$$
