GCC.pdb
     RDKit          3D

 17 16  0  0  1  0  0  0  0  0999 V2000
   17.8427  -11.9346  -15.4335 N   0  0  0  0  0  0  0  0  0  0  0  0
   17.6827  -10.5163  -15.4336 C   0  0  0  0  0  0  0  0  0  0  0  0
   18.1216   -9.9803  -14.1186 C   0  0  0  0  0  0  0  0  0  0  0  0
   18.0065  -10.7076  -13.0992 O   0  0  0  0  0  0  0  0  0  0  0  0
   18.6639   -8.6864  -13.9620 N   0  0  0  0  0  0  0  0  0  0  0  0
   19.0809   -8.2830  -12.6141 C   0  0  1  0  0  0  0  0  0  0  0  0
   20.1619   -7.2033  -12.7406 C   0  0  0  0  0  0  0  0  0  0  0  0
   21.6474   -7.8607  -13.4800 S   0  0  0  0  0  0  0  0  0  0  0  0
   17.8885   -7.6308  -12.0171 C   0  0  0  0  0  0  0  0  0  0  0  0
   17.0450   -7.0004  -12.7559 O   0  0  0  0  0  0  0  0  0  0  0  0
   17.5711   -7.6388  -10.6296 N   0  0  0  0  0  0  0  0  0  0  0  0
   16.3501   -6.9792  -10.1343 C   0  0  1  0  0  0  0  0  0  0  0  0
   15.3953   -8.0100   -9.5699 C   0  0  0  0  0  0  0  0  0  0  0  0
   14.0496   -7.2201   -8.6515 S   0  0  0  0  0  0  0  0  0  0  0  0
   16.7291   -5.9491   -9.1518 C   0  0  0  0  0  0  0  0  0  0  0  0
   15.9528   -4.8294   -8.9625 O   0  0  0  0  0  0  0  0  0  0  0  0
   17.7690   -6.0931   -8.4809 O   0  0  0  0  0  0  0  0  0  0  0  0
  1  2  1  0
  2  3  1  0
  3  4  2  0
  3  5  1  0
  5  6  1  0
  6  7  1  6
  8  7  1  0
  9 11  1  0
  9  6  1  0
 10  9  2  0
 12 11  1  0
 12 15  1  0
 12 13  1  1
 14 13  1  0
 15 16  1  0
 17 15  2  0
M  END
$$$$
