GCC.pdb
     RDKit          3D

 17 16  0  0  1  0  0  0  0  0999 V2000
   16.7750  -11.7367  -12.3759 N   0  0  0  0  0  0  0  0  0  0  0  0
   17.3729  -10.8734  -11.4092 C   0  0  0  0  0  0  0  0  0  0  0  0
   16.4522   -9.7380  -11.1403 C   0  0  0  0  0  0  0  0  0  0  0  0
   15.4322   -9.6011  -11.8628 O   0  0  0  0  0  0  0  0  0  0  0  0
   16.6723   -8.8027  -10.1059 N   0  0  0  0  0  0  0  0  0  0  0  0
   15.6607   -7.7583   -9.9078 C   0  0  1  0  0  0  0  0  0  0  0  0
   15.6668   -7.3473   -8.4308 C   0  0  0  0  0  0  0  0  0  0  0  0
   14.4948   -6.0374   -8.1203 S   0  0  0  0  0  0  0  0  0  0  0  0
   16.1509   -6.5904  -10.6819 C   0  0  0  0  0  0  0  0  0  0  0  0
   17.3775   -6.2127  -10.5960 O   0  0  0  0  0  0  0  0  0  0  0  0
   15.3496   -5.8072  -11.5597 N   0  0  0  0  0  0  0  0  0  0  0  0
   15.9344   -4.6783  -12.3046 C   0  0  1  0  0  0  0  0  0  0  0  0
   15.3625   -4.6285  -13.7057 C   0  0  0  0  0  0  0  0  0  0  0  0
   15.8418   -6.0912  -14.6592 S   0  0  0  0  0  0  0  0  0  0  0  0
   15.7049   -3.4362  -11.5465 C   0  0  0  0  0  0  0  0  0  0  0  0
   16.5840   -2.3816  -11.6297 O   0  0  0  0  0  0  0  0  0  0  0  0
   14.6990   -3.3380  -10.8180 O   0  0  0  0  0  0  0  0  0  0  0  0
  1  2  1  0
  2  3  1  0
  3  4  2  0
  3  5  1  0
  5  6  1  0
  6  7  1  1
  8  7  1  0
  9 11  1  0
  9  6  1  0
 10  9  2  0
 12 11  1  0
 12 15  1  0
 12 13  1  6
 14 13  1  0
 15 16  1  0
 17 15  2  0
M  END
$$$$
