GCC.pdb
     RDKit          3D

 17 16  0  0  1  0  0  0  0  0999 V2000
   28.1486  -21.6457  -15.4425 N   0  0  0  0  0  0  0  0  0  0  0  0
   27.6787  -20.6151  -14.5739 C   0  0  0  0  0  0  0  0  0  0  0  0
   26.5058  -21.1210  -13.8141 C   0  0  0  0  0  0  0  0  0  0  0  0
   25.7872  -22.0131  -14.3326 O   0  0  0  0  0  0  0  0  0  0  0  0
   26.1608  -20.6430  -12.5313 N   0  0  0  0  0  0  0  0  0  0  0  0
   24.9156  -21.1386  -11.9337 C   0  0  1  0  0  0  0  0  0  0  0  0
   24.8712  -20.7004  -10.4652 C   0  0  0  0  0  0  0  0  0  0  0  0
   26.3526  -21.1923   -9.5997 S   0  0  0  0  0  0  0  0  0  0  0  0
   23.8301  -20.4076  -12.6344 C   0  0  0  0  0  0  0  0  0  0  0  0
   24.0859  -19.3493  -13.3193 O   0  0  0  0  0  0  0  0  0  0  0  0
   22.4587  -20.7883  -12.6216 N   0  0  0  0  0  0  0  0  0  0  0  0
   21.5594  -20.3947  -13.7206 C   0  0  1  0  0  0  0  0  0  0  0  0
   22.1011  -20.8999  -15.0412 C   0  0  0  0  0  0  0  0  0  0  0  0
   20.8736  -20.7248  -16.3606 S   0  0  0  0  0  0  0  0  0  0  0  0
   20.2034  -20.8912  -13.4288 C   0  0  0  0  0  0  0  0  0  0  0  0
   19.9996  -22.1748  -12.9785 O   0  0  0  0  0  0  0  0  0  0  0  0
   19.2249  -20.1375  -13.5920 O   0  0  0  0  0  0  0  0  0  0  0  0
  1  2  1  0
  2  3  1  0
  3  4  2  0
  3  5  1  0
  5  6  1  0
  6  7  1  1
  8  7  1  0
  9 11  1  0
  9  6  1  0
 10  9  2  0
 12 11  1  0
 12 15  1  0
 12 13  1  6
 14 13  1  0
 15 16  1  0
 17 15  2  0
M  END
$$$$
