GCC.pdb
     RDKit          3D

 17 16  0  0  1  0  0  0  0  0999 V2000
   28.1647  -22.0669  -16.2042 N   0  0  0  0  0  0  0  0  0  0  0  0
   28.0371  -21.0589  -15.2017 C   0  0  0  0  0  0  0  0  0  0  0  0
   27.0450  -21.5067  -14.1897 C   0  0  0  0  0  0  0  0  0  0  0  0
   26.3339  -22.5125  -14.4423 O   0  0  0  0  0  0  0  0  0  0  0  0
   26.8644  -20.8509  -12.9526 N   0  0  0  0  0  0  0  0  0  0  0  0
   25.7973  -21.3415  -12.0729 C   0  0  1  0  0  0  0  0  0  0  0  0
   26.0021  -20.7422  -10.6767 C   0  0  0  0  0  0  0  0  0  0  0  0
   24.5601  -20.9834   -9.6529 S   0  0  0  0  0  0  0  0  0  0  0  0
   24.5461  -20.7544  -12.6145 C   0  0  0  0  0  0  0  0  0  0  0  0
   24.5012  -19.5204  -12.9748 O   0  0  0  0  0  0  0  0  0  0  0  0
   23.3254  -21.4663  -12.7843 N   0  0  0  0  0  0  0  0  0  0  0  0
   22.1494  -20.8093  -13.3816 C   0  0  1  0  0  0  0  0  0  0  0  0
   22.1818  -20.9560  -14.8883 C   0  0  0  0  0  0  0  0  0  0  0  0
   20.5090  -21.0958  -15.5671 S   0  0  0  0  0  0  0  0  0  0  0  0
   20.9297  -21.3717  -12.7763 C   0  0  0  0  0  0  0  0  0  0  0  0
   20.8146  -22.7210  -12.5353 O   0  0  0  0  0  0  0  0  0  0  0  0
   19.9867  -20.6143  -12.4774 O   0  0  0  0  0  0  0  0  0  0  0  0
  1  2  1  0
  2  3  1  0
  3  4  2  0
  3  5  1  0
  5  6  1  0
  6  7  1  1
  8  7  1  0
  9 11  1  0
  9  6  1  0
 10  9  2  0
 12 11  1  0
 12 15  1  0
 12 13  1  6
 14 13  1  0
 15 16  1  0
 17 15  2  0
M  END
$$$$
