GCC.pdb
     RDKit          3D

 17 16  0  0  1  0  0  0  0  0999 V2000
   21.0466  -12.9739  -18.3599 N   0  0  0  0  0  0  0  0  0  0  0  0
   21.4996  -11.6623  -18.6942 C   0  0  0  0  0  0  0  0  0  0  0  0
   22.0351  -11.0096  -17.4710 C   0  0  0  0  0  0  0  0  0  0  0  0
   21.4275  -11.1723  -16.3822 O   0  0  0  0  0  0  0  0  0  0  0  0
   23.2000  -10.2121  -17.4766 N   0  0  0  0  0  0  0  0  0  0  0  0
   23.6219   -9.6166  -16.2036 C   0  0  1  0  0  0  0  0  0  0  0  0
   25.1448   -9.4416  -16.2279 C   0  0  0  0  0  0  0  0  0  0  0  0
   25.8117   -9.3602  -14.5743 S   0  0  0  0  0  0  0  0  0  0  0  0
   23.0318   -8.2544  -16.1970 C   0  0  0  0  0  0  0  0  0  0  0  0
   23.1477   -7.4829  -17.2197 O   0  0  0  0  0  0  0  0  0  0  0  0
   22.3087   -7.6909  -15.1082 N   0  0  0  0  0  0  0  0  0  0  0  0
   21.6968   -6.3554  -15.2236 C   0  0  1  0  0  0  0  0  0  0  0  0
   20.2476   -6.4087  -14.7883 C   0  0  0  0  0  0  0  0  0  0  0  0
   19.3304   -7.6592  -15.7230 S   0  0  0  0  0  0  0  0  0  0  0  0
   22.4958   -5.3952  -14.4427 C   0  0  0  0  0  0  0  0  0  0  0  0
   22.1540   -4.0638  -14.3918 O   0  0  0  0  0  0  0  0  0  0  0  0
   23.4972   -5.7940  -13.8179 O   0  0  0  0  0  0  0  0  0  0  0  0
  1  2  1  0
  2  3  1  0
  3  4  2  0
  3  5  1  0
  5  6  1  0
  6  7  1  6
  8  7  1  0
  9 11  1  0
  9  6  1  0
 10  9  2  0
 12 11  1  0
 12 15  1  0
 12 13  1  1
 14 13  1  0
 15 16  1  0
 17 15  2  0
M  END
$$$$
