GCC.pdb
     RDKit          3D

 17 16  0  0  1  0  0  0  0  0999 V2000
   20.3725  -12.6624  -17.2560 N   0  0  0  0  0  0  0  0  0  0  0  0
   19.8924  -12.2821  -15.9667 C   0  0  0  0  0  0  0  0  0  0  0  0
   18.8246  -11.2614  -16.1303 C   0  0  0  0  0  0  0  0  0  0  0  0
   18.4920  -10.9137  -17.2921 O   0  0  0  0  0  0  0  0  0  0  0  0
   18.1642  -10.6623  -15.0357 N   0  0  0  0  0  0  0  0  0  0  0  0
   17.0324   -9.7752  -15.3277 C   0  0  1  0  0  0  0  0  0  0  0  0
   15.9341  -10.0276  -14.2883 C   0  0  0  0  0  0  0  0  0  0  0  0
   15.1356  -11.6003  -14.5616 S   0  0  0  0  0  0  0  0  0  0  0  0
   17.5433   -8.4019  -15.0899 C   0  0  0  0  0  0  0  0  0  0  0  0
   18.2182   -8.1259  -14.0301 O   0  0  0  0  0  0  0  0  0  0  0  0
   17.3486   -7.3019  -15.9719 N   0  0  0  0  0  0  0  0  0  0  0  0
   17.9858   -6.0008  -15.7023 C   0  0  1  0  0  0  0  0  0  0  0  0
   18.4474   -5.3698  -16.9990 C   0  0  0  0  0  0  0  0  0  0  0  0
   19.9048   -6.2196  -17.6563 S   0  0  0  0  0  0  0  0  0  0  0  0
   17.0410   -5.1523  -14.9554 C   0  0  0  0  0  0  0  0  0  0  0  0
   17.4781   -4.0567  -14.2478 O   0  0  0  0  0  0  0  0  0  0  0  0
   15.8266   -5.4303  -14.9641 O   0  0  0  0  0  0  0  0  0  0  0  0
  1  2  1  0
  2  3  1  0
  3  4  2  0
  3  5  1  0
  5  6  1  0
  6  7  1  1
  8  7  1  0
  9 11  1  0
  9  6  1  0
 10  9  2  0
 12 11  1  0
 12 15  1  0
 12 13  1  6
 14 13  1  0
 15 16  1  0
 17 15  2  0
M  END
$$$$
