GCC.pdb
     RDKit          3D

 17 16  0  0  1  0  0  0  0  0999 V2000
   24.2156  -15.7650  -17.5168 N   0  0  0  0  0  0  0  0  0  0  0  0
   23.9536  -14.5056  -18.1353 C   0  0  0  0  0  0  0  0  0  0  0  0
   24.2083  -13.4215  -17.1510 C   0  0  0  0  0  0  0  0  0  0  0  0
   23.8839  -13.6053  -15.9501 O   0  0  0  0  0  0  0  0  0  0  0  0
   24.8004  -12.1898  -17.5051 N   0  0  0  0  0  0  0  0  0  0  0  0
   24.9832  -11.1936  -16.4433 C   0  0  1  0  0  0  0  0  0  0  0  0
   26.3254  -10.4862  -16.6640 C   0  0  0  0  0  0  0  0  0  0  0  0
   26.6609   -9.3164  -15.3584 S   0  0  0  0  0  0  0  0  0  0  0  0
   23.9207  -10.1824  -16.6717 C   0  0  0  0  0  0  0  0  0  0  0  0
   23.6782   -9.7393  -17.8547 O   0  0  0  0  0  0  0  0  0  0  0  0
   23.0984   -9.6277  -15.6508 N   0  0  0  0  0  0  0  0  0  0  0  0
   22.0675   -8.6268  -15.9775 C   0  0  1  0  0  0  0  0  0  0  0  0
   20.7461   -9.0182  -15.3504 C   0  0  0  0  0  0  0  0  0  0  0  0
   19.5602   -7.6518  -15.4194 S   0  0  0  0  0  0  0  0  0  0  0  0
   22.5373   -7.2992  -15.5449 C   0  0  0  0  0  0  0  0  0  0  0  0
   23.6409   -7.1665  -14.7346 O   0  0  0  0  0  0  0  0  0  0  0  0
   21.9263   -6.2796  -15.9182 O   0  0  0  0  0  0  0  0  0  0  0  0
  1  2  1  0
  2  3  1  0
  3  4  2  0
  3  5  1  0
  5  6  1  0
  6  7  1  6
  8  7  1  0
  9 11  1  0
  9  6  1  0
 10  9  2  0
 12 11  1  0
 12 15  1  0
 12 13  1  1
 14 13  1  0
 15 16  1  0
 17 15  2  0
M  END
$$$$
