QYE.pdb
     RDKit          3D

 31 31  0  0  1  0  0  0  0  0999 V2000
   31.2278   -8.2626  -16.7145 N   0  0  0  0  0  0  0  0  0  0  0  0
   32.3841   -8.7848  -17.3310 C   0  0  0  0  0  0  0  0  0  0  0  0
   33.4997   -8.5721  -16.7905 O   0  0  0  0  0  0  0  0  0  0  0  0
   32.3310   -9.5774  -18.5977 C   0  0  0  0  0  0  0  0  0  0  0  0
   30.9138   -9.8591  -18.9888 C   0  0  0  0  0  0  0  0  0  0  0  0
   30.4256  -11.1812  -18.4345 C   0  0  2  0  0  0  0  0  0  0  0  0
   31.0031  -12.3062  -19.1501 N   0  0  0  0  0  0  0  0  0  0  0  0
   28.9519  -11.2847  -18.5673 C   0  0  0  0  0  0  0  0  0  0  0  0
   28.3919  -11.8895  -19.5365 O   0  0  0  0  0  0  0  0  0  0  0  0
   27.0183  -16.9195  -15.6814 O   0  0  0  0  0  0  0  0  0  0  0  0
   26.7480  -15.5618  -15.8890 C   0  0  0  0  0  0  0  0  0  0  0  0
   27.4163  -14.6325  -15.1265 C   0  0  0  0  0  0  0  0  0  0  0  0
   27.1652  -13.2898  -15.3144 C   0  0  0  0  0  0  0  0  0  0  0  0
   26.2438  -12.8485  -16.2648 C   0  0  0  0  0  0  0  0  0  0  0  0
   26.0016  -11.4001  -16.4324 C   0  0  0  0  0  0  0  0  0  0  0  0
   26.6204  -10.8647  -17.6826 C   0  0  2  0  0  0  0  0  0  0  0  0
   28.0421  -10.7234  -17.6340 N   0  0  0  0  0  0  0  0  0  0  0  0
   26.0387   -9.6053  -18.1445 C   0  0  0  0  0  0  0  0  0  0  0  0
   26.4059   -8.5030  -17.6316 O   0  0  0  0  0  0  0  0  0  0  0  0
   25.5900  -13.7934  -17.0129 C   0  0  0  0  0  0  0  0  0  0  0  0
   25.8332  -15.1338  -16.8335 C   0  0  0  0  0  0  0  0  0  0  0  0
   25.0507   -9.5057  -19.1670 N   0  0  0  0  0  0  0  0  0  0  0  0
   24.5548   -8.2432  -19.6052 C   0  0  1  0  0  0  0  0  0  0  0  0
   24.6878   -7.9170  -21.0417 C   0  0  0  0  0  0  0  0  0  0  0  0
   24.1114   -6.6735  -21.5684 C   0  0  0  0  0  0  0  0  0  0  0  0
   24.2540   -6.5138  -23.0276 C   0  0  0  0  0  0  0  0  0  0  0  0
   23.3426   -5.9799  -23.7424 O   0  0  0  0  0  0  0  0  0  0  0  0
   23.1216   -8.1522  -19.2132 C   0  0  0  0  0  0  0  0  0  0  0  0
   22.3478   -9.2856  -19.0308 O   0  0  0  0  0  0  0  0  0  0  0  0
   25.3918   -6.9386  -23.6939 O   0  0  0  0  0  0  0  0  0  0  0  0
   22.5755   -7.0351  -19.0371 O   0  0  0  0  0  0  0  0  0  0  0  0
  2  3  2  0
  2  1  1  0
  4  2  1  0
  5  4  1  0
  6  5  1  0
  6  7  1  6
  8  6  1  0
  9  8  2  0
 10 11  1  0
 11 12  2  0
 12 13  1  0
 14 15  1  0
 14 13  2  0
 16 15  1  1
 16 17  1  0
 17  8  1  0
 18 19  2  0
 18 16  1  0
 20 14  1  0
 21 20  2  0
 21 11  1  0
 22 18  1  0
 23 22  1  0
 23 24  1  6
 25 24  1  0
 26 25  1  0
 26 27  2  0
 28 23  1  0
 29 28  1  0
 30 26  1  0
 31 28  2  0
M  END
$$$$
