QYE.pdb
     RDKit          3D

 31 31  0  0  1  0  0  0  0  0999 V2000
   28.1386  -26.2120  -16.2852 N   0  0  0  0  0  0  0  0  0  0  0  0
   28.3949  -25.4123  -17.4186 C   0  0  0  0  0  0  0  0  0  0  0  0
   28.9461  -25.9448  -18.4158 O   0  0  0  0  0  0  0  0  0  0  0  0
   28.0370  -23.9617  -17.4760 C   0  0  0  0  0  0  0  0  0  0  0  0
   27.3877  -23.5240  -16.2002 C   0  0  0  0  0  0  0  0  0  0  0  0
   26.0899  -22.7845  -16.4502 C   0  0  2  0  0  0  0  0  0  0  0  0
   26.3264  -21.4663  -17.0137 N   0  0  0  0  0  0  0  0  0  0  0  0
   25.3507  -22.5935  -15.1786 C   0  0  0  0  0  0  0  0  0  0  0  0
   25.9214  -22.2255  -14.1027 O   0  0  0  0  0  0  0  0  0  0  0  0
   20.2339  -18.4596   -9.7720 O   0  0  0  0  0  0  0  0  0  0  0  0
   20.9334  -19.0027  -10.8561 C   0  0  0  0  0  0  0  0  0  0  0  0
   22.1735  -19.5533  -10.6314 C   0  0  0  0  0  0  0  0  0  0  0  0
   22.8798  -20.0937  -11.6851 C   0  0  0  0  0  0  0  0  0  0  0  0
   22.3639  -20.0951  -12.9815 C   0  0  0  0  0  0  0  0  0  0  0  0
   23.1549  -20.6817  -14.0837 C   0  0  0  0  0  0  0  0  0  0  0  0
   23.1136  -22.1753  -14.0761 C   0  0  2  0  0  0  0  0  0  0  0  0
   23.9531  -22.8024  -15.0484 N   0  0  0  0  0  0  0  0  0  0  0  0
   21.7676  -22.7358  -14.1862 C   0  0  0  0  0  0  0  0  0  0  0  0
   21.0657  -22.5199  -15.2223 O   0  0  0  0  0  0  0  0  0  0  0  0
   21.1258  -19.5406  -13.1809 C   0  0  0  0  0  0  0  0  0  0  0  0
   20.4139  -18.9997  -12.1375 C   0  0  0  0  0  0  0  0  0  0  0  0
   21.1494  -23.5395  -13.1845 N   0  0  0  0  0  0  0  0  0  0  0  0
   19.8064  -23.9979  -13.3192 C   0  0  1  0  0  0  0  0  0  0  0  0
   19.3336  -25.0219  -12.3624 C   0  0  0  0  0  0  0  0  0  0  0  0
   17.9889  -25.5941  -12.5047 C   0  0  0  0  0  0  0  0  0  0  0  0
   17.7095  -26.7127  -11.5849 C   0  0  0  0  0  0  0  0  0  0  0  0
   18.5791  -27.1406  -10.7558 O   0  0  0  0  0  0  0  0  0  0  0  0
   18.9082  -22.8127  -13.2514 C   0  0  0  0  0  0  0  0  0  0  0  0
   19.0717  -21.8351  -12.2848 O   0  0  0  0  0  0  0  0  0  0  0  0
   16.4818  -27.3543  -11.5784 O   0  0  0  0  0  0  0  0  0  0  0  0
   17.9726  -22.6702  -14.0768 O   0  0  0  0  0  0  0  0  0  0  0  0
  2  3  2  0
  2  1  1  0
  4  2  1  0
  5  4  1  0
  6  5  1  0
  6  7  1  1
  8  6  1  0
  9  8  2  0
 10 11  1  0
 11 12  2  0
 12 13  1  0
 14 15  1  0
 14 13  2  0
 16 15  1  6
 16 17  1  0
 17  8  1  0
 18 19  2  0
 18 16  1  0
 20 14  1  0
 21 20  2  0
 21 11  1  0
 22 18  1  0
 23 22  1  0
 23 24  1  1
 25 24  1  0
 26 25  1  0
 26 27  2  0
 28 23  1  0
 29 28  1  0
 30 26  1  0
 31 28  2  0
M  END
$$$$
