QYE.pdb
     RDKit          3D

 31 31  0  0  1  0  0  0  0  0999 V2000
   27.4602  -16.1253  -18.5921 N   0  0  0  0  0  0  0  0  0  0  0  0
   27.5506  -16.5624  -19.9303 C   0  0  0  0  0  0  0  0  0  0  0  0
   28.0407  -15.7803  -20.7847 O   0  0  0  0  0  0  0  0  0  0  0  0
   27.0864  -17.9150  -20.3668 C   0  0  0  0  0  0  0  0  0  0  0  0
   26.5884  -18.7080  -19.1989 C   0  0  0  0  0  0  0  0  0  0  0  0
   27.7156  -19.4050  -18.4660 C   0  0  2  0  0  0  0  0  0  0  0  0
   28.2901  -20.4752  -19.2636 N   0  0  0  0  0  0  0  0  0  0  0  0
   27.2165  -20.0126  -17.2083 C   0  0  0  0  0  0  0  0  0  0  0  0
   26.5507  -21.0965  -17.1880 O   0  0  0  0  0  0  0  0  0  0  0  0
   24.8850  -20.9641   -8.7358 O   0  0  0  0  0  0  0  0  0  0  0  0
   25.5597  -20.5932   -9.9049 C   0  0  0  0  0  0  0  0  0  0  0  0
   26.2411  -21.5593  -10.6076 C   0  0  0  0  0  0  0  0  0  0  0  0
   26.9126  -21.2158  -11.7618 C   0  0  0  0  0  0  0  0  0  0  0  0
   26.9178  -19.9038  -12.2368 C   0  0  0  0  0  0  0  0  0  0  0  0
   27.6528  -19.5769  -13.4767 C   0  0  0  0  0  0  0  0  0  0  0  0
   26.8781  -19.9335  -14.7035 C   0  0  2  0  0  0  0  0  0  0  0  0
   27.4345  -19.4448  -15.9262 N   0  0  0  0  0  0  0  0  0  0  0  0
   25.4657  -19.5592  -14.6475 C   0  0  0  0  0  0  0  0  0  0  0  0
   25.1111  -18.3593  -14.8650 O   0  0  0  0  0  0  0  0  0  0  0  0
   26.2315  -18.9581  -11.5194 C   0  0  0  0  0  0  0  0  0  0  0  0
   25.5590  -19.2903  -10.3680 C   0  0  0  0  0  0  0  0  0  0  0  0
   24.4065  -20.4674  -14.3564 N   0  0  0  0  0  0  0  0  0  0  0  0
   23.0568  -20.0255  -14.2345 C   0  0  1  0  0  0  0  0  0  0  0  0
   22.1477  -20.2808  -15.3729 C   0  0  0  0  0  0  0  0  0  0  0  0
   22.3076  -21.4958  -16.1817 C   0  0  0  0  0  0  0  0  0  0  0  0
   21.5484  -21.4823  -17.4461 C   0  0  0  0  0  0  0  0  0  0  0  0
   20.7848  -20.5124  -17.7668 O   0  0  0  0  0  0  0  0  0  0  0  0
   22.4836  -20.6360  -13.0038 C   0  0  0  0  0  0  0  0  0  0  0  0
   21.3032  -20.1726  -12.4484 O   0  0  0  0  0  0  0  0  0  0  0  0
   21.6302  -22.5289  -18.3500 O   0  0  0  0  0  0  0  0  0  0  0  0
   23.0624  -21.5945  -12.4351 O   0  0  0  0  0  0  0  0  0  0  0  0
  2  3  2  0
  2  1  1  0
  4  2  1  0
  5  4  1  0
  6  5  1  0
  6  7  1  6
  8  6  1  0
  9  8  2  0
 10 11  1  0
 11 12  2  0
 12 13  1  0
 14 15  1  0
 14 13  2  0
 16 15  1  1
 16 17  1  0
 17  8  1  0
 18 19  2  0
 18 16  1  0
 20 14  1  0
 21 20  2  0
 21 11  1  0
 22 18  1  0
 23 22  1  0
 23 24  1  6
 25 24  1  0
 26 25  1  0
 26 27  2  0
 28 23  1  0
 29 28  1  0
 30 26  1  0
 31 28  2  0
M  END
$$$$
