QYE.pdb
     RDKit          3D

 31 31  0  0  1  0  0  0  0  0999 V2000
   23.9938  -26.8677  -15.2529 N   0  0  0  0  0  0  0  0  0  0  0  0
   25.1418  -27.0598  -16.0499 C   0  0  0  0  0  0  0  0  0  0  0  0
   25.2918  -28.1666  -16.6281 O   0  0  0  0  0  0  0  0  0  0  0  0
   26.1811  -26.0002  -16.2303 C   0  0  0  0  0  0  0  0  0  0  0  0
   25.8231  -24.7683  -15.4589 C   0  0  0  0  0  0  0  0  0  0  0  0
   24.9487  -23.8301  -16.2644 C   0  0  2  0  0  0  0  0  0  0  0  0
   25.6247  -23.3687  -17.4650 N   0  0  0  0  0  0  0  0  0  0  0  0
   24.6044  -22.6296  -15.4642 C   0  0  0  0  0  0  0  0  0  0  0  0
   23.9781  -22.6993  -14.3589 O   0  0  0  0  0  0  0  0  0  0  0  0
   30.1907  -19.9447  -18.4045 O   0  0  0  0  0  0  0  0  0  0  0  0
   29.1703  -19.8630  -17.4497 C   0  0  0  0  0  0  0  0  0  0  0  0
   28.3692  -18.7452  -17.4349 C   0  0  0  0  0  0  0  0  0  0  0  0
   27.3582  -18.6440  -16.5028 C   0  0  0  0  0  0  0  0  0  0  0  0
   27.1271  -19.6543  -15.5685 C   0  0  0  0  0  0  0  0  0  0  0  0
   26.0347  -19.5052  -14.5842 C   0  0  0  0  0  0  0  0  0  0  0  0
   24.7647  -20.1403  -15.0489 C   0  0  2  0  0  0  0  0  0  0  0  0
   24.9391  -21.3073  -15.8558 N   0  0  0  0  0  0  0  0  0  0  0  0
   23.8565  -19.2245  -15.7378 C   0  0  0  0  0  0  0  0  0  0  0  0
   23.7086  -19.2946  -16.9972 O   0  0  0  0  0  0  0  0  0  0  0  0
   27.9385  -20.7590  -15.6028 C   0  0  0  0  0  0  0  0  0  0  0  0
   28.9486  -20.8694  -16.5278 C   0  0  0  0  0  0  0  0  0  0  0  0
   23.0895  -18.2151  -15.0865 N   0  0  0  0  0  0  0  0  0  0  0  0
   22.1223  -17.4411  -15.7919 C   0  0  1  0  0  0  0  0  0  0  0  0
   22.4144  -17.1001  -17.2011 C   0  0  0  0  0  0  0  0  0  0  0  0
   23.5590  -16.2396  -17.5259 C   0  0  0  0  0  0  0  0  0  0  0  0
   23.2720  -15.2150  -18.5471 C   0  0  0  0  0  0  0  0  0  0  0  0
   23.5389  -15.3959  -19.7811 O   0  0  0  0  0  0  0  0  0  0  0  0
   20.8203  -18.1594  -15.7218 C   0  0  0  0  0  0  0  0  0  0  0  0
   19.7544  -17.6564  -14.9956 O   0  0  0  0  0  0  0  0  0  0  0  0
   22.6954  -14.0010  -18.2116 O   0  0  0  0  0  0  0  0  0  0  0  0
   20.6565  -19.2485  -16.3252 O   0  0  0  0  0  0  0  0  0  0  0  0
  2  3  2  0
  2  1  1  0
  4  2  1  0
  5  4  1  0
  6  5  1  0
  6  7  1  6
  8  6  1  0
  9  8  2  0
 10 11  1  0
 11 12  2  0
 12 13  1  0
 14 15  1  0
 14 13  2  0
 16 15  1  6
 16 17  1  0
 17  8  1  0
 18 19  2  0
 18 16  1  0
 20 14  1  0
 21 20  2  0
 21 11  1  0
 22 18  1  0
 23 22  1  0
 23 24  1  6
 25 24  1  0
 26 25  1  0
 26 27  2  0
 28 23  1  0
 29 28  1  0
 30 26  1  0
 31 28  2  0
M  END
$$$$
