QYE.pdb
     RDKit          3D

 31 31  0  0  1  0  0  0  0  0999 V2000
   21.7697   -7.3469  -12.8522 N   0  0  0  0  0  0  0  0  0  0  0  0
   20.6121   -7.0355  -13.5959 C   0  0  0  0  0  0  0  0  0  0  0  0
   20.7239   -6.2672  -14.5853 O   0  0  0  0  0  0  0  0  0  0  0  0
   19.2642   -7.5831  -13.2511 C   0  0  0  0  0  0  0  0  0  0  0  0
   19.3622   -8.5664  -12.1267 C   0  0  0  0  0  0  0  0  0  0  0  0
   18.0726   -9.3368  -11.9345 C   0  0  2  0  0  0  0  0  0  0  0  0
   17.6096   -9.9228  -13.1809 N   0  0  0  0  0  0  0  0  0  0  0  0
   17.0000   -8.4358  -11.4465 C   0  0  0  0  0  0  0  0  0  0  0  0
   16.1213   -7.9355  -12.2187 O   0  0  0  0  0  0  0  0  0  0  0  0
   10.5229  -10.6998   -9.2872 O   0  0  0  0  0  0  0  0  0  0  0  0
   11.6949   -9.9721   -9.0499 C   0  0  0  0  0  0  0  0  0  0  0  0
   11.5910   -8.6337   -8.7512 C   0  0  0  0  0  0  0  0  0  0  0  0
   12.7327   -7.8980   -8.5140 C   0  0  0  0  0  0  0  0  0  0  0  0
   13.9987   -8.4821   -8.5705 C   0  0  0  0  0  0  0  0  0  0  0  0
   15.1977   -7.6572   -8.3128 C   0  0  0  0  0  0  0  0  0  0  0  0
   15.8428   -7.1879   -9.5762 C   0  0  2  0  0  0  0  0  0  0  0  0
   16.8589   -8.0539  -10.0871 N   0  0  0  0  0  0  0  0  0  0  0  0
   16.3766   -5.8285   -9.5046 C   0  0  0  0  0  0  0  0  0  0  0  0
   17.4294   -5.5873   -8.8365 O   0  0  0  0  0  0  0  0  0  0  0  0
   14.0772   -9.8177   -8.8701 C   0  0  0  0  0  0  0  0  0  0  0  0
   12.9453  -10.5596   -9.1078 C   0  0  0  0  0  0  0  0  0  0  0  0
   15.7893   -4.7015  -10.1498 N   0  0  0  0  0  0  0  0  0  0  0  0
   16.4296   -3.4280  -10.1568 C   0  0  1  0  0  0  0  0  0  0  0  0
   16.4731   -2.6910  -11.4384 C   0  0  0  0  0  0  0  0  0  0  0  0
   17.0726   -1.3518  -11.4950 C   0  0  0  0  0  0  0  0  0  0  0  0
   17.1510   -0.7835  -12.8538 C   0  0  0  0  0  0  0  0  0  0  0  0
   16.7703   -1.4342  -13.8826 O   0  0  0  0  0  0  0  0  0  0  0  0
   15.7728   -2.5786   -9.1257 C   0  0  0  0  0  0  0  0  0  0  0  0
   16.3495   -1.3999   -8.6846 O   0  0  0  0  0  0  0  0  0  0  0  0
   17.6445    0.4914  -13.0771 O   0  0  0  0  0  0  0  0  0  0  0  0
   14.6701   -2.9141   -8.6272 O   0  0  0  0  0  0  0  0  0  0  0  0
  2  3  2  0
  2  1  1  0
  4  2  1  0
  5  4  1  0
  6  5  1  0
  6  7  1  6
  8  6  1  0
  9  8  2  0
 10 11  1  0
 11 12  2  0
 12 13  1  0
 14 15  1  0
 14 13  2  0
 16 15  1  1
 16 17  1  0
 17  8  1  0
 18 19  2  0
 18 16  1  0
 20 14  1  0
 21 20  2  0
 21 11  1  0
 22 18  1  0
 23 22  1  0
 23 24  1  6
 25 24  1  0
 26 25  1  0
 26 27  2  0
 28 23  1  0
 29 28  1  0
 30 26  1  0
 31 28  2  0
M  END
$$$$
