QYE.pdb
     RDKit          3D

 31 31  0  0  1  0  0  0  0  0999 V2000
   17.9507  -14.9472  -19.6020 N   0  0  0  0  0  0  0  0  0  0  0  0
   17.6656  -14.6208  -18.2596 C   0  0  0  0  0  0  0  0  0  0  0  0
   16.5456  -14.1159  -17.9902 O   0  0  0  0  0  0  0  0  0  0  0  0
   18.6425  -14.8521  -17.1516 C   0  0  0  0  0  0  0  0  0  0  0  0
   18.8317  -13.6074  -16.3418 C   0  0  0  0  0  0  0  0  0  0  0  0
   19.2901  -12.4421  -17.1936 C   0  0  2  0  0  0  0  0  0  0  0  0
   20.6028  -12.6840  -17.7677 N   0  0  0  0  0  0  0  0  0  0  0  0
   19.3885  -11.2099  -16.3738 C   0  0  0  0  0  0  0  0  0  0  0  0
   18.4219  -10.7767  -15.6690 O   0  0  0  0  0  0  0  0  0  0  0  0
   22.5322   -3.5637  -13.1972 O   0  0  0  0  0  0  0  0  0  0  0  0
   22.4040   -4.8872  -13.6347 C   0  0  0  0  0  0  0  0  0  0  0  0
   22.7595   -5.1913  -14.9280 C   0  0  0  0  0  0  0  0  0  0  0  0
   22.6411   -6.4887  -15.3798 C   0  0  0  0  0  0  0  0  0  0  0  0
   22.1663   -7.5063  -14.5517 C   0  0  0  0  0  0  0  0  0  0  0  0
   22.0517   -8.8834  -15.0761 C   0  0  0  0  0  0  0  0  0  0  0  0
   20.6762   -9.1853  -15.5754 C   0  0  2  0  0  0  0  0  0  0  0  0
   20.5587  -10.4103  -16.3027 N   0  0  0  0  0  0  0  0  0  0  0  0
   20.0790   -8.1102  -16.3663 C   0  0  0  0  0  0  0  0  0  0  0  0
   20.3960   -7.9598  -17.5868 O   0  0  0  0  0  0  0  0  0  0  0  0
   21.8182   -7.1790  -13.2665 C   0  0  0  0  0  0  0  0  0  0  0  0
   21.9327   -5.8892  -12.8067 C   0  0  0  0  0  0  0  0  0  0  0  0
   19.1291   -7.1755  -15.8608 N   0  0  0  0  0  0  0  0  0  0  0  0
   18.5170   -6.2032  -16.7045 C   0  0  1  0  0  0  0  0  0  0  0  0
   17.0586   -6.3106  -16.9264 C   0  0  0  0  0  0  0  0  0  0  0  0
   16.3650   -5.3083  -17.7450 C   0  0  0  0  0  0  0  0  0  0  0  0
   14.9422   -5.6100  -17.9899 C   0  0  0  0  0  0  0  0  0  0  0  0
   14.2061   -4.8605  -18.7132 O   0  0  0  0  0  0  0  0  0  0  0  0
   18.8306   -4.8560  -16.1545 C   0  0  0  0  0  0  0  0  0  0  0  0
   19.1932   -3.8043  -16.9786 O   0  0  0  0  0  0  0  0  0  0  0  0
   14.3355   -6.7286  -17.4427 O   0  0  0  0  0  0  0  0  0  0  0  0
   18.7732   -4.6395  -14.9188 O   0  0  0  0  0  0  0  0  0  0  0  0
  2  3  2  0
  2  1  1  0
  4  2  1  0
  5  4  1  0
  6  5  1  0
  6  7  1  1
  8  6  1  0
  9  8  2  0
 10 11  1  0
 11 12  2  0
 12 13  1  0
 14 15  1  0
 14 13  2  0
 16 15  1  6
 16 17  1  0
 17  8  1  0
 18 19  2  0
 18 16  1  0
 20 14  1  0
 21 20  2  0
 21 11  1  0
 22 18  1  0
 23 22  1  0
 23 24  1  1
 25 24  1  0
 26 25  1  0
 26 27  2  0
 28 23  1  0
 29 28  1  0
 30 26  1  0
 31 28  2  0
M  END
$$$$
