QYE.pdb
     RDKit          3D

 31 31  0  0  1  0  0  0  0  0999 V2000
   25.7252  -15.2746  -16.7329 N   0  0  0  0  0  0  0  0  0  0  0  0
   26.0413  -16.5256  -17.3028 C   0  0  0  0  0  0  0  0  0  0  0  0
   26.8986  -16.5662  -18.2222 O   0  0  0  0  0  0  0  0  0  0  0  0
   25.3965  -17.7983  -16.8554 C   0  0  0  0  0  0  0  0  0  0  0  0
   24.3846  -17.5332  -15.7846 C   0  0  0  0  0  0  0  0  0  0  0  0
   23.6123  -18.7820  -15.4139 C   0  0  2  0  0  0  0  0  0  0  0  0
   23.4526  -19.6693  -16.5535 N   0  0  0  0  0  0  0  0  0  0  0  0
   22.2528  -18.4269  -14.9387 C   0  0  0  0  0  0  0  0  0  0  0  0
   22.0534  -17.6745  -13.9323 O   0  0  0  0  0  0  0  0  0  0  0  0
   21.5626  -12.2866  -15.5055 O   0  0  0  0  0  0  0  0  0  0  0  0
   20.9701  -13.5448  -15.6650 C   0  0  0  0  0  0  0  0  0  0  0  0
   21.3889  -14.3439  -16.7031 C   0  0  0  0  0  0  0  0  0  0  0  0
   20.8187  -15.5869  -16.8787 C   0  0  0  0  0  0  0  0  0  0  0  0
   19.8208  -16.0563  -16.0237 C   0  0  0  0  0  0  0  0  0  0  0  0
   19.2334  -17.3938  -16.2488 C   0  0  0  0  0  0  0  0  0  0  0  0
   19.7470  -18.4071  -15.2784 C   0  0  2  0  0  0  0  0  0  0  0  0
   21.0630  -18.8905  -15.5577 N   0  0  0  0  0  0  0  0  0  0  0  0
   18.8578  -19.5514  -15.0836 C   0  0  0  0  0  0  0  0  0  0  0  0
   19.0683  -20.6399  -15.7032 O   0  0  0  0  0  0  0  0  0  0  0  0
   19.4198  -15.2420  -14.9961 C   0  0  0  0  0  0  0  0  0  0  0  0
   19.9819  -14.0017  -14.8125 C   0  0  0  0  0  0  0  0  0  0  0  0
   17.7248  -19.5484  -14.2190 N   0  0  0  0  0  0  0  0  0  0  0  0
   16.8340  -20.6592  -14.1521 C   0  0  1  0  0  0  0  0  0  0  0  0
   15.9199  -20.7344  -12.9918 C   0  0  0  0  0  0  0  0  0  0  0  0
   15.0388  -21.8972  -12.8257 C   0  0  0  0  0  0  0  0  0  0  0  0
   14.1310  -21.8049  -11.6670 C   0  0  0  0  0  0  0  0  0  0  0  0
   13.2130  -22.6649  -11.4561 O   0  0  0  0  0  0  0  0  0  0  0  0
   16.0345  -20.6824  -15.4075 C   0  0  0  0  0  0  0  0  0  0  0  0
   15.7598  -21.8672  -16.0688 O   0  0  0  0  0  0  0  0  0  0  0  0
   14.2340  -20.7736  -10.7478 O   0  0  0  0  0  0  0  0  0  0  0  0
   15.5862  -19.6181  -15.9009 O   0  0  0  0  0  0  0  0  0  0  0  0
  2  3  2  0
  2  1  1  0
  4  2  1  0
  5  4  1  0
  6  5  1  0
  6  7  1  6
  8  6  1  0
  9  8  2  0
 10 11  1  0
 11 12  2  0
 12 13  1  0
 14 15  1  0
 14 13  2  0
 16 15  1  6
 16 17  1  0
 17  8  1  0
 18 19  2  0
 18 16  1  0
 20 14  1  0
 21 20  2  0
 21 11  1  0
 22 18  1  0
 23 22  1  0
 23 24  1  1
 25 24  1  0
 26 25  1  0
 26 27  2  0
 28 23  1  0
 29 28  1  0
 30 26  1  0
 31 28  2  0
M  END
$$$$
