QYE.pdb
     RDKit          3D

 31 31  0  0  1  0  0  0  0  0999 V2000
   25.1305  -18.5982  -18.8518 N   0  0  0  0  0  0  0  0  0  0  0  0
   26.3693  -18.4696  -19.5143 C   0  0  0  0  0  0  0  0  0  0  0  0
   26.6928  -17.3418  -19.9671 O   0  0  0  0  0  0  0  0  0  0  0  0
   27.3061  -19.6206  -19.6966 C   0  0  0  0  0  0  0  0  0  0  0  0
   26.7423  -20.8661  -19.0868 C   0  0  0  0  0  0  0  0  0  0  0  0
   27.7034  -21.4999  -18.1030 C   0  0  2  0  0  0  0  0  0  0  0  0
   28.0981  -22.8330  -18.5253 N   0  0  0  0  0  0  0  0  0  0  0  0
   27.0666  -21.6311  -16.7698 C   0  0  0  0  0  0  0  0  0  0  0  0
   26.1220  -22.4515  -16.5393 O   0  0  0  0  0  0  0  0  0  0  0  0
   24.8890  -20.4833   -8.2846 O   0  0  0  0  0  0  0  0  0  0  0  0
   25.5666  -20.4760   -9.5094 C   0  0  0  0  0  0  0  0  0  0  0  0
   25.8344  -19.2669  -10.1076 C   0  0  0  0  0  0  0  0  0  0  0  0
   26.5006  -19.2366  -11.3144 C   0  0  0  0  0  0  0  0  0  0  0  0
   26.9120  -20.4102  -11.9472 C   0  0  0  0  0  0  0  0  0  0  0  0
   27.6209  -20.3340  -13.2419 C   0  0  0  0  0  0  0  0  0  0  0  0
   26.8096  -20.8951  -14.3642 C   0  0  2  0  0  0  0  0  0  0  0  0
   27.4499  -20.8601  -15.6417 N   0  0  0  0  0  0  0  0  0  0  0  0
   25.4773  -20.3060  -14.4903 C   0  0  0  0  0  0  0  0  0  0  0  0
   25.3188  -19.2029  -15.0993 O   0  0  0  0  0  0  0  0  0  0  0  0
   26.6339  -21.6034  -11.3318 C   0  0  0  0  0  0  0  0  0  0  0  0
   25.9707  -21.6442  -10.1291 C   0  0  0  0  0  0  0  0  0  0  0  0
   24.2888  -20.8911  -13.9642 N   0  0  0  0  0  0  0  0  0  0  0  0
   23.0359  -20.2135  -14.0190 C   0  0  1  0  0  0  0  0  0  0  0  0
   22.1932  -20.4291  -15.2152 C   0  0  0  0  0  0  0  0  0  0  0  0
   22.3722  -19.5824  -16.4014 C   0  0  0  0  0  0  0  0  0  0  0  0
   21.4626  -19.9067  -17.5162 C   0  0  0  0  0  0  0  0  0  0  0  0
   21.8772  -20.4561  -18.5901 O   0  0  0  0  0  0  0  0  0  0  0  0
   22.2617  -20.5815  -12.8020 C   0  0  0  0  0  0  0  0  0  0  0  0
   22.7129  -21.5514  -11.9231 O   0  0  0  0  0  0  0  0  0  0  0  0
   20.1073  -19.6285  -17.4483 O   0  0  0  0  0  0  0  0  0  0  0  0
   21.1713  -20.0158  -12.5412 O   0  0  0  0  0  0  0  0  0  0  0  0
  2  3  2  0
  2  1  1  0
  4  2  1  0
  5  4  1  0
  6  5  1  0
  6  7  1  6
  8  6  1  0
  9  8  2  0
 10 11  1  0
 11 12  2  0
 12 13  1  0
 14 15  1  0
 14 13  2  0
 16 15  1  1
 16 17  1  0
 17  8  1  0
 18 19  2  0
 18 16  1  0
 20 14  1  0
 21 20  2  0
 21 11  1  0
 22 18  1  0
 23 22  1  0
 23 24  1  6
 25 24  1  0
 26 25  1  0
 26 27  2  0
 28 23  1  0
 29 28  1  0
 30 26  1  0
 31 28  2  0
M  END
$$$$
