QYE.pdb
     RDKit          3D

 31 31  0  0  1  0  0  0  0  0999 V2000
   28.2309  -19.9040  -20.4963 N   0  0  0  0  0  0  0  0  0  0  0  0
   27.1802  -20.7898  -20.1778 C   0  0  0  0  0  0  0  0  0  0  0  0
   26.0141  -20.3280  -20.0848 O   0  0  0  0  0  0  0  0  0  0  0  0
   27.4027  -22.2503  -19.9476 C   0  0  0  0  0  0  0  0  0  0  0  0
   26.9974  -22.6369  -18.5594 C   0  0  0  0  0  0  0  0  0  0  0  0
   27.9802  -22.1350  -17.5223 C   0  0  2  0  0  0  0  0  0  0  0  0
   29.1590  -22.9815  -17.4497 N   0  0  0  0  0  0  0  0  0  0  0  0
   27.3559  -22.1335  -16.1767 C   0  0  0  0  0  0  0  0  0  0  0  0
   27.8961  -22.6934  -15.1700 O   0  0  0  0  0  0  0  0  0  0  0  0
   27.6886  -15.5037  -16.9557 O   0  0  0  0  0  0  0  0  0  0  0  0
   27.4025  -16.6394  -16.1889 C   0  0  0  0  0  0  0  0  0  0  0  0
   28.2221  -17.7376  -16.3060 C   0  0  0  0  0  0  0  0  0  0  0  0
   27.9585  -18.8669  -15.5601 C   0  0  0  0  0  0  0  0  0  0  0  0
   26.8737  -18.9228  -14.6843 C   0  0  0  0  0  0  0  0  0  0  0  0
   26.6243  -20.1538  -13.9053 C   0  0  0  0  0  0  0  0  0  0  0  0
   25.6816  -21.0813  -14.6006 C   0  0  2  0  0  0  0  0  0  0  0  0
   26.1113  -21.5133  -15.8937 N   0  0  0  0  0  0  0  0  0  0  0  0
   24.3140  -20.5744  -14.7052 C   0  0  0  0  0  0  0  0  0  0  0  0
   23.9781  -19.8315  -15.6790 O   0  0  0  0  0  0  0  0  0  0  0  0
   26.0708  -17.8158  -14.5845 C   0  0  0  0  0  0  0  0  0  0  0  0
   26.3252  -16.6855  -15.3234 C   0  0  0  0  0  0  0  0  0  0  0  0
   23.2804  -20.8560  -13.7651 N   0  0  0  0  0  0  0  0  0  0  0  0
   21.9326  -20.4530  -13.9948 C   0  0  1  0  0  0  0  0  0  0  0  0
   20.9302  -21.5162  -14.2242 C   0  0  0  0  0  0  0  0  0  0  0  0
   21.1635  -22.5346  -15.2559 C   0  0  0  0  0  0  0  0  0  0  0  0
   20.1066  -23.5598  -15.3406 C   0  0  0  0  0  0  0  0  0  0  0  0
   19.0935  -23.5532  -14.5658 O   0  0  0  0  0  0  0  0  0  0  0  0
   21.5018  -19.6145  -12.8428 C   0  0  0  0  0  0  0  0  0  0  0  0
   20.2946  -18.9368  -12.8523 O   0  0  0  0  0  0  0  0  0  0  0  0
   20.1653  -24.5838  -16.2717 O   0  0  0  0  0  0  0  0  0  0  0  0
   22.2298  -19.5009  -11.8258 O   0  0  0  0  0  0  0  0  0  0  0  0
  2  3  2  0
  2  1  1  0
  4  2  1  0
  5  4  1  0
  6  5  1  0
  6  7  1  1
  8  6  1  0
  9  8  2  0
 10 11  1  0
 11 12  2  0
 12 13  1  0
 14 15  1  0
 14 13  2  0
 16 15  1  6
 16 17  1  0
 17  8  1  0
 18 19  2  0
 18 16  1  0
 20 14  1  0
 21 20  2  0
 21 11  1  0
 22 18  1  0
 23 22  1  0
 23 24  1  1
 25 24  1  0
 26 25  1  0
 26 27  2  0
 28 23  1  0
 29 28  1  0
 30 26  1  0
 31 28  2  0
M  END
$$$$
