QYE.pdb
     RDKit          3D

 31 31  0  0  1  0  0  0  0  0999 V2000
   25.9888  -19.5935  -20.6452 N   0  0  0  0  0  0  0  0  0  0  0  0
   27.2443  -19.2636  -20.0931 C   0  0  0  0  0  0  0  0  0  0  0  0
   28.2809  -19.5669  -20.7375 O   0  0  0  0  0  0  0  0  0  0  0  0
   27.3857  -18.5704  -18.7759 C   0  0  0  0  0  0  0  0  0  0  0  0
   26.6448  -19.3087  -17.7050 C   0  0  0  0  0  0  0  0  0  0  0  0
   27.5258  -20.3193  -17.0008 C   0  0  2  0  0  0  0  0  0  0  0  0
   27.6954  -21.5247  -17.7942 N   0  0  0  0  0  0  0  0  0  0  0  0
   26.9180  -20.7240  -15.7097 C   0  0  0  0  0  0  0  0  0  0  0  0
   25.9896  -21.5904  -15.6311 O   0  0  0  0  0  0  0  0  0  0  0  0
   24.7512  -20.4949   -7.1203 O   0  0  0  0  0  0  0  0  0  0  0  0
   25.4511  -20.4685   -8.3323 C   0  0  0  0  0  0  0  0  0  0  0  0
   25.9362  -19.2648   -8.7875 C   0  0  0  0  0  0  0  0  0  0  0  0
   26.6284  -19.2160   -9.9790 C   0  0  0  0  0  0  0  0  0  0  0  0
   26.8496  -20.3652  -10.7387 C   0  0  0  0  0  0  0  0  0  0  0  0
   27.5937  -20.2691  -12.0121 C   0  0  0  0  0  0  0  0  0  0  0  0
   26.7168  -20.5060  -13.1984 C   0  0  2  0  0  0  0  0  0  0  0  0
   27.3133  -20.1861  -14.4574 N   0  0  0  0  0  0  0  0  0  0  0  0
   25.4122  -19.8507  -13.1167 C   0  0  0  0  0  0  0  0  0  0  0  0
   25.3158  -18.5931  -13.2654 O   0  0  0  0  0  0  0  0  0  0  0  0
   26.3565  -21.5536  -10.2647 C   0  0  0  0  0  0  0  0  0  0  0  0
   25.6657  -21.6128   -9.0784 C   0  0  0  0  0  0  0  0  0  0  0  0
   24.1854  -20.5343  -12.8734 N   0  0  0  0  0  0  0  0  0  0  0  0
   22.9654  -19.8269  -12.6657 C   0  0  1  0  0  0  0  0  0  0  0  0
   22.0428  -19.7017  -13.8149 C   0  0  0  0  0  0  0  0  0  0  0  0
   22.2729  -20.4926  -15.0304 C   0  0  0  0  0  0  0  0  0  0  0  0
   21.7202  -19.8878  -16.2567 C   0  0  0  0  0  0  0  0  0  0  0  0
   22.4612  -19.3133  -17.1214 O   0  0  0  0  0  0  0  0  0  0  0  0
   22.2491  -20.4711  -11.5308 C   0  0  0  0  0  0  0  0  0  0  0  0
   22.6978  -21.6548  -10.9703 O   0  0  0  0  0  0  0  0  0  0  0  0
   20.3621  -19.9160  -16.5283 O   0  0  0  0  0  0  0  0  0  0  0  0
   21.2116  -19.9515  -11.0506 O   0  0  0  0  0  0  0  0  0  0  0  0
  2  3  2  0
  2  1  1  0
  4  2  1  0
  5  4  1  0
  6  5  1  0
  6  7  1  6
  8  6  1  0
  9  8  2  0
 10 11  1  0
 11 12  2  0
 12 13  1  0
 14 15  1  0
 14 13  2  0
 16 15  1  1
 16 17  1  0
 17  8  1  0
 18 19  2  0
 18 16  1  0
 20 14  1  0
 21 20  2  0
 21 11  1  0
 22 18  1  0
 23 22  1  0
 23 24  1  6
 25 24  1  0
 26 25  1  0
 26 27  2  0
 28 23  1  0
 29 28  1  0
 30 26  1  0
 31 28  2  0
M  END
$$$$
