QYE.pdb
     RDKit          3D

 31 31  0  0  1  0  0  0  0  0999 V2000
   25.8786  -20.0965  -20.6761 N   0  0  0  0  0  0  0  0  0  0  0  0
   27.2409  -20.0656  -21.0409 C   0  0  0  0  0  0  0  0  0  0  0  0
   27.5448  -19.6533  -22.1895 O   0  0  0  0  0  0  0  0  0  0  0  0
   28.3305  -20.5038  -20.1155 C   0  0  0  0  0  0  0  0  0  0  0  0
   27.7617  -21.0046  -18.8246 C   0  0  0  0  0  0  0  0  0  0  0  0
   27.1707  -19.8845  -17.9941 C   0  0  2  0  0  0  0  0  0  0  0  0
   28.1650  -18.8740  -17.6755 N   0  0  0  0  0  0  0  0  0  0  0  0
   26.6521  -20.4125  -16.7086 C   0  0  0  0  0  0  0  0  0  0  0  0
   25.7130  -21.2687  -16.6484 O   0  0  0  0  0  0  0  0  0  0  0  0
   24.9423  -21.0607   -8.0531 O   0  0  0  0  0  0  0  0  0  0  0  0
   25.5832  -20.8703   -9.2829 C   0  0  0  0  0  0  0  0  0  0  0  0
   25.8301  -19.5850   -9.7057 C   0  0  0  0  0  0  0  0  0  0  0  0
   26.4602  -19.3746  -10.9139 C   0  0  0  0  0  0  0  0  0  0  0  0
   26.8555  -20.4404  -11.7230 C   0  0  0  0  0  0  0  0  0  0  0  0
   27.5254  -20.1714  -13.0127 C   0  0  0  0  0  0  0  0  0  0  0  0
   26.6323  -20.4397  -14.1801 C   0  0  2  0  0  0  0  0  0  0  0  0
   27.1519  -20.0136  -15.4418 N   0  0  0  0  0  0  0  0  0  0  0  0
   25.2768  -19.9130  -14.0282 C   0  0  0  0  0  0  0  0  0  0  0  0
   25.0522  -18.6707  -14.1669 O   0  0  0  0  0  0  0  0  0  0  0  0
   26.5988  -21.7125  -11.2805 C   0  0  0  0  0  0  0  0  0  0  0  0
   25.9716  -21.9328  -10.0779 C   0  0  0  0  0  0  0  0  0  0  0  0
   24.1358  -20.7112  -13.7241 N   0  0  0  0  0  0  0  0  0  0  0  0
   22.8486  -20.1302  -13.5308 C   0  0  1  0  0  0  0  0  0  0  0  0
   21.9432  -20.0689  -14.6987 C   0  0  0  0  0  0  0  0  0  0  0  0
   22.1145  -19.0139  -15.7056 C   0  0  0  0  0  0  0  0  0  0  0  0
   20.8714  -18.2958  -16.0436 C   0  0  0  0  0  0  0  0  0  0  0  0
   19.7375  -18.6503  -15.5798 O   0  0  0  0  0  0  0  0  0  0  0  0
   22.1741  -20.8664  -12.4267 C   0  0  0  0  0  0  0  0  0  0  0  0
   21.1084  -20.3162  -11.7352 O   0  0  0  0  0  0  0  0  0  0  0  0
   20.8777  -17.1958  -16.8856 O   0  0  0  0  0  0  0  0  0  0  0  0
   22.5593  -22.0143  -12.0934 O   0  0  0  0  0  0  0  0  0  0  0  0
  2  3  2  0
  2  1  1  0
  4  2  1  0
  5  4  1  0
  6  5  1  0
  6  7  1  1
  8  6  1  0
  9  8  2  0
 10 11  1  0
 11 12  2  0
 12 13  1  0
 14 15  1  0
 14 13  2  0
 16 15  1  1
 16 17  1  0
 17  8  1  0
 18 19  2  0
 18 16  1  0
 20 14  1  0
 21 20  2  0
 21 11  1  0
 22 18  1  0
 23 22  1  0
 23 24  1  6
 25 24  1  0
 26 25  1  0
 26 27  2  0
 28 23  1  0
 29 28  1  0
 30 26  1  0
 31 28  2  0
M  END
$$$$
