KFE.pdb
     RDKit          3D

 30 30  0  0  1  0  0  0  0  0999 V2000
   26.8889  -23.1211  -15.6069 N   0  0  0  0  0  0  0  0  0  0  0  0
   27.0300  -21.7970  -15.0812 C   0  0  1  0  0  0  0  0  0  0  0  0
   26.1250  -20.8773  -15.8766 C   0  0  0  0  0  0  0  0  0  0  0  0
   26.7258  -20.7005  -17.2429 C   0  0  0  0  0  0  0  0  0  0  0  0
   27.7449  -19.5729  -17.2656 C   0  0  0  0  0  0  0  0  0  0  0  0
   28.2082  -19.4318  -18.7008 C   0  0  0  0  0  0  0  0  0  0  0  0
   29.1857  -18.3686  -18.7345 N   0  0  0  0  0  0  0  0  0  0  0  0
   26.6449  -21.7400  -13.6236 C   0  0  0  0  0  0  0  0  0  0  0  0
   25.5637  -22.2407  -13.2406 O   0  0  0  0  0  0  0  0  0  0  0  0
   27.5023  -21.1205  -12.6798 N   0  0  0  0  0  0  0  0  0  0  0  0
   27.0366  -20.8938  -11.3305 C   0  0  1  0  0  0  0  0  0  0  0  0
   28.1123  -20.3698  -10.4116 C   0  0  0  0  0  0  0  0  0  0  0  0
   27.6402  -20.0184   -9.0585 C   0  0  0  0  0  0  0  0  0  0  0  0
   27.2675  -18.7412   -8.7101 C   0  0  0  0  0  0  0  0  0  0  0  0
   26.8123  -18.4308   -7.4333 C   0  0  0  0  0  0  0  0  0  0  0  0
   26.7296  -19.4224   -6.4866 C   0  0  0  0  0  0  0  0  0  0  0  0
   27.0990  -20.7032   -6.8218 C   0  0  0  0  0  0  0  0  0  0  0  0
   27.5481  -20.9944   -8.0920 C   0  0  0  0  0  0  0  0  0  0  0  0
   25.7678  -20.1600  -11.2879 C   0  0  0  0  0  0  0  0  0  0  0  0
   25.6204  -19.0040  -11.7790 O   0  0  0  0  0  0  0  0  0  0  0  0
   24.5900  -20.6924  -10.6847 N   0  0  0  0  0  0  0  0  0  0  0  0
   23.3362  -19.8736  -10.6043 C   0  0  1  0  0  0  0  0  0  0  0  0
   22.8442  -19.7130  -11.9883 C   0  0  0  0  0  0  0  0  0  0  0  0
   22.4084  -20.9017  -12.7226 C   0  0  0  0  0  0  0  0  0  0  0  0
   21.8584  -20.7498  -14.0754 C   0  0  0  0  0  0  0  0  0  0  0  0
   22.5230  -21.0248  -15.1338 O   0  0  0  0  0  0  0  0  0  0  0  0
   22.4855  -20.6120   -9.6631 C   0  0  0  0  0  0  0  0  0  0  0  0
   23.0007  -21.6928   -8.9097 O   0  0  0  0  0  0  0  0  0  0  0  0
   20.5490  -20.2897  -14.3053 O   0  0  0  0  0  0  0  0  0  0  0  0
   21.2785  -20.3778   -9.4381 O   0  0  0  0  0  0  0  0  0  0  0  0
  2  1  1  6
  2  3  1  0
  4  5  1  0
  4  3  1  0
  6  5  1  0
  7  6  1  0
  8  9  2  0
  8  2  1  0
 10  8  1  0
 11 10  1  0
 11 12  1  1
 13 12  1  0
 13 14  2  0
 15 14  1  0
 16 15  2  0
 17 18  2  0
 17 16  1  0
 18 13  1  0
 19 21  1  0
 19 11  1  0
 20 19  2  0
 22 21  1  0
 22 27  1  0
 22 23  1  6
 23 24  1  0
 24 25  1  0
 25 26  2  0
 25 29  1  0
 27 28  1  0
 30 27  2  0
M  END
$$$$
