KFE.pdb
     RDKit          3D

 30 30  0  0  1  0  0  0  0  0999 V2000
   20.6029  -15.1364  -19.8516 N   0  0  0  0  0  0  0  0  0  0  0  0
   20.3259  -14.8518  -18.4762 C   0  0  1  0  0  0  0  0  0  0  0  0
   21.5399  -15.2498  -17.6606 C   0  0  0  0  0  0  0  0  0  0  0  0
   21.6108  -16.7509  -17.6334 C   0  0  0  0  0  0  0  0  0  0  0  0
   22.7065  -17.2436  -16.7023 C   0  0  0  0  0  0  0  0  0  0  0  0
   22.7318  -18.7537  -16.8181 C   0  0  0  0  0  0  0  0  0  0  0  0
   23.8230  -19.2295  -15.9996 N   0  0  0  0  0  0  0  0  0  0  0  0
   20.0399  -13.3856  -18.2647 C   0  0  0  0  0  0  0  0  0  0  0  0
   20.6612  -12.5237  -18.9263 O   0  0  0  0  0  0  0  0  0  0  0  0
   19.0683  -12.9745  -17.3178 N   0  0  0  0  0  0  0  0  0  0  0  0
   18.7776  -11.5682  -17.1552 C   0  0  1  0  0  0  0  0  0  0  0  0
   17.3260  -11.2937  -16.8488 C   0  0  0  0  0  0  0  0  0  0  0  0
   16.9887   -9.8624  -16.7271 C   0  0  0  0  0  0  0  0  0  0  0  0
   16.8747   -9.0309  -17.8166 C   0  0  0  0  0  0  0  0  0  0  0  0
   16.5429   -7.6869  -17.6841 C   0  0  0  0  0  0  0  0  0  0  0  0
   16.3212   -7.1668  -16.4324 C   0  0  0  0  0  0  0  0  0  0  0  0
   16.4320   -7.9870  -15.3351 C   0  0  0  0  0  0  0  0  0  0  0  0
   16.7616   -9.3171  -15.4836 C   0  0  0  0  0  0  0  0  0  0  0  0
   19.7389  -10.8915  -16.2786 C   0  0  0  0  0  0  0  0  0  0  0  0
   20.1573  -11.3908  -15.1948 O   0  0  0  0  0  0  0  0  0  0  0  0
   20.2827   -9.6072  -16.5780 N   0  0  0  0  0  0  0  0  0  0  0  0
   21.4023   -9.0416  -15.7561 C   0  0  1  0  0  0  0  0  0  0  0  0
   22.6151   -9.0919  -16.5987 C   0  0  0  0  0  0  0  0  0  0  0  0
   23.8441   -8.4724  -16.1007 C   0  0  0  0  0  0  0  0  0  0  0  0
   25.0212   -8.4055  -16.9757 C   0  0  0  0  0  0  0  0  0  0  0  0
   25.0505   -8.9208  -18.1467 O   0  0  0  0  0  0  0  0  0  0  0  0
   20.9143   -7.7189  -15.3474 C   0  0  0  0  0  0  0  0  0  0  0  0
   21.2349   -7.1849  -14.0773 O   0  0  0  0  0  0  0  0  0  0  0  0
   26.2098   -7.7619  -16.5858 O   0  0  0  0  0  0  0  0  0  0  0  0
   20.2007   -6.9623  -16.0408 O   0  0  0  0  0  0  0  0  0  0  0  0
  2  1  1  6
  2  3  1  0
  4  5  1  0
  4  3  1  0
  6  5  1  0
  7  6  1  0
  8  9  2  0
  8  2  1  0
 10  8  1  0
 11 10  1  0
 11 12  1  1
 13 12  1  0
 13 14  2  0
 15 14  1  0
 16 15  2  0
 17 18  2  0
 17 16  1  0
 18 13  1  0
 19 21  1  0
 19 11  1  0
 20 19  2  0
 22 21  1  0
 22 27  1  0
 22 23  1  6
 23 24  1  0
 24 25  1  0
 25 26  2  0
 25 29  1  0
 27 28  1  0
 30 27  2  0
M  END
$$$$
