KFE.pdb
     RDKit          3D

 30 30  0  0  1  0  0  0  0  0999 V2000
   16.1097  -21.9619    2.3174 N   0  0  0  0  0  0  0  0  0  0  0  0
   15.3441  -20.7721    2.5355 C   0  0  1  0  0  0  0  0  0  0  0  0
   14.3552  -21.0478    3.6505 C   0  0  0  0  0  0  0  0  0  0  0  0
   13.0402  -21.4203    3.0250 C   0  0  0  0  0  0  0  0  0  0  0  0
   11.9996  -21.7728    4.0755 C   0  0  0  0  0  0  0  0  0  0  0  0
   10.7595  -22.2195    3.3291 C   0  0  0  0  0  0  0  0  0  0  0  0
    9.7637  -22.5642    4.3173 N   0  0  0  0  0  0  0  0  0  0  0  0
   16.2278  -19.6132    2.9258 C   0  0  0  0  0  0  0  0  0  0  0  0
   17.4323  -19.8090    3.2041 O   0  0  0  0  0  0  0  0  0  0  0  0
   15.7019  -18.2979    2.9802 N   0  0  0  0  0  0  0  0  0  0  0  0
   16.5533  -17.2030    3.3868 C   0  0  1  0  0  0  0  0  0  0  0  0
   16.4204  -15.9878    2.5025 C   0  0  0  0  0  0  0  0  0  0  0  0
   17.3219  -14.8747    2.8566 C   0  0  0  0  0  0  0  0  0  0  0  0
   18.6138  -14.7889    2.3928 C   0  0  0  0  0  0  0  0  0  0  0  0
   19.4454  -13.7254    2.7263 C   0  0  0  0  0  0  0  0  0  0  0  0
   18.9708  -12.7276    3.5421 C   0  0  0  0  0  0  0  0  0  0  0  0
   17.6814  -12.8012    4.0125 C   0  0  0  0  0  0  0  0  0  0  0  0
   16.8699  -13.8622    3.6725 C   0  0  0  0  0  0  0  0  0  0  0  0
   16.4808  -16.9373    4.8271 C   0  0  0  0  0  0  0  0  0  0  0  0
   15.3977  -16.9526    5.4796 O   0  0  0  0  0  0  0  0  0  0  0  0
   17.6321  -16.6373    5.6138 N   0  0  0  0  0  0  0  0  0  0  0  0
   17.5158  -16.4505    7.0972 C   0  0  1  0  0  0  0  0  0  0  0  0
   18.7674  -16.9664    7.6897 C   0  0  0  0  0  0  0  0  0  0  0  0
   18.9516  -16.8712    9.1385 C   0  0  0  0  0  0  0  0  0  0  0  0
   19.8358  -17.8281    9.8153 C   0  0  0  0  0  0  0  0  0  0  0  0
   20.2600  -18.8999    9.2595 O   0  0  0  0  0  0  0  0  0  0  0  0
   17.2287  -15.0199    7.2571 C   0  0  0  0  0  0  0  0  0  0  0  0
   16.6559  -14.5211    8.4505 O   0  0  0  0  0  0  0  0  0  0  0  0
   20.2855  -17.6308   11.1336 O   0  0  0  0  0  0  0  0  0  0  0  0
   17.4475  -14.1355    6.4013 O   0  0  0  0  0  0  0  0  0  0  0  0
  2  1  1  1
  2  3  1  0
  4  5  1  0
  4  3  1  0
  6  5  1  0
  7  6  1  0
  8  9  2  0
  8  2  1  0
 10  8  1  0
 11 10  1  0
 11 12  1  6
 13 12  1  0
 13 14  2  0
 15 14  1  0
 16 15  2  0
 17 18  2  0
 17 16  1  0
 18 13  1  0
 19 21  1  0
 19 11  1  0
 20 19  2  0
 22 21  1  0
 22 27  1  0
 22 23  1  1
 23 24  1  0
 24 25  1  0
 25 26  2  0
 25 29  1  0
 27 28  1  0
 30 27  2  0
M  END
$$$$
