KFE.pdb
     RDKit          3D

 30 30  0  0  1  0  0  0  0  0999 V2000
   23.8299  -13.3145  -18.4162 N   0  0  0  0  0  0  0  0  0  0  0  0
   23.6073  -11.9350  -18.7275 C   0  0  1  0  0  0  0  0  0  0  0  0
   22.1546  -11.7727  -19.1287 C   0  0  0  0  0  0  0  0  0  0  0  0
   21.9270  -12.5670  -20.3843 C   0  0  0  0  0  0  0  0  0  0  0  0
   20.7899  -13.5622  -20.2197 C   0  0  0  0  0  0  0  0  0  0  0  0
   20.6141  -14.2497  -21.5579 C   0  0  0  0  0  0  0  0  0  0  0  0
   19.6755  -15.3310  -21.3658 N   0  0  0  0  0  0  0  0  0  0  0  0
   23.9006  -11.0493  -17.5418 C   0  0  0  0  0  0  0  0  0  0  0  0
   23.5012  -11.3754  -16.4014 O   0  0  0  0  0  0  0  0  0  0  0  0
   24.6288   -9.8446  -17.7103 N   0  0  0  0  0  0  0  0  0  0  0  0
   24.9977   -9.0633  -16.5517 C   0  0  1  0  0  0  0  0  0  0  0  0
   26.4793   -9.0852  -16.2684 C   0  0  0  0  0  0  0  0  0  0  0  0
   27.0639  -10.4373  -16.1836 C   0  0  0  0  0  0  0  0  0  0  0  0
   27.7756  -11.0049  -17.2146 C   0  0  0  0  0  0  0  0  0  0  0  0
   28.3309  -12.2757  -17.1122 C   0  0  0  0  0  0  0  0  0  0  0  0
   28.1686  -12.9917  -15.9515 C   0  0  0  0  0  0  0  0  0  0  0  0
   27.4594  -12.4360  -14.9134 C   0  0  0  0  0  0  0  0  0  0  0  0
   26.9153  -11.1751  -15.0309 C   0  0  0  0  0  0  0  0  0  0  0  0
   24.3818   -7.7325  -16.5498 C   0  0  0  0  0  0  0  0  0  0  0  0
   24.6187   -6.8594  -17.4333 O   0  0  0  0  0  0  0  0  0  0  0  0
   23.4609   -7.3115  -15.5451 N   0  0  0  0  0  0  0  0  0  0  0  0
   22.7656   -5.9872  -15.6533 C   0  0  1  0  0  0  0  0  0  0  0  0
   21.6432   -6.1726  -16.5964 C   0  0  0  0  0  0  0  0  0  0  0  0
   20.3970   -6.7583  -16.1006 C   0  0  0  0  0  0  0  0  0  0  0  0
   19.2779   -6.9601  -17.0293 C   0  0  0  0  0  0  0  0  0  0  0  0
   18.4730   -7.9517  -16.9473 O   0  0  0  0  0  0  0  0  0  0  0  0
   22.4357   -5.6411  -14.2655 C   0  0  0  0  0  0  0  0  0  0  0  0
   21.9662   -4.3498  -13.9289 O   0  0  0  0  0  0  0  0  0  0  0  0
   19.0074   -6.0678  -18.0828 O   0  0  0  0  0  0  0  0  0  0  0  0
   22.5293   -6.4093  -13.2838 O   0  0  0  0  0  0  0  0  0  0  0  0
  2  1  1  1
  2  3  1  0
  4  5  1  0
  4  3  1  0
  6  5  1  0
  7  6  1  0
  8  9  2  0
  8  2  1  0
 10  8  1  0
 11 10  1  0
 11 12  1  6
 13 12  1  0
 13 14  2  0
 15 14  1  0
 16 15  2  0
 17 18  2  0
 17 16  1  0
 18 13  1  0
 19 21  1  0
 19 11  1  0
 20 19  2  0
 22 21  1  0
 22 27  1  0
 22 23  1  6
 23 24  1  0
 24 25  1  0
 25 26  2  0
 25 29  1  0
 27 28  1  0
 30 27  2  0
M  END
$$$$
