KFE.pdb
     RDKit          3D

 30 30  0  0  1  0  0  0  0  0999 V2000
   27.3487  -19.5598  -13.2259 N   0  0  0  0  0  0  0  0  0  0  0  0
   26.5358  -20.6993  -12.9259 C   0  0  1  0  0  0  0  0  0  0  0  0
   26.9848  -21.8432  -13.8133 C   0  0  0  0  0  0  0  0  0  0  0  0
   26.9043  -21.3833  -15.2420 C   0  0  0  0  0  0  0  0  0  0  0  0
   25.4821  -21.4531  -15.7740 C   0  0  0  0  0  0  0  0  0  0  0  0
   25.5479  -21.0962  -17.2446 C   0  0  0  0  0  0  0  0  0  0  0  0
   24.2006  -21.1569  -17.7624 N   0  0  0  0  0  0  0  0  0  0  0  0
   26.6709  -21.1057  -11.4792 C   0  0  0  0  0  0  0  0  0  0  0  0
   26.0947  -22.1348  -11.0605 O   0  0  0  0  0  0  0  0  0  0  0  0
   27.4493  -20.3271  -10.5861 N   0  0  0  0  0  0  0  0  0  0  0  0
   27.3722  -20.5775   -9.1647 C   0  0  1  0  0  0  0  0  0  0  0  0
   28.5895  -20.1011   -8.4113 C   0  0  0  0  0  0  0  0  0  0  0  0
   28.3993  -19.9920   -6.9522 C   0  0  0  0  0  0  0  0  0  0  0  0
   28.7606  -20.9913   -6.0792 C   0  0  0  0  0  0  0  0  0  0  0  0
   28.5860  -20.8659   -4.7053 C   0  0  0  0  0  0  0  0  0  0  0  0
   28.0374  -19.7138   -4.1971 C   0  0  0  0  0  0  0  0  0  0  0  0
   27.6719  -18.7072   -5.0588 C   0  0  0  0  0  0  0  0  0  0  0  0
   27.8517  -18.8474   -6.4181 C   0  0  0  0  0  0  0  0  0  0  0  0
   26.0852  -20.1731   -8.5900 C   0  0  0  0  0  0  0  0  0  0  0  0
   25.6129  -19.0056   -8.7042 O   0  0  0  0  0  0  0  0  0  0  0  0
   25.2567  -21.0681   -7.8503 N   0  0  0  0  0  0  0  0  0  0  0  0
   23.7750  -20.8502   -7.7736 C   0  0  1  0  0  0  0  0  0  0  0  0
   23.2672  -20.8915   -9.1606 C   0  0  0  0  0  0  0  0  0  0  0  0
   22.0029  -20.2210   -9.4673 C   0  0  0  0  0  0  0  0  0  0  0  0
   21.5017  -20.2278  -10.8473 C   0  0  0  0  0  0  0  0  0  0  0  0
   22.1641  -20.7151  -11.8279 O   0  0  0  0  0  0  0  0  0  0  0  0
   23.3072  -21.8895   -6.8485 C   0  0  0  0  0  0  0  0  0  0  0  0
   24.0397  -23.0859   -6.6667 O   0  0  0  0  0  0  0  0  0  0  0  0
   20.2453  -19.6967  -11.1915 O   0  0  0  0  0  0  0  0  0  0  0  0
   22.2665  -21.8322   -6.1585 O   0  0  0  0  0  0  0  0  0  0  0  0
  2  1  1  1
  2  3  1  0
  4  5  1  0
  4  3  1  0
  6  5  1  0
  7  6  1  0
  8  9  2  0
  8  2  1  0
 10  8  1  0
 11 10  1  0
 11 12  1  1
 13 12  1  0
 13 14  2  0
 15 14  1  0
 16 15  2  0
 17 18  2  0
 17 16  1  0
 18 13  1  0
 19 21  1  0
 19 11  1  0
 20 19  2  0
 22 21  1  0
 22 27  1  0
 22 23  1  6
 23 24  1  0
 24 25  1  0
 25 26  2  0
 25 29  1  0
 27 28  1  0
 30 27  2  0
M  END
$$$$
