KFE.pdb
     RDKit          3D

 30 30  0  0  1  0  0  0  0  0999 V2000
   18.5952  -13.7052  -16.9264 N   0  0  0  0  0  0  0  0  0  0  0  0
   19.2346  -12.6335  -17.6279 C   0  0  1  0  0  0  0  0  0  0  0  0
   18.3739  -12.2751  -18.8230 C   0  0  0  0  0  0  0  0  0  0  0  0
   17.9639  -13.5522  -19.5012 C   0  0  0  0  0  0  0  0  0  0  0  0
   17.8694  -13.3810  -21.0087 C   0  0  0  0  0  0  0  0  0  0  0  0
   17.4892  -14.7319  -21.5786 C   0  0  0  0  0  0  0  0  0  0  0  0
   17.4550  -14.5976  -23.0166 N   0  0  0  0  0  0  0  0  0  0  0  0
   19.3980  -11.4196  -16.7470 C   0  0  0  0  0  0  0  0  0  0  0  0
   18.5432  -11.1617  -15.8699 O   0  0  0  0  0  0  0  0  0  0  0  0
   20.5177  -10.5647  -16.9059 N   0  0  0  0  0  0  0  0  0  0  0  0
   20.6471   -9.3923  -16.0707 C   0  0  1  0  0  0  0  0  0  0  0  0
   21.9936   -9.2883  -15.3982 C   0  0  0  0  0  0  0  0  0  0  0  0
   22.1447   -8.1166  -14.5142 C   0  0  0  0  0  0  0  0  0  0  0  0
   21.8141   -8.1455  -13.1795 C   0  0  0  0  0  0  0  0  0  0  0  0
   21.9755   -7.0351  -12.3581 C   0  0  0  0  0  0  0  0  0  0  0  0
   22.4790   -5.8718  -12.8870 C   0  0  0  0  0  0  0  0  0  0  0  0
   22.8134   -5.8295  -14.2195 C   0  0  0  0  0  0  0  0  0  0  0  0
   22.6472   -6.9391  -15.0202 C   0  0  0  0  0  0  0  0  0  0  0  0
   20.1876   -8.1706  -16.7390 C   0  0  0  0  0  0  0  0  0  0  0  0
   20.5665   -7.8311  -17.8967 O   0  0  0  0  0  0  0  0  0  0  0  0
   19.2717   -7.2597  -16.1341 N   0  0  0  0  0  0  0  0  0  0  0  0
   18.8617   -6.0043  -16.8446 C   0  0  1  0  0  0  0  0  0  0  0  0
   17.3845   -5.9715  -16.8306 C   0  0  0  0  0  0  0  0  0  0  0  0
   16.6521   -6.8713  -17.7228 C   0  0  0  0  0  0  0  0  0  0  0  0
   15.1841   -6.8701  -17.6986 C   0  0  0  0  0  0  0  0  0  0  0  0
   14.4954   -7.7668  -17.0991 O   0  0  0  0  0  0  0  0  0  0  0  0
   19.5710   -4.9382  -16.1270 C   0  0  0  0  0  0  0  0  0  0  0  0
   19.7891   -5.0200  -14.7317 O   0  0  0  0  0  0  0  0  0  0  0  0
   14.4243   -5.8724  -18.3360 O   0  0  0  0  0  0  0  0  0  0  0  0
   20.0339   -3.8986  -16.6440 O   0  0  0  0  0  0  0  0  0  0  0  0
  2  1  1  1
  2  3  1  0
  4  5  1  0
  4  3  1  0
  6  5  1  0
  7  6  1  0
  8  9  2  0
  8  2  1  0
 10  8  1  0
 11 10  1  0
 11 12  1  6
 13 12  1  0
 13 14  2  0
 15 14  1  0
 16 15  2  0
 17 18  2  0
 17 16  1  0
 18 13  1  0
 19 21  1  0
 19 11  1  0
 20 19  2  0
 22 21  1  0
 22 27  1  0
 22 23  1  1
 23 24  1  0
 24 25  1  0
 25 26  2  0
 25 29  1  0
 27 28  1  0
 30 27  2  0
M  END
$$$$
