KFE.pdb
     RDKit          3D

 30 30  0  0  1  0  0  0  0  0999 V2000
   25.0621  -24.6977  -15.6523 N   0  0  0  0  0  0  0  0  0  0  0  0
   23.6473  -24.8864  -15.5420 C   0  0  1  0  0  0  0  0  0  0  0  0
   23.4027  -26.1205  -14.6965 C   0  0  0  0  0  0  0  0  0  0  0  0
   23.5654  -27.3277  -15.5770 C   0  0  0  0  0  0  0  0  0  0  0  0
   24.7582  -27.1856  -16.5085 C   0  0  0  0  0  0  0  0  0  0  0  0
   24.7604  -28.4067  -17.4047 C   0  0  0  0  0  0  0  0  0  0  0  0
   25.8121  -28.2238  -18.3780 N   0  0  0  0  0  0  0  0  0  0  0  0
   22.9825  -23.6968  -14.8947 C   0  0  0  0  0  0  0  0  0  0  0  0
   21.8029  -23.7834  -14.4854 O   0  0  0  0  0  0  0  0  0  0  0  0
   23.6870  -22.4756  -14.7458 N   0  0  0  0  0  0  0  0  0  0  0  0
   23.0043  -21.3150  -14.2207 C   0  0  1  0  0  0  0  0  0  0  0  0
   23.9418  -20.2938  -13.6253 C   0  0  0  0  0  0  0  0  0  0  0  0
   24.5436  -20.6955  -12.3394 C   0  0  0  0  0  0  0  0  0  0  0  0
   24.0292  -20.3064  -11.1247 C   0  0  0  0  0  0  0  0  0  0  0  0
   24.6020  -20.7053   -9.9220 C   0  0  0  0  0  0  0  0  0  0  0  0
   25.7140  -21.5113   -9.9386 C   0  0  0  0  0  0  0  0  0  0  0  0
   26.2383  -21.9073  -11.1459 C   0  0  0  0  0  0  0  0  0  0  0  0
   25.6585  -21.5030  -12.3292 C   0  0  0  0  0  0  0  0  0  0  0  0
   22.0072  -20.7780  -15.1522 C   0  0  0  0  0  0  0  0  0  0  0  0
   22.2885  -20.4057  -16.3275 O   0  0  0  0  0  0  0  0  0  0  0  0
   20.6313  -20.6299  -14.8066 N   0  0  0  0  0  0  0  0  0  0  0  0
   19.6488  -20.0852  -15.7999 C   0  0  1  0  0  0  0  0  0  0  0  0
   18.3156  -20.5735  -15.3903 C   0  0  0  0  0  0  0  0  0  0  0  0
   17.1498  -20.1878  -16.1866 C   0  0  0  0  0  0  0  0  0  0  0  0
   15.8127  -20.6181  -15.7590 C   0  0  0  0  0  0  0  0  0  0  0  0
   14.7480  -20.3402  -16.4124 O   0  0  0  0  0  0  0  0  0  0  0  0
   19.8782  -18.6356  -15.7731 C   0  0  0  0  0  0  0  0  0  0  0  0
   20.0935  -17.9548  -14.5518 O   0  0  0  0  0  0  0  0  0  0  0  0
   15.6063  -21.3756  -14.5917 O   0  0  0  0  0  0  0  0  0  0  0  0
   19.9063  -17.8863  -16.7732 O   0  0  0  0  0  0  0  0  0  0  0  0
  2  1  1  1
  2  3  1  0
  4  5  1  0
  4  3  1  0
  6  5  1  0
  7  6  1  0
  8  9  2  0
  8  2  1  0
 10  8  1  0
 11 10  1  0
 11 12  1  6
 13 12  1  0
 13 14  2  0
 15 14  1  0
 16 15  2  0
 17 18  2  0
 17 16  1  0
 18 13  1  0
 19 21  1  0
 19 11  1  0
 20 19  2  0
 22 21  1  0
 22 27  1  0
 22 23  1  1
 23 24  1  0
 24 25  1  0
 25 26  2  0
 25 29  1  0
 27 28  1  0
 30 27  2  0
M  END
$$$$
