KFE.pdb
     RDKit          3D

 30 30  0  0  1  0  0  0  0  0999 V2000
   28.0097  -21.8331  -18.0331 N   0  0  0  0  0  0  0  0  0  0  0  0
   27.5437  -20.6604  -17.3570 C   0  0  1  0  0  0  0  0  0  0  0  0
   26.5376  -19.9690  -18.2554 C   0  0  0  0  0  0  0  0  0  0  0  0
   27.2921  -19.2935  -19.3660 C   0  0  0  0  0  0  0  0  0  0  0  0
   28.3647  -18.3603  -18.8282 C   0  0  0  0  0  0  0  0  0  0  0  0
   29.0070  -17.6955  -20.0282 C   0  0  0  0  0  0  0  0  0  0  0  0
   30.0602  -16.8396  -19.5331 N   0  0  0  0  0  0  0  0  0  0  0  0
   26.8866  -21.0072  -16.0439 C   0  0  0  0  0  0  0  0  0  0  0  0
   25.8462  -21.7028  -16.0277 O   0  0  0  0  0  0  0  0  0  0  0  0
   27.4410  -20.5489  -14.8223 N   0  0  0  0  0  0  0  0  0  0  0  0
   26.7116  -20.7395  -13.5892 C   0  0  1  0  0  0  0  0  0  0  0  0
   27.5434  -20.4695  -12.3598 C   0  0  0  0  0  0  0  0  0  0  0  0
   26.7988  -20.5560  -11.0889 C   0  0  0  0  0  0  0  0  0  0  0  0
   26.4903  -19.4500  -10.3319 C   0  0  0  0  0  0  0  0  0  0  0  0
   25.7761  -19.5490   -9.1428 C   0  0  0  0  0  0  0  0  0  0  0  0
   25.3630  -20.7833   -8.7044 C   0  0  0  0  0  0  0  0  0  0  0  0
   25.6648  -21.8968   -9.4516 C   0  0  0  0  0  0  0  0  0  0  0  0
   26.3736  -21.7815  -10.6280 C   0  0  0  0  0  0  0  0  0  0  0  0
   25.3959  -20.0924  -13.6067 C   0  0  0  0  0  0  0  0  0  0  0  0
   25.2189  -18.8948  -13.9723 O   0  0  0  0  0  0  0  0  0  0  0  0
   24.2019  -20.7640  -13.2096 N   0  0  0  0  0  0  0  0  0  0  0  0
   22.8824  -20.0516  -13.2291 C   0  0  1  0  0  0  0  0  0  0  0  0
   22.5862  -19.7447  -14.6438 C   0  0  0  0  0  0  0  0  0  0  0  0
   22.1203  -20.8242  -15.5154 C   0  0  0  0  0  0  0  0  0  0  0  0
   21.5603  -20.4944  -16.8319 C   0  0  0  0  0  0  0  0  0  0  0  0
   21.2125  -21.3829  -17.6848 O   0  0  0  0  0  0  0  0  0  0  0  0
   21.9717  -20.9645  -12.5277 C   0  0  0  0  0  0  0  0  0  0  0  0
   20.7506  -20.5002  -11.9850 O   0  0  0  0  0  0  0  0  0  0  0  0
   21.3622  -19.1663  -17.2514 O   0  0  0  0  0  0  0  0  0  0  0  0
   22.1668  -22.1854  -12.3442 O   0  0  0  0  0  0  0  0  0  0  0  0
  2  1  1  6
  2  3  1  0
  4  5  1  0
  4  3  1  0
  6  5  1  0
  7  6  1  0
  8  9  2  0
  8  2  1  0
 10  8  1  0
 11 10  1  0
 11 12  1  1
 13 12  1  0
 13 14  2  0
 15 14  1  0
 16 15  2  0
 17 18  2  0
 17 16  1  0
 18 13  1  0
 19 21  1  0
 19 11  1  0
 20 19  2  0
 22 21  1  0
 22 27  1  0
 22 23  1  6
 23 24  1  0
 24 25  1  0
 25 26  2  0
 25 29  1  0
 27 28  1  0
 30 27  2  0
M  END
$$$$
