KFE.pdb
     RDKit          3D

 30 30  0  0  1  0  0  0  0  0999 V2000
   21.5501  -10.2646  -18.2155 N   0  0  0  0  0  0  0  0  0  0  0  0
   21.4188   -8.8965  -18.6160 C   0  0  1  0  0  0  0  0  0  0  0  0
   20.0737   -8.7331  -19.2954 C   0  0  0  0  0  0  0  0  0  0  0  0
   20.1415   -9.4166  -20.6324 C   0  0  0  0  0  0  0  0  0  0  0  0
   19.1814  -10.5925  -20.7101 C   0  0  0  0  0  0  0  0  0  0  0  0
   18.9641  -10.8825  -22.1808 C   0  0  0  0  0  0  0  0  0  0  0  0
   18.6709   -9.6248  -22.8283 N   0  0  0  0  0  0  0  0  0  0  0  0
   21.4967   -7.9665  -17.4305 C   0  0  0  0  0  0  0  0  0  0  0  0
   20.7828   -8.1731  -16.4235 O   0  0  0  0  0  0  0  0  0  0  0  0
   22.3764   -6.8550  -17.4486 N   0  0  0  0  0  0  0  0  0  0  0  0
   22.4503   -5.9820  -16.2991 C   0  0  1  0  0  0  0  0  0  0  0  0
   23.7635   -6.0802  -15.5628 C   0  0  0  0  0  0  0  0  0  0  0  0
   24.1294   -7.4482  -15.1486 C   0  0  0  0  0  0  0  0  0  0  0  0
   25.1905   -8.1312  -15.6954 C   0  0  0  0  0  0  0  0  0  0  0  0
   25.5290   -9.4155  -15.2833 C   0  0  0  0  0  0  0  0  0  0  0  0
   24.7873  -10.0270  -14.3024 C   0  0  0  0  0  0  0  0  0  0  0  0
   23.7241   -9.3554  -13.7474 C   0  0  0  0  0  0  0  0  0  0  0  0
   23.4018   -8.0827  -14.1671 C   0  0  0  0  0  0  0  0  0  0  0  0
   22.0030   -4.6178  -16.5975 C   0  0  0  0  0  0  0  0  0  0  0  0
   22.4976   -3.9150  -17.5251 O   0  0  0  0  0  0  0  0  0  0  0  0
   20.9685   -3.9681  -15.8611 N   0  0  0  0  0  0  0  0  0  0  0  0
   20.5308   -2.5798  -16.2217 C   0  0  1  0  0  0  0  0  0  0  0  0
   19.0733   -2.6416  -16.4568 C   0  0  0  0  0  0  0  0  0  0  0  0
   18.3591   -1.4049  -16.7769 C   0  0  0  0  0  0  0  0  0  0  0  0
   16.9050   -1.4451  -16.9760 C   0  0  0  0  0  0  0  0  0  0  0  0
   16.0656   -1.2130  -16.0383 O   0  0  0  0  0  0  0  0  0  0  0  0
   21.0035   -1.7533  -15.1046 C   0  0  0  0  0  0  0  0  0  0  0  0
   21.3517   -0.3961  -15.2992 O   0  0  0  0  0  0  0  0  0  0  0  0
   16.3267   -1.7417  -18.2236 O   0  0  0  0  0  0  0  0  0  0  0  0
   21.1421   -2.1393  -13.9237 O   0  0  0  0  0  0  0  0  0  0  0  0
  2  1  1  1
  2  3  1  0
  4  5  1  0
  4  3  1  0
  6  5  1  0
  7  6  1  0
  8  9  2  0
  8  2  1  0
 10  8  1  0
 11 10  1  0
 11 12  1  6
 13 12  1  0
 13 14  2  0
 15 14  1  0
 16 15  2  0
 17 18  2  0
 17 16  1  0
 18 13  1  0
 19 21  1  0
 19 11  1  0
 20 19  2  0
 22 21  1  0
 22 27  1  0
 22 23  1  1
 23 24  1  0
 24 25  1  0
 25 26  2  0
 25 29  1  0
 27 28  1  0
 30 27  2  0
M  END
$$$$
