KFE.pdb
     RDKit          3D

 30 30  0  0  1  0  0  0  0  0999 V2000
   26.7325  -22.4389  -13.9345 N   0  0  0  0  0  0  0  0  0  0  0  0
   27.0529  -21.2394  -13.2217 C   0  0  1  0  0  0  0  0  0  0  0  0
   26.0873  -20.1581  -13.6642 C   0  0  0  0  0  0  0  0  0  0  0  0
   26.2832  -19.9335  -15.1374 C   0  0  0  0  0  0  0  0  0  0  0  0
   27.6890  -19.4460  -15.4481 C   0  0  0  0  0  0  0  0  0  0  0  0
   27.7420  -19.1876  -16.9396 C   0  0  0  0  0  0  0  0  0  0  0  0
   29.0833  -18.7519  -17.2531 N   0  0  0  0  0  0  0  0  0  0  0  0
   26.9336  -21.4370  -11.7308 C   0  0  0  0  0  0  0  0  0  0  0  0
   26.1081  -22.2578  -11.2710 O   0  0  0  0  0  0  0  0  0  0  0  0
   27.7533  -20.6966  -10.8421 N   0  0  0  0  0  0  0  0  0  0  0  0
   27.4209  -20.6454   -9.4365 C   0  0  1  0  0  0  0  0  0  0  0  0
   28.5569  -20.1508   -8.5757 C   0  0  0  0  0  0  0  0  0  0  0  0
   28.2148  -19.9874   -7.1497 C   0  0  0  0  0  0  0  0  0  0  0  0
   27.6457  -18.8399   -6.6490 C   0  0  0  0  0  0  0  0  0  0  0  0
   27.3178  -18.7084   -5.3040 C   0  0  0  0  0  0  0  0  0  0  0  0
   27.5661  -19.7499   -4.4438 C   0  0  0  0  0  0  0  0  0  0  0  0
   28.1346  -20.9025   -4.9313 C   0  0  0  0  0  0  0  0  0  0  0  0
   28.4537  -21.0168   -6.2673 C   0  0  0  0  0  0  0  0  0  0  0  0
   26.1249  -20.0066   -9.1866 C   0  0  0  0  0  0  0  0  0  0  0  0
   25.8952  -18.7880   -9.4343 O   0  0  0  0  0  0  0  0  0  0  0  0
   25.0117  -20.7109   -8.6396 N   0  0  0  0  0  0  0  0  0  0  0  0
   23.6848  -20.0320   -8.4744 C   0  0  1  0  0  0  0  0  0  0  0  0
   23.2662  -19.5849   -9.8192 C   0  0  0  0  0  0  0  0  0  0  0  0
   22.7945  -20.5849  -10.7781 C   0  0  0  0  0  0  0  0  0  0  0  0
   22.3574  -20.1526  -12.1114 C   0  0  0  0  0  0  0  0  0  0  0  0
   22.3966  -18.9330  -12.4972 O   0  0  0  0  0  0  0  0  0  0  0  0
   22.8500  -21.0352   -7.8025 C   0  0  0  0  0  0  0  0  0  0  0  0
   21.4865  -20.7803   -7.5253 O   0  0  0  0  0  0  0  0  0  0  0  0
   21.8627  -21.0572  -13.0684 O   0  0  0  0  0  0  0  0  0  0  0  0
   23.2338  -22.1626   -7.4229 O   0  0  0  0  0  0  0  0  0  0  0  0
  2  1  1  6
  2  3  1  0
  4  5  1  0
  4  3  1  0
  6  5  1  0
  7  6  1  0
  8  9  2  0
  8  2  1  0
 10  8  1  0
 11 10  1  0
 11 12  1  1
 13 12  1  0
 13 14  2  0
 15 14  1  0
 16 15  2  0
 17 18  2  0
 17 16  1  0
 18 13  1  0
 19 21  1  0
 19 11  1  0
 20 19  2  0
 22 21  1  0
 22 27  1  0
 22 23  1  6
 23 24  1  0
 24 25  1  0
 25 26  2  0
 25 29  1  0
 27 28  1  0
 30 27  2  0
M  END
$$$$
