KFE.pdb
     RDKit          3D

 30 30  0  0  1  0  0  0  0  0999 V2000
   27.0599  -22.5371  -16.7542 N   0  0  0  0  0  0  0  0  0  0  0  0
   27.2157  -21.3376  -15.9885 C   0  0  1  0  0  0  0  0  0  0  0  0
   26.4609  -20.2287  -16.6942 C   0  0  0  0  0  0  0  0  0  0  0  0
   27.1916  -19.9053  -17.9673 C   0  0  0  0  0  0  0  0  0  0  0  0
   26.3828  -20.2980  -19.1930 C   0  0  0  0  0  0  0  0  0  0  0  0
   27.1726  -19.8412  -20.4021 C   0  0  0  0  0  0  0  0  0  0  0  0
   26.4498  -20.2730  -21.5760 N   0  0  0  0  0  0  0  0  0  0  0  0
   26.6713  -21.5026  -14.5911 C   0  0  0  0  0  0  0  0  0  0  0  0
   25.6790  -22.2376  -14.3874 O   0  0  0  0  0  0  0  0  0  0  0  0
   27.2780  -20.8281  -13.5017 N   0  0  0  0  0  0  0  0  0  0  0  0
   26.6496  -20.8604  -12.2005 C   0  0  1  0  0  0  0  0  0  0  0  0
   27.5707  -20.4300  -11.0858 C   0  0  0  0  0  0  0  0  0  0  0  0
   26.9308  -20.3627   -9.7580 C   0  0  0  0  0  0  0  0  0  0  0  0
   25.5773  -20.5251   -9.5765 C   0  0  0  0  0  0  0  0  0  0  0  0
   24.9929  -20.4716   -8.3158 C   0  0  0  0  0  0  0  0  0  0  0  0
   25.7832  -20.2505   -7.2145 C   0  0  0  0  0  0  0  0  0  0  0  0
   27.1376  -20.0865   -7.3819 C   0  0  0  0  0  0  0  0  0  0  0  0
   27.7012  -20.1423   -8.6385 C   0  0  0  0  0  0  0  0  0  0  0  0
   25.3274  -20.2264  -12.1970 C   0  0  0  0  0  0  0  0  0  0  0  0
   25.1609  -18.9736  -12.2416 O   0  0  0  0  0  0  0  0  0  0  0  0
   24.1145  -20.9749  -12.1418 N   0  0  0  0  0  0  0  0  0  0  0  0
   22.7863  -20.2786  -12.1530 C   0  0  1  0  0  0  0  0  0  0  0  0
   22.1515  -20.5956  -13.4491 C   0  0  0  0  0  0  0  0  0  0  0  0
   22.7407  -20.0510  -14.6731 C   0  0  0  0  0  0  0  0  0  0  0  0
   22.1599  -20.4108  -15.9726 C   0  0  0  0  0  0  0  0  0  0  0  0
   21.2119  -21.2608  -16.1020 O   0  0  0  0  0  0  0  0  0  0  0  0
   22.1201  -20.7577  -10.9359 C   0  0  0  0  0  0  0  0  0  0  0  0
   22.7098  -21.7588  -10.1289 O   0  0  0  0  0  0  0  0  0  0  0  0
   22.6065  -19.8392  -17.1779 O   0  0  0  0  0  0  0  0  0  0  0  0
   21.0184  -20.3543  -10.5045 O   0  0  0  0  0  0  0  0  0  0  0  0
  2  1  1  6
  2  3  1  0
  4  5  1  0
  4  3  1  0
  6  5  1  0
  7  6  1  0
  8  9  2  0
  8  2  1  0
 10  8  1  0
 11 10  1  0
 11 12  1  1
 13 12  1  0
 13 14  2  0
 15 14  1  0
 16 15  2  0
 17 18  2  0
 17 16  1  0
 18 13  1  0
 19 21  1  0
 19 11  1  0
 20 19  2  0
 22 21  1  0
 22 27  1  0
 22 23  1  6
 23 24  1  0
 24 25  1  0
 25 26  2  0
 25 29  1  0
 27 28  1  0
 30 27  2  0
M  END
$$$$
