KFE.pdb
     RDKit          3D

 30 30  0  0  1  0  0  0  0  0999 V2000
   26.9418  -25.0739  -17.2848 N   0  0  0  0  0  0  0  0  0  0  0  0
   26.8085  -23.6618  -17.0910 C   0  0  1  0  0  0  0  0  0  0  0  0
   26.0143  -23.1012  -18.2539 C   0  0  0  0  0  0  0  0  0  0  0  0
   26.8305  -23.2783  -19.5036 C   0  0  0  0  0  0  0  0  0  0  0  0
   26.1057  -22.7419  -20.7273 C   0  0  0  0  0  0  0  0  0  0  0  0
   26.9666  -23.0786  -21.9272 C   0  0  0  0  0  0  0  0  0  0  0  0
   28.2955  -22.5813  -21.6561 N   0  0  0  0  0  0  0  0  0  0  0  0
   26.0936  -23.3488  -15.7999 C   0  0  0  0  0  0  0  0  0  0  0  0
   25.1934  -24.1107  -15.3808 O   0  0  0  0  0  0  0  0  0  0  0  0
   26.4351  -22.1926  -15.0539 N   0  0  0  0  0  0  0  0  0  0  0  0
   25.6840  -21.8606  -13.8646 C   0  0  1  0  0  0  0  0  0  0  0  0
   26.5179  -21.1818  -12.8062 C   0  0  0  0  0  0  0  0  0  0  0  0
   25.7706  -20.8021  -11.5920 C   0  0  0  0  0  0  0  0  0  0  0  0
   24.8833  -19.7516  -11.5639 C   0  0  0  0  0  0  0  0  0  0  0  0
   24.1776  -19.4161  -10.4136 C   0  0  0  0  0  0  0  0  0  0  0  0
   24.3663  -20.1497   -9.2679 C   0  0  0  0  0  0  0  0  0  0  0  0
   25.2503  -21.2021   -9.2824 C   0  0  0  0  0  0  0  0  0  0  0  0
   25.9420  -21.5217  -10.4310 C   0  0  0  0  0  0  0  0  0  0  0  0
   24.4078  -21.2054  -14.1685 C   0  0  0  0  0  0  0  0  0  0  0  0
   24.3146  -20.1777  -14.8995 O   0  0  0  0  0  0  0  0  0  0  0  0
   23.1605  -21.6755  -13.6606 N   0  0  0  0  0  0  0  0  0  0  0  0
   21.8905  -20.9306  -13.9453 C   0  0  1  0  0  0  0  0  0  0  0  0
   21.5534  -21.1911  -15.3602 C   0  0  0  0  0  0  0  0  0  0  0  0
   21.4139  -22.5780  -15.8065 C   0  0  0  0  0  0  0  0  0  0  0  0
   21.0167  -22.8505  -17.1935 C   0  0  0  0  0  0  0  0  0  0  0  0
   20.9326  -24.0329  -17.6758 O   0  0  0  0  0  0  0  0  0  0  0  0
   20.9540  -21.4153  -12.9242 C   0  0  0  0  0  0  0  0  0  0  0  0
   21.3122  -22.4663  -12.0477 O   0  0  0  0  0  0  0  0  0  0  0  0
   20.6950  -21.8217  -18.0974 O   0  0  0  0  0  0  0  0  0  0  0  0
   19.8004  -20.9751  -12.7297 O   0  0  0  0  0  0  0  0  0  0  0  0
  2  1  1  6
  2  3  1  0
  4  5  1  0
  4  3  1  0
  6  5  1  0
  7  6  1  0
  8  9  2  0
  8  2  1  0
 10  8  1  0
 11 10  1  0
 11 12  1  1
 13 12  1  0
 13 14  2  0
 15 14  1  0
 16 15  2  0
 17 18  2  0
 17 16  1  0
 18 13  1  0
 19 21  1  0
 19 11  1  0
 20 19  2  0
 22 21  1  0
 22 27  1  0
 22 23  1  6
 23 24  1  0
 24 25  1  0
 25 26  2  0
 25 29  1  0
 27 28  1  0
 30 27  2  0
M  END
$$$$
