KFE.pdb
     RDKit          3D

 30 30  0  0  1  0  0  0  0  0999 V2000
   26.4719  -23.9638  -15.5919 N   0  0  0  0  0  0  0  0  0  0  0  0
   25.1763  -23.6614  -16.1205 C   0  0  1  0  0  0  0  0  0  0  0  0
   24.6316  -24.9157  -16.7745 C   0  0  0  0  0  0  0  0  0  0  0  0
   25.7539  -25.5727  -17.5281 C   0  0  0  0  0  0  0  0  0  0  0  0
   25.2702  -26.7813  -18.3129 C   0  0  0  0  0  0  0  0  0  0  0  0
   26.4787  -27.3506  -19.0269 C   0  0  0  0  0  0  0  0  0  0  0  0
   26.0684  -28.5903  -19.6449 N   0  0  0  0  0  0  0  0  0  0  0  0
   24.2302  -23.2123  -15.0345 C   0  0  0  0  0  0  0  0  0  0  0  0
   23.9650  -23.9756  -14.0787 O   0  0  0  0  0  0  0  0  0  0  0  0
   23.6364  -21.9262  -15.0885 N   0  0  0  0  0  0  0  0  0  0  0  0
   22.7887  -21.4832  -14.0049 C   0  0  1  0  0  0  0  0  0  0  0  0
   23.1842  -20.1352  -13.4550 C   0  0  0  0  0  0  0  0  0  0  0  0
   22.3319  -19.6532  -12.3511 C   0  0  0  0  0  0  0  0  0  0  0  0
   22.5569  -19.9910  -11.0371 C   0  0  0  0  0  0  0  0  0  0  0  0
   21.7509  -19.5167  -10.0078 C   0  0  0  0  0  0  0  0  0  0  0  0
   20.6975  -18.6864  -10.3035 C   0  0  0  0  0  0  0  0  0  0  0  0
   20.4617  -18.3411  -11.6128 C   0  0  0  0  0  0  0  0  0  0  0  0
   21.2700  -18.8199  -12.6213 C   0  0  0  0  0  0  0  0  0  0  0  0
   21.3620  -21.6404  -14.3049 C   0  0  0  0  0  0  0  0  0  0  0  0
   20.8290  -21.2195  -15.3716 O   0  0  0  0  0  0  0  0  0  0  0  0
   20.4536  -22.2834  -13.4127 N   0  0  0  0  0  0  0  0  0  0  0  0
   18.9860  -22.3275  -13.7179 C   0  0  1  0  0  0  0  0  0  0  0  0
   18.6545  -23.7382  -14.0070 C   0  0  0  0  0  0  0  0  0  0  0  0
   19.3714  -24.7913  -13.2866 C   0  0  0  0  0  0  0  0  0  0  0  0
   19.0148  -26.1957  -13.5239 C   0  0  0  0  0  0  0  0  0  0  0  0
   18.5209  -26.9529  -12.6182 O   0  0  0  0  0  0  0  0  0  0  0  0
   18.3571  -21.7094  -12.5444 C   0  0  0  0  0  0  0  0  0  0  0  0
   19.1133  -20.9277  -11.6399 O   0  0  0  0  0  0  0  0  0  0  0  0
   19.1898  -26.8126  -14.7760 O   0  0  0  0  0  0  0  0  0  0  0  0
   17.1497  -21.8024  -12.2344 O   0  0  0  0  0  0  0  0  0  0  0  0
  2  1  1  1
  2  3  1  0
  4  5  1  0
  4  3  1  0
  6  5  1  0
  7  6  1  0
  8  9  2  0
  8  2  1  0
 10  8  1  0
 11 10  1  0
 11 12  1  6
 13 12  1  0
 13 14  2  0
 15 14  1  0
 16 15  2  0
 17 18  2  0
 17 16  1  0
 18 13  1  0
 19 21  1  0
 19 11  1  0
 20 19  2  0
 22 21  1  0
 22 27  1  0
 22 23  1  1
 23 24  1  0
 24 25  1  0
 25 26  2  0
 25 29  1  0
 27 28  1  0
 30 27  2  0
M  END
$$$$
