MSR.pdb
     RDKit          3D

 26 25  0  0  1  0  0  0  0  0999 V2000
   28.1009  -18.4594  -14.9512 C   0  0  0  0  0  0  0  0  0  0  0  0
   28.8907  -19.9913  -14.3347 S   0  0  0  0  0  0  0  0  0  0  0  0
   28.4596  -20.1737  -12.5628 C   0  0  0  0  0  0  0  0  0  0  0  0
   26.9961  -19.8635  -12.4223 C   0  0  0  0  0  0  0  0  0  0  0  0
   26.1014  -21.0513  -12.3132 C   0  0  2  0  0  0  0  0  0  0  0  0
   26.3634  -22.0057  -13.3970 N   0  0  0  0  0  0  0  0  0  0  0  0
   24.6799  -20.6643  -12.4125 C   0  0  0  0  0  0  0  0  0  0  0  0
   24.2053  -19.7694  -11.6362 O   0  0  0  0  0  0  0  0  0  0  0  0
   22.4750  -21.5597  -15.6755 O   0  0  0  0  0  0  0  0  0  0  0  0
   22.1053  -20.4833  -14.8994 C   0  0  0  0  0  0  0  0  0  0  0  0
   22.4416  -20.7939  -13.4500 C   0  0  2  0  0  0  0  0  0  0  0  0
   23.8205  -21.2543  -13.3439 N   0  0  0  0  0  0  0  0  0  0  0  0
   21.5115  -21.7484  -12.8246 C   0  0  0  0  0  0  0  0  0  0  0  0
   21.8423  -22.9728  -12.8437 O   0  0  0  0  0  0  0  0  0  0  0  0
   17.6737  -26.3953   -6.3369 N   0  0  0  0  0  0  0  0  0  0  0  0
   17.4832  -25.4897   -7.4106 C   0  0  0  0  0  0  0  0  0  0  0  0
   16.6213  -25.8138   -8.3141 N   0  0  0  0  0  0  0  0  0  0  0  0
   18.2337  -24.2821   -7.4507 N   0  0  0  0  0  0  0  0  0  0  0  0
   17.7871  -23.1922   -8.2541 C   0  0  0  0  0  0  0  0  0  0  0  0
   18.0584  -23.2904   -9.7117 C   0  0  0  0  0  0  0  0  0  0  0  0
   19.0782  -22.3908  -10.2858 C   0  0  0  0  0  0  0  0  0  0  0  0
   19.3286  -22.4618  -11.7451 C   0  0  2  0  0  0  0  0  0  0  0  0
   20.2848  -21.4510  -12.2014 N   0  0  0  0  0  0  0  0  0  0  0  0
   18.1474  -22.5548  -12.6177 C   0  0  0  0  0  0  0  0  0  0  0  0
   17.7822  -21.5287  -13.2394 O   0  0  0  0  0  0  0  0  0  0  0  0
   17.4058  -23.7048  -12.8039 O   0  0  0  0  0  0  0  0  0  0  0  0
  2  1  1  0
  3  2  1  0
  3  4  1  0
  4  5  1  0
  5  7  1  0
  5  6  1  6
  7  8  2  0
  9 10  1  0
 11 10  1  6
 12 11  1  0
 12  7  1  0
 13 11  1  0
 14 13  2  0
 16 15  1  0
 17 16  2  0
 18 16  1  0
 19 20  1  0
 19 18  1  0
 20 21  1  0
 22 21  1  1
 22 23  1  0
 23 13  1  0
 24 26  1  0
 24 22  1  0
 25 24  2  0
M  END
$$$$
