MSR.pdb
     RDKit          3D

 26 25  0  0  1  0  0  0  0  0999 V2000
   20.8840  -26.4081   -2.0445 C   0  0  0  0  0  0  0  0  0  0  0  0
   20.4817  -27.9307   -1.1114 S   0  0  0  0  0  0  0  0  0  0  0  0
   18.6704  -28.1907   -1.2113 C   0  0  0  0  0  0  0  0  0  0  0  0
   18.1972  -27.5678   -2.4943 C   0  0  0  0  0  0  0  0  0  0  0  0
   16.7355  -27.6921   -2.7610 C   0  0  2  0  0  0  0  0  0  0  0  0
   16.3624  -29.0930   -2.9904 N   0  0  0  0  0  0  0  0  0  0  0  0
   16.3433  -26.9374   -3.9680 C   0  0  0  0  0  0  0  0  0  0  0  0
   16.3084  -27.5201   -5.1029 O   0  0  0  0  0  0  0  0  0  0  0  0
   13.9785  -23.7749   -3.7728 O   0  0  0  0  0  0  0  0  0  0  0  0
   14.9242  -23.5620   -4.7517 C   0  0  0  0  0  0  0  0  0  0  0  0
   15.5531  -24.8971   -5.1150 C   0  0  2  0  0  0  0  0  0  0  0  0
   16.0027  -25.5829   -3.9100 N   0  0  0  0  0  0  0  0  0  0  0  0
   16.6408  -24.7832   -6.1006 C   0  0  0  0  0  0  0  0  0  0  0  0
   17.7270  -25.3808   -5.8324 O   0  0  0  0  0  0  0  0  0  0  0  0
   20.8463  -29.2635  -11.2741 N   0  0  0  0  0  0  0  0  0  0  0  0
   20.8012  -29.1341   -9.8632 C   0  0  0  0  0  0  0  0  0  0  0  0
   21.5972  -29.8790   -9.1735 N   0  0  0  0  0  0  0  0  0  0  0  0
   19.8988  -28.2065   -9.2729 N   0  0  0  0  0  0  0  0  0  0  0  0
   19.0286  -27.4356  -10.0983 C   0  0  0  0  0  0  0  0  0  0  0  0
   18.8549  -26.0082   -9.7242 C   0  0  0  0  0  0  0  0  0  0  0  0
   17.8849  -25.6872   -8.6589 C   0  0  0  0  0  0  0  0  0  0  0  0
   17.5827  -24.2596   -8.3980 C   0  0  2  0  0  0  0  0  0  0  0  0
   16.6093  -24.0789   -7.3190 N   0  0  0  0  0  0  0  0  0  0  0  0
   17.2887  -23.4185   -9.5690 C   0  0  0  0  0  0  0  0  0  0  0  0
   16.0951  -23.1085   -9.7967 O   0  0  0  0  0  0  0  0  0  0  0  0
   18.2446  -22.9396  -10.4431 O   0  0  0  0  0  0  0  0  0  0  0  0
  2  1  1  0
  3  2  1  0
  3  4  1  0
  4  5  1  0
  5  7  1  0
  5  6  1  6
  7  8  2  0
  9 10  1  0
 11 10  1  1
 12 11  1  0
 12  7  1  0
 13 11  1  0
 14 13  2  0
 16 15  1  0
 17 16  2  0
 18 16  1  0
 19 20  1  0
 19 18  1  0
 20 21  1  0
 22 21  1  6
 22 23  1  0
 23 13  1  0
 24 26  1  0
 24 22  1  0
 25 24  2  0
M  END
$$$$
