MSR.pdb
     RDKit          3D

 26 25  0  0  1  0  0  0  0  0999 V2000
   17.5205  -17.7684  -18.9655 C   0  0  0  0  0  0  0  0  0  0  0  0
   18.0639  -16.5651  -17.6976 S   0  0  0  0  0  0  0  0  0  0  0  0
   18.5335  -15.0156  -18.5560 C   0  0  0  0  0  0  0  0  0  0  0  0
   18.8450  -13.9934  -17.4996 C   0  0  0  0  0  0  0  0  0  0  0  0
   20.1651  -13.3145  -17.6404 C   0  0  2  0  0  0  0  0  0  0  0  0
   21.2643  -14.2398  -17.3405 N   0  0  0  0  0  0  0  0  0  0  0  0
   20.2883  -12.1795  -16.7041 C   0  0  0  0  0  0  0  0  0  0  0  0
   20.7779  -12.3616  -15.5397 O   0  0  0  0  0  0  0  0  0  0  0  0
   20.2083   -8.2274  -17.8565 O   0  0  0  0  0  0  0  0  0  0  0  0
   20.8695   -8.6811  -16.7363 C   0  0  0  0  0  0  0  0  0  0  0  0
   20.0476   -9.7943  -16.1074 C   0  0  2  0  0  0  0  0  0  0  0  0
   19.8803  -10.8892  -17.0549 N   0  0  0  0  0  0  0  0  0  0  0  0
   18.7490   -9.3394  -15.5840 C   0  0  0  0  0  0  0  0  0  0  0  0
   17.7387   -9.4926  -16.3355 O   0  0  0  0  0  0  0  0  0  0  0  0
   13.4660  -10.1092   -8.6842 N   0  0  0  0  0  0  0  0  0  0  0  0
   12.7259   -9.4105   -9.6709 C   0  0  0  0  0  0  0  0  0  0  0  0
   11.4394   -9.4454   -9.5827 N   0  0  0  0  0  0  0  0  0  0  0  0
   13.4154   -8.7112  -10.6998 N   0  0  0  0  0  0  0  0  0  0  0  0
   14.6941   -9.1660  -11.1367 C   0  0  0  0  0  0  0  0  0  0  0  0
   15.3059   -8.4282  -12.2721 C   0  0  0  0  0  0  0  0  0  0  0  0
   16.6119   -8.8967  -12.7757 C   0  0  0  0  0  0  0  0  0  0  0  0
   17.2109   -8.1839  -13.9292 C   0  0  2  0  0  0  0  0  0  0  0  0
   18.5010   -8.7484  -14.3307 N   0  0  0  0  0  0  0  0  0  0  0  0
   17.2352   -6.7142  -13.8616 C   0  0  0  0  0  0  0  0  0  0  0  0
   18.3109   -6.1486  -13.5519 O   0  0  0  0  0  0  0  0  0  0  0  0
   16.1464   -5.9050  -14.1196 O   0  0  0  0  0  0  0  0  0  0  0  0
  2  1  1  0
  3  2  1  0
  3  4  1  0
  4  5  1  0
  5  7  1  0
  5  6  1  1
  7  8  2  0
  9 10  1  0
 11 10  1  6
 12 11  1  0
 12  7  1  0
 13 11  1  0
 14 13  2  0
 16 15  1  0
 17 16  2  0
 18 16  1  0
 19 20  1  0
 19 18  1  0
 20 21  1  0
 22 21  1  1
 22 23  1  0
 23 13  1  0
 24 26  1  0
 24 22  1  0
 25 24  2  0
M  END
$$$$
