MSR.pdb
     RDKit          3D

 26 25  0  0  1  0  0  0  0  0999 V2000
   22.4373   -9.8032   -9.9667 C   0  0  0  0  0  0  0  0  0  0  0  0
   22.6037  -10.6170  -11.5978 S   0  0  0  0  0  0  0  0  0  0  0  0
   23.0948   -9.3400  -12.8171 C   0  0  0  0  0  0  0  0  0  0  0  0
   21.8780   -8.5091  -13.1121 C   0  0  0  0  0  0  0  0  0  0  0  0
   20.8127   -9.1965  -13.8966 C   0  0  2  0  0  0  0  0  0  0  0  0
   21.2561   -9.4488  -15.2729 N   0  0  0  0  0  0  0  0  0  0  0  0
   19.5905   -8.3723  -13.9808 C   0  0  0  0  0  0  0  0  0  0  0  0
   19.4740   -7.4938  -14.8993 O   0  0  0  0  0  0  0  0  0  0  0  0
   16.0349   -9.7234  -13.3224 O   0  0  0  0  0  0  0  0  0  0  0  0
   16.2886   -8.5628  -14.0199 C   0  0  0  0  0  0  0  0  0  0  0  0
   17.3149   -7.7495  -13.2483 C   0  0  2  0  0  0  0  0  0  0  0  0
   18.5378   -8.5232  -13.0736 N   0  0  0  0  0  0  0  0  0  0  0  0
   16.8139   -7.2464  -11.9586 C   0  0  0  0  0  0  0  0  0  0  0  0
   17.1064   -7.9195  -10.9240 O   0  0  0  0  0  0  0  0  0  0  0  0
   10.5100   -8.4620   -7.1567 N   0  0  0  0  0  0  0  0  0  0  0  0
   10.8947   -7.2500   -6.5303 C   0  0  0  0  0  0  0  0  0  0  0  0
   10.1940   -6.8553   -5.5216 N   0  0  0  0  0  0  0  0  0  0  0  0
   12.0160   -6.5295   -7.0269 N   0  0  0  0  0  0  0  0  0  0  0  0
   12.8056   -7.0779   -8.0798 C   0  0  0  0  0  0  0  0  0  0  0  0
   13.9256   -6.2357   -8.5739 C   0  0  0  0  0  0  0  0  0  0  0  0
   14.4350   -6.4945   -9.9349 C   0  0  0  0  0  0  0  0  0  0  0  0
   15.5545   -5.6590  -10.4310 C   0  0  2  0  0  0  0  0  0  0  0  0
   16.0396   -6.0906  -11.7435 N   0  0  0  0  0  0  0  0  0  0  0  0
   16.6497   -5.3878   -9.4865 C   0  0  0  0  0  0  0  0  0  0  0  0
   17.2453   -6.3618   -8.9675 O   0  0  0  0  0  0  0  0  0  0  0  0
   17.0739   -4.1232   -9.1288 O   0  0  0  0  0  0  0  0  0  0  0  0
  2  1  1  0
  3  2  1  0
  3  4  1  0
  4  5  1  0
  5  7  1  0
  5  6  1  6
  7  8  2  0
  9 10  1  0
 11 10  1  1
 12 11  1  0
 12  7  1  0
 13 11  1  0
 14 13  2  0
 16 15  1  0
 17 16  2  0
 18 16  1  0
 19 20  1  0
 19 18  1  0
 20 21  1  0
 22 21  1  1
 22 23  1  0
 23 13  1  0
 24 26  1  0
 24 22  1  0
 25 24  2  0
M  END
$$$$
