MSR.pdb
     RDKit          3D

 26 25  0  0  1  0  0  0  0  0999 V2000
   28.1866  -18.7428   -6.6265 C   0  0  0  0  0  0  0  0  0  0  0  0
   27.6233  -20.4726   -6.8287 S   0  0  0  0  0  0  0  0  0  0  0  0
   25.8626  -20.4361   -7.3358 C   0  0  0  0  0  0  0  0  0  0  0  0
   25.8087  -19.8846   -8.7325 C   0  0  0  0  0  0  0  0  0  0  0  0
   25.4663  -20.8735   -9.7946 C   0  0  2  0  0  0  0  0  0  0  0  0
   26.2956  -22.0786   -9.6749 N   0  0  0  0  0  0  0  0  0  0  0  0
   25.7028  -20.3185  -11.1422 C   0  0  0  0  0  0  0  0  0  0  0  0
   25.5282  -19.0731  -11.3603 O   0  0  0  0  0  0  0  0  0  0  0  0
   26.4864  -22.6432  -14.5603 O   0  0  0  0  0  0  0  0  0  0  0  0
   27.1632  -21.4559  -14.3871 C   0  0  0  0  0  0  0  0  0  0  0  0
   26.3132  -20.5358  -13.5262 C   0  0  2  0  0  0  0  0  0  0  0  0
   26.1188  -21.1236  -12.2066 N   0  0  0  0  0  0  0  0  0  0  0  0
   25.0262  -20.1783  -14.1451 C   0  0  0  0  0  0  0  0  0  0  0  0
   24.0098  -20.8498  -13.7914 O   0  0  0  0  0  0  0  0  0  0  0  0
   20.6550  -13.9832  -17.4216 N   0  0  0  0  0  0  0  0  0  0  0  0
   19.6739  -14.9926  -17.5893 C   0  0  0  0  0  0  0  0  0  0  0  0
   18.5948  -14.6720  -18.2193 N   0  0  0  0  0  0  0  0  0  0  0  0
   19.9114  -16.2944  -17.0677 N   0  0  0  0  0  0  0  0  0  0  0  0
   21.1094  -16.5638  -16.3431 C   0  0  0  0  0  0  0  0  0  0  0  0
   22.2110  -17.2088  -17.1034 C   0  0  0  0  0  0  0  0  0  0  0  0
   23.4390  -17.5685  -16.3674 C   0  0  0  0  0  0  0  0  0  0  0  0
   23.4940  -18.8955  -15.7092 C   0  0  2  0  0  0  0  0  0  0  0  0
   24.7954  -19.1646  -15.0942 N   0  0  0  0  0  0  0  0  0  0  0  0
   22.9877  -20.0411  -16.4813 C   0  0  0  0  0  0  0  0  0  0  0  0
   23.7976  -20.6931  -17.1825 O   0  0  0  0  0  0  0  0  0  0  0  0
   21.6702  -20.4548  -16.4870 O   0  0  0  0  0  0  0  0  0  0  0  0
  2  1  1  0
  3  2  1  0
  3  4  1  0
  4  5  1  0
  5  7  1  0
  5  6  1  1
  7  8  2  0
  9 10  1  0
 11 10  1  6
 12 11  1  0
 12  7  1  0
 13 11  1  0
 14 13  2  0
 16 15  1  0
 17 16  2  0
 18 16  1  0
 19 20  1  0
 19 18  1  0
 20 21  1  0
 22 21  1  6
 22 23  1  0
 23 13  1  0
 24 26  1  0
 24 22  1  0
 25 24  2  0
M  END
$$$$
