MSR.pdb
     RDKit          3D

 26 25  0  0  1  0  0  0  0  0999 V2000
   32.5900  -22.0616  -11.1833 C   0  0  0  0  0  0  0  0  0  0  0  0
   32.8801  -23.8267  -11.5715 S   0  0  0  0  0  0  0  0  0  0  0  0
   32.1750  -24.1622  -13.2295 C   0  0  0  0  0  0  0  0  0  0  0  0
   31.3069  -22.9911  -13.5938 C   0  0  0  0  0  0  0  0  0  0  0  0
   30.6435  -23.0807  -14.9261 C   0  0  2  0  0  0  0  0  0  0  0  0
   31.6378  -23.1106  -16.0052 N   0  0  0  0  0  0  0  0  0  0  0  0
   29.7732  -21.9136  -15.1727 C   0  0  0  0  0  0  0  0  0  0  0  0
   30.2753  -20.7414  -15.2239 O   0  0  0  0  0  0  0  0  0  0  0  0
   26.9182  -20.8808  -17.3891 O   0  0  0  0  0  0  0  0  0  0  0  0
   27.3854  -20.0751  -16.3740 C   0  0  0  0  0  0  0  0  0  0  0  0
   27.5153  -20.9130  -15.1126 C   0  0  2  0  0  0  0  0  0  0  0  0
   28.3941  -22.0502  -15.3555 N   0  0  0  0  0  0  0  0  0  0  0  0
   26.2209  -21.3478  -14.5624 C   0  0  0  0  0  0  0  0  0  0  0  0
   26.0288  -22.5973  -14.4586 O   0  0  0  0  0  0  0  0  0  0  0  0
   19.0000  -20.1645  -12.1819 N   0  0  0  0  0  0  0  0  0  0  0  0
   19.0432  -20.9291  -10.9890 C   0  0  0  0  0  0  0  0  0  0  0  0
   17.9409  -21.4670  -10.5891 N   0  0  0  0  0  0  0  0  0  0  0  0
   20.2749  -21.0720  -10.2922 N   0  0  0  0  0  0  0  0  0  0  0  0
   21.4558  -20.4546  -10.7991 C   0  0  0  0  0  0  0  0  0  0  0  0
   21.9799  -20.9854  -12.0842 C   0  0  0  0  0  0  0  0  0  0  0  0
   23.3125  -20.5301  -12.5265 C   0  0  0  0  0  0  0  0  0  0  0  0
   23.8129  -21.0076  -13.8376 C   0  0  2  0  0  0  0  0  0  0  0  0
   25.1628  -20.5239  -14.1343 N   0  0  0  0  0  0  0  0  0  0  0  0
   22.9013  -20.8739  -14.9848 C   0  0  0  0  0  0  0  0  0  0  0  0
   21.8769  -21.5965  -15.0206 O   0  0  0  0  0  0  0  0  0  0  0  0
   23.0950  -19.9984  -16.0351 O   0  0  0  0  0  0  0  0  0  0  0  0
  2  1  1  0
  3  2  1  0
  3  4  1  0
  4  5  1  0
  5  7  1  0
  5  6  1  6
  7  8  2  0
  9 10  1  0
 11 10  1  6
 12 11  1  0
 12  7  1  0
 13 11  1  0
 14 13  2  0
 16 15  1  0
 17 16  2  0
 18 16  1  0
 19 20  1  0
 19 18  1  0
 20 21  1  0
 22 21  1  1
 22 23  1  0
 23 13  1  0
 24 26  1  0
 24 22  1  0
 25 24  2  0
M  END
$$$$
