MSR.pdb
     RDKit          3D

 26 25  0  0  1  0  0  0  0  0999 V2000
   21.1427  -24.5824  -19.8199 C   0  0  0  0  0  0  0  0  0  0  0  0
   21.9020  -23.8635  -21.3224 S   0  0  0  0  0  0  0  0  0  0  0  0
   22.5808  -22.2199  -20.8792 C   0  0  0  0  0  0  0  0  0  0  0  0
   22.1326  -21.9115  -19.4786 C   0  0  0  0  0  0  0  0  0  0  0  0
   22.5000  -20.5565  -18.9765 C   0  0  2  0  0  0  0  0  0  0  0  0
   23.9493  -20.4496  -18.7706 N   0  0  0  0  0  0  0  0  0  0  0  0
   21.8571  -20.2718  -17.6781 C   0  0  0  0  0  0  0  0  0  0  0  0
   22.4578  -20.5619  -16.5901 O   0  0  0  0  0  0  0  0  0  0  0  0
   18.0566  -18.4996  -17.2549 O   0  0  0  0  0  0  0  0  0  0  0  0
   19.0711  -18.2277  -16.3635 C   0  0  0  0  0  0  0  0  0  0  0  0
   19.9897  -19.4366  -16.2930 C   0  0  2  0  0  0  0  0  0  0  0  0
   20.5909  -19.6851  -17.5974 N   0  0  0  0  0  0  0  0  0  0  0  0
   19.3289  -20.6446  -15.7721 C   0  0  0  0  0  0  0  0  0  0  0  0
   18.9480  -21.5057  -16.6220 O   0  0  0  0  0  0  0  0  0  0  0  0
   17.8891  -25.3575   -9.5625 N   0  0  0  0  0  0  0  0  0  0  0  0
   18.3019  -26.5061  -10.2834 C   0  0  0  0  0  0  0  0  0  0  0  0
   17.7714  -27.6351   -9.9546 N   0  0  0  0  0  0  0  0  0  0  0  0
   19.2654  -26.3735  -11.3212 N   0  0  0  0  0  0  0  0  0  0  0  0
   19.7283  -25.0799  -11.7024 C   0  0  0  0  0  0  0  0  0  0  0  0
   18.8498  -24.3065  -12.6176 C   0  0  0  0  0  0  0  0  0  0  0  0
   19.3568  -23.0219  -13.1388 C   0  0  0  0  0  0  0  0  0  0  0  0
   18.4468  -22.1988  -13.9705 C   0  0  2  0  0  0  0  0  0  0  0  0
   19.0707  -20.9538  -14.4233 N   0  0  0  0  0  0  0  0  0  0  0  0
   17.0834  -21.9920  -13.4572 C   0  0  0  0  0  0  0  0  0  0  0  0
   16.7890  -20.8701  -12.9801 O   0  0  0  0  0  0  0  0  0  0  0  0
   16.0940  -22.9553  -13.4655 O   0  0  0  0  0  0  0  0  0  0  0  0
  2  1  1  0
  3  2  1  0
  3  4  1  0
  4  5  1  0
  5  7  1  0
  5  6  1  1
  7  8  2  0
  9 10  1  0
 11 10  1  6
 12 11  1  0
 12  7  1  0
 13 11  1  0
 14 13  2  0
 16 15  1  0
 17 16  2  0
 18 16  1  0
 19 20  1  0
 19 18  1  0
 20 21  1  0
 22 21  1  1
 22 23  1  0
 23 13  1  0
 24 26  1  0
 24 22  1  0
 25 24  2  0
M  END
$$$$
