MSR.pdb
     RDKit          3D

 26 25  0  0  1  0  0  0  0  0999 V2000
   21.2226  -16.3659    1.2034 C   0  0  0  0  0  0  0  0  0  0  0  0
   21.2649  -17.5088   -0.2258 S   0  0  0  0  0  0  0  0  0  0  0  0
   20.0291  -18.8290    0.0717 C   0  0  0  0  0  0  0  0  0  0  0  0
   19.3623  -18.5324    1.3853 C   0  0  0  0  0  0  0  0  0  0  0  0
   18.2894  -19.4876    1.7845 C   0  0  2  0  0  0  0  0  0  0  0  0
   17.3022  -19.6453    0.7097 N   0  0  0  0  0  0  0  0  0  0  0  0
   17.5590  -19.0087    2.9750 C   0  0  0  0  0  0  0  0  0  0  0  0
   16.3307  -18.6754    2.8802 O   0  0  0  0  0  0  0  0  0  0  0  0
   19.3450  -18.2861    6.7114 O   0  0  0  0  0  0  0  0  0  0  0  0
   18.0929  -18.8586    6.6633 C   0  0  0  0  0  0  0  0  0  0  0  0
   17.4146  -18.4301    5.3724 C   0  0  2  0  0  0  0  0  0  0  0  0
   18.1768  -18.9061    4.2248 N   0  0  0  0  0  0  0  0  0  0  0  0
   17.1763  -16.9798    5.2894 C   0  0  0  0  0  0  0  0  0  0  0  0
   18.0253  -16.2917    4.6454 O   0  0  0  0  0  0  0  0  0  0  0  0
   10.5347  -11.6022    3.6213 N   0  0  0  0  0  0  0  0  0  0  0  0
   11.6177  -10.6999    3.7708 C   0  0  0  0  0  0  0  0  0  0  0  0
   11.4306   -9.4809    3.3925 N   0  0  0  0  0  0  0  0  0  0  0  0
   12.8448  -11.1628    4.3213 N   0  0  0  0  0  0  0  0  0  0  0  0
   13.0209  -12.5493    4.6031 C   0  0  0  0  0  0  0  0  0  0  0  0
   14.3538  -12.9549    5.1197 C   0  0  0  0  0  0  0  0  0  0  0  0
   14.6061  -14.3950    5.3224 C   0  0  0  0  0  0  0  0  0  0  0  0
   15.9549  -14.8095    5.7767 C   0  0  2  0  0  0  0  0  0  0  0  0
   16.1011  -16.2647    5.8499 N   0  0  0  0  0  0  0  0  0  0  0  0
   16.4937  -14.1284    6.9645 C   0  0  0  0  0  0  0  0  0  0  0  0
   16.3269  -14.6634    8.0864 O   0  0  0  0  0  0  0  0  0  0  0  0
   17.1791  -12.9300    6.9307 O   0  0  0  0  0  0  0  0  0  0  0  0
  2  1  1  0
  3  2  1  0
  3  4  1  0
  4  5  1  0
  5  7  1  0
  5  6  1  6
  7  8  2  0
  9 10  1  0
 11 10  1  1
 12 11  1  0
 12  7  1  0
 13 11  1  0
 14 13  2  0
 16 15  1  0
 17 16  2  0
 18 16  1  0
 19 20  1  0
 19 18  1  0
 20 21  1  0
 22 21  1  1
 22 23  1  0
 23 13  1  0
 24 26  1  0
 24 22  1  0
 25 24  2  0
M  END
$$$$
