MSR.pdb
     RDKit          3D

 26 25  0  0  1  0  0  0  0  0999 V2000
   29.4767  -25.0930  -17.3202 C   0  0  0  0  0  0  0  0  0  0  0  0
   29.3846  -23.3119  -17.7320 S   0  0  0  0  0  0  0  0  0  0  0  0
   29.1931  -22.3806  -16.1653 C   0  0  0  0  0  0  0  0  0  0  0  0
   29.2906  -20.9183  -16.4972 C   0  0  0  0  0  0  0  0  0  0  0  0
   28.5377  -20.4894  -17.7105 C   0  0  2  0  0  0  0  0  0  0  0  0
   29.3870  -19.6844  -18.5965 N   0  0  0  0  0  0  0  0  0  0  0  0
   27.3730  -19.6551  -17.3534 C   0  0  0  0  0  0  0  0  0  0  0  0
   27.4523  -18.3832  -17.4234 O   0  0  0  0  0  0  0  0  0  0  0  0
   24.0259  -19.4570  -18.7949 O   0  0  0  0  0  0  0  0  0  0  0  0
   24.6373  -18.5895  -17.9165 C   0  0  0  0  0  0  0  0  0  0  0  0
   25.0193  -19.3600  -16.6632 C   0  0  2  0  0  0  0  0  0  0  0  0
   26.1649  -20.2196  -16.9340 N   0  0  0  0  0  0  0  0  0  0  0  0
   23.9036  -20.1258  -16.0836 C   0  0  0  0  0  0  0  0  0  0  0  0
   23.6468  -21.2539  -16.6036 O   0  0  0  0  0  0  0  0  0  0  0  0
   17.3895  -20.3568  -12.8327 N   0  0  0  0  0  0  0  0  0  0  0  0
   17.4342  -20.9915  -11.5660 C   0  0  0  0  0  0  0  0  0  0  0  0
   16.3701  -21.6055  -11.1724 N   0  0  0  0  0  0  0  0  0  0  0  0
   18.6262  -20.9292  -10.7924 N   0  0  0  0  0  0  0  0  0  0  0  0
   19.7769  -20.2648  -11.3094 C   0  0  0  0  0  0  0  0  0  0  0  0
   20.3194  -20.7832  -12.5918 C   0  0  0  0  0  0  0  0  0  0  0  0
   21.4507  -20.0600  -13.2050 C   0  0  0  0  0  0  0  0  0  0  0  0
   21.9403  -20.5223  -14.5256 C   0  0  2  0  0  0  0  0  0  0  0  0
   23.0826  -19.7425  -15.0063 N   0  0  0  0  0  0  0  0  0  0  0  0
   20.9271  -20.7405  -15.5701 C   0  0  0  0  0  0  0  0  0  0  0  0
   20.7116  -19.8199  -16.3941 O   0  0  0  0  0  0  0  0  0  0  0  0
   20.1903  -21.9000  -15.7099 O   0  0  0  0  0  0  0  0  0  0  0  0
  2  1  1  0
  3  2  1  0
  3  4  1  0
  4  5  1  0
  5  7  1  0
  5  6  1  6
  7  8  2  0
  9 10  1  0
 11 10  1  6
 12 11  1  0
 12  7  1  0
 13 11  1  0
 14 13  2  0
 16 15  1  0
 17 16  2  0
 18 16  1  0
 19 20  1  0
 19 18  1  0
 20 21  1  0
 22 21  1  1
 22 23  1  0
 23 13  1  0
 24 26  1  0
 24 22  1  0
 25 24  2  0
M  END
$$$$
