MSR.pdb
     RDKit          3D

 26 25  0  0  1  0  0  0  0  0999 V2000
   24.1557  -20.4216   -9.4440 C   0  0  0  0  0  0  0  0  0  0  0  0
   25.8946  -20.8472   -9.0620 S   0  0  0  0  0  0  0  0  0  0  0  0
   26.8758  -20.6378  -10.5955 C   0  0  0  0  0  0  0  0  0  0  0  0
   25.9784  -20.9751  -11.7526 C   0  0  0  0  0  0  0  0  0  0  0  0
   26.6316  -20.9514  -13.0927 C   0  0  2  0  0  0  0  0  0  0  0  0
   27.1926  -19.6256  -13.3784 N   0  0  0  0  0  0  0  0  0  0  0  0
   25.6647  -21.2521  -14.1674 C   0  0  0  0  0  0  0  0  0  0  0  0
   24.8734  -20.3433  -14.5878 O   0  0  0  0  0  0  0  0  0  0  0  0
   25.0591  -25.0875  -15.6477 O   0  0  0  0  0  0  0  0  0  0  0  0
   24.9285  -24.0454  -16.5392 C   0  0  0  0  0  0  0  0  0  0  0  0
   24.5713  -22.7877  -15.7640 C   0  0  2  0  0  0  0  0  0  0  0  0
   25.5844  -22.5198  -14.7508 N   0  0  0  0  0  0  0  0  0  0  0  0
   23.2237  -22.8272  -15.1727 C   0  0  0  0  0  0  0  0  0  0  0  0
   23.1350  -22.6170  -13.9249 O   0  0  0  0  0  0  0  0  0  0  0  0
   16.2749  -19.4638  -12.8641 N   0  0  0  0  0  0  0  0  0  0  0  0
   16.7513  -20.1510  -11.7195 C   0  0  0  0  0  0  0  0  0  0  0  0
   15.9667  -20.2164  -10.6976 N   0  0  0  0  0  0  0  0  0  0  0  0
   18.0499  -20.7311  -11.7402 N   0  0  0  0  0  0  0  0  0  0  0  0
   18.8875  -20.5616  -12.8814 C   0  0  0  0  0  0  0  0  0  0  0  0
   19.1354  -21.7730  -13.7054 C   0  0  0  0  0  0  0  0  0  0  0  0
   20.4629  -21.9202  -14.3337 C   0  0  0  0  0  0  0  0  0  0  0  0
   20.7016  -23.1068  -15.1895 C   0  0  2  0  0  0  0  0  0  0  0  0
   22.0112  -23.0740  -15.8439 N   0  0  0  0  0  0  0  0  0  0  0  0
   19.6203  -23.4889  -16.1114 C   0  0  0  0  0  0  0  0  0  0  0  0
   19.6033  -22.9771  -17.2562 O   0  0  0  0  0  0  0  0  0  0  0  0
   18.6133  -24.3820  -15.8026 O   0  0  0  0  0  0  0  0  0  0  0  0
  2  1  1  0
  3  2  1  0
  3  4  1  0
  4  5  1  0
  5  7  1  0
  5  6  1  6
  7  8  2  0
  9 10  1  0
 11 10  1  1
 12 11  1  0
 12  7  1  0
 13 11  1  0
 14 13  2  0
 16 15  1  0
 17 16  2  0
 18 16  1  0
 19 20  1  0
 19 18  1  0
 20 21  1  0
 22 21  1  6
 22 23  1  0
 23 13  1  0
 24 26  1  0
 24 22  1  0
 25 24  2  0
M  END
$$$$
