MSR.pdb
     RDKit          3D

 26 25  0  0  1  0  0  0  0  0999 V2000
   29.8343  -17.9902  -18.4990 C   0  0  0  0  0  0  0  0  0  0  0  0
   28.3871  -17.0454  -17.8960 S   0  0  0  0  0  0  0  0  0  0  0  0
   26.9025  -18.1015  -18.0941 C   0  0  0  0  0  0  0  0  0  0  0  0
   26.7440  -18.8957  -16.8284 C   0  0  0  0  0  0  0  0  0  0  0  0
   27.6901  -20.0373  -16.6706 C   0  0  2  0  0  0  0  0  0  0  0  0
   27.3566  -21.1257  -17.5971 N   0  0  0  0  0  0  0  0  0  0  0  0
   27.6324  -20.5985  -15.3061 C   0  0  0  0  0  0  0  0  0  0  0  0
   26.7439  -21.4650  -15.0084 O   0  0  0  0  0  0  0  0  0  0  0  0
   29.6396  -21.1828  -10.9913 O   0  0  0  0  0  0  0  0  0  0  0  0
   29.7727  -20.6578  -12.2579 C   0  0  0  0  0  0  0  0  0  0  0  0
   28.4427  -20.7954  -12.9807 C   0  0  2  0  0  0  0  0  0  0  0  0
   28.5331  -20.2072  -14.3112 N   0  0  0  0  0  0  0  0  0  0  0  0
   27.3068  -20.2384  -12.2279 C   0  0  0  0  0  0  0  0  0  0  0  0
   27.1851  -18.9758  -12.2177 O   0  0  0  0  0  0  0  0  0  0  0  0
   19.8600  -21.6283  -14.7854 N   0  0  0  0  0  0  0  0  0  0  0  0
   20.2023  -21.2672  -13.4581 C   0  0  0  0  0  0  0  0  0  0  0  0
   19.3349  -21.5107  -12.5347 N   0  0  0  0  0  0  0  0  0  0  0  0
   21.4635  -20.6627  -13.1992 N   0  0  0  0  0  0  0  0  0  0  0  0
   22.6003  -21.4774  -12.9220 C   0  0  0  0  0  0  0  0  0  0  0  0
   23.2001  -21.3375  -11.5698 C   0  0  0  0  0  0  0  0  0  0  0  0
   24.0279  -20.1451  -11.3021 C   0  0  0  0  0  0  0  0  0  0  0  0
   25.3360  -20.3403  -10.6326 C   0  0  2  0  0  0  0  0  0  0  0  0
   26.3312  -20.9574  -11.5117 N   0  0  0  0  0  0  0  0  0  0  0  0
   25.3119  -20.9493   -9.2933 C   0  0  0  0  0  0  0  0  0  0  0  0
   25.9898  -21.9860   -9.0968 O   0  0  0  0  0  0  0  0  0  0  0  0
   24.5897  -20.4539   -8.2257 O   0  0  0  0  0  0  0  0  0  0  0  0
  2  1  1  0
  3  2  1  0
  3  4  1  0
  4  5  1  0
  5  7  1  0
  5  6  1  6
  7  8  2  0
  9 10  1  0
 11 10  1  1
 12 11  1  0
 12  7  1  0
 13 11  1  0
 14 13  2  0
 16 15  1  0
 17 16  2  0
 18 16  1  0
 19 20  1  0
 19 18  1  0
 20 21  1  0
 22 21  1  6
 22 23  1  0
 23 13  1  0
 24 26  1  0
 24 22  1  0
 25 24  2  0
M  END
$$$$
