LNY.pdb
     RDKit          3D

 29 29  0  0  1  0  0  0  0  0999 V2000
   24.2955  -33.8152  -11.3946 C   0  0  0  0  0  0  0  0  0  0  0  0
   25.7370  -33.4546  -11.2473 C   0  0  2  0  0  0  0  0  0  0  0  0
   26.5958  -33.9168  -12.4131 C   0  0  0  0  0  0  0  0  0  0  0  0
   26.2331  -34.0564   -9.9316 C   0  0  0  0  0  0  0  0  0  0  0  0
   25.3169  -33.4793   -8.8415 C   0  0  2  0  0  0  0  0  0  0  0  0
   25.6435  -32.0526   -8.7999 N   0  0  0  0  0  0  0  0  0  0  0  0
   25.6247  -34.1129   -7.5303 C   0  0  0  0  0  0  0  0  0  0  0  0
   25.4505  -35.3559   -7.4129 O   0  0  0  0  0  0  0  0  0  0  0  0
   27.2662  -34.8113   -2.6655 N   0  0  0  0  0  0  0  0  0  0  0  0
   28.1243  -33.9351   -3.3793 C   0  0  0  0  0  0  0  0  0  0  0  0
   29.2070  -33.6009   -2.8508 O   0  0  0  0  0  0  0  0  0  0  0  0
   27.7379  -33.4423   -4.7007 C   0  0  0  0  0  0  0  0  0  0  0  0
   26.3595  -33.9070   -5.1630 C   0  0  2  0  0  0  0  0  0  0  0  0
   26.0995  -33.2892   -6.4804 N   0  0  0  0  0  0  0  0  0  0  0  0
   25.2566  -33.4916   -4.3007 C   0  0  0  0  0  0  0  0  0  0  0  0
   24.9886  -32.2488   -4.1248 O   0  0  0  0  0  0  0  0  0  0  0  0
   18.0388  -32.8990    0.5705 O   0  0  0  0  0  0  0  0  0  0  0  0
   19.0167  -33.2229   -0.3585 C   0  0  0  0  0  0  0  0  0  0  0  0
   19.5374  -34.4971   -0.3887 C   0  0  0  0  0  0  0  0  0  0  0  0
   20.5163  -34.8621   -1.3008 C   0  0  0  0  0  0  0  0  0  0  0  0
   21.0200  -33.9681   -2.2257 C   0  0  0  0  0  0  0  0  0  0  0  0
   22.0691  -34.3760   -3.1917 C   0  0  0  0  0  0  0  0  0  0  0  0
   23.4105  -33.9069   -2.6511 C   0  0  2  0  0  0  0  0  0  0  0  0
   24.4150  -34.4060   -3.6123 N   0  0  0  0  0  0  0  0  0  0  0  0
   23.7291  -34.3973   -1.3191 C   0  0  0  0  0  0  0  0  0  0  0  0
   24.6989  -35.3596   -1.0991 O   0  0  0  0  0  0  0  0  0  0  0  0
   20.4846  -32.6812   -2.1849 C   0  0  0  0  0  0  0  0  0  0  0  0
   19.5122  -32.3211   -1.2779 C   0  0  0  0  0  0  0  0  0  0  0  0
   23.1398  -33.9733   -0.2907 O   0  0  0  0  0  0  0  0  0  0  0  0
  2  1  1  6
  2  3  1  0
  4  2  1  0
  5  4  1  0
  5  6  1  1
  7  5  1  0
  8  7  2  0
  9 10  1  0
 10 12  1  0
 10 11  2  0
 13 12  1  1
 13 14  1  0
 14  7  1  0
 15 13  1  0
 15 24  1  0
 16 15  2  0
 17 18  1  0
 18 28  2  0
 19 20  2  0
 19 18  1  0
 20 21  1  0
 21 22  1  0
 21 27  2  0
 23 22  1  6
 23 24  1  0
 23 25  1  0
 25 26  1  0
 28 27  1  0
 29 25  2  0
M  END
$$$$
