LNY.pdb
     RDKit          3D

 29 29  0  0  1  0  0  0  0  0999 V2000
   17.0982  -10.5036  -17.9794 C   0  0  0  0  0  0  0  0  0  0  0  0
   16.5538  -11.3587  -16.8830 C   0  0  2  0  0  0  0  0  0  0  0  0
   15.2469  -12.0444  -17.2464 C   0  0  0  0  0  0  0  0  0  0  0  0
   16.3808  -10.4739  -15.6476 C   0  0  0  0  0  0  0  0  0  0  0  0
   17.7323   -9.7698  -15.4507 C   0  0  2  0  0  0  0  0  0  0  0  0
   18.6033  -10.7945  -14.8718 N   0  0  0  0  0  0  0  0  0  0  0  0
   17.5802   -8.6326  -14.5027 C   0  0  0  0  0  0  0  0  0  0  0  0
   16.8530   -7.6620  -14.8470 O   0  0  0  0  0  0  0  0  0  0  0  0
   18.1946   -5.6771  -10.2492 N   0  0  0  0  0  0  0  0  0  0  0  0
   17.5986   -6.9427  -10.0114 C   0  0  0  0  0  0  0  0  0  0  0  0
   17.1633   -7.1898   -8.8657 O   0  0  0  0  0  0  0  0  0  0  0  0
   17.5033   -7.9249  -11.0905 C   0  0  0  0  0  0  0  0  0  0  0  0
   18.2192   -7.5148  -12.3745 C   0  0  2  0  0  0  0  0  0  0  0  0
   18.2578   -8.6974  -13.2605 N   0  0  0  0  0  0  0  0  0  0  0  0
   19.6089   -7.1051  -12.1920 C   0  0  0  0  0  0  0  0  0  0  0  0
   20.5192   -7.9656  -11.9121 O   0  0  0  0  0  0  0  0  0  0  0  0
   24.9583   -5.0415  -18.2982 O   0  0  0  0  0  0  0  0  0  0  0  0
   23.9486   -5.3120  -17.3862 C   0  0  0  0  0  0  0  0  0  0  0  0
   24.1376   -6.2756  -16.4212 C   0  0  0  0  0  0  0  0  0  0  0  0
   23.1541   -6.5771  -15.4911 C   0  0  0  0  0  0  0  0  0  0  0  0
   21.9348   -5.9277  -15.4835 C   0  0  0  0  0  0  0  0  0  0  0  0
   20.8938   -6.2657  -14.4824 C   0  0  0  0  0  0  0  0  0  0  0  0
   21.1441   -5.4203  -13.2437 C   0  0  2  0  0  0  0  0  0  0  0  0
   20.0498   -5.7599  -12.3115 N   0  0  0  0  0  0  0  0  0  0  0  0
   21.1486   -3.9854  -13.4833 C   0  0  0  0  0  0  0  0  0  0  0  0
   19.9849   -3.2368  -13.5040 O   0  0  0  0  0  0  0  0  0  0  0  0
   21.7558   -4.9541  -16.4656 C   0  0  0  0  0  0  0  0  0  0  0  0
   22.7345   -4.6564  -17.3885 C   0  0  0  0  0  0  0  0  0  0  0  0
   22.2125   -3.3436  -13.6856 O   0  0  0  0  0  0  0  0  0  0  0  0
  2  1  1  6
  2  3  1  0
  4  2  1  0
  5  4  1  0
  5  6  1  1
  7  5  1  0
  8  7  2  0
  9 10  1  0
 10 12  1  0
 10 11  2  0
 13 12  1  1
 13 14  1  0
 14  7  1  0
 15 13  1  0
 15 24  1  0
 16 15  2  0
 17 18  1  0
 18 28  2  0
 19 20  2  0
 19 18  1  0
 20 21  1  0
 21 22  1  0
 21 27  2  0
 23 22  1  6
 23 24  1  0
 23 25  1  0
 25 26  1  0
 28 27  1  0
 29 25  2  0
M  END
$$$$
