LNY.pdb
     RDKit          3D

 29 29  0  0  1  0  0  0  0  0999 V2000
   27.6573  -26.3505  -18.4679 C   0  0  0  0  0  0  0  0  0  0  0  0
   26.1932  -26.3723  -18.7600 C   0  0  2  0  0  0  0  0  0  0  0  0
   25.8760  -26.5371  -20.2373 C   0  0  0  0  0  0  0  0  0  0  0  0
   25.5924  -25.0761  -18.2140 C   0  0  0  0  0  0  0  0  0  0  0  0
   26.0410  -24.9984  -16.7465 C   0  0  2  0  0  0  0  0  0  0  0  0
   25.4148  -26.1563  -16.1055 N   0  0  0  0  0  0  0  0  0  0  0  0
   25.5425  -23.7397  -16.1281 C   0  0  0  0  0  0  0  0  0  0  0  0
   25.9250  -22.6425  -16.6171 O   0  0  0  0  0  0  0  0  0  0  0  0
   21.8719  -20.2927  -14.1209 N   0  0  0  0  0  0  0  0  0  0  0  0
   21.9887  -21.6139  -13.6163 C   0  0  0  0  0  0  0  0  0  0  0  0
   21.5279  -21.8600  -12.4803 O   0  0  0  0  0  0  0  0  0  0  0  0
   22.6357  -22.6523  -14.4170 C   0  0  0  0  0  0  0  0  0  0  0  0
   24.1606  -22.5878  -14.4104 C   0  0  2  0  0  0  0  0  0  0  0  0
   24.6622  -23.8363  -15.0226 N   0  0  0  0  0  0  0  0  0  0  0  0
   24.7611  -22.5241  -13.0807 C   0  0  0  0  0  0  0  0  0  0  0  0
   24.9863  -23.5928  -12.4065 O   0  0  0  0  0  0  0  0  0  0  0  0
   27.9296  -17.5018  -15.6095 O   0  0  0  0  0  0  0  0  0  0  0  0
   27.7738  -18.4088  -14.5715 C   0  0  0  0  0  0  0  0  0  0  0  0
   26.9712  -18.0909  -13.4990 C   0  0  0  0  0  0  0  0  0  0  0  0
   26.7889  -18.9684  -12.4408 C   0  0  0  0  0  0  0  0  0  0  0  0
   27.4018  -20.2061  -12.4067 C   0  0  0  0  0  0  0  0  0  0  0  0
   27.1971  -21.1304  -11.2649 C   0  0  0  0  0  0  0  0  0  0  0  0
   25.7002  -21.3264  -11.0844 C   0  0  2  0  0  0  0  0  0  0  0  0
   25.1365  -21.3079  -12.4497 N   0  0  0  0  0  0  0  0  0  0  0  0
   25.0507  -20.3043  -10.2784 C   0  0  0  0  0  0  0  0  0  0  0  0
   25.4108  -20.0608   -8.9646 O   0  0  0  0  0  0  0  0  0  0  0  0
   28.2117  -20.5162  -13.4987 C   0  0  0  0  0  0  0  0  0  0  0  0
   28.3912  -19.6426  -14.5487 C   0  0  0  0  0  0  0  0  0  0  0  0
   24.1234  -19.5833  -10.7312 O   0  0  0  0  0  0  0  0  0  0  0  0
  2  1  1  6
  2  3  1  0
  4  2  1  0
  5  4  1  0
  5  6  1  1
  7  5  1  0
  8  7  2  0
  9 10  1  0
 10 12  1  0
 10 11  2  0
 13 12  1  1
 13 14  1  0
 14  7  1  0
 15 13  1  0
 15 24  1  0
 16 15  2  0
 17 18  1  0
 18 28  2  0
 19 20  2  0
 19 18  1  0
 20 21  1  0
 21 22  1  0
 21 27  2  0
 23 22  1  6
 23 24  1  0
 23 25  1  0
 25 26  1  0
 28 27  1  0
 29 25  2  0
M  END
$$$$
