LNY.pdb
     RDKit          3D

 29 29  0  0  1  0  0  0  0  0999 V2000
   21.7694  -18.6290  -19.7656 C   0  0  0  0  0  0  0  0  0  0  0  0
   23.0920  -19.0097  -20.3446 C   0  0  2  0  0  0  0  0  0  0  0  0
   23.0004  -19.5163  -21.7746 C   0  0  0  0  0  0  0  0  0  0  0  0
   23.7113  -20.0672  -19.4295 C   0  0  0  0  0  0  0  0  0  0  0  0
   23.8687  -19.3882  -18.0601 C   0  0  2  0  0  0  0  0  0  0  0  0
   24.7371  -18.2372  -18.3147 N   0  0  0  0  0  0  0  0  0  0  0  0
   24.5230  -20.3206  -17.1021 C   0  0  0  0  0  0  0  0  0  0  0  0
   23.9545  -21.4185  -16.8555 O   0  0  0  0  0  0  0  0  0  0  0  0
   27.7571  -22.9867  -16.7780 N   0  0  0  0  0  0  0  0  0  0  0  0
   28.5472  -21.8957  -16.3317 C   0  0  0  0  0  0  0  0  0  0  0  0
   29.7892  -21.9707  -16.4545 O   0  0  0  0  0  0  0  0  0  0  0  0
   27.9099  -20.7184  -15.7436 C   0  0  0  0  0  0  0  0  0  0  0  0
   26.4006  -20.8508  -15.5592 C   0  0  2  0  0  0  0  0  0  0  0  0
   25.7521  -19.9299  -16.5165 N   0  0  0  0  0  0  0  0  0  0  0  0
   25.9128  -20.4643  -14.2381 C   0  0  0  0  0  0  0  0  0  0  0  0
   26.0314  -19.2573  -13.8181 O   0  0  0  0  0  0  0  0  0  0  0  0
   21.0789  -19.7407   -7.0170 O   0  0  0  0  0  0  0  0  0  0  0  0
   21.5948  -20.0662   -8.2628 C   0  0  0  0  0  0  0  0  0  0  0  0
   22.3200  -21.2257   -8.4220 C   0  0  0  0  0  0  0  0  0  0  0  0
   22.8534  -21.5880   -9.6498 C   0  0  0  0  0  0  0  0  0  0  0  0
   22.6858  -20.8060  -10.7763 C   0  0  0  0  0  0  0  0  0  0  0  0
   23.2662  -21.2084  -12.0806 C   0  0  0  0  0  0  0  0  0  0  0  0
   24.7509  -20.8820  -12.0525 C   0  0  2  0  0  0  0  0  0  0  0  0
   25.2823  -21.3685  -13.3420 N   0  0  0  0  0  0  0  0  0  0  0  0
   25.4848  -21.5034  -10.9608 C   0  0  0  0  0  0  0  0  0  0  0  0
   25.8092  -20.8165   -9.8041 O   0  0  0  0  0  0  0  0  0  0  0  0
   21.9496  -19.6347  -10.6020 C   0  0  0  0  0  0  0  0  0  0  0  0
   21.4207  -19.2770   -9.3812 C   0  0  0  0  0  0  0  0  0  0  0  0
   25.8663  -22.7021  -11.0073 O   0  0  0  0  0  0  0  0  0  0  0  0
  2  1  1  1
  2  3  1  0
  4  2  1  0
  5  4  1  0
  5  6  1  6
  7  5  1  0
  8  7  2  0
  9 10  1  0
 10 12  1  0
 10 11  2  0
 13 12  1  1
 13 14  1  0
 14  7  1  0
 15 13  1  0
 15 24  1  0
 16 15  2  0
 17 18  1  0
 18 28  2  0
 19 20  2  0
 19 18  1  0
 20 21  1  0
 21 22  1  0
 21 27  2  0
 23 22  1  1
 23 24  1  0
 23 25  1  0
 25 26  1  0
 28 27  1  0
 29 25  2  0
M  END
$$$$
