LNY.pdb
     RDKit          3D

 29 29  0  0  1  0  0  0  0  0999 V2000
   27.5761  -21.3885  -17.5037 C   0  0  0  0  0  0  0  0  0  0  0  0
   28.2966  -21.7163  -16.2376 C   0  0  2  0  0  0  0  0  0  0  0  0
   29.4332  -22.7068  -16.4304 C   0  0  0  0  0  0  0  0  0  0  0  0
   27.2660  -22.2547  -15.2440 C   0  0  0  0  0  0  0  0  0  0  0  0
   26.2161  -21.1429  -15.0941 C   0  0  2  0  0  0  0  0  0  0  0  0
   26.9854  -19.9544  -14.7206 N   0  0  0  0  0  0  0  0  0  0  0  0
   25.2565  -21.4920  -14.0113 C   0  0  0  0  0  0  0  0  0  0  0  0
   24.6003  -22.5631  -14.1182 O   0  0  0  0  0  0  0  0  0  0  0  0
   26.1173  -22.2018  -10.4765 N   0  0  0  0  0  0  0  0  0  0  0  0
   25.6464  -20.9767   -9.9369 C   0  0  0  0  0  0  0  0  0  0  0  0
   26.1912  -20.5335   -8.9024 O   0  0  0  0  0  0  0  0  0  0  0  0
   24.5488  -20.2611  -10.5859 C   0  0  0  0  0  0  0  0  0  0  0  0
   24.0883  -20.8827  -11.9016 C   0  0  2  0  0  0  0  0  0  0  0  0
   25.1291  -20.6055  -12.9140 N   0  0  0  0  0  0  0  0  0  0  0  0
   22.8495  -20.3250  -12.4372 C   0  0  0  0  0  0  0  0  0  0  0  0
   22.8065  -19.1230  -12.8852 O   0  0  0  0  0  0  0  0  0  0  0  0
   16.7310  -18.7840  -18.0967 O   0  0  0  0  0  0  0  0  0  0  0  0
   17.7854  -19.1459  -17.2711 C   0  0  0  0  0  0  0  0  0  0  0  0
   18.0906  -20.4766  -17.0936 C   0  0  0  0  0  0  0  0  0  0  0  0
   19.1359  -20.8812  -16.2769 C   0  0  0  0  0  0  0  0  0  0  0  0
   19.9248  -19.9719  -15.5992 C   0  0  0  0  0  0  0  0  0  0  0  0
   21.0368  -20.4235  -14.7277 C   0  0  0  0  0  0  0  0  0  0  0  0
   20.5040  -20.5312  -13.3077 C   0  0  2  0  0  0  0  0  0  0  0  0
   21.6306  -21.0515  -12.5063 N   0  0  0  0  0  0  0  0  0  0  0  0
   19.3562  -21.4126  -13.1592 C   0  0  0  0  0  0  0  0  0  0  0  0
   18.0607  -20.9317  -13.0855 O   0  0  0  0  0  0  0  0  0  0  0  0
   19.6057  -18.6276  -15.7873 C   0  0  0  0  0  0  0  0  0  0  0  0
   18.5668  -18.2283  -16.5992 C   0  0  0  0  0  0  0  0  0  0  0  0
   19.4772  -22.6637  -13.0891 O   0  0  0  0  0  0  0  0  0  0  0  0
  2  1  1  6
  2  3  1  0
  4  2  1  0
  5  4  1  0
  5  6  1  1
  7  5  1  0
  8  7  2  0
  9 10  1  0
 10 12  1  0
 10 11  2  0
 13 12  1  1
 13 14  1  0
 14  7  1  0
 15 13  1  0
 15 24  1  0
 16 15  2  0
 17 18  1  0
 18 28  2  0
 19 20  2  0
 19 18  1  0
 20 21  1  0
 21 22  1  0
 21 27  2  0
 23 22  1  6
 23 24  1  0
 23 25  1  0
 25 26  1  0
 28 27  1  0
 29 25  2  0
M  END
$$$$
