LNY.pdb
     RDKit          3D

 29 29  0  0  1  0  0  0  0  0999 V2000
   17.0131  -13.5739    3.7248 C   0  0  0  0  0  0  0  0  0  0  0  0
   17.7720  -13.1846    4.9504 C   0  0  2  0  0  0  0  0  0  0  0  0
   18.8297  -12.1240    4.6924 C   0  0  0  0  0  0  0  0  0  0  0  0
   18.4009  -14.4532    5.5286 C   0  0  0  0  0  0  0  0  0  0  0  0
   17.2532  -15.4685    5.6429 C   0  0  2  0  0  0  0  0  0  0  0  0
   16.4464  -14.9910    6.7676 N   0  0  0  0  0  0  0  0  0  0  0  0
   17.7982  -16.8208    5.9422 C   0  0  0  0  0  0  0  0  0  0  0  0
   18.5274  -17.3752    5.0760 O   0  0  0  0  0  0  0  0  0  0  0  0
   20.0508  -17.6785    9.2316 N   0  0  0  0  0  0  0  0  0  0  0  0
   18.9543  -18.3386    9.8446 C   0  0  0  0  0  0  0  0  0  0  0  0
   18.9142  -18.3922   11.0931 O   0  0  0  0  0  0  0  0  0  0  0  0
   17.9040  -18.9379    9.0225 C   0  0  0  0  0  0  0  0  0  0  0  0
   18.0832  -18.7203    7.5225 C   0  0  2  0  0  0  0  0  0  0  0  0
   17.4725  -17.4171    7.1850 N   0  0  0  0  0  0  0  0  0  0  0  0
   17.4129  -19.7072    6.6802 C   0  0  0  0  0  0  0  0  0  0  0  0
   16.1662  -19.5949    6.3968 O   0  0  0  0  0  0  0  0  0  0  0  0
   20.5809  -26.2182    2.1490 O   0  0  0  0  0  0  0  0  0  0  0  0
   19.9095  -25.0858    2.5864 C   0  0  0  0  0  0  0  0  0  0  0  0
   18.5357  -25.0329    2.5125 C   0  0  0  0  0  0  0  0  0  0  0  0
   17.8260  -23.9201    2.9383 C   0  0  0  0  0  0  0  0  0  0  0  0
   18.4589  -22.8076    3.4583 C   0  0  0  0  0  0  0  0  0  0  0  0
   17.6832  -21.6253    3.9061 C   0  0  0  0  0  0  0  0  0  0  0  0
   17.3013  -21.8406    5.3620 C   0  0  2  0  0  0  0  0  0  0  0  0
   18.0720  -20.8345    6.1208 N   0  0  0  0  0  0  0  0  0  0  0  0
   17.6017  -23.1685    5.8746 C   0  0  0  0  0  0  0  0  0  0  0  0
   18.6487  -23.4030    6.7485 O   0  0  0  0  0  0  0  0  0  0  0  0
   19.8500  -22.8736    3.5280 C   0  0  0  0  0  0  0  0  0  0  0  0
   20.5526  -23.9804    3.1043 C   0  0  0  0  0  0  0  0  0  0  0  0
   16.9254  -24.1799    5.5516 O   0  0  0  0  0  0  0  0  0  0  0  0
  2  1  1  6
  2  3  1  0
  4  2  1  0
  5  4  1  0
  5  6  1  1
  7  5  1  0
  8  7  2  0
  9 10  1  0
 10 12  1  0
 10 11  2  0
 13 12  1  1
 13 14  1  0
 14  7  1  0
 15 13  1  0
 15 24  1  0
 16 15  2  0
 17 18  1  0
 18 28  2  0
 19 20  2  0
 19 18  1  0
 20 21  1  0
 21 22  1  0
 21 27  2  0
 23 22  1  6
 23 24  1  0
 23 25  1  0
 25 26  1  0
 28 27  1  0
 29 25  2  0
M  END
$$$$
