LNY.pdb
     RDKit          3D

 29 29  0  0  1  0  0  0  0  0999 V2000
   19.7520  -14.5811  -20.5874 C   0  0  0  0  0  0  0  0  0  0  0  0
   19.1068  -14.9855  -19.3030 C   0  0  2  0  0  0  0  0  0  0  0  0
   18.1051  -16.1175  -19.4623 C   0  0  0  0  0  0  0  0  0  0  0  0
   18.4383  -13.7445  -18.7094 C   0  0  0  0  0  0  0  0  0  0  0  0
   19.5443  -12.6817  -18.6202 C   0  0  2  0  0  0  0  0  0  0  0  0
   20.5235  -13.2430  -17.6875 N   0  0  0  0  0  0  0  0  0  0  0  0
   18.9881  -11.4131  -18.0758 C   0  0  0  0  0  0  0  0  0  0  0  0
   17.9069  -10.9800  -18.5584 O   0  0  0  0  0  0  0  0  0  0  0  0
   16.4547   -7.9062  -15.4213 N   0  0  0  0  0  0  0  0  0  0  0  0
   17.2380   -8.9495  -14.8632 C   0  0  0  0  0  0  0  0  0  0  0  0
   17.4158   -8.9635  -13.6256 O   0  0  0  0  0  0  0  0  0  0  0  0
   17.8176   -9.9768  -15.7274 C   0  0  0  0  0  0  0  0  0  0  0  0
   19.1016   -9.5489  -16.4330 C   0  0  2  0  0  0  0  0  0  0  0  0
   19.6991  -10.7561  -17.0418 N   0  0  0  0  0  0  0  0  0  0  0  0
   20.1255   -8.9964  -15.5504 C   0  0  0  0  0  0  0  0  0  0  0  0
   21.0784   -9.7313  -15.1041 O   0  0  0  0  0  0  0  0  0  0  0  0
   26.2960   -3.5988  -17.6370 O   0  0  0  0  0  0  0  0  0  0  0  0
   25.2073   -4.4306  -17.4204 C   0  0  0  0  0  0  0  0  0  0  0  0
   23.9311   -3.9173  -17.4789 C   0  0  0  0  0  0  0  0  0  0  0  0
   22.8156   -4.7140  -17.2682 C   0  0  0  0  0  0  0  0  0  0  0  0
   22.9257   -6.0625  -16.9889 C   0  0  0  0  0  0  0  0  0  0  0  0
   21.7212   -6.8982  -16.7636 C   0  0  0  0  0  0  0  0  0  0  0  0
   21.3815   -6.8394  -15.2827 C   0  0  2  0  0  0  0  0  0  0  0  0
   20.1483   -7.6386  -15.1330 N   0  0  0  0  0  0  0  0  0  0  0  0
   21.1545   -5.4976  -14.7686 C   0  0  0  0  0  0  0  0  0  0  0  0
   19.9765   -4.8086  -14.9979 O   0  0  0  0  0  0  0  0  0  0  0  0
   24.2232   -6.5701  -16.9325 C   0  0  0  0  0  0  0  0  0  0  0  0
   25.3297   -5.7765  -17.1423 C   0  0  0  0  0  0  0  0  0  0  0  0
   22.0180   -4.8872  -14.0855 O   0  0  0  0  0  0  0  0  0  0  0  0
  2  1  1  6
  2  3  1  0
  4  2  1  0
  5  4  1  0
  5  6  1  1
  7  5  1  0
  8  7  2  0
  9 10  1  0
 10 12  1  0
 10 11  2  0
 13 12  1  1
 13 14  1  0
 14  7  1  0
 15 13  1  0
 15 24  1  0
 16 15  2  0
 17 18  1  0
 18 28  2  0
 19 20  2  0
 19 18  1  0
 20 21  1  0
 21 22  1  0
 21 27  2  0
 23 22  1  6
 23 24  1  0
 23 25  1  0
 25 26  1  0
 28 27  1  0
 29 25  2  0
M  END
$$$$
