LNY.pdb
     RDKit          3D

 29 29  0  0  1  0  0  0  0  0999 V2000
   23.7958  -11.4069  -14.3815 C   0  0  0  0  0  0  0  0  0  0  0  0
   23.2732  -10.7227  -15.6015 C   0  0  2  0  0  0  0  0  0  0  0  0
   24.3311  -10.5076  -16.6713 C   0  0  0  0  0  0  0  0  0  0  0  0
   22.6640   -9.3908  -15.1607 C   0  0  0  0  0  0  0  0  0  0  0  0
   21.5681   -9.7529  -14.1464 C   0  0  2  0  0  0  0  0  0  0  0  0
   20.6905  -10.6797  -14.8638 N   0  0  0  0  0  0  0  0  0  0  0  0
   20.8124   -8.5314  -13.7562 C   0  0  0  0  0  0  0  0  0  0  0  0
   21.4256   -7.6251  -13.1302 O   0  0  0  0  0  0  0  0  0  0  0  0
   20.0099   -5.0481  -14.9277 N   0  0  0  0  0  0  0  0  0  0  0  0
   18.8173   -5.4953  -15.5534 C   0  0  0  0  0  0  0  0  0  0  0  0
   18.4070   -4.8797  -16.5614 O   0  0  0  0  0  0  0  0  0  0  0  0
   18.0956   -6.6498  -15.0202 C   0  0  0  0  0  0  0  0  0  0  0  0
   18.6954   -7.2258  -13.7403 C   0  0  2  0  0  0  0  0  0  0  0  0
   19.4432   -8.4465  -14.1086 N   0  0  0  0  0  0  0  0  0  0  0  0
   17.7140   -7.6426  -12.7424 C   0  0  0  0  0  0  0  0  0  0  0  0
   16.9755   -8.6747  -12.9341 O   0  0  0  0  0  0  0  0  0  0  0  0
   11.8884   -7.2739   -6.1497 O   0  0  0  0  0  0  0  0  0  0  0  0
   13.0113   -7.0883   -6.9429 C   0  0  0  0  0  0  0  0  0  0  0  0
   13.1450   -5.9340   -7.6811 C   0  0  0  0  0  0  0  0  0  0  0  0
   14.2511   -5.7091   -8.4869 C   0  0  0  0  0  0  0  0  0  0  0  0
   15.2756   -6.6301   -8.5915 C   0  0  0  0  0  0  0  0  0  0  0  0
   16.4496   -6.3735   -9.4608 C   0  0  0  0  0  0  0  0  0  0  0  0
   16.3681   -7.3196  -10.6482 C   0  0  2  0  0  0  0  0  0  0  0  0
   17.5096   -6.9594  -11.5137 N   0  0  0  0  0  0  0  0  0  0  0  0
   15.1331   -7.2251  -11.4112 C   0  0  0  0  0  0  0  0  0  0  0  0
   14.1722   -8.2207  -11.3868 O   0  0  0  0  0  0  0  0  0  0  0  0
   15.1283   -7.7948   -7.8390 C   0  0  0  0  0  0  0  0  0  0  0  0
   14.0285   -8.0156   -7.0392 C   0  0  0  0  0  0  0  0  0  0  0  0
   14.8689   -6.2314  -12.1375 O   0  0  0  0  0  0  0  0  0  0  0  0
  2  1  1  1
  2  3  1  0
  4  2  1  0
  5  4  1  0
  5  6  1  6
  7  5  1  0
  8  7  2  0
  9 10  1  0
 10 12  1  0
 10 11  2  0
 13 12  1  6
 13 14  1  0
 14  7  1  0
 15 13  1  0
 15 24  1  0
 16 15  2  0
 17 18  1  0
 18 28  2  0
 19 20  2  0
 19 18  1  0
 20 21  1  0
 21 22  1  0
 21 27  2  0
 23 22  1  1
 23 24  1  0
 23 25  1  0
 25 26  1  0
 28 27  1  0
 29 25  2  0
M  END
$$$$
