LNY.pdb
     RDKit          3D

 29 29  0  0  1  0  0  0  0  0999 V2000
   28.2206  -21.3895   -6.4940 C   0  0  0  0  0  0  0  0  0  0  0  0
   28.4936  -20.2296   -7.3939 C   0  0  2  0  0  0  0  0  0  0  0  0
   28.8200  -18.9488   -6.6435 C   0  0  0  0  0  0  0  0  0  0  0  0
   27.2688  -20.0402   -8.2901 C   0  0  0  0  0  0  0  0  0  0  0  0
   27.4082  -21.0857   -9.4074 C   0  0  2  0  0  0  0  0  0  0  0  0
   28.8501  -21.1906   -9.6391 N   0  0  0  0  0  0  0  0  0  0  0  0
   26.7256  -20.6068  -10.6403 C   0  0  0  0  0  0  0  0  0  0  0  0
   26.9774  -19.4404  -11.0470 O   0  0  0  0  0  0  0  0  0  0  0  0
   27.7208  -20.5331  -13.5348 N   0  0  0  0  0  0  0  0  0  0  0  0
   26.9827  -21.5874  -14.1326 C   0  0  0  0  0  0  0  0  0  0  0  0
   27.5216  -22.2468  -15.0481 O   0  0  0  0  0  0  0  0  0  0  0  0
   25.6246  -21.8837  -13.6787 C   0  0  0  0  0  0  0  0  0  0  0  0
   25.1481  -21.0115  -12.5203 C   0  0  2  0  0  0  0  0  0  0  0  0
   25.8287  -21.4850  -11.2966 N   0  0  0  0  0  0  0  0  0  0  0  0
   23.7171  -21.0981  -12.2422 C   0  0  0  0  0  0  0  0  0  0  0  0
   23.2570  -21.9649  -11.4149 O   0  0  0  0  0  0  0  0  0  0  0  0
   15.0432  -19.6458  -12.0948 O   0  0  0  0  0  0  0  0  0  0  0  0
   16.4227  -19.5192  -12.1674 C   0  0  0  0  0  0  0  0  0  0  0  0
   17.1829  -19.6456  -11.0266 C   0  0  0  0  0  0  0  0  0  0  0  0
   18.5643  -19.5257  -11.0551 C   0  0  0  0  0  0  0  0  0  0  0  0
   19.2495  -19.2734  -12.2279 C   0  0  0  0  0  0  0  0  0  0  0  0
   20.7272  -19.1456  -12.2386 C   0  0  0  0  0  0  0  0  0  0  0  0
   21.3106  -20.4952  -12.6255 C   0  0  2  0  0  0  0  0  0  0  0  0
   22.7505  -20.2496  -12.8455 N   0  0  0  0  0  0  0  0  0  0  0  0
   20.7307  -21.0822  -13.8236 C   0  0  0  0  0  0  0  0  0  0  0  0
   19.6548  -21.9510  -13.7736 O   0  0  0  0  0  0  0  0  0  0  0  0
   18.4684  -19.1476  -13.3761 C   0  0  0  0  0  0  0  0  0  0  0  0
   17.0963  -19.2672  -13.3450 C   0  0  0  0  0  0  0  0  0  0  0  0
   21.1757  -20.8325  -14.9744 O   0  0  0  0  0  0  0  0  0  0  0  0
  2  1  1  1
  2  3  1  0
  4  2  1  0
  5  4  1  0
  5  6  1  6
  7  5  1  0
  8  7  2  0
  9 10  1  0
 10 12  1  0
 10 11  2  0
 13 12  1  6
 13 14  1  0
 14  7  1  0
 15 13  1  0
 15 24  1  0
 16 15  2  0
 17 18  1  0
 18 28  2  0
 19 20  2  0
 19 18  1  0
 20 21  1  0
 21 22  1  0
 21 27  2  0
 23 22  1  6
 23 24  1  0
 23 25  1  0
 25 26  1  0
 28 27  1  0
 29 25  2  0
M  END
$$$$
