LNY.pdb
     RDKit          3D

 29 29  0  0  1  0  0  0  0  0999 V2000
   13.2459  -22.4895   -1.5917 C   0  0  0  0  0  0  0  0  0  0  0  0
   14.6116  -22.9120   -1.1608 C   0  0  2  0  0  0  0  0  0  0  0  0
   15.0587  -24.2264   -1.7793 C   0  0  0  0  0  0  0  0  0  0  0  0
   14.6093  -23.0002    0.3661 C   0  0  0  0  0  0  0  0  0  0  0  0
   14.2774  -21.5841    0.8616 C   0  0  2  0  0  0  0  0  0  0  0  0
   15.3428  -20.7411    0.3157 N   0  0  0  0  0  0  0  0  0  0  0  0
   14.3064  -21.5458    2.3492 C   0  0  0  0  0  0  0  0  0  0  0  0
   13.3911  -22.1412    2.9793 O   0  0  0  0  0  0  0  0  0  0  0  0
   14.7897  -22.2932    7.0403 N   0  0  0  0  0  0  0  0  0  0  0  0
   15.8033  -22.7782    6.1738 C   0  0  0  0  0  0  0  0  0  0  0  0
   16.7161  -23.4809    6.6600 O   0  0  0  0  0  0  0  0  0  0  0  0
   15.7684  -22.4552    4.7481 C   0  0  0  0  0  0  0  0  0  0  0  0
   15.5173  -20.9802    4.4469 C   0  0  2  0  0  0  0  0  0  0  0  0
   15.3610  -20.8444    2.9833 N   0  0  0  0  0  0  0  0  0  0  0  0
   16.6129  -20.0886    4.8175 C   0  0  0  0  0  0  0  0  0  0  0  0
   16.9901  -19.9791    6.0394 O   0  0  0  0  0  0  0  0  0  0  0  0
   18.6869  -11.6770    4.5861 O   0  0  0  0  0  0  0  0  0  0  0  0
   18.2944  -12.9702    4.2734 C   0  0  0  0  0  0  0  0  0  0  0  0
   17.2455  -13.5502    4.9508 C   0  0  0  0  0  0  0  0  0  0  0  0
   16.8217  -14.8404    4.6697 C   0  0  0  0  0  0  0  0  0  0  0  0
   17.4286  -15.6108    3.6968 C   0  0  0  0  0  0  0  0  0  0  0  0
   16.9633  -16.9901    3.4120 C   0  0  0  0  0  0  0  0  0  0  0  0
   17.7941  -17.9468    4.2523 C   0  0  2  0  0  0  0  0  0  0  0  0
   17.3296  -19.2985    3.8792 N   0  0  0  0  0  0  0  0  0  0  0  0
   17.6536  -17.7658    5.6889 C   0  0  0  0  0  0  0  0  0  0  0  0
   18.6719  -17.2498    6.4711 O   0  0  0  0  0  0  0  0  0  0  0  0
   18.4894  -15.0122    3.0179 C   0  0  0  0  0  0  0  0  0  0  0  0
   18.9084  -13.7302    3.2991 C   0  0  0  0  0  0  0  0  0  0  0  0
   16.5967  -18.0690    6.3019 O   0  0  0  0  0  0  0  0  0  0  0  0
  2  1  1  6
  2  3  1  0
  4  2  1  0
  5  4  1  0
  5  6  1  6
  7  5  1  0
  8  7  2  0
  9 10  1  0
 10 12  1  0
 10 11  2  0
 13 12  1  6
 13 14  1  0
 14  7  1  0
 15 13  1  0
 15 24  1  0
 16 15  2  0
 17 18  1  0
 18 28  2  0
 19 20  2  0
 19 18  1  0
 20 21  1  0
 21 22  1  0
 21 27  2  0
 23 22  1  6
 23 24  1  0
 23 25  1  0
 25 26  1  0
 28 27  1  0
 29 25  2  0
M  END
$$$$
