LNY.pdb
     RDKit          3D

 29 29  0  0  1  0  0  0  0  0999 V2000
   15.4504  -13.4017  -16.6839 C   0  0  0  0  0  0  0  0  0  0  0  0
   15.4998  -12.1117  -15.9336 C   0  0  2  0  0  0  0  0  0  0  0  0
   15.2551  -10.8949  -16.8109 C   0  0  0  0  0  0  0  0  0  0  0  0
   16.8648  -12.0257  -15.2492 C   0  0  0  0  0  0  0  0  0  0  0  0
   17.4530  -10.6697  -15.6688 C   0  0  2  0  0  0  0  0  0  0  0  0
   18.3288  -10.9796  -16.8005 N   0  0  0  0  0  0  0  0  0  0  0  0
   18.2474  -10.0918  -14.5506 C   0  0  0  0  0  0  0  0  0  0  0  0
   19.3142  -10.6730  -14.2139 O   0  0  0  0  0  0  0  0  0  0  0  0
   21.5295   -7.9540  -11.4848 N   0  0  0  0  0  0  0  0  0  0  0  0
   20.7848   -7.2286  -12.4507 C   0  0  0  0  0  0  0  0  0  0  0  0
   20.8893   -5.9828  -12.4701 O   0  0  0  0  0  0  0  0  0  0  0  0
   19.9195   -7.9350  -13.3942 C   0  0  0  0  0  0  0  0  0  0  0  0
   18.5619   -8.3323  -12.8208 C   0  0  2  0  0  0  0  0  0  0  0  0
   17.7671   -8.9171  -13.9214 N   0  0  0  0  0  0  0  0  0  0  0  0
   17.7710   -7.2193  -12.3027 C   0  0  0  0  0  0  0  0  0  0  0  0
   17.1918   -6.3950  -13.0979 O   0  0  0  0  0  0  0  0  0  0  0  0
   12.6600   -9.8447   -7.9357 O   0  0  0  0  0  0  0  0  0  0  0  0
   13.3439   -8.9276   -8.7202 C   0  0  0  0  0  0  0  0  0  0  0  0
   13.3913   -7.6044   -8.3427 C   0  0  0  0  0  0  0  0  0  0  0  0
   14.0635   -6.6554   -9.0983 C   0  0  0  0  0  0  0  0  0  0  0  0
   14.7198   -6.9869  -10.2679 C   0  0  0  0  0  0  0  0  0  0  0  0
   15.4312   -5.9576  -11.0644 C   0  0  0  0  0  0  0  0  0  0  0  0
   16.8214   -5.7868  -10.4731 C   0  0  2  0  0  0  0  0  0  0  0  0
   17.5827   -6.9725  -10.9164 N   0  0  0  0  0  0  0  0  0  0  0  0
   16.8537   -5.7056   -9.0210 C   0  0  0  0  0  0  0  0  0  0  0  0
   16.1665   -4.7297   -8.3207 O   0  0  0  0  0  0  0  0  0  0  0  0
   14.6645   -8.3298  -10.6392 C   0  0  0  0  0  0  0  0  0  0  0  0
   13.9961   -9.2706   -9.8868 C   0  0  0  0  0  0  0  0  0  0  0  0
   17.5094   -6.5193   -8.3192 O   0  0  0  0  0  0  0  0  0  0  0  0
  2  1  1  6
  2  3  1  0
  4  2  1  0
  5  4  1  0
  5  6  1  6
  7  5  1  0
  8  7  2  0
  9 10  1  0
 10 12  1  0
 10 11  2  0
 13 12  1  6
 13 14  1  0
 14  7  1  0
 15 13  1  0
 15 24  1  0
 16 15  2  0
 17 18  1  0
 18 28  2  0
 19 20  2  0
 19 18  1  0
 20 21  1  0
 21 22  1  0
 21 27  2  0
 23 22  1  1
 23 24  1  0
 23 25  1  0
 25 26  1  0
 28 27  1  0
 29 25  2  0
M  END
$$$$
