LNY.pdb
     RDKit          3D

 29 29  0  0  1  0  0  0  0  0999 V2000
   27.5757  -14.9331  -15.4947 C   0  0  0  0  0  0  0  0  0  0  0  0
   26.8813  -15.1076  -16.8050 C   0  0  2  0  0  0  0  0  0  0  0  0
   25.8699  -14.0125  -17.1013 C   0  0  0  0  0  0  0  0  0  0  0  0
   26.2103  -16.4820  -16.7945 C   0  0  0  0  0  0  0  0  0  0  0  0
   26.6389  -17.1614  -18.1043 C   0  0  2  0  0  0  0  0  0  0  0  0
   25.6038  -16.7897  -19.0708 N   0  0  0  0  0  0  0  0  0  0  0  0
   26.6654  -18.6388  -17.9261 C   0  0  0  0  0  0  0  0  0  0  0  0
   25.5671  -19.2574  -17.9085 O   0  0  0  0  0  0  0  0  0  0  0  0
   28.5128  -23.4729  -17.2728 N   0  0  0  0  0  0  0  0  0  0  0  0
   29.5791  -22.6508  -17.7209 C   0  0  0  0  0  0  0  0  0  0  0  0
   30.6872  -23.1840  -17.9471 O   0  0  0  0  0  0  0  0  0  0  0  0
   29.3721  -21.2156  -17.9087 C   0  0  0  0  0  0  0  0  0  0  0  0
   27.9516  -20.7442  -17.6099 C   0  0  2  0  0  0  0  0  0  0  0  0
   27.9223  -19.2769  -17.7870 N   0  0  0  0  0  0  0  0  0  0  0  0
   27.5035  -20.9919  -16.2422 C   0  0  0  0  0  0  0  0  0  0  0  0
   28.1269  -20.4845  -15.2415 O   0  0  0  0  0  0  0  0  0  0  0  0
   23.3431  -21.1201   -8.8106 O   0  0  0  0  0  0  0  0  0  0  0  0
   23.9107  -20.9964  -10.0703 C   0  0  0  0  0  0  0  0  0  0  0  0
   25.2796  -20.9286  -10.2008 C   0  0  0  0  0  0  0  0  0  0  0  0
   25.8873  -20.8042  -11.4412 C   0  0  0  0  0  0  0  0  0  0  0  0
   25.1527  -20.7419  -12.6095 C   0  0  0  0  0  0  0  0  0  0  0  0
   25.8202  -20.6061  -13.9270 C   0  0  0  0  0  0  0  0  0  0  0  0
   25.9908  -21.9996  -14.5108 C   0  0  2  0  0  0  0  0  0  0  0  0
   26.3711  -21.7878  -15.9224 N   0  0  0  0  0  0  0  0  0  0  0  0
   24.7975  -22.8295  -14.4499 C   0  0  0  0  0  0  0  0  0  0  0  0
   23.9399  -22.9696  -15.5269 O   0  0  0  0  0  0  0  0  0  0  0  0
   23.7676  -20.8118  -12.4639 C   0  0  0  0  0  0  0  0  0  0  0  0
   23.1663  -20.9353  -11.2305 C   0  0  0  0  0  0  0  0  0  0  0  0
   24.4777  -23.4675  -13.4129 O   0  0  0  0  0  0  0  0  0  0  0  0
  2  1  1  1
  2  3  1  0
  4  2  1  0
  5  4  1  0
  5  6  1  6
  7  5  1  0
  8  7  2  0
  9 10  1  0
 10 12  1  0
 10 11  2  0
 13 12  1  1
 13 14  1  0
 14  7  1  0
 15 13  1  0
 15 24  1  0
 16 15  2  0
 17 18  1  0
 18 28  2  0
 19 20  2  0
 19 18  1  0
 20 21  1  0
 21 22  1  0
 21 27  2  0
 23 22  1  6
 23 24  1  0
 23 25  1  0
 25 26  1  0
 28 27  1  0
 29 25  2  0
M  END
$$$$
