KIF.pdb
     RDKit          3D

 29 29  0  0  1  0  0  0  0  0999 V2000
    8.8733  -15.7633   19.3876 N   0  0  0  0  0  0  0  0  0  0  0  0
    8.1278  -16.3467   20.4775 C   0  0  1  0  0  0  0  0  0  0  0  0
    8.3036  -17.8021   20.6270 C   0  0  0  0  0  0  0  0  0  0  0  0
    8.0204  -18.7151   19.5240 C   0  0  0  0  0  0  0  0  0  0  0  0
    6.8624  -19.6092   19.5020 C   0  0  0  0  0  0  0  0  0  0  0  0
    7.0097  -21.0407   19.8520 C   0  0  0  0  0  0  0  0  0  0  0  0
    5.9880  -21.3014   20.9127 N   0  0  0  0  0  0  0  0  0  0  0  0
    8.6549  -15.6747   21.7258 C   0  0  0  0  0  0  0  0  0  0  0  0
    9.8751  -15.3804   21.7324 O   0  0  0  0  0  0  0  0  0  0  0  0
    5.4793  -12.3827   24.8146 C   0  0  0  0  0  0  0  0  0  0  0  0
    6.6781  -12.9426   24.1557 C   0  0  0  0  0  0  0  0  0  0  0  0
    7.3962  -14.0593   24.7551 C   0  0  2  0  0  0  0  0  0  0  0  0
    7.8549  -13.6526   26.1712 C   0  0  0  0  0  0  0  0  0  0  0  0
    8.5049  -14.7232   24.0200 C   0  0  2  0  0  0  0  0  0  0  0  0
    7.8634  -15.3833   22.8237 N   0  0  0  0  0  0  0  0  0  0  0  0
    9.1844  -15.7747   24.7767 C   0  0  0  0  0  0  0  0  0  0  0  0
    8.7179  -16.9838   24.7398 O   0  0  0  0  0  0  0  0  0  0  0  0
   10.3569  -15.6424   25.5756 N   0  0  0  0  0  0  0  0  0  0  0  0
   11.0557  -16.8236   26.0674 C   0  0  1  0  0  0  0  0  0  0  0  0
   12.1443  -16.3762   27.0649 C   0  0  0  0  0  0  0  0  0  0  0  0
   11.5281  -15.6084   28.1776 C   0  0  0  0  0  0  0  0  0  0  0  0
   11.4304  -16.2460   29.4024 C   0  0  0  0  0  0  0  0  0  0  0  0
   10.8768  -15.6222   30.4895 C   0  0  0  0  0  0  0  0  0  0  0  0
   10.4189  -14.3458   30.3380 C   0  0  0  0  0  0  0  0  0  0  0  0
   10.5008  -13.6775   29.1265 C   0  0  0  0  0  0  0  0  0  0  0  0
   11.0648  -14.3308   28.0437 C   0  0  0  0  0  0  0  0  0  0  0  0
   10.1724  -17.7045   26.7963 C   0  0  0  0  0  0  0  0  0  0  0  0
   10.5919  -18.8377   27.1634 O   0  0  0  0  0  0  0  0  0  0  0  0
    8.8858  -17.3723   27.1180 O   0  0  0  0  0  0  0  0  0  0  0  0
  2  3  1  0
  2  1  1  6
  3  4  1  0
  4  5  1  0
  5  6  1  0
  6  7  1  0
  8  2  1  0
  9  8  2  0
 11 10  1  0
 12 11  1  0
 12 14  1  0
 12 13  1  1
 14 15  1  6
 15  8  1  0
 16 14  1  0
 16 17  2  0
 18 16  1  0
 19 20  1  1
 19 18  1  0
 20 21  1  0
 21 26  2  0
 21 22  1  0
 22 23  2  0
 23 24  1  0
 25 24  2  0
 26 25  1  0
 27 19  1  0
 28 27  2  0
 29 27  1  0
M  END
$$$$
