KIF.pdb
     RDKit          3D

 29 29  0  0  1  0  0  0  0  0999 V2000
    8.4044  -15.0453   19.3956 N   0  0  0  0  0  0  0  0  0  0  0  0
    7.8315  -15.8432   20.4535 C   0  0  1  0  0  0  0  0  0  0  0  0
    8.1583  -17.2782   20.3809 C   0  0  0  0  0  0  0  0  0  0  0  0
    7.3653  -18.1939   19.5667 C   0  0  0  0  0  0  0  0  0  0  0  0
    5.9917  -18.5743   19.8972 C   0  0  0  0  0  0  0  0  0  0  0  0
    5.2488  -19.5296   19.0435 C   0  0  0  0  0  0  0  0  0  0  0  0
    4.8754  -20.6648   19.9429 N   0  0  0  0  0  0  0  0  0  0  0  0
    8.4163  -15.2878   21.7330 C   0  0  0  0  0  0  0  0  0  0  0  0
    9.6385  -15.0021   21.7141 O   0  0  0  0  0  0  0  0  0  0  0  0
    5.5013  -12.1454   25.1725 C   0  0  0  0  0  0  0  0  0  0  0  0
    6.6623  -12.7043   24.4485 C   0  0  0  0  0  0  0  0  0  0  0  0
    7.3223  -13.9102   24.9304 C   0  0  2  0  0  0  0  0  0  0  0  0
    7.8288  -13.6595   26.3664 C   0  0  0  0  0  0  0  0  0  0  0  0
    8.3765  -14.5689   24.1148 C   0  0  2  0  0  0  0  0  0  0  0  0
    7.6740  -15.0908   22.8849 N   0  0  0  0  0  0  0  0  0  0  0  0
    9.0119  -15.7152   24.7644 C   0  0  0  0  0  0  0  0  0  0  0  0
    8.5100  -16.8984   24.5939 O   0  0  0  0  0  0  0  0  0  0  0  0
   10.1751  -15.7050   25.5876 N   0  0  0  0  0  0  0  0  0  0  0  0
   10.8279  -16.9531   25.9635 C   0  0  1  0  0  0  0  0  0  0  0  0
   12.0230  -16.6299   26.8842 C   0  0  0  0  0  0  0  0  0  0  0  0
   11.5557  -15.8759   28.0760 C   0  0  0  0  0  0  0  0  0  0  0  0
   11.2769  -14.5316   27.8993 C   0  0  0  0  0  0  0  0  0  0  0  0
   10.8413  -13.7506   28.9375 C   0  0  0  0  0  0  0  0  0  0  0  0
   10.6864  -14.3320   30.1623 C   0  0  0  0  0  0  0  0  0  0  0  0
   10.9562  -15.6748   30.3747 C   0  0  0  0  0  0  0  0  0  0  0  0
   11.3952  -16.4414   29.3086 C   0  0  0  0  0  0  0  0  0  0  0  0
    9.9481  -17.8107   26.7237 C   0  0  0  0  0  0  0  0  0  0  0  0
    8.8154  -17.3788   27.0778 O   0  0  0  0  0  0  0  0  0  0  0  0
   10.2791  -19.0869   27.0854 O   0  0  0  0  0  0  0  0  0  0  0  0
  2  3  1  0
  2  1  1  6
  3  4  1  0
  4  5  1  0
  5  6  1  0
  6  7  1  0
  8  2  1  0
  9  8  2  0
 11 10  1  0
 12 11  1  0
 12 14  1  0
 12 13  1  1
 14 15  1  6
 15  8  1  0
 16 14  1  0
 16 17  2  0
 18 16  1  0
 19 20  1  1
 19 18  1  0
 20 21  1  0
 21 26  2  0
 21 22  1  0
 22 23  2  0
 23 24  1  0
 25 24  2  0
 26 25  1  0
 27 19  1  0
 28 27  2  0
 29 27  1  0
M  END
$$$$
