KIF.pdb
     RDKit          3D

 29 29  0  0  1  0  0  0  0  0999 V2000
    6.5046  -19.1617   19.3567 N   0  0  0  0  0  0  0  0  0  0  0  0
    5.8297  -18.1807   20.1729 C   0  0  1  0  0  0  0  0  0  0  0  0
    5.0347  -18.7477   21.2765 C   0  0  0  0  0  0  0  0  0  0  0  0
    3.8411  -19.5463   21.0158 C   0  0  0  0  0  0  0  0  0  0  0  0
    2.5543  -18.9624   20.6362 C   0  0  0  0  0  0  0  0  0  0  0  0
    1.3944  -19.8308   20.3300 C   0  0  0  0  0  0  0  0  0  0  0  0
    1.1935  -20.6757   21.5477 N   0  0  0  0  0  0  0  0  0  0  0  0
    6.9310  -17.3324   20.7689 C   0  0  0  0  0  0  0  0  0  0  0  0
    8.0715  -17.8533   20.8278 O   0  0  0  0  0  0  0  0  0  0  0  0
    7.3908  -12.0803   19.7423 C   0  0  0  0  0  0  0  0  0  0  0  0
    7.7423  -13.4667   20.1148 C   0  0  0  0  0  0  0  0  0  0  0  0
    7.7136  -13.8862   21.5095 C   0  0  2  0  0  0  0  0  0  0  0  0
    8.6894  -13.0024   22.3146 C   0  0  0  0  0  0  0  0  0  0  0  0
    7.8913  -15.3178   21.8692 C   0  0  2  0  0  0  0  0  0  0  0  0
    6.7298  -16.0446   21.2357 N   0  0  0  0  0  0  0  0  0  0  0  0
    7.8350  -15.5893   23.3054 C   0  0  0  0  0  0  0  0  0  0  0  0
    6.6930  -15.8653   23.8536 O   0  0  0  0  0  0  0  0  0  0  0  0
    8.9246  -15.6062   24.2237 N   0  0  0  0  0  0  0  0  0  0  0  0
    8.7150  -15.9861   25.6154 C   0  0  1  0  0  0  0  0  0  0  0  0
    7.2997  -15.5445   26.0423 C   0  0  0  0  0  0  0  0  0  0  0  0
    7.2826  -14.0825   26.3063 C   0  0  0  0  0  0  0  0  0  0  0  0
    8.4517  -13.5167   26.7849 C   0  0  0  0  0  0  0  0  0  0  0  0
    8.5358  -12.1771   27.0599 C   0  0  0  0  0  0  0  0  0  0  0  0
    7.4312  -11.4040   26.8499 C   0  0  0  0  0  0  0  0  0  0  0  0
    6.2446  -11.9372   26.3717 C   0  0  0  0  0  0  0  0  0  0  0  0
    6.1864  -13.2940   26.1019 C   0  0  0  0  0  0  0  0  0  0  0  0
    8.7657  -17.4190   25.7937 C   0  0  0  0  0  0  0  0  0  0  0  0
    8.6333  -17.9045   26.9520 O   0  0  0  0  0  0  0  0  0  0  0  0
    8.9502  -18.2937   24.7592 O   0  0  0  0  0  0  0  0  0  0  0  0
  2  3  1  0
  2  1  1  1
  3  4  1  0
  4  5  1  0
  5  6  1  0
  6  7  1  0
  8  2  1  0
  9  8  2  0
 11 10  1  0
 12 11  1  0
 12 14  1  0
 12 13  1  1
 14 15  1  6
 15  8  1  0
 16 14  1  0
 16 17  2  0
 18 16  1  0
 19 20  1  6
 19 18  1  0
 20 21  1  0
 21 26  2  0
 21 22  1  0
 22 23  2  0
 23 24  1  0
 25 24  2  0
 26 25  1  0
 27 19  1  0
 28 27  2  0
 29 27  1  0
M  END
$$$$
