KIF.pdb
     RDKit          3D

 29 29  0  0  1  0  0  0  0  0999 V2000
    7.9397  -13.8760   19.4573 N   0  0  0  0  0  0  0  0  0  0  0  0
    7.4108  -14.8225   20.4103 C   0  0  1  0  0  0  0  0  0  0  0  0
    7.7017  -16.2325   20.0959 C   0  0  0  0  0  0  0  0  0  0  0  0
    7.4366  -16.7816   18.7697 C   0  0  0  0  0  0  0  0  0  0  0  0
    7.4744  -18.2140   18.4742 C   0  0  0  0  0  0  0  0  0  0  0  0
    7.3297  -18.6998   17.0826 C   0  0  0  0  0  0  0  0  0  0  0  0
    7.3889  -20.1916   17.1703 N   0  0  0  0  0  0  0  0  0  0  0  0
    8.0793  -14.4819   21.7236 C   0  0  0  0  0  0  0  0  0  0  0  0
    9.2598  -14.0600   21.6599 O   0  0  0  0  0  0  0  0  0  0  0  0
    5.4655  -11.8369   25.6149 C   0  0  0  0  0  0  0  0  0  0  0  0
    6.5624  -12.3632   24.7757 C   0  0  0  0  0  0  0  0  0  0  0  0
    7.2076  -13.6255   25.1105 C   0  0  2  0  0  0  0  0  0  0  0  0
    7.7707  -13.5310   26.5441 C   0  0  0  0  0  0  0  0  0  0  0  0
    8.2151  -14.2226   24.1946 C   0  0  2  0  0  0  0  0  0  0  0  0
    7.4540  -14.6153   22.9515 N   0  0  0  0  0  0  0  0  0  0  0  0
    8.8520  -15.4351   24.7082 C   0  0  0  0  0  0  0  0  0  0  0  0
    8.3329  -16.5900   24.4296 O   0  0  0  0  0  0  0  0  0  0  0  0
   10.0337  -15.5198   25.5001 N   0  0  0  0  0  0  0  0  0  0  0  0
   10.7056  -16.7989   25.6943 C   0  0  1  0  0  0  0  0  0  0  0  0
   11.9290  -16.5825   26.6090 C   0  0  0  0  0  0  0  0  0  0  0  0
   11.4996  -15.9766   27.8957 C   0  0  0  0  0  0  0  0  0  0  0  0
   11.1974  -14.6258   27.8843 C   0  0  0  0  0  0  0  0  0  0  0  0
   10.7931  -13.9753   29.0204 C   0  0  0  0  0  0  0  0  0  0  0  0
   10.6937  -14.6944   30.1757 C   0  0  0  0  0  0  0  0  0  0  0  0
   10.9883  -16.0479   30.2233 C   0  0  0  0  0  0  0  0  0  0  0  0
   11.3946  -16.6811   29.0609 C   0  0  0  0  0  0  0  0  0  0  0  0
    9.8564  -17.7537   26.3688 C   0  0  0  0  0  0  0  0  0  0  0  0
    8.7368  -17.3789   26.8173 O   0  0  0  0  0  0  0  0  0  0  0  0
   10.2031  -19.0637   26.5496 O   0  0  0  0  0  0  0  0  0  0  0  0
  2  3  1  0
  2  1  1  6
  3  4  1  0
  4  5  1  0
  5  6  1  0
  6  7  1  0
  8  2  1  0
  9  8  2  0
 11 10  1  0
 12 11  1  0
 12 14  1  0
 12 13  1  1
 14 15  1  6
 15  8  1  0
 16 14  1  0
 16 17  2  0
 18 16  1  0
 19 20  1  1
 19 18  1  0
 20 21  1  0
 21 26  2  0
 21 22  1  0
 22 23  2  0
 23 24  1  0
 25 24  2  0
 26 25  1  0
 27 19  1  0
 28 27  2  0
 29 27  1  0
M  END
$$$$
