KIF.pdb
     RDKit          3D

 29 29  0  0  1  0  0  0  0  0999 V2000
    8.1590  -17.7317   18.0468 N   0  0  0  0  0  0  0  0  0  0  0  0
    9.1647  -16.9309   18.7034 C   0  0  1  0  0  0  0  0  0  0  0  0
    8.9264  -15.4781   18.6384 C   0  0  0  0  0  0  0  0  0  0  0  0
    8.6786  -14.8089   17.3652 C   0  0  0  0  0  0  0  0  0  0  0  0
    8.3353  -13.3905   17.2598 C   0  0  0  0  0  0  0  0  0  0  0  0
    8.0071  -12.7909   15.9460 C   0  0  0  0  0  0  0  0  0  0  0  0
    8.5035  -13.7648   14.9253 N   0  0  0  0  0  0  0  0  0  0  0  0
    9.1256  -17.3533   20.1552 C   0  0  0  0  0  0  0  0  0  0  0  0
    8.0150  -17.7338   20.5995 O   0  0  0  0  0  0  0  0  0  0  0  0
   13.1320  -20.3067   21.9805 C   0  0  0  0  0  0  0  0  0  0  0  0
   11.7615  -19.7612   21.8883 C   0  0  0  0  0  0  0  0  0  0  0  0
   11.3804  -18.5874   22.6622 C   0  0  2  0  0  0  0  0  0  0  0  0
   11.4932  -18.9241   24.1640 C   0  0  0  0  0  0  0  0  0  0  0  0
   10.1014  -17.8831   22.3820 C   0  0  2  0  0  0  0  0  0  0  0  0
   10.2360  -17.3350   20.9820 N   0  0  0  0  0  0  0  0  0  0  0  0
    9.8340  -16.7468   23.2634 C   0  0  0  0  0  0  0  0  0  0  0  0
   10.7360  -15.8257   23.4007 O   0  0  0  0  0  0  0  0  0  0  0  0
    8.6496  -16.4985   24.0160 N   0  0  0  0  0  0  0  0  0  0  0  0
    8.5888  -15.3864   24.9566 C   0  0  1  0  0  0  0  0  0  0  0  0
    7.2238  -14.6834   24.8056 C   0  0  0  0  0  0  0  0  0  0  0  0
    7.0753  -13.6346   25.8473 C   0  0  0  0  0  0  0  0  0  0  0  0
    7.8013  -12.4690   25.6733 C   0  0  0  0  0  0  0  0  0  0  0  0
    7.7327  -11.4434   26.5794 C   0  0  0  0  0  0  0  0  0  0  0  0
    6.9253  -11.5968   27.6686 C   0  0  0  0  0  0  0  0  0  0  0  0
    6.1846  -12.7502   27.8743 C   0  0  0  0  0  0  0  0  0  0  0  0
    6.2721  -13.7713   26.9433 C   0  0  0  0  0  0  0  0  0  0  0  0
    8.6650  -15.8383   26.3269 C   0  0  0  0  0  0  0  0  0  0  0  0
    8.0832  -16.9086   26.6597 O   0  0  0  0  0  0  0  0  0  0  0  0
    9.3459  -15.1603   27.2994 O   0  0  0  0  0  0  0  0  0  0  0  0
  2  3  1  0
  2  1  1  6
  3  4  1  0
  4  5  1  0
  5  6  1  0
  6  7  1  0
  8  2  1  0
  9  8  2  0
 11 10  1  0
 12 11  1  0
 12 14  1  0
 12 13  1  1
 14 15  1  6
 15  8  1  0
 16 14  1  0
 16 17  2  0
 18 16  1  0
 19 20  1  1
 19 18  1  0
 20 21  1  0
 21 26  2  0
 21 22  1  0
 22 23  2  0
 23 24  1  0
 25 24  2  0
 26 25  1  0
 27 19  1  0
 28 27  2  0
 29 27  1  0
M  END
$$$$
