KIF.pdb
     RDKit          3D

 29 29  0  0  1  0  0  0  0  0999 V2000
    9.5365  -18.6797   17.9433 N   0  0  0  0  0  0  0  0  0  0  0  0
    8.9005  -18.6592   19.2391 C   0  0  1  0  0  0  0  0  0  0  0  0
    9.2694  -19.7832   20.1178 C   0  0  0  0  0  0  0  0  0  0  0  0
    8.8211  -21.1431   19.8344 C   0  0  0  0  0  0  0  0  0  0  0  0
    7.6214  -21.4440   19.0528 C   0  0  0  0  0  0  0  0  0  0  0  0
    7.2328  -22.8468   18.7799 C   0  0  0  0  0  0  0  0  0  0  0  0
    7.0172  -23.4714   20.1216 N   0  0  0  0  0  0  0  0  0  0  0  0
    9.3646  -17.3757   19.8908 C   0  0  0  0  0  0  0  0  0  0  0  0
   10.5244  -16.9890   19.6063 O   0  0  0  0  0  0  0  0  0  0  0  0
    6.6297  -12.8377   19.9273 C   0  0  0  0  0  0  0  0  0  0  0  0
    7.7473  -13.7997   20.0274 C   0  0  0  0  0  0  0  0  0  0  0  0
    8.1247  -14.3614   21.3173 C   0  0  2  0  0  0  0  0  0  0  0  0
    8.4340  -13.2053   22.2916 C   0  0  0  0  0  0  0  0  0  0  0  0
    9.1755  -15.4095   21.4040 C   0  0  2  0  0  0  0  0  0  0  0  0
    8.5798  -16.6384   20.7610 N   0  0  0  0  0  0  0  0  0  0  0  0
    9.5473  -15.7780   22.7699 C   0  0  0  0  0  0  0  0  0  0  0  0
    8.7126  -16.4584   23.4919 O   0  0  0  0  0  0  0  0  0  0  0  0
   10.7711  -15.4869   23.4394 N   0  0  0  0  0  0  0  0  0  0  0  0
   10.8322  -15.4655   24.8958 C   0  0  1  0  0  0  0  0  0  0  0  0
    9.4532  -15.0435   25.4439 C   0  0  0  0  0  0  0  0  0  0  0  0
    9.5164  -14.9012   26.9214 C   0  0  0  0  0  0  0  0  0  0  0  0
    9.6242  -13.6163   27.4248 C   0  0  0  0  0  0  0  0  0  0  0  0
    9.6903  -13.3812   28.7730 C   0  0  0  0  0  0  0  0  0  0  0  0
    9.6471  -14.4515   29.6182 C   0  0  0  0  0  0  0  0  0  0  0  0
    9.5395  -15.7512   29.1487 C   0  0  0  0  0  0  0  0  0  0  0  0
    9.4746  -15.9610   27.7816 C   0  0  0  0  0  0  0  0  0  0  0  0
   11.1035  -16.7760   25.4404 C   0  0  0  0  0  0  0  0  0  0  0  0
   10.1403  -17.5069   25.8052 O   0  0  0  0  0  0  0  0  0  0  0  0
   12.3671  -17.2780   25.5830 O   0  0  0  0  0  0  0  0  0  0  0  0
  2  3  1  0
  2  1  1  6
  3  4  1  0
  4  5  1  0
  5  6  1  0
  6  7  1  0
  8  2  1  0
  9  8  2  0
 11 10  1  0
 12 11  1  0
 12 14  1  0
 12 13  1  1
 14 15  1  1
 15  8  1  0
 16 14  1  0
 16 17  2  0
 18 16  1  0
 19 20  1  1
 19 18  1  0
 20 21  1  0
 21 26  2  0
 21 22  1  0
 22 23  2  0
 23 24  1  0
 25 24  2  0
 26 25  1  0
 27 19  1  0
 28 27  2  0
 29 27  1  0
M  END
$$$$
