KIF.pdb
     RDKit          3D

 29 29  0  0  1  0  0  0  0  0999 V2000
    6.7468  -16.3803   20.7090 N   0  0  0  0  0  0  0  0  0  0  0  0
    7.8822  -15.6026   21.1446 C   0  0  1  0  0  0  0  0  0  0  0  0
    7.5992  -14.1709   21.3489 C   0  0  0  0  0  0  0  0  0  0  0  0
    7.4235  -13.2661   20.2171 C   0  0  0  0  0  0  0  0  0  0  0  0
    8.2186  -13.3527   18.9920 C   0  0  0  0  0  0  0  0  0  0  0  0
    8.0184  -12.3791   17.8941 C   0  0  0  0  0  0  0  0  0  0  0  0
    8.9355  -12.8176   16.7970 N   0  0  0  0  0  0  0  0  0  0  0  0
    8.2883  -16.1999   22.4735 C   0  0  0  0  0  0  0  0  0  0  0  0
    7.3791  -16.7457   23.1451 O   0  0  0  0  0  0  0  0  0  0  0  0
   12.2711  -19.4707   22.2605 C   0  0  0  0  0  0  0  0  0  0  0  0
   11.0500  -18.7842   22.7317 C   0  0  0  0  0  0  0  0  0  0  0  0
   11.1254  -17.7883   23.7921 C   0  0  2  0  0  0  0  0  0  0  0  0
   11.7586  -18.4383   25.0403 C   0  0  0  0  0  0  0  0  0  0  0  0
    9.9241  -16.9982   24.1701 C   0  0  2  0  0  0  0  0  0  0  0  0
    9.5851  -16.1659   22.9573 N   0  0  0  0  0  0  0  0  0  0  0  0
   10.1385  -16.0704   25.2805 C   0  0  0  0  0  0  0  0  0  0  0  0
   11.0275  -15.1343   25.1610 O   0  0  0  0  0  0  0  0  0  0  0  0
    9.4557  -16.0488   26.5311 N   0  0  0  0  0  0  0  0  0  0  0  0
    9.9552  -15.2373   27.6342 C   0  0  1  0  0  0  0  0  0  0  0  0
    8.7624  -14.5266   28.3068 C   0  0  0  0  0  0  0  0  0  0  0  0
    8.0913  -13.6289   27.3316 C   0  0  0  0  0  0  0  0  0  0  0  0
    6.9648  -14.1218   26.6959 C   0  0  0  0  0  0  0  0  0  0  0  0
    6.2765  -13.3710   25.7794 C   0  0  0  0  0  0  0  0  0  0  0  0
    6.7294  -12.1138   25.5035 C   0  0  0  0  0  0  0  0  0  0  0  0
    7.8536  -11.5887   26.1212 C   0  0  0  0  0  0  0  0  0  0  0  0
    8.5308  -12.3684   27.0434 C   0  0  0  0  0  0  0  0  0  0  0  0
   10.5766  -16.0468   28.6571 C   0  0  0  0  0  0  0  0  0  0  0  0
   11.0886  -15.4853   29.6657 O   0  0  0  0  0  0  0  0  0  0  0  0
   10.6398  -17.4110   28.5931 O   0  0  0  0  0  0  0  0  0  0  0  0
  2  3  1  0
  2  1  1  1
  3  4  1  0
  4  5  1  0
  5  6  1  0
  6  7  1  0
  8  2  1  0
  9  8  2  0
 11 10  1  0
 12 11  1  0
 12 14  1  0
 12 13  1  1
 14 15  1  6
 15  8  1  0
 16 14  1  0
 16 17  2  0
 18 16  1  0
 19 20  1  1
 19 18  1  0
 20 21  1  0
 21 26  2  0
 21 22  1  0
 22 23  2  0
 23 24  1  0
 25 24  2  0
 26 25  1  0
 27 19  1  0
 28 27  2  0
 29 27  1  0
M  END
$$$$
