KIF.pdb
     RDKit          3D

 29 29  0  0  1  0  0  0  0  0999 V2000
   11.2400  -18.1872   18.3257 N   0  0  0  0  0  0  0  0  0  0  0  0
   10.1213  -18.2849   19.2329 C   0  0  1  0  0  0  0  0  0  0  0  0
   10.1668  -19.4494   20.1346 C   0  0  0  0  0  0  0  0  0  0  0  0
   10.3050  -20.8053   19.6122 C   0  0  0  0  0  0  0  0  0  0  0  0
    9.1961  -21.7581   19.5551 C   0  0  0  0  0  0  0  0  0  0  0  0
    9.4207  -23.1483   19.0965 C   0  0  0  0  0  0  0  0  0  0  0  0
    9.1925  -24.0089   20.2982 N   0  0  0  0  0  0  0  0  0  0  0  0
   10.1804  -17.0302   20.0753 C   0  0  0  0  0  0  0  0  0  0  0  0
   11.3183  -16.5363   20.2680 O   0  0  0  0  0  0  0  0  0  0  0  0
    6.7261  -12.9855   19.3004 C   0  0  0  0  0  0  0  0  0  0  0  0
    7.9592  -13.6906   19.7088 C   0  0  0  0  0  0  0  0  0  0  0  0
    8.0589  -14.2993   21.0285 C   0  0  2  0  0  0  0  0  0  0  0  0
    7.8298  -13.2097   22.0970 C   0  0  0  0  0  0  0  0  0  0  0  0
    9.2341  -15.1375   21.3844 C   0  0  2  0  0  0  0  0  0  0  0  0
    9.0598  -16.4288   20.6224 N   0  0  0  0  0  0  0  0  0  0  0  0
    9.3186  -15.4848   22.8028 C   0  0  0  0  0  0  0  0  0  0  0  0
    8.4740  -16.3346   23.2982 O   0  0  0  0  0  0  0  0  0  0  0  0
   10.2618  -15.0007   23.7550 N   0  0  0  0  0  0  0  0  0  0  0  0
   10.1488  -15.3661   25.1618 C   0  0  1  0  0  0  0  0  0  0  0  0
   11.0161  -14.4007   25.9961 C   0  0  0  0  0  0  0  0  0  0  0  0
   10.8612  -14.7011   27.4428 C   0  0  0  0  0  0  0  0  0  0  0  0
   11.3986  -15.8927   27.8981 C   0  0  0  0  0  0  0  0  0  0  0  0
   11.3066  -16.2601   29.2149 C   0  0  0  0  0  0  0  0  0  0  0  0
   10.6674  -15.4178   30.0774 C   0  0  0  0  0  0  0  0  0  0  0  0
   10.1178  -14.2172   29.6558 C   0  0  0  0  0  0  0  0  0  0  0  0
   10.2247  -13.8699   28.3197 C   0  0  0  0  0  0  0  0  0  0  0  0
    8.7955  -15.2205   25.6466 C   0  0  0  0  0  0  0  0  0  0  0  0
    8.1268  -14.2001   25.3202 O   0  0  0  0  0  0  0  0  0  0  0  0
    8.1878  -16.1435   26.4515 O   0  0  0  0  0  0  0  0  0  0  0  0
  2  3  1  0
  2  1  1  6
  3  4  1  0
  4  5  1  0
  5  6  1  0
  6  7  1  0
  8  2  1  0
  9  8  2  0
 11 10  1  0
 12 11  1  0
 12 14  1  0
 12 13  1  1
 14 15  1  6
 15  8  1  0
 16 14  1  0
 16 17  2  0
 18 16  1  0
 19 20  1  1
 19 18  1  0
 20 21  1  0
 21 26  2  0
 21 22  1  0
 22 23  2  0
 23 24  1  0
 25 24  2  0
 26 25  1  0
 27 19  1  0
 28 27  2  0
 29 27  1  0
M  END
$$$$
