KIF.pdb
     RDKit          3D

 29 29  0  0  1  0  0  0  0  0999 V2000
    8.1250  -15.1088   19.5388 N   0  0  0  0  0  0  0  0  0  0  0  0
    7.6500  -15.9556   20.6071 C   0  0  1  0  0  0  0  0  0  0  0  0
    7.9925  -17.3807   20.4545 C   0  0  0  0  0  0  0  0  0  0  0  0
    7.6912  -18.1029   19.2224 C   0  0  0  0  0  0  0  0  0  0  0  0
    6.8037  -19.2651   19.1724 C   0  0  0  0  0  0  0  0  0  0  0  0
    6.4825  -19.9120   17.8794 C   0  0  0  0  0  0  0  0  0  0  0  0
    5.5781  -21.0545   18.2163 N   0  0  0  0  0  0  0  0  0  0  0  0
    8.3252  -15.4369   21.8572 C   0  0  0  0  0  0  0  0  0  0  0  0
    9.5375  -15.1279   21.7536 O   0  0  0  0  0  0  0  0  0  0  0  0
    5.5752  -12.3633   25.4156 C   0  0  0  0  0  0  0  0  0  0  0  0
    6.6854  -12.9275   24.6196 C   0  0  0  0  0  0  0  0  0  0  0  0
    7.4354  -14.0763   25.1092 C   0  0  2  0  0  0  0  0  0  0  0  0
    8.0501  -13.7213   26.4794 C   0  0  0  0  0  0  0  0  0  0  0  0
    8.4445  -14.7416   24.2434 C   0  0  2  0  0  0  0  0  0  0  0  0
    7.6731  -15.2963   23.0704 N   0  0  0  0  0  0  0  0  0  0  0  0
    9.1318  -15.8675   24.8755 C   0  0  0  0  0  0  0  0  0  0  0  0
    8.6496  -17.0629   24.7362 O   0  0  0  0  0  0  0  0  0  0  0  0
   10.3277  -15.8241   25.6491 N   0  0  0  0  0  0  0  0  0  0  0  0
   10.9441  -17.0544   26.1303 C   0  0  1  0  0  0  0  0  0  0  0  0
   12.1654  -16.6901   26.9998 C   0  0  0  0  0  0  0  0  0  0  0  0
   11.7746  -15.6954   28.0319 C   0  0  0  0  0  0  0  0  0  0  0  0
   11.6198  -16.1608   29.3263 C   0  0  0  0  0  0  0  0  0  0  0  0
   11.2604  -15.3217   30.3482 C   0  0  0  0  0  0  0  0  0  0  0  0
   11.0560  -14.0037   30.0602 C   0  0  0  0  0  0  0  0  0  0  0  0
   11.2021  -13.5038   28.7757 C   0  0  0  0  0  0  0  0  0  0  0  0
   11.5660  -14.3731   27.7614 C   0  0  0  0  0  0  0  0  0  0  0  0
   10.0490  -17.8061   26.9795 C   0  0  0  0  0  0  0  0  0  0  0  0
    8.9579  -17.2854   27.3446 O   0  0  0  0  0  0  0  0  0  0  0  0
   10.3218  -19.0728   27.4155 O   0  0  0  0  0  0  0  0  0  0  0  0
  2  3  1  0
  2  1  1  6
  3  4  1  0
  4  5  1  0
  5  6  1  0
  6  7  1  0
  8  2  1  0
  9  8  2  0
 11 10  1  0
 12 11  1  0
 12 14  1  0
 12 13  1  1
 14 15  1  6
 15  8  1  0
 16 14  1  0
 16 17  2  0
 18 16  1  0
 19 20  1  1
 19 18  1  0
 20 21  1  0
 21 26  2  0
 21 22  1  0
 22 23  2  0
 23 24  1  0
 25 24  2  0
 26 25  1  0
 27 19  1  0
 28 27  2  0
 29 27  1  0
M  END
$$$$
