KIF.pdb
     RDKit          3D

 29 29  0  0  1  0  0  0  0  0999 V2000
   10.9483  -18.1926   18.8583 N   0  0  0  0  0  0  0  0  0  0  0  0
    9.6994  -18.0900   19.5751 C   0  0  1  0  0  0  0  0  0  0  0  0
    9.3786  -19.2591   20.4127 C   0  0  0  0  0  0  0  0  0  0  0  0
    8.9184  -20.5108   19.8193 C   0  0  0  0  0  0  0  0  0  0  0  0
    9.2747  -20.9331   18.4646 C   0  0  0  0  0  0  0  0  0  0  0  0
    8.8703  -22.2656   17.9604 C   0  0  0  0  0  0  0  0  0  0  0  0
    9.4831  -22.3831   16.6012 N   0  0  0  0  0  0  0  0  0  0  0  0
    9.8564  -16.8876   20.4792 C   0  0  0  0  0  0  0  0  0  0  0  0
   11.0243  -16.6091   20.8454 O   0  0  0  0  0  0  0  0  0  0  0  0
    7.5167  -12.2761   19.3677 C   0  0  0  0  0  0  0  0  0  0  0  0
    8.4503  -13.2686   19.9402 C   0  0  0  0  0  0  0  0  0  0  0  0
    8.2168  -13.8220   21.2673 C   0  0  2  0  0  0  0  0  0  0  0  0
    8.1498  -12.6633   22.2843 C   0  0  0  0  0  0  0  0  0  0  0  0
    9.0734  -14.9206   21.7866 C   0  0  2  0  0  0  0  0  0  0  0  0
    8.7913  -16.1106   20.9018 N   0  0  0  0  0  0  0  0  0  0  0  0
    8.7683  -15.3248   23.1589 C   0  0  0  0  0  0  0  0  0  0  0  0
    7.6894  -16.0042   23.3941 O   0  0  0  0  0  0  0  0  0  0  0  0
    9.5455  -15.0712   24.3261 N   0  0  0  0  0  0  0  0  0  0  0  0
    9.1681  -15.6528   25.6085 C   0  0  1  0  0  0  0  0  0  0  0  0
    7.6348  -15.5696   25.7586 C   0  0  0  0  0  0  0  0  0  0  0  0
    7.2374  -14.1925   26.1494 C   0  0  0  0  0  0  0  0  0  0  0  0
    8.2561  -13.3102   26.4653 C   0  0  0  0  0  0  0  0  0  0  0  0
    7.9916  -12.0186   26.8385 C   0  0  0  0  0  0  0  0  0  0  0  0
    6.6890  -11.6159   26.8927 C   0  0  0  0  0  0  0  0  0  0  0  0
    5.6443  -12.4725   26.5831 C   0  0  0  0  0  0  0  0  0  0  0  0
    5.9392  -13.7726   26.2091 C   0  0  0  0  0  0  0  0  0  0  0  0
    9.5093  -17.0548   25.6827 C   0  0  0  0  0  0  0  0  0  0  0  0
    9.2770  -17.6935   26.7471 O   0  0  0  0  0  0  0  0  0  0  0  0
   10.0777  -17.7405   24.6455 O   0  0  0  0  0  0  0  0  0  0  0  0
  2  3  1  0
  2  1  1  1
  3  4  1  0
  4  5  1  0
  5  6  1  0
  6  7  1  0
  8  2  1  0
  9  8  2  0
 11 10  1  0
 12 11  1  0
 12 14  1  0
 12 13  1  1
 14 15  1  6
 15  8  1  0
 16 14  1  0
 16 17  2  0
 18 16  1  0
 19 20  1  6
 19 18  1  0
 20 21  1  0
 21 26  2  0
 21 22  1  0
 22 23  2  0
 23 24  1  0
 25 24  2  0
 26 25  1  0
 27 19  1  0
 28 27  2  0
 29 27  1  0
M  END
$$$$
