KIF.pdb
     RDKit          3D

 29 29  0  0  1  0  0  0  0  0999 V2000
    6.8519  -19.5293   19.3568 N   0  0  0  0  0  0  0  0  0  0  0  0
    6.3310  -18.3317   19.9718 C   0  0  1  0  0  0  0  0  0  0  0  0
    5.6146  -18.5585   21.2394 C   0  0  0  0  0  0  0  0  0  0  0  0
    4.4275  -19.4060   21.2957 C   0  0  0  0  0  0  0  0  0  0  0  0
    3.1349  -19.0113   20.7354 C   0  0  0  0  0  0  0  0  0  0  0  0
    1.9660  -19.9160   20.8285 C   0  0  0  0  0  0  0  0  0  0  0  0
    1.4994  -19.8236   22.2465 N   0  0  0  0  0  0  0  0  0  0  0  0
    7.5419  -17.4719   20.2588 C   0  0  0  0  0  0  0  0  0  0  0  0
    8.6136  -18.0764   20.5069 O   0  0  0  0  0  0  0  0  0  0  0  0
    8.1247  -11.8561   19.0171 C   0  0  0  0  0  0  0  0  0  0  0  0
    7.8503  -13.1532   19.6703 C   0  0  0  0  0  0  0  0  0  0  0  0
    8.8573  -14.2058   19.6738 C   0  0  2  0  0  0  0  0  0  0  0  0
    9.0289  -14.7343   18.2342 C   0  0  0  0  0  0  0  0  0  0  0  0
    8.7620  -15.3362   20.6348 C   0  0  2  0  0  0  0  0  0  0  0  0
    7.5086  -16.0878   20.2571 N   0  0  0  0  0  0  0  0  0  0  0  0
    8.6126  -14.9282   22.0315 C   0  0  0  0  0  0  0  0  0  0  0  0
    8.2332  -13.7180   22.3008 O   0  0  0  0  0  0  0  0  0  0  0  0
    8.8247  -15.7282   23.1915 N   0  0  0  0  0  0  0  0  0  0  0  0
    8.6489  -15.1631   24.5238 C   0  0  1  0  0  0  0  0  0  0  0  0
    7.2285  -14.5699   24.6273 C   0  0  0  0  0  0  0  0  0  0  0  0
    7.0376  -13.9402   25.9594 C   0  0  0  0  0  0  0  0  0  0  0  0
    7.9423  -12.9588   26.3259 C   0  0  0  0  0  0  0  0  0  0  0  0
    7.8513  -12.3196   27.5344 C   0  0  0  0  0  0  0  0  0  0  0  0
    6.8393  -12.6744   28.3782 C   0  0  0  0  0  0  0  0  0  0  0  0
    5.9160  -13.6526   28.0435 C   0  0  0  0  0  0  0  0  0  0  0  0
    6.0308  -14.2830   26.8161 C   0  0  0  0  0  0  0  0  0  0  0  0
    8.7443  -16.1738   25.5519 C   0  0  0  0  0  0  0  0  0  0  0  0
    9.0609  -15.8348   26.7266 O   0  0  0  0  0  0  0  0  0  0  0  0
    8.5045  -17.4995   25.3196 O   0  0  0  0  0  0  0  0  0  0  0  0
  2  3  1  0
  2  1  1  1
  3  4  1  0
  4  5  1  0
  5  6  1  0
  6  7  1  0
  8  2  1  0
  9  8  2  0
 11 10  1  0
 12 11  1  0
 12 14  1  0
 12 13  1  6
 14 15  1  6
 15  8  1  0
 16 14  1  0
 16 17  2  0
 18 16  1  0
 19 20  1  6
 19 18  1  0
 20 21  1  0
 21 26  2  0
 21 22  1  0
 22 23  2  0
 23 24  1  0
 25 24  2  0
 26 25  1  0
 27 19  1  0
 28 27  2  0
 29 27  1  0
M  END
$$$$
