KIF.pdb
     RDKit          3D

 29 29  0  0  1  0  0  0  0  0999 V2000
    8.6531  -15.5168   19.4884 N   0  0  0  0  0  0  0  0  0  0  0  0
    7.9581  -16.2293   20.5340 C   0  0  1  0  0  0  0  0  0  0  0  0
    8.1421  -17.6910   20.5030 C   0  0  0  0  0  0  0  0  0  0  0  0
    7.6084  -18.4971   19.4094 C   0  0  0  0  0  0  0  0  0  0  0  0
    7.6521  -18.0756   18.0089 C   0  0  0  0  0  0  0  0  0  0  0  0
    7.0548  -18.9206   16.9494 C   0  0  0  0  0  0  0  0  0  0  0  0
    7.2025  -18.1394   15.6826 N   0  0  0  0  0  0  0  0  0  0  0  0
    8.5401  -15.7055   21.8281 C   0  0  0  0  0  0  0  0  0  0  0  0
    9.7761  -15.4870   21.8400 O   0  0  0  0  0  0  0  0  0  0  0  0
    5.4507  -12.5225   25.0553 C   0  0  0  0  0  0  0  0  0  0  0  0
    6.6473  -13.0603   24.3746 C   0  0  0  0  0  0  0  0  0  0  0  0
    7.3708  -14.1921   24.9378 C   0  0  2  0  0  0  0  0  0  0  0  0
    7.8690  -13.8117   26.3480 C   0  0  0  0  0  0  0  0  0  0  0  0
    8.4547  -14.8534   24.1644 C   0  0  2  0  0  0  0  0  0  0  0  0
    7.7810  -15.4672   22.9611 N   0  0  0  0  0  0  0  0  0  0  0  0
    9.1284  -15.9380   24.8782 C   0  0  0  0  0  0  0  0  0  0  0  0
    8.6483  -17.1400   24.8030 O   0  0  0  0  0  0  0  0  0  0  0  0
   10.3086  -15.8465   25.6716 N   0  0  0  0  0  0  0  0  0  0  0  0
   10.9785  -17.0515   26.1452 C   0  0  1  0  0  0  0  0  0  0  0  0
   12.1991  -16.6393   26.9939 C   0  0  0  0  0  0  0  0  0  0  0  0
   11.7655  -15.7683   28.1166 C   0  0  0  0  0  0  0  0  0  0  0  0
   11.4921  -14.4451   27.8160 C   0  0  0  0  0  0  0  0  0  0  0  0
   11.0866  -13.5626   28.7826 C   0  0  0  0  0  0  0  0  0  0  0  0
   10.9565  -14.0203   30.0614 C   0  0  0  0  0  0  0  0  0  0  0  0
   11.2218  -15.3385   30.3978 C   0  0  0  0  0  0  0  0  0  0  0  0
   11.6301  -16.2095   29.4020 C   0  0  0  0  0  0  0  0  0  0  0  0
   10.1261  -17.8340   27.0105 C   0  0  0  0  0  0  0  0  0  0  0  0
    9.0282  -17.3485   27.4027 O   0  0  0  0  0  0  0  0  0  0  0  0
   10.4472  -19.0937   27.4338 O   0  0  0  0  0  0  0  0  0  0  0  0
  2  3  1  0
  2  1  1  6
  3  4  1  0
  4  5  1  0
  5  6  1  0
  6  7  1  0
  8  2  1  0
  9  8  2  0
 11 10  1  0
 12 11  1  0
 12 14  1  0
 12 13  1  1
 14 15  1  6
 15  8  1  0
 16 14  1  0
 16 17  2  0
 18 16  1  0
 19 20  1  1
 19 18  1  0
 20 21  1  0
 21 26  2  0
 21 22  1  0
 22 23  2  0
 23 24  1  0
 25 24  2  0
 26 25  1  0
 27 19  1  0
 28 27  2  0
 29 27  1  0
M  END
$$$$
