KIF.pdb
     RDKit          3D

 29 29  0  0  1  0  0  0  0  0999 V2000
    8.6811  -18.2802   19.2071 N   0  0  0  0  0  0  0  0  0  0  0  0
   10.0548  -17.8459   19.2980 C   0  0  1  0  0  0  0  0  0  0  0  0
   10.6959  -17.5735   17.9994 C   0  0  0  0  0  0  0  0  0  0  0  0
   10.5988  -18.5222   16.8945 C   0  0  0  0  0  0  0  0  0  0  0  0
   11.2055  -18.2892   15.5836 C   0  0  0  0  0  0  0  0  0  0  0  0
   10.7578  -19.0578   14.3994 C   0  0  0  0  0  0  0  0  0  0  0  0
   10.8245  -20.4956   14.8058 N   0  0  0  0  0  0  0  0  0  0  0  0
   10.0138  -16.5559   20.0865 C   0  0  0  0  0  0  0  0  0  0  0  0
   11.1029  -15.9472   20.2243 O   0  0  0  0  0  0  0  0  0  0  0  0
    7.0788  -12.4382   19.0803 C   0  0  0  0  0  0  0  0  0  0  0  0
    8.1445  -13.2687   19.6796 C   0  0  0  0  0  0  0  0  0  0  0  0
    7.9688  -13.8536   21.0021 C   0  0  2  0  0  0  0  0  0  0  0  0
    7.7293  -12.7186   22.0197 C   0  0  0  0  0  0  0  0  0  0  0  0
    8.9594  -14.8272   21.5326 C   0  0  2  0  0  0  0  0  0  0  0  0
    8.8547  -16.0416   20.6423 N   0  0  0  0  0  0  0  0  0  0  0  0
    8.6922  -15.2736   22.8997 C   0  0  0  0  0  0  0  0  0  0  0  0
    7.7411  -16.1287   23.1124 O   0  0  0  0  0  0  0  0  0  0  0  0
    9.3824  -14.8856   24.0845 N   0  0  0  0  0  0  0  0  0  0  0  0
    9.0328  -15.4734   25.3719 C   0  0  1  0  0  0  0  0  0  0  0  0
    7.5042  -15.3819   25.5602 C   0  0  0  0  0  0  0  0  0  0  0  0
    7.1351  -14.0342   26.0649 C   0  0  0  0  0  0  0  0  0  0  0  0
    7.0210  -13.8864   27.4364 C   0  0  0  0  0  0  0  0  0  0  0  0
    6.6842  -12.6833   27.9991 C   0  0  0  0  0  0  0  0  0  0  0  0
    6.4612  -11.6225   27.1703 C   0  0  0  0  0  0  0  0  0  0  0  0
    6.5667  -11.7348   25.7928 C   0  0  0  0  0  0  0  0  0  0  0  0
    6.9084  -12.9619   25.2501 C   0  0  0  0  0  0  0  0  0  0  0  0
    9.3669  -16.8780   25.4286 C   0  0  0  0  0  0  0  0  0  0  0  0
    9.2435  -17.5007   26.5204 O   0  0  0  0  0  0  0  0  0  0  0  0
    9.8149  -17.5828   24.3462 O   0  0  0  0  0  0  0  0  0  0  0  0
  2  3  1  0
  2  1  1  6
  3  4  1  0
  4  5  1  0
  5  6  1  0
  6  7  1  0
  8  2  1  0
  9  8  2  0
 11 10  1  0
 12 11  1  0
 12 14  1  0
 12 13  1  1
 14 15  1  6
 15  8  1  0
 16 14  1  0
 16 17  2  0
 18 16  1  0
 19 20  1  6
 19 18  1  0
 20 21  1  0
 21 26  2  0
 21 22  1  0
 22 23  2  0
 23 24  1  0
 25 24  2  0
 26 25  1  0
 27 19  1  0
 28 27  2  0
 29 27  1  0
M  END
$$$$
