VTF.pdb
     RDKit          3D

 26 26  0  0  1  0  0  0  0  0999 V2000
   15.1494   -6.6455   -8.0418 C   0  0  0  0  0  0  0  0  0  0  0  0
   14.0624   -7.6497   -7.8166 C   0  0  1  0  0  0  0  0  0  0  0  0
   12.8481   -6.9823   -7.2370 C   0  0  0  0  0  0  0  0  0  0  0  0
   13.7450   -8.4646   -9.0486 C   0  0  2  0  0  0  0  0  0  0  0  0
   12.8604   -9.5260   -8.6708 N   0  0  0  0  0  0  0  0  0  0  0  0
   14.9534   -9.0040   -9.6929 C   0  0  0  0  0  0  0  0  0  0  0  0
   15.5737  -10.0060   -9.2502 O   0  0  0  0  0  0  0  0  0  0  0  0
   15.3267  -11.0760  -12.1823 C   0  0  0  0  0  0  0  0  0  0  0  0
   16.0318   -9.8724  -12.7060 C   0  0  1  0  0  0  0  0  0  0  0  0
   15.1227   -9.1307  -13.4594 O   0  0  0  0  0  0  0  0  0  0  0  0
   16.5803   -8.9831  -11.6133 C   0  0  2  0  0  0  0  0  0  0  0  0
   15.4796   -8.4001  -10.8683 N   0  0  0  0  0  0  0  0  0  0  0  0
   17.4890   -7.9433  -12.1472 C   0  0  0  0  0  0  0  0  0  0  0  0
   17.0540   -6.8138  -12.4752 O   0  0  0  0  0  0  0  0  0  0  0  0
   18.8780   -8.1684  -12.3125 N   0  0  0  0  0  0  0  0  0  0  0  0
   19.7002   -7.1638  -12.9795 C   0  0  1  0  0  0  0  0  0  0  0  0
   21.1492   -7.3995  -12.7473 C   0  0  0  0  0  0  0  0  0  0  0  0
   21.9819   -6.4942  -13.5814 C   0  0  0  0  0  0  0  0  0  0  0  0
   22.0592   -5.1618  -13.2556 C   0  0  0  0  0  0  0  0  0  0  0  0
   22.8315   -4.3212  -14.0186 C   0  0  0  0  0  0  0  0  0  0  0  0
   23.5240   -4.8117  -15.1040 C   0  0  0  0  0  0  0  0  0  0  0  0
   23.4474   -6.1426  -15.4305 C   0  0  0  0  0  0  0  0  0  0  0  0
   22.6837   -6.9706  -14.6748 C   0  0  0  0  0  0  0  0  0  0  0  0
   19.3782   -7.2165  -14.4038 C   0  0  0  0  0  0  0  0  0  0  0  0
   19.3151   -8.3158  -14.9916 O   0  0  0  0  0  0  0  0  0  0  0  0
   19.1350   -6.0748  -15.1294 O   0  0  0  0  0  0  0  0  0  0  0  0
  2  1  1  6
  3  2  1  0
  4  6  1  0
  4  2  1  0
  4  5  1  1
  6  7  2  0
  9  8  1  1
  9 11  1  0
 10  9  1  0
 11 13  1  0
 11 12  1  6
 12  6  1  0
 13 14  2  0
 13 15  1  0
 15 16  1  0
 16 24  1  0
 16 17  1  6
 18 17  1  0
 19 18  2  0
 20 19  1  0
 21 20  2  0
 21 22  1  0
 22 23  2  0
 23 18  1  0
 24 25  2  0
 24 26  1  0
M  END
$$$$
