VTF.pdb
     RDKit          3D

 26 26  0  0  1  0  0  0  0  0999 V2000
   36.1178  -30.4204  -20.6873 C   0  0  0  0  0  0  0  0  0  0  0  0
   34.8709  -29.7540  -20.1954 C   0  0  1  0  0  0  0  0  0  0  0  0
   35.0324  -29.3399  -18.7608 C   0  0  0  0  0  0  0  0  0  0  0  0
   34.4192  -28.6164  -21.0812 C   0  0  2  0  0  0  0  0  0  0  0  0
   35.5059  -27.6930  -21.2174 N   0  0  0  0  0  0  0  0  0  0  0  0
   33.2249  -27.9348  -20.5563 C   0  0  0  0  0  0  0  0  0  0  0  0
   33.2797  -26.8363  -19.9440 O   0  0  0  0  0  0  0  0  0  0  0  0
   30.3822  -26.2970  -22.2584 C   0  0  0  0  0  0  0  0  0  0  0  0
   29.8845  -27.4870  -21.5126 C   0  0  1  0  0  0  0  0  0  0  0  0
   29.9071  -28.5811  -22.3766 O   0  0  0  0  0  0  0  0  0  0  0  0
   30.7236  -27.8218  -20.3004 C   0  0  2  0  0  0  0  0  0  0  0  0
   31.9324  -28.5041  -20.7244 N   0  0  0  0  0  0  0  0  0  0  0  0
   29.9692  -28.6167  -19.3049 C   0  0  0  0  0  0  0  0  0  0  0  0
   29.8623  -29.8607  -19.4206 O   0  0  0  0  0  0  0  0  0  0  0  0
   29.3378  -28.0201  -18.1857 N   0  0  0  0  0  0  0  0  0  0  0  0
   28.7119  -28.8636  -17.1722 C   0  0  1  0  0  0  0  0  0  0  0  0
   28.4365  -28.1067  -15.9232 C   0  0  0  0  0  0  0  0  0  0  0  0
   27.5856  -26.9181  -16.1909 C   0  0  0  0  0  0  0  0  0  0  0  0
   28.1696  -25.7642  -16.6546 C   0  0  0  0  0  0  0  0  0  0  0  0
   27.3883  -24.6643  -16.9095 C   0  0  0  0  0  0  0  0  0  0  0  0
   26.0274  -24.7183  -16.7011 C   0  0  0  0  0  0  0  0  0  0  0  0
   25.4430  -25.8704  -16.2377 C   0  0  0  0  0  0  0  0  0  0  0  0
   26.2174  -26.9554  -15.9868 C   0  0  0  0  0  0  0  0  0  0  0  0
   27.4795  -29.3941  -17.7509 C   0  0  0  0  0  0  0  0  0  0  0  0
   26.9534  -28.8283  -18.7311 O   0  0  0  0  0  0  0  0  0  0  0  0
   26.8719  -30.5179  -17.2439 O   0  0  0  0  0  0  0  0  0  0  0  0
  2  1  1  6
  3  2  1  0
  4  6  1  0
  4  2  1  0
  4  5  1  1
  6  7  2  0
  9  8  1  6
  9 11  1  0
 10  9  1  0
 11 13  1  0
 11 12  1  6
 12  6  1  0
 13 14  2  0
 13 15  1  0
 15 16  1  0
 16 24  1  0
 16 17  1  1
 18 17  1  0
 19 18  2  0
 20 19  1  0
 21 20  2  0
 21 22  1  0
 22 23  2  0
 23 18  1  0
 24 25  2  0
 24 26  1  0
M  END
$$$$
