VTF.pdb
     RDKit          3D

 26 26  0  0  1  0  0  0  0  0999 V2000
   28.8822  -17.8305  -13.8035 C   0  0  0  0  0  0  0  0  0  0  0  0
   27.8796  -17.6894  -14.9061 C   0  0  1  0  0  0  0  0  0  0  0  0
   28.5723  -17.3978  -16.2064 C   0  0  0  0  0  0  0  0  0  0  0  0
   26.9356  -18.8652  -15.0015 C   0  0  2  0  0  0  0  0  0  0  0  0
   26.0919  -18.6737  -16.1432 N   0  0  0  0  0  0  0  0  0  0  0  0
   26.1262  -19.0370  -13.7842 C   0  0  0  0  0  0  0  0  0  0  0  0
   25.2514  -18.2068  -13.4233 O   0  0  0  0  0  0  0  0  0  0  0  0
   23.6199  -21.3631  -13.0555 C   0  0  0  0  0  0  0  0  0  0  0  0
   24.5981  -21.5666  -11.9502 C   0  0  1  0  0  0  0  0  0  0  0  0
   25.3771  -22.6807  -12.2599 O   0  0  0  0  0  0  0  0  0  0  0  0
   25.5190  -20.3848  -11.7471 C   0  0  2  0  0  0  0  0  0  0  0  0
   26.3051  -20.1742  -12.9489 N   0  0  0  0  0  0  0  0  0  0  0  0
   26.3800  -20.5501  -10.5541 C   0  0  0  0  0  0  0  0  0  0  0  0
   27.5218  -21.0598  -10.6488 O   0  0  0  0  0  0  0  0  0  0  0  0
   25.9632  -20.1462   -9.2617 N   0  0  0  0  0  0  0  0  0  0  0  0
   26.8106  -20.4263   -8.1068 C   0  0  1  0  0  0  0  0  0  0  0  0
   27.4120  -19.1846   -7.5543 C   0  0  0  0  0  0  0  0  0  0  0  0
   28.1342  -19.4557   -6.2840 C   0  0  0  0  0  0  0  0  0  0  0  0
   29.3752  -20.0436   -6.3287 C   0  0  0  0  0  0  0  0  0  0  0  0
   30.0503  -20.2913   -5.1591 C   0  0  0  0  0  0  0  0  0  0  0  0
   29.4859  -19.9524   -3.9488 C   0  0  0  0  0  0  0  0  0  0  0  0
   28.2463  -19.3652   -3.9030 C   0  0  0  0  0  0  0  0  0  0  0  0
   27.5817  -19.1216   -5.0601 C   0  0  0  0  0  0  0  0  0  0  0  0
   25.9782  -21.0981   -7.1114 C   0  0  0  0  0  0  0  0  0  0  0  0
   24.7341  -21.0517   -7.2008 O   0  0  0  0  0  0  0  0  0  0  0  0
   26.5305  -21.7946   -6.0631 O   0  0  0  0  0  0  0  0  0  0  0  0
  2  1  1  1
  3  2  1  0
  4  6  1  0
  4  2  1  0
  4  5  1  6
  6  7  2  0
  9  8  1  6
  9 11  1  0
 10  9  1  0
 11 13  1  0
 11 12  1  6
 12  6  1  0
 13 14  2  0
 13 15  1  0
 15 16  1  0
 16 24  1  0
 16 17  1  1
 18 17  1  0
 19 18  2  0
 20 19  1  0
 21 20  2  0
 21 22  1  0
 22 23  2  0
 23 18  1  0
 24 25  2  0
 24 26  1  0
M  END
$$$$
