VTF.pdb
     RDKit          3D

 26 26  0  0  1  0  0  0  0  0999 V2000
   17.8188  -13.0556  -18.1015 C   0  0  0  0  0  0  0  0  0  0  0  0
   18.3925  -11.6807  -18.2473 C   0  0  1  0  0  0  0  0  0  0  0  0
   17.4920  -10.8272  -19.0937 C   0  0  0  0  0  0  0  0  0  0  0  0
   18.7279  -11.0359  -16.9228 C   0  0  2  0  0  0  0  0  0  0  0  0
   17.5483  -11.0372  -16.1100 N   0  0  0  0  0  0  0  0  0  0  0  0
   19.2462   -9.6671  -17.0787 C   0  0  0  0  0  0  0  0  0  0  0  0
   20.3537   -9.4142  -17.6210 O   0  0  0  0  0  0  0  0  0  0  0  0
   17.6135   -6.8498  -18.9332 C   0  0  0  0  0  0  0  0  0  0  0  0
   17.8316   -6.4132  -17.5254 C   0  0  1  0  0  0  0  0  0  0  0  0
   16.6445   -6.6105  -16.8212 O   0  0  0  0  0  0  0  0  0  0  0  0
   18.9307   -7.1826  -16.8286 C   0  0  2  0  0  0  0  0  0  0  0  0
   18.4983   -8.5510  -16.6117 N   0  0  0  0  0  0  0  0  0  0  0  0
   19.3462   -6.5349  -15.5637 C   0  0  0  0  0  0  0  0  0  0  0  0
   18.6782   -6.6847  -14.5131 O   0  0  0  0  0  0  0  0  0  0  0  0
   20.5044   -5.7236  -15.4771 N   0  0  0  0  0  0  0  0  0  0  0  0
   20.9460   -5.2278  -14.1773 C   0  0  1  0  0  0  0  0  0  0  0  0
   22.1955   -5.8976  -13.7310 C   0  0  0  0  0  0  0  0  0  0  0  0
   23.2128   -5.9155  -14.8143 C   0  0  0  0  0  0  0  0  0  0  0  0
   23.9718   -4.7932  -15.0421 C   0  0  0  0  0  0  0  0  0  0  0  0
   24.9174   -4.8052  -16.0375 C   0  0  0  0  0  0  0  0  0  0  0  0
   25.1031   -5.9358  -16.8026 C   0  0  0  0  0  0  0  0  0  0  0  0
   24.3453   -7.0574  -16.5760 C   0  0  0  0  0  0  0  0  0  0  0  0
   23.4119   -7.0427  -15.5919 C   0  0  0  0  0  0  0  0  0  0  0  0
   21.1373   -3.7849  -14.3061 C   0  0  0  0  0  0  0  0  0  0  0  0
   21.0402   -3.2374  -15.4235 O   0  0  0  0  0  0  0  0  0  0  0  0
   21.4225   -2.9967  -13.2169 O   0  0  0  0  0  0  0  0  0  0  0  0
  2  1  1  1
  3  2  1  0
  4  6  1  0
  4  2  1  0
  4  5  1  1
  6  7  2  0
  9  8  1  6
  9 11  1  0
 10  9  1  0
 11 13  1  0
 11 12  1  1
 12  6  1  0
 13 14  2  0
 13 15  1  0
 15 16  1  0
 16 24  1  0
 16 17  1  6
 18 17  1  0
 19 18  2  0
 20 19  1  0
 21 20  2  0
 21 22  1  0
 22 23  2  0
 23 18  1  0
 24 25  2  0
 24 26  1  0
M  END
$$$$
