VTF.pdb
     RDKit          3D

 26 26  0  0  1  0  0  0  0  0999 V2000
   28.4924  -17.7188  -13.9914 C   0  0  0  0  0  0  0  0  0  0  0  0
   27.4692  -17.7373  -15.0838 C   0  0  1  0  0  0  0  0  0  0  0  0
   28.1095  -17.4135  -16.4033 C   0  0  0  0  0  0  0  0  0  0  0  0
   26.6703  -19.0189  -15.1247 C   0  0  2  0  0  0  0  0  0  0  0  0
   25.8347  -18.9917  -16.2879 N   0  0  0  0  0  0  0  0  0  0  0  0
   25.8603  -19.2159  -13.9116 C   0  0  0  0  0  0  0  0  0  0  0  0
   24.9089  -18.4548  -13.5950 O   0  0  0  0  0  0  0  0  0  0  0  0
   23.4347  -21.5443  -13.0742 C   0  0  0  0  0  0  0  0  0  0  0  0
   24.4667  -21.7366  -12.0168 C   0  0  1  0  0  0  0  0  0  0  0  0
   25.2715  -22.8133  -12.3870 O   0  0  0  0  0  0  0  0  0  0  0  0
   25.3518  -20.5263  -11.8237 C   0  0  2  0  0  0  0  0  0  0  0  0
   26.1274  -20.2990  -13.0293 N   0  0  0  0  0  0  0  0  0  0  0  0
   26.2212  -20.6583  -10.6326 C   0  0  0  0  0  0  0  0  0  0  0  0
   27.3655  -21.1632  -10.7226 O   0  0  0  0  0  0  0  0  0  0  0  0
   25.8100  -20.2265   -9.3474 N   0  0  0  0  0  0  0  0  0  0  0  0
   26.6725  -20.4621   -8.1938 C   0  0  1  0  0  0  0  0  0  0  0  0
   27.3674  -19.2199   -7.7663 C   0  0  0  0  0  0  0  0  0  0  0  0
   28.1043  -19.4268   -6.4924 C   0  0  0  0  0  0  0  0  0  0  0  0
   29.1847  -20.2752   -6.4710 C   0  0  0  0  0  0  0  0  0  0  0  0
   29.8734  -20.4662   -5.2987 C   0  0  0  0  0  0  0  0  0  0  0  0
   29.4825  -19.8110   -4.1514 C   0  0  0  0  0  0  0  0  0  0  0  0
   28.4032  -18.9634   -4.1715 C   0  0  0  0  0  0  0  0  0  0  0  0
   27.7249  -18.7766   -5.3313 C   0  0  0  0  0  0  0  0  0  0  0  0
   25.8297  -20.9908   -7.1235 C   0  0  0  0  0  0  0  0  0  0  0  0
   24.5942  -20.8168   -7.1552 O   0  0  0  0  0  0  0  0  0  0  0  0
   26.3625  -21.6886   -6.0661 O   0  0  0  0  0  0  0  0  0  0  0  0
  2  1  1  1
  3  2  1  0
  4  6  1  0
  4  2  1  0
  4  5  1  6
  6  7  2  0
  9  8  1  6
  9 11  1  0
 10  9  1  0
 11 13  1  0
 11 12  1  6
 12  6  1  0
 13 14  2  0
 13 15  1  0
 15 16  1  0
 16 24  1  0
 16 17  1  1
 18 17  1  0
 19 18  2  0
 20 19  1  0
 21 20  2  0
 21 22  1  0
 22 23  2  0
 23 18  1  0
 24 25  2  0
 24 26  1  0
M  END
$$$$
