VTF.pdb
     RDKit          3D

 26 26  0  0  1  0  0  0  0  0999 V2000
   12.8930  -11.4803  -17.6535 C   0  0  0  0  0  0  0  0  0  0  0  0
   14.0110  -10.5180  -17.9080 C   0  0  1  0  0  0  0  0  0  0  0  0
   13.5278   -9.1045  -17.7520 C   0  0  0  0  0  0  0  0  0  0  0  0
   15.2405  -10.8065  -17.0786 C   0  0  2  0  0  0  0  0  0  0  0  0
   14.8727  -10.7539  -15.6951 N   0  0  0  0  0  0  0  0  0  0  0  0
   16.3398   -9.8681  -17.3568 C   0  0  0  0  0  0  0  0  0  0  0  0
   16.9392   -9.8275  -18.4629 O   0  0  0  0  0  0  0  0  0  0  0  0
   16.1933   -6.0920  -17.0494 C   0  0  0  0  0  0  0  0  0  0  0  0
   17.3100   -6.5955  -16.2012 C   0  0  1  0  0  0  0  0  0  0  0  0
   16.8515   -6.6829  -14.8874 O   0  0  0  0  0  0  0  0  0  0  0  0
   17.8073   -7.9596  -16.6225 C   0  0  2  0  0  0  0  0  0  0  0  0
   16.7777   -8.9492  -16.3633 N   0  0  0  0  0  0  0  0  0  0  0  0
   19.0835   -8.3143  -15.9611 C   0  0  0  0  0  0  0  0  0  0  0  0
   19.0945   -8.9479  -14.8791 O   0  0  0  0  0  0  0  0  0  0  0  0
   20.3409   -7.9604  -16.5099 N   0  0  0  0  0  0  0  0  0  0  0  0
   21.5647   -8.2783  -15.7808 C   0  0  1  0  0  0  0  0  0  0  0  0
   22.3072   -9.3971  -16.4180 C   0  0  0  0  0  0  0  0  0  0  0  0
   23.6214   -9.6149  -15.7591 C   0  0  0  0  0  0  0  0  0  0  0  0
   24.7599   -9.1247  -16.3518 C   0  0  0  0  0  0  0  0  0  0  0  0
   25.9764   -9.3174  -15.7453 C   0  0  0  0  0  0  0  0  0  0  0  0
   26.0542   -9.9982  -14.5500 C   0  0  0  0  0  0  0  0  0  0  0  0
   24.9176  -10.4885  -13.9572 C   0  0  0  0  0  0  0  0  0  0  0  0
   23.7170  -10.2965  -14.5587 C   0  0  0  0  0  0  0  0  0  0  0  0
   22.3738   -7.0622  -15.7414 C   0  0  0  0  0  0  0  0  0  0  0  0
   22.3153   -6.2402  -16.6788 O   0  0  0  0  0  0  0  0  0  0  0  0
   23.2094   -6.7876  -14.6853 O   0  0  0  0  0  0  0  0  0  0  0  0
  2  1  1  1
  3  2  1  0
  4  6  1  0
  4  2  1  0
  4  5  1  1
  6  7  2  0
  9  8  1  6
  9 11  1  0
 10  9  1  0
 11 13  1  0
 11 12  1  1
 12  6  1  0
 13 14  2  0
 13 15  1  0
 15 16  1  0
 16 24  1  0
 16 17  1  6
 18 17  1  0
 19 18  2  0
 20 19  1  0
 21 20  2  0
 21 22  1  0
 22 23  2  0
 23 18  1  0
 24 25  2  0
 24 26  1  0
M  END
$$$$
