VTF.pdb
     RDKit          3D

 26 26  0  0  1  0  0  0  0  0999 V2000
   18.1334   -1.1721  -18.1393 C   0  0  0  0  0  0  0  0  0  0  0  0
   16.6432   -1.1304  -18.0035 C   0  0  1  0  0  0  0  0  0  0  0  0
   16.0485   -0.2412  -19.0578 C   0  0  0  0  0  0  0  0  0  0  0  0
   16.0128   -2.5031  -17.9779 C   0  0  2  0  0  0  0  0  0  0  0  0
   14.5955   -2.3451  -17.8416 N   0  0  0  0  0  0  0  0  0  0  0  0
   16.5448   -3.3464  -16.8952 C   0  0  0  0  0  0  0  0  0  0  0  0
   16.0889   -3.3196  -15.7222 O   0  0  0  0  0  0  0  0  0  0  0  0
   16.6750   -7.0650  -16.6779 C   0  0  0  0  0  0  0  0  0  0  0  0
   18.0713   -6.5547  -16.5782 C   0  0  1  0  0  0  0  0  0  0  0  0
   18.6526   -6.6313  -17.8432 O   0  0  0  0  0  0  0  0  0  0  0  0
   18.1471   -5.1202  -16.1068 C   0  0  2  0  0  0  0  0  0  0  0  0
   17.6199   -4.2454  -17.1380 N   0  0  0  0  0  0  0  0  0  0  0  0
   19.5224   -4.7358  -15.7160 C   0  0  0  0  0  0  0  0  0  0  0  0
   20.1512   -3.8567  -16.3518 O   0  0  0  0  0  0  0  0  0  0  0  0
   20.1892   -5.3337  -14.6182 N   0  0  0  0  0  0  0  0  0  0  0  0
   21.4974   -4.8346  -14.2062 C   0  0  1  0  0  0  0  0  0  0  0  0
   21.9009   -5.3808  -12.8841 C   0  0  0  0  0  0  0  0  0  0  0  0
   21.8654   -6.8665  -12.8822 C   0  0  0  0  0  0  0  0  0  0  0  0
   20.7563   -7.5116  -12.3908 C   0  0  0  0  0  0  0  0  0  0  0  0
   20.7148   -8.8840  -12.3916 C   0  0  0  0  0  0  0  0  0  0  0  0
   21.7790   -9.6087  -12.8821 C   0  0  0  0  0  0  0  0  0  0  0  0
   22.8874   -8.9653  -13.3730 C   0  0  0  0  0  0  0  0  0  0  0  0
   22.9256   -7.6093  -13.3710 C   0  0  0  0  0  0  0  0  0  0  0  0
   22.4520   -5.2108  -15.2466 C   0  0  0  0  0  0  0  0  0  0  0  0
   23.6119   -4.7503  -15.2286 O   0  0  0  0  0  0  0  0  0  0  0  0
   22.1090   -6.0733  -16.2602 O   0  0  0  0  0  0  0  0  0  0  0  0
  2  1  1  6
  3  2  1  0
  4  6  1  0
  4  2  1  0
  4  5  1  1
  6  7  2  0
  9  8  1  6
  9 11  1  0
 10  9  1  0
 11 13  1  0
 11 12  1  6
 12  6  1  0
 13 14  2  0
 13 15  1  0
 15 16  1  0
 16 24  1  0
 16 17  1  1
 18 17  1  0
 19 18  2  0
 20 19  1  0
 21 20  2  0
 21 22  1  0
 22 23  2  0
 23 18  1  0
 24 25  2  0
 24 26  1  0
M  END
$$$$
