VTF.pdb
     RDKit          3D

 26 26  0  0  1  0  0  0  0  0999 V2000
   24.7365  -15.2741  -14.9546 C   0  0  0  0  0  0  0  0  0  0  0  0
   23.4994  -15.3807  -15.7907 C   0  0  1  0  0  0  0  0  0  0  0  0
   23.0762  -14.0221  -16.2711 C   0  0  0  0  0  0  0  0  0  0  0  0
   23.6302  -16.3802  -16.9161 C   0  0  2  0  0  0  0  0  0  0  0  0
   22.4466  -16.3106  -17.7199 N   0  0  0  0  0  0  0  0  0  0  0  0
   23.8430  -17.7524  -16.4280 C   0  0  0  0  0  0  0  0  0  0  0  0
   22.9170  -18.4577  -15.9487 O   0  0  0  0  0  0  0  0  0  0  0  0
   24.8276  -20.6977  -18.2408 C   0  0  0  0  0  0  0  0  0  0  0  0
   25.8508  -20.5538  -17.1673 C   0  0  1  0  0  0  0  0  0  0  0  0
   26.9817  -19.9570  -17.7230 O   0  0  0  0  0  0  0  0  0  0  0  0
   25.3825  -19.6995  -16.0112 C   0  0  2  0  0  0  0  0  0  0  0  0
   25.1332  -18.3487  -16.4800 N   0  0  0  0  0  0  0  0  0  0  0  0
   26.3414  -19.7171  -14.8833 C   0  0  0  0  0  0  0  0  0  0  0  0
   27.1278  -18.7595  -14.6907 O   0  0  0  0  0  0  0  0  0  0  0  0
   26.4184  -20.8026  -13.9760 N   0  0  0  0  0  0  0  0  0  0  0  0
   27.4172  -20.7877  -12.9118 C   0  0  1  0  0  0  0  0  0  0  0  0
   27.1956  -19.6612  -11.9681 C   0  0  0  0  0  0  0  0  0  0  0  0
   25.9499  -19.8555  -11.1813 C   0  0  0  0  0  0  0  0  0  0  0  0
   26.0398  -20.2062   -9.8559 C   0  0  0  0  0  0  0  0  0  0  0  0
   24.8928  -20.3815   -9.1220 C   0  0  0  0  0  0  0  0  0  0  0  0
   23.6599  -20.2068   -9.7116 C   0  0  0  0  0  0  0  0  0  0  0  0
   23.5689  -19.8568  -11.0356 C   0  0  0  0  0  0  0  0  0  0  0  0
   24.7038  -19.6842  -11.7582 C   0  0  0  0  0  0  0  0  0  0  0  0
   27.3380  -22.0752  -12.2253 C   0  0  0  0  0  0  0  0  0  0  0  0
   28.1160  -22.3319  -11.2837 O   0  0  0  0  0  0  0  0  0  0  0  0
   26.4160  -23.0282  -12.5869 O   0  0  0  0  0  0  0  0  0  0  0  0
  2  1  1  6
  3  2  1  0
  4  6  1  0
  4  2  1  0
  4  5  1  1
  6  7  2  0
  9  8  1  6
  9 11  1  0
 10  9  1  0
 11 13  1  0
 11 12  1  6
 12  6  1  0
 13 14  2  0
 13 15  1  0
 15 16  1  0
 16 24  1  0
 16 17  1  1
 18 17  1  0
 19 18  2  0
 20 19  1  0
 21 20  2  0
 21 22  1  0
 22 23  2  0
 23 18  1  0
 24 25  2  0
 24 26  1  0
M  END
$$$$
