VTF.pdb
     RDKit          3D

 26 26  0  0  1  0  0  0  0  0999 V2000
   21.3330  -19.1367  -12.6550 C   0  0  0  0  0  0  0  0  0  0  0  0
   20.2852  -19.6325  -13.6022 C   0  0  1  0  0  0  0  0  0  0  0  0
   18.9350  -19.1062  -13.2079 C   0  0  0  0  0  0  0  0  0  0  0  0
   20.6171  -19.3547  -15.0497 C   0  0  2  0  0  0  0  0  0  0  0  0
   19.5303  -19.8205  -15.8582 N   0  0  0  0  0  0  0  0  0  0  0  0
   21.8795  -19.9852  -15.4685 C   0  0  0  0  0  0  0  0  0  0  0  0
   21.9977  -21.2262  -15.6432 O   0  0  0  0  0  0  0  0  0  0  0  0
   26.1601  -19.6889  -17.7448 C   0  0  0  0  0  0  0  0  0  0  0  0
   24.8523  -19.1306  -17.2999 C   0  0  1  0  0  0  0  0  0  0  0  0
   23.9262  -19.3267  -18.3236 O   0  0  0  0  0  0  0  0  0  0  0  0
   24.3213  -19.7884  -16.0465 C   0  0  2  0  0  0  0  0  0  0  0  0
   23.0421  -19.1983  -15.6974 N   0  0  0  0  0  0  0  0  0  0  0  0
   25.2844  -19.7058  -14.9251 C   0  0  0  0  0  0  0  0  0  0  0  0
   25.3985  -18.6556  -14.2495 O   0  0  0  0  0  0  0  0  0  0  0  0
   26.1152  -20.7948  -14.5630 N   0  0  0  0  0  0  0  0  0  0  0  0
   27.1343  -20.6174  -13.5334 C   0  0  1  0  0  0  0  0  0  0  0  0
   26.9404  -21.5613  -12.4019 C   0  0  0  0  0  0  0  0  0  0  0  0
   25.7255  -21.2186  -11.6175 C   0  0  0  0  0  0  0  0  0  0  0  0
   25.8570  -20.4972  -10.4557 C   0  0  0  0  0  0  0  0  0  0  0  0
   24.7381  -20.1722   -9.7294 C   0  0  0  0  0  0  0  0  0  0  0  0
   23.4917  -20.5677  -10.1636 C   0  0  0  0  0  0  0  0  0  0  0  0
   23.3592  -21.2886  -11.3239 C   0  0  0  0  0  0  0  0  0  0  0  0
   24.4665  -21.6081  -12.0394 C   0  0  0  0  0  0  0  0  0  0  0  0
   28.4338  -20.8171  -14.1710 C   0  0  0  0  0  0  0  0  0  0  0  0
   28.5038  -21.3542  -15.2955 O   0  0  0  0  0  0  0  0  0  0  0  0
   29.6018  -20.4228  -13.5634 O   0  0  0  0  0  0  0  0  0  0  0  0
  2  1  1  1
  3  2  1  0
  4  6  1  0
  4  2  1  0
  4  5  1  6
  6  7  2  0
  9  8  1  6
  9 11  1  0
 10  9  1  0
 11 13  1  0
 11 12  1  1
 12  6  1  0
 13 14  2  0
 13 15  1  0
 15 16  1  0
 16 24  1  0
 16 17  1  1
 18 17  1  0
 19 18  2  0
 20 19  1  0
 21 20  2  0
 21 22  1  0
 22 23  2  0
 23 18  1  0
 24 25  2  0
 24 26  1  0
M  END
$$$$
