VTF.pdb
     RDKit          3D

 26 26  0  0  1  0  0  0  0  0999 V2000
   25.9965  -18.1949  -16.6791 C   0  0  0  0  0  0  0  0  0  0  0  0
   26.9297  -19.3513  -16.8597 C   0  0  1  0  0  0  0  0  0  0  0  0
   28.2479  -18.8776  -17.4015 C   0  0  0  0  0  0  0  0  0  0  0  0
   27.0817  -20.1894  -15.6119 C   0  0  2  0  0  0  0  0  0  0  0  0
   28.0681  -21.1972  -15.8639 N   0  0  0  0  0  0  0  0  0  0  0  0
   25.8127  -20.8033  -15.1884 C   0  0  0  0  0  0  0  0  0  0  0  0
   25.2920  -21.7786  -15.7900 O   0  0  0  0  0  0  0  0  0  0  0  0
   25.2671  -22.4427  -12.1709 C   0  0  0  0  0  0  0  0  0  0  0  0
   24.1053  -21.5108  -12.2147 C   0  0  1  0  0  0  0  0  0  0  0  0
   24.3476  -20.4729  -11.3158 O   0  0  0  0  0  0  0  0  0  0  0  0
   23.8770  -20.9102  -13.5832 C   0  0  2  0  0  0  0  0  0  0  0  0
   25.1092  -20.3066  -14.0564 N   0  0  0  0  0  0  0  0  0  0  0  0
   22.7587  -19.9400  -13.5845 C   0  0  0  0  0  0  0  0  0  0  0  0
   22.9520  -18.7331  -13.3043 O   0  0  0  0  0  0  0  0  0  0  0  0
   21.4305  -20.3207  -13.8983 N   0  0  0  0  0  0  0  0  0  0  0  0
   20.3490  -19.3491  -13.7702 C   0  0  1  0  0  0  0  0  0  0  0  0
   20.3165  -18.4103  -14.9219 C   0  0  0  0  0  0  0  0  0  0  0  0
   20.0834  -19.1334  -16.1991 C   0  0  0  0  0  0  0  0  0  0  0  0
   18.7947  -19.3805  -16.6061 C   0  0  0  0  0  0  0  0  0  0  0  0
   18.5724  -20.0430  -17.7880 C   0  0  0  0  0  0  0  0  0  0  0  0
   19.6356  -20.4572  -18.5602 C   0  0  0  0  0  0  0  0  0  0  0  0
   20.9234  -20.2111  -18.1545 C   0  0  0  0  0  0  0  0  0  0  0  0
   21.1399  -19.5563  -16.9864 C   0  0  0  0  0  0  0  0  0  0  0  0
   19.1006  -20.1014  -13.6668 C   0  0  0  0  0  0  0  0  0  0  0  0
   19.1135  -21.3479  -13.7288 O   0  0  0  0  0  0  0  0  0  0  0  0
   17.8918  -19.4699  -13.4969 O   0  0  0  0  0  0  0  0  0  0  0  0
  2  1  1  1
  3  2  1  0
  4  6  1  0
  4  2  1  0
  4  5  1  6
  6  7  2  0
  9  8  1  6
  9 11  1  0
 10  9  1  0
 11 13  1  0
 11 12  1  1
 12  6  1  0
 13 14  2  0
 13 15  1  0
 15 16  1  0
 16 24  1  0
 16 17  1  6
 18 17  1  0
 19 18  2  0
 20 19  1  0
 21 20  2  0
 21 22  1  0
 22 23  2  0
 23 18  1  0
 24 25  2  0
 24 26  1  0
M  END
$$$$
