VTF.pdb
     RDKit          3D

 26 26  0  0  1  0  0  0  0  0999 V2000
   28.1432  -16.9300  -15.4153 C   0  0  0  0  0  0  0  0  0  0  0  0
   27.2921  -18.1422  -15.6320 C   0  0  1  0  0  0  0  0  0  0  0  0
   27.3675  -18.5824  -17.0660 C   0  0  0  0  0  0  0  0  0  0  0  0
   27.5983  -19.2610  -14.6639 C   0  0  2  0  0  0  0  0  0  0  0  0
   27.1809  -20.4963  -15.2569 N   0  0  0  0  0  0  0  0  0  0  0  0
   26.9470  -19.0689  -13.3580 C   0  0  0  0  0  0  0  0  0  0  0  0
   27.0156  -17.9900  -12.7130 O   0  0  0  0  0  0  0  0  0  0  0  0
   23.3178  -19.4792  -12.6056 C   0  0  0  0  0  0  0  0  0  0  0  0
   24.0598  -20.3519  -11.6528 C   0  0  1  0  0  0  0  0  0  0  0  0
   24.0126  -21.6592  -12.1351 O   0  0  0  0  0  0  0  0  0  0  0  0
   25.5103  -19.9570  -11.4920 C   0  0  2  0  0  0  0  0  0  0  0  0
   26.1975  -20.1194  -12.7600 N   0  0  0  0  0  0  0  0  0  0  0  0
   26.1760  -20.7167  -10.4095 C   0  0  0  0  0  0  0  0  0  0  0  0
   26.7960  -21.7788  -10.6546 O   0  0  0  0  0  0  0  0  0  0  0  0
   26.1470  -20.2879   -9.0595 N   0  0  0  0  0  0  0  0  0  0  0  0
   26.7043  -21.1426   -8.0159 C   0  0  1  0  0  0  0  0  0  0  0  0
   28.1163  -20.7900   -7.7146 C   0  0  0  0  0  0  0  0  0  0  0  0
   28.2198  -20.0188   -6.4485 C   0  0  0  0  0  0  0  0  0  0  0  0
   28.3654  -20.6935   -5.2605 C   0  0  0  0  0  0  0  0  0  0  0  0
   28.4675  -19.9868   -4.0879 C   0  0  0  0  0  0  0  0  0  0  0  0
   28.4241  -18.6098   -4.1032 C   0  0  0  0  0  0  0  0  0  0  0  0
   28.2785  -17.9348   -5.2893 C   0  0  0  0  0  0  0  0  0  0  0  0
   28.1779  -18.6357   -6.4463 C   0  0  0  0  0  0  0  0  0  0  0  0
   25.8584  -20.9910   -6.8340 C   0  0  0  0  0  0  0  0  0  0  0  0
   24.9868  -20.0984   -6.7979 O   0  0  0  0  0  0  0  0  0  0  0  0
   25.9916  -21.8163   -5.7430 O   0  0  0  0  0  0  0  0  0  0  0  0
  2  1  1  6
  3  2  1  0
  4  6  1  0
  4  2  1  0
  4  5  1  6
  6  7  2  0
  9  8  1  6
  9 11  1  0
 10  9  1  0
 11 13  1  0
 11 12  1  6
 12  6  1  0
 13 14  2  0
 13 15  1  0
 15 16  1  0
 16 24  1  0
 16 17  1  1
 18 17  1  0
 19 18  2  0
 20 19  1  0
 21 20  2  0
 21 22  1  0
 22 23  2  0
 23 18  1  0
 24 25  2  0
 24 26  1  0
M  END
$$$$
