VTF.pdb
     RDKit          3D

 26 26  0  0  1  0  0  0  0  0999 V2000
   19.0842  -11.3887  -20.2081 C   0  0  0  0  0  0  0  0  0  0  0  0
   20.2606  -12.1113  -20.7867 C   0  0  1  0  0  0  0  0  0  0  0  0
   19.8203  -13.3991  -21.4220 C   0  0  0  0  0  0  0  0  0  0  0  0
   21.0810  -11.2532  -21.7210 C   0  0  2  0  0  0  0  0  0  0  0  0
   22.2202  -12.0113  -22.1450 N   0  0  0  0  0  0  0  0  0  0  0  0
   21.5050   -9.9891  -21.0975 C   0  0  0  0  0  0  0  0  0  0  0  0
   22.6076   -9.8564  -20.5049 O   0  0  0  0  0  0  0  0  0  0  0  0
   20.7137   -5.1012  -20.7426 C   0  0  0  0  0  0  0  0  0  0  0  0
   20.3375   -6.4482  -21.2565 C   0  0  1  0  0  0  0  0  0  0  0  0
   20.6682   -6.5041  -22.6098 O   0  0  0  0  0  0  0  0  0  0  0  0
   21.0518   -7.5755  -20.5461 C   0  0  2  0  0  0  0  0  0  0  0  0
   20.6657   -8.8417  -21.1413 N   0  0  0  0  0  0  0  0  0  0  0  0
   20.8012   -7.5598  -19.0870 C   0  0  0  0  0  0  0  0  0  0  0  0
   19.8388   -8.1926  -18.5913 O   0  0  0  0  0  0  0  0  0  0  0  0
   21.6253   -6.8383  -18.1882 N   0  0  0  0  0  0  0  0  0  0  0  0
   21.2809   -6.7883  -16.7708 C   0  0  1  0  0  0  0  0  0  0  0  0
   22.3060   -7.4645  -15.9336 C   0  0  0  0  0  0  0  0  0  0  0  0
   21.9789   -7.3534  -14.4882 C   0  0  0  0  0  0  0  0  0  0  0  0
   21.2930   -8.3732  -13.8740 C   0  0  0  0  0  0  0  0  0  0  0  0
   20.9929   -8.2794  -12.5375 C   0  0  0  0  0  0  0  0  0  0  0  0
   21.3773   -7.1693  -11.8177 C   0  0  0  0  0  0  0  0  0  0  0  0
   22.0623   -6.1499  -12.4303 C   0  0  0  0  0  0  0  0  0  0  0  0
   22.3575   -6.2454  -13.7508 C   0  0  0  0  0  0  0  0  0  0  0  0
   21.1474   -5.3795  -16.4067 C   0  0  0  0  0  0  0  0  0  0  0  0
   21.8867   -4.5234  -16.9343 O   0  0  0  0  0  0  0  0  0  0  0  0
   20.2153   -4.9586  -15.4885 O   0  0  0  0  0  0  0  0  0  0  0  0
  2  1  1  6
  3  2  1  0
  4  6  1  0
  4  2  1  0
  4  5  1  1
  6  7  2  0
  9  8  1  1
  9 11  1  0
 10  9  1  0
 11 13  1  0
 11 12  1  6
 12  6  1  0
 13 14  2  0
 13 15  1  0
 15 16  1  0
 16 24  1  0
 16 17  1  1
 18 17  1  0
 19 18  2  0
 20 19  1  0
 21 20  2  0
 21 22  1  0
 22 23  2  0
 23 18  1  0
 24 25  2  0
 24 26  1  0
M  END
$$$$
