VTF.pdb
     RDKit          3D

 26 26  0  0  1  0  0  0  0  0999 V2000
   15.6538  -14.8199  -16.4752 C   0  0  0  0  0  0  0  0  0  0  0  0
   16.7695  -13.8717  -16.1643 C   0  0  1  0  0  0  0  0  0  0  0  0
   17.1192  -13.9387  -14.7052 C   0  0  0  0  0  0  0  0  0  0  0  0
   17.9722  -14.0594  -17.0592 C   0  0  2  0  0  0  0  0  0  0  0  0
   18.4327  -15.4084  -16.9175 N   0  0  0  0  0  0  0  0  0  0  0  0
   19.0544  -13.1095  -16.7538 C   0  0  0  0  0  0  0  0  0  0  0  0
   20.0691  -13.4247  -16.0790 O   0  0  0  0  0  0  0  0  0  0  0  0
   20.6964  -10.8640  -19.4377 C   0  0  0  0  0  0  0  0  0  0  0  0
   20.2975  -10.0234  -18.2740 C   0  0  1  0  0  0  0  0  0  0  0  0
   19.1053   -9.3756  -18.5953 O   0  0  0  0  0  0  0  0  0  0  0  0
   20.0773  -10.8242  -17.0107 C   0  0  2  0  0  0  0  0  0  0  0  0
   18.9941  -11.7672  -17.2203 N   0  0  0  0  0  0  0  0  0  0  0  0
   19.8248   -9.9550  -15.8390 C   0  0  0  0  0  0  0  0  0  0  0  0
   18.6711   -9.8339  -15.3630 O   0  0  0  0  0  0  0  0  0  0  0  0
   20.8603   -9.2255  -15.2043 N   0  0  0  0  0  0  0  0  0  0  0  0
   20.5487   -8.3669  -14.0659 C   0  0  1  0  0  0  0  0  0  0  0  0
   21.7785   -7.9383  -13.3499 C   0  0  0  0  0  0  0  0  0  0  0  0
   21.4586   -6.9899  -12.2514 C   0  0  0  0  0  0  0  0  0  0  0  0
   21.4652   -5.6398  -12.5058 C   0  0  0  0  0  0  0  0  0  0  0  0
   21.1648   -4.7585  -11.4967 C   0  0  0  0  0  0  0  0  0  0  0  0
   20.8590   -5.2260  -10.2373 C   0  0  0  0  0  0  0  0  0  0  0  0
   20.8523   -6.5745   -9.9819 C   0  0  0  0  0  0  0  0  0  0  0  0
   21.1494   -7.4428  -10.9809 C   0  0  0  0  0  0  0  0  0  0  0  0
   19.8092   -7.2165  -14.5805 C   0  0  0  0  0  0  0  0  0  0  0  0
   18.8713   -6.7273  -13.9180 O   0  0  0  0  0  0  0  0  0  0  0  0
   20.1206   -6.6433  -15.7903 O   0  0  0  0  0  0  0  0  0  0  0  0
  2  1  1  6
  3  2  1  0
  4  6  1  0
  4  2  1  0
  4  5  1  1
  6  7  2  0
  9  8  1  6
  9 11  1  0
 10  9  1  0
 11 13  1  0
 11 12  1  6
 12  6  1  0
 13 14  2  0
 13 15  1  0
 15 16  1  0
 16 24  1  0
 16 17  1  6
 18 17  1  0
 19 18  2  0
 20 19  1  0
 21 20  2  0
 21 22  1  0
 22 23  2  0
 23 18  1  0
 24 25  2  0
 24 26  1  0
M  END
$$$$
