YSF.pdb
     RDKit          3D

 30 31  0  0  1  0  0  0  0  0999 V2000
    8.4010  -12.9598   16.6892 O   0  0  0  0  0  0  0  0  0  0  0  0
    8.1286  -13.4096   17.9676 C   0  0  0  0  0  0  0  0  0  0  0  0
    8.0990  -14.7483   18.2502 C   0  0  0  0  0  0  0  0  0  0  0  0
    7.8306  -15.2086   19.5123 C   0  0  0  0  0  0  0  0  0  0  0  0
    7.5852  -14.2816   20.5161 C   0  0  0  0  0  0  0  0  0  0  0  0
    7.2991  -14.8447   21.8692 C   0  0  0  0  0  0  0  0  0  0  0  0
    7.2633  -16.3777   21.8211 C   0  0  2  0  0  0  0  0  0  0  0  0
    5.8699  -16.7706   21.6833 N   0  0  0  0  0  0  0  0  0  0  0  0
    7.7308  -16.8547   23.1482 C   0  0  0  0  0  0  0  0  0  0  0  0
    6.8343  -16.9255   24.0542 O   0  0  0  0  0  0  0  0  0  0  0  0
    7.6066  -12.9298   20.2692 C   0  0  0  0  0  0  0  0  0  0  0  0
    7.8799  -12.5043   18.9890 C   0  0  0  0  0  0  0  0  0  0  0  0
   11.4484  -18.2050   23.7360 O   0  0  0  0  0  0  0  0  0  0  0  0
   10.4979  -18.7421   24.5561 C   0  0  0  0  0  0  0  0  0  0  0  0
    9.3787  -17.7236   24.7525 C   0  0  2  0  0  0  0  0  0  0  0  0
    9.0679  -17.2157   23.4302 N   0  0  0  0  0  0  0  0  0  0  0  0
    9.8680  -16.6622   25.6411 C   0  0  0  0  0  0  0  0  0  0  0  0
   10.5567  -15.6777   25.2148 O   0  0  0  0  0  0  0  0  0  0  0  0
    9.5688  -16.7225   27.0240 N   0  0  0  0  0  0  0  0  0  0  0  0
   10.2044  -15.8178   27.9793 C   0  0  1  0  0  0  0  0  0  0  0  0
    9.1055  -15.0574   28.6877 C   0  0  0  0  0  0  0  0  0  0  0  0
    8.3885  -14.1943   27.7338 C   0  0  0  0  0  0  0  0  0  0  0  0
    8.8210  -12.9085   27.4933 C   0  0  0  0  0  0  0  0  0  0  0  0
    8.1764  -12.0716   26.5903 C   0  0  0  0  0  0  0  0  0  0  0  0
    7.0589  -12.5162   25.8933 C   0  0  0  0  0  0  0  0  0  0  0  0
    6.6300  -13.7997   26.1356 C   0  0  0  0  0  0  0  0  0  0  0  0
    7.2809  -14.6176   27.0348 C   0  0  0  0  0  0  0  0  0  0  0  0
   11.0987  -16.5363   28.8897 C   0  0  0  0  0  0  0  0  0  0  0  0
   11.7394  -15.8663   29.7605 O   0  0  0  0  0  0  0  0  0  0  0  0
   11.3085  -17.9009   28.8848 O   0  0  0  0  0  0  0  0  0  0  0  0
  2  1  1  0
  2  3  2  0
  4  3  1  0
  5  4  2  0
  6  5  1  0
  7  6  1  0
  7  8  1  1
  9 10  2  0
  9  7  1  0
 11 12  2  0
 11  5  1  0
 12  2  1  0
 13 14  1  0
 15 14  1  6
 15 16  1  0
 16  9  1  0
 17 18  2  0
 17 15  1  0
 19 17  1  0
 20 21  1  1
 20 19  1  0
 22 21  1  0
 22 23  2  0
 24 23  1  0
 25 24  2  0
 26 27  2  0
 26 25  1  0
 27 22  1  0
 28 20  1  0
 29 28  2  0
 30 28  1  0
M  END
$$$$
