YSF.pdb
     RDKit          3D

 30 31  0  0  1  0  0  0  0  0999 V2000
    7.8678  -16.3136   13.5412 O   0  0  0  0  0  0  0  0  0  0  0  0
    8.2227  -16.0813   14.8568 C   0  0  0  0  0  0  0  0  0  0  0  0
    7.9177  -16.9860   15.8373 C   0  0  0  0  0  0  0  0  0  0  0  0
    8.2631  -16.7692   17.1452 C   0  0  0  0  0  0  0  0  0  0  0  0
    8.9380  -15.5991   17.4657 C   0  0  0  0  0  0  0  0  0  0  0  0
    9.2867  -15.4204   18.9066 C   0  0  0  0  0  0  0  0  0  0  0  0
    8.0356  -15.0861   19.7291 C   0  0  2  0  0  0  0  0  0  0  0  0
    7.6856  -13.7051   19.4363 N   0  0  0  0  0  0  0  0  0  0  0  0
    8.4376  -15.1496   21.1579 C   0  0  0  0  0  0  0  0  0  0  0  0
    8.3268  -14.0574   21.8095 O   0  0  0  0  0  0  0  0  0  0  0  0
    9.2608  -14.6682   16.5077 C   0  0  0  0  0  0  0  0  0  0  0  0
    8.8977  -14.9200   15.2041 C   0  0  0  0  0  0  0  0  0  0  0  0
    6.8855  -17.1598   23.5083 O   0  0  0  0  0  0  0  0  0  0  0  0
    7.6650  -16.0763   23.7963 C   0  0  0  0  0  0  0  0  0  0  0  0
    9.0644  -16.3081   23.2337 C   0  0  2  0  0  0  0  0  0  0  0  0
    8.9154  -16.3193   21.7913 N   0  0  0  0  0  0  0  0  0  0  0  0
    9.5602  -17.5945   23.7389 C   0  0  0  0  0  0  0  0  0  0  0  0
    8.9573  -18.6949   23.5139 O   0  0  0  0  0  0  0  0  0  0  0  0
   10.7517  -17.6266   24.5036 N   0  0  0  0  0  0  0  0  0  0  0  0
   10.8930  -16.8357   25.7241 C   0  0  1  0  0  0  0  0  0  0  0  0
   10.2604  -15.4859   25.4685 C   0  0  0  0  0  0  0  0  0  0  0  0
   10.1551  -14.7276   26.7265 C   0  0  0  0  0  0  0  0  0  0  0  0
   11.0515  -14.9443   27.7500 C   0  0  0  0  0  0  0  0  0  0  0  0
   10.9895  -14.2376   28.9452 C   0  0  0  0  0  0  0  0  0  0  0  0
   10.0049  -13.2767   29.1439 C   0  0  0  0  0  0  0  0  0  0  0  0
    9.1120  -13.0629   28.1205 C   0  0  0  0  0  0  0  0  0  0  0  0
    9.1873  -13.7726   26.9408 C   0  0  0  0  0  0  0  0  0  0  0  0
   10.3354  -17.5322   26.8856 C   0  0  0  0  0  0  0  0  0  0  0  0
   11.0336  -17.5902   27.9472 O   0  0  0  0  0  0  0  0  0  0  0  0
    9.0965  -18.1398   26.9284 O   0  0  0  0  0  0  0  0  0  0  0  0
  2  1  1  0
  2  3  2  0
  4  3  1  0
  5  4  2  0
  6  5  1  0
  7  6  1  0
  7  8  1  6
  9 10  2  0
  9  7  1  0
 11 12  2  0
 11  5  1  0
 12  2  1  0
 13 14  1  0
 15 14  1  1
 15 16  1  0
 16  9  1  0
 17 18  2  0
 17 15  1  0
 19 17  1  0
 20 21  1  6
 20 19  1  0
 22 21  1  0
 22 23  2  0
 24 23  1  0
 25 24  2  0
 26 27  2  0
 26 25  1  0
 27 22  1  0
 28 20  1  0
 29 28  2  0
 30 28  1  0
M  END
$$$$
