YSF.pdb
     RDKit          3D

 30 31  0  0  1  0  0  0  0  0999 V2000
    7.9911  -12.4426   16.0162 O   0  0  0  0  0  0  0  0  0  0  0  0
    7.7756  -12.9721   17.2747 C   0  0  0  0  0  0  0  0  0  0  0  0
    6.5107  -13.2671   17.7059 C   0  0  0  0  0  0  0  0  0  0  0  0
    6.2819  -13.7923   18.9504 C   0  0  0  0  0  0  0  0  0  0  0  0
    7.3702  -14.0242   19.7806 C   0  0  0  0  0  0  0  0  0  0  0  0
    7.0565  -14.5971   21.1234 C   0  0  0  0  0  0  0  0  0  0  0  0
    8.1481  -15.5827   21.5600 C   0  0  2  0  0  0  0  0  0  0  0  0
    8.3056  -16.5518   20.4871 N   0  0  0  0  0  0  0  0  0  0  0  0
    7.6157  -16.3095   22.7412 C   0  0  0  0  0  0  0  0  0  0  0  0
    7.4376  -15.6015   23.7884 O   0  0  0  0  0  0  0  0  0  0  0  0
    8.6542  -13.7402   19.3814 C   0  0  0  0  0  0  0  0  0  0  0  0
    8.8456  -13.2136   18.1242 C   0  0  0  0  0  0  0  0  0  0  0  0
    7.7931  -20.4605   22.9966 O   0  0  0  0  0  0  0  0  0  0  0  0
    6.8356  -19.8054   23.7168 C   0  0  0  0  0  0  0  0  0  0  0  0
    7.3216  -18.3904   24.0170 C   0  0  2  0  0  0  0  0  0  0  0  0
    7.3136  -17.6903   22.7471 N   0  0  0  0  0  0  0  0  0  0  0  0
    8.6740  -18.4747   24.5826 C   0  0  0  0  0  0  0  0  0  0  0  0
    9.7216  -18.3023   23.8769 O   0  0  0  0  0  0  0  0  0  0  0  0
    8.8329  -18.7554   25.9615 N   0  0  0  0  0  0  0  0  0  0  0  0
    9.5044  -17.8151   26.8561 C   0  0  1  0  0  0  0  0  0  0  0  0
    8.6788  -16.5483   26.8889 C   0  0  0  0  0  0  0  0  0  0  0  0
    9.3377  -15.5341   27.7291 C   0  0  0  0  0  0  0  0  0  0  0  0
    9.0507  -15.4469   29.0738 C   0  0  0  0  0  0  0  0  0  0  0  0
    9.6634  -14.5109   29.8984 C   0  0  0  0  0  0  0  0  0  0  0  0
   10.5983  -13.6221   29.3804 C   0  0  0  0  0  0  0  0  0  0  0  0
   10.8825  -13.7117   28.0383 C   0  0  0  0  0  0  0  0  0  0  0  0
   10.2657  -14.6463   27.2337 C   0  0  0  0  0  0  0  0  0  0  0  0
    9.7323  -18.3990   28.1797 C   0  0  0  0  0  0  0  0  0  0  0  0
   10.9024  -18.3358   28.6742 O   0  0  0  0  0  0  0  0  0  0  0  0
    8.7701  -19.0211   28.9500 O   0  0  0  0  0  0  0  0  0  0  0  0
  2  1  1  0
  2  3  2  0
  4  3  1  0
  5  4  2  0
  6  5  1  0
  7  6  1  0
  7  8  1  6
  9 10  2  0
  9  7  1  0
 11 12  2  0
 11  5  1  0
 12  2  1  0
 13 14  1  0
 15 14  1  6
 15 16  1  0
 16  9  1  0
 17 18  2  0
 17 15  1  0
 19 17  1  0
 20 21  1  1
 20 19  1  0
 22 21  1  0
 22 23  2  0
 24 23  1  0
 25 24  2  0
 26 27  2  0
 26 25  1  0
 27 22  1  0
 28 20  1  0
 29 28  2  0
 30 28  1  0
M  END
$$$$
