YSF.pdb
     RDKit          3D

 30 31  0  0  1  0  0  0  0  0999 V2000
    7.5114  -11.9562   17.0556 O   0  0  0  0  0  0  0  0  0  0  0  0
    7.6533  -12.6636   18.2347 C   0  0  0  0  0  0  0  0  0  0  0  0
    6.5796  -13.2800   18.8180 C   0  0  0  0  0  0  0  0  0  0  0  0
    6.7051  -13.9845   19.9863 C   0  0  0  0  0  0  0  0  0  0  0  0
    7.9580  -14.0648   20.5787 C   0  0  0  0  0  0  0  0  0  0  0  0
    8.0305  -14.8459   21.8493 C   0  0  0  0  0  0  0  0  0  0  0  0
    8.8022  -16.1547   21.6370 C   0  0  2  0  0  0  0  0  0  0  0  0
    7.9255  -17.0565   20.9069 N   0  0  0  0  0  0  0  0  0  0  0  0
    9.0213  -16.7413   22.9843 C   0  0  0  0  0  0  0  0  0  0  0  0
    7.9814  -17.2143   23.5539 O   0  0  0  0  0  0  0  0  0  0  0  0
    9.0585  -13.4587   20.0217 C   0  0  0  0  0  0  0  0  0  0  0  0
    8.8942  -12.7595   18.8475 C   0  0  0  0  0  0  0  0  0  0  0  0
   12.6013  -17.6788   24.2675 O   0  0  0  0  0  0  0  0  0  0  0  0
   11.5754  -18.3322   24.8880 C   0  0  0  0  0  0  0  0  0  0  0  0
   10.3580  -17.4134   24.9351 C   0  0  2  0  0  0  0  0  0  0  0  0
   10.2790  -16.7921   23.6272 N   0  0  0  0  0  0  0  0  0  0  0  0
   10.5669  -16.4207   25.9966 C   0  0  0  0  0  0  0  0  0  0  0  0
   11.4019  -15.4642   25.8827 O   0  0  0  0  0  0  0  0  0  0  0  0
    9.8178  -16.5180   27.1944 N   0  0  0  0  0  0  0  0  0  0  0  0
   10.0940  -15.6490   28.3363 C   0  0  1  0  0  0  0  0  0  0  0  0
    8.7907  -14.9944   28.7368 C   0  0  0  0  0  0  0  0  0  0  0  0
    8.2812  -14.1609   27.6348 C   0  0  0  0  0  0  0  0  0  0  0  0
    8.7600  -12.8829   27.4461 C   0  0  0  0  0  0  0  0  0  0  0  0
    8.3111  -12.0740   26.4089 C   0  0  0  0  0  0  0  0  0  0  0  0
    7.3506  -12.5399   25.5187 C   0  0  0  0  0  0  0  0  0  0  0  0
    6.8749  -13.8155   25.7097 C   0  0  0  0  0  0  0  0  0  0  0  0
    7.3308  -14.6055   26.7438 C   0  0  0  0  0  0  0  0  0  0  0  0
   10.7400  -16.3816   29.4277 C   0  0  0  0  0  0  0  0  0  0  0  0
   11.1251  -15.7280   30.4486 O   0  0  0  0  0  0  0  0  0  0  0  0
   10.9692  -17.7429   29.4445 O   0  0  0  0  0  0  0  0  0  0  0  0
  2  1  1  0
  2  3  2  0
  4  3  1  0
  5  4  2  0
  6  5  1  0
  7  6  1  0
  7  8  1  6
  9 10  2  0
  9  7  1  0
 11 12  2  0
 11  5  1  0
 12  2  1  0
 13 14  1  0
 15 14  1  6
 15 16  1  0
 16  9  1  0
 17 18  2  0
 17 15  1  0
 19 17  1  0
 20 21  1  1
 20 19  1  0
 22 21  1  0
 22 23  2  0
 24 23  1  0
 25 24  2  0
 26 27  2  0
 26 25  1  0
 27 22  1  0
 28 20  1  0
 29 28  2  0
 30 28  1  0
M  END
$$$$
