YSF.pdb
     RDKit          3D

 30 31  0  0  1  0  0  0  0  0999 V2000
   17.8629  -23.4522   18.6503 O   0  0  0  0  0  0  0  0  0  0  0  0
   17.1323  -22.3780   19.1228 C   0  0  0  0  0  0  0  0  0  0  0  0
   15.9162  -22.5644   19.7221 C   0  0  0  0  0  0  0  0  0  0  0  0
   15.1810  -21.5095   20.1951 C   0  0  0  0  0  0  0  0  0  0  0  0
   15.6968  -20.2283   20.0549 C   0  0  0  0  0  0  0  0  0  0  0  0
   14.8494  -19.1212   20.5897 C   0  0  0  0  0  0  0  0  0  0  0  0
   13.6418  -18.8740   19.6764 C   0  0  2  0  0  0  0  0  0  0  0  0
   14.1290  -18.1682   18.5019 N   0  0  0  0  0  0  0  0  0  0  0  0
   12.7387  -17.9489   20.4084 C   0  0  0  0  0  0  0  0  0  0  0  0
   13.1280  -16.7348   20.4704 O   0  0  0  0  0  0  0  0  0  0  0  0
   16.9143  -20.0032   19.4584 C   0  0  0  0  0  0  0  0  0  0  0  0
   17.6247  -21.0873   18.9952 C   0  0  0  0  0  0  0  0  0  0  0  0
    9.1321  -19.0541   21.9669 O   0  0  0  0  0  0  0  0  0  0  0  0
    9.2553  -17.7944   21.4546 C   0  0  0  0  0  0  0  0  0  0  0  0
   10.6972  -17.3265   21.6287 C   0  0  2  0  0  0  0  0  0  0  0  0
   11.5225  -18.3456   21.0096 N   0  0  0  0  0  0  0  0  0  0  0  0
   10.9741  -17.2017   23.0652 C   0  0  0  0  0  0  0  0  0  0  0  0
   11.6161  -18.0896   23.7169 O   0  0  0  0  0  0  0  0  0  0  0  0
   10.5179  -16.0567   23.7626 N   0  0  0  0  0  0  0  0  0  0  0  0
   10.6407  -15.9524   25.2150 C   0  0  1  0  0  0  0  0  0  0  0  0
   10.3000  -14.5301   25.6003 C   0  0  0  0  0  0  0  0  0  0  0  0
   10.3330  -14.3787   27.0648 C   0  0  0  0  0  0  0  0  0  0  0  0
   11.5267  -14.4546   27.7484 C   0  0  0  0  0  0  0  0  0  0  0  0
   11.5960  -14.3034   29.1283 C   0  0  0  0  0  0  0  0  0  0  0  0
   10.4436  -14.0674   29.8688 C   0  0  0  0  0  0  0  0  0  0  0  0
    9.2541  -13.9922   29.1836 C   0  0  0  0  0  0  0  0  0  0  0  0
    9.2024  -14.1444   27.8141 C   0  0  0  0  0  0  0  0  0  0  0  0
    9.8216  -16.9556   25.8989 C   0  0  0  0  0  0  0  0  0  0  0  0
    8.6227  -17.1239   25.5090 O   0  0  0  0  0  0  0  0  0  0  0  0
   10.2463  -17.7482   26.9465 O   0  0  0  0  0  0  0  0  0  0  0  0
  2  1  1  0
  2  3  2  0
  4  3  1  0
  5  4  2  0
  6  5  1  0
  7  6  1  0
  7  8  1  6
  9 10  2  0
  9  7  1  0
 11 12  2  0
 11  5  1  0
 12  2  1  0
 13 14  1  0
 15 14  1  1
 15 16  1  0
 16  9  1  0
 17 18  2  0
 17 15  1  0
 19 17  1  0
 20 21  1  1
 20 19  1  0
 22 21  1  0
 22 23  2  0
 24 23  1  0
 25 24  2  0
 26 27  2  0
 26 25  1  0
 27 22  1  0
 28 20  1  0
 29 28  2  0
 30 28  1  0
M  END
$$$$
