YSF.pdb
     RDKit          3D

 30 31  0  0  1  0  0  0  0  0999 V2000
    8.7608  -12.0972   17.8319 O   0  0  0  0  0  0  0  0  0  0  0  0
    8.2808  -12.8308   18.9007 C   0  0  0  0  0  0  0  0  0  0  0  0
    6.9749  -13.2379   18.9437 C   0  0  0  0  0  0  0  0  0  0  0  0
    6.4852  -13.9653   19.9963 C   0  0  0  0  0  0  0  0  0  0  0  0
    7.3477  -14.2882   21.0351 C   0  0  0  0  0  0  0  0  0  0  0  0
    6.7553  -15.0818   22.1528 C   0  0  0  0  0  0  0  0  0  0  0  0
    7.1025  -16.5687   22.0043 C   0  0  2  0  0  0  0  0  0  0  0  0
    5.8478  -17.2909   21.8655 N   0  0  0  0  0  0  0  0  0  0  0  0
    7.7187  -16.9907   23.2886 C   0  0  0  0  0  0  0  0  0  0  0  0
    6.9141  -17.1061   24.2730 O   0  0  0  0  0  0  0  0  0  0  0  0
    8.6649  -13.8965   21.0260 C   0  0  0  0  0  0  0  0  0  0  0  0
    9.1216  -13.1668   19.9518 C   0  0  0  0  0  0  0  0  0  0  0  0
   10.8016  -18.9230   23.1617 O   0  0  0  0  0  0  0  0  0  0  0  0
   10.7906  -18.5672   24.4800 C   0  0  0  0  0  0  0  0  0  0  0  0
    9.5621  -17.7036   24.7508 C   0  0  2  0  0  0  0  0  0  0  0  0
    9.0974  -17.2563   23.4521 N   0  0  0  0  0  0  0  0  0  0  0  0
    9.9656  -16.5768   25.6013 C   0  0  0  0  0  0  0  0  0  0  0  0
   10.6283  -15.5848   25.1520 O   0  0  0  0  0  0  0  0  0  0  0  0
    9.6097  -16.5801   26.9720 N   0  0  0  0  0  0  0  0  0  0  0  0
   10.2676  -15.6945   27.9302 C   0  0  1  0  0  0  0  0  0  0  0  0
    9.1873  -14.9162   28.6478 C   0  0  0  0  0  0  0  0  0  0  0  0
    8.4602  -14.0601   27.6955 C   0  0  0  0  0  0  0  0  0  0  0  0
    7.3272  -14.5236   27.0634 C   0  0  0  0  0  0  0  0  0  0  0  0
    6.6093  -13.7383   26.1692 C   0  0  0  0  0  0  0  0  0  0  0  0
    7.0217  -12.4420   25.8833 C   0  0  0  0  0  0  0  0  0  0  0  0
    8.1526  -11.9825   26.5158 C   0  0  0  0  0  0  0  0  0  0  0  0
    8.8535  -12.7744   27.4005 C   0  0  0  0  0  0  0  0  0  0  0  0
   11.1507  -16.4369   28.8324 C   0  0  0  0  0  0  0  0  0  0  0  0
   11.7979  -15.7871   29.7137 O   0  0  0  0  0  0  0  0  0  0  0  0
   11.3432  -17.8038   28.8090 O   0  0  0  0  0  0  0  0  0  0  0  0
  2  1  1  0
  2  3  2  0
  4  3  1  0
  5  4  2  0
  6  5  1  0
  7  6  1  0
  7  8  1  1
  9 10  2  0
  9  7  1  0
 11 12  2  0
 11  5  1  0
 12  2  1  0
 13 14  1  0
 15 14  1  6
 15 16  1  0
 16  9  1  0
 17 18  2  0
 17 15  1  0
 19 17  1  0
 20 21  1  1
 20 19  1  0
 22 21  1  0
 22 23  2  0
 24 23  1  0
 25 24  2  0
 26 27  2  0
 26 25  1  0
 27 22  1  0
 28 20  1  0
 29 28  2  0
 30 28  1  0
M  END
$$$$
