YSF.pdb
     RDKit          3D

 30 31  0  0  1  0  0  0  0  0999 V2000
    7.9888  -12.3545   16.7197 O   0  0  0  0  0  0  0  0  0  0  0  0
    7.8140  -13.0876   17.8785 C   0  0  0  0  0  0  0  0  0  0  0  0
    8.0296  -12.5231   19.1064 C   0  0  0  0  0  0  0  0  0  0  0  0
    7.8603  -13.2373   20.2633 C   0  0  0  0  0  0  0  0  0  0  0  0
    7.4603  -14.5634   20.1693 C   0  0  0  0  0  0  0  0  0  0  0  0
    7.2931  -15.2882   21.4641 C   0  0  0  0  0  0  0  0  0  0  0  0
    6.7250  -16.6936   21.2283 C   0  0  2  0  0  0  0  0  0  0  0  0
    5.2842  -16.5561   21.0863 N   0  0  0  0  0  0  0  0  0  0  0  0
    6.9775  -17.4673   22.4712 C   0  0  0  0  0  0  0  0  0  0  0  0
    6.4473  -16.9933   23.5313 O   0  0  0  0  0  0  0  0  0  0  0  0
    7.2346  -15.1633   18.9536 C   0  0  0  0  0  0  0  0  0  0  0  0
    7.4148  -14.4146   17.8127 C   0  0  0  0  0  0  0  0  0  0  0  0
    9.8617  -20.5336   22.8259 O   0  0  0  0  0  0  0  0  0  0  0  0
    8.7474  -20.5075   23.6146 C   0  0  0  0  0  0  0  0  0  0  0  0
    8.3016  -19.0596   23.7963 C   0  0  2  0  0  0  0  0  0  0  0  0
    7.7467  -18.6521   22.5200 N   0  0  0  0  0  0  0  0  0  0  0  0
    9.4747  -18.2552   24.1604 C   0  0  0  0  0  0  0  0  0  0  0  0
    9.9256  -17.3269   23.4120 O   0  0  0  0  0  0  0  0  0  0  0  0
   10.1368  -18.5097   25.3861 N   0  0  0  0  0  0  0  0  0  0  0  0
   10.5719  -17.4188   26.2556 C   0  0  1  0  0  0  0  0  0  0  0  0
    9.3469  -16.6098   26.6199 C   0  0  0  0  0  0  0  0  0  0  0  0
    9.7277  -15.4613   27.4592 C   0  0  0  0  0  0  0  0  0  0  0  0
   10.3010  -14.3429   26.8948 C   0  0  0  0  0  0  0  0  0  0  0  0
   10.6605  -13.2364   27.6550 C   0  0  0  0  0  0  0  0  0  0  0  0
   10.4479  -13.2275   29.0286 C   0  0  0  0  0  0  0  0  0  0  0  0
    9.8756  -14.3450   29.5887 C   0  0  0  0  0  0  0  0  0  0  0  0
    9.5246  -15.4348   28.8203 C   0  0  0  0  0  0  0  0  0  0  0  0
   11.3103  -17.9174   27.4181 C   0  0  0  0  0  0  0  0  0  0  0  0
   12.5099  -17.5285   27.5835 O   0  0  0  0  0  0  0  0  0  0  0  0
   10.8074  -18.7863   28.3658 O   0  0  0  0  0  0  0  0  0  0  0  0
  2  1  1  0
  2  3  2  0
  4  3  1  0
  5  4  2  0
  6  5  1  0
  7  6  1  0
  7  8  1  1
  9 10  2  0
  9  7  1  0
 11 12  2  0
 11  5  1  0
 12  2  1  0
 13 14  1  0
 15 14  1  6
 15 16  1  0
 16  9  1  0
 17 18  2  0
 17 15  1  0
 19 17  1  0
 20 21  1  1
 20 19  1  0
 22 21  1  0
 22 23  2  0
 24 23  1  0
 25 24  2  0
 26 27  2  0
 26 25  1  0
 27 22  1  0
 28 20  1  0
 29 28  2  0
 30 28  1  0
M  END
$$$$
