YSF.pdb
     RDKit          3D

 30 31  0  0  1  0  0  0  0  0999 V2000
    8.6722  -13.6336   13.3266 O   0  0  0  0  0  0  0  0  0  0  0  0
    8.6306  -14.0563   14.6421 C   0  0  0  0  0  0  0  0  0  0  0  0
    9.5823  -14.9055   15.1378 C   0  0  0  0  0  0  0  0  0  0  0  0
    9.5538  -15.3327   16.4392 C   0  0  0  0  0  0  0  0  0  0  0  0
    8.5285  -14.8838   17.2603 C   0  0  0  0  0  0  0  0  0  0  0  0
    8.5519  -15.3842   18.6671 C   0  0  0  0  0  0  0  0  0  0  0  0
    8.6297  -16.9161   18.6955 C   0  0  2  0  0  0  0  0  0  0  0  0
    7.3929  -17.4197   18.1195 N   0  0  0  0  0  0  0  0  0  0  0  0
    8.6478  -17.3135   20.1269 C   0  0  0  0  0  0  0  0  0  0  0  0
    7.5033  -17.5041   20.6592 O   0  0  0  0  0  0  0  0  0  0  0  0
    7.5557  -14.0307   16.7971 C   0  0  0  0  0  0  0  0  0  0  0  0
    7.6167  -13.6226   15.4839 C   0  0  0  0  0  0  0  0  0  0  0  0
   12.0532  -17.9347   22.1644 O   0  0  0  0  0  0  0  0  0  0  0  0
   10.9623  -18.5997   22.6464 C   0  0  0  0  0  0  0  0  0  0  0  0
    9.7041  -17.8134   22.2899 C   0  0  2  0  0  0  0  0  0  0  0  0
    9.8296  -17.4801   20.8842 N   0  0  0  0  0  0  0  0  0  0  0  0
    9.6546  -16.6111   23.1312 C   0  0  0  0  0  0  0  0  0  0  0  0
   10.3703  -15.5827   22.8960 O   0  0  0  0  0  0  0  0  0  0  0  0
    8.7822  -16.5804   24.2463 N   0  0  0  0  0  0  0  0  0  0  0  0
    8.7333  -15.4263   25.1414 C   0  0  1  0  0  0  0  0  0  0  0  0
    7.2908  -15.2270   25.5499 C   0  0  0  0  0  0  0  0  0  0  0  0
    7.1740  -14.0709   26.4546 C   0  0  0  0  0  0  0  0  0  0  0  0
    7.2766  -14.2377   27.8184 C   0  0  0  0  0  0  0  0  0  0  0  0
    7.1844  -13.1674   28.7001 C   0  0  0  0  0  0  0  0  0  0  0  0
    6.9828  -11.8777   28.2223 C   0  0  0  0  0  0  0  0  0  0  0  0
    6.8809  -11.7147   26.8610 C   0  0  0  0  0  0  0  0  0  0  0  0
    6.9747  -12.7873   25.9995 C   0  0  0  0  0  0  0  0  0  0  0  0
    9.6457  -15.5849   26.2760 C   0  0  0  0  0  0  0  0  0  0  0  0
   10.4357  -14.6276   26.5538 O   0  0  0  0  0  0  0  0  0  0  0  0
    9.7223  -16.7018   27.0839 O   0  0  0  0  0  0  0  0  0  0  0  0
  2  1  1  0
  2  3  2  0
  4  3  1  0
  5  4  2  0
  6  5  1  0
  7  6  1  0
  7  8  1  6
  9 10  2  0
  9  7  1  0
 11 12  2  0
 11  5  1  0
 12  2  1  0
 13 14  1  0
 15 14  1  1
 15 16  1  0
 16  9  1  0
 17 18  2  0
 17 15  1  0
 19 17  1  0
 20 21  1  1
 20 19  1  0
 22 21  1  0
 22 23  2  0
 24 23  1  0
 25 24  2  0
 26 27  2  0
 26 25  1  0
 27 22  1  0
 28 20  1  0
 29 28  2  0
 30 28  1  0
M  END
$$$$
