YSF.pdb
     RDKit          3D

 30 31  0  0  1  0  0  0  0  0999 V2000
    8.4474  -12.4696   16.7830 O   0  0  0  0  0  0  0  0  0  0  0  0
    8.1567  -13.0499   18.0035 C   0  0  0  0  0  0  0  0  0  0  0  0
    9.0474  -13.8929   18.6108 C   0  0  0  0  0  0  0  0  0  0  0  0
    8.7729  -14.4751   19.8203 C   0  0  0  0  0  0  0  0  0  0  0  0
    7.5582  -14.1924   20.4298 C   0  0  0  0  0  0  0  0  0  0  0  0
    7.3176  -14.8567   21.7453 C   0  0  0  0  0  0  0  0  0  0  0  0
    7.4893  -16.3764   21.6238 C   0  0  2  0  0  0  0  0  0  0  0  0
    6.2454  -16.9077   21.0893 N   0  0  0  0  0  0  0  0  0  0  0  0
    7.6379  -16.8984   23.0067 C   0  0  0  0  0  0  0  0  0  0  0  0
    6.5542  -17.0092   23.6722 O   0  0  0  0  0  0  0  0  0  0  0  0
    6.6396  -13.3508   19.8495 C   0  0  0  0  0  0  0  0  0  0  0  0
    6.9499  -12.7841   18.6341 C   0  0  0  0  0  0  0  0  0  0  0  0
   10.8239  -18.7940   24.3239 O   0  0  0  0  0  0  0  0  0  0  0  0
    9.6979  -18.9043   25.0884 C   0  0  0  0  0  0  0  0  0  0  0  0
    8.9035  -17.6050   24.9925 C   0  0  2  0  0  0  0  0  0  0  0  0
    8.8764  -17.2595   23.5844 N   0  0  0  0  0  0  0  0  0  0  0  0
    9.5905  -16.5814   25.7901 C   0  0  0  0  0  0  0  0  0  0  0  0
   10.5023  -15.8347   25.3041 O   0  0  0  0  0  0  0  0  0  0  0  0
    9.2345  -16.4068   27.1496 N   0  0  0  0  0  0  0  0  0  0  0  0
   10.0234  -15.5569   28.0388 C   0  0  1  0  0  0  0  0  0  0  0  0
    9.1018  -14.4895   28.5855 C   0  0  0  0  0  0  0  0  0  0  0  0
    8.5851  -13.6539   27.4885 C   0  0  0  0  0  0  0  0  0  0  0  0
    9.3434  -12.6227   26.9788 C   0  0  0  0  0  0  0  0  0  0  0  0
    8.8925  -11.8228   25.9355 C   0  0  0  0  0  0  0  0  0  0  0  0
    7.6432  -12.0451   25.3681 C   0  0  0  0  0  0  0  0  0  0  0  0
    6.8890  -13.0748   25.8789 C   0  0  0  0  0  0  0  0  0  0  0  0
    7.3511  -13.8593   26.9145 C   0  0  0  0  0  0  0  0  0  0  0  0
   10.6932  -16.3401   29.0794 C   0  0  0  0  0  0  0  0  0  0  0  0
   10.3517  -17.5555   29.2341 O   0  0  0  0  0  0  0  0  0  0  0  0
   11.6804  -15.8653   29.9196 O   0  0  0  0  0  0  0  0  0  0  0  0
  2  1  1  0
  2  3  2  0
  4  3  1  0
  5  4  2  0
  6  5  1  0
  7  6  1  0
  7  8  1  1
  9 10  2  0
  9  7  1  0
 11 12  2  0
 11  5  1  0
 12  2  1  0
 13 14  1  0
 15 14  1  6
 15 16  1  0
 16  9  1  0
 17 18  2  0
 17 15  1  0
 19 17  1  0
 20 21  1  1
 20 19  1  0
 22 21  1  0
 22 23  2  0
 24 23  1  0
 25 24  2  0
 26 27  2  0
 26 25  1  0
 27 22  1  0
 28 20  1  0
 29 28  2  0
 30 28  1  0
M  END
$$$$
