YSF.pdb
     RDKit          3D

 30 31  0  0  1  0  0  0  0  0999 V2000
    8.5095  -12.2541   17.7226 O   0  0  0  0  0  0  0  0  0  0  0  0
    8.1273  -13.0144   18.8119 C   0  0  0  0  0  0  0  0  0  0  0  0
    7.7591  -12.4208   19.9888 C   0  0  0  0  0  0  0  0  0  0  0  0
    7.3781  -13.1614   21.0766 C   0  0  0  0  0  0  0  0  0  0  0  0
    7.3710  -14.5451   20.9650 C   0  0  0  0  0  0  0  0  0  0  0  0
    6.9465  -15.2962   22.1837 C   0  0  0  0  0  0  0  0  0  0  0  0
    7.1734  -16.8021   21.9980 C   0  0  2  0  0  0  0  0  0  0  0  0
    5.8863  -17.4554   22.1760 N   0  0  0  0  0  0  0  0  0  0  0  0
    8.0521  -17.2395   23.1132 C   0  0  0  0  0  0  0  0  0  0  0  0
    7.4503  -17.5847   24.1847 O   0  0  0  0  0  0  0  0  0  0  0  0
    7.7343  -15.1756   19.7992 C   0  0  0  0  0  0  0  0  0  0  0  0
    8.1113  -14.3990   18.7271 C   0  0  0  0  0  0  0  0  0  0  0  0
   12.0872  -16.6870   23.2148 O   0  0  0  0  0  0  0  0  0  0  0  0
   11.6506  -17.8618   23.7569 C   0  0  0  0  0  0  0  0  0  0  0  0
   10.2043  -17.6912   24.2124 C   0  0  2  0  0  0  0  0  0  0  0  0
    9.4626  -17.2849   23.0343 N   0  0  0  0  0  0  0  0  0  0  0  0
   10.1661  -16.6631   25.2599 C   0  0  0  0  0  0  0  0  0  0  0  0
    9.8151  -15.4604   25.0243 O   0  0  0  0  0  0  0  0  0  0  0  0
   10.5286  -17.0088   26.5845 N   0  0  0  0  0  0  0  0  0  0  0  0
   10.1919  -16.1455   27.7145 C   0  0  1  0  0  0  0  0  0  0  0  0
    8.6927  -15.9455   27.7046 C   0  0  0  0  0  0  0  0  0  0  0  0
    8.3611  -14.6158   27.1653 C   0  0  0  0  0  0  0  0  0  0  0  0
    7.3575  -14.4705   26.2327 C   0  0  0  0  0  0  0  0  0  0  0  0
    7.0097  -13.2295   25.7126 C   0  0  0  0  0  0  0  0  0  0  0  0
    7.6759  -12.0817   26.1261 C   0  0  0  0  0  0  0  0  0  0  0  0
    8.6768  -12.2302   27.0569 C   0  0  0  0  0  0  0  0  0  0  0  0
    9.0097  -13.4688   27.5631 C   0  0  0  0  0  0  0  0  0  0  0  0
   10.7013  -16.6861   28.9767 C   0  0  0  0  0  0  0  0  0  0  0  0
   11.0413  -15.8688   29.8900 O   0  0  0  0  0  0  0  0  0  0  0  0
   10.8453  -18.0284   29.2656 O   0  0  0  0  0  0  0  0  0  0  0  0
  2  1  1  0
  2  3  2  0
  4  3  1  0
  5  4  2  0
  6  5  1  0
  7  6  1  0
  7  8  1  1
  9 10  2  0
  9  7  1  0
 11 12  2  0
 11  5  1  0
 12  2  1  0
 13 14  1  0
 15 14  1  6
 15 16  1  0
 16  9  1  0
 17 18  2  0
 17 15  1  0
 19 17  1  0
 20 21  1  1
 20 19  1  0
 22 21  1  0
 22 23  2  0
 24 23  1  0
 25 24  2  0
 26 27  2  0
 26 25  1  0
 27 22  1  0
 28 20  1  0
 29 28  2  0
 30 28  1  0
M  END
$$$$
