YSF.pdb
     RDKit          3D

 30 31  0  0  1  0  0  0  0  0999 V2000
    7.6409  -13.4773   15.3522 O   0  0  0  0  0  0  0  0  0  0  0  0
    7.6086  -13.8481   16.6835 C   0  0  0  0  0  0  0  0  0  0  0  0
    8.0221  -12.9867   17.6632 C   0  0  0  0  0  0  0  0  0  0  0  0
    7.9957  -13.3404   18.9865 C   0  0  0  0  0  0  0  0  0  0  0  0
    7.5359  -14.6061   19.3237 C   0  0  0  0  0  0  0  0  0  0  0  0
    7.5313  -14.9324   20.7808 C   0  0  0  0  0  0  0  0  0  0  0  0
    8.9569  -15.1999   21.2803 C   0  0  2  0  0  0  0  0  0  0  0  0
    9.5490  -16.1804   20.3841 N   0  0  0  0  0  0  0  0  0  0  0  0
    8.8259  -15.8392   22.6149 C   0  0  0  0  0  0  0  0  0  0  0  0
    8.1897  -15.1611   23.4895 O   0  0  0  0  0  0  0  0  0  0  0  0
    7.1128  -15.4974   18.3669 C   0  0  0  0  0  0  0  0  0  0  0  0
    7.1536  -15.1071   17.0476 C   0  0  0  0  0  0  0  0  0  0  0  0
   11.0074  -19.0697   23.7390 O   0  0  0  0  0  0  0  0  0  0  0  0
    9.7710  -18.9993   24.3142 C   0  0  0  0  0  0  0  0  0  0  0  0
    9.3075  -17.5455   24.3182 C   0  0  2  0  0  0  0  0  0  0  0  0
    9.3548  -17.1102   22.9357 N   0  0  0  0  0  0  0  0  0  0  0  0
   10.2227  -16.7691   25.1640 C   0  0  0  0  0  0  0  0  0  0  0  0
   11.3136  -16.2804   24.7209 O   0  0  0  0  0  0  0  0  0  0  0  0
    9.8913  -16.5470   26.5228 N   0  0  0  0  0  0  0  0  0  0  0  0
   10.7628  -15.7686   27.4002 C   0  0  1  0  0  0  0  0  0  0  0  0
   10.6931  -14.3266   26.9493 C   0  0  0  0  0  0  0  0  0  0  0  0
    9.3132  -13.8249   27.0626 C   0  0  0  0  0  0  0  0  0  0  0  0
    8.3760  -14.1347   26.1015 C   0  0  0  0  0  0  0  0  0  0  0  0
    7.0620  -13.6893   26.1836 C   0  0  0  0  0  0  0  0  0  0  0  0
    6.6506  -12.9059   27.2556 C   0  0  0  0  0  0  0  0  0  0  0  0
    7.5882  -12.5986   28.2129 C   0  0  0  0  0  0  0  0  0  0  0  0
    8.8880  -13.0486   28.1167 C   0  0  0  0  0  0  0  0  0  0  0  0
   10.4159  -15.9576   28.8105 C   0  0  0  0  0  0  0  0  0  0  0  0
   11.0885  -15.3279   29.6873 O   0  0  0  0  0  0  0  0  0  0  0  0
    9.4043  -16.7729   29.2776 O   0  0  0  0  0  0  0  0  0  0  0  0
  2  1  1  0
  2  3  2  0
  4  3  1  0
  5  4  2  0
  6  5  1  0
  7  6  1  0
  7  8  1  6
  9 10  2  0
  9  7  1  0
 11 12  2  0
 11  5  1  0
 12  2  1  0
 13 14  1  0
 15 14  1  6
 15 16  1  0
 16  9  1  0
 17 18  2  0
 17 15  1  0
 19 17  1  0
 20 21  1  6
 20 19  1  0
 22 21  1  0
 22 23  2  0
 24 23  1  0
 25 24  2  0
 26 27  2  0
 26 25  1  0
 27 22  1  0
 28 20  1  0
 29 28  2  0
 30 28  1  0
M  END
$$$$
