YSF.pdb
     RDKit          3D

 30 31  0  0  1  0  0  0  0  0999 V2000
    8.3206  -13.2776   15.8664 O   0  0  0  0  0  0  0  0  0  0  0  0
    8.2168  -13.6514   17.1932 C   0  0  0  0  0  0  0  0  0  0  0  0
    8.7464  -14.8339   17.6336 C   0  0  0  0  0  0  0  0  0  0  0  0
    8.6512  -15.2175   18.9455 C   0  0  0  0  0  0  0  0  0  0  0  0
    7.9989  -14.3748   19.8351 C   0  0  0  0  0  0  0  0  0  0  0  0
    7.9278  -14.8477   21.2497 C   0  0  0  0  0  0  0  0  0  0  0  0
    7.5124  -16.3234   21.3070 C   0  0  2  0  0  0  0  0  0  0  0  0
    6.0607  -16.3643   21.2291 N   0  0  0  0  0  0  0  0  0  0  0  0
    7.8998  -16.8213   22.6520 C   0  0  0  0  0  0  0  0  0  0  0  0
    7.0089  -16.7055   23.5589 O   0  0  0  0  0  0  0  0  0  0  0  0
    7.4549  -13.1800   19.4286 C   0  0  0  0  0  0  0  0  0  0  0  0
    7.5700  -12.8277   18.1030 C   0  0  0  0  0  0  0  0  0  0  0  0
   11.2500  -18.9261   23.3357 O   0  0  0  0  0  0  0  0  0  0  0  0
   10.2110  -19.1137   24.2015 C   0  0  0  0  0  0  0  0  0  0  0  0
    9.4164  -17.8157   24.3120 C   0  0  2  0  0  0  0  0  0  0  0  0
    9.1586  -17.3911   22.9496 N   0  0  0  0  0  0  0  0  0  0  0  0
   10.2292  -16.8349   25.0423 C   0  0  0  0  0  0  0  0  0  0  0  0
   11.1615  -16.1688   24.4835 O   0  0  0  0  0  0  0  0  0  0  0  0
    9.9762  -16.6109   26.4175 N   0  0  0  0  0  0  0  0  0  0  0  0
   10.7808  -15.6711   27.1950 C   0  0  1  0  0  0  0  0  0  0  0  0
   10.5039  -14.2834   26.6610 C   0  0  0  0  0  0  0  0  0  0  0  0
    9.0900  -13.9303   26.8728 C   0  0  0  0  0  0  0  0  0  0  0  0
    8.7239  -13.1071   27.9151 C   0  0  0  0  0  0  0  0  0  0  0  0
    7.4009  -12.7432   28.1363 C   0  0  0  0  0  0  0  0  0  0  0  0
    6.3941  -13.2075   27.2979 C   0  0  0  0  0  0  0  0  0  0  0  0
    6.7628  -14.0287   26.2588 C   0  0  0  0  0  0  0  0  0  0  0  0
    8.0801  -14.3803   26.0530 C   0  0  0  0  0  0  0  0  0  0  0  0
   10.5293  -15.8058   28.6316 C   0  0  0  0  0  0  0  0  0  0  0  0
    9.6539  -16.6449   29.0151 O   0  0  0  0  0  0  0  0  0  0  0  0
   11.1722  -15.0895   29.6213 O   0  0  0  0  0  0  0  0  0  0  0  0
  2  1  1  0
  2  3  2  0
  4  3  1  0
  5  4  2  0
  6  5  1  0
  7  6  1  0
  7  8  1  1
  9 10  2  0
  9  7  1  0
 11 12  2  0
 11  5  1  0
 12  2  1  0
 13 14  1  0
 15 14  1  6
 15 16  1  0
 16  9  1  0
 17 18  2  0
 17 15  1  0
 19 17  1  0
 20 21  1  6
 20 19  1  0
 22 21  1  0
 22 23  2  0
 24 23  1  0
 25 24  2  0
 26 27  2  0
 26 25  1  0
 27 22  1  0
 28 20  1  0
 29 28  2  0
 30 28  1  0
M  END
$$$$
