THH.pdb
     RDKit          3D

 28 29  0  0  1  0  0  0  0  0999 V2000
   11.6925  -19.8307   20.7138 C   0  0  0  0  0  0  0  0  0  0  0  0
   12.0420  -19.0106   19.4812 C   0  0  1  0  0  0  0  0  0  0  0  0
   12.3168  -19.8099   18.3899 O   0  0  0  0  0  0  0  0  0  0  0  0
   10.8357  -18.1035   19.2153 C   0  0  2  0  0  0  0  0  0  0  0  0
   11.0007  -17.4305   17.9422 N   0  0  0  0  0  0  0  0  0  0  0  0
   10.7024  -17.0667   20.2655 C   0  0  0  0  0  0  0  0  0  0  0  0
   11.3885  -15.9983   20.2061 O   0  0  0  0  0  0  0  0  0  0  0  0
    9.8404  -17.1757   21.3696 N   0  0  0  0  0  0  0  0  0  0  0  0
    9.8013  -16.1269   22.4397 C   0  0  1  0  0  0  0  0  0  0  0  0
    8.3432  -15.9190   22.6398 C   0  0  0  0  0  0  0  0  0  0  0  0
    7.4760  -17.0828   22.7341 C   0  0  0  0  0  0  0  0  0  0  0  0
    7.9943  -18.3852   22.5530 C   0  0  0  0  0  0  0  0  0  0  0  0
    7.0246  -19.2926   22.6835 N   0  0  0  0  0  0  0  0  0  0  0  0
    5.8915  -18.5984   22.9453 C   0  0  0  0  0  0  0  0  0  0  0  0
    6.1870  -17.2891   22.9699 N   0  0  0  0  0  0  0  0  0  0  0  0
   10.5353  -16.7203   23.5714 C   0  0  0  0  0  0  0  0  0  0  0  0
   10.4199  -18.0001   23.7030 O   0  0  0  0  0  0  0  0  0  0  0  0
   11.3400  -16.0723   24.5121 N   0  0  0  0  0  0  0  0  0  0  0  0
   11.1177  -16.2966   25.9821 C   0  0  1  0  0  0  0  0  0  0  0  0
    9.8602  -15.6019   26.3343 C   0  0  0  0  0  0  0  0  0  0  0  0
    9.8465  -14.9062   27.6086 C   0  0  0  0  0  0  0  0  0  0  0  0
   10.8012  -14.6812   28.5687 C   0  0  0  0  0  0  0  0  0  0  0  0
   10.2954  -13.9007   29.5691 N   0  0  0  0  0  0  0  0  0  0  0  0
    9.0341  -13.6377   29.2376 C   0  0  0  0  0  0  0  0  0  0  0  0
    8.7500  -14.2239   28.0803 N   0  0  0  0  0  0  0  0  0  0  0  0
   11.0742  -17.7751   26.1694 C   0  0  0  0  0  0  0  0  0  0  0  0
   10.4942  -18.6880   25.3374 O   0  0  0  0  0  0  0  0  0  0  0  0
   11.6307  -18.2847   27.2101 O   0  0  0  0  0  0  0  0  0  0  0  0
  2  4  1  0
  2  1  1  1
  3  2  1  0
  4  6  1  0
  4  5  1  6
  6  7  2  0
  8  6  1  0
  8  9  1  0
  9 16  1  0
  9 10  1  1
 10 11  1  0
 11 12  2  0
 12 13  1  0
 14 13  1  0
 15 11  1  0
 15 14  2  0
 16 17  2  0
 18 19  1  0
 18 16  1  0
 19 26  1  0
 19 20  1  6
 21 20  1  0
 22 21  2  0
 23 22  1  0
 24 23  1  0
 24 25  2  0
 25 21  1  0
 26 28  2  0
 26 27  1  0
M  END
$$$$
