THH.pdb
     RDKit          3D

 28 29  0  0  1  0  0  0  0  0999 V2000
   10.5008  -20.2925   18.4022 C   0  0  0  0  0  0  0  0  0  0  0  0
    9.0744  -19.7802   18.2705 C   0  0  1  0  0  0  0  0  0  0  0  0
    8.3258  -20.0405   19.4005 O   0  0  0  0  0  0  0  0  0  0  0  0
    9.1837  -18.2736   18.0117 C   0  0  2  0  0  0  0  0  0  0  0  0
   10.0449  -18.0344   16.8705 N   0  0  0  0  0  0  0  0  0  0  0  0
    9.7662  -17.5698   19.1782 C   0  0  0  0  0  0  0  0  0  0  0  0
   11.0142  -17.3344   19.2308 O   0  0  0  0  0  0  0  0  0  0  0  0
    9.0158  -17.1226   20.2787 N   0  0  0  0  0  0  0  0  0  0  0  0
    9.6486  -16.3509   21.3969 C   0  0  1  0  0  0  0  0  0  0  0  0
    8.6075  -15.3427   21.7278 C   0  0  0  0  0  0  0  0  0  0  0  0
    8.4723  -14.1704   20.8777 C   0  0  0  0  0  0  0  0  0  0  0  0
    9.3210  -13.9861   19.7627 C   0  0  0  0  0  0  0  0  0  0  0  0
    9.0180  -12.8498   19.1320 N   0  0  0  0  0  0  0  0  0  0  0  0
    7.9899  -12.2991   19.8205 C   0  0  0  0  0  0  0  0  0  0  0  0
    7.6854  -13.1028   20.8518 N   0  0  0  0  0  0  0  0  0  0  0  0
    9.9307  -17.3592   22.4339 C   0  0  0  0  0  0  0  0  0  0  0  0
    8.9302  -18.0987   22.7812 O   0  0  0  0  0  0  0  0  0  0  0  0
   11.1423  -17.6149   23.0811 N   0  0  0  0  0  0  0  0  0  0  0  0
   11.2149  -18.6445   24.1743 C   0  0  1  0  0  0  0  0  0  0  0  0
   12.2814  -19.5962   23.7939 C   0  0  0  0  0  0  0  0  0  0  0  0
   11.9233  -20.6016   22.8094 C   0  0  0  0  0  0  0  0  0  0  0  0
   10.7586  -20.8964   22.1456 C   0  0  0  0  0  0  0  0  0  0  0  0
   10.9619  -21.9134   21.2567 N   0  0  0  0  0  0  0  0  0  0  0  0
   12.2441  -22.2521   21.3618 C   0  0  0  0  0  0  0  0  0  0  0  0
   12.8298  -21.4866   22.2755 N   0  0  0  0  0  0  0  0  0  0  0  0
   11.4869  -17.8898   25.4311 C   0  0  0  0  0  0  0  0  0  0  0  0
   11.3035  -18.3346   26.7079 O   0  0  0  0  0  0  0  0  0  0  0  0
   11.9443  -16.6913   25.3477 O   0  0  0  0  0  0  0  0  0  0  0  0
  2  4  1  0
  2  1  1  1
  3  2  1  0
  4  6  1  0
  4  5  1  6
  6  7  2  0
  8  6  1  0
  8  9  1  0
  9 16  1  0
  9 10  1  1
 10 11  1  0
 11 12  2  0
 12 13  1  0
 14 13  1  0
 15 11  1  0
 15 14  2  0
 16 17  2  0
 18 19  1  0
 18 16  1  0
 19 26  1  0
 19 20  1  6
 21 20  1  0
 22 21  2  0
 23 22  1  0
 24 23  1  0
 24 25  2  0
 25 21  1  0
 26 28  2  0
 26 27  1  0
M  END
$$$$
