THH.pdb
     RDKit          3D

 28 29  0  0  1  0  0  0  0  0999 V2000
    7.6982  -16.5255   15.6227 C   0  0  0  0  0  0  0  0  0  0  0  0
    8.3833  -15.3317   14.9749 C   0  0  1  0  0  0  0  0  0  0  0  0
    8.0640  -15.2162   13.6371 O   0  0  0  0  0  0  0  0  0  0  0  0
    7.9284  -14.0985   15.7630 C   0  0  2  0  0  0  0  0  0  0  0  0
    8.2795  -12.8955   15.0346 N   0  0  0  0  0  0  0  0  0  0  0  0
    8.5859  -14.0369   17.0894 C   0  0  0  0  0  0  0  0  0  0  0  0
    9.8384  -13.8393   17.1786 O   0  0  0  0  0  0  0  0  0  0  0  0
    7.9051  -14.1862   18.3094 N   0  0  0  0  0  0  0  0  0  0  0  0
    8.6180  -14.0754   19.6231 C   0  0  1  0  0  0  0  0  0  0  0  0
    7.4991  -14.0630   20.6017 C   0  0  0  0  0  0  0  0  0  0  0  0
    7.7987  -14.2606   22.0110 C   0  0  0  0  0  0  0  0  0  0  0  0
    9.1333  -14.4157   22.4500 C   0  0  0  0  0  0  0  0  0  0  0  0
    9.1698  -14.5823   23.7735 N   0  0  0  0  0  0  0  0  0  0  0  0
    7.8834  -14.5374   24.1947 C   0  0  0  0  0  0  0  0  0  0  0  0
    7.0898  -14.3456   23.1291 N   0  0  0  0  0  0  0  0  0  0  0  0
    9.5068  -15.2501   19.6660 C   0  0  0  0  0  0  0  0  0  0  0  0
    9.2141  -16.2027   18.8441 O   0  0  0  0  0  0  0  0  0  0  0  0
   10.6239  -15.4569   20.4794 N   0  0  0  0  0  0  0  0  0  0  0  0
   11.4935  -16.6669   20.2791 C   0  0  1  0  0  0  0  0  0  0  0  0
   11.9777  -16.6178   18.8822 C   0  0  0  0  0  0  0  0  0  0  0  0
   13.0597  -15.6885   18.6104 C   0  0  0  0  0  0  0  0  0  0  0  0
   13.0955  -14.3805   18.1960 C   0  0  0  0  0  0  0  0  0  0  0  0
   14.3844  -13.9302   18.1525 N   0  0  0  0  0  0  0  0  0  0  0  0
   15.1499  -14.9477   18.5380 C   0  0  0  0  0  0  0  0  0  0  0  0
   14.3839  -15.9971   18.8135 N   0  0  0  0  0  0  0  0  0  0  0  0
   12.5713  -16.5718   21.3049 C   0  0  0  0  0  0  0  0  0  0  0  0
   13.6049  -17.4436   21.4881 O   0  0  0  0  0  0  0  0  0  0  0  0
   12.5641  -15.5789   22.1213 O   0  0  0  0  0  0  0  0  0  0  0  0
  2  4  1  0
  2  1  1  1
  3  2  1  0
  4  6  1  0
  4  5  1  6
  6  7  2  0
  8  6  1  0
  8  9  1  0
  9 16  1  0
  9 10  1  1
 10 11  1  0
 11 12  2  0
 12 13  1  0
 14 13  1  0
 15 11  1  0
 15 14  2  0
 16 17  2  0
 18 19  1  0
 18 16  1  0
 19 26  1  0
 19 20  1  6
 21 20  1  0
 22 21  2  0
 23 22  1  0
 24 23  1  0
 24 25  2  0
 25 21  1  0
 26 28  2  0
 26 27  1  0
M  END
$$$$
