THH.pdb
     RDKit          3D

 28 29  0  0  1  0  0  0  0  0999 V2000
   11.1420  -20.7621   14.6748 C   0  0  0  0  0  0  0  0  0  0  0  0
   11.2278  -19.8402   15.8819 C   0  0  1  0  0  0  0  0  0  0  0  0
   12.1883  -20.2557   16.7818 O   0  0  0  0  0  0  0  0  0  0  0  0
   11.5477  -18.4457   15.3326 C   0  0  2  0  0  0  0  0  0  0  0  0
   12.8807  -18.4380   14.7633 N   0  0  0  0  0  0  0  0  0  0  0  0
   11.5036  -17.4238   16.4046 C   0  0  0  0  0  0  0  0  0  0  0  0
   12.5694  -17.0670   16.9983 O   0  0  0  0  0  0  0  0  0  0  0  0
   10.3258  -16.7904   16.8357 N   0  0  0  0  0  0  0  0  0  0  0  0
   10.3487  -15.7321   17.8968 C   0  0  1  0  0  0  0  0  0  0  0  0
    9.0281  -15.0711   17.7270 C   0  0  0  0  0  0  0  0  0  0  0  0
    8.5454  -14.1900   18.7786 C   0  0  0  0  0  0  0  0  0  0  0  0
    9.3228  -13.9535   19.9351 C   0  0  0  0  0  0  0  0  0  0  0  0
    8.6866  -13.1184   20.7588 N   0  0  0  0  0  0  0  0  0  0  0  0
    7.5139  -12.8128   20.1540 C   0  0  0  0  0  0  0  0  0  0  0  0
    7.4550  -13.4619   18.9804 N   0  0  0  0  0  0  0  0  0  0  0  0
   10.5497  -16.4702   19.1563 C   0  0  0  0  0  0  0  0  0  0  0  0
    9.9254  -17.5972   19.2494 O   0  0  0  0  0  0  0  0  0  0  0  0
   11.3319  -16.1044   20.2548 N   0  0  0  0  0  0  0  0  0  0  0  0
   11.3982  -16.9915   21.4668 C   0  0  1  0  0  0  0  0  0  0  0  0
   12.5652  -17.8812   21.2811 C   0  0  0  0  0  0  0  0  0  0  0  0
   12.8523  -18.7988   22.3691 C   0  0  0  0  0  0  0  0  0  0  0  0
   12.2180  -19.0837   23.5525 C   0  0  0  0  0  0  0  0  0  0  0  0
   12.8657  -20.0914   24.2089 N   0  0  0  0  0  0  0  0  0  0  0  0
   13.8968  -20.4360   23.4421 C   0  0  0  0  0  0  0  0  0  0  0  0
   13.9054  -19.6823   22.3486 N   0  0  0  0  0  0  0  0  0  0  0  0
   11.5056  -16.0766   22.6393 C   0  0  0  0  0  0  0  0  0  0  0  0
   11.2639  -16.3894   23.9452 O   0  0  0  0  0  0  0  0  0  0  0  0
   11.8618  -14.8571   22.4433 O   0  0  0  0  0  0  0  0  0  0  0  0
  2  4  1  0
  2  1  1  6
  3  2  1  0
  4  6  1  0
  4  5  1  1
  6  7  2  0
  8  6  1  0
  8  9  1  0
  9 16  1  0
  9 10  1  1
 10 11  1  0
 11 12  2  0
 12 13  1  0
 14 13  1  0
 15 11  1  0
 15 14  2  0
 16 17  2  0
 18 19  1  0
 18 16  1  0
 19 26  1  0
 19 20  1  6
 21 20  1  0
 22 21  2  0
 23 22  1  0
 24 23  1  0
 24 25  2  0
 25 21  1  0
 26 28  2  0
 26 27  1  0
M  END
$$$$
