THH.pdb
     RDKit          3D

 28 29  0  0  1  0  0  0  0  0999 V2000
   11.6341  -13.5199   17.8999 C   0  0  0  0  0  0  0  0  0  0  0  0
   11.2698  -14.1472   19.2371 C   0  0  1  0  0  0  0  0  0  0  0  0
   11.6303  -13.3436   20.2998 O   0  0  0  0  0  0  0  0  0  0  0  0
    9.7548  -14.3764   19.2030 C   0  0  2  0  0  0  0  0  0  0  0  0
    9.0678  -13.1006   19.1632 N   0  0  0  0  0  0  0  0  0  0  0  0
    9.2952  -15.1046   20.4087 C   0  0  0  0  0  0  0  0  0  0  0  0
    8.6139  -14.5079   21.3006 O   0  0  0  0  0  0  0  0  0  0  0  0
    9.5645  -16.4615   20.6550 N   0  0  0  0  0  0  0  0  0  0  0  0
    9.0001  -17.1678   21.8505 C   0  0  1  0  0  0  0  0  0  0  0  0
    8.7919  -18.5500   21.3448 C   0  0  0  0  0  0  0  0  0  0  0  0
    7.6468  -18.8178   20.4891 C   0  0  0  0  0  0  0  0  0  0  0  0
    6.7883  -17.7706   20.0840 C   0  0  0  0  0  0  0  0  0  0  0  0
    5.8123  -18.2450   19.3075 N   0  0  0  0  0  0  0  0  0  0  0  0
    6.0265  -19.5784   19.2052 C   0  0  0  0  0  0  0  0  0  0  0  0
    7.1214  -19.8925   19.9157 N   0  0  0  0  0  0  0  0  0  0  0  0
   10.0239  -17.0056   22.8979 C   0  0  0  0  0  0  0  0  0  0  0  0
   10.9436  -16.1331   22.6502 O   0  0  0  0  0  0  0  0  0  0  0  0
   10.1190  -17.6734   24.1216 N   0  0  0  0  0  0  0  0  0  0  0  0
   10.4787  -16.9183   25.3709 C   0  0  1  0  0  0  0  0  0  0  0  0
    9.4995  -15.8173   25.5009 C   0  0  0  0  0  0  0  0  0  0  0  0
    9.5765  -15.0303   26.7187 C   0  0  0  0  0  0  0  0  0  0  0  0
   10.4285  -15.0417   27.7947 C   0  0  0  0  0  0  0  0  0  0  0  0
   10.1096  -14.0383   28.6649 N   0  0  0  0  0  0  0  0  0  0  0  0
    9.0669  -13.4023   28.1374 C   0  0  0  0  0  0  0  0  0  0  0  0
    8.7370  -13.9747   26.9852 N   0  0  0  0  0  0  0  0  0  0  0  0
   10.4319  -17.9139   26.4798 C   0  0  0  0  0  0  0  0  0  0  0  0
    9.6774  -19.0498   26.5275 O   0  0  0  0  0  0  0  0  0  0  0  0
   11.1652  -17.7205   27.5178 O   0  0  0  0  0  0  0  0  0  0  0  0
  2  4  1  0
  2  1  1  6
  3  2  1  0
  4  6  1  0
  4  5  1  1
  6  7  2  0
  8  6  1  0
  8  9  1  0
  9 16  1  0
  9 10  1  6
 10 11  1  0
 11 12  2  0
 12 13  1  0
 14 13  1  0
 15 11  1  0
 15 14  2  0
 16 17  2  0
 18 19  1  0
 18 16  1  0
 19 26  1  0
 19 20  1  1
 21 20  1  0
 22 21  2  0
 23 22  1  0
 24 23  1  0
 24 25  2  0
 25 21  1  0
 26 28  2  0
 26 27  1  0
M  END
$$$$
