THH.pdb
     RDKit          3D

 28 29  0  0  1  0  0  0  0  0999 V2000
    7.8254  -11.9738   19.6246 C   0  0  0  0  0  0  0  0  0  0  0  0
    8.8747  -13.0462   19.8760 C   0  0  1  0  0  0  0  0  0  0  0  0
    8.4126  -14.0321   20.7242 O   0  0  0  0  0  0  0  0  0  0  0  0
    9.2365  -13.6204   18.5019 C   0  0  2  0  0  0  0  0  0  0  0  0
    8.1031  -14.3433   17.9599 N   0  0  0  0  0  0  0  0  0  0  0  0
   10.3755  -14.5633   18.5976 C   0  0  0  0  0  0  0  0  0  0  0  0
   10.1696  -15.8088   18.7458 O   0  0  0  0  0  0  0  0  0  0  0  0
   11.7237  -14.1727   18.5347 N   0  0  0  0  0  0  0  0  0  0  0  0
   12.8349  -15.1559   18.7466 C   0  0  1  0  0  0  0  0  0  0  0  0
   13.8902  -14.6596   17.8248 C   0  0  0  0  0  0  0  0  0  0  0  0
   13.9148  -15.1538   16.4572 C   0  0  0  0  0  0  0  0  0  0  0  0
   13.0792  -16.2228   16.0613 C   0  0  0  0  0  0  0  0  0  0  0  0
   13.2684  -16.5060   14.7711 N   0  0  0  0  0  0  0  0  0  0  0  0
   14.2103  -15.6391   14.3290 C   0  0  0  0  0  0  0  0  0  0  0  0
   14.5771  -14.8476   15.3494 N   0  0  0  0  0  0  0  0  0  0  0  0
   13.1373  -15.0732   20.1865 C   0  0  0  0  0  0  0  0  0  0  0  0
   12.9858  -13.9082   20.7234 O   0  0  0  0  0  0  0  0  0  0  0  0
   13.5617  -16.0960   21.0387 N   0  0  0  0  0  0  0  0  0  0  0  0
   13.7698  -15.8249   22.5028 C   0  0  1  0  0  0  0  0  0  0  0  0
   12.4931  -15.2887   23.0231 C   0  0  0  0  0  0  0  0  0  0  0  0
   11.2992  -16.0508   22.7037 C   0  0  0  0  0  0  0  0  0  0  0  0
   11.0755  -17.1818   21.9589 C   0  0  0  0  0  0  0  0  0  0  0  0
    9.7594  -17.5417   22.0238 N   0  0  0  0  0  0  0  0  0  0  0  0
    9.1636  -16.6440   22.8043 C   0  0  0  0  0  0  0  0  0  0  0  0
   10.0588  -15.7537   23.2166 N   0  0  0  0  0  0  0  0  0  0  0  0
   14.1795  -17.1252   23.1065 C   0  0  0  0  0  0  0  0  0  0  0  0
   14.5103  -17.3531   24.4105 O   0  0  0  0  0  0  0  0  0  0  0  0
   14.2390  -18.1662   22.3547 O   0  0  0  0  0  0  0  0  0  0  0  0
  2  4  1  0
  2  1  1  6
  3  2  1  0
  4  6  1  0
  4  5  1  1
  6  7  2  0
  8  6  1  0
  8  9  1  0
  9 16  1  0
  9 10  1  6
 10 11  1  0
 11 12  2  0
 12 13  1  0
 14 13  1  0
 15 11  1  0
 15 14  2  0
 16 17  2  0
 18 19  1  0
 18 16  1  0
 19 26  1  0
 19 20  1  1
 21 20  1  0
 22 21  2  0
 23 22  1  0
 24 23  1  0
 24 25  2  0
 25 21  1  0
 26 28  2  0
 26 27  1  0
M  END
$$$$
