THH.pdb
     RDKit          3D

 28 29  0  0  1  0  0  0  0  0999 V2000
    5.3867  -17.2405   23.7633 C   0  0  0  0  0  0  0  0  0  0  0  0
    5.2226  -18.3335   22.7180 C   0  0  1  0  0  0  0  0  0  0  0  0
    3.8998  -18.6870   22.5437 O   0  0  0  0  0  0  0  0  0  0  0  0
    5.8247  -17.7794   21.4222 C   0  0  2  0  0  0  0  0  0  0  0  0
    5.5286  -18.6761   20.3225 N   0  0  0  0  0  0  0  0  0  0  0  0
    7.2975  -17.6548   21.5254 C   0  0  0  0  0  0  0  0  0  0  0  0
    8.0302  -18.6927   21.5654 O   0  0  0  0  0  0  0  0  0  0  0  0
    7.9780  -16.4270   21.5852 N   0  0  0  0  0  0  0  0  0  0  0  0
    9.4576  -16.3617   21.8152 C   0  0  1  0  0  0  0  0  0  0  0  0
    9.9323  -15.5562   20.6595 C   0  0  0  0  0  0  0  0  0  0  0  0
    9.0325  -14.5764   20.0717 C   0  0  0  0  0  0  0  0  0  0  0  0
    7.9193  -14.9883   19.3043 C   0  0  0  0  0  0  0  0  0  0  0  0
    7.2384  -13.9267   18.8680 N   0  0  0  0  0  0  0  0  0  0  0  0
    7.8927  -12.8391   19.3405 C   0  0  0  0  0  0  0  0  0  0  0  0
    8.9537  -13.2523   20.0516 N   0  0  0  0  0  0  0  0  0  0  0  0
    9.6021  -15.7411   23.1439 C   0  0  0  0  0  0  0  0  0  0  0  0
    9.1095  -14.5529   23.2624 O   0  0  0  0  0  0  0  0  0  0  0  0
   10.1999  -16.2791   24.2865 N   0  0  0  0  0  0  0  0  0  0  0  0
    9.7703  -15.8223   25.6530 C   0  0  1  0  0  0  0  0  0  0  0  0
    8.3054  -16.0142   25.7260 C   0  0  0  0  0  0  0  0  0  0  0  0
    7.5164  -14.8296   26.0133 C   0  0  0  0  0  0  0  0  0  0  0  0
    7.8343  -13.5052   26.1832 C   0  0  0  0  0  0  0  0  0  0  0  0
    6.7022  -12.7648   26.3734 N   0  0  0  0  0  0  0  0  0  0  0  0
    5.6832  -13.6185   26.3217 C   0  0  0  0  0  0  0  0  0  0  0  0
    6.1450  -14.8454   26.1090 N   0  0  0  0  0  0  0  0  0  0  0  0
   10.5453  -16.6470   26.6237 C   0  0  0  0  0  0  0  0  0  0  0  0
   10.9579  -16.2717   27.8689 O   0  0  0  0  0  0  0  0  0  0  0  0
   10.8789  -17.8435   26.2927 O   0  0  0  0  0  0  0  0  0  0  0  0
  2  4  1  0
  2  1  1  1
  3  2  1  0
  4  6  1  0
  4  5  1  6
  6  7  2  0
  8  6  1  0
  8  9  1  0
  9 16  1  0
  9 10  1  6
 10 11  1  0
 11 12  2  0
 12 13  1  0
 14 13  1  0
 15 11  1  0
 15 14  2  0
 16 17  2  0
 18 19  1  0
 18 16  1  0
 19 26  1  0
 19 20  1  6
 21 20  1  0
 22 21  2  0
 23 22  1  0
 24 23  1  0
 24 25  2  0
 25 21  1  0
 26 28  2  0
 26 27  1  0
M  END
$$$$
