THH.pdb
     RDKit          3D

 28 29  0  0  1  0  0  0  0  0999 V2000
    8.3671  -17.8690   14.3502 C   0  0  0  0  0  0  0  0  0  0  0  0
    9.1588  -17.0927   15.3917 C   0  0  1  0  0  0  0  0  0  0  0  0
   10.4870  -17.4676   15.4158 O   0  0  0  0  0  0  0  0  0  0  0  0
    9.0064  -15.6118   15.0278 C   0  0  2  0  0  0  0  0  0  0  0  0
    9.5842  -15.3670   13.7211 N   0  0  0  0  0  0  0  0  0  0  0  0
    9.7049  -14.7446   16.0052 C   0  0  0  0  0  0  0  0  0  0  0  0
   10.8368  -14.2391   15.7239 O   0  0  0  0  0  0  0  0  0  0  0  0
    9.1932  -14.4227   17.2735 N   0  0  0  0  0  0  0  0  0  0  0  0
    9.9049  -13.4714   18.1873 C   0  0  1  0  0  0  0  0  0  0  0  0
    8.7955  -12.9085   19.0008 C   0  0  0  0  0  0  0  0  0  0  0  0
    7.9913  -13.8115   19.8089 C   0  0  0  0  0  0  0  0  0  0  0  0
    7.9947  -13.7146   21.2189 C   0  0  0  0  0  0  0  0  0  0  0  0
    7.1890  -14.6368   21.7492 N   0  0  0  0  0  0  0  0  0  0  0  0
    6.6671  -15.3258   20.7065 C   0  0  0  0  0  0  0  0  0  0  0  0
    7.1594  -14.8160   19.5664 N   0  0  0  0  0  0  0  0  0  0  0  0
   10.8818  -14.3064   18.9084 C   0  0  0  0  0  0  0  0  0  0  0  0
   10.7209  -15.5826   18.7907 O   0  0  0  0  0  0  0  0  0  0  0  0
   11.9576  -13.8891   19.6963 N   0  0  0  0  0  0  0  0  0  0  0  0
   12.8317  -14.9017   20.3828 C   0  0  1  0  0  0  0  0  0  0  0  0
   14.2078  -14.3595   20.3647 C   0  0  0  0  0  0  0  0  0  0  0  0
   14.9359  -14.4978   19.1161 C   0  0  0  0  0  0  0  0  0  0  0  0
   14.7276  -15.2432   17.9825 C   0  0  0  0  0  0  0  0  0  0  0  0
   15.6827  -14.9634   17.0469 N   0  0  0  0  0  0  0  0  0  0  0  0
   16.4821  -14.0489   17.5896 C   0  0  0  0  0  0  0  0  0  0  0  0
   16.0561  -13.7603   18.8140 N   0  0  0  0  0  0  0  0  0  0  0  0
   12.2605  -15.0778   21.7487 C   0  0  0  0  0  0  0  0  0  0  0  0
   12.5907  -16.0429   22.6548 O   0  0  0  0  0  0  0  0  0  0  0  0
   11.3607  -14.2545   22.1551 O   0  0  0  0  0  0  0  0  0  0  0  0
  2  4  1  0
  2  1  1  6
  3  2  1  0
  4  6  1  0
  4  5  1  6
  6  7  2  0
  8  6  1  0
  8  9  1  0
  9 16  1  0
  9 10  1  1
 10 11  1  0
 11 12  2  0
 12 13  1  0
 14 13  1  0
 15 11  1  0
 15 14  2  0
 16 17  2  0
 18 19  1  0
 18 16  1  0
 19 26  1  0
 19 20  1  1
 21 20  1  0
 22 21  2  0
 23 22  1  0
 24 23  1  0
 24 25  2  0
 25 21  1  0
 26 28  2  0
 26 27  1  0
M  END
$$$$
