THH.pdb
     RDKit          3D

 28 29  0  0  1  0  0  0  0  0999 V2000
    8.8883  -11.8330   18.8898 C   0  0  0  0  0  0  0  0  0  0  0  0
    9.0967  -12.9156   19.9380 C   0  0  1  0  0  0  0  0  0  0  0  0
    8.2921  -12.7260   21.0433 O   0  0  0  0  0  0  0  0  0  0  0  0
    8.7842  -14.2467   19.2455 C   0  0  2  0  0  0  0  0  0  0  0  0
    7.3802  -14.2947   18.8885 N   0  0  0  0  0  0  0  0  0  0  0  0
    9.0677  -15.3951   20.1378 C   0  0  0  0  0  0  0  0  0  0  0  0
    8.1233  -15.9757   20.7597 O   0  0  0  0  0  0  0  0  0  0  0  0
   10.3535  -15.9158   20.3608 N   0  0  0  0  0  0  0  0  0  0  0  0
   10.5743  -17.1067   21.2436 C   0  0  1  0  0  0  0  0  0  0  0  0
   11.7023  -17.8052   20.5734 C   0  0  0  0  0  0  0  0  0  0  0  0
   12.2795  -18.9772   21.2124 C   0  0  0  0  0  0  0  0  0  0  0  0
   11.4725  -19.8578   21.9681 C   0  0  0  0  0  0  0  0  0  0  0  0
   12.2090  -20.8569   22.4580 N   0  0  0  0  0  0  0  0  0  0  0  0
   13.4754  -20.6358   22.0317 C   0  0  0  0  0  0  0  0  0  0  0  0
   13.4898  -19.5140   21.2944 N   0  0  0  0  0  0  0  0  0  0  0  0
   10.8587  -16.5385   22.5732 C   0  0  0  0  0  0  0  0  0  0  0  0
   11.6063  -15.4852   22.5825 O   0  0  0  0  0  0  0  0  0  0  0  0
   10.4179  -16.9947   23.8181 N   0  0  0  0  0  0  0  0  0  0  0  0
   10.8538  -16.2990   25.0777 C   0  0  1  0  0  0  0  0  0  0  0  0
    9.6459  -15.6747   25.6601 C   0  0  0  0  0  0  0  0  0  0  0  0
    9.7961  -15.0988   26.9846 C   0  0  0  0  0  0  0  0  0  0  0  0
   10.8571  -14.9885   27.8483 C   0  0  0  0  0  0  0  0  0  0  0  0
   10.4918  -14.2902   28.9640 N   0  0  0  0  0  0  0  0  0  0  0  0
    9.2125  -13.9643   28.7997 C   0  0  0  0  0  0  0  0  0  0  0  0
    8.7831  -14.4339   27.6340 N   0  0  0  0  0  0  0  0  0  0  0  0
   11.4731  -17.3509   25.9339 C   0  0  0  0  0  0  0  0  0  0  0  0
   12.4200  -17.1669   26.8989 O   0  0  0  0  0  0  0  0  0  0  0  0
   11.1033  -18.5725   25.7800 O   0  0  0  0  0  0  0  0  0  0  0  0
  2  4  1  0
  2  1  1  6
  3  2  1  0
  4  6  1  0
  4  5  1  1
  6  7  2  0
  8  6  1  0
  8  9  1  0
  9 16  1  0
  9 10  1  6
 10 11  1  0
 11 12  2  0
 12 13  1  0
 14 13  1  0
 15 11  1  0
 15 14  2  0
 16 17  2  0
 18 19  1  0
 18 16  1  0
 19 26  1  0
 19 20  1  1
 21 20  1  0
 22 21  2  0
 23 22  1  0
 24 23  1  0
 24 25  2  0
 25 21  1  0
 26 28  2  0
 26 27  1  0
M  END
$$$$
