THH.pdb
     RDKit          3D

 28 29  0  0  1  0  0  0  0  0999 V2000
    7.2760  -14.7064   19.1706 C   0  0  0  0  0  0  0  0  0  0  0  0
    7.8230  -13.2880   19.1162 C   0  0  1  0  0  0  0  0  0  0  0  0
    8.3032  -12.8723   20.3417 O   0  0  0  0  0  0  0  0  0  0  0  0
    8.9329  -13.2983   18.0593 C   0  0  2  0  0  0  0  0  0  0  0  0
    8.3834  -13.6905   16.7766 N   0  0  0  0  0  0  0  0  0  0  0  0
   10.0008  -14.2628   18.4123 C   0  0  0  0  0  0  0  0  0  0  0  0
    9.9610  -15.4558   17.9755 O   0  0  0  0  0  0  0  0  0  0  0  0
   11.1018  -13.9497   19.2272 N   0  0  0  0  0  0  0  0  0  0  0  0
   12.1774  -14.9542   19.5109 C   0  0  1  0  0  0  0  0  0  0  0  0
   13.4022  -14.1139   19.5670 C   0  0  0  0  0  0  0  0  0  0  0  0
   14.4511  -14.3379   18.5848 C   0  0  0  0  0  0  0  0  0  0  0  0
   14.3444  -15.3851   17.6416 C   0  0  0  0  0  0  0  0  0  0  0  0
   15.4146  -15.4024   16.8446 N   0  0  0  0  0  0  0  0  0  0  0  0
   16.2084  -14.3857   17.2574 C   0  0  0  0  0  0  0  0  0  0  0  0
   15.6135  -13.7699   18.2914 N   0  0  0  0  0  0  0  0  0  0  0  0
   11.7681  -15.5928   20.7744 C   0  0  0  0  0  0  0  0  0  0  0  0
   11.3112  -14.7949   21.6816 O   0  0  0  0  0  0  0  0  0  0  0  0
   11.8096  -16.9490   21.1080 N   0  0  0  0  0  0  0  0  0  0  0  0
   11.4635  -17.3976   22.5007 C   0  0  1  0  0  0  0  0  0  0  0  0
   10.6318  -18.6132   22.3630 C   0  0  0  0  0  0  0  0  0  0  0  0
    9.2613  -18.4075   21.9300 C   0  0  0  0  0  0  0  0  0  0  0  0
    8.4677  -17.2936   21.8143 C   0  0  0  0  0  0  0  0  0  0  0  0
    7.2525  -17.6278   21.2873 N   0  0  0  0  0  0  0  0  0  0  0  0
    7.2852  -18.9404   21.0734 C   0  0  0  0  0  0  0  0  0  0  0  0
    8.4661  -19.4197   21.4472 N   0  0  0  0  0  0  0  0  0  0  0  0
   12.7641  -17.6205   23.1949 C   0  0  0  0  0  0  0  0  0  0  0  0
   12.9521  -17.8385   24.5286 O   0  0  0  0  0  0  0  0  0  0  0  0
   13.8460  -17.6159   22.5006 O   0  0  0  0  0  0  0  0  0  0  0  0
  2  4  1  0
  2  1  1  1
  3  2  1  0
  4  6  1  0
  4  5  1  6
  6  7  2  0
  8  6  1  0
  8  9  1  0
  9 16  1  0
  9 10  1  1
 10 11  1  0
 11 12  2  0
 12 13  1  0
 14 13  1  0
 15 11  1  0
 15 14  2  0
 16 17  2  0
 18 19  1  0
 18 16  1  0
 19 26  1  0
 19 20  1  6
 21 20  1  0
 22 21  2  0
 23 22  1  0
 24 23  1  0
 24 25  2  0
 25 21  1  0
 26 28  2  0
 26 27  1  0
M  END
$$$$
