THH.pdb
     RDKit          3D

 28 29  0  0  1  0  0  0  0  0999 V2000
    9.6762  -12.7554   18.9574 C   0  0  0  0  0  0  0  0  0  0  0  0
    8.5688  -13.3682   18.1133 C   0  0  1  0  0  0  0  0  0  0  0  0
    7.8975  -12.4166   17.3723 O   0  0  0  0  0  0  0  0  0  0  0  0
    9.2450  -14.4025   17.2069 C   0  0  2  0  0  0  0  0  0  0  0  0
    8.2660  -14.9784   16.3064 N   0  0  0  0  0  0  0  0  0  0  0  0
    9.8389  -15.5041   18.0000 C   0  0  0  0  0  0  0  0  0  0  0  0
    9.1541  -16.5377   18.2801 O   0  0  0  0  0  0  0  0  0  0  0  0
   11.1564  -15.4965   18.4883 N   0  0  0  0  0  0  0  0  0  0  0  0
   11.7083  -16.6491   19.2715 C   0  0  1  0  0  0  0  0  0  0  0  0
   13.1128  -16.7274   18.7911 C   0  0  0  0  0  0  0  0  0  0  0  0
   13.9557  -17.8137   19.2650 C   0  0  0  0  0  0  0  0  0  0  0  0
   13.5428  -18.6300   20.3423 C   0  0  0  0  0  0  0  0  0  0  0  0
   14.4674  -19.5561   20.6035 N   0  0  0  0  0  0  0  0  0  0  0  0
   15.4681  -19.3510   19.7142 C   0  0  0  0  0  0  0  0  0  0  0  0
   15.1394  -18.3111   18.9314 N   0  0  0  0  0  0  0  0  0  0  0  0
   11.5236  -16.2647   20.6821 C   0  0  0  0  0  0  0  0  0  0  0  0
   11.9787  -15.1007   21.0084 O   0  0  0  0  0  0  0  0  0  0  0  0
   10.9162  -16.9995   21.7036 N   0  0  0  0  0  0  0  0  0  0  0  0
   10.7266  -16.3907   23.0652 C   0  0  1  0  0  0  0  0  0  0  0  0
    9.2721  -16.3917   23.3342 C   0  0  0  0  0  0  0  0  0  0  0  0
    8.4751  -15.4587   22.5580 C   0  0  0  0  0  0  0  0  0  0  0  0
    8.7847  -14.5286   21.5973 C   0  0  0  0  0  0  0  0  0  0  0  0
    7.6477  -13.9412   21.1198 N   0  0  0  0  0  0  0  0  0  0  0  0
    6.6337  -14.5000   21.7752 C   0  0  0  0  0  0  0  0  0  0  0  0
    7.1035  -15.4008   22.6306 N   0  0  0  0  0  0  0  0  0  0  0  0
   11.5240  -17.2303   24.0045 C   0  0  0  0  0  0  0  0  0  0  0  0
   11.8813  -16.9130   25.2826 O   0  0  0  0  0  0  0  0  0  0  0  0
   11.9366  -18.3817   23.6090 O   0  0  0  0  0  0  0  0  0  0  0  0
  2  4  1  0
  2  1  1  6
  3  2  1  0
  4  6  1  0
  4  5  1  6
  6  7  2  0
  8  6  1  0
  8  9  1  0
  9 16  1  0
  9 10  1  1
 10 11  1  0
 11 12  2  0
 12 13  1  0
 14 13  1  0
 15 11  1  0
 15 14  2  0
 16 17  2  0
 18 19  1  0
 18 16  1  0
 19 26  1  0
 19 20  1  1
 21 20  1  0
 22 21  2  0
 23 22  1  0
 24 23  1  0
 24 25  2  0
 25 21  1  0
 26 28  2  0
 26 27  1  0
M  END
$$$$
