ILQ.pdb
     RDKit          3D

 26 25  0  0  1  0  0  0  0  0999 V2000
    6.9774  -18.5897   18.7641 C   0  0  0  0  0  0  0  0  0  0  0  0
    7.1376  -17.0921   18.9444 C   0  0  0  0  0  0  0  0  0  0  0  0
    7.6672  -16.8581   20.3459 C   0  0  2  0  0  0  0  0  0  0  0  0
    6.7384  -17.5477   21.3050 C   0  0  0  0  0  0  0  0  0  0  0  0
    7.7251  -15.3595   20.5476 C   0  0  2  0  0  0  0  0  0  0  0  0
    8.5244  -14.8186   19.4652 N   0  0  0  0  0  0  0  0  0  0  0  0
    8.3273  -15.0023   21.8571 C   0  0  0  0  0  0  0  0  0  0  0  0
    9.5335  -15.2055   22.0831 O   0  0  0  0  0  0  0  0  0  0  0  0
    5.8431  -12.3045   26.8080 C   0  0  0  0  0  0  0  0  0  0  0  0
    7.1611  -12.8549   26.2596 C   0  0  2  0  0  0  0  0  0  0  0  0
    8.3647  -12.1474   26.7558 C   0  0  0  0  0  0  0  0  0  0  0  0
    7.0926  -13.2132   24.8361 C   0  0  0  0  0  0  0  0  0  0  0  0
    8.0335  -14.1727   24.2401 C   0  0  2  0  0  0  0  0  0  0  0  0
    7.5252  -14.4232   22.8652 N   0  0  0  0  0  0  0  0  0  0  0  0
    8.3652  -15.4168   24.8826 C   0  0  0  0  0  0  0  0  0  0  0  0
    7.4057  -16.2568   25.0560 O   0  0  0  0  0  0  0  0  0  0  0  0
   12.1516  -19.5272   23.3845 N   0  0  0  0  0  0  0  0  0  0  0  0
   12.7552  -18.3475   23.8963 C   0  0  0  0  0  0  0  0  0  0  0  0
   13.9222  -18.0434   23.5487 O   0  0  0  0  0  0  0  0  0  0  0  0
   11.9813  -17.4704   24.8563 C   0  0  0  0  0  0  0  0  0  0  0  0
   10.6131  -18.0265   25.0060 C   0  0  0  0  0  0  0  0  0  0  0  0
    9.7577  -17.2033   25.9645 C   0  0  2  0  0  0  0  0  0  0  0  0
    9.6201  -15.8647   25.3539 N   0  0  0  0  0  0  0  0  0  0  0  0
   10.4313  -17.0594   27.2506 C   0  0  0  0  0  0  0  0  0  0  0  0
   10.8192  -15.9480   27.7202 O   0  0  0  0  0  0  0  0  0  0  0  0
   10.6850  -18.1557   28.0408 O   0  0  0  0  0  0  0  0  0  0  0  0
  2  1  1  0
  3  2  1  0
  3  5  1  0
  3  4  1  1
  5  6  1  6
  7  5  1  0
  7  8  2  0
 10  9  1  6
 10 11  1  0
 10 12  1  0
 13 14  1  0
 13 12  1  1
 14  7  1  0
 15 13  1  0
 16 15  2  0
 17 18  1  0
 18 19  2  0
 20 18  1  0
 20 21  1  0
 22 21  1  6
 22 23  1  0
 23 15  1  0
 24 26  1  0
 24 22  1  0
 25 24  2  0
M  END
$$$$
