ILQ.pdb
     RDKit          3D

 26 25  0  0  1  0  0  0  0  0999 V2000
    7.1872  -16.4315   18.1254 C   0  0  0  0  0  0  0  0  0  0  0  0
    7.0857  -15.1020   18.8485 C   0  0  0  0  0  0  0  0  0  0  0  0
    7.6453  -15.3009   20.2439 C   0  0  2  0  0  0  0  0  0  0  0  0
    6.9321  -16.4723   20.8581 C   0  0  0  0  0  0  0  0  0  0  0  0
    7.4194  -14.0067   20.9948 C   0  0  2  0  0  0  0  0  0  0  0  0
    8.0175  -12.9494   20.2026 N   0  0  0  0  0  0  0  0  0  0  0  0
    8.0300  -14.0406   22.3480 C   0  0  0  0  0  0  0  0  0  0  0  0
    9.2654  -14.0497   22.4922 O   0  0  0  0  0  0  0  0  0  0  0  0
    8.2030  -11.7471   26.3770 C   0  0  0  0  0  0  0  0  0  0  0  0
    6.7972  -12.2733   26.0805 C   0  0  2  0  0  0  0  0  0  0  0  0
    5.7440  -11.7116   26.9583 C   0  0  0  0  0  0  0  0  0  0  0  0
    6.7679  -13.7109   25.7776 C   0  0  0  0  0  0  0  0  0  0  0  0
    7.7370  -14.3209   24.8558 C   0  0  2  0  0  0  0  0  0  0  0  0
    7.2022  -14.0633   23.4923 N   0  0  0  0  0  0  0  0  0  0  0  0
    8.1473  -15.6947   24.9782 C   0  0  0  0  0  0  0  0  0  0  0  0
    7.2370  -16.5908   24.8208 O   0  0  0  0  0  0  0  0  0  0  0  0
   11.9652  -18.8651   22.0099 N   0  0  0  0  0  0  0  0  0  0  0  0
   12.5504  -17.8833   22.8533 C   0  0  0  0  0  0  0  0  0  0  0  0
   13.6980  -17.4448   22.5962 O   0  0  0  0  0  0  0  0  0  0  0  0
   11.7807  -17.3772   24.0539 C   0  0  0  0  0  0  0  0  0  0  0  0
   10.4624  -18.0584   24.0911 C   0  0  0  0  0  0  0  0  0  0  0  0
    9.6500  -17.6754   25.3246 C   0  0  2  0  0  0  0  0  0  0  0  0
    9.4340  -16.2158   25.2435 N   0  0  0  0  0  0  0  0  0  0  0  0
   10.4037  -17.9659   26.5395 C   0  0  0  0  0  0  0  0  0  0  0  0
   10.7878  -19.1285   26.8669 O   0  0  0  0  0  0  0  0  0  0  0  0
   10.7456  -16.9623   27.4148 O   0  0  0  0  0  0  0  0  0  0  0  0
  2  1  1  0
  3  2  1  0
  3  5  1  0
  3  4  1  1
  5  6  1  6
  7  5  1  0
  7  8  2  0
 10  9  1  1
 10 11  1  0
 10 12  1  0
 13 14  1  0
 13 12  1  1
 14  7  1  0
 15 13  1  0
 16 15  2  0
 17 18  1  0
 18 19  2  0
 20 18  1  0
 20 21  1  0
 22 21  1  6
 22 23  1  0
 23 15  1  0
 24 26  1  0
 24 22  1  0
 25 24  2  0
M  END
$$$$
