ILQ.pdb
     RDKit          3D

 26 25  0  0  1  0  0  0  0  0999 V2000
    7.8959  -11.6980   20.3469 C   0  0  0  0  0  0  0  0  0  0  0  0
    7.5918  -12.9945   21.0733 C   0  0  0  0  0  0  0  0  0  0  0  0
    8.5020  -14.0616   20.4968 C   0  0  2  0  0  0  0  0  0  0  0  0
    8.1369  -14.2388   19.0499 C   0  0  0  0  0  0  0  0  0  0  0  0
    8.2880  -15.3120   21.3217 C   0  0  2  0  0  0  0  0  0  0  0  0
    6.8806  -15.6472   21.2225 N   0  0  0  0  0  0  0  0  0  0  0  0
    8.6667  -15.1066   22.7427 C   0  0  0  0  0  0  0  0  0  0  0  0
    9.8509  -14.9067   23.0666 O   0  0  0  0  0  0  0  0  0  0  0  0
    8.2231  -12.3271   26.4083 C   0  0  0  0  0  0  0  0  0  0  0  0
    6.8800  -12.8963   25.9467 C   0  0  2  0  0  0  0  0  0  0  0  0
    5.7021  -12.2388   26.5597 C   0  0  0  0  0  0  0  0  0  0  0  0
    6.8827  -14.3605   25.8217 C   0  0  0  0  0  0  0  0  0  0  0  0
    8.0041  -15.0751   25.1949 C   0  0  2  0  0  0  0  0  0  0  0  0
    7.6734  -15.1374   23.7464 N   0  0  0  0  0  0  0  0  0  0  0  0
    8.4448  -16.3633   25.6607 C   0  0  0  0  0  0  0  0  0  0  0  0
    7.5398  -17.2629   25.8288 O   0  0  0  0  0  0  0  0  0  0  0  0
   11.9030  -19.1624   22.4377 N   0  0  0  0  0  0  0  0  0  0  0  0
   12.4974  -18.6860   23.6367 C   0  0  0  0  0  0  0  0  0  0  0  0
   13.7098  -18.9161   23.8655 O   0  0  0  0  0  0  0  0  0  0  0  0
   11.6591  -17.9049   24.6253 C   0  0  0  0  0  0  0  0  0  0  0  0
   10.8663  -18.8645   25.4341 C   0  0  0  0  0  0  0  0  0  0  0  0
    9.9959  -18.1624   26.4722 C   0  0  2  0  0  0  0  0  0  0  0  0
    9.7562  -16.7975   25.9593 N   0  0  0  0  0  0  0  0  0  0  0  0
   10.7033  -18.0624   27.7442 C   0  0  0  0  0  0  0  0  0  0  0  0
   11.0146  -16.9620   28.2905 O   0  0  0  0  0  0  0  0  0  0  0  0
   11.0773  -19.1913   28.4343 O   0  0  0  0  0  0  0  0  0  0  0  0
  2  1  1  0
  3  2  1  0
  3  5  1  0
  3  4  1  6
  5  6  1  1
  7  5  1  0
  7  8  2  0
 10  9  1  1
 10 11  1  0
 10 12  1  0
 13 14  1  0
 13 12  1  1
 14  7  1  0
 15 13  1  0
 16 15  2  0
 17 18  1  0
 18 19  2  0
 20 18  1  0
 20 21  1  0
 22 21  1  6
 22 23  1  0
 23 15  1  0
 24 26  1  0
 24 22  1  0
 25 24  2  0
M  END
$$$$
