ILQ.pdb
     RDKit          3D

 26 25  0  0  1  0  0  0  0  0999 V2000
    7.1473  -13.4813   17.8880 C   0  0  0  0  0  0  0  0  0  0  0  0
    7.4978  -14.5888   18.8633 C   0  0  0  0  0  0  0  0  0  0  0  0
    7.8799  -13.9329   20.1761 C   0  0  2  0  0  0  0  0  0  0  0  0
    8.9659  -12.9352   19.8878 C   0  0  0  0  0  0  0  0  0  0  0  0
    8.3221  -15.0410   21.1069 C   0  0  2  0  0  0  0  0  0  0  0  0
    7.1988  -15.9474   21.2475 N   0  0  0  0  0  0  0  0  0  0  0  0
    8.7263  -14.5163   22.4359 C   0  0  0  0  0  0  0  0  0  0  0  0
    9.9093  -14.2126   22.6708 O   0  0  0  0  0  0  0  0  0  0  0  0
    5.4482  -12.1773   27.0859 C   0  0  0  0  0  0  0  0  0  0  0  0
    6.8576  -12.5647   26.6338 C   0  0  2  0  0  0  0  0  0  0  0  0
    7.8887  -11.5414   26.9256 C   0  0  0  0  0  0  0  0  0  0  0  0
    6.8835  -13.2369   25.3273 C   0  0  0  0  0  0  0  0  0  0  0  0
    8.1077  -13.8676   24.8129 C   0  0  2  0  0  0  0  0  0  0  0  0
    7.7589  -14.3573   23.4528 N   0  0  0  0  0  0  0  0  0  0  0  0
    8.8063  -14.8898   25.5460 C   0  0  0  0  0  0  0  0  0  0  0  0
    8.8796  -14.7442   26.8227 O   0  0  0  0  0  0  0  0  0  0  0  0
    7.9109  -20.4247   25.9762 N   0  0  0  0  0  0  0  0  0  0  0  0
    8.9570  -20.3954   26.9367 C   0  0  0  0  0  0  0  0  0  0  0  0
    9.3203  -21.4591   27.4953 O   0  0  0  0  0  0  0  0  0  0  0  0
    9.6218  -19.0788   27.2751 C   0  0  0  0  0  0  0  0  0  0  0  0
    9.0575  -18.0249   26.3950 C   0  0  0  0  0  0  0  0  0  0  0  0
   10.1045  -16.9925   25.9874 C   0  0  2  0  0  0  0  0  0  0  0  0
    9.4304  -16.0608   25.0594 N   0  0  0  0  0  0  0  0  0  0  0  0
   11.2050  -17.6374   25.2792 C   0  0  0  0  0  0  0  0  0  0  0  0
   12.2175  -18.1342   25.8575 O   0  0  0  0  0  0  0  0  0  0  0  0
   11.1970  -17.7419   23.9083 O   0  0  0  0  0  0  0  0  0  0  0  0
  2  1  1  0
  3  2  1  0
  3  5  1  0
  3  4  1  6
  5  6  1  1
  7  5  1  0
  7  8  2  0
 10  9  1  6
 10 11  1  0
 10 12  1  0
 13 14  1  0
 13 12  1  1
 14  7  1  0
 15 13  1  0
 16 15  2  0
 17 18  1  0
 18 19  2  0
 20 18  1  0
 20 21  1  0
 22 21  1  6
 22 23  1  0
 23 15  1  0
 24 26  1  0
 24 22  1  0
 25 24  2  0
M  END
$$$$
