ILQ.pdb
     RDKit          3D

 26 25  0  0  1  0  0  0  0  0999 V2000
    7.6110  -18.9423   19.0193 C   0  0  0  0  0  0  0  0  0  0  0  0
    7.7909  -17.4450   19.1828 C   0  0  0  0  0  0  0  0  0  0  0  0
    8.0630  -17.1786   20.6506 C   0  0  2  0  0  0  0  0  0  0  0  0
    6.8988  -17.7154   21.4346 C   0  0  0  0  0  0  0  0  0  0  0  0
    8.2407  -15.6831   20.7987 C   0  0  2  0  0  0  0  0  0  0  0  0
    9.2738  -15.2863   19.8615 N   0  0  0  0  0  0  0  0  0  0  0  0
    8.6321  -15.3086   22.1812 C   0  0  0  0  0  0  0  0  0  0  0  0
    9.7800  -15.5334   22.6042 O   0  0  0  0  0  0  0  0  0  0  0  0
    5.5746  -12.1505   26.4938 C   0  0  0  0  0  0  0  0  0  0  0  0
    6.9389  -12.7646   26.1735 C   0  0  2  0  0  0  0  0  0  0  0  0
    8.0867  -12.0111   26.7305 C   0  0  0  0  0  0  0  0  0  0  0  0
    7.0352  -13.2801   24.8008 C   0  0  0  0  0  0  0  0  0  0  0  0
    8.0179  -14.3105   24.4351 C   0  0  2  0  0  0  0  0  0  0  0  0
    7.6926  -14.6879   23.0340 N   0  0  0  0  0  0  0  0  0  0  0  0
    8.2209  -15.4900   25.2340 C   0  0  0  0  0  0  0  0  0  0  0  0
    7.3497  -16.4300   25.1169 O   0  0  0  0  0  0  0  0  0  0  0  0
   11.5717  -20.0542   23.1003 N   0  0  0  0  0  0  0  0  0  0  0  0
   12.0590  -19.1212   24.0543 C   0  0  0  0  0  0  0  0  0  0  0  0
   13.1533  -18.5397   23.8547 O   0  0  0  0  0  0  0  0  0  0  0  0
   11.2505  -18.8397   25.3020 C   0  0  0  0  0  0  0  0  0  0  0  0
   10.5832  -17.5230   25.1453 C   0  0  0  0  0  0  0  0  0  0  0  0
    9.7169  -17.1684   26.3502 C   0  0  2  0  0  0  0  0  0  0  0  0
    9.2649  -15.7770   26.1424 N   0  0  0  0  0  0  0  0  0  0  0  0
   10.5059  -17.2216   27.5763 C   0  0  0  0  0  0  0  0  0  0  0  0
   10.7337  -18.2897   28.2195 O   0  0  0  0  0  0  0  0  0  0  0  0
   11.0586  -16.0813   28.1098 O   0  0  0  0  0  0  0  0  0  0  0  0
  2  1  1  0
  3  2  1  0
  3  5  1  0
  3  4  1  1
  5  6  1  6
  7  5  1  0
  7  8  2  0
 10  9  1  6
 10 11  1  0
 10 12  1  0
 13 14  1  0
 13 12  1  1
 14  7  1  0
 15 13  1  0
 16 15  2  0
 17 18  1  0
 18 19  2  0
 20 18  1  0
 20 21  1  0
 22 21  1  6
 22 23  1  0
 23 15  1  0
 24 26  1  0
 24 22  1  0
 25 24  2  0
M  END
$$$$
