ILQ.pdb
     RDKit          3D

 26 25  0  0  1  0  0  0  0  0999 V2000
    8.2305  -18.6964   19.1134 C   0  0  0  0  0  0  0  0  0  0  0  0
    8.1192  -17.2183   19.4351 C   0  0  0  0  0  0  0  0  0  0  0  0
    8.4441  -17.0488   20.9066 C   0  0  2  0  0  0  0  0  0  0  0  0
    7.5924  -18.0188   21.6759 C   0  0  0  0  0  0  0  0  0  0  0  0
    8.1610  -15.6034   21.2540 C   0  0  2  0  0  0  0  0  0  0  0  0
    8.8647  -14.7901   20.2811 N   0  0  0  0  0  0  0  0  0  0  0  0
    8.6153  -15.2672   22.6271 C   0  0  0  0  0  0  0  0  0  0  0  0
    9.8203  -15.0841   22.8753 O   0  0  0  0  0  0  0  0  0  0  0  0
    8.1417  -12.1455   26.3231 C   0  0  0  0  0  0  0  0  0  0  0  0
    6.8372  -12.7761   25.8317 C   0  0  2  0  0  0  0  0  0  0  0  0
    5.6168  -12.1780   26.4220 C   0  0  0  0  0  0  0  0  0  0  0  0
    6.9124  -14.2380   25.7022 C   0  0  0  0  0  0  0  0  0  0  0  0
    8.0713  -14.8947   25.0804 C   0  0  2  0  0  0  0  0  0  0  0  0
    7.6713  -15.1520   23.6714 N   0  0  0  0  0  0  0  0  0  0  0  0
    8.6789  -16.0692   25.6477 C   0  0  0  0  0  0  0  0  0  0  0  0
    7.9015  -17.0635   25.8997 O   0  0  0  0  0  0  0  0  0  0  0  0
   13.8364  -19.5062   24.6886 N   0  0  0  0  0  0  0  0  0  0  0  0
   12.5897  -19.1401   24.1145 C   0  0  0  0  0  0  0  0  0  0  0  0
   12.0703  -19.8695   23.2350 O   0  0  0  0  0  0  0  0  0  0  0  0
   11.9021  -17.8720   24.5719 C   0  0  0  0  0  0  0  0  0  0  0  0
   11.8546  -17.8694   26.0556 C   0  0  0  0  0  0  0  0  0  0  0  0
   10.4554  -17.5735   26.5872 C   0  0  2  0  0  0  0  0  0  0  0  0
   10.0362  -16.2989   25.9681 N   0  0  0  0  0  0  0  0  0  0  0  0
   10.4889  -17.3970   28.0350 C   0  0  0  0  0  0  0  0  0  0  0  0
   10.3099  -16.2825   28.6113 O   0  0  0  0  0  0  0  0  0  0  0  0
   10.7223  -18.4636   28.8707 O   0  0  0  0  0  0  0  0  0  0  0  0
  2  1  1  0
  3  2  1  0
  3  5  1  0
  3  4  1  1
  5  6  1  6
  7  5  1  0
  7  8  2  0
 10  9  1  1
 10 11  1  0
 10 12  1  0
 13 14  1  0
 13 12  1  1
 14  7  1  0
 15 13  1  0
 16 15  2  0
 17 18  1  0
 18 19  2  0
 20 18  1  0
 20 21  1  0
 22 21  1  6
 22 23  1  0
 23 15  1  0
 24 26  1  0
 24 22  1  0
 25 24  2  0
M  END
$$$$
