ILQ.pdb
     RDKit          3D

 26 25  0  0  1  0  0  0  0  0999 V2000
    7.4153  -12.3717   18.5504 C   0  0  0  0  0  0  0  0  0  0  0  0
    7.4754  -13.7444   19.1930 C   0  0  0  0  0  0  0  0  0  0  0  0
    8.1872  -13.5917   20.5232 C   0  0  2  0  0  0  0  0  0  0  0  0
    9.5619  -13.0522   20.2451 C   0  0  0  0  0  0  0  0  0  0  0  0
    8.2048  -14.9595   21.1701 C   0  0  2  0  0  0  0  0  0  0  0  0
    6.8533  -15.4799   21.0934 N   0  0  0  0  0  0  0  0  0  0  0  0
    8.6491  -14.8944   22.5855 C   0  0  0  0  0  0  0  0  0  0  0  0
    9.8572  -14.8311   22.8744 O   0  0  0  0  0  0  0  0  0  0  0  0
    8.0633  -12.0817   26.3551 C   0  0  0  0  0  0  0  0  0  0  0  0
    6.7841  -12.7669   25.8702 C   0  0  2  0  0  0  0  0  0  0  0  0
    5.5425  -12.2209   26.4666 C   0  0  0  0  0  0  0  0  0  0  0  0
    6.9204  -14.2243   25.7401 C   0  0  0  0  0  0  0  0  0  0  0  0
    8.0740  -14.8295   25.0591 C   0  0  2  0  0  0  0  0  0  0  0  0
    7.6916  -14.9043   23.6240 N   0  0  0  0  0  0  0  0  0  0  0  0
    8.6450  -16.0788   25.4878 C   0  0  0  0  0  0  0  0  0  0  0  0
    7.9403  -17.1383   25.2944 O   0  0  0  0  0  0  0  0  0  0  0  0
   13.9359  -17.9552   24.1042 N   0  0  0  0  0  0  0  0  0  0  0  0
   12.8938  -18.8354   23.7078 C   0  0  0  0  0  0  0  0  0  0  0  0
   13.0535  -19.5814   22.7111 O   0  0  0  0  0  0  0  0  0  0  0  0
   11.6013  -18.8626   24.4943 C   0  0  0  0  0  0  0  0  0  0  0  0
   11.6816  -17.8430   25.5701 C   0  0  0  0  0  0  0  0  0  0  0  0
   10.3658  -17.7011   26.3295 C   0  0  2  0  0  0  0  0  0  0  0  0
    9.8979  -16.3190   26.0961 N   0  0  0  0  0  0  0  0  0  0  0  0
   10.5833  -17.8817   27.7608 C   0  0  0  0  0  0  0  0  0  0  0  0
   10.9949  -18.9631   28.2780 O   0  0  0  0  0  0  0  0  0  0  0  0
   10.3462  -16.8563   28.6455 O   0  0  0  0  0  0  0  0  0  0  0  0
  2  1  1  0
  3  2  1  0
  3  5  1  0
  3  4  1  6
  5  6  1  1
  7  5  1  0
  7  8  2  0
 10  9  1  1
 10 11  1  0
 10 12  1  0
 13 14  1  0
 13 12  1  1
 14  7  1  0
 15 13  1  0
 16 15  2  0
 17 18  1  0
 18 19  2  0
 20 18  1  0
 20 21  1  0
 22 21  1  6
 22 23  1  0
 23 15  1  0
 24 26  1  0
 24 22  1  0
 25 24  2  0
M  END
$$$$
