ILQ.pdb
     RDKit          3D

 26 25  0  0  1  0  0  0  0  0999 V2000
    7.4676  -12.2614   18.8218 C   0  0  0  0  0  0  0  0  0  0  0  0
    7.3524  -13.6313   19.4629 C   0  0  0  0  0  0  0  0  0  0  0  0
    8.2300  -13.6284   20.6995 C   0  0  2  0  0  0  0  0  0  0  0  0
    9.6379  -13.3433   20.2584 C   0  0  0  0  0  0  0  0  0  0  0  0
    8.0740  -14.9855   21.3504 C   0  0  2  0  0  0  0  0  0  0  0  0
    6.6787  -15.3585   21.2191 N   0  0  0  0  0  0  0  0  0  0  0  0
    8.4642  -14.9582   22.7829 C   0  0  0  0  0  0  0  0  0  0  0  0
    9.6614  -14.9328   23.1193 O   0  0  0  0  0  0  0  0  0  0  0  0
    7.9811  -12.2270   26.4490 C   0  0  0  0  0  0  0  0  0  0  0  0
    6.6501  -12.8352   26.0026 C   0  0  2  0  0  0  0  0  0  0  0  0
    5.4594  -12.1952   26.6092 C   0  0  0  0  0  0  0  0  0  0  0  0
    6.6867  -14.3009   25.9024 C   0  0  0  0  0  0  0  0  0  0  0  0
    7.7952  -14.9969   25.2332 C   0  0  2  0  0  0  0  0  0  0  0  0
    7.4671  -14.9611   23.7833 N   0  0  0  0  0  0  0  0  0  0  0  0
    8.2090  -16.3205   25.6174 C   0  0  0  0  0  0  0  0  0  0  0  0
    7.5222  -17.3039   25.1509 O   0  0  0  0  0  0  0  0  0  0  0  0
   10.0605  -19.0548   22.3436 N   0  0  0  0  0  0  0  0  0  0  0  0
   10.7780  -19.8158   23.3049 C   0  0  0  0  0  0  0  0  0  0  0  0
   10.8925  -21.0570   23.1579 O   0  0  0  0  0  0  0  0  0  0  0  0
   11.3969  -19.1183   24.4967 C   0  0  0  0  0  0  0  0  0  0  0  0
   10.5806  -17.9214   24.8199 C   0  0  0  0  0  0  0  0  0  0  0  0
    9.9799  -17.9941   26.2206 C   0  0  2  0  0  0  0  0  0  0  0  0
    9.2883  -16.7075   26.4438 N   0  0  0  0  0  0  0  0  0  0  0  0
   11.0347  -18.1330   27.2190 C   0  0  0  0  0  0  0  0  0  0  0  0
   11.6445  -19.2197   27.4503 O   0  0  0  0  0  0  0  0  0  0  0  0
   11.4316  -17.0590   27.9802 O   0  0  0  0  0  0  0  0  0  0  0  0
  2  1  1  0
  3  2  1  0
  3  5  1  0
  3  4  1  6
  5  6  1  1
  7  5  1  0
  7  8  2  0
 10  9  1  1
 10 11  1  0
 10 12  1  0
 13 14  1  0
 13 12  1  1
 14  7  1  0
 15 13  1  0
 16 15  2  0
 17 18  1  0
 18 19  2  0
 20 18  1  0
 20 21  1  0
 22 21  1  6
 22 23  1  0
 23 15  1  0
 24 26  1  0
 24 22  1  0
 25 24  2  0
M  END
$$$$
