ILQ.pdb
     RDKit          3D

 26 25  0  0  1  0  0  0  0  0999 V2000
    8.5163  -22.1848   20.5811 C   0  0  0  0  0  0  0  0  0  0  0  0
    8.1630  -20.9221   19.8185 C   0  0  0  0  0  0  0  0  0  0  0  0
    8.7034  -19.7475   20.6110 C   0  0  2  0  0  0  0  0  0  0  0  0
    8.0833  -19.7969   21.9788 C   0  0  0  0  0  0  0  0  0  0  0  0
    8.3436  -18.4963   19.8397 C   0  0  2  0  0  0  0  0  0  0  0  0
    8.7760  -18.7052   18.4713 N   0  0  0  0  0  0  0  0  0  0  0  0
    9.0010  -17.2913   20.4062 C   0  0  0  0  0  0  0  0  0  0  0  0
   10.2212  -17.0998   20.2594 O   0  0  0  0  0  0  0  0  0  0  0  0
    8.9647  -13.2511   19.4327 C   0  0  0  0  0  0  0  0  0  0  0  0
    7.6750  -13.5137   20.2127 C   0  0  2  0  0  0  0  0  0  0  0  0
    6.6408  -12.4667   20.0409 C   0  0  0  0  0  0  0  0  0  0  0  0
    7.9109  -14.0556   21.5581 C   0  0  0  0  0  0  0  0  0  0  0  0
    8.8501  -15.1634   21.7855 C   0  0  2  0  0  0  0  0  0  0  0  0
    8.2361  -16.3448   21.1233 N   0  0  0  0  0  0  0  0  0  0  0  0
    9.3121  -15.5149   23.1021 C   0  0  0  0  0  0  0  0  0  0  0  0
   10.1217  -14.6939   23.6740 O   0  0  0  0  0  0  0  0  0  0  0  0
    6.9828  -19.1585   27.5571 N   0  0  0  0  0  0  0  0  0  0  0  0
    7.4459  -19.7708   26.3618 C   0  0  0  0  0  0  0  0  0  0  0  0
    7.0931  -20.9431   26.0849 O   0  0  0  0  0  0  0  0  0  0  0  0
    8.3608  -18.9998   25.4353 C   0  0  0  0  0  0  0  0  0  0  0  0
    8.6156  -17.6629   26.0280 C   0  0  0  0  0  0  0  0  0  0  0  0
    9.6115  -16.8487   25.2076 C   0  0  2  0  0  0  0  0  0  0  0  0
    8.9934  -16.6511   23.8800 N   0  0  0  0  0  0  0  0  0  0  0  0
   10.8548  -17.5922   25.0343 C   0  0  0  0  0  0  0  0  0  0  0  0
   11.2478  -18.0544   23.9216 O   0  0  0  0  0  0  0  0  0  0  0  0
   11.6868  -17.8343   26.1018 O   0  0  0  0  0  0  0  0  0  0  0  0
  2  1  1  0
  3  2  1  0
  3  5  1  0
  3  4  1  1
  5  6  1  6
  7  5  1  0
  7  8  2  0
 10  9  1  1
 10 11  1  0
 10 12  1  0
 13 14  1  0
 13 12  1  1
 14  7  1  0
 15 13  1  0
 16 15  2  0
 17 18  1  0
 18 19  2  0
 20 18  1  0
 20 21  1  0
 22 21  1  1
 22 23  1  0
 23 15  1  0
 24 26  1  0
 24 22  1  0
 25 24  2  0
M  END
$$$$
