ILQ.pdb
     RDKit          3D

 26 25  0  0  1  0  0  0  0  0999 V2000
    6.1375  -21.1487   22.4583 C   0  0  0  0  0  0  0  0  0  0  0  0
    5.9800  -19.7225   21.9662 C   0  0  0  0  0  0  0  0  0  0  0  0
    6.8478  -18.8416   22.8439 C   0  0  2  0  0  0  0  0  0  0  0  0
    6.4013  -19.0340   24.2658 C   0  0  0  0  0  0  0  0  0  0  0  0
    6.6698  -17.4218   22.3516 C   0  0  2  0  0  0  0  0  0  0  0  0
    7.1020  -17.3979   20.9675 N   0  0  0  0  0  0  0  0  0  0  0  0
    7.4642  -16.4566   23.1530 C   0  0  0  0  0  0  0  0  0  0  0  0
    8.7036  -16.4133   23.0575 O   0  0  0  0  0  0  0  0  0  0  0  0
    8.1860  -12.6399   27.0368 C   0  0  0  0  0  0  0  0  0  0  0  0
    7.0343  -12.4239   26.0531 C   0  0  2  0  0  0  0  0  0  0  0  0
    6.0064  -11.4674   26.5265 C   0  0  0  0  0  0  0  0  0  0  0  0
    6.5936  -13.6617   25.3950 C   0  0  0  0  0  0  0  0  0  0  0  0
    7.5543  -14.6944   24.9805 C   0  0  2  0  0  0  0  0  0  0  0  0
    6.8098  -15.5720   24.0387 N   0  0  0  0  0  0  0  0  0  0  0  0
    8.2792  -15.4904   25.9352 C   0  0  0  0  0  0  0  0  0  0  0  0
    7.6060  -16.3692   26.5917 O   0  0  0  0  0  0  0  0  0  0  0  0
   12.5274  -18.8565   24.2897 N   0  0  0  0  0  0  0  0  0  0  0  0
   13.1636  -17.6887   24.7892 C   0  0  0  0  0  0  0  0  0  0  0  0
   14.3205  -17.3948   24.4012 O   0  0  0  0  0  0  0  0  0  0  0  0
   12.4363  -16.8116   25.7850 C   0  0  0  0  0  0  0  0  0  0  0  0
   11.0800  -17.3729   26.0065 C   0  0  0  0  0  0  0  0  0  0  0  0
   10.2769  -16.5587   27.0165 C   0  0  2  0  0  0  0  0  0  0  0  0
    9.6545  -15.4533   26.2587 N   0  0  0  0  0  0  0  0  0  0  0  0
   11.1611  -15.9882   28.0271 C   0  0  0  0  0  0  0  0  0  0  0  0
   11.8666  -16.6842   28.8171 O   0  0  0  0  0  0  0  0  0  0  0  0
   11.2767  -14.6262   28.1757 O   0  0  0  0  0  0  0  0  0  0  0  0
  2  1  1  0
  3  2  1  0
  3  5  1  0
  3  4  1  1
  5  6  1  6
  7  5  1  0
  7  8  2  0
 10  9  1  1
 10 11  1  0
 10 12  1  0
 13 14  1  0
 13 12  1  1
 14  7  1  0
 15 13  1  0
 16 15  2  0
 17 18  1  0
 18 19  2  0
 20 18  1  0
 20 21  1  0
 22 21  1  6
 22 23  1  0
 23 15  1  0
 24 26  1  0
 24 22  1  0
 25 24  2  0
M  END
$$$$
