ILQ.pdb
     RDKit          3D

 26 25  0  0  1  0  0  0  0  0999 V2000
    4.8222  -22.3694   25.1295 C   0  0  0  0  0  0  0  0  0  0  0  0
    6.1375  -21.6154   25.1767 C   0  0  0  0  0  0  0  0  0  0  0  0
    5.8774  -20.2167   24.6518 C   0  0  2  0  0  0  0  0  0  0  0  0
    5.3740  -20.3454   23.2418 C   0  0  0  0  0  0  0  0  0  0  0  0
    7.1853  -19.4619   24.7498 C   0  0  2  0  0  0  0  0  0  0  0  0
    7.5924  -19.5021   26.1411 N   0  0  0  0  0  0  0  0  0  0  0  0
    7.0449  -18.0545   24.2976 C   0  0  0  0  0  0  0  0  0  0  0  0
    6.8984  -17.7813   23.0930 O   0  0  0  0  0  0  0  0  0  0  0  0
    7.5899  -12.6764   25.0205 C   0  0  0  0  0  0  0  0  0  0  0  0
    6.6746  -13.3532   26.0428 C   0  0  2  0  0  0  0  0  0  0  0  0
    6.5735  -12.6331   27.3337 C   0  0  0  0  0  0  0  0  0  0  0  0
    6.8085  -14.8165   26.0620 C   0  0  0  0  0  0  0  0  0  0  0  0
    7.1231  -15.5745   24.8423 C   0  0  2  0  0  0  0  0  0  0  0  0
    7.0775  -17.0058   25.2432 N   0  0  0  0  0  0  0  0  0  0  0  0
    8.3049  -15.3129   24.0641 C   0  0  0  0  0  0  0  0  0  0  0  0
    8.2308  -14.3699   23.1913 O   0  0  0  0  0  0  0  0  0  0  0  0
   14.1951  -15.7358   25.5498 N   0  0  0  0  0  0  0  0  0  0  0  0
   14.3759  -15.4992   24.1609 C   0  0  0  0  0  0  0  0  0  0  0  0
   15.5355  -15.3949   23.6921 O   0  0  0  0  0  0  0  0  0  0  0  0
   13.1649  -15.3755   23.2619 C   0  0  0  0  0  0  0  0  0  0  0  0
   11.9467  -15.6181   24.0746 C   0  0  0  0  0  0  0  0  0  0  0  0
   10.6699  -15.5105   23.2461 C   0  0  2  0  0  0  0  0  0  0  0  0
    9.5657  -15.9487   24.1250 N   0  0  0  0  0  0  0  0  0  0  0  0
   10.7325  -16.4080   22.0975 C   0  0  0  0  0  0  0  0  0  0  0  0
   10.1692  -17.5427   22.0610 O   0  0  0  0  0  0  0  0  0  0  0  0
   11.4259  -16.0557   20.9637 O   0  0  0  0  0  0  0  0  0  0  0  0
  2  1  1  0
  3  2  1  0
  3  5  1  0
  3  4  1  6
  5  6  1  1
  7  5  1  0
  7  8  2  0
 10  9  1  1
 10 11  1  0
 10 12  1  0
 13 14  1  0
 13 12  1  1
 14  7  1  0
 15 13  1  0
 16 15  2  0
 17 18  1  0
 18 19  2  0
 20 18  1  0
 20 21  1  0
 22 21  1  1
 22 23  1  0
 23 15  1  0
 24 26  1  0
 24 22  1  0
 25 24  2  0
M  END
$$$$
