ILQ.pdb
     RDKit          3D

 26 25  0  0  1  0  0  0  0  0999 V2000
    6.5816  -22.3338   25.1634 C   0  0  0  0  0  0  0  0  0  0  0  0
    5.7242  -21.1733   24.6954 C   0  0  0  0  0  0  0  0  0  0  0  0
    6.6210  -19.9537   24.6069 C   0  0  2  0  0  0  0  0  0  0  0  0
    7.2538  -19.7546   25.9553 C   0  0  0  0  0  0  0  0  0  0  0  0
    5.7441  -18.7950   24.1846 C   0  0  2  0  0  0  0  0  0  0  0  0
    5.1605  -19.1518   22.9059 N   0  0  0  0  0  0  0  0  0  0  0  0
    6.5185  -17.5341   24.0603 C   0  0  0  0  0  0  0  0  0  0  0  0
    7.3137  -17.3620   23.1194 O   0  0  0  0  0  0  0  0  0  0  0  0
    6.2392  -12.1870   27.1563 C   0  0  0  0  0  0  0  0  0  0  0  0
    7.0583  -12.9907   26.1443 C   0  0  2  0  0  0  0  0  0  0  0  0
    7.5607  -12.1915   25.0023 C   0  0  0  0  0  0  0  0  0  0  0  0
    6.5042  -14.3257   25.8791 C   0  0  0  0  0  0  0  0  0  0  0  0
    7.2258  -15.3062   25.0550 C   0  0  2  0  0  0  0  0  0  0  0  0
    6.3550  -16.5111   25.0205 N   0  0  0  0  0  0  0  0  0  0  0  0
    8.5865  -15.6832   25.3324 C   0  0  0  0  0  0  0  0  0  0  0  0
    8.8958  -15.8830   26.5657 O   0  0  0  0  0  0  0  0  0  0  0  0
   11.1500  -20.4666   23.9727 N   0  0  0  0  0  0  0  0  0  0  0  0
   12.2193  -19.9614   24.7597 C   0  0  0  0  0  0  0  0  0  0  0  0
   13.1173  -20.7394   25.1639 O   0  0  0  0  0  0  0  0  0  0  0  0
   12.2620  -18.4878   25.1012 C   0  0  0  0  0  0  0  0  0  0  0  0
   10.9782  -17.8693   24.6858 C   0  0  0  0  0  0  0  0  0  0  0  0
   10.9664  -16.3599   24.9090 C   0  0  2  0  0  0  0  0  0  0  0  0
    9.6548  -15.8786   24.4279 N   0  0  0  0  0  0  0  0  0  0  0  0
   12.0133  -15.7214   24.1185 C   0  0  0  0  0  0  0  0  0  0  0  0
   13.2515  -15.8539   24.3543 O   0  0  0  0  0  0  0  0  0  0  0  0
   11.6985  -14.9210   23.0458 O   0  0  0  0  0  0  0  0  0  0  0  0
  2  1  1  0
  3  2  1  0
  3  5  1  0
  3  4  1  1
  5  6  1  6
  7  5  1  0
  7  8  2  0
 10  9  1  6
 10 11  1  0
 10 12  1  0
 13 14  1  0
 13 12  1  1
 14  7  1  0
 15 13  1  0
 16 15  2  0
 17 18  1  0
 18 19  2  0
 20 18  1  0
 20 21  1  0
 22 21  1  6
 22 23  1  0
 23 15  1  0
 24 26  1  0
 24 22  1  0
 25 24  2  0
M  END
$$$$
