CHG.pdb
     RDKit          3D

 21 21  0  0  1  0  0  0  0  0999 V2000
   22.1023  -29.9968  -16.8762 N   0  0  0  0  0  0  0  0  0  0  0  0
   23.3442  -29.9150  -17.6345 C   0  0  1  0  0  0  0  0  0  0  0  0
   23.1181  -29.0938  -18.8738 C   0  0  0  0  0  0  0  0  0  0  0  0
   22.2537  -30.1507  -20.0771 S   0  0  0  0  0  0  0  0  0  0  0  0
   24.4310  -29.4071  -16.7828 C   0  0  0  0  0  0  0  0  0  0  0  0
   24.1431  -28.6819  -15.7695 O   0  0  0  0  0  0  0  0  0  0  0  0
   25.7782  -29.7274  -17.0959 N   0  0  0  0  0  0  0  0  0  0  0  0
   26.8770  -29.3356  -16.2399 C   0  0  1  0  0  0  0  0  0  0  0  0
   27.7779  -30.4694  -15.9335 C   0  0  0  0  0  0  0  0  0  0  0  0
   27.2647  -31.5285  -15.0710 C   0  0  0  0  0  0  0  0  0  0  0  0
   26.0351  -31.6689  -14.4729 C   0  0  0  0  0  0  0  0  0  0  0  0
   25.9861  -32.8190  -13.7322 N   0  0  0  0  0  0  0  0  0  0  0  0
   27.1993  -33.3686  -13.8910 C   0  0  0  0  0  0  0  0  0  0  0  0
   27.9720  -32.6337  -14.6717 N   0  0  0  0  0  0  0  0  0  0  0  0
   27.7130  -28.3561  -17.0358 C   0  0  0  0  0  0  0  0  0  0  0  0
   28.3288  -28.7892  -18.0318 O   0  0  0  0  0  0  0  0  0  0  0  0
   27.8198  -26.9974  -16.6995 N   0  0  0  0  0  0  0  0  0  0  0  0
   28.5627  -26.0196  -17.4422 C   0  0  0  0  0  0  0  0  0  0  0  0
   28.4389  -24.6562  -16.8681 C   0  0  0  0  0  0  0  0  0  0  0  0
   29.4817  -23.7593  -16.7456 O   0  0  0  0  0  0  0  0  0  0  0  0
   27.3060  -24.2986  -16.4679 O   0  0  0  0  0  0  0  0  0  0  0  0
  2  1  1  1
  3  4  1  0
  3  2  1  0
  5  6  2  0
  5  2  1  0
  7  5  1  0
  8 15  1  0
  8  7  1  0
  8  9  1  6
 10  9  1  0
 11 10  2  0
 12 11  1  0
 13 12  1  0
 13 14  2  0
 14 10  1  0
 15 17  1  0
 16 15  2  0
 17 18  1  0
 18 19  1  0
 19 20  1  0
 21 19  2  0
M  END
$$$$
