CHG.pdb
     RDKit          3D

 21 21  0  0  1  0  0  0  0  0999 V2000
   19.7172  -14.5017  -15.8306 N   0  0  0  0  0  0  0  0  0  0  0  0
   19.4379  -13.1668  -16.3444 C   0  0  1  0  0  0  0  0  0  0  0  0
   17.9697  -12.8747  -16.2007 C   0  0  0  0  0  0  0  0  0  0  0  0
   17.0893  -13.8954  -17.4234 S   0  0  0  0  0  0  0  0  0  0  0  0
   20.3020  -12.1743  -15.6864 C   0  0  0  0  0  0  0  0  0  0  0  0
   20.3757  -12.1595  -14.4098 O   0  0  0  0  0  0  0  0  0  0  0  0
   21.0386  -11.2508  -16.4739 N   0  0  0  0  0  0  0  0  0  0  0  0
   22.0259  -10.3666  -15.8935 C   0  0  1  0  0  0  0  0  0  0  0  0
   23.3299  -10.4524  -16.5887 C   0  0  0  0  0  0  0  0  0  0  0  0
   24.1533  -11.6312  -16.3412 C   0  0  0  0  0  0  0  0  0  0  0  0
   23.9663  -12.6778  -15.4700 C   0  0  0  0  0  0  0  0  0  0  0  0
   25.0010  -13.5700  -15.5567 N   0  0  0  0  0  0  0  0  0  0  0  0
   25.8121  -13.0486  -16.4892 C   0  0  0  0  0  0  0  0  0  0  0  0
   25.3408  -11.9105  -16.9679 N   0  0  0  0  0  0  0  0  0  0  0  0
   21.5310   -8.9557  -16.1310 C   0  0  0  0  0  0  0  0  0  0  0  0
   20.9583   -8.7128  -17.2136 O   0  0  0  0  0  0  0  0  0  0  0  0
   21.6902   -7.9249  -15.1916 N   0  0  0  0  0  0  0  0  0  0  0  0
   21.1318   -6.6081  -15.3092 C   0  0  0  0  0  0  0  0  0  0  0  0
   21.4865   -5.7363  -14.1612 C   0  0  0  0  0  0  0  0  0  0  0  0
   21.2449   -4.3779  -14.1040 O   0  0  0  0  0  0  0  0  0  0  0  0
   22.0443   -6.2760  -13.1768 O   0  0  0  0  0  0  0  0  0  0  0  0
  2  1  1  1
  3  4  1  0
  3  2  1  0
  5  6  2  0
  5  2  1  0
  7  5  1  0
  8 15  1  0
  8  7  1  0
  8  9  1  6
 10  9  1  0
 11 10  2  0
 12 11  1  0
 13 12  1  0
 13 14  2  0
 14 10  1  0
 15 17  1  0
 16 15  2  0
 17 18  1  0
 18 19  1  0
 19 20  1  0
 21 19  2  0
M  END
$$$$
