CHG.pdb
     RDKit          3D

 21 21  0  0  1  0  0  0  0  0999 V2000
   21.1763  -18.0412  -16.6953 N   0  0  0  0  0  0  0  0  0  0  0  0
   21.1259  -17.5013  -15.3426 C   0  0  1  0  0  0  0  0  0  0  0  0
   21.5887  -18.5505  -14.3698 C   0  0  0  0  0  0  0  0  0  0  0  0
   20.3952  -19.9226  -14.4402 S   0  0  0  0  0  0  0  0  0  0  0  0
   21.8916  -16.2474  -15.2634 C   0  0  0  0  0  0  0  0  0  0  0  0
   22.0173  -15.6632  -14.1327 O   0  0  0  0  0  0  0  0  0  0  0  0
   22.4777  -15.7058  -16.4376 N   0  0  0  0  0  0  0  0  0  0  0  0
   23.2769  -14.5001  -16.4080 C   0  0  1  0  0  0  0  0  0  0  0  0
   24.6227  -14.7078  -16.9882 C   0  0  0  0  0  0  0  0  0  0  0  0
   25.5089  -15.6559  -16.3214 C   0  0  0  0  0  0  0  0  0  0  0  0
   26.0948  -15.6010  -15.0792 C   0  0  0  0  0  0  0  0  0  0  0  0
   26.8680  -16.7092  -14.8598 N   0  0  0  0  0  0  0  0  0  0  0  0
   26.7409  -17.4308  -15.9834 C   0  0  0  0  0  0  0  0  0  0  0  0
   25.9493  -16.8380  -16.8599 N   0  0  0  0  0  0  0  0  0  0  0  0
   22.5897  -13.5071  -17.3211 C   0  0  0  0  0  0  0  0  0  0  0  0
   21.9142  -13.9573  -18.2696 O   0  0  0  0  0  0  0  0  0  0  0  0
   22.6831  -12.1178  -17.1427 N   0  0  0  0  0  0  0  0  0  0  0  0
   21.9440  -11.1389  -17.8878 C   0  0  0  0  0  0  0  0  0  0  0  0
   20.7576  -10.6394  -17.1483 C   0  0  0  0  0  0  0  0  0  0  0  0
   19.9552   -9.5962  -17.5662 O   0  0  0  0  0  0  0  0  0  0  0  0
   20.4681  -11.2079  -16.0691 O   0  0  0  0  0  0  0  0  0  0  0  0
  2  1  1  6
  3  4  1  0
  3  2  1  0
  5  6  2  0
  5  2  1  0
  7  5  1  0
  8 15  1  0
  8  7  1  0
  8  9  1  6
 10  9  1  0
 11 10  2  0
 12 11  1  0
 13 12  1  0
 13 14  2  0
 14 10  1  0
 15 17  1  0
 16 15  2  0
 17 18  1  0
 18 19  1  0
 19 20  1  0
 21 19  2  0
M  END
$$$$
