CHG.pdb
     RDKit          3D

 21 21  0  0  1  0  0  0  0  0999 V2000
   21.1853  -16.2646  -19.7941 N   0  0  0  0  0  0  0  0  0  0  0  0
   20.3332  -16.2123  -18.6130 C   0  0  1  0  0  0  0  0  0  0  0  0
   18.8912  -16.1923  -19.0394 C   0  0  0  0  0  0  0  0  0  0  0  0
   18.4213  -14.4518  -19.2885 S   0  0  0  0  0  0  0  0  0  0  0  0
   20.6601  -17.3164  -17.6971 C   0  0  0  0  0  0  0  0  0  0  0  0
   20.8989  -18.4768  -18.1785 O   0  0  0  0  0  0  0  0  0  0  0  0
   20.7059  -17.0795  -16.2980 N   0  0  0  0  0  0  0  0  0  0  0  0
   21.0290  -18.1277  -15.3544 C   0  0  1  0  0  0  0  0  0  0  0  0
   22.3212  -17.8872  -14.6736 C   0  0  0  0  0  0  0  0  0  0  0  0
   23.5371  -17.9831  -15.4744 C   0  0  0  0  0  0  0  0  0  0  0  0
   24.1893  -19.0871  -15.9695 C   0  0  0  0  0  0  0  0  0  0  0  0
   25.3094  -18.7162  -16.6636 N   0  0  0  0  0  0  0  0  0  0  0  0
   25.3238  -17.3775  -16.5804 C   0  0  0  0  0  0  0  0  0  0  0  0
   24.2959  -16.9183  -15.8883 N   0  0  0  0  0  0  0  0  0  0  0  0
   19.9785  -18.0644  -14.2661 C   0  0  0  0  0  0  0  0  0  0  0  0
   19.7299  -16.9508  -13.7592 O   0  0  0  0  0  0  0  0  0  0  0  0
   19.2834  -19.1964  -13.8123 N   0  0  0  0  0  0  0  0  0  0  0  0
   18.2318  -19.1821  -12.8358 C   0  0  0  0  0  0  0  0  0  0  0  0
   17.6306  -20.5237  -12.6292 C   0  0  0  0  0  0  0  0  0  0  0  0
   18.0831  -21.6856  -13.2227 O   0  0  0  0  0  0  0  0  0  0  0  0
   16.6431  -20.6020  -11.8611 O   0  0  0  0  0  0  0  0  0  0  0  0
  2  1  1  6
  3  4  1  0
  3  2  1  0
  5  6  2  0
  5  2  1  0
  7  5  1  0
  8 15  1  0
  8  7  1  0
  8  9  1  1
 10  9  1  0
 11 10  2  0
 12 11  1  0
 13 12  1  0
 13 14  2  0
 14 10  1  0
 15 17  1  0
 16 15  2  0
 17 18  1  0
 18 19  1  0
 19 20  1  0
 21 19  2  0
M  END
$$$$
