CHG.pdb
     RDKit          3D

 21 21  0  0  1  0  0  0  0  0999 V2000
   25.3449  -22.8671  -19.0012 N   0  0  0  0  0  0  0  0  0  0  0  0
   24.1813  -22.0110  -18.8084 C   0  0  1  0  0  0  0  0  0  0  0  0
   22.9292  -22.8223  -18.9969 C   0  0  0  0  0  0  0  0  0  0  0  0
   22.9188  -23.4157  -20.7173 S   0  0  0  0  0  0  0  0  0  0  0  0
   24.2535  -21.3360  -17.5031 C   0  0  0  0  0  0  0  0  0  0  0  0
   24.9880  -21.8344  -16.5824 O   0  0  0  0  0  0  0  0  0  0  0  0
   23.5104  -20.1462  -17.2844 N   0  0  0  0  0  0  0  0  0  0  0  0
   23.6686  -19.3548  -16.0836 C   0  0  1  0  0  0  0  0  0  0  0  0
   24.2287  -18.0144  -16.3680 C   0  0  0  0  0  0  0  0  0  0  0  0
   25.6299  -17.9366  -16.7674 C   0  0  0  0  0  0  0  0  0  0  0  0
   26.5877  -18.9195  -16.8424 C   0  0  0  0  0  0  0  0  0  0  0  0
   27.7838  -18.3986  -17.2569 N   0  0  0  0  0  0  0  0  0  0  0  0
   27.5351  -17.0920  -17.4302 C   0  0  0  0  0  0  0  0  0  0  0  0
   26.2791  -16.7908  -17.1505 N   0  0  0  0  0  0  0  0  0  0  0  0
   22.2752  -19.1070  -15.5462 C   0  0  0  0  0  0  0  0  0  0  0  0
   21.3760  -18.8235  -16.3646 O   0  0  0  0  0  0  0  0  0  0  0  0
   21.9615  -19.1834  -14.1800 N   0  0  0  0  0  0  0  0  0  0  0  0
   20.6793  -18.8823  -13.6099 C   0  0  0  0  0  0  0  0  0  0  0  0
   19.7273  -20.0157  -13.7233 C   0  0  0  0  0  0  0  0  0  0  0  0
   18.4379  -20.0093  -13.2289 O   0  0  0  0  0  0  0  0  0  0  0  0
   20.1267  -21.0490  -14.3101 O   0  0  0  0  0  0  0  0  0  0  0  0
  2  1  1  1
  3  4  1  0
  3  2  1  0
  5  6  2  0
  5  2  1  0
  7  5  1  0
  8 15  1  0
  8  7  1  0
  8  9  1  6
 10  9  1  0
 11 10  2  0
 12 11  1  0
 13 12  1  0
 13 14  2  0
 14 10  1  0
 15 17  1  0
 16 15  2  0
 17 18  1  0
 18 19  1  0
 19 20  1  0
 21 19  2  0
M  END
$$$$
