CHG.pdb
     RDKit          3D

 21 21  0  0  1  0  0  0  0  0999 V2000
   21.1162  -10.7940  -19.6372 N   0  0  0  0  0  0  0  0  0  0  0  0
   21.8850   -9.6923  -19.0722 C   0  0  1  0  0  0  0  0  0  0  0  0
   22.4693   -8.8692  -20.1869 C   0  0  0  0  0  0  0  0  0  0  0  0
   24.1677   -9.4601  -20.4675 S   0  0  0  0  0  0  0  0  0  0  0  0
   21.0544   -8.9141  -18.1398 C   0  0  0  0  0  0  0  0  0  0  0  0
   19.8761   -8.5664  -18.4948 O   0  0  0  0  0  0  0  0  0  0  0  0
   21.5699   -8.5617  -16.8649 N   0  0  0  0  0  0  0  0  0  0  0  0
   20.8115   -7.7629  -15.9267 C   0  0  1  0  0  0  0  0  0  0  0  0
   20.3044   -8.5661  -14.7915 C   0  0  0  0  0  0  0  0  0  0  0  0
   19.2280   -9.5139  -15.0597 C   0  0  0  0  0  0  0  0  0  0  0  0
   18.4826   -9.7124  -16.1973 C   0  0  0  0  0  0  0  0  0  0  0  0
   17.5620  -10.7070  -16.0049 N   0  0  0  0  0  0  0  0  0  0  0  0
   17.7615  -11.1043  -14.7394 C   0  0  0  0  0  0  0  0  0  0  0  0
   18.7331  -10.4221  -14.1589 N   0  0  0  0  0  0  0  0  0  0  0  0
   21.7839   -6.7729  -15.3215 C   0  0  0  0  0  0  0  0  0  0  0  0
   22.9691   -7.1360  -15.1723 O   0  0  0  0  0  0  0  0  0  0  0  0
   21.4069   -5.4794  -14.9274 N   0  0  0  0  0  0  0  0  0  0  0  0
   22.3008   -4.4787  -14.4183 C   0  0  0  0  0  0  0  0  0  0  0  0
   21.5945   -3.2334  -14.0256 C   0  0  0  0  0  0  0  0  0  0  0  0
   22.1638   -2.2037  -13.3027 O   0  0  0  0  0  0  0  0  0  0  0  0
   20.3973   -3.1128  -14.3774 O   0  0  0  0  0  0  0  0  0  0  0  0
  2  1  1  6
  3  4  1  0
  3  2  1  0
  5  6  2  0
  5  2  1  0
  7  5  1  0
  8 15  1  0
  8  7  1  0
  8  9  1  1
 10  9  1  0
 11 10  2  0
 12 11  1  0
 13 12  1  0
 13 14  2  0
 14 10  1  0
 15 17  1  0
 16 15  2  0
 17 18  1  0
 18 19  1  0
 19 20  1  0
 21 19  2  0
M  END
$$$$
