CHG.pdb
     RDKit          3D

 21 21  0  0  1  0  0  0  0  0999 V2000
   22.1326   -9.7163  -15.8770 N   0  0  0  0  0  0  0  0  0  0  0  0
   21.6884   -8.3880  -15.4743 C   0  0  1  0  0  0  0  0  0  0  0  0
   21.9496   -8.1994  -14.0053 C   0  0  0  0  0  0  0  0  0  0  0  0
   20.6823   -9.1425  -13.1016 S   0  0  0  0  0  0  0  0  0  0  0  0
   22.3162   -7.3604  -16.3197 C   0  0  0  0  0  0  0  0  0  0  0  0
   23.5687   -7.4353  -16.5668 O   0  0  0  0  0  0  0  0  0  0  0  0
   21.5267   -6.3049  -16.8471 N   0  0  0  0  0  0  0  0  0  0  0  0
   22.0564   -5.3570  -17.8033 C   0  0  1  0  0  0  0  0  0  0  0  0
   21.4193   -5.4898  -19.1328 C   0  0  0  0  0  0  0  0  0  0  0  0
   21.6018   -6.7480  -19.8487 C   0  0  0  0  0  0  0  0  0  0  0  0
   22.7536   -7.3879  -20.2400 C   0  0  0  0  0  0  0  0  0  0  0  0
   22.4604   -8.5489  -20.9034 N   0  0  0  0  0  0  0  0  0  0  0  0
   21.1200   -8.6001  -20.9070 C   0  0  0  0  0  0  0  0  0  0  0  0
   20.5879   -7.5565  -20.2953 N   0  0  0  0  0  0  0  0  0  0  0  0
   21.6698   -3.9813  -17.3033 C   0  0  0  0  0  0  0  0  0  0  0  0
   20.5420   -3.8444  -16.7854 O   0  0  0  0  0  0  0  0  0  0  0  0
   22.5212   -2.8694  -17.3993 N   0  0  0  0  0  0  0  0  0  0  0  0
   22.1917   -1.5389  -16.9740 C   0  0  0  0  0  0  0  0  0  0  0  0
   23.2884   -0.5723  -17.2324 C   0  0  0  0  0  0  0  0  0  0  0  0
   23.2145    0.7834  -16.9800 O   0  0  0  0  0  0  0  0  0  0  0  0
   24.3545   -1.0233  -17.7136 O   0  0  0  0  0  0  0  0  0  0  0  0
  2  1  1  6
  3  4  1  0
  3  2  1  0
  5  6  2  0
  5  2  1  0
  7  5  1  0
  8 15  1  0
  8  7  1  0
  8  9  1  6
 10  9  1  0
 11 10  2  0
 12 11  1  0
 13 12  1  0
 13 14  2  0
 14 10  1  0
 15 17  1  0
 16 15  2  0
 17 18  1  0
 18 19  1  0
 19 20  1  0
 21 19  2  0
M  END
$$$$
