CHG.pdb
     RDKit          3D

 21 21  0  0  1  0  0  0  0  0999 V2000
   18.3421  -12.9396  -16.0834 N   0  0  0  0  0  0  0  0  0  0  0  0
   18.3948  -11.5470  -16.5099 C   0  0  1  0  0  0  0  0  0  0  0  0
   17.0266  -10.9355  -16.3849 C   0  0  0  0  0  0  0  0  0  0  0  0
   16.5635  -10.9925  -14.6258 S   0  0  0  0  0  0  0  0  0  0  0  0
   19.4335  -10.8218  -15.7616 C   0  0  0  0  0  0  0  0  0  0  0  0
   19.6991  -11.1743  -14.5613 O   0  0  0  0  0  0  0  0  0  0  0  0
   20.1235   -9.7457  -16.3793 N   0  0  0  0  0  0  0  0  0  0  0  0
   21.2855   -9.1330  -15.7730 C   0  0  1  0  0  0  0  0  0  0  0  0
   22.5002   -9.2969  -16.6028 C   0  0  0  0  0  0  0  0  0  0  0  0
   23.0813  -10.6319  -16.6969 C   0  0  0  0  0  0  0  0  0  0  0  0
   23.8011  -11.3539  -15.7750 C   0  0  0  0  0  0  0  0  0  0  0  0
   24.1657  -12.5687  -16.2900 N   0  0  0  0  0  0  0  0  0  0  0  0
   23.6578  -12.5693  -17.5314 C   0  0  0  0  0  0  0  0  0  0  0  0
   23.0158  -11.4456  -17.7990 N   0  0  0  0  0  0  0  0  0  0  0  0
   21.0160   -7.6437  -15.7372 C   0  0  0  0  0  0  0  0  0  0  0  0
   20.3530   -7.1481  -16.6718 O   0  0  0  0  0  0  0  0  0  0  0  0
   21.4779   -6.8110  -14.7057 N   0  0  0  0  0  0  0  0  0  0  0  0
   21.2282   -5.4011  -14.6093 C   0  0  0  0  0  0  0  0  0  0  0  0
   21.9643   -4.7696  -13.4853 C   0  0  0  0  0  0  0  0  0  0  0  0
   22.0493   -3.4082  -13.2701 O   0  0  0  0  0  0  0  0  0  0  0  0
   22.5481   -5.5300  -12.6776 O   0  0  0  0  0  0  0  0  0  0  0  0
  2  1  1  1
  3  4  1  0
  3  2  1  0
  5  6  2  0
  5  2  1  0
  7  5  1  0
  8 15  1  0
  8  7  1  0
  8  9  1  6
 10  9  1  0
 11 10  2  0
 12 11  1  0
 13 12  1  0
 13 14  2  0
 14 10  1  0
 15 17  1  0
 16 15  2  0
 17 18  1  0
 18 19  1  0
 19 20  1  0
 21 19  2  0
M  END
$$$$
