CHG.pdb
     RDKit          3D

 21 21  0  0  1  0  0  0  0  0999 V2000
   26.2240  -13.0108  -16.9321 N   0  0  0  0  0  0  0  0  0  0  0  0
   25.5975  -11.8558  -16.3017 C   0  0  1  0  0  0  0  0  0  0  0  0
   26.5662  -10.7055  -16.2948 C   0  0  0  0  0  0  0  0  0  0  0  0
   27.7357  -10.9869  -14.9290 S   0  0  0  0  0  0  0  0  0  0  0  0
   24.3194  -11.5440  -16.9604 C   0  0  0  0  0  0  0  0  0  0  0  0
   24.2045  -11.7315  -18.2202 O   0  0  0  0  0  0  0  0  0  0  0  0
   23.2363  -11.0418  -16.1922 N   0  0  0  0  0  0  0  0  0  0  0  0
   21.9485  -10.7503  -16.7838 C   0  0  1  0  0  0  0  0  0  0  0  0
   20.8328  -11.3447  -16.0138 C   0  0  0  0  0  0  0  0  0  0  0  0
   20.5123  -12.7470  -16.2584 C   0  0  0  0  0  0  0  0  0  0  0  0
   21.0960  -13.6559  -17.1082 C   0  0  0  0  0  0  0  0  0  0  0  0
   20.4647  -14.8680  -17.0277 N   0  0  0  0  0  0  0  0  0  0  0  0
   19.4951  -14.6779  -16.1205 C   0  0  0  0  0  0  0  0  0  0  0  0
   19.4981  -13.4425  -15.6512 N   0  0  0  0  0  0  0  0  0  0  0  0
   21.7589   -9.2517  -16.6826 C   0  0  0  0  0  0  0  0  0  0  0  0
   20.8559   -8.7302  -17.3691 O   0  0  0  0  0  0  0  0  0  0  0  0
   22.5503   -8.4384  -15.8564 N   0  0  0  0  0  0  0  0  0  0  0  0
   22.4055   -7.0176  -15.7147 C   0  0  0  0  0  0  0  0  0  0  0  0
   21.3308   -6.6489  -14.7592 C   0  0  0  0  0  0  0  0  0  0  0  0
   21.0924   -5.3673  -14.3035 O   0  0  0  0  0  0  0  0  0  0  0  0
   20.5905   -7.5693  -14.3393 O   0  0  0  0  0  0  0  0  0  0  0  0
  2  1  1  6
  3  4  1  0
  3  2  1  0
  5  6  2  0
  5  2  1  0
  7  5  1  0
  8 15  1  0
  8  7  1  0
  8  9  1  1
 10  9  1  0
 11 10  2  0
 12 11  1  0
 13 12  1  0
 13 14  2  0
 14 10  1  0
 15 17  1  0
 16 15  2  0
 17 18  1  0
 18 19  1  0
 19 20  1  0
 21 19  2  0
M  END
$$$$
