CHG.pdb
     RDKit          3D

 21 21  0  0  1  0  0  0  0  0999 V2000
   34.5374   -8.7230  -17.3546 N   0  0  0  0  0  0  0  0  0  0  0  0
   33.1730   -8.3515  -17.0018 C   0  0  1  0  0  0  0  0  0  0  0  0
   33.1175   -6.8772  -16.7107 C   0  0  0  0  0  0  0  0  0  0  0  0
   33.5456   -6.6521  -14.9562 S   0  0  0  0  0  0  0  0  0  0  0  0
   32.2381   -8.7786  -18.0545 C   0  0  0  0  0  0  0  0  0  0  0  0
   32.6583   -8.8824  -19.2579 O   0  0  0  0  0  0  0  0  0  0  0  0
   30.8887   -9.0681  -17.7217 N   0  0  0  0  0  0  0  0  0  0  0  0
   29.9295   -9.4952  -18.7171 C   0  0  1  0  0  0  0  0  0  0  0  0
   29.5981  -10.9325  -18.5928 C   0  0  0  0  0  0  0  0  0  0  0  0
   30.6751  -11.8960  -18.7946 C   0  0  0  0  0  0  0  0  0  0  0  0
   31.4221  -12.5973  -17.8785 C   0  0  0  0  0  0  0  0  0  0  0  0
   32.3427  -13.3895  -18.5101 N   0  0  0  0  0  0  0  0  0  0  0  0
   32.1414  -13.1567  -19.8157 C   0  0  0  0  0  0  0  0  0  0  0  0
   31.1688  -12.2843  -20.0138 N   0  0  0  0  0  0  0  0  0  0  0  0
   28.6432   -8.7545  -18.4194 C   0  0  0  0  0  0  0  0  0  0  0  0
   28.3351   -8.5782  -17.2224 O   0  0  0  0  0  0  0  0  0  0  0  0
   27.7958   -8.2655  -19.4260 N   0  0  0  0  0  0  0  0  0  0  0  0
   26.6244   -7.4672  -19.2025 C   0  0  0  0  0  0  0  0  0  0  0  0
   25.5140   -8.2451  -18.5977 C   0  0  0  0  0  0  0  0  0  0  0  0
   25.5704   -9.5931  -18.3032 O   0  0  0  0  0  0  0  0  0  0  0  0
   24.4527   -7.6306  -18.3378 O   0  0  0  0  0  0  0  0  0  0  0  0
  2  1  1  6
  3  4  1  0
  3  2  1  0
  5  6  2  0
  5  2  1  0
  7  5  1  0
  8 15  1  0
  8  7  1  0
  8  9  1  1
 10  9  1  0
 11 10  2  0
 12 11  1  0
 13 12  1  0
 13 14  2  0
 14 10  1  0
 15 17  1  0
 16 15  2  0
 17 18  1  0
 18 19  1  0
 19 20  1  0
 21 19  2  0
M  END
$$$$
