CHG.pdb
     RDKit          3D

 21 21  0  0  1  0  0  0  0  0999 V2000
   27.9337  -20.8044  -10.6940 N   0  0  0  0  0  0  0  0  0  0  0  0
   26.4885  -20.8478  -10.5106 C   0  0  1  0  0  0  0  0  0  0  0  0
   26.1240  -20.1136   -9.2498 C   0  0  0  0  0  0  0  0  0  0  0  0
   27.3122  -20.6142   -7.9654 S   0  0  0  0  0  0  0  0  0  0  0  0
   25.8052  -20.3345  -11.7083 C   0  0  0  0  0  0  0  0  0  0  0  0
   26.2117  -19.2448  -12.2399 O   0  0  0  0  0  0  0  0  0  0  0  0
   24.7092  -21.0526  -12.2548 N   0  0  0  0  0  0  0  0  0  0  0  0
   24.0515  -20.6344  -13.4738 C   0  0  1  0  0  0  0  0  0  0  0  0
   24.3598  -21.5309  -14.6106 C   0  0  0  0  0  0  0  0  0  0  0  0
   25.6913  -21.4431  -15.2008 C   0  0  0  0  0  0  0  0  0  0  0  0
   26.2754  -20.4336  -15.9281 C   0  0  0  0  0  0  0  0  0  0  0  0
   27.5469  -20.7786  -16.2998 N   0  0  0  0  0  0  0  0  0  0  0  0
   27.7210  -22.0063  -15.7885 C   0  0  0  0  0  0  0  0  0  0  0  0
   26.6489  -22.4231  -15.1379 N   0  0  0  0  0  0  0  0  0  0  0  0
   22.5645  -20.7822  -13.2316 C   0  0  0  0  0  0  0  0  0  0  0  0
   22.1892  -21.6544  -12.4210 O   0  0  0  0  0  0  0  0  0  0  0  0
   21.6053  -19.9854  -13.8763 N   0  0  0  0  0  0  0  0  0  0  0  0
   20.1907  -20.0450  -13.6417 C   0  0  0  0  0  0  0  0  0  0  0  0
   19.5889  -21.3151  -14.1197 C   0  0  0  0  0  0  0  0  0  0  0  0
   18.5197  -21.9507  -13.5201 O   0  0  0  0  0  0  0  0  0  0  0  0
   20.0903  -21.8438  -15.1398 O   0  0  0  0  0  0  0  0  0  0  0  0
  2  1  1  6
  3  4  1  0
  3  2  1  0
  5  6  2  0
  5  2  1  0
  7  5  1  0
  8 15  1  0
  8  7  1  0
  8  9  1  6
 10  9  1  0
 11 10  2  0
 12 11  1  0
 13 12  1  0
 13 14  2  0
 14 10  1  0
 15 17  1  0
 16 15  2  0
 17 18  1  0
 18 19  1  0
 19 20  1  0
 21 19  2  0
M  END
$$$$
