CSS.pdb
     RDKit          3D

 19 18  0  0  1  0  0  0  0  0999 V2000
   10.1642  -18.4144   17.9693 N   0  0  0  0  0  0  0  0  0  0  0  0
    9.6469  -18.3188   19.3029 C   0  0  1  0  0  0  0  0  0  0  0  0
    9.6607  -19.6868   19.9509 C   0  0  0  0  0  0  0  0  0  0  0  0
   11.3083  -20.4217   19.9382 S   0  0  0  0  0  0  0  0  0  0  0  0
   10.4908  -17.3941   20.0912 C   0  0  0  0  0  0  0  0  0  0  0  0
   11.5983  -17.0041   19.6246 O   0  0  0  0  0  0  0  0  0  0  0  0
    9.4664  -16.2598   24.0830 O   0  0  0  0  0  0  0  0  0  0  0  0
   10.0830  -15.3322   23.2531 C   0  0  0  0  0  0  0  0  0  0  0  0
   10.9087  -16.0545   22.1834 C   0  0  2  0  0  0  0  0  0  0  0  0
   10.0871  -16.9219   21.3811 N   0  0  0  0  0  0  0  0  0  0  0  0
   12.0572  -16.7594   22.7899 C   0  0  0  0  0  0  0  0  0  0  0  0
   11.9822  -17.9976   22.9972 O   0  0  0  0  0  0  0  0  0  0  0  0
   15.8892  -15.7628   22.3556 O   0  0  0  0  0  0  0  0  0  0  0  0
   15.6203  -15.9664   23.7208 C   0  0  0  0  0  0  0  0  0  0  0  0
   14.3467  -16.8114   23.8179 C   0  0  2  0  0  0  0  0  0  0  0  0
   13.2637  -16.1174   23.1611 N   0  0  0  0  0  0  0  0  0  0  0  0
   14.0947  -17.0518   25.2410 C   0  0  0  0  0  0  0  0  0  0  0  0
   14.9806  -17.7873   26.0129 O   0  0  0  0  0  0  0  0  0  0  0  0
   13.0686  -16.5973   25.7987 O   0  0  0  0  0  0  0  0  0  0  0  0
  2  3  1  0
  2  1  1  6
  3  4  1  0
  5  6  2  0
  5  2  1  0
  7  8  1  0
  9  8  1  1
  9 10  1  0
 10  5  1  0
 11  9  1  0
 11 12  2  0
 13 14  1  0
 15 14  1  1
 15 16  1  0
 16 11  1  0
 17 15  1  0
 18 17  1  0
 19 17  2  0
M  END
$$$$
