CSS.pdb
     RDKit          3D

 19 18  0  0  1  0  0  0  0  0999 V2000
    8.7450  -15.3353   15.9505 N   0  0  0  0  0  0  0  0  0  0  0  0
    9.3636  -14.4387   16.8824 C   0  0  1  0  0  0  0  0  0  0  0  0
    8.2999  -13.7814   17.7356 C   0  0  0  0  0  0  0  0  0  0  0  0
    7.2009  -12.7379   16.7566 S   0  0  0  0  0  0  0  0  0  0  0  0
   10.2901  -15.1970   17.7515 C   0  0  0  0  0  0  0  0  0  0  0  0
   10.0096  -16.3838   18.0820 O   0  0  0  0  0  0  0  0  0  0  0  0
   14.7591  -15.8852   19.3513 O   0  0  0  0  0  0  0  0  0  0  0  0
   13.8863  -15.1331   18.5756 C   0  0  0  0  0  0  0  0  0  0  0  0
   12.4451  -15.3529   19.0470 C   0  0  2  0  0  0  0  0  0  0  0  0
   11.5085  -14.6215   18.2352 N   0  0  0  0  0  0  0  0  0  0  0  0
   12.3086  -15.0494   20.4868 C   0  0  0  0  0  0  0  0  0  0  0  0
   12.4323  -13.8618   20.8818 O   0  0  0  0  0  0  0  0  0  0  0  0
   10.2807  -17.3516   22.9329 O   0  0  0  0  0  0  0  0  0  0  0  0
   10.6271  -16.0882   23.4439 C   0  0  0  0  0  0  0  0  0  0  0  0
   12.0065  -15.7279   22.8846 C   0  0  2  0  0  0  0  0  0  0  0  0
   12.0416  -16.0302   21.4727 N   0  0  0  0  0  0  0  0  0  0  0  0
   12.9969  -16.4819   23.6574 C   0  0  0  0  0  0  0  0  0  0  0  0
   13.2096  -16.2197   25.0019 O   0  0  0  0  0  0  0  0  0  0  0  0
   13.6792  -17.3859   23.1212 O   0  0  0  0  0  0  0  0  0  0  0  0
  2  3  1  0
  2  1  1  6
  3  4  1  0
  5  6  2  0
  5  2  1  0
  7  8  1  0
  9  8  1  6
  9 10  1  0
 10  5  1  0
 11  9  1  0
 11 12  2  0
 13 14  1  0
 15 14  1  1
 15 16  1  0
 16 11  1  0
 17 15  1  0
 18 17  1  0
 19 17  2  0
M  END
$$$$
