CSS.pdb
     RDKit          3D

 19 18  0  0  1  0  0  0  0  0999 V2000
    7.1865  -15.6751   15.0879 N   0  0  0  0  0  0  0  0  0  0  0  0
    8.0133  -15.1156   16.1166 C   0  0  1  0  0  0  0  0  0  0  0  0
    8.1572  -13.6249   15.8962 C   0  0  0  0  0  0  0  0  0  0  0  0
    9.1058  -13.2525   14.4075 S   0  0  0  0  0  0  0  0  0  0  0  0
    7.3876  -15.3584   17.4350 C   0  0  0  0  0  0  0  0  0  0  0  0
    6.1637  -15.0953   17.6060 O   0  0  0  0  0  0  0  0  0  0  0  0
    8.1922  -18.5185   19.7651 O   0  0  0  0  0  0  0  0  0  0  0  0
    7.0840  -17.6846   19.8405 C   0  0  0  0  0  0  0  0  0  0  0  0
    7.5282  -16.2188   19.7986 C   0  0  2  0  0  0  0  0  0  0  0  0
    8.1341  -15.8883   18.5358 N   0  0  0  0  0  0  0  0  0  0  0  0
    8.3989  -15.8981   20.9487 C   0  0  0  0  0  0  0  0  0  0  0  0
    9.6405  -16.0736   20.8510 O   0  0  0  0  0  0  0  0  0  0  0  0
    8.8019  -14.4269   25.5707 O   0  0  0  0  0  0  0  0  0  0  0  0
    7.9856  -14.4773   24.4268 C   0  0  0  0  0  0  0  0  0  0  0  0
    8.7602  -15.2306   23.3415 C   0  0  2  0  0  0  0  0  0  0  0  0
    7.9160  -15.3948   22.1812 N   0  0  0  0  0  0  0  0  0  0  0  0
    9.1905  -16.5047   23.9227 C   0  0  0  0  0  0  0  0  0  0  0  0
   10.3978  -16.6160   24.5948 O   0  0  0  0  0  0  0  0  0  0  0  0
    8.4762  -17.5299   23.8270 O   0  0  0  0  0  0  0  0  0  0  0  0
  2  3  1  0
  2  1  1  6
  3  4  1  0
  5  6  2  0
  5  2  1  0
  7  8  1  0
  9  8  1  6
  9 10  1  0
 10  5  1  0
 11  9  1  0
 11 12  2  0
 13 14  1  0
 15 14  1  1
 15 16  1  0
 16 11  1  0
 17 15  1  0
 18 17  1  0
 19 17  2  0
M  END
$$$$
