CSS.pdb
     RDKit          3D

 19 18  0  0  1  0  0  0  0  0999 V2000
    7.7717  -13.0164   16.7661 N   0  0  0  0  0  0  0  0  0  0  0  0
    7.8243  -14.4384   16.5921 C   0  0  1  0  0  0  0  0  0  0  0  0
    8.5239  -14.7639   15.2898 C   0  0  0  0  0  0  0  0  0  0  0  0
    8.5681  -16.5397   14.9745 S   0  0  0  0  0  0  0  0  0  0  0  0
    8.5735  -15.0425   17.7157 C   0  0  0  0  0  0  0  0  0  0  0  0
    9.5124  -14.3973   18.2620 O   0  0  0  0  0  0  0  0  0  0  0  0
    7.6938  -18.9745   19.1560 O   0  0  0  0  0  0  0  0  0  0  0  0
    8.1462  -17.9942   20.0299 C   0  0  0  0  0  0  0  0  0  0  0  0
    9.0043  -16.9747   19.2738 C   0  0  2  0  0  0  0  0  0  0  0  0
    8.2642  -16.3505   18.2090 N   0  0  0  0  0  0  0  0  0  0  0  0
   10.2647  -17.5888   18.8067 C   0  0  0  0  0  0  0  0  0  0  0  0
   10.2979  -18.1513   17.6823 O   0  0  0  0  0  0  0  0  0  0  0  0
   13.8169  -16.2124   19.2830 O   0  0  0  0  0  0  0  0  0  0  0  0
   13.5786  -17.2854   18.4059 C   0  0  0  0  0  0  0  0  0  0  0  0
   12.6582  -18.2740   19.1277 C   0  0  2  0  0  0  0  0  0  0  0  0
   11.4644  -17.5851   19.5592 N   0  0  0  0  0  0  0  0  0  0  0  0
   13.4237  -18.8457   20.2384 C   0  0  0  0  0  0  0  0  0  0  0  0
   14.5408  -19.6341   20.0099 O   0  0  0  0  0  0  0  0  0  0  0  0
   13.0873  -18.6360   21.4272 O   0  0  0  0  0  0  0  0  0  0  0  0
  2  3  1  0
  2  1  1  1
  3  4  1  0
  5  6  2  0
  5  2  1  0
  7  8  1  0
  9  8  1  6
  9 10  1  0
 10  5  1  0
 11  9  1  0
 11 12  2  0
 13 14  1  0
 15 14  1  1
 15 16  1  0
 16 11  1  0
 17 15  1  0
 18 17  1  0
 19 17  2  0
M  END
$$$$
