CSS.pdb
     RDKit          3D

 19 18  0  0  1  0  0  0  0  0999 V2000
    8.5556  -13.3116   17.4233 N   0  0  0  0  0  0  0  0  0  0  0  0
    9.6011  -14.0641   18.0524 C   0  0  1  0  0  0  0  0  0  0  0  0
   10.7051  -13.1268   18.4931 C   0  0  0  0  0  0  0  0  0  0  0  0
   12.2192  -13.3761   17.5443 S   0  0  0  0  0  0  0  0  0  0  0  0
    9.0557  -14.7691   19.2331 C   0  0  0  0  0  0  0  0  0  0  0  0
    8.2134  -14.1896   19.9754 O   0  0  0  0  0  0  0  0  0  0  0  0
    9.5026  -18.9765   19.9369 O   0  0  0  0  0  0  0  0  0  0  0  0
    8.4709  -18.1826   20.4211 C   0  0  0  0  0  0  0  0  0  0  0  0
    8.9977  -16.7814   20.7477 C   0  0  2  0  0  0  0  0  0  0  0  0
    9.4571  -16.1028   19.5646 N   0  0  0  0  0  0  0  0  0  0  0  0
   10.0268  -16.8380   21.8068 C   0  0  0  0  0  0  0  0  0  0  0  0
   11.2286  -17.0313   21.4902 O   0  0  0  0  0  0  0  0  0  0  0  0
    8.9329  -16.4645   25.6904 O   0  0  0  0  0  0  0  0  0  0  0  0
   10.2817  -16.1248   25.4842 C   0  0  0  0  0  0  0  0  0  0  0  0
   10.7467  -16.8387   24.2116 C   0  0  2  0  0  0  0  0  0  0  0  0
    9.7418  -16.6855   23.1855 N   0  0  0  0  0  0  0  0  0  0  0  0
   10.9949  -18.2382   24.5669 C   0  0  0  0  0  0  0  0  0  0  0  0
   10.2036  -19.2584   24.0622 O   0  0  0  0  0  0  0  0  0  0  0  0
   11.9317  -18.5500   25.3387 O   0  0  0  0  0  0  0  0  0  0  0  0
  2  3  1  0
  2  1  1  1
  3  4  1  0
  5  6  2  0
  5  2  1  0
  7  8  1  0
  9  8  1  6
  9 10  1  0
 10  5  1  0
 11  9  1  0
 11 12  2  0
 13 14  1  0
 15 14  1  1
 15 16  1  0
 16 11  1  0
 17 15  1  0
 18 17  1  0
 19 17  2  0
M  END
$$$$
