CSS.pdb
     RDKit          3D

 19 18  0  0  1  0  0  0  0  0999 V2000
    7.5406  -15.2357   16.4684 N   0  0  0  0  0  0  0  0  0  0  0  0
    8.5064  -14.7426   17.4061 C   0  0  1  0  0  0  0  0  0  0  0  0
    7.8811  -13.6542   18.2522 C   0  0  0  0  0  0  0  0  0  0  0  0
    7.5567  -12.1596   17.2952 S   0  0  0  0  0  0  0  0  0  0  0  0
    8.9503  -15.8499   18.2809 C   0  0  0  0  0  0  0  0  0  0  0  0
    8.1036  -16.6752   18.7260 O   0  0  0  0  0  0  0  0  0  0  0  0
   13.0216  -17.0120   18.7692 O   0  0  0  0  0  0  0  0  0  0  0  0
   11.9314  -17.8396   19.0054 C   0  0  0  0  0  0  0  0  0  0  0  0
   10.7671  -17.0220   19.5741 C   0  0  2  0  0  0  0  0  0  0  0  0
   10.3253  -16.0173   18.6431 N   0  0  0  0  0  0  0  0  0  0  0  0
   11.1131  -16.4597   20.8962 C   0  0  0  0  0  0  0  0  0  0  0  0
   11.5862  -15.2966   20.9678 O   0  0  0  0  0  0  0  0  0  0  0  0
   10.4202  -15.8730   25.4735 O   0  0  0  0  0  0  0  0  0  0  0  0
   10.0511  -16.5129   24.2770 C   0  0  0  0  0  0  0  0  0  0  0  0
   11.3007  -16.5969   23.3956 C   0  0  2  0  0  0  0  0  0  0  0  0
   10.9429  -17.1605   22.1149 N   0  0  0  0  0  0  0  0  0  0  0  0
   12.2880  -17.4009   24.1205 C   0  0  0  0  0  0  0  0  0  0  0  0
   13.0254  -16.8631   25.1639 O   0  0  0  0  0  0  0  0  0  0  0  0
   12.4918  -18.5990   23.8151 O   0  0  0  0  0  0  0  0  0  0  0  0
  2  3  1  0
  2  1  1  6
  3  4  1  0
  5  6  2  0
  5  2  1  0
  7  8  1  0
  9  8  1  6
  9 10  1  0
 10  5  1  0
 11  9  1  0
 11 12  2  0
 13 14  1  0
 15 14  1  1
 15 16  1  0
 16 11  1  0
 17 15  1  0
 18 17  1  0
 19 17  2  0
M  END
$$$$
