CSS.pdb
     RDKit          3D

 19 18  0  0  1  0  0  0  0  0999 V2000
    6.7793  -16.2348   13.9677 N   0  0  0  0  0  0  0  0  0  0  0  0
    6.6546  -17.6464   14.1845 C   0  0  1  0  0  0  0  0  0  0  0  0
    7.6481  -18.3828   13.3114 C   0  0  0  0  0  0  0  0  0  0  0  0
    6.8430  -19.2096   11.9247 S   0  0  0  0  0  0  0  0  0  0  0  0
    6.9307  -17.9506   15.6057 C   0  0  0  0  0  0  0  0  0  0  0  0
    7.6629  -17.1744   16.2821 O   0  0  0  0  0  0  0  0  0  0  0  0
    5.8930  -20.6687   19.5221 O   0  0  0  0  0  0  0  0  0  0  0  0
    5.5581  -20.3073   18.2234 C   0  0  0  0  0  0  0  0  0  0  0  0
    6.6701  -19.4455   17.6167 C   0  0  2  0  0  0  0  0  0  0  0  0
    6.3877  -19.1104   16.2459 N   0  0  0  0  0  0  0  0  0  0  0  0
    7.9890  -20.0907   17.7846 C   0  0  0  0  0  0  0  0  0  0  0  0
    8.3435  -20.9896   16.9795 O   0  0  0  0  0  0  0  0  0  0  0  0
   10.1275  -19.3926   21.1347 O   0  0  0  0  0  0  0  0  0  0  0  0
   10.9797  -19.7228   20.0660 C   0  0  0  0  0  0  0  0  0  0  0  0
   10.1412  -20.4649   19.0212 C   0  0  2  0  0  0  0  0  0  0  0  0
    8.9000  -19.7556   18.8157 N   0  0  0  0  0  0  0  0  0  0  0  0
    9.9465  -21.8309   19.5138 C   0  0  0  0  0  0  0  0  0  0  0  0
    8.6832  -22.3082   19.8266 O   0  0  0  0  0  0  0  0  0  0  0  0
   10.9199  -22.6054   19.6654 O   0  0  0  0  0  0  0  0  0  0  0  0
  2  3  1  0
  2  1  1  1
  3  4  1  0
  5  6  2  0
  5  2  1  0
  7  8  1  0
  9  8  1  6
  9 10  1  0
 10  5  1  0
 11  9  1  0
 11 12  2  0
 13 14  1  0
 15 14  1  1
 15 16  1  0
 16 11  1  0
 17 15  1  0
 18 17  1  0
 19 17  2  0
M  END
$$$$
