CSS.pdb
     RDKit          3D

 19 18  0  0  1  0  0  0  0  0999 V2000
    8.8151  -14.7207   13.4200 N   0  0  0  0  0  0  0  0  0  0  0  0
    7.9959  -14.6671   14.5952 C   0  0  1  0  0  0  0  0  0  0  0  0
    7.3562  -16.0190   14.8292 C   0  0  0  0  0  0  0  0  0  0  0  0
    8.5813  -17.2865   15.2129 S   0  0  0  0  0  0  0  0  0  0  0  0
    8.8341  -14.3126   15.7616 C   0  0  0  0  0  0  0  0  0  0  0  0
   10.0932  -14.3504   15.6633 O   0  0  0  0  0  0  0  0  0  0  0  0
    7.2769  -13.8343   19.7237 O   0  0  0  0  0  0  0  0  0  0  0  0
    8.1858  -12.9000   19.2439 C   0  0  0  0  0  0  0  0  0  0  0  0
    9.0505  -13.5273   18.1455 C   0  0  2  0  0  0  0  0  0  0  0  0
    8.2565  -13.9238   17.0126 N   0  0  0  0  0  0  0  0  0  0  0  0
    9.8662  -14.6355   18.6843 C   0  0  0  0  0  0  0  0  0  0  0  0
    9.4554  -15.8184   18.5667 O   0  0  0  0  0  0  0  0  0  0  0  0
   13.6534  -13.9694   20.0808 O   0  0  0  0  0  0  0  0  0  0  0  0
   13.3848  -15.2541   19.5761 C   0  0  0  0  0  0  0  0  0  0  0  0
   11.9038  -15.5485   19.8316 C   0  0  2  0  0  0  0  0  0  0  0  0
   11.1079  -14.4485   19.3391 N   0  0  0  0  0  0  0  0  0  0  0  0
   11.7488  -15.7690   21.2717 C   0  0  0  0  0  0  0  0  0  0  0  0
   10.8532  -15.0213   22.0203 O   0  0  0  0  0  0  0  0  0  0  0  0
   12.4239  -16.6419   21.8655 O   0  0  0  0  0  0  0  0  0  0  0  0
  2  3  1  0
  2  1  1  6
  3  4  1  0
  5  6  2  0
  5  2  1  0
  7  8  1  0
  9  8  1  1
  9 10  1  0
 10  5  1  0
 11  9  1  0
 11 12  2  0
 13 14  1  0
 15 14  1  1
 15 16  1  0
 16 11  1  0
 17 15  1  0
 18 17  1  0
 19 17  2  0
M  END
$$$$
