CSS.pdb
     RDKit          3D

 19 18  0  0  1  0  0  0  0  0999 V2000
   -1.9072  -24.8080   21.7795 N   0  0  0  0  0  0  0  0  0  0  0  0
   -1.3640  -23.9839   22.8192 C   0  0  1  0  0  0  0  0  0  0  0  0
   -0.9389  -24.8523   23.9839 C   0  0  0  0  0  0  0  0  0  0  0  0
   -2.3498  -25.4002   24.9658 S   0  0  0  0  0  0  0  0  0  0  0  0
   -0.1890  -23.2502   22.2999 C   0  0  0  0  0  0  0  0  0  0  0  0
    0.4610  -23.7186   21.3230 O   0  0  0  0  0  0  0  0  0  0  0  0
    0.2836  -19.2975   23.3642 O   0  0  0  0  0  0  0  0  0  0  0  0
    0.8225  -19.7356   22.1613 C   0  0  0  0  0  0  0  0  0  0  0  0
    1.2690  -21.1957   22.2888 C   0  0  2  0  0  0  0  0  0  0  0  0
    0.2393  -22.0117   22.8764 N   0  0  0  0  0  0  0  0  0  0  0  0
    2.5542  -21.2934   23.0118 C   0  0  0  0  0  0  0  0  0  0  0  0
    2.5502  -21.4455   24.2603 O   0  0  0  0  0  0  0  0  0  0  0  0
    7.4092  -21.3381   22.9125 O   0  0  0  0  0  0  0  0  0  0  0  0
    6.2329  -21.2850   22.1439 C   0  0  0  0  0  0  0  0  0  0  0  0
    5.0570  -21.1291   23.1125 C   0  0  2  0  0  0  0  0  0  0  0  0
    3.8180  -21.2255   22.3766 N   0  0  0  0  0  0  0  0  0  0  0  0
    5.2228  -19.8407   23.7902 C   0  0  0  0  0  0  0  0  0  0  0  0
    6.0509  -19.7116   24.8944 O   0  0  0  0  0  0  0  0  0  0  0  0
    4.6187  -18.8192   23.3878 O   0  0  0  0  0  0  0  0  0  0  0  0
  2  3  1  0
  2  1  1  6
  3  4  1  0
  5  6  2  0
  5  2  1  0
  7  8  1  0
  9  8  1  1
  9 10  1  0
 10  5  1  0
 11  9  1  0
 11 12  2  0
 13 14  1  0
 15 14  1  6
 15 16  1  0
 16 11  1  0
 17 15  1  0
 18 17  1  0
 19 17  2  0
M  END
$$$$
