CSS.pdb
     RDKit          3D

 19 18  0  0  1  0  0  0  0  0999 V2000
   10.9975  -17.3584   12.3597 N   0  0  0  0  0  0  0  0  0  0  0  0
   11.5646  -16.7536   13.5291 C   0  0  1  0  0  0  0  0  0  0  0  0
   10.4550  -16.2812   14.4440 C   0  0  0  0  0  0  0  0  0  0  0  0
    9.6400  -17.6565   15.2801 S   0  0  0  0  0  0  0  0  0  0  0  0
   12.3973  -17.7480   14.2408 C   0  0  0  0  0  0  0  0  0  0  0  0
   12.1745  -18.9813   14.0812 O   0  0  0  0  0  0  0  0  0  0  0  0
   16.3351  -17.0482   15.3895 O   0  0  0  0  0  0  0  0  0  0  0  0
   15.7342  -18.2778   15.1523 C   0  0  0  0  0  0  0  0  0  0  0  0
   14.3286  -18.2995   15.7615 C   0  0  2  0  0  0  0  0  0  0  0  0
   13.4598  -17.3518   15.1147 N   0  0  0  0  0  0  0  0  0  0  0  0
   14.3852  -18.1120   17.2262 C   0  0  0  0  0  0  0  0  0  0  0  0
   14.5185  -16.9528   17.6956 O   0  0  0  0  0  0  0  0  0  0  0  0
   13.5845  -21.2256   19.4002 O   0  0  0  0  0  0  0  0  0  0  0  0
   13.4943  -20.1080   20.2487 C   0  0  0  0  0  0  0  0  0  0  0  0
   14.2645  -18.9628   19.5848 C   0  0  2  0  0  0  0  0  0  0  0  0
   14.2970  -19.1759   18.1567 N   0  0  0  0  0  0  0  0  0  0  0  0
   15.5981  -18.9302   20.1905 C   0  0  0  0  0  0  0  0  0  0  0  0
   15.7646  -18.7104   21.5490 O   0  0  0  0  0  0  0  0  0  0  0  0
   16.6258  -19.1009   19.4939 O   0  0  0  0  0  0  0  0  0  0  0  0
  2  3  1  0
  2  1  1  6
  3  4  1  0
  5  6  2  0
  5  2  1  0
  7  8  1  0
  9  8  1  6
  9 10  1  0
 10  5  1  0
 11  9  1  0
 11 12  2  0
 13 14  1  0
 15 14  1  1
 15 16  1  0
 16 11  1  0
 17 15  1  0
 18 17  1  0
 19 17  2  0
M  END
$$$$
