CSS.pdb
     RDKit          3D

 19 18  0  0  1  0  0  0  0  0999 V2000
    8.0117  -13.5603   16.0657 N   0  0  0  0  0  0  0  0  0  0  0  0
    8.4769  -14.6373   16.8896 C   0  0  1  0  0  0  0  0  0  0  0  0
    9.9890  -14.6923   16.8455 C   0  0  0  0  0  0  0  0  0  0  0  0
   10.6445  -16.0279   17.8659 S   0  0  0  0  0  0  0  0  0  0  0  0
    8.0346  -14.4146   18.2836 C   0  0  0  0  0  0  0  0  0  0  0  0
    8.1179  -13.2605   18.7910 O   0  0  0  0  0  0  0  0  0  0  0  0
    6.5161  -17.5805   20.8166 O   0  0  0  0  0  0  0  0  0  0  0  0
    5.9363  -16.3191   20.7736 C   0  0  0  0  0  0  0  0  0  0  0  0
    6.9925  -15.2697   20.4120 C   0  0  2  0  0  0  0  0  0  0  0  0
    7.5090  -15.4783   19.0850 N   0  0  0  0  0  0  0  0  0  0  0  0
    8.0573  -15.2181   21.4353 C   0  0  0  0  0  0  0  0  0  0  0  0
    9.1990  -15.6690   21.1617 O   0  0  0  0  0  0  0  0  0  0  0  0
    7.1096  -14.2181   25.2332 O   0  0  0  0  0  0  0  0  0  0  0  0
    8.4524  -13.9048   24.9575 C   0  0  0  0  0  0  0  0  0  0  0  0
    8.8862  -14.7536   23.7588 C   0  0  2  0  0  0  0  0  0  0  0  0
    7.8720  -14.6821   22.7329 N   0  0  0  0  0  0  0  0  0  0  0  0
    9.1091  -16.1153   24.2511 C   0  0  0  0  0  0  0  0  0  0  0  0
   10.1784  -16.4125   25.0817 O   0  0  0  0  0  0  0  0  0  0  0  0
    8.3365  -17.0494   23.9331 O   0  0  0  0  0  0  0  0  0  0  0  0
  2  3  1  0
  2  1  1  6
  3  4  1  0
  5  6  2  0
  5  2  1  0
  7  8  1  0
  9  8  1  1
  9 10  1  0
 10  5  1  0
 11  9  1  0
 11 12  2  0
 13 14  1  0
 15 14  1  1
 15 16  1  0
 16 11  1  0
 17 15  1  0
 18 17  1  0
 19 17  2  0
M  END
$$$$
