CSS.pdb
     RDKit          3D

 19 18  0  0  1  0  0  0  0  0999 V2000
    7.9177  -14.8638   17.7649 N   0  0  0  0  0  0  0  0  0  0  0  0
    8.5770  -14.4754   18.9771 C   0  0  1  0  0  0  0  0  0  0  0  0
    7.8755  -13.2734   19.5727 C   0  0  0  0  0  0  0  0  0  0  0  0
    8.0356  -11.8128   18.5259 S   0  0  0  0  0  0  0  0  0  0  0  0
    8.5321  -15.5969   19.9408 C   0  0  0  0  0  0  0  0  0  0  0  0
    7.6571  -16.4991   19.8124 O   0  0  0  0  0  0  0  0  0  0  0  0
   10.6297  -19.1618   21.0928 O   0  0  0  0  0  0  0  0  0  0  0  0
   10.3194  -17.9364   20.5172 C   0  0  0  0  0  0  0  0  0  0  0  0
    9.8609  -16.9517   21.5979 C   0  0  2  0  0  0  0  0  0  0  0  0
    9.4599  -15.6929   21.0270 N   0  0  0  0  0  0  0  0  0  0  0  0
   10.8927  -16.7987   22.6446 C   0  0  0  0  0  0  0  0  0  0  0  0
   11.9691  -16.2094   22.3692 O   0  0  0  0  0  0  0  0  0  0  0  0
   11.9547  -16.6931   27.3400 O   0  0  0  0  0  0  0  0  0  0  0  0
   11.0312  -17.1260   26.3720 C   0  0  0  0  0  0  0  0  0  0  0  0
   11.7153  -17.0242   25.0055 C   0  0  2  0  0  0  0  0  0  0  0  0
   10.7455  -17.2832   23.9671 N   0  0  0  0  0  0  0  0  0  0  0  0
   12.8252  -17.9806   25.0052 C   0  0  0  0  0  0  0  0  0  0  0  0
   14.0565  -17.6518   25.5505 O   0  0  0  0  0  0  0  0  0  0  0  0
   12.6896  -19.1240   24.5106 O   0  0  0  0  0  0  0  0  0  0  0  0
  2  3  1  0
  2  1  1  6
  3  4  1  0
  5  6  2  0
  5  2  1  0
  7  8  1  0
  9  8  1  6
  9 10  1  0
 10  5  1  0
 11  9  1  0
 11 12  2  0
 13 14  1  0
 15 14  1  1
 15 16  1  0
 16 11  1  0
 17 15  1  0
 18 17  1  0
 19 17  2  0
M  END
$$$$
