CSS.pdb
     RDKit          3D

 19 18  0  0  1  0  0  0  0  0999 V2000
    7.5588  -15.4250   14.7871 N   0  0  0  0  0  0  0  0  0  0  0  0
    7.4066  -16.8438   14.9252 C   0  0  1  0  0  0  0  0  0  0  0  0
    8.4490  -17.5495   14.0845 C   0  0  0  0  0  0  0  0  0  0  0  0
    7.9487  -17.6740   12.3556 S   0  0  0  0  0  0  0  0  0  0  0  0
    7.5844  -17.2201   16.3448 C   0  0  0  0  0  0  0  0  0  0  0  0
    8.3123  -16.5105   17.0951 O   0  0  0  0  0  0  0  0  0  0  0  0
    5.8175  -20.7553   17.9614 O   0  0  0  0  0  0  0  0  0  0  0  0
    5.9510  -19.6289   18.7631 C   0  0  0  0  0  0  0  0  0  0  0  0
    7.1248  -18.7743   18.2736 C   0  0  2  0  0  0  0  0  0  0  0  0
    6.9502  -18.3767   16.9015 N   0  0  0  0  0  0  0  0  0  0  0  0
    8.4118  -19.4618   18.5073 C   0  0  0  0  0  0  0  0  0  0  0  0
    8.9264  -20.1402   17.5818 O   0  0  0  0  0  0  0  0  0  0  0  0
   11.6262  -18.2095   19.2057 O   0  0  0  0  0  0  0  0  0  0  0  0
   11.4501  -19.0583   20.3129 C   0  0  0  0  0  0  0  0  0  0  0  0
   10.3769  -20.0850   19.9397 C   0  0  2  0  0  0  0  0  0  0  0  0
    9.1194  -19.4054   19.7327 N   0  0  0  0  0  0  0  0  0  0  0  0
   10.3251  -21.0699   21.0231 C   0  0  0  0  0  0  0  0  0  0  0  0
   11.3987  -21.9071   21.2844 O   0  0  0  0  0  0  0  0  0  0  0  0
    9.3059  -21.1812   21.7437 O   0  0  0  0  0  0  0  0  0  0  0  0
  2  3  1  0
  2  1  1  1
  3  4  1  0
  5  6  2  0
  5  2  1  0
  7  8  1  0
  9  8  1  6
  9 10  1  0
 10  5  1  0
 11  9  1  0
 11 12  2  0
 13 14  1  0
 15 14  1  1
 15 16  1  0
 16 11  1  0
 17 15  1  0
 18 17  1  0
 19 17  2  0
M  END
$$$$
