CSS.pdb
     RDKit          3D

 19 18  0  0  1  0  0  0  0  0999 V2000
    9.4029  -16.9684   17.2535 N   0  0  0  0  0  0  0  0  0  0  0  0
    8.6378  -16.9956   18.4655 C   0  0  1  0  0  0  0  0  0  0  0  0
    8.2271  -18.4196   18.7736 C   0  0  0  0  0  0  0  0  0  0  0  0
    6.7843  -18.9266   17.8166 S   0  0  0  0  0  0  0  0  0  0  0  0
    9.4613  -16.4712   19.5771 C   0  0  0  0  0  0  0  0  0  0  0  0
   10.7202  -16.5618   19.5216 O   0  0  0  0  0  0  0  0  0  0  0  0
    7.8061  -15.1629   23.3171 O   0  0  0  0  0  0  0  0  0  0  0  0
    8.7971  -14.4051   22.7064 C   0  0  0  0  0  0  0  0  0  0  0  0
    9.6507  -15.2949   21.7969 C   0  0  2  0  0  0  0  0  0  0  0  0
    8.8693  -15.8572   20.7270 N   0  0  0  0  0  0  0  0  0  0  0  0
   10.3629  -16.3240   22.5828 C   0  0  0  0  0  0  0  0  0  0  0  0
    9.8515  -17.4657   22.7122 O   0  0  0  0  0  0  0  0  0  0  0  0
   14.0634  -15.5434   24.0612 O   0  0  0  0  0  0  0  0  0  0  0  0
   13.8245  -16.9051   23.8047 C   0  0  0  0  0  0  0  0  0  0  0  0
   12.3164  -17.1396   23.9317 C   0  0  2  0  0  0  0  0  0  0  0  0
   11.6114  -16.1036   23.2137 N   0  0  0  0  0  0  0  0  0  0  0  0
   12.0013  -17.1623   25.3623 C   0  0  0  0  0  0  0  0  0  0  0  0
   12.5161  -18.1433   26.1955 O   0  0  0  0  0  0  0  0  0  0  0  0
   11.2559  -16.2928   25.8712 O   0  0  0  0  0  0  0  0  0  0  0  0
  2  3  1  0
  2  1  1  6
  3  4  1  0
  5  6  2  0
  5  2  1  0
  7  8  1  0
  9  8  1  1
  9 10  1  0
 10  5  1  0
 11  9  1  0
 11 12  2  0
 13 14  1  0
 15 14  1  1
 15 16  1  0
 16 11  1  0
 17 15  1  0
 18 17  1  0
 19 17  2  0
M  END
$$$$
