CSS.pdb
     RDKit          3D

 19 18  0  0  1  0  0  0  0  0999 V2000
   16.1017  -18.0395   16.3354 N   0  0  0  0  0  0  0  0  0  0  0  0
   15.2430  -19.1017   16.7708 C   0  0  1  0  0  0  0  0  0  0  0  0
   16.0337  -20.3897   16.8563 C   0  0  0  0  0  0  0  0  0  0  0  0
   15.0488  -21.7412   17.5333 S   0  0  0  0  0  0  0  0  0  0  0  0
   14.6946  -18.7734   18.1050 C   0  0  0  0  0  0  0  0  0  0  0  0
   15.3938  -18.1141   18.9253 O   0  0  0  0  0  0  0  0  0  0  0  0
   10.5499  -18.6683   18.9979 O   0  0  0  0  0  0  0  0  0  0  0  0
   11.5700  -17.9493   19.6075 C   0  0  0  0  0  0  0  0  0  0  0  0
   12.8083  -18.8360   19.7738 C   0  0  2  0  0  0  0  0  0  0  0  0
   13.3813  -19.1842   18.5003 N   0  0  0  0  0  0  0  0  0  0  0  0
   12.5019  -20.0205   20.6026 C   0  0  0  0  0  0  0  0  0  0  0  0
   12.0884  -21.0713   20.0489 O   0  0  0  0  0  0  0  0  0  0  0  0
   13.5572  -20.1364   24.5261 O   0  0  0  0  0  0  0  0  0  0  0  0
   13.4109  -21.3821   23.8904 C   0  0  0  0  0  0  0  0  0  0  0  0
   12.3459  -21.2209   22.8017 C   0  0  2  0  0  0  0  0  0  0  0  0
   12.6467  -20.0503   22.0110 N   0  0  0  0  0  0  0  0  0  0  0  0
   11.0475  -21.1399   23.4755 C   0  0  0  0  0  0  0  0  0  0  0  0
   10.5973  -22.1653   24.2926 O   0  0  0  0  0  0  0  0  0  0  0  0
   10.3082  -20.1386   23.3302 O   0  0  0  0  0  0  0  0  0  0  0  0
  2  3  1  0
  2  1  1  1
  3  4  1  0
  5  6  2  0
  5  2  1  0
  7  8  1  0
  9  8  1  6
  9 10  1  0
 10  5  1  0
 11  9  1  0
 11 12  2  0
 13 14  1  0
 15 14  1  1
 15 16  1  0
 16 11  1  0
 17 15  1  0
 18 17  1  0
 19 17  2  0
M  END
$$$$
