IIK.pdb
     RDKit          3D

 26 25  0  0  1  0  0  0  0  0999 V2000
    6.7256  -12.4623   18.6923 C   0  0  0  0  0  0  0  0  0  0  0  0
    7.0545  -13.7661   19.3694 C   0  0  0  0  0  0  0  0  0  0  0  0
    7.6655  -13.5415   20.7415 C   0  0  2  0  0  0  0  0  0  0  0  0
    8.8785  -12.6752   20.6749 C   0  0  0  0  0  0  0  0  0  0  0  0
    7.9454  -14.8976   21.4044 C   0  0  2  0  0  0  0  0  0  0  0  0
    6.5937  -15.4726   21.5839 N   0  0  0  0  0  0  0  0  0  0  0  0
    8.5090  -14.7056   22.7677 C   0  0  0  0  0  0  0  0  0  0  0  0
    9.7435  -14.4382   22.8785 O   0  0  0  0  0  0  0  0  0  0  0  0
    5.8716  -12.0016   26.3509 C   0  0  0  0  0  0  0  0  0  0  0  0
    7.0160  -12.6432   25.5657 C   0  0  0  0  0  0  0  0  0  0  0  0
    7.3702  -13.9797   26.1213 C   0  0  2  0  0  0  0  0  0  0  0  0
    7.7763  -13.8679   27.5758 C   0  0  0  0  0  0  0  0  0  0  0  0
    8.3469  -14.7412   25.2992 C   0  0  2  0  0  0  0  0  0  0  0  0
    7.7417  -14.8038   23.9449 N   0  0  0  0  0  0  0  0  0  0  0  0
    8.7266  -16.0694   25.7507 C   0  0  0  0  0  0  0  0  0  0  0  0
    7.8705  -16.9934   25.9938 O   0  0  0  0  0  0  0  0  0  0  0  0
   10.0739  -16.4594   25.9535 N   0  0  0  0  0  0  0  0  0  0  0  0
   10.4186  -17.8196   26.4270 C   0  0  1  0  0  0  0  0  0  0  0  0
   11.5459  -18.3586   25.5868 C   0  0  0  0  0  0  0  0  0  0  0  0
   11.2787  -18.3485   24.1119 C   0  0  0  0  0  0  0  0  0  0  0  0
   12.4616  -18.9956   23.3673 C   0  0  0  0  0  0  0  0  0  0  0  0
   12.2364  -18.8411   21.8663 C   0  0  0  0  0  0  0  0  0  0  0  0
   13.3889  -19.3568   21.1674 N   0  0  0  0  0  0  0  0  0  0  0  0
   10.6858  -17.8228   27.8618 C   0  0  0  0  0  0  0  0  0  0  0  0
   10.7323  -19.0168   28.5764 O   0  0  0  0  0  0  0  0  0  0  0  0
   10.8827  -16.7725   28.5110 O   0  0  0  0  0  0  0  0  0  0  0  0
  2  1  1  0
  3  5  1  0
  3  2  1  0
  3  4  1  6
  5  6  1  1
  7  5  1  0
  7  8  2  0
 10  9  1  0
 11 10  1  0
 11 13  1  0
 11 12  1  1
 13 14  1  6
 14  7  1  0
 15 13  1  0
 15 17  1  0
 16 15  2  0
 18 17  1  0
 18 24  1  0
 18 19  1  6
 20 19  1  0
 21 22  1  0
 21 20  1  0
 22 23  1  0
 24 25  1  0
 26 24  2  0
M  END
$$$$
