IIK.pdb
     RDKit          3D

 26 25  0  0  1  0  0  0  0  0999 V2000
    6.1821  -21.8256   25.3643 C   0  0  0  0  0  0  0  0  0  0  0  0
    5.4854  -20.5440   24.9924 C   0  0  0  0  0  0  0  0  0  0  0  0
    6.4593  -19.3806   24.9262 C   0  0  2  0  0  0  0  0  0  0  0  0
    7.3253  -19.3107   26.1392 C   0  0  0  0  0  0  0  0  0  0  0  0
    5.6839  -18.0786   24.6798 C   0  0  2  0  0  0  0  0  0  0  0  0
    5.0910  -18.2856   23.3398 N   0  0  0  0  0  0  0  0  0  0  0  0
    6.6202  -16.9291   24.5561 C   0  0  0  0  0  0  0  0  0  0  0  0
    7.3091  -16.8229   23.4969 O   0  0  0  0  0  0  0  0  0  0  0  0
    5.6057  -12.1189   26.7446 C   0  0  0  0  0  0  0  0  0  0  0  0
    6.1841  -13.1425   25.7671 C   0  0  0  0  0  0  0  0  0  0  0  0
    7.3899  -13.8098   26.3337 C   0  0  2  0  0  0  0  0  0  0  0  0
    8.4685  -12.7951   26.6498 C   0  0  0  0  0  0  0  0  0  0  0  0
    7.8854  -14.9571   25.5288 C   0  0  2  0  0  0  0  0  0  0  0  0
    6.7811  -15.9491   25.5550 N   0  0  0  0  0  0  0  0  0  0  0  0
    9.1382  -15.5768   25.9272 C   0  0  0  0  0  0  0  0  0  0  0  0
    9.2443  -16.3321   26.9588 O   0  0  0  0  0  0  0  0  0  0  0  0
   10.3466  -15.4063   25.2067 N   0  0  0  0  0  0  0  0  0  0  0  0
   11.5052  -16.3027   25.4235 C   0  0  1  0  0  0  0  0  0  0  0  0
   12.3993  -16.2474   24.2133 C   0  0  0  0  0  0  0  0  0  0  0  0
   13.6607  -17.0476   24.3383 C   0  0  0  0  0  0  0  0  0  0  0  0
   14.4581  -16.9653   23.0230 C   0  0  0  0  0  0  0  0  0  0  0  0
   15.6459  -17.9185   23.1123 C   0  0  0  0  0  0  0  0  0  0  0  0
   16.4059  -17.8306   21.8887 N   0  0  0  0  0  0  0  0  0  0  0  0
   12.1786  -15.9937   26.6809 C   0  0  0  0  0  0  0  0  0  0  0  0
   12.9005  -16.9697   27.3627 O   0  0  0  0  0  0  0  0  0  0  0  0
   12.1422  -14.8572   27.2012 O   0  0  0  0  0  0  0  0  0  0  0  0
  2  1  1  0
  3  5  1  0
  3  2  1  0
  3  4  1  1
  5  6  1  6
  7  5  1  0
  7  8  2  0
 10  9  1  0
 11 10  1  0
 11 13  1  0
 11 12  1  6
 13 14  1  1
 14  7  1  0
 15 13  1  0
 15 17  1  0
 16 15  2  0
 18 17  1  0
 18 24  1  0
 18 19  1  6
 20 19  1  0
 21 22  1  0
 21 20  1  0
 22 23  1  0
 24 25  1  0
 26 24  2  0
M  END
$$$$
