IIK.pdb
     RDKit          3D

 26 25  0  0  1  0  0  0  0  0999 V2000
    6.6700  -11.2896   27.7534 C   0  0  0  0  0  0  0  0  0  0  0  0
    6.0169  -12.3564   26.9157 C   0  0  0  0  0  0  0  0  0  0  0  0
    7.0351  -13.0990   26.0683 C   0  0  2  0  0  0  0  0  0  0  0  0
    7.9033  -12.1634   25.2954 C   0  0  0  0  0  0  0  0  0  0  0  0
    6.3108  -14.1102   25.1684 C   0  0  2  0  0  0  0  0  0  0  0  0
    5.7523  -15.0834   26.1333 N   0  0  0  0  0  0  0  0  0  0  0  0
    7.2876  -14.8566   24.3307 C   0  0  0  0  0  0  0  0  0  0  0  0
    7.8139  -15.9068   24.8081 O   0  0  0  0  0  0  0  0  0  0  0  0
    7.0995  -13.3636   19.2243 C   0  0  0  0  0  0  0  0  0  0  0  0
    7.1052  -14.2804   20.4479 C   0  0  0  0  0  0  0  0  0  0  0  0
    8.4941  -14.6546   20.8366 C   0  0  2  0  0  0  0  0  0  0  0  0
    9.1411  -15.5090   19.7669 C   0  0  0  0  0  0  0  0  0  0  0  0
    8.6086  -15.2386   22.1988 C   0  0  2  0  0  0  0  0  0  0  0  0
    7.6585  -14.4586   23.0314 N   0  0  0  0  0  0  0  0  0  0  0  0
    9.9234  -15.2694   22.8174 C   0  0  0  0  0  0  0  0  0  0  0  0
   10.2876  -14.4345   23.7208 O   0  0  0  0  0  0  0  0  0  0  0  0
   10.9117  -16.2280   22.4814 N   0  0  0  0  0  0  0  0  0  0  0  0
   11.7800  -16.8337   23.5169 C   0  0  1  0  0  0  0  0  0  0  0  0
   10.9223  -17.6077   24.4825 C   0  0  0  0  0  0  0  0  0  0  0  0
   11.6871  -18.3163   25.5595 C   0  0  0  0  0  0  0  0  0  0  0  0
   10.7153  -19.1318   26.4332 C   0  0  0  0  0  0  0  0  0  0  0  0
   11.5218  -19.8865   27.4855 C   0  0  0  0  0  0  0  0  0  0  0  0
   10.6081  -20.5388   28.3923 N   0  0  0  0  0  0  0  0  0  0  0  0
   12.8531  -17.6145   22.9096 C   0  0  0  0  0  0  0  0  0  0  0  0
   14.1881  -17.3121   23.1643 O   0  0  0  0  0  0  0  0  0  0  0  0
   12.6326  -18.5774   22.1430 O   0  0  0  0  0  0  0  0  0  0  0  0
  2  1  1  0
  3  5  1  0
  3  2  1  0
  3  4  1  6
  5  6  1  1
  7  5  1  0
  7  8  2  0
 10  9  1  0
 11 10  1  0
 11 13  1  0
 11 12  1  6
 13 14  1  1
 14  7  1  0
 15 13  1  0
 15 17  1  0
 16 15  2  0
 18 17  1  0
 18 24  1  0
 18 19  1  1
 20 19  1  0
 21 22  1  0
 21 20  1  0
 22 23  1  0
 24 25  1  0
 26 24  2  0
M  END
$$$$
