IIK.pdb
     RDKit          3D

 26 25  0  0  1  0  0  0  0  0999 V2000
    6.8739  -12.5639   18.7841 C   0  0  0  0  0  0  0  0  0  0  0  0
    7.2085  -13.8353   19.5176 C   0  0  0  0  0  0  0  0  0  0  0  0
    7.7305  -13.5501   20.9150 C   0  0  2  0  0  0  0  0  0  0  0  0
    8.9434  -12.6814   20.8888 C   0  0  0  0  0  0  0  0  0  0  0  0
    7.9709  -14.8758   21.6510 C   0  0  2  0  0  0  0  0  0  0  0  0
    6.6116  -15.4485   21.7703 N   0  0  0  0  0  0  0  0  0  0  0  0
    8.4481  -14.6239   23.0374 C   0  0  0  0  0  0  0  0  0  0  0  0
    9.6867  -14.4264   23.2230 O   0  0  0  0  0  0  0  0  0  0  0  0
    6.0104  -11.1568   25.8087 C   0  0  0  0  0  0  0  0  0  0  0  0
    7.1428  -12.0632   25.3253 C   0  0  0  0  0  0  0  0  0  0  0  0
    7.1921  -13.3306   26.1073 C   0  0  2  0  0  0  0  0  0  0  0  0
    7.4594  -13.0502   27.5711 C   0  0  0  0  0  0  0  0  0  0  0  0
    8.0958  -14.3635   25.5361 C   0  0  2  0  0  0  0  0  0  0  0  0
    7.5944  -14.5914   24.1573 N   0  0  0  0  0  0  0  0  0  0  0  0
    8.2235  -15.6242   26.2479 C   0  0  0  0  0  0  0  0  0  0  0  0
    8.7011  -15.7079   27.4356 O   0  0  0  0  0  0  0  0  0  0  0  0
    7.8249  -16.8664   25.6944 N   0  0  0  0  0  0  0  0  0  0  0  0
    7.9146  -18.1214   26.4753 C   0  0  1  0  0  0  0  0  0  0  0  0
    7.0650  -19.1723   25.8114 C   0  0  0  0  0  0  0  0  0  0  0  0
    6.6800  -20.3127   26.7047 C   0  0  0  0  0  0  0  0  0  0  0  0
    7.1295  -21.6420   26.0697 C   0  0  0  0  0  0  0  0  0  0  0  0
    6.6002  -22.7926   26.9203 C   0  0  0  0  0  0  0  0  0  0  0  0
    7.0750  -24.0376   26.3661 N   0  0  0  0  0  0  0  0  0  0  0  0
    9.3056  -18.5146   26.6770 C   0  0  0  0  0  0  0  0  0  0  0  0
   10.3035  -18.0791   25.8092 O   0  0  0  0  0  0  0  0  0  0  0  0
    9.6659  -19.2497   27.6221 O   0  0  0  0  0  0  0  0  0  0  0  0
  2  1  1  0
  3  5  1  0
  3  2  1  0
  3  4  1  6
  5  6  1  1
  7  5  1  0
  7  8  2  0
 10  9  1  0
 11 10  1  0
 11 13  1  0
 11 12  1  1
 13 14  1  6
 14  7  1  0
 15 13  1  0
 15 17  1  0
 16 15  2  0
 18 17  1  0
 18 24  1  0
 18 19  1  6
 20 19  1  0
 21 22  1  0
 21 20  1  0
 22 23  1  0
 24 25  1  0
 26 24  2  0
M  END
$$$$
