IIK.pdb
     RDKit          3D

 26 25  0  0  1  0  0  0  0  0999 V2000
    6.2414  -18.0574   19.3087 C   0  0  0  0  0  0  0  0  0  0  0  0
    6.1862  -16.6127   19.7284 C   0  0  0  0  0  0  0  0  0  0  0  0
    7.0209  -16.3627   20.9722 C   0  0  2  0  0  0  0  0  0  0  0  0
    6.7381  -17.3638   22.0419 C   0  0  0  0  0  0  0  0  0  0  0  0
    6.8106  -14.9179   21.4467 C   0  0  2  0  0  0  0  0  0  0  0  0
    7.3184  -14.1119   20.3142 N   0  0  0  0  0  0  0  0  0  0  0  0
    7.6894  -14.6171   22.6088 C   0  0  0  0  0  0  0  0  0  0  0  0
    8.9433  -14.5796   22.4238 O   0  0  0  0  0  0  0  0  0  0  0  0
    6.0704  -11.2489   26.3710 C   0  0  0  0  0  0  0  0  0  0  0  0
    7.0070  -12.0228   25.4427 C   0  0  0  0  0  0  0  0  0  0  0  0
    7.3709  -13.3462   26.0228 C   0  0  2  0  0  0  0  0  0  0  0  0
    8.0793  -13.1761   27.3502 C   0  0  0  0  0  0  0  0  0  0  0  0
    8.0957  -14.2434   25.0849 C   0  0  2  0  0  0  0  0  0  0  0  0
    7.2012  -14.3695   23.9067 N   0  0  0  0  0  0  0  0  0  0  0  0
    8.4919  -15.5555   25.5681 C   0  0  0  0  0  0  0  0  0  0  0  0
    7.6460  -16.4753   25.8581 O   0  0  0  0  0  0  0  0  0  0  0  0
    9.8453  -15.9333   25.7526 N   0  0  0  0  0  0  0  0  0  0  0  0
   10.2103  -17.3014   26.1862 C   0  0  1  0  0  0  0  0  0  0  0  0
   11.2474  -17.8525   25.2440 C   0  0  0  0  0  0  0  0  0  0  0  0
   11.7308  -19.2282   25.5911 C   0  0  0  0  0  0  0  0  0  0  0  0
   12.8744  -19.6300   24.6406 C   0  0  0  0  0  0  0  0  0  0  0  0
   13.3475  -21.0320   25.0121 C   0  0  0  0  0  0  0  0  0  0  0  0
   14.2831  -21.4875   24.0121 N   0  0  0  0  0  0  0  0  0  0  0  0
   10.6073  -17.3176   27.5905 C   0  0  0  0  0  0  0  0  0  0  0  0
   10.6722  -18.5137   28.3002 O   0  0  0  0  0  0  0  0  0  0  0  0
   10.9038  -16.2769   28.2171 O   0  0  0  0  0  0  0  0  0  0  0  0
  2  1  1  0
  3  5  1  0
  3  2  1  0
  3  4  1  1
  5  6  1  6
  7  5  1  0
  7  8  2  0
 10  9  1  0
 11 10  1  0
 11 13  1  0
 11 12  1  1
 13 14  1  6
 14  7  1  0
 15 13  1  0
 15 17  1  0
 16 15  2  0
 18 17  1  0
 18 24  1  0
 18 19  1  6
 20 19  1  0
 21 22  1  0
 21 20  1  0
 22 23  1  0
 24 25  1  0
 26 24  2  0
M  END
$$$$
