IIK.pdb
     RDKit          3D

 26 25  0  0  1  0  0  0  0  0999 V2000
    6.5241  -18.2649   19.2862 C   0  0  0  0  0  0  0  0  0  0  0  0
    6.3990  -16.8011   19.6149 C   0  0  0  0  0  0  0  0  0  0  0  0
    7.1620  -16.4481   20.8797 C   0  0  2  0  0  0  0  0  0  0  0  0
    6.8835  -17.4118   21.9842 C   0  0  0  0  0  0  0  0  0  0  0  0
    6.8551  -14.9962   21.2730 C   0  0  2  0  0  0  0  0  0  0  0  0
    7.3883  -14.2164   20.1338 N   0  0  0  0  0  0  0  0  0  0  0  0
    7.6494  -14.5999   22.4668 C   0  0  0  0  0  0  0  0  0  0  0  0
    8.9061  -14.4834   22.3443 O   0  0  0  0  0  0  0  0  0  0  0  0
    5.7249  -11.2052   26.0784 C   0  0  0  0  0  0  0  0  0  0  0  0
    6.6909  -11.9900   25.1902 C   0  0  0  0  0  0  0  0  0  0  0  0
    7.0893  -13.2759   25.8290 C   0  0  2  0  0  0  0  0  0  0  0  0
    7.7277  -13.0312   27.1800 C   0  0  0  0  0  0  0  0  0  0  0  0
    7.8970  -14.1657   24.9539 C   0  0  2  0  0  0  0  0  0  0  0  0
    7.0779  -14.3449   23.7287 N   0  0  0  0  0  0  0  0  0  0  0  0
    8.3072  -15.4539   25.4870 C   0  0  0  0  0  0  0  0  0  0  0  0
    7.4728  -16.3812   25.7864 O   0  0  0  0  0  0  0  0  0  0  0  0
    9.6630  -15.7985   25.7142 N   0  0  0  0  0  0  0  0  0  0  0  0
   10.0395  -17.1214   26.2629 C   0  0  1  0  0  0  0  0  0  0  0  0
   11.0700  -17.7490   25.3621 C   0  0  0  0  0  0  0  0  0  0  0  0
   11.6394  -19.0370   25.8757 C   0  0  0  0  0  0  0  0  0  0  0  0
   12.7012  -19.5623   24.8912 C   0  0  0  0  0  0  0  0  0  0  0  0
   13.2663  -20.8706   25.4358 C   0  0  0  0  0  0  0  0  0  0  0  0
   14.3789  -21.2759   24.6108 N   0  0  0  0  0  0  0  0  0  0  0  0
   10.4507  -17.0119   27.6589 C   0  0  0  0  0  0  0  0  0  0  0  0
   10.5270  -18.1402   28.4711 O   0  0  0  0  0  0  0  0  0  0  0  0
   10.7500  -15.9190   28.1876 O   0  0  0  0  0  0  0  0  0  0  0  0
  2  1  1  0
  3  5  1  0
  3  2  1  0
  3  4  1  1
  5  6  1  6
  7  5  1  0
  7  8  2  0
 10  9  1  0
 11 10  1  0
 11 13  1  0
 11 12  1  1
 13 14  1  6
 14  7  1  0
 15 13  1  0
 15 17  1  0
 16 15  2  0
 18 17  1  0
 18 24  1  0
 18 19  1  6
 20 19  1  0
 21 22  1  0
 21 20  1  0
 22 23  1  0
 24 25  1  0
 26 24  2  0
M  END
$$$$
