IIK.pdb
     RDKit          3D

 26 25  0  0  1  0  0  0  0  0999 V2000
    6.3355  -18.6382   19.7521 C   0  0  0  0  0  0  0  0  0  0  0  0
    6.0108  -17.2255   20.1585 C   0  0  0  0  0  0  0  0  0  0  0  0
    6.9381  -16.7358   21.2570 C   0  0  2  0  0  0  0  0  0  0  0  0
    7.0234  -17.7070   22.3866 C   0  0  0  0  0  0  0  0  0  0  0  0
    6.4960  -15.3383   21.7136 C   0  0  2  0  0  0  0  0  0  0  0  0
    6.6263  -14.5234   20.4852 N   0  0  0  0  0  0  0  0  0  0  0  0
    7.4629  -14.7804   22.6970 C   0  0  0  0  0  0  0  0  0  0  0  0
    8.6209  -14.4615   22.2907 O   0  0  0  0  0  0  0  0  0  0  0  0
    5.5557  -11.6053   26.4315 C   0  0  0  0  0  0  0  0  0  0  0  0
    6.5130  -12.2106   25.4044 C   0  0  0  0  0  0  0  0  0  0  0  0
    7.3513  -13.2821   26.0124 C   0  0  2  0  0  0  0  0  0  0  0  0
    8.1813  -12.7339   27.1541 C   0  0  0  0  0  0  0  0  0  0  0  0
    8.1509  -14.0603   25.0302 C   0  0  2  0  0  0  0  0  0  0  0  0
    7.1588  -14.5856   24.0585 N   0  0  0  0  0  0  0  0  0  0  0  0
    8.9897  -15.1346   25.5348 C   0  0  0  0  0  0  0  0  0  0  0  0
    8.5212  -16.2733   25.8948 O   0  0  0  0  0  0  0  0  0  0  0  0
   10.3962  -15.0188   25.6650 N   0  0  0  0  0  0  0  0  0  0  0  0
   11.2286  -16.1724   26.0765 C   0  0  1  0  0  0  0  0  0  0  0  0
   10.6193  -16.8031   27.3005 C   0  0  0  0  0  0  0  0  0  0  0  0
   11.3106  -18.0498   27.7640 C   0  0  0  0  0  0  0  0  0  0  0  0
   10.5725  -18.6266   28.9867 C   0  0  0  0  0  0  0  0  0  0  0  0
   11.2882  -19.8975   29.4336 C   0  0  0  0  0  0  0  0  0  0  0  0
   10.5723  -20.4666   30.5500 N   0  0  0  0  0  0  0  0  0  0  0  0
   11.4311  -17.0955   24.9643 C   0  0  0  0  0  0  0  0  0  0  0  0
   12.6730  -17.2046   24.3443 O   0  0  0  0  0  0  0  0  0  0  0  0
   10.5163  -17.8224   24.5191 O   0  0  0  0  0  0  0  0  0  0  0  0
  2  1  1  0
  3  5  1  0
  3  2  1  0
  3  4  1  1
  5  6  1  6
  7  5  1  0
  7  8  2  0
 10  9  1  0
 11 10  1  0
 11 13  1  0
 11 12  1  1
 13 14  1  6
 14  7  1  0
 15 13  1  0
 15 17  1  0
 16 15  2  0
 18 17  1  0
 18 24  1  0
 18 19  1  1
 20 19  1  0
 21 22  1  0
 21 20  1  0
 22 23  1  0
 24 25  1  0
 26 24  2  0
M  END
$$$$
