IIK.pdb
     RDKit          3D

 26 25  0  0  1  0  0  0  0  0999 V2000
    7.7206  -16.3587   17.9713 C   0  0  0  0  0  0  0  0  0  0  0  0
    7.4154  -15.0890   18.7205 C   0  0  0  0  0  0  0  0  0  0  0  0
    7.8406  -15.1859   20.1752 C   0  0  2  0  0  0  0  0  0  0  0  0
    7.2980  -16.4106   20.8326 C   0  0  0  0  0  0  0  0  0  0  0  0
    7.4442  -13.8977   20.9102 C   0  0  2  0  0  0  0  0  0  0  0  0
    8.1395  -12.8413   20.1418 N   0  0  0  0  0  0  0  0  0  0  0  0
    8.0255  -13.8781   22.2795 C   0  0  0  0  0  0  0  0  0  0  0  0
    9.2836  -13.7759   22.3999 O   0  0  0  0  0  0  0  0  0  0  0  0
    5.6704  -11.2539   26.2073 C   0  0  0  0  0  0  0  0  0  0  0  0
    6.7537  -11.9066   25.3480 C   0  0  0  0  0  0  0  0  0  0  0  0
    6.9328  -13.3427   25.7028 C   0  0  2  0  0  0  0  0  0  0  0  0
    7.2813  -13.4960   27.1684 C   0  0  0  0  0  0  0  0  0  0  0  0
    7.8567  -14.0814   24.8026 C   0  0  2  0  0  0  0  0  0  0  0  0
    7.2503  -13.9657   23.4523 N   0  0  0  0  0  0  0  0  0  0  0  0
    8.1450  -15.4710   25.1156 C   0  0  0  0  0  0  0  0  0  0  0  0
    7.5472  -16.4520   24.5444 O   0  0  0  0  0  0  0  0  0  0  0  0
    9.1154  -15.8611   26.0720 N   0  0  0  0  0  0  0  0  0  0  0  0
    9.8111  -17.1647   25.9750 C   0  0  1  0  0  0  0  0  0  0  0  0
   10.4649  -17.2706   24.6228 C   0  0  0  0  0  0  0  0  0  0  0  0
   11.2248  -18.5434   24.4003 C   0  0  0  0  0  0  0  0  0  0  0  0
   11.8266  -18.5456   22.9824 C   0  0  0  0  0  0  0  0  0  0  0  0
   12.5669  -19.8623   22.7688 C   0  0  0  0  0  0  0  0  0  0  0  0
   13.0015  -19.9340   21.3946 N   0  0  0  0  0  0  0  0  0  0  0  0
   10.7229  -17.3568   27.0983 C   0  0  0  0  0  0  0  0  0  0  0  0
   10.9255  -16.3460   28.0341 O   0  0  0  0  0  0  0  0  0  0  0  0
   11.3576  -18.4196   27.2746 O   0  0  0  0  0  0  0  0  0  0  0  0
  2  1  1  0
  3  5  1  0
  3  2  1  0
  3  4  1  1
  5  6  1  6
  7  5  1  0
  7  8  2  0
 10  9  1  0
 11 10  1  0
 11 13  1  0
 11 12  1  1
 13 14  1  6
 14  7  1  0
 15 13  1  0
 15 17  1  0
 16 15  2  0
 18 17  1  0
 18 24  1  0
 18 19  1  6
 20 19  1  0
 21 22  1  0
 21 20  1  0
 22 23  1  0
 24 25  1  0
 26 24  2  0
M  END
$$$$
