IIK.pdb
     RDKit          3D

 26 25  0  0  1  0  0  0  0  0999 V2000
    6.5774  -17.6193   18.7396 C   0  0  0  0  0  0  0  0  0  0  0  0
    6.5653  -16.2076   19.2622 C   0  0  0  0  0  0  0  0  0  0  0  0
    7.2540  -16.1084   20.6121 C   0  0  2  0  0  0  0  0  0  0  0  0
    6.7817  -17.1631   21.5560 C   0  0  0  0  0  0  0  0  0  0  0  0
    7.0748  -14.6911   21.1743 C   0  0  2  0  0  0  0  0  0  0  0  0
    7.7452  -13.8395   20.1667 N   0  0  0  0  0  0  0  0  0  0  0  0
    7.8391  -14.5315   22.4406 C   0  0  0  0  0  0  0  0  0  0  0  0
    9.1043  -14.4730   22.3788 O   0  0  0  0  0  0  0  0  0  0  0  0
    5.7916  -11.5425   26.3424 C   0  0  0  0  0  0  0  0  0  0  0  0
    6.8427  -12.1980   25.4461 C   0  0  0  0  0  0  0  0  0  0  0  0
    7.1539  -13.5823   25.9012 C   0  0  2  0  0  0  0  0  0  0  0  0
    7.6768  -13.5773   27.3223 C   0  0  0  0  0  0  0  0  0  0  0  0
    8.0148  -14.3518   24.9649 C   0  0  2  0  0  0  0  0  0  0  0  0
    7.2303  -14.4399   23.7075 N   0  0  0  0  0  0  0  0  0  0  0  0
    8.4630  -15.6703   25.3807 C   0  0  0  0  0  0  0  0  0  0  0  0
    7.6528  -16.6162   25.6882 O   0  0  0  0  0  0  0  0  0  0  0  0
    9.8317  -16.0257   25.4745 N   0  0  0  0  0  0  0  0  0  0  0  0
   10.2470  -17.3944   25.8581 C   0  0  1  0  0  0  0  0  0  0  0  0
   11.3958  -17.8201   24.9828 C   0  0  0  0  0  0  0  0  0  0  0  0
   11.9496  -19.1756   25.3036 C   0  0  0  0  0  0  0  0  0  0  0  0
   13.1386  -19.4821   24.3736 C   0  0  0  0  0  0  0  0  0  0  0  0
   13.6099  -20.9086   24.6385 C   0  0  0  0  0  0  0  0  0  0  0  0
   14.6553  -21.2353   23.6988 N   0  0  0  0  0  0  0  0  0  0  0  0
   10.5211  -17.4770   27.2892 C   0  0  0  0  0  0  0  0  0  0  0  0
   10.6261  -16.3247   28.0635 O   0  0  0  0  0  0  0  0  0  0  0  0
   10.6732  -18.5672   27.8824 O   0  0  0  0  0  0  0  0  0  0  0  0
  2  1  1  0
  3  5  1  0
  3  2  1  0
  3  4  1  1
  5  6  1  6
  7  5  1  0
  7  8  2  0
 10  9  1  0
 11 10  1  0
 11 13  1  0
 11 12  1  1
 13 14  1  6
 14  7  1  0
 15 13  1  0
 15 17  1  0
 16 15  2  0
 18 17  1  0
 18 24  1  0
 18 19  1  6
 20 19  1  0
 21 22  1  0
 21 20  1  0
 22 23  1  0
 24 25  1  0
 26 24  2  0
M  END
$$$$
