IIK.pdb
     RDKit          3D

 26 25  0  0  1  0  0  0  0  0999 V2000
    5.3322  -21.6142   24.1471 C   0  0  0  0  0  0  0  0  0  0  0  0
    4.8180  -20.2279   23.8638 C   0  0  0  0  0  0  0  0  0  0  0  0
    5.9207  -19.1905   23.9839 C   0  0  2  0  0  0  0  0  0  0  0  0
    6.7476  -19.3974   25.2086 C   0  0  0  0  0  0  0  0  0  0  0  0
    5.3087  -17.7842   23.9167 C   0  0  2  0  0  0  0  0  0  0  0  0
    4.7427  -17.7258   22.5506 N   0  0  0  0  0  0  0  0  0  0  0  0
    6.3742  -16.7478   23.9788 C   0  0  0  0  0  0  0  0  0  0  0  0
    7.1335  -16.6017   22.9739 O   0  0  0  0  0  0  0  0  0  0  0  0
    5.7670  -12.1998   26.7979 C   0  0  0  0  0  0  0  0  0  0  0  0
    6.2589  -13.1475   25.7036 C   0  0  0  0  0  0  0  0  0  0  0  0
    7.3904  -13.9889   26.1855 C   0  0  2  0  0  0  0  0  0  0  0  0
    8.5518  -13.1255   26.6313 C   0  0  0  0  0  0  0  0  0  0  0  0
    7.7918  -15.0666   25.2435 C   0  0  2  0  0  0  0  0  0  0  0  0
    6.5838  -15.9171   25.0969 N   0  0  0  0  0  0  0  0  0  0  0  0
    8.9478  -15.8766   25.5895 C   0  0  0  0  0  0  0  0  0  0  0  0
    8.9713  -16.6579   26.6068 O   0  0  0  0  0  0  0  0  0  0  0  0
   10.1438  -15.8785   24.8293 N   0  0  0  0  0  0  0  0  0  0  0  0
   11.2214  -16.8597   25.0920 C   0  0  1  0  0  0  0  0  0  0  0  0
   11.9545  -17.1367   23.8063 C   0  0  0  0  0  0  0  0  0  0  0  0
   11.0821  -17.6219   22.6881 C   0  0  0  0  0  0  0  0  0  0  0  0
   11.9454  -17.9075   21.4448 C   0  0  0  0  0  0  0  0  0  0  0  0
   11.0649  -18.5484   20.3764 C   0  0  0  0  0  0  0  0  0  0  0  0
   11.8780  -18.8498   19.2229 N   0  0  0  0  0  0  0  0  0  0  0  0
   12.0783  -16.4162   26.1870 C   0  0  0  0  0  0  0  0  0  0  0  0
   13.0185  -17.2748   26.7503 O   0  0  0  0  0  0  0  0  0  0  0  0
   12.0129  -15.2635   26.6670 O   0  0  0  0  0  0  0  0  0  0  0  0
  2  1  1  0
  3  5  1  0
  3  2  1  0
  3  4  1  1
  5  6  1  6
  7  5  1  0
  7  8  2  0
 10  9  1  0
 11 10  1  0
 11 13  1  0
 11 12  1  6
 13 14  1  1
 14  7  1  0
 15 13  1  0
 15 17  1  0
 16 15  2  0
 18 17  1  0
 18 24  1  0
 18 19  1  6
 20 19  1  0
 21 22  1  0
 21 20  1  0
 22 23  1  0
 24 25  1  0
 26 24  2  0
M  END
$$$$
