IIK.pdb
     RDKit          3D

 26 25  0  0  1  0  0  0  0  0999 V2000
    7.0560  -12.6159   18.6065 C   0  0  0  0  0  0  0  0  0  0  0  0
    7.1361  -13.9178   19.3582 C   0  0  0  0  0  0  0  0  0  0  0  0
    7.7998  -13.7381   20.7123 C   0  0  2  0  0  0  0  0  0  0  0  0
    9.1543  -13.1241   20.5904 C   0  0  0  0  0  0  0  0  0  0  0  0
    7.8271  -15.0839   21.4506 C   0  0  2  0  0  0  0  0  0  0  0  0
    6.3933  -15.3850   21.6594 N   0  0  0  0  0  0  0  0  0  0  0  0
    8.4283  -14.9256   22.8021 C   0  0  0  0  0  0  0  0  0  0  0  0
    9.6784  -14.7313   22.8878 O   0  0  0  0  0  0  0  0  0  0  0  0
    5.9304  -11.9077   26.1348 C   0  0  0  0  0  0  0  0  0  0  0  0
    6.9988  -12.6893   25.3696 C   0  0  0  0  0  0  0  0  0  0  0  0
    7.3712  -13.9407   26.0877 C   0  0  2  0  0  0  0  0  0  0  0  0
    7.8484  -13.6345   27.4917 C   0  0  0  0  0  0  0  0  0  0  0  0
    8.3019  -14.8212   25.3337 C   0  0  2  0  0  0  0  0  0  0  0  0
    7.6804  -14.9786   23.9946 N   0  0  0  0  0  0  0  0  0  0  0  0
    8.6223  -16.1191   25.9038 C   0  0  0  0  0  0  0  0  0  0  0  0
    7.7263  -16.9355   26.3237 O   0  0  0  0  0  0  0  0  0  0  0  0
    9.9500  -16.5964   26.0373 N   0  0  0  0  0  0  0  0  0  0  0  0
   10.2306  -17.9598   26.5427 C   0  0  1  0  0  0  0  0  0  0  0  0
   11.3045  -18.5850   25.6924 C   0  0  0  0  0  0  0  0  0  0  0  0
   11.1025  -18.4164   24.2167 C   0  0  0  0  0  0  0  0  0  0  0  0
   12.1653  -19.2285   23.4529 C   0  0  0  0  0  0  0  0  0  0  0  0
   11.9265  -19.0580   21.9558 C   0  0  0  0  0  0  0  0  0  0  0  0
   13.1983  -19.0948   21.2746 N   0  0  0  0  0  0  0  0  0  0  0  0
   10.5336  -17.9373   27.9702 C   0  0  0  0  0  0  0  0  0  0  0  0
   10.5499  -19.1135   28.7150 O   0  0  0  0  0  0  0  0  0  0  0  0
   10.7890  -16.8797   28.5864 O   0  0  0  0  0  0  0  0  0  0  0  0
  2  1  1  0
  3  5  1  0
  3  2  1  0
  3  4  1  6
  5  6  1  1
  7  5  1  0
  7  8  2  0
 10  9  1  0
 11 10  1  0
 11 13  1  0
 11 12  1  1
 13 14  1  6
 14  7  1  0
 15 13  1  0
 15 17  1  0
 16 15  2  0
 18 17  1  0
 18 24  1  0
 18 19  1  6
 20 19  1  0
 21 22  1  0
 21 20  1  0
 22 23  1  0
 24 25  1  0
 26 24  2  0
M  END
$$$$
