IIK.pdb
     RDKit          3D

 26 25  0  0  1  0  0  0  0  0999 V2000
    6.9391  -18.3064   19.1310 C   0  0  0  0  0  0  0  0  0  0  0  0
    6.9180  -16.8202   19.3698 C   0  0  0  0  0  0  0  0  0  0  0  0
    7.5789  -16.4594   20.6887 C   0  0  2  0  0  0  0  0  0  0  0  0
    7.1030  -17.3278   21.8048 C   0  0  0  0  0  0  0  0  0  0  0  0
    7.3689  -14.9655   20.9736 C   0  0  2  0  0  0  0  0  0  0  0  0
    8.0741  -14.3044   19.8531 N   0  0  0  0  0  0  0  0  0  0  0  0
    8.0810  -14.5663   22.2172 C   0  0  0  0  0  0  0  0  0  0  0  0
    9.3455  -14.4780   22.1870 O   0  0  0  0  0  0  0  0  0  0  0  0
    7.1303  -11.3973   27.3069 C   0  0  0  0  0  0  0  0  0  0  0  0
    7.9758  -12.4980   26.6655 C   0  0  0  0  0  0  0  0  0  0  0  0
    7.3728  -12.9665   25.3859 C   0  0  2  0  0  0  0  0  0  0  0  0
    5.9176  -13.3375   25.5803 C   0  0  0  0  0  0  0  0  0  0  0  0
    8.1573  -14.0227   24.6940 C   0  0  2  0  0  0  0  0  0  0  0  0
    7.4232  -14.2789   23.4292 N   0  0  0  0  0  0  0  0  0  0  0  0
    8.3987  -15.2667   25.4054 C   0  0  0  0  0  0  0  0  0  0  0  0
    7.4531  -16.0435   25.7904 O   0  0  0  0  0  0  0  0  0  0  0  0
    9.6982  -15.7315   25.7276 N   0  0  0  0  0  0  0  0  0  0  0  0
    9.9043  -17.0297   26.4097 C   0  0  1  0  0  0  0  0  0  0  0  0
   11.0535  -17.7490   25.7549 C   0  0  0  0  0  0  0  0  0  0  0  0
   10.9071  -17.9313   24.2742 C   0  0  0  0  0  0  0  0  0  0  0  0
   12.1954  -18.5492   23.6990 C   0  0  0  0  0  0  0  0  0  0  0  0
   12.0708  -18.6105   22.1797 C   0  0  0  0  0  0  0  0  0  0  0  0
   13.3371  -19.0250   21.6254 N   0  0  0  0  0  0  0  0  0  0  0  0
   10.0541  -16.8468   27.8499 C   0  0  0  0  0  0  0  0  0  0  0  0
   10.2092  -15.5754   28.3957 O   0  0  0  0  0  0  0  0  0  0  0  0
   10.0511  -17.8053   28.6529 O   0  0  0  0  0  0  0  0  0  0  0  0
  2  1  1  0
  3  5  1  0
  3  2  1  0
  3  4  1  1
  5  6  1  6
  7  5  1  0
  7  8  2  0
 10  9  1  0
 11 10  1  0
 11 13  1  0
 11 12  1  1
 13 14  1  6
 14  7  1  0
 15 13  1  0
 15 17  1  0
 16 15  2  0
 18 17  1  0
 18 24  1  0
 18 19  1  6
 20 19  1  0
 21 22  1  0
 21 20  1  0
 22 23  1  0
 24 25  1  0
 26 24  2  0
M  END
$$$$
