IIK.pdb
     RDKit          3D

 26 25  0  0  1  0  0  0  0  0999 V2000
   11.2641  -16.0821   30.9727 C   0  0  0  0  0  0  0  0  0  0  0  0
    9.9284  -16.5509   30.4604 C   0  0  0  0  0  0  0  0  0  0  0  0
    9.7498  -16.2199   28.9890 C   0  0  2  0  0  0  0  0  0  0  0  0
   10.1386  -14.8118   28.6847 C   0  0  0  0  0  0  0  0  0  0  0  0
    8.3091  -16.5383   28.5648 C   0  0  2  0  0  0  0  0  0  0  0  0
    8.2143  -18.0023   28.7590 N   0  0  0  0  0  0  0  0  0  0  0  0
    8.1269  -16.2910   27.1092 C   0  0  0  0  0  0  0  0  0  0  0  0
    8.1358  -17.2851   26.3222 O   0  0  0  0  0  0  0  0  0  0  0  0
    6.0780  -11.5463   26.0694 C   0  0  0  0  0  0  0  0  0  0  0  0
    6.1322  -13.0306   25.7062 C   0  0  0  0  0  0  0  0  0  0  0  0
    7.3835  -13.3611   24.9676 C   0  0  2  0  0  0  0  0  0  0  0  0
    7.2995  -12.8938   23.5297 C   0  0  0  0  0  0  0  0  0  0  0  0
    7.8101  -14.7792   25.0968 C   0  0  2  0  0  0  0  0  0  0  0  0
    7.9429  -15.0080   26.5577 N   0  0  0  0  0  0  0  0  0  0  0  0
    9.0188  -15.1917   24.4033 C   0  0  0  0  0  0  0  0  0  0  0  0
   10.1841  -14.7555   24.7157 O   0  0  0  0  0  0  0  0  0  0  0  0
    9.0145  -16.1160   23.3290 N   0  0  0  0  0  0  0  0  0  0  0  0
   10.2773  -16.6182   22.7406 C   0  0  1  0  0  0  0  0  0  0  0  0
   10.1449  -18.0967   22.4881 C   0  0  0  0  0  0  0  0  0  0  0  0
   11.3548  -18.7300   21.8699 C   0  0  0  0  0  0  0  0  0  0  0  0
   11.0865  -20.2267   21.6237 C   0  0  0  0  0  0  0  0  0  0  0  0
   12.3312  -20.8489   20.9984 C   0  0  0  0  0  0  0  0  0  0  0  0
   12.0736  -22.2451   20.7397 N   0  0  0  0  0  0  0  0  0  0  0  0
   10.6527  -15.8405   21.5641 C   0  0  0  0  0  0  0  0  0  0  0  0
    9.6820  -15.2538   20.7566 O   0  0  0  0  0  0  0  0  0  0  0  0
   11.8439  -15.6645   21.2269 O   0  0  0  0  0  0  0  0  0  0  0  0
  2  1  1  0
  3  5  1  0
  3  2  1  0
  3  4  1  1
  5  6  1  6
  7  5  1  0
  7  8  2  0
 10  9  1  0
 11 10  1  0
 11 13  1  0
 11 12  1  6
 13 14  1  1
 14  7  1  0
 15 13  1  0
 15 17  1  0
 16 15  2  0
 18 17  1  0
 18 24  1  0
 18 19  1  6
 20 19  1  0
 21 22  1  0
 21 20  1  0
 22 23  1  0
 24 25  1  0
 26 24  2  0
M  END
$$$$
