IIK.pdb
     RDKit          3D

 26 25  0  0  1  0  0  0  0  0999 V2000
    4.5587  -20.4036   22.3097 C   0  0  0  0  0  0  0  0  0  0  0  0
    4.5161  -18.9043   22.1809 C   0  0  0  0  0  0  0  0  0  0  0  0
    5.7106  -18.2540   22.8566 C   0  0  2  0  0  0  0  0  0  0  0  0
    5.9574  -18.8202   24.2149 C   0  0  0  0  0  0  0  0  0  0  0  0
    5.5184  -16.7310   22.8791 C   0  0  2  0  0  0  0  0  0  0  0  0
    5.4721  -16.3740   21.4437 N   0  0  0  0  0  0  0  0  0  0  0  0
    6.7208  -16.0615   23.4440 C   0  0  0  0  0  0  0  0  0  0  0  0
    7.7847  -16.0487   22.7542 O   0  0  0  0  0  0  0  0  0  0  0  0
    5.9966  -11.8377   26.4782 C   0  0  0  0  0  0  0  0  0  0  0  0
    6.7865  -12.6996   25.4928 C   0  0  0  0  0  0  0  0  0  0  0  0
    7.5227  -13.7877   26.1959 C   0  0  2  0  0  0  0  0  0  0  0  0
    8.6304  -13.2189   27.0577 C   0  0  0  0  0  0  0  0  0  0  0  0
    7.9813  -14.8863   25.3057 C   0  0  2  0  0  0  0  0  0  0  0  0
    6.7397  -15.4379   24.7069 N   0  0  0  0  0  0  0  0  0  0  0  0
    8.7808  -15.9485   25.8926 C   0  0  0  0  0  0  0  0  0  0  0  0
    8.3496  -16.7054   26.8344 O   0  0  0  0  0  0  0  0  0  0  0  0
   10.1010  -16.2437   25.4700 N   0  0  0  0  0  0  0  0  0  0  0  0
   10.8067  -17.4574   25.9410 C   0  0  1  0  0  0  0  0  0  0  0  0
   11.8831  -17.8127   24.9499 C   0  0  0  0  0  0  0  0  0  0  0  0
   12.7715  -18.9414   25.3785 C   0  0  0  0  0  0  0  0  0  0  0  0
   13.8462  -19.1908   24.3037 C   0  0  0  0  0  0  0  0  0  0  0  0
   14.6987  -20.3808   24.7333 C   0  0  0  0  0  0  0  0  0  0  0  0
   14.0985  -21.5907   24.2251 N   0  0  0  0  0  0  0  0  0  0  0  0
   11.2844  -17.2878   27.3096 C   0  0  0  0  0  0  0  0  0  0  0  0
   11.5138  -18.3911   28.1274 O   0  0  0  0  0  0  0  0  0  0  0  0
   11.5077  -16.1635   27.8090 O   0  0  0  0  0  0  0  0  0  0  0  0
  2  1  1  0
  3  5  1  0
  3  2  1  0
  3  4  1  1
  5  6  1  6
  7  5  1  0
  7  8  2  0
 10  9  1  0
 11 10  1  0
 11 13  1  0
 11 12  1  6
 13 14  1  1
 14  7  1  0
 15 13  1  0
 15 17  1  0
 16 15  2  0
 18 17  1  0
 18 24  1  0
 18 19  1  6
 20 19  1  0
 21 22  1  0
 21 20  1  0
 22 23  1  0
 24 25  1  0
 26 24  2  0
M  END
$$$$
