IIK.pdb
     RDKit          3D

 26 25  0  0  1  0  0  0  0  0999 V2000
    5.5035  -21.8060   24.4579 C   0  0  0  0  0  0  0  0  0  0  0  0
    4.8980  -20.4486   24.2188 C   0  0  0  0  0  0  0  0  0  0  0  0
    5.9586  -19.3618   24.2017 C   0  0  2  0  0  0  0  0  0  0  0  0
    6.9232  -19.5085   25.3306 C   0  0  0  0  0  0  0  0  0  0  0  0
    5.2793  -17.9852   24.1821 C   0  0  2  0  0  0  0  0  0  0  0  0
    4.5594  -17.9809   22.8891 N   0  0  0  0  0  0  0  0  0  0  0  0
    6.2965  -16.9024   24.1046 C   0  0  0  0  0  0  0  0  0  0  0  0
    6.9758  -16.7873   23.0401 O   0  0  0  0  0  0  0  0  0  0  0  0
    5.6589  -12.4733   27.1003 C   0  0  0  0  0  0  0  0  0  0  0  0
    6.1703  -13.2022   25.8574 C   0  0  0  0  0  0  0  0  0  0  0  0
    7.3651  -14.0350   26.1724 C   0  0  2  0  0  0  0  0  0  0  0  0
    8.5469  -13.1634   26.5420 C   0  0  0  0  0  0  0  0  0  0  0  0
    7.6897  -15.0502   25.1362 C   0  0  2  0  0  0  0  0  0  0  0  0
    6.5445  -15.9949   25.1529 N   0  0  0  0  0  0  0  0  0  0  0  0
    8.9467  -15.7693   25.2588 C   0  0  0  0  0  0  0  0  0  0  0  0
    9.1620  -16.6447   26.1715 O   0  0  0  0  0  0  0  0  0  0  0  0
   10.0382  -15.5708   24.3768 N   0  0  0  0  0  0  0  0  0  0  0  0
   11.1587  -16.5366   24.3093 C   0  0  1  0  0  0  0  0  0  0  0  0
   11.7671  -16.4843   22.9330 C   0  0  0  0  0  0  0  0  0  0  0  0
   12.9369  -17.4010   22.7377 C   0  0  0  0  0  0  0  0  0  0  0  0
   13.4723  -17.2575   21.3006 C   0  0  0  0  0  0  0  0  0  0  0  0
   14.6583  -18.2011   21.1255 C   0  0  0  0  0  0  0  0  0  0  0  0
   15.1740  -18.0565   19.7855 N   0  0  0  0  0  0  0  0  0  0  0  0
   12.1095  -16.3127   25.3938 C   0  0  0  0  0  0  0  0  0  0  0  0
   12.9876  -17.3171   25.7920 O   0  0  0  0  0  0  0  0  0  0  0  0
   12.1826  -15.2271   26.0099 O   0  0  0  0  0  0  0  0  0  0  0  0
  2  1  1  0
  3  5  1  0
  3  2  1  0
  3  4  1  1
  5  6  1  6
  7  5  1  0
  7  8  2  0
 10  9  1  0
 11 10  1  0
 11 13  1  0
 11 12  1  6
 13 14  1  1
 14  7  1  0
 15 13  1  0
 15 17  1  0
 16 15  2  0
 18 17  1  0
 18 24  1  0
 18 19  1  6
 20 19  1  0
 21 22  1  0
 21 20  1  0
 22 23  1  0
 24 25  1  0
 26 24  2  0
M  END
$$$$
