IIK.pdb
     RDKit          3D

 26 25  0  0  1  0  0  0  0  0999 V2000
   11.5506  -16.2375   30.6406 C   0  0  0  0  0  0  0  0  0  0  0  0
   10.1588  -16.5980   30.1941 C   0  0  0  0  0  0  0  0  0  0  0  0
    9.8925  -16.1323   28.7734 C   0  0  2  0  0  0  0  0  0  0  0  0
   10.2520  -14.6968   28.5822 C   0  0  0  0  0  0  0  0  0  0  0  0
    8.4321  -16.4284   28.4039 C   0  0  2  0  0  0  0  0  0  0  0  0
    8.3503  -17.9029   28.5001 N   0  0  0  0  0  0  0  0  0  0  0  0
    8.1732  -16.0814   26.9806 C   0  0  0  0  0  0  0  0  0  0  0  0
    8.1777  -17.0139   26.1214 O   0  0  0  0  0  0  0  0  0  0  0  0
    5.9441  -11.4658   26.5260 C   0  0  0  0  0  0  0  0  0  0  0  0
    5.9972  -12.8626   25.9064 C   0  0  0  0  0  0  0  0  0  0  0  0
    7.2285  -13.0441   25.0871 C   0  0  2  0  0  0  0  0  0  0  0  0
    7.0317  -12.4942   23.6900 C   0  0  0  0  0  0  0  0  0  0  0  0
    7.7688  -14.4289   25.0988 C   0  0  2  0  0  0  0  0  0  0  0  0
    7.9211  -14.7688   26.5360 N   0  0  0  0  0  0  0  0  0  0  0  0
    9.0064  -14.6822   24.3802 C   0  0  0  0  0  0  0  0  0  0  0  0
   10.1642  -14.4988   24.9013 O   0  0  0  0  0  0  0  0  0  0  0  0
    9.0400  -15.1603   23.0465 N   0  0  0  0  0  0  0  0  0  0  0  0
   10.1536  -16.0065   22.5599 C   0  0  1  0  0  0  0  0  0  0  0  0
   10.2468  -17.2361   23.4240 C   0  0  0  0  0  0  0  0  0  0  0  0
   11.3601  -18.1695   23.0548 C   0  0  0  0  0  0  0  0  0  0  0  0
   11.3760  -19.3654   24.0254 C   0  0  0  0  0  0  0  0  0  0  0  0
   12.5026  -20.3097   23.6173 C   0  0  0  0  0  0  0  0  0  0  0  0
   12.5994  -21.3678   24.5939 N   0  0  0  0  0  0  0  0  0  0  0  0
   10.0156  -16.2851   21.1339 C   0  0  0  0  0  0  0  0  0  0  0  0
    8.8773  -15.8899   20.4364 O   0  0  0  0  0  0  0  0  0  0  0  0
   10.8964  -16.8823   20.4776 O   0  0  0  0  0  0  0  0  0  0  0  0
  2  1  1  0
  3  5  1  0
  3  2  1  0
  3  4  1  1
  5  6  1  6
  7  5  1  0
  7  8  2  0
 10  9  1  0
 11 10  1  0
 11 13  1  0
 11 12  1  6
 13 14  1  1
 14  7  1  0
 15 13  1  0
 15 17  1  0
 16 15  2  0
 18 17  1  0
 18 24  1  0
 18 19  1  1
 20 19  1  0
 21 22  1  0
 21 20  1  0
 22 23  1  0
 24 25  1  0
 26 24  2  0
M  END
$$$$
