KCP.pdb
     RDKit          3D

 23 23  0  0  1  0  0  0  0  0999 V2000
    4.6108  -20.8155   23.8277 N   0  0  0  0  0  0  0  0  0  0  0  0
    5.5768  -20.1745   22.9495 C   0  0  1  0  0  0  0  0  0  0  0  0
    5.2057  -20.3850   21.5206 C   0  0  0  0  0  0  0  0  0  0  0  0
    6.1760  -20.8904   20.5585 C   0  0  0  0  0  0  0  0  0  0  0  0
    6.7559  -22.2427   20.6337 C   0  0  0  0  0  0  0  0  0  0  0  0
    7.6098  -22.7506   19.5415 C   0  0  0  0  0  0  0  0  0  0  0  0
    8.2031  -24.0490   19.9470 N   0  0  0  0  0  0  0  0  0  0  0  0
    5.5269  -18.6764   23.1762 C   0  0  0  0  0  0  0  0  0  0  0  0
    4.9156  -17.9348   22.3702 O   0  0  0  0  0  0  0  0  0  0  0  0
    6.1516  -18.0518   24.2808 N   0  0  0  0  0  0  0  0  0  0  0  0
    6.4756  -16.6376   24.3116 C   0  0  1  0  0  0  0  0  0  0  0  0
    6.7533  -16.1821   25.7353 C   0  0  0  0  0  0  0  0  0  0  0  0
    6.6964  -14.3608   25.8399 S   0  0  0  0  0  0  0  0  0  0  0  0
    7.7163  -16.4315   23.5364 C   0  0  0  0  0  0  0  0  0  0  0  0
    8.4261  -17.4808   23.3267 O   0  0  0  0  0  0  0  0  0  0  0  0
    8.1416  -15.1728   23.0318 N   0  0  0  0  0  0  0  0  0  0  0  0
    7.5645  -13.8786   23.2160 C   0  0  0  0  0  0  0  0  0  0  0  0
    7.8016  -13.2057   21.8596 C   0  0  0  0  0  0  0  0  0  0  0  0
    8.7648  -14.0932   21.1095 C   0  0  0  0  0  0  0  0  0  0  0  0
    9.3057  -14.9872   22.2038 C   0  0  1  0  0  0  0  0  0  0  0  0
   10.3954  -14.2425   22.8900 C   0  0  0  0  0  0  0  0  0  0  0  0
   11.4981  -13.9491   22.3651 O   0  0  0  0  0  0  0  0  0  0  0  0
   10.2118  -13.8292   24.2024 O   0  0  0  0  0  0  0  0  0  0  0  0
  2  1  1  1
  2  3  1  0
  4  3  1  0
  5  4  1  0
  6  7  1  0
  6  5  1  0
  8 10  1  0
  8  2  1  0
  9  8  2  0
 11 10  1  0
 12 13  1  0
 11 12  1  1
 14 11  1  0
 14 15  2  0
 16 14  1  0
 17 18  1  0
 17 16  1  0
 18 19  1  0
 20 16  1  0
 20 19  1  0
 20 21  1  1
 22 21  2  0
 23 21  1  0
M  END
$$$$
