KCP.pdb
     RDKit          3D

 23 23  0  0  1  0  0  0  0  0999 V2000
    7.6984  -16.2249   21.3054 N   0  0  0  0  0  0  0  0  0  0  0  0
    8.7257  -15.1954   21.3130 C   0  0  1  0  0  0  0  0  0  0  0  0
    8.4322  -14.1554   20.2853 C   0  0  0  0  0  0  0  0  0  0  0  0
    8.2355  -14.5146   18.8872 C   0  0  0  0  0  0  0  0  0  0  0  0
    7.9076  -13.5305   17.8409 C   0  0  0  0  0  0  0  0  0  0  0  0
    7.5788  -13.9772   16.4725 C   0  0  0  0  0  0  0  0  0  0  0  0
    7.1038  -12.8164   15.6793 N   0  0  0  0  0  0  0  0  0  0  0  0
    8.6936  -14.4806   22.6495 C   0  0  0  0  0  0  0  0  0  0  0  0
    9.4688  -13.5197   22.8716 O   0  0  0  0  0  0  0  0  0  0  0  0
    7.8101  -14.8504   23.6902 N   0  0  0  0  0  0  0  0  0  0  0  0
    7.9353  -14.3549   25.0484 C   0  0  1  0  0  0  0  0  0  0  0  0
    6.6172  -14.4936   25.7933 C   0  0  0  0  0  0  0  0  0  0  0  0
    6.3550  -13.0579   26.8893 S   0  0  0  0  0  0  0  0  0  0  0  0
    8.9272  -15.1912   25.7551 C   0  0  0  0  0  0  0  0  0  0  0  0
    9.4122  -16.1724   25.0835 O   0  0  0  0  0  0  0  0  0  0  0  0
    9.3522  -14.9659   27.0925 N   0  0  0  0  0  0  0  0  0  0  0  0
    8.8185  -14.0793   28.0778 C   0  0  0  0  0  0  0  0  0  0  0  0
   10.0722  -13.6031   28.8197 C   0  0  0  0  0  0  0  0  0  0  0  0
   11.1982  -14.5003   28.3669 C   0  0  0  0  0  0  0  0  0  0  0  0
   10.4596  -15.6472   27.7125 C   0  0  1  0  0  0  0  0  0  0  0  0
   10.0384  -16.5801   28.7921 C   0  0  0  0  0  0  0  0  0  0  0  0
    8.8502  -16.7531   29.1608 O   0  0  0  0  0  0  0  0  0  0  0  0
   11.0017  -17.3258   29.4576 O   0  0  0  0  0  0  0  0  0  0  0  0
  2  1  1  1
  2  3  1  0
  4  3  1  0
  5  4  1  0
  6  7  1  0
  6  5  1  0
  8 10  1  0
  8  2  1  0
  9  8  2  0
 11 10  1  0
 12 13  1  0
 11 12  1  1
 14 11  1  0
 14 15  2  0
 16 14  1  0
 17 18  1  0
 17 16  1  0
 18 19  1  0
 20 16  1  0
 20 19  1  0
 20 21  1  1
 22 21  2  0
 23 21  1  0
M  END
$$$$
