KCP.pdb
     RDKit          3D

 23 23  0  0  1  0  0  0  0  0999 V2000
    7.0816  -14.3158   20.6936 N   0  0  0  0  0  0  0  0  0  0  0  0
    7.4539  -15.3310   21.6663 C   0  0  1  0  0  0  0  0  0  0  0  0
    8.5253  -16.2123   21.1192 C   0  0  0  0  0  0  0  0  0  0  0  0
    8.1992  -17.3728   20.3010 C   0  0  0  0  0  0  0  0  0  0  0  0
    8.5325  -17.4683   18.8690 C   0  0  0  0  0  0  0  0  0  0  0  0
    8.2545  -18.7093   18.1190 C   0  0  0  0  0  0  0  0  0  0  0  0
    8.7612  -18.5670   16.7315 N   0  0  0  0  0  0  0  0  0  0  0  0
    8.0545  -14.6501   22.8802 C   0  0  0  0  0  0  0  0  0  0  0  0
    9.1784  -14.0982   22.8044 O   0  0  0  0  0  0  0  0  0  0  0  0
    7.3958  -14.6024   24.1309 N   0  0  0  0  0  0  0  0  0  0  0  0
    8.0028  -14.0436   25.3247 C   0  0  1  0  0  0  0  0  0  0  0  0
    6.9494  -13.7809   26.3890 C   0  0  0  0  0  0  0  0  0  0  0  0
    5.5793  -12.7954   25.6942 S   0  0  0  0  0  0  0  0  0  0  0  0
    8.9417  -15.0425   25.8757 C   0  0  0  0  0  0  0  0  0  0  0  0
    9.2489  -16.0133   25.0933 O   0  0  0  0  0  0  0  0  0  0  0  0
    9.4987  -14.9782   27.1816 N   0  0  0  0  0  0  0  0  0  0  0  0
    9.1155  -14.1663   28.2934 C   0  0  0  0  0  0  0  0  0  0  0  0
   10.4594  -13.8404   28.9540 C   0  0  0  0  0  0  0  0  0  0  0  0
   11.4782  -14.7506   28.3124 C   0  0  0  0  0  0  0  0  0  0  0  0
   10.6093  -15.7812   27.6254 C   0  0  1  0  0  0  0  0  0  0  0  0
   10.2250  -16.7925   28.6465 C   0  0  0  0  0  0  0  0  0  0  0  0
    9.0862  -16.8803   29.1690 O   0  0  0  0  0  0  0  0  0  0  0  0
   11.1682  -17.7177   29.0726 O   0  0  0  0  0  0  0  0  0  0  0  0
  2  1  1  6
  2  3  1  0
  4  3  1  0
  5  4  1  0
  6  7  1  0
  6  5  1  0
  8 10  1  0
  8  2  1  0
  9  8  2  0
 11 10  1  0
 12 13  1  0
 11 12  1  1
 14 11  1  0
 14 15  2  0
 16 14  1  0
 17 18  1  0
 17 16  1  0
 18 19  1  0
 20 16  1  0
 20 19  1  0
 20 21  1  1
 22 21  2  0
 23 21  1  0
M  END
$$$$
