KCP.pdb
     RDKit          3D

 23 23  0  0  1  0  0  0  0  0999 V2000
    4.7599  -20.5382   23.3571 N   0  0  0  0  0  0  0  0  0  0  0  0
    6.1040  -19.9839   23.3968 C   0  0  1  0  0  0  0  0  0  0  0  0
    6.8577  -20.3496   22.1630 C   0  0  0  0  0  0  0  0  0  0  0  0
    6.3044  -21.2864   21.1942 C   0  0  0  0  0  0  0  0  0  0  0  0
    6.1137  -20.9552   19.7713 C   0  0  0  0  0  0  0  0  0  0  0  0
    5.5880  -21.9669   18.8331 C   0  0  0  0  0  0  0  0  0  0  0  0
    5.4985  -21.3757   17.4749 N   0  0  0  0  0  0  0  0  0  0  0  0
    6.0107  -18.4709   23.3945 C   0  0  0  0  0  0  0  0  0  0  0  0
    5.2103  -17.8878   22.6245 O   0  0  0  0  0  0  0  0  0  0  0  0
    6.8013  -17.6575   24.2393 N   0  0  0  0  0  0  0  0  0  0  0  0
    7.0515  -16.2522   23.9776 C   0  0  1  0  0  0  0  0  0  0  0  0
    7.6318  -15.5728   25.2077 C   0  0  0  0  0  0  0  0  0  0  0  0
    8.0707  -13.8425   24.8275 S   0  0  0  0  0  0  0  0  0  0  0  0
    8.0639  -16.1555   22.9059 C   0  0  0  0  0  0  0  0  0  0  0  0
    8.7811  -17.2038   22.7172 O   0  0  0  0  0  0  0  0  0  0  0  0
    8.2701  -14.9993   22.1056 N   0  0  0  0  0  0  0  0  0  0  0  0
    7.7511  -13.6779   22.2682 C   0  0  0  0  0  0  0  0  0  0  0  0
    7.5181  -13.2252   20.8227 C   0  0  0  0  0  0  0  0  0  0  0  0
    8.2083  -14.2405   19.9448 C   0  0  0  0  0  0  0  0  0  0  0  0
    9.0976  -14.9713   20.9268 C   0  0  1  0  0  0  0  0  0  0  0  0
   10.3315  -14.1588   21.1009 C   0  0  0  0  0  0  0  0  0  0  0  0
   10.5985  -13.4787   22.1226 O   0  0  0  0  0  0  0  0  0  0  0  0
   11.2732  -14.1295   20.0815 O   0  0  0  0  0  0  0  0  0  0  0  0
  2  1  1  6
  2  3  1  0
  4  3  1  0
  5  4  1  0
  6  7  1  0
  6  5  1  0
  8 10  1  0
  8  2  1  0
  9  8  2  0
 11 10  1  0
 12 13  1  0
 11 12  1  1
 14 11  1  0
 14 15  2  0
 16 14  1  0
 17 18  1  0
 17 16  1  0
 18 19  1  0
 20 16  1  0
 20 19  1  0
 20 21  1  1
 22 21  2  0
 23 21  1  0
M  END
$$$$
