KCP.pdb
     RDKit          3D

 23 23  0  0  1  0  0  0  0  0999 V2000
    8.2109  -16.9361   20.2026 N   0  0  0  0  0  0  0  0  0  0  0  0
    8.8597  -15.7293   20.6903 C   0  0  1  0  0  0  0  0  0  0  0  0
    8.4997  -14.5601   19.8374 C   0  0  0  0  0  0  0  0  0  0  0  0
    8.7116  -14.5875   18.3963 C   0  0  0  0  0  0  0  0  0  0  0  0
    8.3150  -13.4853   17.5026 C   0  0  0  0  0  0  0  0  0  0  0  0
    8.5894  -13.5632   16.0540 C   0  0  0  0  0  0  0  0  0  0  0  0
    8.0699  -12.3416   15.3906 N   0  0  0  0  0  0  0  0  0  0  0  0
    8.3298  -15.4132   22.0751 C   0  0  0  0  0  0  0  0  0  0  0  0
    7.7711  -14.3135   22.3026 O   0  0  0  0  0  0  0  0  0  0  0  0
    8.4349  -16.3191   23.1561 N   0  0  0  0  0  0  0  0  0  0  0  0
    7.9662  -16.0121   24.4948 C   0  0  1  0  0  0  0  0  0  0  0  0
    7.1255  -17.1538   25.0434 C   0  0  0  0  0  0  0  0  0  0  0  0
    5.7386  -17.5183   23.9143 S   0  0  0  0  0  0  0  0  0  0  0  0
    9.1443  -15.8737   25.3757 C   0  0  0  0  0  0  0  0  0  0  0  0
   10.2513  -16.3226   24.9046 O   0  0  0  0  0  0  0  0  0  0  0  0
    9.1078  -15.2879   26.6700 N   0  0  0  0  0  0  0  0  0  0  0  0
    7.9844  -14.8526   27.4385 C   0  0  0  0  0  0  0  0  0  0  0  0
    8.5234  -13.6075   28.1512 C   0  0  0  0  0  0  0  0  0  0  0  0
   10.0182  -13.6140   27.9420 C   0  0  0  0  0  0  0  0  0  0  0  0
   10.2764  -15.0285   27.4713 C   0  0  1  0  0  0  0  0  0  0  0  0
   10.3574  -15.8927   28.6794 C   0  0  0  0  0  0  0  0  0  0  0  0
    9.4663  -16.7023   29.0373 O   0  0  0  0  0  0  0  0  0  0  0  0
   11.4833  -15.8230   29.4884 O   0  0  0  0  0  0  0  0  0  0  0  0
  2  1  1  6
  2  3  1  0
  4  3  1  0
  5  4  1  0
  6  7  1  0
  6  5  1  0
  8 10  1  0
  8  2  1  0
  9  8  2  0
 11 10  1  0
 12 13  1  0
 11 12  1  1
 14 11  1  0
 14 15  2  0
 16 14  1  0
 17 18  1  0
 17 16  1  0
 18 19  1  0
 20 16  1  0
 20 19  1  0
 20 21  1  1
 22 21  2  0
 23 21  1  0
M  END
$$$$
