KCP.pdb
     RDKit          3D

 23 23  0  0  1  0  0  0  0  0999 V2000
    4.1021  -21.8780   23.6580 N   0  0  0  0  0  0  0  0  0  0  0  0
    5.5013  -21.5321   23.8525 C   0  0  1  0  0  0  0  0  0  0  0  0
    6.2874  -21.8165   22.6175 C   0  0  0  0  0  0  0  0  0  0  0  0
    5.7737  -21.4619   21.3012 C   0  0  0  0  0  0  0  0  0  0  0  0
    6.4837  -21.7735   20.0484 C   0  0  0  0  0  0  0  0  0  0  0  0
    5.9582  -21.2962   18.7538 C   0  0  0  0  0  0  0  0  0  0  0  0
    6.8918  -21.6919   17.6703 N   0  0  0  0  0  0  0  0  0  0  0  0
    5.6098  -20.0373   24.0800 C   0  0  0  0  0  0  0  0  0  0  0  0
    4.8214  -19.2508   23.5027 O   0  0  0  0  0  0  0  0  0  0  0  0
    6.5813  -19.4652   24.9339 N   0  0  0  0  0  0  0  0  0  0  0  0
    6.7337  -18.0331   25.1123 C   0  0  1  0  0  0  0  0  0  0  0  0
    7.1951  -17.7150   26.5256 C   0  0  0  0  0  0  0  0  0  0  0  0
    8.6233  -18.7587   26.9754 S   0  0  0  0  0  0  0  0  0  0  0  0
    7.7892  -17.5631   24.1914 C   0  0  0  0  0  0  0  0  0  0  0  0
    8.3906  -18.4755   23.5170 O   0  0  0  0  0  0  0  0  0  0  0  0
    8.1531  -16.1994   24.0250 N   0  0  0  0  0  0  0  0  0  0  0  0
    7.7157  -15.0479   24.7492 C   0  0  0  0  0  0  0  0  0  0  0  0
    7.6561  -13.9675   23.6638 C   0  0  0  0  0  0  0  0  0  0  0  0
    8.3543  -14.5426   22.4556 C   0  0  0  0  0  0  0  0  0  0  0  0
    9.0905  -15.7295   23.0374 C   0  0  1  0  0  0  0  0  0  0  0  0
   10.3563  -15.2215   23.6314 C   0  0  0  0  0  0  0  0  0  0  0  0
   10.5531  -15.0644   24.8620 O   0  0  0  0  0  0  0  0  0  0  0  0
   11.4125  -14.8893   22.7942 O   0  0  0  0  0  0  0  0  0  0  0  0
  2  1  1  6
  2  3  1  0
  4  3  1  0
  5  4  1  0
  6  7  1  0
  6  5  1  0
  8 10  1  0
  8  2  1  0
  9  8  2  0
 11 10  1  0
 12 13  1  0
 11 12  1  1
 14 11  1  0
 14 15  2  0
 16 14  1  0
 17 18  1  0
 17 16  1  0
 18 19  1  0
 20 16  1  0
 20 19  1  0
 20 21  1  1
 22 21  2  0
 23 21  1  0
M  END
$$$$
