KCP.pdb
     RDKit          3D

 23 23  0  0  1  0  0  0  0  0999 V2000
    4.2214  -19.4726   23.0922 N   0  0  0  0  0  0  0  0  0  0  0  0
    5.6395  -19.2248   23.2988 C   0  0  1  0  0  0  0  0  0  0  0  0
    6.4549  -20.0079   22.3262 C   0  0  0  0  0  0  0  0  0  0  0  0
    6.5289  -19.6207   20.9238 C   0  0  0  0  0  0  0  0  0  0  0  0
    7.4199  -20.2785   19.9522 C   0  0  0  0  0  0  0  0  0  0  0  0
    7.4975  -19.7906   18.5608 C   0  0  0  0  0  0  0  0  0  0  0  0
    8.5435  -20.5508   17.8327 N   0  0  0  0  0  0  0  0  0  0  0  0
    5.9301  -17.7661   23.0061 C   0  0  0  0  0  0  0  0  0  0  0  0
    5.3475  -17.1824   22.0609 O   0  0  0  0  0  0  0  0  0  0  0  0
    6.8503  -17.0055   23.7644 N   0  0  0  0  0  0  0  0  0  0  0  0
    7.1710  -15.6223   23.4646 C   0  0  1  0  0  0  0  0  0  0  0  0
    7.9073  -14.9783   24.6284 C   0  0  0  0  0  0  0  0  0  0  0  0
    6.7705  -14.7223   26.0332 S   0  0  0  0  0  0  0  0  0  0  0  0
    8.0846  -15.6017   22.3037 C   0  0  0  0  0  0  0  0  0  0  0  0
    8.5538  -16.7404   21.9403 O   0  0  0  0  0  0  0  0  0  0  0  0
    8.4518  -14.4235   21.5986 N   0  0  0  0  0  0  0  0  0  0  0  0
    8.2278  -13.0541   21.9397 C   0  0  0  0  0  0  0  0  0  0  0  0
    7.9683  -12.4035   20.5765 C   0  0  0  0  0  0  0  0  0  0  0  0
    8.3599  -13.4264   19.5381 C   0  0  0  0  0  0  0  0  0  0  0  0
    9.1633  -14.4218   20.3461 C   0  0  1  0  0  0  0  0  0  0  0  0
   10.5468  -13.8878   20.4633 C   0  0  0  0  0  0  0  0  0  0  0  0
   11.3532  -13.7820   19.5061 O   0  0  0  0  0  0  0  0  0  0  0  0
   11.0089  -13.4689   21.7034 O   0  0  0  0  0  0  0  0  0  0  0  0
  2  1  1  6
  2  3  1  0
  4  3  1  0
  5  4  1  0
  6  7  1  0
  6  5  1  0
  8 10  1  0
  8  2  1  0
  9  8  2  0
 11 10  1  0
 12 13  1  0
 11 12  1  1
 14 11  1  0
 14 15  2  0
 16 14  1  0
 17 18  1  0
 17 16  1  0
 18 19  1  0
 20 16  1  0
 20 19  1  0
 20 21  1  1
 22 21  2  0
 23 21  1  0
M  END
$$$$
