KCP.pdb
     RDKit          3D

 23 23  0  0  1  0  0  0  0  0999 V2000
    6.6456  -18.9103   27.5162 N   0  0  0  0  0  0  0  0  0  0  0  0
    7.7364  -18.0364   27.1139 C   0  0  1  0  0  0  0  0  0  0  0  0
    8.7718  -18.8033   26.3631 C   0  0  0  0  0  0  0  0  0  0  0  0
    9.5335  -19.8659   27.0058 C   0  0  0  0  0  0  0  0  0  0  0  0
   10.6856  -20.5290   26.3705 C   0  0  0  0  0  0  0  0  0  0  0  0
   11.4357  -21.5761   27.0923 C   0  0  0  0  0  0  0  0  0  0  0  0
   12.6110  -21.9829   26.2826 N   0  0  0  0  0  0  0  0  0  0  0  0
    7.2024  -16.9997   26.1454 C   0  0  0  0  0  0  0  0  0  0  0  0
    6.2544  -17.2834   25.3744 O   0  0  0  0  0  0  0  0  0  0  0  0
    7.7316  -15.6908   26.0622 N   0  0  0  0  0  0  0  0  0  0  0  0
    7.4343  -14.7846   24.9684 C   0  0  1  0  0  0  0  0  0  0  0  0
    7.9860  -13.3975   25.2563 C   0  0  0  0  0  0  0  0  0  0  0  0
    7.4882  -12.8520   26.9255 S   0  0  0  0  0  0  0  0  0  0  0  0
    8.1168  -15.2840   23.7569 C   0  0  0  0  0  0  0  0  0  0  0  0
    8.7143  -16.4143   23.8768 O   0  0  0  0  0  0  0  0  0  0  0  0
    8.1393  -14.5961   22.5135 N   0  0  0  0  0  0  0  0  0  0  0  0
    7.7953  -13.2409   22.2190 C   0  0  0  0  0  0  0  0  0  0  0  0
    7.1466  -13.3491   20.8347 C   0  0  0  0  0  0  0  0  0  0  0  0
    7.4463  -14.7413   20.3346 C   0  0  0  0  0  0  0  0  0  0  0  0
    8.5475  -15.1941   21.2681 C   0  0  1  0  0  0  0  0  0  0  0  0
    9.8275  -14.6415   20.7490 C   0  0  0  0  0  0  0  0  0  0  0  0
   10.4065  -13.6283   21.2134 O   0  0  0  0  0  0  0  0  0  0  0  0
   10.4504  -15.2664   19.6774 O   0  0  0  0  0  0  0  0  0  0  0  0
  2  1  1  6
  2  3  1  0
  4  3  1  0
  5  4  1  0
  6  7  1  0
  6  5  1  0
  8 10  1  0
  8  2  1  0
  9  8  2  0
 11 10  1  0
 12 13  1  0
 11 12  1  1
 14 11  1  0
 14 15  2  0
 16 14  1  0
 17 18  1  0
 17 16  1  0
 18 19  1  0
 20 16  1  0
 20 19  1  0
 20 21  1  6
 22 21  2  0
 23 21  1  0
M  END
$$$$
