KCP.pdb
     RDKit          3D

 23 23  0  0  1  0  0  0  0  0999 V2000
    7.5993  -15.8618   21.0582 N   0  0  0  0  0  0  0  0  0  0  0  0
    8.3410  -14.6111   21.0870 C   0  0  1  0  0  0  0  0  0  0  0  0
    7.6345  -13.5651   20.2927 C   0  0  0  0  0  0  0  0  0  0  0  0
    7.9180  -13.3776   18.8761 C   0  0  0  0  0  0  0  0  0  0  0  0
    8.2095  -14.4926   17.9583 C   0  0  0  0  0  0  0  0  0  0  0  0
    8.4528  -14.2356   16.5248 C   0  0  0  0  0  0  0  0  0  0  0  0
    8.7247  -15.5215   15.8359 N   0  0  0  0  0  0  0  0  0  0  0  0
    8.3792  -14.0965   22.5124 C   0  0  0  0  0  0  0  0  0  0  0  0
    9.0798  -13.0981   22.8058 O   0  0  0  0  0  0  0  0  0  0  0  0
    7.6454  -14.6998   23.5601 N   0  0  0  0  0  0  0  0  0  0  0  0
    7.7267  -14.2580   24.9401 C   0  0  1  0  0  0  0  0  0  0  0  0
    6.3890  -14.4375   25.6400 C   0  0  0  0  0  0  0  0  0  0  0  0
    6.5492  -14.0595   27.4185 S   0  0  0  0  0  0  0  0  0  0  0  0
    8.7057  -15.1137   25.6416 C   0  0  0  0  0  0  0  0  0  0  0  0
    9.1409  -16.1247   24.9801 O   0  0  0  0  0  0  0  0  0  0  0  0
    9.1696  -14.8760   26.9638 N   0  0  0  0  0  0  0  0  0  0  0  0
    8.6667  -13.9778   27.9549 C   0  0  0  0  0  0  0  0  0  0  0  0
    9.9424  -13.4976   28.6555 C   0  0  0  0  0  0  0  0  0  0  0  0
   11.0526  -14.4026   28.1799 C   0  0  0  0  0  0  0  0  0  0  0  0
   10.2926  -15.5541   27.5588 C   0  0  1  0  0  0  0  0  0  0  0  0
    9.9002  -16.4747   28.6595 C   0  0  0  0  0  0  0  0  0  0  0  0
    8.7164  -16.6918   29.0188 O   0  0  0  0  0  0  0  0  0  0  0  0
   10.8877  -17.1562   29.3576 O   0  0  0  0  0  0  0  0  0  0  0  0
  2  1  1  1
  2  3  1  0
  4  3  1  0
  5  4  1  0
  6  7  1  0
  6  5  1  0
  8 10  1  0
  8  2  1  0
  9  8  2  0
 11 10  1  0
 12 13  1  0
 11 12  1  1
 14 11  1  0
 14 15  2  0
 16 14  1  0
 17 18  1  0
 17 16  1  0
 18 19  1  0
 20 16  1  0
 20 19  1  0
 20 21  1  1
 22 21  2  0
 23 21  1  0
M  END
$$$$
