KCP.pdb
     RDKit          3D

 23 23  0  0  1  0  0  0  0  0999 V2000
    7.3498  -16.0829   19.4931 N   0  0  0  0  0  0  0  0  0  0  0  0
    8.0710  -15.0619   20.2365 C   0  0  1  0  0  0  0  0  0  0  0  0
    7.8997  -13.7272   19.5939 C   0  0  0  0  0  0  0  0  0  0  0  0
    8.4225  -13.4624   18.2602 C   0  0  0  0  0  0  0  0  0  0  0  0
    7.9250  -14.1404   17.0504 C   0  0  0  0  0  0  0  0  0  0  0  0
    8.4735  -13.7972   15.7232 C   0  0  0  0  0  0  0  0  0  0  0  0
    9.5611  -14.7475   15.3821 N   0  0  0  0  0  0  0  0  0  0  0  0
    7.4615  -14.9397   21.6191 C   0  0  0  0  0  0  0  0  0  0  0  0
    6.3929  -14.3040   21.7852 O   0  0  0  0  0  0  0  0  0  0  0  0
    8.0507  -15.5214   22.7657 N   0  0  0  0  0  0  0  0  0  0  0  0
    7.4669  -15.4257   24.0909 C   0  0  1  0  0  0  0  0  0  0  0  0
    6.8580  -16.7556   24.5057 C   0  0  0  0  0  0  0  0  0  0  0  0
    8.1699  -17.9311   24.9838 S   0  0  0  0  0  0  0  0  0  0  0  0
    8.5482  -15.1214   25.0506 C   0  0  0  0  0  0  0  0  0  0  0  0
    9.7364  -15.4247   24.6698 O   0  0  0  0  0  0  0  0  0  0  0  0
    8.3394  -14.5301   26.3260 N   0  0  0  0  0  0  0  0  0  0  0  0
    7.1156  -14.2598   27.0123 C   0  0  0  0  0  0  0  0  0  0  0  0
    7.4133  -12.9376   27.7279 C   0  0  0  0  0  0  0  0  0  0  0  0
    8.9024  -12.7201   27.6127 C   0  0  0  0  0  0  0  0  0  0  0  0
    9.4008  -14.0854   27.1924 C   0  0  1  0  0  0  0  0  0  0  0  0
    9.5318  -14.9107   28.4232 C   0  0  0  0  0  0  0  0  0  0  0  0
   10.3788  -14.7100   29.3288 O   0  0  0  0  0  0  0  0  0  0  0  0
    8.6731  -15.9845   28.6138 O   0  0  0  0  0  0  0  0  0  0  0  0
  2  1  1  6
  2  3  1  0
  4  3  1  0
  5  4  1  0
  6  7  1  0
  6  5  1  0
  8 10  1  0
  8  2  1  0
  9  8  2  0
 11 10  1  0
 12 13  1  0
 11 12  1  1
 14 11  1  0
 14 15  2  0
 16 14  1  0
 17 18  1  0
 17 16  1  0
 18 19  1  0
 20 16  1  0
 20 19  1  0
 20 21  1  1
 22 21  2  0
 23 21  1  0
M  END
$$$$
