KCP.pdb
     RDKit          3D

 23 23  0  0  1  0  0  0  0  0999 V2000
    9.5489  -17.1607   19.9043 N   0  0  0  0  0  0  0  0  0  0  0  0
    9.7504  -17.8166   21.1867 C   0  0  1  0  0  0  0  0  0  0  0  0
   11.1779  -18.2149   21.3524 C   0  0  0  0  0  0  0  0  0  0  0  0
   12.2196  -17.6482   20.5060 C   0  0  0  0  0  0  0  0  0  0  0  0
   13.6087  -18.1390   20.5002 C   0  0  0  0  0  0  0  0  0  0  0  0
   14.6228  -17.4996   19.6384 C   0  0  0  0  0  0  0  0  0  0  0  0
   15.9309  -18.1706   19.8407 N   0  0  0  0  0  0  0  0  0  0  0  0
    9.4639  -16.8235   22.2956 C   0  0  0  0  0  0  0  0  0  0  0  0
    9.7263  -15.6069   22.1385 O   0  0  0  0  0  0  0  0  0  0  0  0
    8.8996  -17.2068   23.5346 N   0  0  0  0  0  0  0  0  0  0  0  0
    8.4950  -16.2517   24.5495 C   0  0  1  0  0  0  0  0  0  0  0  0
    7.1720  -16.6629   25.1756 C   0  0  0  0  0  0  0  0  0  0  0  0
    7.4058  -18.1186   26.2515 S   0  0  0  0  0  0  0  0  0  0  0  0
    9.5093  -16.2625   25.6237 C   0  0  0  0  0  0  0  0  0  0  0  0
   10.5085  -17.0485   25.4423 O   0  0  0  0  0  0  0  0  0  0  0  0
    9.4314  -15.4718   26.8021 N   0  0  0  0  0  0  0  0  0  0  0  0
    8.3394  -14.7017   27.3084 C   0  0  0  0  0  0  0  0  0  0  0  0
    9.0394  -13.4848   27.9233 C   0  0  0  0  0  0  0  0  0  0  0  0
   10.5105  -13.8196   27.9660 C   0  0  0  0  0  0  0  0  0  0  0  0
   10.5121  -15.3159   27.7418 C   0  0  1  0  0  0  0  0  0  0  0  0
   10.2409  -15.9636   29.0534 C   0  0  0  0  0  0  0  0  0  0  0  0
   11.0262  -15.9441   30.0335 O   0  0  0  0  0  0  0  0  0  0  0  0
    9.0457  -16.6447   29.2387 O   0  0  0  0  0  0  0  0  0  0  0  0
  2  1  1  6
  2  3  1  0
  4  3  1  0
  5  4  1  0
  6  7  1  0
  6  5  1  0
  8 10  1  0
  8  2  1  0
  9  8  2  0
 11 10  1  0
 12 13  1  0
 11 12  1  1
 14 11  1  0
 14 15  2  0
 16 14  1  0
 17 18  1  0
 17 16  1  0
 18 19  1  0
 20 16  1  0
 20 19  1  0
 20 21  1  1
 22 21  2  0
 23 21  1  0
M  END
$$$$
