CFL.pdb
     RDKit          3D

 26 26  0  0  1  0  0  0  0  0999 V2000
   27.4457  -21.7695  -13.9517 N   0  0  0  0  0  0  0  0  0  0  0  0
   27.6139  -20.6590  -13.0479 C   0  0  1  0  0  0  0  0  0  0  0  0
   26.7700  -19.5054  -13.4953 C   0  0  0  0  0  0  0  0  0  0  0  0
   25.0600  -19.9576  -13.7985 S   0  0  0  0  0  0  0  0  0  0  0  0
   27.1739  -21.0165  -11.6593 C   0  0  0  0  0  0  0  0  0  0  0  0
   26.4304  -21.9863  -11.4519 O   0  0  0  0  0  0  0  0  0  0  0  0
   27.6208  -20.2295  -10.5901 N   0  0  0  0  0  0  0  0  0  0  0  0
   27.2984  -20.4828   -9.2006 C   0  0  1  0  0  0  0  0  0  0  0  0
   28.2548  -19.6842   -8.3421 C   0  0  0  0  0  0  0  0  0  0  0  0
   28.0582  -19.8681   -6.8959 C   0  0  0  0  0  0  0  0  0  0  0  0
   27.3991  -18.9083   -6.1642 C   0  0  0  0  0  0  0  0  0  0  0  0
   27.1952  -19.0591   -4.7895 C   0  0  0  0  0  0  0  0  0  0  0  0
   27.6538  -20.1769   -4.1442 C   0  0  0  0  0  0  0  0  0  0  0  0
   28.3145  -21.1462   -4.8595 C   0  0  0  0  0  0  0  0  0  0  0  0
   28.5130  -20.9844   -6.2366 C   0  0  0  0  0  0  0  0  0  0  0  0
   25.8805  -20.1250   -8.9928 C   0  0  0  0  0  0  0  0  0  0  0  0
   25.4908  -18.9644   -9.2485 O   0  0  0  0  0  0  0  0  0  0  0  0
   21.0810  -19.8585  -10.4076 C   0  0  0  0  0  0  0  0  0  0  0  0
   21.6456  -21.2762  -10.3393 C   0  0  2  0  0  0  0  0  0  0  0  0
   20.7088  -22.2325   -9.7179 C   0  0  0  0  0  0  0  0  0  0  0  0
   23.0786  -21.3497  -10.0145 C   0  0  0  0  0  0  0  0  0  0  0  0
   23.5100  -20.7748   -8.7003 C   0  0  2  0  0  0  0  0  0  0  0  0
   24.9451  -21.0630   -8.5101 N   0  0  0  0  0  0  0  0  0  0  0  0
   22.8300  -21.4082   -7.5741 C   0  0  0  0  0  0  0  0  0  0  0  0
   23.3117  -22.4219   -7.0272 O   0  0  0  0  0  0  0  0  0  0  0  0
   21.6302  -20.9354   -7.0493 O   0  0  0  0  0  0  0  0  0  0  0  0
  2  5  1  0
  2  1  1  6
  3  2  1  0
  4  3  1  0
  5  6  2  0
  7  8  1  0
  7  5  1  0
  9 10  1  0
  8  9  1  1
 10 11  2  0
 11 12  1  0
 13 12  2  0
 14 13  1  0
 15 14  2  0
 15 10  1  0
 16  8  1  0
 17 16  2  0
 19 18  1  1
 19 21  1  0
 20 19  1  0
 22 21  1  6
 22 24  1  0
 22 23  1  0
 23 16  1  0
 24 26  1  0
 25 24  2  0
M  END
$$$$
