CFL.pdb
     RDKit          3D

 26 26  0  0  1  0  0  0  0  0999 V2000
   27.2426  -22.8207  -17.0049 N   0  0  0  0  0  0  0  0  0  0  0  0
   27.2390  -21.6261  -16.1979 C   0  0  1  0  0  0  0  0  0  0  0  0
   26.5729  -20.5102  -16.9424 C   0  0  0  0  0  0  0  0  0  0  0  0
   27.5952  -19.8235  -18.2476 S   0  0  0  0  0  0  0  0  0  0  0  0
   26.4698  -21.8309  -14.9267 C   0  0  0  0  0  0  0  0  0  0  0  0
   25.4951  -22.5954  -14.8831 O   0  0  0  0  0  0  0  0  0  0  0  0
   26.8742  -21.1379  -13.7784 N   0  0  0  0  0  0  0  0  0  0  0  0
   26.1730  -21.1799  -12.5115 C   0  0  1  0  0  0  0  0  0  0  0  0
   27.1015  -20.6483  -11.4415 C   0  0  0  0  0  0  0  0  0  0  0  0
   26.4581  -20.4523  -10.1332 C   0  0  0  0  0  0  0  0  0  0  0  0
   26.2126  -19.1805   -9.6714 C   0  0  0  0  0  0  0  0  0  0  0  0
   25.5994  -18.9654   -8.4338 C   0  0  0  0  0  0  0  0  0  0  0  0
   25.2302  -20.0296   -7.6544 C   0  0  0  0  0  0  0  0  0  0  0  0
   25.4677  -21.3074   -8.0999 C   0  0  0  0  0  0  0  0  0  0  0  0
   26.0828  -21.5109   -9.3418 C   0  0  0  0  0  0  0  0  0  0  0  0
   24.9300  -20.3953  -12.6563 C   0  0  0  0  0  0  0  0  0  0  0  0
   24.9558  -19.3000  -13.2596 O   0  0  0  0  0  0  0  0  0  0  0  0
   20.7656  -20.6278  -16.0802 C   0  0  0  0  0  0  0  0  0  0  0  0
   21.0005  -20.1048  -14.6644 C   0  0  2  0  0  0  0  0  0  0  0  0
   20.6224  -18.6864  -14.5115 C   0  0  0  0  0  0  0  0  0  0  0  0
   22.2287  -20.6010  -14.0241 C   0  0  0  0  0  0  0  0  0  0  0  0
   22.4628  -20.2036  -12.5990 C   0  0  2  0  0  0  0  0  0  0  0  0
   23.7039  -20.8498  -12.1291 N   0  0  0  0  0  0  0  0  0  0  0  0
   21.4083  -20.6887  -11.7133 C   0  0  0  0  0  0  0  0  0  0  0  0
   21.2698  -21.9106  -11.4969 O   0  0  0  0  0  0  0  0  0  0  0  0
   20.5106  -19.8423  -11.0681 O   0  0  0  0  0  0  0  0  0  0  0  0
  2  5  1  0
  2  1  1  6
  3  2  1  0
  4  3  1  0
  5  6  2  0
  7  8  1  0
  7  5  1  0
  9 10  1  0
  8  9  1  1
 10 11  2  0
 11 12  1  0
 13 12  2  0
 14 13  1  0
 15 14  2  0
 15 10  1  0
 16  8  1  0
 17 16  2  0
 19 18  1  6
 19 21  1  0
 20 19  1  0
 22 21  1  6
 22 24  1  0
 22 23  1  0
 23 16  1  0
 24 26  1  0
 25 24  2  0
M  END
$$$$
