CFL.pdb
     RDKit          3D

 26 26  0  0  1  0  0  0  0  0999 V2000
   17.2447  -12.2775  -16.3449 N   0  0  0  0  0  0  0  0  0  0  0  0
   17.5513  -11.0374  -17.0129 C   0  0  1  0  0  0  0  0  0  0  0  0
   16.3486  -10.5507  -17.7613 C   0  0  0  0  0  0  0  0  0  0  0  0
   15.9718  -11.5393  -19.2108 S   0  0  0  0  0  0  0  0  0  0  0  0
   17.9232   -9.9675  -16.0297 C   0  0  0  0  0  0  0  0  0  0  0  0
   17.2832   -9.8109  -14.9797 O   0  0  0  0  0  0  0  0  0  0  0  0
   19.0157   -9.1401  -16.3193 N   0  0  0  0  0  0  0  0  0  0  0  0
   19.3991   -7.9889  -15.5279 C   0  0  1  0  0  0  0  0  0  0  0  0
   20.9104   -7.9363  -15.4745 C   0  0  0  0  0  0  0  0  0  0  0  0
   21.4465   -6.6983  -14.8879 C   0  0  0  0  0  0  0  0  0  0  0  0
   21.3433   -6.4781  -13.5344 C   0  0  0  0  0  0  0  0  0  0  0  0
   21.8473   -5.3124  -12.9502 C   0  0  0  0  0  0  0  0  0  0  0  0
   22.4578   -4.3623  -13.7254 C   0  0  0  0  0  0  0  0  0  0  0  0
   22.5699   -4.5658  -15.0795 C   0  0  0  0  0  0  0  0  0  0  0  0
   22.0612   -5.7377  -15.6540 C   0  0  0  0  0  0  0  0  0  0  0  0
   18.7891   -6.7930  -16.1440 C   0  0  0  0  0  0  0  0  0  0  0  0
   18.8314   -6.6461  -17.3853 O   0  0  0  0  0  0  0  0  0  0  0  0
   15.7943   -2.9644  -17.9111 C   0  0  0  0  0  0  0  0  0  0  0  0
   15.6305   -3.1923  -16.4096 C   0  0  2  0  0  0  0  0  0  0  0  0
   15.7625   -1.9477  -15.6274 C   0  0  0  0  0  0  0  0  0  0  0  0
   16.2427   -4.4324  -15.9079 C   0  0  0  0  0  0  0  0  0  0  0  0
   17.7298   -4.5585  -16.0355 C   0  0  2  0  0  0  0  0  0  0  0  0
   18.1548   -5.8033  -15.3657 N   0  0  0  0  0  0  0  0  0  0  0  0
   18.4335   -3.4815  -15.3451 C   0  0  0  0  0  0  0  0  0  0  0  0
   18.8266   -2.4742  -15.9694 O   0  0  0  0  0  0  0  0  0  0  0  0
   18.7054   -3.5060  -13.9798 O   0  0  0  0  0  0  0  0  0  0  0  0
  2  5  1  0
  2  1  1  1
  3  2  1  0
  4  3  1  0
  5  6  2  0
  7  8  1  0
  7  5  1  0
  9 10  1  0
  8  9  1  6
 10 11  2  0
 11 12  1  0
 13 12  2  0
 14 13  1  0
 15 14  2  0
 15 10  1  0
 16  8  1  0
 17 16  2  0
 19 18  1  6
 19 21  1  0
 20 19  1  0
 22 21  1  1
 22 24  1  0
 22 23  1  0
 23 16  1  0
 24 26  1  0
 25 24  2  0
M  END
$$$$
