CFL.pdb
     RDKit          3D

 26 26  0  0  1  0  0  0  0  0999 V2000
   31.6495  -31.7861  -19.4314 N   0  0  0  0  0  0  0  0  0  0  0  0
   30.4049  -31.3267  -19.9955 C   0  0  1  0  0  0  0  0  0  0  0  0
   29.6198  -32.4918  -20.5145 C   0  0  0  0  0  0  0  0  0  0  0  0
   29.9958  -32.8912  -22.2232 S   0  0  0  0  0  0  0  0  0  0  0  0
   29.5570  -30.6473  -18.9615 C   0  0  0  0  0  0  0  0  0  0  0  0
   29.5871  -31.0015  -17.7741 O   0  0  0  0  0  0  0  0  0  0  0  0
   28.7225  -29.5962  -19.3628 N   0  0  0  0  0  0  0  0  0  0  0  0
   27.9285  -28.7936  -18.4551 C   0  0  1  0  0  0  0  0  0  0  0  0
   28.3179  -27.3438  -18.6447 C   0  0  0  0  0  0  0  0  0  0  0  0
   27.4721  -26.3944  -17.9050 C   0  0  0  0  0  0  0  0  0  0  0  0
   26.4892  -25.6926  -18.5625 C   0  0  0  0  0  0  0  0  0  0  0  0
   25.6688  -24.7870  -17.8836 C   0  0  0  0  0  0  0  0  0  0  0  0
   25.8336  -24.5831  -16.5392 C   0  0  0  0  0  0  0  0  0  0  0  0
   26.8107  -25.2758  -15.8660 C   0  0  0  0  0  0  0  0  0  0  0  0
   27.6268  -26.1808  -16.5566 C   0  0  0  0  0  0  0  0  0  0  0  0
   26.5045  -29.0635  -18.7404 C   0  0  0  0  0  0  0  0  0  0  0  0
   26.0897  -29.0179  -19.9194 O   0  0  0  0  0  0  0  0  0  0  0  0
   23.6802  -32.4551  -18.1032 C   0  0  0  0  0  0  0  0  0  0  0  0
   23.7494  -31.6512  -16.8062 C   0  0  2  0  0  0  0  0  0  0  0  0
   23.1998  -32.3867  -15.6507 C   0  0  0  0  0  0  0  0  0  0  0  0
   23.4581  -30.2171  -16.9582 C   0  0  0  0  0  0  0  0  0  0  0  0
   24.1625  -29.4920  -18.0636 C   0  0  2  0  0  0  0  0  0  0  0  0
   25.5912  -29.3740  -17.7122 N   0  0  0  0  0  0  0  0  0  0  0  0
   23.6813  -28.1218  -18.2155 C   0  0  0  0  0  0  0  0  0  0  0  0
   24.2841  -27.1712  -17.6754 O   0  0  0  0  0  0  0  0  0  0  0  0
   22.5476  -27.7935  -18.9540 O   0  0  0  0  0  0  0  0  0  0  0  0
  2  5  1  0
  2  1  1  1
  3  2  1  0
  4  3  1  0
  5  6  2  0
  7  8  1  0
  7  5  1  0
  9 10  1  0
  8  9  1  6
 10 11  2  0
 11 12  1  0
 13 12  2  0
 14 13  1  0
 15 14  2  0
 15 10  1  0
 16  8  1  0
 17 16  2  0
 19 18  1  6
 19 21  1  0
 20 19  1  0
 22 21  1  1
 22 24  1  0
 22 23  1  0
 23 16  1  0
 24 26  1  0
 25 24  2  0
M  END
$$$$
