CFL.pdb
     RDKit          3D

 26 26  0  0  1  0  0  0  0  0999 V2000
   22.3214  -35.8228   -9.6080 N   0  0  0  0  0  0  0  0  0  0  0  0
   22.2672  -36.1182   -8.1980 C   0  0  1  0  0  0  0  0  0  0  0  0
   21.8057  -37.5278   -7.9899 C   0  0  0  0  0  0  0  0  0  0  0  0
   20.1434  -37.6348   -7.3223 S   0  0  0  0  0  0  0  0  0  0  0  0
   23.6215  -35.9982   -7.5647 C   0  0  0  0  0  0  0  0  0  0  0  0
   24.6374  -36.4157   -8.1393 O   0  0  0  0  0  0  0  0  0  0  0  0
   23.7213  -35.4010   -6.3015 N   0  0  0  0  0  0  0  0  0  0  0  0
   24.9725  -35.1413   -5.6190 C   0  0  1  0  0  0  0  0  0  0  0  0
   25.2057  -33.6463   -5.6160 C   0  0  0  0  0  0  0  0  0  0  0  0
   25.5025  -33.0834   -6.9423 C   0  0  0  0  0  0  0  0  0  0  0  0
   24.6047  -32.2341   -7.5453 C   0  0  0  0  0  0  0  0  0  0  0  0
   24.8629  -31.6821   -8.8033 C   0  0  0  0  0  0  0  0  0  0  0  0
   26.0264  -31.9822   -9.4611 C   0  0  0  0  0  0  0  0  0  0  0  0
   26.9349  -32.8290   -8.8736 C   0  0  0  0  0  0  0  0  0  0  0  0
   26.6656  -33.3762   -7.6126 C   0  0  0  0  0  0  0  0  0  0  0  0
   24.8793  -35.7260   -4.2658 C   0  0  0  0  0  0  0  0  0  0  0  0
   23.8399  -35.5609   -3.5900 O   0  0  0  0  0  0  0  0  0  0  0  0
   24.4757  -39.6748   -2.9398 C   0  0  0  0  0  0  0  0  0  0  0  0
   25.9905  -39.5045   -3.0376 C   0  0  2  0  0  0  0  0  0  0  0  0
   26.7120  -40.7912   -2.9910 C   0  0  0  0  0  0  0  0  0  0  0  0
   26.5252  -38.3463   -2.3048 C   0  0  0  0  0  0  0  0  0  0  0  0
   25.7394  -37.0730   -2.3756 C   0  0  2  0  0  0  0  0  0  0  0  0
   25.9382  -36.4718   -3.7089 N   0  0  0  0  0  0  0  0  0  0  0  0
   26.2191  -36.0778   -1.4210 C   0  0  0  0  0  0  0  0  0  0  0  0
   26.1716  -36.2980   -0.1929 O   0  0  0  0  0  0  0  0  0  0  0  0
   26.7478  -34.8492   -1.8074 O   0  0  0  0  0  0  0  0  0  0  0  0
  2  5  1  0
  2  1  1  6
  3  2  1  0
  4  3  1  0
  5  6  2  0
  7  8  1  0
  7  5  1  0
  9 10  1  0
  8  9  1  1
 10 11  2  0
 11 12  1  0
 13 12  2  0
 14 13  1  0
 15 14  2  0
 15 10  1  0
 16  8  1  0
 17 16  2  0
 19 18  1  1
 19 21  1  0
 20 19  1  0
 22 21  1  6
 22 24  1  0
 22 23  1  0
 23 16  1  0
 24 26  1  0
 25 24  2  0
M  END
$$$$
