CFL.pdb
     RDKit          3D

 26 26  0  0  1  0  0  0  0  0999 V2000
   28.4418  -21.8227  -14.3221 N   0  0  0  0  0  0  0  0  0  0  0  0
   28.7148  -20.8014  -13.3420 C   0  0  1  0  0  0  0  0  0  0  0  0
   28.1830  -19.4842  -13.8167 C   0  0  0  0  0  0  0  0  0  0  0  0
   28.1839  -19.3257  -15.6043 S   0  0  0  0  0  0  0  0  0  0  0  0
   28.0412  -21.1060  -12.0369 C   0  0  0  0  0  0  0  0  0  0  0  0
   27.1109  -21.9225  -11.9708 O   0  0  0  0  0  0  0  0  0  0  0  0
   28.4840  -20.4468  -10.8830 N   0  0  0  0  0  0  0  0  0  0  0  0
   27.9399  -20.6670   -9.5586 C   0  0  1  0  0  0  0  0  0  0  0  0
   28.9303  -20.1319   -8.5476 C   0  0  0  0  0  0  0  0  0  0  0  0
   28.4326  -20.1317   -7.1633 C   0  0  0  0  0  0  0  0  0  0  0  0
   28.7880  -21.1456   -6.3049 C   0  0  0  0  0  0  0  0  0  0  0  0
   28.3325  -21.1683   -4.9835 C   0  0  0  0  0  0  0  0  0  0  0  0
   27.5169  -20.1705   -4.5192 C   0  0  0  0  0  0  0  0  0  0  0  0
   27.1518  -19.1495   -5.3630 C   0  0  0  0  0  0  0  0  0  0  0  0
   27.6143  -19.1370   -6.6852 C   0  0  0  0  0  0  0  0  0  0  0  0
   26.6197  -20.0072   -9.4966 C   0  0  0  0  0  0  0  0  0  0  0  0
   26.4865  -18.8456   -9.9405 O   0  0  0  0  0  0  0  0  0  0  0  0
   22.4196  -19.4306  -12.0423 C   0  0  0  0  0  0  0  0  0  0  0  0
   22.7896  -20.8380  -11.5780 C   0  0  2  0  0  0  0  0  0  0  0  0
   21.6300  -21.5896  -11.0597 C   0  0  0  0  0  0  0  0  0  0  0  0
   24.0842  -20.9340  -10.8857 C   0  0  0  0  0  0  0  0  0  0  0  0
   24.1676  -20.3442   -9.5113 C   0  0  2  0  0  0  0  0  0  0  0  0
   25.4952  -20.6555   -8.9463 N   0  0  0  0  0  0  0  0  0  0  0  0
   23.2011  -20.9447   -8.5964 C   0  0  0  0  0  0  0  0  0  0  0  0
   22.0022  -20.5968   -8.6176 O   0  0  0  0  0  0  0  0  0  0  0  0
   23.5439  -21.9201   -7.6640 O   0  0  0  0  0  0  0  0  0  0  0  0
  2  5  1  0
  2  1  1  6
  3  2  1  0
  4  3  1  0
  5  6  2  0
  7  8  1  0
  7  5  1  0
  9 10  1  0
  8  9  1  1
 10 11  2  0
 11 12  1  0
 13 12  2  0
 14 13  1  0
 15 14  2  0
 15 10  1  0
 16  8  1  0
 17 16  2  0
 19 18  1  1
 19 21  1  0
 20 19  1  0
 22 21  1  6
 22 24  1  0
 22 23  1  0
 23 16  1  0
 24 26  1  0
 25 24  2  0
M  END
$$$$
