CFL.pdb
     RDKit          3D

 26 26  0  0  1  0  0  0  0  0999 V2000
   27.2968  -18.7800  -17.6777 N   0  0  0  0  0  0  0  0  0  0  0  0
   27.1828  -19.7522  -16.6194 C   0  0  1  0  0  0  0  0  0  0  0  0
   28.5098  -19.9341  -15.9493 C   0  0  0  0  0  0  0  0  0  0  0  0
   28.8489  -18.6864  -14.7048 S   0  0  0  0  0  0  0  0  0  0  0  0
   26.2143  -19.2998  -15.5673 C   0  0  0  0  0  0  0  0  0  0  0  0
   26.0472  -18.0958  -15.3248 O   0  0  0  0  0  0  0  0  0  0  0  0
   25.4946  -20.2686  -14.8562 N   0  0  0  0  0  0  0  0  0  0  0  0
   24.4357  -19.9694  -13.9140 C   0  0  1  0  0  0  0  0  0  0  0  0
   23.1154  -20.3295  -14.5595 C   0  0  0  0  0  0  0  0  0  0  0  0
   22.6325  -19.3357  -15.5307 C   0  0  0  0  0  0  0  0  0  0  0  0
   22.6729  -19.6140  -16.8768 C   0  0  0  0  0  0  0  0  0  0  0  0
   22.2172  -18.6896  -17.8212 C   0  0  0  0  0  0  0  0  0  0  0  0
   21.7185  -17.4801  -17.4155 C   0  0  0  0  0  0  0  0  0  0  0  0
   21.6705  -17.1851  -16.0745 C   0  0  0  0  0  0  0  0  0  0  0  0
   22.1298  -18.1191  -15.1371 C   0  0  0  0  0  0  0  0  0  0  0  0
   24.7093  -20.7213  -12.6724 C   0  0  0  0  0  0  0  0  0  0  0  0
   24.8431  -21.9640  -12.7177 O   0  0  0  0  0  0  0  0  0  0  0  0
   27.9131  -21.0250   -9.7814 C   0  0  0  0  0  0  0  0  0  0  0  0
   27.1018  -19.8238   -9.2997 C   0  0  2  0  0  0  0  0  0  0  0  0
   27.8062  -19.0381   -8.2678 C   0  0  0  0  0  0  0  0  0  0  0  0
   25.6589  -20.0754   -9.1604 C   0  0  0  0  0  0  0  0  0  0  0  0
   25.0064  -20.9065  -10.2220 C   0  0  2  0  0  0  0  0  0  0  0  0
   24.8248  -20.0723  -11.4261 N   0  0  0  0  0  0  0  0  0  0  0  0
   23.6652  -21.3359   -9.8363 C   0  0  0  0  0  0  0  0  0  0  0  0
   22.6653  -20.6533  -10.1411 O   0  0  0  0  0  0  0  0  0  0  0  0
   23.4194  -22.5052   -9.1216 O   0  0  0  0  0  0  0  0  0  0  0  0
  2  5  1  0
  2  1  1  6
  3  2  1  0
  4  3  1  0
  5  6  2  0
  7  8  1  0
  7  5  1  0
  9 10  1  0
  8  9  1  6
 10 11  2  0
 11 12  1  0
 13 12  2  0
 14 13  1  0
 15 14  2  0
 15 10  1  0
 16  8  1  0
 17 16  2  0
 19 18  1  1
 19 21  1  0
 20 19  1  0
 22 21  1  1
 22 24  1  0
 22 23  1  0
 23 16  1  0
 24 26  1  0
 25 24  2  0
M  END
$$$$
