CFL.pdb
     RDKit          3D

 26 26  0  0  1  0  0  0  0  0999 V2000
   27.2506  -20.9585  -16.8230 N   0  0  0  0  0  0  0  0  0  0  0  0
   27.4423  -21.6127  -15.5527 C   0  0  1  0  0  0  0  0  0  0  0  0
   28.9048  -21.7074  -15.2438 C   0  0  0  0  0  0  0  0  0  0  0  0
   29.7393  -22.9990  -16.1690 S   0  0  0  0  0  0  0  0  0  0  0  0
   26.8045  -20.8362  -14.4392 C   0  0  0  0  0  0  0  0  0  0  0  0
   26.6888  -19.6036  -14.5013 O   0  0  0  0  0  0  0  0  0  0  0  0
   26.3370  -21.5325  -13.3173 N   0  0  0  0  0  0  0  0  0  0  0  0
   25.4678  -20.9629  -12.3080 C   0  0  1  0  0  0  0  0  0  0  0  0
   24.0750  -21.5150  -12.5200 C   0  0  0  0  0  0  0  0  0  0  0  0
   22.9999  -20.5460  -12.2569 C   0  0  0  0  0  0  0  0  0  0  0  0
   22.3492  -20.5533  -11.0455 C   0  0  0  0  0  0  0  0  0  0  0  0
   21.3266  -19.6417  -10.7676 C   0  0  0  0  0  0  0  0  0  0  0  0
   20.9537  -18.7178  -11.7077 C   0  0  0  0  0  0  0  0  0  0  0  0
   21.5930  -18.6960  -12.9236 C   0  0  0  0  0  0  0  0  0  0  0  0
   22.6163  -19.6143  -13.1910 C   0  0  0  0  0  0  0  0  0  0  0  0
   26.0364  -21.2901  -10.9845 C   0  0  0  0  0  0  0  0  0  0  0  0
   26.3027  -22.4790  -10.7017 O   0  0  0  0  0  0  0  0  0  0  0  0
   28.1203  -18.4915   -5.8800 C   0  0  0  0  0  0  0  0  0  0  0  0
   28.0288  -19.7729   -6.7065 C   0  0  2  0  0  0  0  0  0  0  0  0
   29.1578  -20.6909   -6.4601 C   0  0  0  0  0  0  0  0  0  0  0  0
   27.5355  -19.5822   -8.0793 C   0  0  0  0  0  0  0  0  0  0  0  0
   26.7683  -20.7139   -8.6913 C   0  0  2  0  0  0  0  0  0  0  0  0
   26.2898  -20.2914  -10.0222 N   0  0  0  0  0  0  0  0  0  0  0  0
   25.5673  -21.0395   -7.9276 C   0  0  0  0  0  0  0  0  0  0  0  0
   24.5035  -20.4133   -8.1152 O   0  0  0  0  0  0  0  0  0  0  0  0
   25.5300  -22.0443   -6.9646 O   0  0  0  0  0  0  0  0  0  0  0  0
  2  5  1  0
  2  1  1  6
  3  2  1  0
  4  3  1  0
  5  6  2  0
  7  8  1  0
  7  5  1  0
  9 10  1  0
  8  9  1  1
 10 11  2  0
 11 12  1  0
 13 12  2  0
 14 13  1  0
 15 14  2  0
 15 10  1  0
 16  8  1  0
 17 16  2  0
 19 18  1  6
 19 21  1  0
 20 19  1  0
 22 21  1  1
 22 24  1  0
 22 23  1  0
 23 16  1  0
 24 26  1  0
 25 24  2  0
M  END
$$$$
