ADE.pdb
     RDKit          3D

 23 22  0  0  1  0  0  0  0  0999 V2000
   24.9626  -11.6130  -15.2859 C   0  0  0  0  0  0  0  0  0  0  0  0
   23.7037  -12.3495  -15.7535 C   0  0  2  0  0  0  0  0  0  0  0  0
   24.0071  -13.4068  -16.6637 N   0  0  0  0  0  0  0  0  0  0  0  0
   22.7918  -11.3253  -16.3237 C   0  0  0  0  0  0  0  0  0  0  0  0
   23.1859  -10.6547  -17.2857 O   0  0  0  0  0  0  0  0  0  0  0  0
   21.4925  -11.0658  -15.8341 N   0  0  0  0  0  0  0  0  0  0  0  0
   20.6045  -10.0802  -16.3635 C   0  0  1  0  0  0  0  0  0  0  0  0
   19.3011  -10.6308  -16.8731 C   0  0  0  0  0  0  0  0  0  0  0  0
   18.4675   -9.5871  -17.4884 C   0  0  0  0  0  0  0  0  0  0  0  0
   17.3494   -9.3164  -17.0070 O   0  0  0  0  0  0  0  0  0  0  0  0
   20.3743   -8.9528  -15.4105 C   0  0  0  0  0  0  0  0  0  0  0  0
   20.1921   -9.2237  -14.2019 O   0  0  0  0  0  0  0  0  0  0  0  0
   18.9296   -8.9118  -18.5984 O   0  0  0  0  0  0  0  0  0  0  0  0
   20.3527   -7.5989  -15.8084 N   0  0  0  0  0  0  0  0  0  0  0  0
   20.1203   -6.4816  -14.8873 C   0  0  1  0  0  0  0  0  0  0  0  0
   21.1977   -5.4678  -14.9437 C   0  0  0  0  0  0  0  0  0  0  0  0
   21.0005   -4.3766  -13.9591 C   0  0  0  0  0  0  0  0  0  0  0  0
   21.9881   -3.3026  -13.9612 C   0  0  0  0  0  0  0  0  0  0  0  0
   22.9250   -3.4076  -14.8203 O   0  0  0  0  0  0  0  0  0  0  0  0
   18.7439   -5.9612  -15.0351 C   0  0  0  0  0  0  0  0  0  0  0  0
   18.1532   -5.5437  -16.2017 O   0  0  0  0  0  0  0  0  0  0  0  0
   22.0388   -2.1959  -13.1588 O   0  0  0  0  0  0  0  0  0  0  0  0
   18.0325   -5.8882  -13.9915 O   0  0  0  0  0  0  0  0  0  0  0  0
  2  4  1  0
  2  3  1  0
  2  1  1  6
  4  5  2  0
  6  7  1  0
  6  4  1  0
  7 11  1  0
  8  9  1  0
  7  8  1  1
  9 10  2  0
 11 12  2  0
 11 14  1  0
 13  9  1  0
 14 15  1  0
 15 16  1  6
 16 17  1  0
 17 18  1  0
 18 22  1  0
 19 18  2  0
 20 21  1  0
 20 15  1  0
 23 20  2  0
M  END
$$$$
