ADE.pdb
     RDKit          3D

 23 22  0  0  1  0  0  0  0  0999 V2000
   15.8420   -8.9049  -16.7882 C   0  0  0  0  0  0  0  0  0  0  0  0
   16.7000  -10.1736  -16.8037 C   0  0  2  0  0  0  0  0  0  0  0  0
   16.0237  -11.2865  -16.2186 N   0  0  0  0  0  0  0  0  0  0  0  0
   17.9778   -9.8382  -16.1251 C   0  0  0  0  0  0  0  0  0  0  0  0
   17.9405   -9.4781  -14.9421 O   0  0  0  0  0  0  0  0  0  0  0  0
   19.2434   -9.9047  -16.7489 N   0  0  0  0  0  0  0  0  0  0  0  0
   20.4803   -9.5664  -16.1196 C   0  0  1  0  0  0  0  0  0  0  0  0
   21.6589  -10.3675  -16.6003 C   0  0  0  0  0  0  0  0  0  0  0  0
   22.8604  -10.1158  -15.7904 C   0  0  0  0  0  0  0  0  0  0  0  0
   22.7573   -9.5741  -14.6719 O   0  0  0  0  0  0  0  0  0  0  0  0
   20.7667   -8.1014  -16.1812 C   0  0  0  0  0  0  0  0  0  0  0  0
   20.6144   -7.5112  -17.2747 O   0  0  0  0  0  0  0  0  0  0  0  0
   24.0984  -10.4820  -16.2751 O   0  0  0  0  0  0  0  0  0  0  0  0
   21.2002   -7.3529  -15.0660 N   0  0  0  0  0  0  0  0  0  0  0  0
   21.3146   -5.8908  -15.0594 C   0  0  1  0  0  0  0  0  0  0  0  0
   19.9993   -5.2195  -15.1639 C   0  0  0  0  0  0  0  0  0  0  0  0
   20.1083   -3.7433  -15.0732 C   0  0  0  0  0  0  0  0  0  0  0  0
   18.8639   -2.9859  -15.1557 C   0  0  0  0  0  0  0  0  0  0  0  0
   18.9660   -1.7252  -14.9915 O   0  0  0  0  0  0  0  0  0  0  0  0
   22.1763   -5.4399  -13.9453 C   0  0  0  0  0  0  0  0  0  0  0  0
   22.8360   -4.2390  -13.8620 O   0  0  0  0  0  0  0  0  0  0  0  0
   17.5997   -3.4548  -15.3865 O   0  0  0  0  0  0  0  0  0  0  0  0
   22.3286   -6.2298  -12.9688 O   0  0  0  0  0  0  0  0  0  0  0  0
  2  4  1  0
  2  3  1  0
  2  1  1  1
  4  5  2  0
  6  7  1  0
  6  4  1  0
  7 11  1  0
  8  9  1  0
  7  8  1  6
  9 10  2  0
 11 12  2  0
 11 14  1  0
 13  9  1  0
 14 15  1  0
 15 16  1  1
 16 17  1  0
 17 18  1  0
 18 22  1  0
 19 18  2  0
 20 21  1  0
 20 15  1  0
 23 20  2  0
M  END
$$$$
