ADE.pdb
     RDKit          3D

 23 22  0  0  1  0  0  0  0  0999 V2000
   22.7126  -11.2412  -15.3520 C   0  0  0  0  0  0  0  0  0  0  0  0
   21.5892  -11.8821  -16.1725 C   0  0  2  0  0  0  0  0  0  0  0  0
   22.0120  -12.2128  -17.4954 N   0  0  0  0  0  0  0  0  0  0  0  0
   20.4405  -10.9413  -16.1393 C   0  0  0  0  0  0  0  0  0  0  0  0
   20.4682   -9.9505  -16.8797 O   0  0  0  0  0  0  0  0  0  0  0  0
   19.3091  -11.1067  -15.3101 N   0  0  0  0  0  0  0  0  0  0  0  0
   18.2203  -10.1860  -15.2249 C   0  0  1  0  0  0  0  0  0  0  0  0
   16.9661  -10.7638  -14.6289 C   0  0  0  0  0  0  0  0  0  0  0  0
   16.4402  -11.8783  -15.4314 C   0  0  0  0  0  0  0  0  0  0  0  0
   16.4200  -11.7969  -16.6756 O   0  0  0  0  0  0  0  0  0  0  0  0
   18.6036   -8.9151  -14.5392 C   0  0  0  0  0  0  0  0  0  0  0  0
   19.4036   -8.9759  -13.5782 O   0  0  0  0  0  0  0  0  0  0  0  0
   15.9705  -13.0109  -14.8002 O   0  0  0  0  0  0  0  0  0  0  0  0
   18.1066   -7.6513  -14.9237 N   0  0  0  0  0  0  0  0  0  0  0  0
   18.6618   -6.3786  -14.4518 C   0  0  1  0  0  0  0  0  0  0  0  0
   20.1383   -6.3339  -14.5495 C   0  0  0  0  0  0  0  0  0  0  0  0
   20.6963   -5.0350  -14.1017 C   0  0  0  0  0  0  0  0  0  0  0  0
   22.1363   -4.8520  -14.2495 C   0  0  0  0  0  0  0  0  0  0  0  0
   22.7476   -5.7511  -14.9164 O   0  0  0  0  0  0  0  0  0  0  0  0
   17.9454   -5.2383  -15.0632 C   0  0  0  0  0  0  0  0  0  0  0  0
   17.7711   -3.9952  -14.5078 O   0  0  0  0  0  0  0  0  0  0  0  0
   22.9164   -3.8386  -13.7638 O   0  0  0  0  0  0  0  0  0  0  0  0
   17.4388   -5.4142  -16.2091 O   0  0  0  0  0  0  0  0  0  0  0  0
  2  4  1  0
  2  3  1  0
  2  1  1  1
  4  5  2  0
  6  7  1  0
  6  4  1  0
  7 11  1  0
  8  9  1  0
  7  8  1  1
  9 10  2  0
 11 12  2  0
 11 14  1  0
 13  9  1  0
 14 15  1  0
 15 16  1  6
 16 17  1  0
 17 18  1  0
 18 22  1  0
 19 18  2  0
 20 21  1  0
 20 15  1  0
 23 20  2  0
M  END
$$$$
