ADE.pdb
     RDKit          3D

 23 22  0  0  1  0  0  0  0  0999 V2000
   25.5614  -11.9855  -15.2945 C   0  0  0  0  0  0  0  0  0  0  0  0
   24.1682  -12.5483  -15.5913 C   0  0  2  0  0  0  0  0  0  0  0  0
   24.1792  -13.4555  -16.6936 N   0  0  0  0  0  0  0  0  0  0  0  0
   23.2678  -11.3850  -15.7952 C   0  0  0  0  0  0  0  0  0  0  0  0
   23.3671  -10.7393  -16.8458 O   0  0  0  0  0  0  0  0  0  0  0  0
   22.2971  -10.9651  -14.8589 N   0  0  0  0  0  0  0  0  0  0  0  0
   21.3526   -9.9165  -15.0797 C   0  0  1  0  0  0  0  0  0  0  0  0
   20.0095  -10.1490  -14.4440 C   0  0  0  0  0  0  0  0  0  0  0  0
   19.0544   -9.0802  -14.7730 C   0  0  0  0  0  0  0  0  0  0  0  0
   18.8340   -8.7847  -15.9643 O   0  0  0  0  0  0  0  0  0  0  0  0
   21.8963   -8.5752  -14.7090 C   0  0  0  0  0  0  0  0  0  0  0  0
   22.5479   -8.4711  -13.6451 O   0  0  0  0  0  0  0  0  0  0  0  0
   18.4061   -8.4089  -13.7577 O   0  0  0  0  0  0  0  0  0  0  0  0
   21.7100   -7.4219  -15.5009 N   0  0  0  0  0  0  0  0  0  0  0  0
   22.3346   -6.1263  -15.2146 C   0  0  1  0  0  0  0  0  0  0  0  0
   22.6733   -5.3767  -16.4454 C   0  0  0  0  0  0  0  0  0  0  0  0
   23.3527   -4.0906  -16.1563 C   0  0  0  0  0  0  0  0  0  0  0  0
   23.7158   -3.2661  -17.3040 C   0  0  0  0  0  0  0  0  0  0  0  0
   23.7755   -3.8680  -18.4270 O   0  0  0  0  0  0  0  0  0  0  0  0
   21.5503   -5.3804  -14.2068 C   0  0  0  0  0  0  0  0  0  0  0  0
   22.0529   -4.5443  -13.2410 O   0  0  0  0  0  0  0  0  0  0  0  0
   24.0010   -1.9285  -17.3307 O   0  0  0  0  0  0  0  0  0  0  0  0
   20.2930   -5.5192  -14.2261 O   0  0  0  0  0  0  0  0  0  0  0  0
  2  4  1  0
  2  3  1  0
  2  1  1  6
  4  5  2  0
  6  7  1  0
  6  4  1  0
  7 11  1  0
  8  9  1  0
  7  8  1  1
  9 10  2  0
 11 12  2  0
 11 14  1  0
 13  9  1  0
 14 15  1  0
 15 16  1  6
 16 17  1  0
 17 18  1  0
 18 22  1  0
 19 18  2  0
 20 21  1  0
 20 15  1  0
 23 20  2  0
M  END
$$$$
