ADE.pdb
     RDKit          3D

 23 22  0  0  1  0  0  0  0  0999 V2000
   18.9668  -13.6382  -16.0769 C   0  0  0  0  0  0  0  0  0  0  0  0
   18.5646  -12.2987  -16.7016 C   0  0  2  0  0  0  0  0  0  0  0  0
   18.3672  -12.4017  -18.1118 N   0  0  0  0  0  0  0  0  0  0  0  0
   19.6115  -11.3153  -16.3239 C   0  0  0  0  0  0  0  0  0  0  0  0
   19.6828  -10.9541  -15.1428 O   0  0  0  0  0  0  0  0  0  0  0  0
   20.5387  -10.7615  -17.2342 N   0  0  0  0  0  0  0  0  0  0  0  0
   21.5779   -9.8467  -16.8828 C   0  0  1  0  0  0  0  0  0  0  0  0
   22.8389  -10.0031  -17.6874 C   0  0  0  0  0  0  0  0  0  0  0  0
   23.8961   -9.0866  -17.2345 C   0  0  0  0  0  0  0  0  0  0  0  0
   23.8487   -8.5960  -16.0889 O   0  0  0  0  0  0  0  0  0  0  0  0
   21.1109   -8.4274  -16.8883 C   0  0  0  0  0  0  0  0  0  0  0  0
   20.7200   -7.9344  -17.9707 O   0  0  0  0  0  0  0  0  0  0  0  0
   24.9373   -8.7742  -18.0830 O   0  0  0  0  0  0  0  0  0  0  0  0
   21.0900   -7.6180  -15.7324 N   0  0  0  0  0  0  0  0  0  0  0  0
   20.5482   -6.2556  -15.7004 C   0  0  1  0  0  0  0  0  0  0  0  0
   19.0722   -6.2357  -15.5891 C   0  0  0  0  0  0  0  0  0  0  0  0
   18.5263   -4.8575  -15.5437 C   0  0  0  0  0  0  0  0  0  0  0  0
   17.0750   -4.7273  -15.4688 C   0  0  0  0  0  0  0  0  0  0  0  0
   16.4878   -4.3947  -16.5511 O   0  0  0  0  0  0  0  0  0  0  0  0
   21.2754   -5.4280  -14.7137 C   0  0  0  0  0  0  0  0  0  0  0  0
   21.1804   -4.0665  -14.5666 O   0  0  0  0  0  0  0  0  0  0  0  0
   16.2617   -4.9161  -14.3851 O   0  0  0  0  0  0  0  0  0  0  0  0
   22.0655   -6.0215  -13.9236 O   0  0  0  0  0  0  0  0  0  0  0  0
  2  4  1  0
  2  3  1  0
  2  1  1  6
  4  5  2  0
  6  7  1  0
  6  4  1  0
  7 11  1  0
  8  9  1  0
  7  8  1  6
  9 10  2  0
 11 12  2  0
 11 14  1  0
 13  9  1  0
 14 15  1  0
 15 16  1  1
 16 17  1  0
 17 18  1  0
 18 22  1  0
 19 18  2  0
 20 21  1  0
 20 15  1  0
 23 20  2  0
M  END
$$$$
