ADE.pdb
     RDKit          3D

 23 22  0  0  1  0  0  0  0  0999 V2000
   11.3417   -9.7857   -9.9682 C   0  0  0  0  0  0  0  0  0  0  0  0
   12.6746  -10.2315  -10.5769 C   0  0  2  0  0  0  0  0  0  0  0  0
   13.2427  -11.3370   -9.8745 N   0  0  0  0  0  0  0  0  0  0  0  0
   13.5563   -9.0367  -10.6061 C   0  0  0  0  0  0  0  0  0  0  0  0
   13.2010   -8.0578  -11.2739 O   0  0  0  0  0  0  0  0  0  0  0  0
   14.7845   -8.9456   -9.9145 N   0  0  0  0  0  0  0  0  0  0  0  0
   15.6888   -7.8434  -10.0024 C   0  0  1  0  0  0  0  0  0  0  0  0
   15.9776   -7.1730   -8.6875 C   0  0  0  0  0  0  0  0  0  0  0  0
   16.8999   -6.0379   -8.8411 C   0  0  0  0  0  0  0  0  0  0  0  0
   17.9981   -6.0412   -8.2501 O   0  0  0  0  0  0  0  0  0  0  0  0
   16.9544   -8.2024  -10.7106 C   0  0  0  0  0  0  0  0  0  0  0  0
   17.6432   -9.1441  -10.2567 O   0  0  0  0  0  0  0  0  0  0  0  0
   16.5430   -4.9727   -9.6410 O   0  0  0  0  0  0  0  0  0  0  0  0
   17.4091   -7.5305  -11.8655 N   0  0  0  0  0  0  0  0  0  0  0  0
   18.5950   -7.9321  -12.6291 C   0  0  1  0  0  0  0  0  0  0  0  0
   18.3920   -9.2006  -13.3648 C   0  0  0  0  0  0  0  0  0  0  0  0
   17.6156   -9.0125  -14.6142 C   0  0  0  0  0  0  0  0  0  0  0  0
   17.4337  -10.1885  -15.4586 C   0  0  0  0  0  0  0  0  0  0  0  0
   18.5020  -10.7510  -15.8698 O   0  0  0  0  0  0  0  0  0  0  0  0
   19.1054   -6.8008  -13.4333 C   0  0  0  0  0  0  0  0  0  0  0  0
   20.3503   -6.7048  -14.0038 O   0  0  0  0  0  0  0  0  0  0  0  0
   16.2628  -10.7660  -15.8669 O   0  0  0  0  0  0  0  0  0  0  0  0
   18.3285   -5.8199  -13.6196 O   0  0  0  0  0  0  0  0  0  0  0  0
  2  4  1  0
  2  3  1  0
  2  1  1  1
  4  5  2  0
  6  7  1  0
  6  4  1  0
  7 11  1  0
  8  9  1  0
  7  8  1  1
  9 10  2  0
 11 12  2  0
 11 14  1  0
 13  9  1  0
 14 15  1  0
 15 16  1  6
 16 17  1  0
 17 18  1  0
 18 22  1  0
 19 18  2  0
 20 21  1  0
 20 15  1  0
 23 20  2  0
M  END
$$$$
