ADE.pdb
     RDKit          3D

 23 22  0  0  1  0  0  0  0  0999 V2000
   18.6420  -12.6466  -16.3251 C   0  0  0  0  0  0  0  0  0  0  0  0
   17.3766  -11.9543  -15.8096 C   0  0  2  0  0  0  0  0  0  0  0  0
   16.2412  -12.2306  -16.6298 N   0  0  0  0  0  0  0  0  0  0  0  0
   17.6894  -10.5062  -15.7057 C   0  0  0  0  0  0  0  0  0  0  0  0
   18.0048   -9.8957  -16.7345 O   0  0  0  0  0  0  0  0  0  0  0  0
   17.6494   -9.7752  -14.4978 N   0  0  0  0  0  0  0  0  0  0  0  0
   17.8472   -8.3644  -14.3926 C   0  0  1  0  0  0  0  0  0  0  0  0
   16.9520   -7.6866  -13.3920 C   0  0  0  0  0  0  0  0  0  0  0  0
   15.5320   -7.8104  -13.7538 C   0  0  0  0  0  0  0  0  0  0  0  0
   14.7803   -8.5503  -13.0883 O   0  0  0  0  0  0  0  0  0  0  0  0
   19.2791   -8.0076  -14.1591 C   0  0  0  0  0  0  0  0  0  0  0  0
   19.9463   -8.7128  -13.3685 O   0  0  0  0  0  0  0  0  0  0  0  0
   15.0387   -7.1049  -14.8311 O   0  0  0  0  0  0  0  0  0  0  0  0
   19.9138   -6.9146  -14.7871 N   0  0  0  0  0  0  0  0  0  0  0  0
   21.3463   -6.6245  -14.6676 C   0  0  1  0  0  0  0  0  0  0  0  0
   22.0535   -6.7198  -15.9646 C   0  0  0  0  0  0  0  0  0  0  0  0
   23.5082   -6.4612  -15.8367 C   0  0  0  0  0  0  0  0  0  0  0  0
   24.2908   -6.4840  -17.0679 C   0  0  0  0  0  0  0  0  0  0  0  0
   24.0956   -7.4842  -17.8349 O   0  0  0  0  0  0  0  0  0  0  0  0
   21.5637   -5.3726  -13.9109 C   0  0  0  0  0  0  0  0  0  0  0  0
   22.6474   -5.0769  -13.1218 O   0  0  0  0  0  0  0  0  0  0  0  0
   25.2087   -5.5692  -17.5061 O   0  0  0  0  0  0  0  0  0  0  0  0
   20.6702   -4.4803  -13.9899 O   0  0  0  0  0  0  0  0  0  0  0  0
  2  4  1  0
  2  3  1  0
  2  1  1  6
  4  5  2  0
  6  7  1  0
  6  4  1  0
  7 11  1  0
  8  9  1  0
  7  8  1  1
  9 10  2  0
 11 12  2  0
 11 14  1  0
 13  9  1  0
 14 15  1  0
 15 16  1  6
 16 17  1  0
 17 18  1  0
 18 22  1  0
 19 18  2  0
 20 21  1  0
 20 15  1  0
 23 20  2  0
M  END
$$$$
