ADE.pdb
     RDKit          3D

 23 22  0  0  1  0  0  0  0  0999 V2000
   16.1151   -9.5620  -17.3916 C   0  0  0  0  0  0  0  0  0  0  0  0
   17.2530  -10.3797  -18.0101 C   0  0  2  0  0  0  0  0  0  0  0  0
   16.9224  -11.7643  -18.1176 N   0  0  0  0  0  0  0  0  0  0  0  0
   18.4631  -10.1255  -17.1873 C   0  0  0  0  0  0  0  0  0  0  0  0
   18.3870  -10.2820  -15.9625 O   0  0  0  0  0  0  0  0  0  0  0  0
   19.7055   -9.7133  -17.7179 N   0  0  0  0  0  0  0  0  0  0  0  0
   20.8762   -9.4527  -16.9422 C   0  0  1  0  0  0  0  0  0  0  0  0
   22.1161  -10.1418  -17.4419 C   0  0  0  0  0  0  0  0  0  0  0  0
   23.2805   -9.8636  -16.5878 C   0  0  0  0  0  0  0  0  0  0  0  0
   23.1412   -9.7741  -15.3517 O   0  0  0  0  0  0  0  0  0  0  0  0
   21.1161   -7.9907  -16.7496 C   0  0  0  0  0  0  0  0  0  0  0  0
   21.0143   -7.2355  -17.7430 O   0  0  0  0  0  0  0  0  0  0  0  0
   24.5242   -9.7026  -17.1616 O   0  0  0  0  0  0  0  0  0  0  0  0
   21.4514   -7.4219  -15.5022 N   0  0  0  0  0  0  0  0  0  0  0  0
   21.5230   -5.9778  -15.2570 C   0  0  1  0  0  0  0  0  0  0  0  0
   20.2554   -5.2850  -15.5805 C   0  0  0  0  0  0  0  0  0  0  0  0
   20.3157   -3.8312  -15.2941 C   0  0  0  0  0  0  0  0  0  0  0  0
   19.0883   -3.0693  -15.4986 C   0  0  0  0  0  0  0  0  0  0  0  0
   18.0910   -3.7270  -15.9453 O   0  0  0  0  0  0  0  0  0  0  0  0
   22.0770   -5.7037  -13.9134 C   0  0  0  0  0  0  0  0  0  0  0  0
   22.6769   -4.5392  -13.5032 O   0  0  0  0  0  0  0  0  0  0  0  0
   18.8693   -1.7380  -15.2728 O   0  0  0  0  0  0  0  0  0  0  0  0
   21.9969   -6.6250  -13.0501 O   0  0  0  0  0  0  0  0  0  0  0  0
  2  4  1  0
  2  3  1  0
  2  1  1  1
  4  5  2  0
  6  7  1  0
  6  4  1  0
  7 11  1  0
  8  9  1  0
  7  8  1  6
  9 10  2  0
 11 12  2  0
 11 14  1  0
 13  9  1  0
 14 15  1  0
 15 16  1  1
 16 17  1  0
 17 18  1  0
 18 22  1  0
 19 18  2  0
 20 21  1  0
 20 15  1  0
 23 20  2  0
M  END
$$$$
