ADE.pdb
     RDKit          3D

 23 22  0  0  1  0  0  0  0  0999 V2000
   14.3418  -10.0341  -10.5171 C   0  0  0  0  0  0  0  0  0  0  0  0
   14.3213  -11.0495  -11.6637 C   0  0  2  0  0  0  0  0  0  0  0  0
   14.3737  -12.3953  -11.1901 N   0  0  0  0  0  0  0  0  0  0  0  0
   15.4453  -10.6998  -12.5692 C   0  0  0  0  0  0  0  0  0  0  0  0
   16.5855  -11.0706  -12.2644 O   0  0  0  0  0  0  0  0  0  0  0  0
   15.2947   -9.9653  -13.7663 N   0  0  0  0  0  0  0  0  0  0  0  0
   16.3631   -9.6172  -14.6481 C   0  0  1  0  0  0  0  0  0  0  0  0
   16.0614   -9.8398  -16.1045 C   0  0  0  0  0  0  0  0  0  0  0  0
   15.8484  -11.2626  -16.4095 C   0  0  0  0  0  0  0  0  0  0  0  0
   16.7422  -12.0956  -16.1591 O   0  0  0  0  0  0  0  0  0  0  0  0
   16.8665   -8.2306  -14.4107 C   0  0  0  0  0  0  0  0  0  0  0  0
   16.0304   -7.3215  -14.2059 O   0  0  0  0  0  0  0  0  0  0  0  0
   14.6569  -11.6683  -16.9729 O   0  0  0  0  0  0  0  0  0  0  0  0
   18.2381   -7.8983  -14.4065 N   0  0  0  0  0  0  0  0  0  0  0  0
   18.7465   -6.5347  -14.2247 C   0  0  1  0  0  0  0  0  0  0  0  0
   20.1259   -6.5116  -13.6878 C   0  0  0  0  0  0  0  0  0  0  0  0
   20.6472   -5.1329  -13.5253 C   0  0  0  0  0  0  0  0  0  0  0  0
   22.0212   -5.0009  -13.0523 C   0  0  0  0  0  0  0  0  0  0  0  0
   22.5012   -6.0131  -12.4425 O   0  0  0  0  0  0  0  0  0  0  0  0
   18.5205   -5.7269  -15.4427 C   0  0  0  0  0  0  0  0  0  0  0  0
   18.1366   -4.4097  -15.4853 O   0  0  0  0  0  0  0  0  0  0  0  0
   22.8621   -3.9293  -13.1788 O   0  0  0  0  0  0  0  0  0  0  0  0
   18.6938   -6.2947  -16.5599 O   0  0  0  0  0  0  0  0  0  0  0  0
  2  4  1  0
  2  3  1  0
  2  1  1  1
  4  5  2  0
  6  7  1  0
  6  4  1  0
  7 11  1  0
  8  9  1  0
  7  8  1  6
  9 10  2  0
 11 12  2  0
 11 14  1  0
 13  9  1  0
 14 15  1  0
 15 16  1  6
 16 17  1  0
 17 18  1  0
 18 22  1  0
 19 18  2  0
 20 21  1  0
 20 15  1  0
 23 20  2  0
M  END
$$$$
