ADE.pdb
     RDKit          3D

 23 22  0  0  1  0  0  0  0  0999 V2000
   18.7523  -10.8595  -17.1483 C   0  0  0  0  0  0  0  0  0  0  0  0
   20.1131  -10.1599  -17.2172 C   0  0  2  0  0  0  0  0  0  0  0  0
   21.1893  -11.0479  -16.9145 N   0  0  0  0  0  0  0  0  0  0  0  0
   20.0424   -8.9888  -16.3066 C   0  0  0  0  0  0  0  0  0  0  0  0
   19.0198   -8.8297  -15.6288 O   0  0  0  0  0  0  0  0  0  0  0  0
   21.0763   -8.0372  -16.1636 N   0  0  0  0  0  0  0  0  0  0  0  0
   21.0597   -6.9494  -15.2380 C   0  0  1  0  0  0  0  0  0  0  0  0
   22.3742   -6.7008  -14.5510 C   0  0  0  0  0  0  0  0  0  0  0  0
   22.2922   -5.5849  -13.5966 C   0  0  0  0  0  0  0  0  0  0  0  0
   21.9149   -5.7910  -12.4259 O   0  0  0  0  0  0  0  0  0  0  0  0
   20.5272   -5.6934  -15.8474 C   0  0  0  0  0  0  0  0  0  0  0  0
   20.9981   -5.3192  -16.9454 O   0  0  0  0  0  0  0  0  0  0  0  0
   22.6342   -4.3126  -14.0040 O   0  0  0  0  0  0  0  0  0  0  0  0
   19.5200   -4.9103  -15.2440 N   0  0  0  0  0  0  0  0  0  0  0  0
   18.9594   -3.6966  -15.8469 C   0  0  1  0  0  0  0  0  0  0  0  0
   17.4821   -3.7370  -15.9321 C   0  0  0  0  0  0  0  0  0  0  0  0
   16.9225   -2.5533  -16.6284 C   0  0  0  0  0  0  0  0  0  0  0  0
   15.4759   -2.5243  -16.8169 C   0  0  0  0  0  0  0  0  0  0  0  0
   15.0246   -3.2260  -17.7816 O   0  0  0  0  0  0  0  0  0  0  0  0
   19.5310   -2.4881  -15.2145 C   0  0  0  0  0  0  0  0  0  0  0  0
   19.8551   -2.3399  -13.8889 O   0  0  0  0  0  0  0  0  0  0  0  0
   14.5399   -1.8398  -16.0910 O   0  0  0  0  0  0  0  0  0  0  0  0
   19.7455   -1.4867  -15.9573 O   0  0  0  0  0  0  0  0  0  0  0  0
  2  4  1  0
  2  3  1  0
  2  1  1  1
  4  5  2  0
  6  7  1  0
  6  4  1  0
  7 11  1  0
  8  9  1  0
  7  8  1  6
  9 10  2  0
 11 12  2  0
 11 14  1  0
 13  9  1  0
 14 15  1  0
 15 16  1  1
 16 17  1  0
 17 18  1  0
 18 22  1  0
 19 18  2  0
 20 21  1  0
 20 15  1  0
 23 20  2  0
M  END
$$$$
