ADE.pdb
     RDKit          3D

 23 22  0  0  1  0  0  0  0  0999 V2000
   18.2441  -11.7397  -16.2231 C   0  0  0  0  0  0  0  0  0  0  0  0
   18.2473  -10.4888  -17.1070 C   0  0  2  0  0  0  0  0  0  0  0  0
   17.9744  -10.7966  -18.4741 N   0  0  0  0  0  0  0  0  0  0  0  0
   19.5582   -9.8210  -16.9042 C   0  0  0  0  0  0  0  0  0  0  0  0
   20.3331  -10.2869  -16.0599 O   0  0  0  0  0  0  0  0  0  0  0  0
   19.9806   -8.6786  -17.6195 N   0  0  0  0  0  0  0  0  0  0  0  0
   21.2102   -7.9867  -17.3967 C   0  0  1  0  0  0  0  0  0  0  0  0
   22.1357   -7.9714  -18.5822 C   0  0  0  0  0  0  0  0  0  0  0  0
   23.3795   -7.2401  -18.2979 C   0  0  0  0  0  0  0  0  0  0  0  0
   23.9421   -7.3709  -17.1927 O   0  0  0  0  0  0  0  0  0  0  0  0
   20.9971   -6.6068  -16.8650 C   0  0  0  0  0  0  0  0  0  0  0  0
   20.2840   -5.8184  -17.5262 O   0  0  0  0  0  0  0  0  0  0  0  0
   23.9177   -6.4107  -19.2592 O   0  0  0  0  0  0  0  0  0  0  0  0
   21.5613   -6.1513  -15.6542 N   0  0  0  0  0  0  0  0  0  0  0  0
   21.1846   -4.8933  -15.0012 C   0  0  1  0  0  0  0  0  0  0  0  0
   19.7202   -4.7607  -14.8297 C   0  0  0  0  0  0  0  0  0  0  0  0
   19.2126   -3.4467  -15.2932 C   0  0  0  0  0  0  0  0  0  0  0  0
   17.8604   -3.0825  -14.8833 C   0  0  0  0  0  0  0  0  0  0  0  0
   16.9688   -3.9810  -15.0394 O   0  0  0  0  0  0  0  0  0  0  0  0
   21.9938   -4.6755  -13.7826 C   0  0  0  0  0  0  0  0  0  0  0  0
   22.1799   -3.4807  -13.1328 O   0  0  0  0  0  0  0  0  0  0  0  0
   17.4252   -1.8991  -14.3526 O   0  0  0  0  0  0  0  0  0  0  0  0
   22.5767   -5.6804  -13.2818 O   0  0  0  0  0  0  0  0  0  0  0  0
  2  4  1  0
  2  3  1  0
  2  1  1  1
  4  5  2  0
  6  7  1  0
  6  4  1  0
  7 11  1  0
  8  9  1  0
  7  8  1  6
  9 10  2  0
 11 12  2  0
 11 14  1  0
 13  9  1  0
 14 15  1  0
 15 16  1  1
 16 17  1  0
 17 18  1  0
 18 22  1  0
 19 18  2  0
 20 21  1  0
 20 15  1  0
 23 20  2  0
M  END
$$$$
