ADE.pdb
     RDKit          3D

 23 22  0  0  1  0  0  0  0  0999 V2000
   18.2388   -9.7633  -18.3853 C   0  0  0  0  0  0  0  0  0  0  0  0
   19.5398   -9.0210  -18.7051 C   0  0  2  0  0  0  0  0  0  0  0  0
   20.6828   -9.8695  -18.5970 N   0  0  0  0  0  0  0  0  0  0  0  0
   19.5953   -7.8410  -17.8049 C   0  0  0  0  0  0  0  0  0  0  0  0
   18.6766   -7.0143  -17.8589 O   0  0  0  0  0  0  0  0  0  0  0  0
   20.6383   -7.6003  -16.8833 N   0  0  0  0  0  0  0  0  0  0  0  0
   20.6678   -6.5185  -15.9510 C   0  0  1  0  0  0  0  0  0  0  0  0
   21.4714   -6.7927  -14.7096 C   0  0  0  0  0  0  0  0  0  0  0  0
   20.8429   -7.8191  -13.8646 C   0  0  0  0  0  0  0  0  0  0  0  0
   21.5513   -8.6360  -13.2432 O   0  0  0  0  0  0  0  0  0  0  0  0
   21.0849   -5.2323  -16.5866 C   0  0  0  0  0  0  0  0  0  0  0  0
   22.0804   -5.2396  -17.3457 O   0  0  0  0  0  0  0  0  0  0  0  0
   19.4685   -7.8720  -13.7644 O   0  0  0  0  0  0  0  0  0  0  0  0
   20.4102   -4.0115  -16.3716 N   0  0  0  0  0  0  0  0  0  0  0  0
   20.6776   -2.7867  -17.1325 C   0  0  1  0  0  0  0  0  0  0  0  0
   19.4872   -2.3074  -17.8706 C   0  0  0  0  0  0  0  0  0  0  0  0
   19.7839   -1.1273  -18.7183 C   0  0  0  0  0  0  0  0  0  0  0  0
   18.6600   -0.5323  -19.4336 C   0  0  0  0  0  0  0  0  0  0  0  0
   17.5532   -1.1613  -19.3563 O   0  0  0  0  0  0  0  0  0  0  0  0
   21.3512   -1.7812  -16.2827 C   0  0  0  0  0  0  0  0  0  0  0  0
   22.1446   -0.7488  -16.7177 O   0  0  0  0  0  0  0  0  0  0  0  0
   18.6407    0.6153  -20.1781 O   0  0  0  0  0  0  0  0  0  0  0  0
   21.1887   -1.8716  -15.0313 O   0  0  0  0  0  0  0  0  0  0  0  0
  2  4  1  0
  2  3  1  0
  2  1  1  1
  4  5  2  0
  6  7  1  0
  6  4  1  0
  7 11  1  0
  8  9  1  0
  7  8  1  1
  9 10  2  0
 11 12  2  0
 11 14  1  0
 13  9  1  0
 14 15  1  0
 15 16  1  1
 16 17  1  0
 17 18  1  0
 18 22  1  0
 19 18  2  0
 20 21  1  0
 20 15  1  0
 23 20  2  0
M  END
$$$$
