ADE.pdb
     RDKit          3D

 23 22  0  0  1  0  0  0  0  0999 V2000
   37.8804  -34.1034    1.2281 C   0  0  0  0  0  0  0  0  0  0  0  0
   37.6250  -33.4755   -0.1454 C   0  0  2  0  0  0  0  0  0  0  0  0
   38.2572  -32.2025   -0.2798 N   0  0  0  0  0  0  0  0  0  0  0  0
   36.1520  -33.4236   -0.3284 C   0  0  0  0  0  0  0  0  0  0  0  0
   35.5273  -32.4846    0.1800 O   0  0  0  0  0  0  0  0  0  0  0  0
   35.4127  -34.3854   -1.0518 N   0  0  0  0  0  0  0  0  0  0  0  0
   34.0074  -34.3158   -1.2982 C   0  0  1  0  0  0  0  0  0  0  0  0
   33.5593  -35.0407   -2.5374 C   0  0  0  0  0  0  0  0  0  0  0  0
   32.1174  -34.8784   -2.7770 C   0  0  0  0  0  0  0  0  0  0  0  0
   31.4805  -33.9908   -2.1756 O   0  0  0  0  0  0  0  0  0  0  0  0
   33.2015  -34.7339   -0.1116 C   0  0  0  0  0  0  0  0  0  0  0  0
   33.4357  -35.8511    0.4026 O   0  0  0  0  0  0  0  0  0  0  0  0
   31.4763  -35.7125   -3.6687 O   0  0  0  0  0  0  0  0  0  0  0  0
   32.1900  -33.9296    0.4558 N   0  0  0  0  0  0  0  0  0  0  0  0
   31.3315  -34.3599    1.5642 C   0  0  1  0  0  0  0  0  0  0  0  0
   30.6972  -33.2202    2.2645 C   0  0  0  0  0  0  0  0  0  0  0  0
   29.9518  -33.6433    3.4748 C   0  0  0  0  0  0  0  0  0  0  0  0
   29.1435  -32.6258    4.1383 C   0  0  0  0  0  0  0  0  0  0  0  0
   28.0904  -32.2585    3.5195 O   0  0  0  0  0  0  0  0  0  0  0  0
   30.4129  -35.4330    1.1263 C   0  0  0  0  0  0  0  0  0  0  0  0
   30.1613  -36.6087    1.7887 O   0  0  0  0  0  0  0  0  0  0  0  0
   29.3704  -32.0139    5.3406 O   0  0  0  0  0  0  0  0  0  0  0  0
   29.7939  -35.2625    0.0362 O   0  0  0  0  0  0  0  0  0  0  0  0
  2  4  1  0
  2  3  1  0
  2  1  1  1
  4  5  2  0
  6  7  1  0
  6  4  1  0
  7 11  1  0
  8  9  1  0
  7  8  1  6
  9 10  2  0
 11 12  2  0
 11 14  1  0
 13  9  1  0
 14 15  1  0
 15 16  1  6
 16 17  1  0
 17 18  1  0
 18 22  1  0
 19 18  2  0
 20 21  1  0
 20 15  1  0
 23 20  2  0
M  END
$$$$
