FDM.pdb
     RDKit          3D

 28 28  0  0  1  0  0  0  0  0999 V2000
   26.5438  -19.6970  -10.5769 N   0  0  0  0  0  0  0  0  0  0  0  0
   25.5700  -20.7490  -10.4987 C   0  0  1  0  0  0  0  0  0  0  0  0
   25.3610  -21.0336   -9.0059 C   0  0  0  0  0  0  0  0  0  0  0  0
   26.6608  -20.7494   -8.3254 C   0  0  0  0  0  0  0  0  0  0  0  0
   26.7836  -19.6812   -7.4368 C   0  0  0  0  0  0  0  0  0  0  0  0
   27.9646  -19.3931   -6.7941 C   0  0  0  0  0  0  0  0  0  0  0  0
   29.0711  -20.1711   -7.0214 C   0  0  0  0  0  0  0  0  0  0  0  0
   28.9780  -21.2256   -7.8886 C   0  0  0  0  0  0  0  0  0  0  0  0
   27.7935  -21.5083   -8.5282 C   0  0  0  0  0  0  0  0  0  0  0  0
   24.3063  -20.4246  -11.1696 C   0  0  0  0  0  0  0  0  0  0  0  0
   23.5783  -19.5193  -10.6969 O   0  0  0  0  0  0  0  0  0  0  0  0
   23.8770  -21.0975  -12.3342 N   0  0  0  0  0  0  0  0  0  0  0  0
   22.6408  -20.8145  -13.0266 C   0  0  1  0  0  0  0  0  0  0  0  0
   22.9204  -20.6939  -14.4962 C   0  0  0  0  0  0  0  0  0  0  0  0
   21.7624  -20.3513  -15.3106 C   0  0  0  0  0  0  0  0  0  0  0  0
   20.6560  -20.1418  -14.7602 O   0  0  0  0  0  0  0  0  0  0  0  0
   21.7100  -21.9386  -12.7800 C   0  0  0  0  0  0  0  0  0  0  0  0
   22.0770  -23.1288  -12.9466 O   0  0  0  0  0  0  0  0  0  0  0  0
   21.8532  -20.2507  -16.6845 O   0  0  0  0  0  0  0  0  0  0  0  0
   19.2617  -23.6462   -7.6721 C   0  0  0  0  0  0  0  0  0  0  0  0
   18.6626  -24.9677   -8.7264 S   0  0  0  0  0  0  0  0  0  0  0  0
   18.4510  -24.4363  -10.4527 C   0  0  0  0  0  0  0  0  0  0  0  0
   19.4123  -23.3109  -10.6969 C   0  0  0  0  0  0  0  0  0  0  0  0
   19.4383  -22.8390  -12.1214 C   0  0  2  0  0  0  0  0  0  0  0  0
   20.3604  -21.7531  -12.3453 N   0  0  0  0  0  0  0  0  0  0  0  0
   18.0799  -22.4034  -12.5336 C   0  0  0  0  0  0  0  0  0  0  0  0
   17.0791  -23.3263  -12.7660 O   0  0  0  0  0  0  0  0  0  0  0  0
   17.7811  -21.1836  -12.6887 O   0  0  0  0  0  0  0  0  0  0  0  0
  2  1  1  1
  2 10  1  0
  3  2  1  0
  4  3  1  0
  4  9  2  0
  5  4  1  0
  6  5  2  0
  6  7  1  0
  7  8  2  0
  8  9  1  0
 10 11  2  0
 12 10  1  0
 12 13  1  0
 13 14  1  6
 14 15  1  0
 15 19  1  0
 16 15  2  0
 17 25  1  0
 17 13  1  0
 18 17  2  0
 20 21  1  0
 22 21  1  0
 23 22  1  0
 24 23  1  1
 24 25  1  0
 26 27  1  0
 26 24  1  0
 28 26  2  0
M  END
$$$$
