FDM.pdb
     RDKit          3D

 28 28  0  0  1  0  0  0  0  0999 V2000
   26.6415  -17.4910  -15.7507 N   0  0  0  0  0  0  0  0  0  0  0  0
   26.9613  -18.6559  -14.9748 C   0  0  1  0  0  0  0  0  0  0  0  0
   28.4516  -18.5474  -14.6277 C   0  0  0  0  0  0  0  0  0  0  0  0
   29.2076  -18.7394  -15.9024 C   0  0  0  0  0  0  0  0  0  0  0  0
   29.3056  -19.9997  -16.4921 C   0  0  0  0  0  0  0  0  0  0  0  0
   29.9930  -20.2101  -17.6644 C   0  0  0  0  0  0  0  0  0  0  0  0
   30.6102  -19.1572  -18.2904 C   0  0  0  0  0  0  0  0  0  0  0  0
   30.5296  -17.9100  -17.7331 C   0  0  0  0  0  0  0  0  0  0  0  0
   29.8403  -17.7065  -16.5602 C   0  0  0  0  0  0  0  0  0  0  0  0
   26.1348  -18.7996  -13.7714 C   0  0  0  0  0  0  0  0  0  0  0  0
   25.9816  -17.8120  -13.0135 O   0  0  0  0  0  0  0  0  0  0  0  0
   25.5016  -20.0153  -13.4328 N   0  0  0  0  0  0  0  0  0  0  0  0
   24.6420  -20.1911  -12.2848 C   0  0  1  0  0  0  0  0  0  0  0  0
   23.4944  -21.0803  -12.6653 C   0  0  0  0  0  0  0  0  0  0  0  0
   22.3718  -21.0568  -11.7374 C   0  0  0  0  0  0  0  0  0  0  0  0
   22.3860  -20.2660  -10.7651 O   0  0  0  0  0  0  0  0  0  0  0  0
   25.4376  -20.8253  -11.2098 C   0  0  0  0  0  0  0  0  0  0  0  0
   25.9850  -21.9427  -11.3854 O   0  0  0  0  0  0  0  0  0  0  0  0
   21.2837  -21.8901  -11.9031 O   0  0  0  0  0  0  0  0  0  0  0  0
   29.0712  -18.1923   -6.8209 C   0  0  0  0  0  0  0  0  0  0  0  0
   28.6754  -19.6395   -5.8382 S   0  0  0  0  0  0  0  0  0  0  0  0
   27.5742  -20.7923   -6.7132 C   0  0  0  0  0  0  0  0  0  0  0  0
   27.1086  -20.1067   -7.9635 C   0  0  0  0  0  0  0  0  0  0  0  0
   26.1651  -20.9327   -8.7881 C   0  0  2  0  0  0  0  0  0  0  0  0
   25.6342  -20.2249   -9.9268 N   0  0  0  0  0  0  0  0  0  0  0  0
   25.0339  -21.3978   -7.9463 C   0  0  0  0  0  0  0  0  0  0  0  0
   23.7263  -21.1476   -8.3139 O   0  0  0  0  0  0  0  0  0  0  0  0
   25.2133  -22.0359   -6.8685 O   0  0  0  0  0  0  0  0  0  0  0  0
  2  1  1  1
  2 10  1  0
  3  2  1  0
  4  3  1  0
  4  9  2  0
  5  4  1  0
  6  5  2  0
  6  7  1  0
  7  8  2  0
  8  9  1  0
 10 11  2  0
 12 10  1  0
 12 13  1  0
 13 14  1  6
 14 15  1  0
 15 19  1  0
 16 15  2  0
 17 25  1  0
 17 13  1  0
 18 17  2  0
 20 21  1  0
 22 21  1  0
 23 22  1  0
 24 23  1  1
 24 25  1  0
 26 27  1  0
 26 24  1  0
 28 26  2  0
M  END
$$$$
