FDM.pdb
     RDKit          3D

 28 28  0  0  1  0  0  0  0  0999 V2000
   19.2269  -29.4836  -12.2693 N   0  0  0  0  0  0  0  0  0  0  0  0
   20.5536  -29.5147  -11.7215 C   0  0  1  0  0  0  0  0  0  0  0  0
   20.6706  -28.2908  -10.8042 C   0  0  0  0  0  0  0  0  0  0  0  0
   20.6794  -27.0864  -11.6890 C   0  0  0  0  0  0  0  0  0  0  0  0
   21.8055  -26.7646  -12.4466 C   0  0  0  0  0  0  0  0  0  0  0  0
   21.8460  -25.6645  -13.2705 C   0  0  0  0  0  0  0  0  0  0  0  0
   20.7515  -24.8431  -13.3642 C   0  0  0  0  0  0  0  0  0  0  0  0
   19.6334  -25.1359  -12.6314 C   0  0  0  0  0  0  0  0  0  0  0  0
   19.5997  -26.2381  -11.8091 C   0  0  0  0  0  0  0  0  0  0  0  0
   20.8597  -30.7582  -11.0060 C   0  0  0  0  0  0  0  0  0  0  0  0
   19.9536  -31.3244  -10.3491 O   0  0  0  0  0  0  0  0  0  0  0  0
   22.1438  -31.3447  -11.0295 N   0  0  0  0  0  0  0  0  0  0  0  0
   22.4965  -32.5561  -10.3254 C   0  0  1  0  0  0  0  0  0  0  0  0
   23.7655  -33.1075  -10.9068 C   0  0  0  0  0  0  0  0  0  0  0  0
   24.2593  -34.3142  -10.2575 C   0  0  0  0  0  0  0  0  0  0  0  0
   23.6641  -35.4029  -10.4347 O   0  0  0  0  0  0  0  0  0  0  0  0
   22.7006  -32.2145   -8.8998 C   0  0  0  0  0  0  0  0  0  0  0  0
   23.4085  -31.2311   -8.5668 O   0  0  0  0  0  0  0  0  0  0  0  0
   25.3752  -34.2891   -9.4452 O   0  0  0  0  0  0  0  0  0  0  0  0
   19.8875  -32.5475   -1.5489 C   0  0  0  0  0  0  0  0  0  0  0  0
   19.9354  -33.2433   -3.2012 S   0  0  0  0  0  0  0  0  0  0  0  0
   21.4642  -32.8178   -4.0892 C   0  0  0  0  0  0  0  0  0  0  0  0
   21.2503  -33.1507   -5.5361 C   0  0  0  0  0  0  0  0  0  0  0  0
   22.3516  -32.6687   -6.4347 C   0  0  2  0  0  0  0  0  0  0  0  0
   22.1202  -32.9617   -7.8275 N   0  0  0  0  0  0  0  0  0  0  0  0
   23.6408  -33.2821   -6.0265 C   0  0  0  0  0  0  0  0  0  0  0  0
   24.1425  -34.3855   -6.6885 O   0  0  0  0  0  0  0  0  0  0  0  0
   24.3294  -32.8284   -5.0667 O   0  0  0  0  0  0  0  0  0  0  0  0
  2  1  1  1
  2 10  1  0
  3  2  1  0
  4  3  1  0
  4  9  2  0
  5  4  1  0
  6  5  2  0
  6  7  1  0
  7  8  2  0
  8  9  1  0
 10 11  2  0
 12 10  1  0
 12 13  1  0
 13 14  1  6
 14 15  1  0
 15 19  1  0
 16 15  2  0
 17 25  1  0
 17 13  1  0
 18 17  2  0
 20 21  1  0
 22 21  1  0
 23 22  1  0
 24 23  1  1
 24 25  1  0
 26 27  1  0
 26 24  1  0
 28 26  2  0
M  END
$$$$
