FDM.pdb
     RDKit          3D

 28 28  0  0  1  0  0  0  0  0999 V2000
   25.8054  -22.1348  -12.8463 N   0  0  0  0  0  0  0  0  0  0  0  0
   24.7979  -21.1248  -13.0074 C   0  0  1  0  0  0  0  0  0  0  0  0
   25.2296  -19.9410  -12.1324 C   0  0  0  0  0  0  0  0  0  0  0  0
   25.0285  -20.3576  -10.7114 C   0  0  0  0  0  0  0  0  0  0  0  0
   26.1049  -20.4229   -9.8267 C   0  0  0  0  0  0  0  0  0  0  0  0
   25.9538  -20.8016   -8.5135 C   0  0  0  0  0  0  0  0  0  0  0  0
   24.7099  -21.1303   -8.0383 C   0  0  0  0  0  0  0  0  0  0  0  0
   23.6364  -21.0747   -8.8853 C   0  0  0  0  0  0  0  0  0  0  0  0
   23.7946  -20.6950  -10.1978 C   0  0  0  0  0  0  0  0  0  0  0  0
   24.5958  -20.7204  -14.4030 C   0  0  0  0  0  0  0  0  0  0  0  0
   25.5910  -20.6144  -15.1589 O   0  0  0  0  0  0  0  0  0  0  0  0
   23.3152  -20.4447  -14.9298 N   0  0  0  0  0  0  0  0  0  0  0  0
   23.0758  -19.9535  -16.2674 C   0  0  1  0  0  0  0  0  0  0  0  0
   21.9443  -20.7283  -16.8772 C   0  0  0  0  0  0  0  0  0  0  0  0
   21.6055  -20.3411  -18.2399 C   0  0  0  0  0  0  0  0  0  0  0  0
   22.5167  -20.0274  -19.0413 O   0  0  0  0  0  0  0  0  0  0  0  0
   22.7136  -18.5216  -16.1715 C   0  0  0  0  0  0  0  0  0  0  0  0
   21.7569  -18.1448  -15.4491 O   0  0  0  0  0  0  0  0  0  0  0  0
   20.2956  -20.3106  -18.6748 O   0  0  0  0  0  0  0  0  0  0  0  0
   27.3239  -13.2255  -15.0197 C   0  0  0  0  0  0  0  0  0  0  0  0
   26.3352  -13.7815  -16.4089 S   0  0  0  0  0  0  0  0  0  0  0  0
   24.8642  -14.7134  -15.8847 C   0  0  0  0  0  0  0  0  0  0  0  0
   24.1501  -15.1604  -17.1259 C   0  0  0  0  0  0  0  0  0  0  0  0
   23.0144  -16.1051  -16.8607 C   0  0  2  0  0  0  0  0  0  0  0  0
   23.4106  -17.4915  -16.8773 N   0  0  0  0  0  0  0  0  0  0  0  0
   21.9440  -15.9032  -17.8698 C   0  0  0  0  0  0  0  0  0  0  0  0
   21.0703  -14.8380  -17.7738 O   0  0  0  0  0  0  0  0  0  0  0  0
   21.7854  -16.6870  -18.8505 O   0  0  0  0  0  0  0  0  0  0  0  0
  2  1  1  6
  2 10  1  0
  3  2  1  0
  4  3  1  0
  4  9  2  0
  5  4  1  0
  6  5  2  0
  6  7  1  0
  7  8  2  0
  8  9  1  0
 10 11  2  0
 12 10  1  0
 12 13  1  0
 13 14  1  1
 14 15  1  0
 15 19  1  0
 16 15  2  0
 17 25  1  0
 17 13  1  0
 18 17  2  0
 20 21  1  0
 22 21  1  0
 23 22  1  0
 24 23  1  6
 24 25  1  0
 26 27  1  0
 26 24  1  0
 28 26  2  0
M  END
$$$$
