FDM.pdb
     RDKit          3D

 28 28  0  0  1  0  0  0  0  0999 V2000
   22.4966  -25.6627  -18.4801 N   0  0  0  0  0  0  0  0  0  0  0  0
   22.0012  -24.3152  -18.4947 C   0  0  1  0  0  0  0  0  0  0  0  0
   20.4738  -24.4180  -18.5930 C   0  0  0  0  0  0  0  0  0  0  0  0
   20.1062  -24.0655  -19.9980 C   0  0  0  0  0  0  0  0  0  0  0  0
   20.0881  -22.7360  -20.4197 C   0  0  0  0  0  0  0  0  0  0  0  0
   19.7550  -22.3781  -21.7049 C   0  0  0  0  0  0  0  0  0  0  0  0
   19.4262  -23.3471  -22.6183 C   0  0  0  0  0  0  0  0  0  0  0  0
   19.4360  -24.6595  -22.2307 C   0  0  0  0  0  0  0  0  0  0  0  0
   19.7703  -25.0106  -20.9434 C   0  0  0  0  0  0  0  0  0  0  0  0
   22.4164  -23.5289  -17.3280 C   0  0  0  0  0  0  0  0  0  0  0  0
   22.9845  -24.1080  -16.3714 O   0  0  0  0  0  0  0  0  0  0  0  0
   22.1991  -22.1365  -17.2415 N   0  0  0  0  0  0  0  0  0  0  0  0
   22.7305  -21.2950  -16.1940 C   0  0  1  0  0  0  0  0  0  0  0  0
   23.2945  -20.0473  -16.8084 C   0  0  0  0  0  0  0  0  0  0  0  0
   23.9297  -19.1371  -15.8651 C   0  0  0  0  0  0  0  0  0  0  0  0
   23.8838  -19.3837  -14.6371 O   0  0  0  0  0  0  0  0  0  0  0  0
   21.6212  -20.9497  -15.2770 C   0  0  0  0  0  0  0  0  0  0  0  0
   20.5454  -20.4716  -15.7166 O   0  0  0  0  0  0  0  0  0  0  0  0
   24.5863  -18.0006  -16.2928 O   0  0  0  0  0  0  0  0  0  0  0  0
   21.8065  -20.1269   -8.8697 C   0  0  0  0  0  0  0  0  0  0  0  0
   20.4234  -19.6304   -9.8979 S   0  0  0  0  0  0  0  0  0  0  0  0
   20.9217  -18.5003  -11.2327 C   0  0  0  0  0  0  0  0  0  0  0  0
   21.7168  -19.2983  -12.2231 C   0  0  0  0  0  0  0  0  0  0  0  0
   20.9199  -20.3643  -12.9167 C   0  0  2  0  0  0  0  0  0  0  0  0
   21.6944  -21.1317  -13.8605 N   0  0  0  0  0  0  0  0  0  0  0  0
   19.7707  -19.7515  -13.6300 C   0  0  0  0  0  0  0  0  0  0  0  0
   18.4724  -20.1059  -13.3195 O   0  0  0  0  0  0  0  0  0  0  0  0
   19.9259  -18.8886  -14.5424 O   0  0  0  0  0  0  0  0  0  0  0  0
  2  1  1  1
  2 10  1  0
  3  2  1  0
  4  3  1  0
  4  9  2  0
  5  4  1  0
  6  5  2  0
  6  7  1  0
  7  8  2  0
  8  9  1  0
 10 11  2  0
 12 10  1  0
 12 13  1  0
 13 14  1  6
 14 15  1  0
 15 19  1  0
 16 15  2  0
 17 25  1  0
 17 13  1  0
 18 17  2  0
 20 21  1  0
 22 21  1  0
 23 22  1  0
 24 23  1  6
 24 25  1  0
 26 27  1  0
 26 24  1  0
 28 26  2  0
M  END
$$$$
