FDM.pdb
     RDKit          3D

 28 28  0  0  1  0  0  0  0  0999 V2000
   28.6845  -19.1658  -13.1552 N   0  0  0  0  0  0  0  0  0  0  0  0
   27.9801  -20.3882  -13.4211 C   0  0  1  0  0  0  0  0  0  0  0  0
   27.8124  -21.0926  -12.0687 C   0  0  0  0  0  0  0  0  0  0  0  0
   29.1806  -21.4844  -11.6126 C   0  0  0  0  0  0  0  0  0  0  0  0
   29.6582  -21.0878  -10.3635 C   0  0  0  0  0  0  0  0  0  0  0  0
   30.9113  -21.4316   -9.9138 C   0  0  0  0  0  0  0  0  0  0  0  0
   31.7348  -22.1903  -10.7061 C   0  0  0  0  0  0  0  0  0  0  0  0
   31.2908  -22.5928  -11.9364 C   0  0  0  0  0  0  0  0  0  0  0  0
   30.0361  -22.2452  -12.3801 C   0  0  0  0  0  0  0  0  0  0  0  0
   26.6896  -20.1840  -14.0882 C   0  0  0  0  0  0  0  0  0  0  0  0
   25.9430  -19.2526  -13.7031 O   0  0  0  0  0  0  0  0  0  0  0  0
   26.2544  -21.0016  -15.1538 N   0  0  0  0  0  0  0  0  0  0  0  0
   24.9581  -20.8943  -15.7830 C   0  0  1  0  0  0  0  0  0  0  0  0
   24.9740  -21.6667  -17.0696 C   0  0  0  0  0  0  0  0  0  0  0  0
   23.7562  -21.5567  -17.8613 C   0  0  0  0  0  0  0  0  0  0  0  0
   22.8108  -20.8435  -17.4508 O   0  0  0  0  0  0  0  0  0  0  0  0
   23.9526  -21.4687  -14.8612 C   0  0  0  0  0  0  0  0  0  0  0  0
   24.1111  -22.6121  -14.3646 O   0  0  0  0  0  0  0  0  0  0  0  0
   23.6157  -22.2235  -19.0619 O   0  0  0  0  0  0  0  0  0  0  0  0
   20.7952  -18.0325  -10.5694 C   0  0  0  0  0  0  0  0  0  0  0  0
   20.4260  -19.7053  -10.0384 S   0  0  0  0  0  0  0  0  0  0  0  0
   20.5434  -20.9068  -11.3984 C   0  0  0  0  0  0  0  0  0  0  0  0
   21.5774  -20.3982  -12.3587 C   0  0  0  0  0  0  0  0  0  0  0  0
   21.8032  -21.3017  -13.5356 C   0  0  2  0  0  0  0  0  0  0  0  0
   22.7592  -20.7791  -14.4803 N   0  0  0  0  0  0  0  0  0  0  0  0
   20.5188  -21.5421  -14.2410 C   0  0  0  0  0  0  0  0  0  0  0  0
   19.9874  -20.5918  -15.0906 O   0  0  0  0  0  0  0  0  0  0  0  0
   19.8613  -22.6137  -14.0979 O   0  0  0  0  0  0  0  0  0  0  0  0
  2  1  1  1
  2 10  1  0
  3  2  1  0
  4  3  1  0
  4  9  2  0
  5  4  1  0
  6  5  2  0
  6  7  1  0
  7  8  2  0
  8  9  1  0
 10 11  2  0
 12 10  1  0
 12 13  1  0
 13 14  1  6
 14 15  1  0
 15 19  1  0
 16 15  2  0
 17 25  1  0
 17 13  1  0
 18 17  2  0
 20 21  1  0
 22 21  1  0
 23 22  1  0
 24 23  1  1
 24 25  1  0
 26 27  1  0
 26 24  1  0
 28 26  2  0
M  END
$$$$
