FDM.pdb
     RDKit          3D

 28 28  0  0  1  0  0  0  0  0999 V2000
   26.2112  -18.9146  -10.1512 N   0  0  0  0  0  0  0  0  0  0  0  0
   26.3774  -20.2487  -10.6550 C   0  0  1  0  0  0  0  0  0  0  0  0
   26.0587  -21.1931   -9.4890 C   0  0  0  0  0  0  0  0  0  0  0  0
   26.9359  -20.7852   -8.3499 C   0  0  0  0  0  0  0  0  0  0  0  0
   28.2980  -21.0856   -8.3538 C   0  0  0  0  0  0  0  0  0  0  0  0
   29.1323  -20.7244   -7.3221 C   0  0  0  0  0  0  0  0  0  0  0  0
   28.6266  -20.0447   -6.2434 C   0  0  0  0  0  0  0  0  0  0  0  0
   27.2933  -19.7373   -6.2142 C   0  0  0  0  0  0  0  0  0  0  0  0
   26.4644  -20.1018   -7.2497 C   0  0  0  0  0  0  0  0  0  0  0  0
   25.5444  -20.5368  -11.8276 C   0  0  0  0  0  0  0  0  0  0  0  0
   24.4120  -20.0052  -11.9186 O   0  0  0  0  0  0  0  0  0  0  0  0
   25.9725  -21.3952  -12.8636 N   0  0  0  0  0  0  0  0  0  0  0  0
   25.4114  -21.4042  -14.1950 C   0  0  1  0  0  0  0  0  0  0  0  0
   26.4312  -21.9496  -15.1515 C   0  0  0  0  0  0  0  0  0  0  0  0
   27.3427  -20.9558  -15.7023 C   0  0  0  0  0  0  0  0  0  0  0  0
   28.4909  -21.3009  -16.0675 O   0  0  0  0  0  0  0  0  0  0  0  0
   24.2146  -22.2750  -14.1819 C   0  0  0  0  0  0  0  0  0  0  0  0
   24.2005  -23.3425  -13.5191 O   0  0  0  0  0  0  0  0  0  0  0  0
   26.9710  -19.6327  -15.8333 O   0  0  0  0  0  0  0  0  0  0  0  0
   20.8382  -21.9036   -9.6280 C   0  0  0  0  0  0  0  0  0  0  0  0
   19.9975  -20.9432  -10.8881 S   0  0  0  0  0  0  0  0  0  0  0  0
   20.0689  -21.7325  -12.5248 C   0  0  0  0  0  0  0  0  0  0  0  0
   21.4510  -21.5178  -13.0668 C   0  0  0  0  0  0  0  0  0  0  0  0
   21.6932  -22.1937  -14.3848 C   0  0  2  0  0  0  0  0  0  0  0  0
   23.0193  -21.9695  -14.9050 N   0  0  0  0  0  0  0  0  0  0  0  0
   20.7027  -21.7198  -15.3844 C   0  0  0  0  0  0  0  0  0  0  0  0
   19.5616  -22.4498  -15.6534 O   0  0  0  0  0  0  0  0  0  0  0  0
   20.8566  -20.6406  -16.0269 O   0  0  0  0  0  0  0  0  0  0  0  0
  2  1  1  1
  2 10  1  0
  3  2  1  0
  4  3  1  0
  4  9  2  0
  5  4  1  0
  6  5  2  0
  6  7  1  0
  7  8  2  0
  8  9  1  0
 10 11  2  0
 12 10  1  0
 12 13  1  0
 13 14  1  6
 14 15  1  0
 15 19  1  0
 16 15  2  0
 17 25  1  0
 17 13  1  0
 18 17  2  0
 20 21  1  0
 22 21  1  0
 23 22  1  0
 24 23  1  1
 24 25  1  0
 26 27  1  0
 26 24  1  0
 28 26  2  0
M  END
$$$$
