FDM.pdb
     RDKit          3D

 28 28  0  0  1  0  0  0  0  0999 V2000
   27.6412  -20.2147  -11.8912 N   0  0  0  0  0  0  0  0  0  0  0  0
   26.5747  -21.1169  -11.5594 C   0  0  1  0  0  0  0  0  0  0  0  0
   26.1366  -20.7612  -10.1329 C   0  0  0  0  0  0  0  0  0  0  0  0
   27.3629  -20.8059   -9.2800 C   0  0  0  0  0  0  0  0  0  0  0  0
   28.4675  -21.5702   -9.6562 C   0  0  0  0  0  0  0  0  0  0  0  0
   29.6107  -21.6325   -8.8946 C   0  0  0  0  0  0  0  0  0  0  0  0
   29.6869  -20.9259   -7.7215 C   0  0  0  0  0  0  0  0  0  0  0  0
   28.6172  -20.1679   -7.3290 C   0  0  0  0  0  0  0  0  0  0  0  0
   27.4766  -20.1101   -8.0956 C   0  0  0  0  0  0  0  0  0  0  0  0
   25.4505  -21.0615  -12.5002 C   0  0  0  0  0  0  0  0  0  0  0  0
   25.0666  -19.9471  -12.9290 O   0  0  0  0  0  0  0  0  0  0  0  0
   24.7809  -22.2228  -12.9434 N   0  0  0  0  0  0  0  0  0  0  0  0
   23.6593  -22.2158  -13.8544 C   0  0  1  0  0  0  0  0  0  0  0  0
   23.5280  -23.5746  -14.4781 C   0  0  0  0  0  0  0  0  0  0  0  0
   24.6796  -23.9985  -15.2629 C   0  0  0  0  0  0  0  0  0  0  0  0
   25.1126  -23.2607  -16.1790 O   0  0  0  0  0  0  0  0  0  0  0  0
   22.4404  -21.8965  -13.0778 C   0  0  0  0  0  0  0  0  0  0  0  0
   22.5196  -21.4771  -11.8959 O   0  0  0  0  0  0  0  0  0  0  0  0
   25.3113  -25.2020  -15.0215 O   0  0  0  0  0  0  0  0  0  0  0  0
   18.2567  -15.9675  -13.6131 C   0  0  0  0  0  0  0  0  0  0  0  0
   19.5230  -17.1858  -13.9724 S   0  0  0  0  0  0  0  0  0  0  0  0
   19.1144  -18.8282  -13.3071 C   0  0  0  0  0  0  0  0  0  0  0  0
   20.2817  -19.7283  -13.5853 C   0  0  0  0  0  0  0  0  0  0  0  0
   20.0228  -21.1698  -13.2573 C   0  0  2  0  0  0  0  0  0  0  0  0
   21.1191  -22.0393  -13.6057 N   0  0  0  0  0  0  0  0  0  0  0  0
   18.8019  -21.6363  -13.9620 C   0  0  0  0  0  0  0  0  0  0  0  0
   17.5744  -21.6377  -13.3292 O   0  0  0  0  0  0  0  0  0  0  0  0
   18.8298  -22.0484  -15.1581 O   0  0  0  0  0  0  0  0  0  0  0  0
  2  1  1  6
  2 10  1  0
  3  2  1  0
  4  3  1  0
  4  9  2  0
  5  4  1  0
  6  5  2  0
  6  7  1  0
  7  8  2  0
  8  9  1  0
 10 11  2  0
 12 10  1  0
 12 13  1  0
 13 14  1  1
 14 15  1  0
 15 19  1  0
 16 15  2  0
 17 25  1  0
 17 13  1  0
 18 17  2  0
 20 21  1  0
 22 21  1  0
 23 22  1  0
 24 23  1  6
 24 25  1  0
 26 27  1  0
 26 24  1  0
 28 26  2  0
M  END
$$$$
