FDM.pdb
     RDKit          3D

 28 28  0  0  1  0  0  0  0  0999 V2000
   26.8589  -19.3230  -10.1458 N   0  0  0  0  0  0  0  0  0  0  0  0
   26.2019  -20.5936  -10.2687 C   0  0  1  0  0  0  0  0  0  0  0  0
   25.5027  -20.8494   -8.9274 C   0  0  0  0  0  0  0  0  0  0  0  0
   26.5214  -20.6210   -7.8581 C   0  0  0  0  0  0  0  0  0  0  0  0
   26.4586  -19.4924   -7.0408 C   0  0  0  0  0  0  0  0  0  0  0  0
   27.3794  -19.2530   -6.0480 C   0  0  0  0  0  0  0  0  0  0  0  0
   28.4022  -20.1426   -5.8387 C   0  0  0  0  0  0  0  0  0  0  0  0
   28.4872  -21.2582   -6.6267 C   0  0  0  0  0  0  0  0  0  0  0  0
   27.5626  -21.4916   -7.6181 C   0  0  0  0  0  0  0  0  0  0  0  0
   25.2589  -20.6561  -11.3908 C   0  0  0  0  0  0  0  0  0  0  0  0
   24.4216  -19.7340  -11.5376 O   0  0  0  0  0  0  0  0  0  0  0  0
   25.2592  -21.7220  -12.3168 N   0  0  0  0  0  0  0  0  0  0  0  0
   24.5003  -21.7298  -13.5463 C   0  0  1  0  0  0  0  0  0  0  0  0
   25.3794  -22.2190  -14.6600 C   0  0  0  0  0  0  0  0  0  0  0  0
   26.4127  -21.2810  -15.0774 C   0  0  0  0  0  0  0  0  0  0  0  0
   26.1005  -20.1031  -15.3709 O   0  0  0  0  0  0  0  0  0  0  0  0
   23.3515  -22.6462  -13.3698 C   0  0  0  0  0  0  0  0  0  0  0  0
   23.5296  -23.8768  -13.1880 O   0  0  0  0  0  0  0  0  0  0  0  0
   27.7379  -21.6593  -15.1587 O   0  0  0  0  0  0  0  0  0  0  0  0
   17.7514  -21.0218  -10.5882 C   0  0  0  0  0  0  0  0  0  0  0  0
   17.7482  -22.8152  -10.5753 S   0  0  0  0  0  0  0  0  0  0  0  0
   18.7455  -23.5206  -11.9225 C   0  0  0  0  0  0  0  0  0  0  0  0
   19.9039  -22.5963  -12.1548 C   0  0  0  0  0  0  0  0  0  0  0  0
   20.8649  -23.0850  -13.1989 C   0  0  2  0  0  0  0  0  0  0  0  0
   21.9912  -22.2058  -13.3930 N   0  0  0  0  0  0  0  0  0  0  0  0
   20.1603  -23.2503  -14.4955 C   0  0  0  0  0  0  0  0  0  0  0  0
   19.5757  -24.4541  -14.8367 O   0  0  0  0  0  0  0  0  0  0  0  0
   20.0646  -22.3090  -15.3356 O   0  0  0  0  0  0  0  0  0  0  0  0
  2  1  1  1
  2 10  1  0
  3  2  1  0
  4  3  1  0
  4  9  2  0
  5  4  1  0
  6  5  2  0
  6  7  1  0
  7  8  2  0
  8  9  1  0
 10 11  2  0
 12 10  1  0
 12 13  1  0
 13 14  1  6
 14 15  1  0
 15 19  1  0
 16 15  2  0
 17 25  1  0
 17 13  1  0
 18 17  2  0
 20 21  1  0
 22 21  1  0
 23 22  1  0
 24 23  1  1
 24 25  1  0
 26 27  1  0
 26 24  1  0
 28 26  2  0
M  END
$$$$
