FDM.pdb
     RDKit          3D

 28 28  0  0  1  0  0  0  0  0999 V2000
   25.3843  -17.7297  -15.9101 N   0  0  0  0  0  0  0  0  0  0  0  0
   26.0775  -18.2182  -14.7515 C   0  0  1  0  0  0  0  0  0  0  0  0
   27.1444  -17.1693  -14.4128 C   0  0  0  0  0  0  0  0  0  0  0  0
   28.1836  -17.2480  -15.4839 C   0  0  0  0  0  0  0  0  0  0  0  0
   29.0186  -18.3604  -15.5890 C   0  0  0  0  0  0  0  0  0  0  0  0
   29.9840  -18.4641  -16.5627 C   0  0  0  0  0  0  0  0  0  0  0  0
   30.1469  -17.4495  -17.4711 C   0  0  0  0  0  0  0  0  0  0  0  0
   29.3407  -16.3466  -17.3906 C   0  0  0  0  0  0  0  0  0  0  0  0
   28.3769  -16.2493  -16.4140 C   0  0  0  0  0  0  0  0  0  0  0  0
   25.1935  -18.4786  -13.6101 C   0  0  0  0  0  0  0  0  0  0  0  0
   24.3491  -17.6116  -13.2807 O   0  0  0  0  0  0  0  0  0  0  0  0
   25.2583  -19.6758  -12.8645 N   0  0  0  0  0  0  0  0  0  0  0  0
   24.4717  -19.9395  -11.6815 C   0  0  1  0  0  0  0  0  0  0  0  0
   23.3451  -20.8640  -12.0399 C   0  0  0  0  0  0  0  0  0  0  0  0
   22.3646  -21.0682  -10.9823 C   0  0  0  0  0  0  0  0  0  0  0  0
   22.4769  -20.4428   -9.9019 O   0  0  0  0  0  0  0  0  0  0  0  0
   25.3522  -20.5808  -10.6795 C   0  0  0  0  0  0  0  0  0  0  0  0
   25.8902  -21.6927  -10.9105 O   0  0  0  0  0  0  0  0  0  0  0  0
   21.3060  -21.9401  -11.1409 O   0  0  0  0  0  0  0  0  0  0  0  0
   27.8227  -17.5740   -5.4980 C   0  0  0  0  0  0  0  0  0  0  0  0
   28.3879  -19.2381   -5.1404 S   0  0  0  0  0  0  0  0  0  0  0  0
   27.5622  -20.4879   -6.1715 C   0  0  0  0  0  0  0  0  0  0  0  0
   27.0096  -19.7832   -7.3748 C   0  0  0  0  0  0  0  0  0  0  0  0
   26.3129  -20.6963   -8.3409 C   0  0  2  0  0  0  0  0  0  0  0  0
   25.6453  -19.9939   -9.4088 N   0  0  0  0  0  0  0  0  0  0  0  0
   25.3153  -21.5271   -7.6202 C   0  0  0  0  0  0  0  0  0  0  0  0
   25.7134  -22.5877   -6.8302 O   0  0  0  0  0  0  0  0  0  0  0  0
   24.0719  -21.3047   -7.6956 O   0  0  0  0  0  0  0  0  0  0  0  0
  2  1  1  6
  2 10  1  0
  3  2  1  0
  4  3  1  0
  4  9  2  0
  5  4  1  0
  6  5  2  0
  6  7  1  0
  7  8  2  0
  8  9  1  0
 10 11  2  0
 12 10  1  0
 12 13  1  0
 13 14  1  6
 14 15  1  0
 15 19  1  0
 16 15  2  0
 17 25  1  0
 17 13  1  0
 18 17  2  0
 20 21  1  0
 22 21  1  0
 23 22  1  0
 24 23  1  1
 24 25  1  0
 26 27  1  0
 26 24  1  0
 28 26  2  0
M  END
$$$$
