FDM.pdb
     RDKit          3D

 28 28  0  0  1  0  0  0  0  0999 V2000
   24.3999   -9.8516  -17.9710 N   0  0  0  0  0  0  0  0  0  0  0  0
   23.7657   -9.4379  -16.7511 C   0  0  1  0  0  0  0  0  0  0  0  0
   24.6537   -8.3387  -16.1543 C   0  0  0  0  0  0  0  0  0  0  0  0
   25.9914   -8.9543  -15.8991 C   0  0  0  0  0  0  0  0  0  0  0  0
   26.1442   -9.9623  -14.9471 C   0  0  0  0  0  0  0  0  0  0  0  0
   27.3603  -10.5496  -14.6887 C   0  0  0  0  0  0  0  0  0  0  0  0
   28.4732  -10.1441  -15.3804 C   0  0  0  0  0  0  0  0  0  0  0  0
   28.3511   -9.1567  -16.3202 C   0  0  0  0  0  0  0  0  0  0  0  0
   27.1314   -8.5735  -16.5737 C   0  0  0  0  0  0  0  0  0  0  0  0
   22.3860   -8.9761  -16.9390 C   0  0  0  0  0  0  0  0  0  0  0  0
   22.0054   -8.6378  -18.0852 O   0  0  0  0  0  0  0  0  0  0  0  0
   21.4655   -8.8980  -15.8713 N   0  0  0  0  0  0  0  0  0  0  0  0
   20.0725   -8.5457  -16.0240 C   0  0  1  0  0  0  0  0  0  0  0  0
   19.2306   -9.5579  -15.3036 C   0  0  0  0  0  0  0  0  0  0  0  0
   19.1236  -10.8478  -15.9718 C   0  0  0  0  0  0  0  0  0  0  0  0
   18.7099  -10.9026  -17.1537 O   0  0  0  0  0  0  0  0  0  0  0  0
   19.8712   -7.2055  -15.4289 C   0  0  0  0  0  0  0  0  0  0  0  0
   20.2433   -6.9584  -14.2544 O   0  0  0  0  0  0  0  0  0  0  0  0
   19.4690  -12.0209  -15.3313 O   0  0  0  0  0  0  0  0  0  0  0  0
   18.2852   -1.0372  -17.9005 C   0  0  0  0  0  0  0  0  0  0  0  0
   19.4018   -2.2360  -18.6304 S   0  0  0  0  0  0  0  0  0  0  0  0
   19.8791   -3.5426  -17.4590 C   0  0  0  0  0  0  0  0  0  0  0  0
   18.7210   -3.7577  -16.5302 C   0  0  0  0  0  0  0  0  0  0  0  0
   18.9476   -4.8513  -15.5276 C   0  0  2  0  0  0  0  0  0  0  0  0
   19.2539   -6.1242  -16.1321 N   0  0  0  0  0  0  0  0  0  0  0  0
   17.7449   -5.0077  -14.6709 C   0  0  0  0  0  0  0  0  0  0  0  0
   17.3127   -3.9766  -13.8600 O   0  0  0  0  0  0  0  0  0  0  0  0
   17.0702   -6.0778  -14.6448 O   0  0  0  0  0  0  0  0  0  0  0  0
  2  1  1  6
  2 10  1  0
  3  2  1  0
  4  3  1  0
  4  9  2  0
  5  4  1  0
  6  5  2  0
  6  7  1  0
  7  8  2  0
  8  9  1  0
 10 11  2  0
 12 10  1  0
 12 13  1  0
 13 14  1  1
 14 15  1  0
 15 19  1  0
 16 15  2  0
 17 25  1  0
 17 13  1  0
 18 17  2  0
 20 21  1  0
 22 21  1  0
 23 22  1  0
 24 23  1  6
 24 25  1  0
 26 27  1  0
 26 24  1  0
 28 26  2  0
M  END
$$$$
