FDM.pdb
     RDKit          3D

 28 28  0  0  1  0  0  0  0  0999 V2000
   20.0504   -7.5101  -15.8349 N   0  0  0  0  0  0  0  0  0  0  0  0
   19.8166   -7.1732  -14.4589 C   0  0  1  0  0  0  0  0  0  0  0  0
   21.1650   -6.7099  -13.8930 C   0  0  0  0  0  0  0  0  0  0  0  0
   22.0803   -7.8904  -13.9350 C   0  0  0  0  0  0  0  0  0  0  0  0
   21.9975   -8.8935  -12.9693 C   0  0  0  0  0  0  0  0  0  0  0  0
   22.8239   -9.9924  -12.9796 C   0  0  0  0  0  0  0  0  0  0  0  0
   23.7687  -10.1249  -13.9651 C   0  0  0  0  0  0  0  0  0  0  0  0
   23.8713   -9.1549  -14.9251 C   0  0  0  0  0  0  0  0  0  0  0  0
   23.0413   -8.0582  -14.9088 C   0  0  0  0  0  0  0  0  0  0  0  0
   18.7753   -6.1561  -14.2767 C   0  0  0  0  0  0  0  0  0  0  0  0
   18.7722   -5.1447  -15.0183 O   0  0  0  0  0  0  0  0  0  0  0  0
   17.7706   -6.2743  -13.2917 N   0  0  0  0  0  0  0  0  0  0  0  0
   16.6947   -5.3270  -13.1112 C   0  0  1  0  0  0  0  0  0  0  0  0
   15.4301   -5.9116  -13.6692 C   0  0  0  0  0  0  0  0  0  0  0  0
   14.2664   -5.0397  -13.5841 C   0  0  0  0  0  0  0  0  0  0  0  0
   13.2125   -5.4604  -13.0519 O   0  0  0  0  0  0  0  0  0  0  0  0
   16.5400   -5.0806  -11.6599 C   0  0  0  0  0  0  0  0  0  0  0  0
   17.3969   -5.4957  -10.8399 O   0  0  0  0  0  0  0  0  0  0  0  0
   14.2949   -3.7511  -14.0788 O   0  0  0  0  0  0  0  0  0  0  0  0
   19.7561   -1.6041   -8.8685 C   0  0  0  0  0  0  0  0  0  0  0  0
   18.1909   -0.7351   -8.7615 S   0  0  0  0  0  0  0  0  0  0  0  0
   16.7792   -1.8676   -8.5835 C   0  0  0  0  0  0  0  0  0  0  0  0
   16.6959   -2.6820   -9.8404 C   0  0  0  0  0  0  0  0  0  0  0  0
   15.5080   -3.5981   -9.8873 C   0  0  2  0  0  0  0  0  0  0  0  0
   15.4311   -4.3699  -11.1030 N   0  0  0  0  0  0  0  0  0  0  0  0
   14.2574   -2.8106   -9.7429 C   0  0  0  0  0  0  0  0  0  0  0  0
   13.5515   -2.8118   -8.5559 O   0  0  0  0  0  0  0  0  0  0  0  0
   13.7876   -2.1121  -10.6876 O   0  0  0  0  0  0  0  0  0  0  0  0
  2  1  1  6
  2 10  1  0
  3  2  1  0
  4  3  1  0
  4  9  2  0
  5  4  1  0
  6  5  2  0
  6  7  1  0
  7  8  2  0
  8  9  1  0
 10 11  2  0
 12 10  1  0
 12 13  1  0
 13 14  1  1
 14 15  1  0
 15 19  1  0
 16 15  2  0
 17 25  1  0
 17 13  1  0
 18 17  2  0
 20 21  1  0
 22 21  1  0
 23 22  1  0
 24 23  1  6
 24 25  1  0
 26 27  1  0
 26 24  1  0
 28 26  2  0
M  END
$$$$
