FDM.pdb
     RDKit          3D

 28 28  0  0  1  0  0  0  0  0999 V2000
   14.9223  -14.1600    4.8898 N   0  0  0  0  0  0  0  0  0  0  0  0
   16.3095  -14.1904    5.2586 C   0  0  1  0  0  0  0  0  0  0  0  0
   16.5738  -12.9038    6.0509 C   0  0  0  0  0  0  0  0  0  0  0  0
   18.0482  -12.8353    6.2853 C   0  0  0  0  0  0  0  0  0  0  0  0
   18.9016  -12.3053    5.3176 C   0  0  0  0  0  0  0  0  0  0  0  0
   20.2620  -12.2274    5.5021 C   0  0  0  0  0  0  0  0  0  0  0  0
   20.8179  -12.6812    6.6710 C   0  0  0  0  0  0  0  0  0  0  0  0
   20.0031  -13.2059    7.6372 C   0  0  0  0  0  0  0  0  0  0  0  0
   18.6430  -13.2809    7.4461 C   0  0  0  0  0  0  0  0  0  0  0  0
   16.6827  -15.3841    6.0253 C   0  0  0  0  0  0  0  0  0  0  0  0
   16.1583  -15.5781    7.1480 O   0  0  0  0  0  0  0  0  0  0  0  0
   17.6157  -16.3280    5.5436 N   0  0  0  0  0  0  0  0  0  0  0  0
   18.0337  -17.5026    6.2739 C   0  0  1  0  0  0  0  0  0  0  0  0
   17.9815  -18.6911    5.3591 C   0  0  0  0  0  0  0  0  0  0  0  0
   16.6425  -19.0710    4.9295 C   0  0  0  0  0  0  0  0  0  0  0  0
   16.4627  -19.5055    3.7677 O   0  0  0  0  0  0  0  0  0  0  0  0
   19.4218  -17.2831    6.7385 C   0  0  0  0  0  0  0  0  0  0  0  0
   20.3190  -16.9143    5.9397 O   0  0  0  0  0  0  0  0  0  0  0  0
   15.5575  -18.9636    5.7764 O   0  0  0  0  0  0  0  0  0  0  0  0
   22.5173  -13.4705   11.3305 C   0  0  0  0  0  0  0  0  0  0  0  0
   23.2467  -14.3931    9.9765 S   0  0  0  0  0  0  0  0  0  0  0  0
   21.9934  -15.1211    8.8782 C   0  0  0  0  0  0  0  0  0  0  0  0
   21.5294  -16.3992    9.5116 C   0  0  0  0  0  0  0  0  0  0  0  0
   21.2070  -17.4801    8.5216 C   0  0  2  0  0  0  0  0  0  0  0  0
   19.8291  -17.4710    8.0963 N   0  0  0  0  0  0  0  0  0  0  0  0
   21.5163  -18.8092    9.1070 C   0  0  0  0  0  0  0  0  0  0  0  0
   22.7469  -19.4034    8.9072 O   0  0  0  0  0  0  0  0  0  0  0  0
   20.6782  -19.4497    9.8060 O   0  0  0  0  0  0  0  0  0  0  0  0
  2  1  1  1
  2 10  1  0
  3  2  1  0
  4  3  1  0
  4  9  2  0
  5  4  1  0
  6  5  2  0
  6  7  1  0
  7  8  2  0
  8  9  1  0
 10 11  2  0
 12 10  1  0
 12 13  1  0
 13 14  1  6
 14 15  1  0
 15 19  1  0
 16 15  2  0
 17 25  1  0
 17 13  1  0
 18 17  2  0
 20 21  1  0
 22 21  1  0
 23 22  1  0
 24 23  1  1
 24 25  1  0
 26 27  1  0
 26 24  1  0
 28 26  2  0
M  END
$$$$
