FDM.pdb
     RDKit          3D

 28 28  0  0  1  0  0  0  0  0999 V2000
   26.5141  -21.7228  -14.3929 N   0  0  0  0  0  0  0  0  0  0  0  0
   25.4601  -21.1462  -13.6067 C   0  0  1  0  0  0  0  0  0  0  0  0
   26.0593  -19.9122  -12.9202 C   0  0  0  0  0  0  0  0  0  0  0  0
   27.2029  -20.3935  -12.0870 C   0  0  0  0  0  0  0  0  0  0  0  0
   26.9916  -20.8831  -10.7981 C   0  0  0  0  0  0  0  0  0  0  0  0
   28.0214  -21.3337  -10.0062 C   0  0  0  0  0  0  0  0  0  0  0  0
   29.3076  -21.3090  -10.4820 C   0  0  0  0  0  0  0  0  0  0  0  0
   29.5428  -20.8335  -11.7435 C   0  0  0  0  0  0  0  0  0  0  0  0
   28.5079  -20.3842  -12.5305 C   0  0  0  0  0  0  0  0  0  0  0  0
   24.2686  -20.8037  -14.3910 C   0  0  0  0  0  0  0  0  0  0  0  0
   24.4090  -20.3857  -15.5652 O   0  0  0  0  0  0  0  0  0  0  0  0
   22.9622  -20.9278  -13.8700 N   0  0  0  0  0  0  0  0  0  0  0  0
   21.7631  -20.9290  -14.6761 C   0  0  1  0  0  0  0  0  0  0  0  0
   21.7956  -22.1124  -15.5986 C   0  0  0  0  0  0  0  0  0  0  0  0
   20.6410  -22.2306  -16.4788 C   0  0  0  0  0  0  0  0  0  0  0  0
   20.4805  -21.4040  -17.4072 O   0  0  0  0  0  0  0  0  0  0  0  0
   20.5998  -21.0292  -13.7665 C   0  0  0  0  0  0  0  0  0  0  0  0
   20.5393  -21.9306  -12.8930 O   0  0  0  0  0  0  0  0  0  0  0  0
   19.7115  -23.2381  -16.3151 O   0  0  0  0  0  0  0  0  0  0  0  0
   16.1770  -20.3548  -17.6941 C   0  0  0  0  0  0  0  0  0  0  0  0
   15.2862  -21.3355  -16.4853 S   0  0  0  0  0  0  0  0  0  0  0  0
   15.9765  -21.1681  -14.8112 C   0  0  0  0  0  0  0  0  0  0  0  0
   17.4356  -20.8518  -14.9569 C   0  0  0  0  0  0  0  0  0  0  0  0
   18.1183  -20.5440  -13.6563 C   0  0  2  0  0  0  0  0  0  0  0  0
   19.4899  -20.1288  -13.8168 N   0  0  0  0  0  0  0  0  0  0  0  0
   18.0817  -21.7367  -12.7725 C   0  0  0  0  0  0  0  0  0  0  0  0
   18.7474  -22.8963  -13.1182 O   0  0  0  0  0  0  0  0  0  0  0  0
   17.4478  -21.7453  -11.6775 O   0  0  0  0  0  0  0  0  0  0  0  0
  2  1  1  6
  2 10  1  0
  3  2  1  0
  4  3  1  0
  4  9  2  0
  5  4  1  0
  6  5  2  0
  6  7  1  0
  7  8  2  0
  8  9  1  0
 10 11  2  0
 12 10  1  0
 12 13  1  0
 13 14  1  6
 14 15  1  0
 15 19  1  0
 16 15  2  0
 17 25  1  0
 17 13  1  0
 18 17  2  0
 20 21  1  0
 22 21  1  0
 23 22  1  0
 24 23  1  6
 24 25  1  0
 26 27  1  0
 26 24  1  0
 28 26  2  0
M  END
$$$$
