DMS.pdb
     RDKit          3D

 23 22  0  0  1  0  0  0  0  0999 V2000
    7.9451  -16.5455   20.2336 N   0  0  0  0  0  0  0  0  0  0  0  0
    9.3212  -16.6481   20.6471 C   0  0  1  0  0  0  0  0  0  0  0  0
   10.1730  -16.0759   19.5350 C   0  0  0  0  0  0  0  0  0  0  0  0
    9.8588  -16.7936   18.2701 C   0  0  0  0  0  0  0  0  0  0  0  0
    9.7210  -16.1514   17.2043 O   0  0  0  0  0  0  0  0  0  0  0  0
    9.5715  -15.9976   21.9458 C   0  0  0  0  0  0  0  0  0  0  0  0
   10.7184  -15.7924   22.4114 O   0  0  0  0  0  0  0  0  0  0  0  0
    9.7072  -18.1871   18.2172 O   0  0  0  0  0  0  0  0  0  0  0  0
    6.8725  -11.3828   27.7198 C   0  0  0  0  0  0  0  0  0  0  0  0
    6.5592  -12.2390   26.1551 S   0  0  0  0  0  0  0  0  0  0  0  0
    7.8162  -13.5280   25.8645 C   0  0  0  0  0  0  0  0  0  0  0  0
    7.5727  -14.0770   24.4693 C   0  0  0  0  0  0  0  0  0  0  0  0
    8.6507  -15.0551   24.0623 C   0  0  2  0  0  0  0  0  0  0  0  0
    8.4802  -15.5671   22.7395 N   0  0  0  0  0  0  0  0  0  0  0  0
    8.8356  -16.1216   25.0773 C   0  0  0  0  0  0  0  0  0  0  0  0
    7.8549  -16.8471   25.3706 O   0  0  0  0  0  0  0  0  0  0  0  0
   12.5270  -17.4594   25.9152 O   0  0  0  0  0  0  0  0  0  0  0  0
   11.4766  -18.3653   26.0795 C   0  0  0  0  0  0  0  0  0  0  0  0
   10.2742  -17.5761   26.5482 C   0  0  2  0  0  0  0  0  0  0  0  0
   10.0512  -16.3951   25.7559 N   0  0  0  0  0  0  0  0  0  0  0  0
   10.4594  -17.1698   27.9581 C   0  0  0  0  0  0  0  0  0  0  0  0
   10.6454  -18.0982   28.9712 O   0  0  0  0  0  0  0  0  0  0  0  0
   10.4570  -15.9563   28.3098 O   0  0  0  0  0  0  0  0  0  0  0  0
  2  1  1  6
  3  2  1  0
  4  3  1  0
  5  4  2  0
  6  2  1  0
  7  6  2  0
  8  4  1  0
 10  9  1  0
 10 11  1  0
 11 12  1  0
 13 12  1  1
 13 15  1  0
 13 14  1  0
 14  6  1  0
 15 20  1  0
 16 15  2  0
 18 17  1  0
 19 18  1  6
 19 21  1  0
 20 19  1  0
 21 23  2  0
 21 22  1  0
M  END
$$$$
