DMS.pdb
     RDKit          3D

 23 22  0  0  1  0  0  0  0  0999 V2000
    9.2090  -15.4662   19.4419 N   0  0  0  0  0  0  0  0  0  0  0  0
    8.4636  -16.1571   20.4628 C   0  0  1  0  0  0  0  0  0  0  0  0
    8.7499  -17.6353   20.3115 C   0  0  0  0  0  0  0  0  0  0  0  0
    8.2795  -18.0822   18.9725 C   0  0  0  0  0  0  0  0  0  0  0  0
    7.0536  -18.1984   18.7470 O   0  0  0  0  0  0  0  0  0  0  0  0
    8.7615  -15.6571   21.8168 C   0  0  0  0  0  0  0  0  0  0  0  0
    9.9173  -15.6107   22.3026 O   0  0  0  0  0  0  0  0  0  0  0  0
    9.1671  -18.3852   17.9294 O   0  0  0  0  0  0  0  0  0  0  0  0
    7.8800  -11.9114   28.0192 C   0  0  0  0  0  0  0  0  0  0  0  0
    7.6562  -12.3821   26.2849 S   0  0  0  0  0  0  0  0  0  0  0  0
    6.8994  -14.0368   26.1602 C   0  0  0  0  0  0  0  0  0  0  0  0
    6.6661  -14.3065   24.6837 C   0  0  0  0  0  0  0  0  0  0  0  0
    7.9072  -14.8543   24.0172 C   0  0  2  0  0  0  0  0  0  0  0  0
    7.7085  -15.1952   22.6441 N   0  0  0  0  0  0  0  0  0  0  0  0
    8.5129  -15.9556   24.8060 C   0  0  0  0  0  0  0  0  0  0  0  0
    7.9031  -17.0499   24.8749 O   0  0  0  0  0  0  0  0  0  0  0  0
   12.3539  -18.2325   26.4267 O   0  0  0  0  0  0  0  0  0  0  0  0
   11.8627  -17.0724   25.8237 C   0  0  0  0  0  0  0  0  0  0  0  0
   10.3836  -16.9995   26.1324 C   0  0  2  0  0  0  0  0  0  0  0  0
    9.7470  -15.8733   25.5012 N   0  0  0  0  0  0  0  0  0  0  0  0
   10.1805  -16.8977   27.5938 C   0  0  0  0  0  0  0  0  0  0  0  0
   10.5635  -17.9102   28.4604 O   0  0  0  0  0  0  0  0  0  0  0  0
    9.6475  -15.8830   28.1254 O   0  0  0  0  0  0  0  0  0  0  0  0
  2  1  1  6
  3  2  1  0
  4  3  1  0
  5  4  2  0
  6  2  1  0
  7  6  2  0
  8  4  1  0
 10  9  1  0
 10 11  1  0
 11 12  1  0
 13 12  1  1
 13 15  1  0
 13 14  1  0
 14  6  1  0
 15 20  1  0
 16 15  2  0
 18 17  1  0
 19 18  1  1
 19 21  1  0
 20 19  1  0
 21 23  2  0
 21 22  1  0
M  END
$$$$
