DMS.pdb
     RDKit          3D

 23 22  0  0  1  0  0  0  0  0999 V2000
    7.2861  -16.2641   20.4497 N   0  0  0  0  0  0  0  0  0  0  0  0
    8.7121  -16.2267   20.6507 C   0  0  1  0  0  0  0  0  0  0  0  0
    9.3100  -15.4298   19.5118 C   0  0  0  0  0  0  0  0  0  0  0  0
    9.1760  -16.2129   18.2538 C   0  0  0  0  0  0  0  0  0  0  0  0
    9.4513  -17.4342   18.2450 O   0  0  0  0  0  0  0  0  0  0  0  0
    9.0831  -15.6925   21.9733 C   0  0  0  0  0  0  0  0  0  0  0  0
   10.2626  -15.4316   22.3121 O   0  0  0  0  0  0  0  0  0  0  0  0
    8.7456  -15.6318   17.0518 O   0  0  0  0  0  0  0  0  0  0  0  0
    7.0569  -11.5214   26.9581 C   0  0  0  0  0  0  0  0  0  0  0  0
    5.9447  -12.2646   25.7374 S   0  0  0  0  0  0  0  0  0  0  0  0
    6.8937  -13.1674   24.4683 C   0  0  0  0  0  0  0  0  0  0  0  0
    7.2445  -14.5222   25.0586 C   0  0  0  0  0  0  0  0  0  0  0  0
    8.3835  -15.1752   24.3097 C   0  0  2  0  0  0  0  0  0  0  0  0
    8.0781  -15.4479   22.9409 N   0  0  0  0  0  0  0  0  0  0  0  0
    8.9085  -16.3595   25.0334 C   0  0  0  0  0  0  0  0  0  0  0  0
    8.2653  -17.4348   24.9704 O   0  0  0  0  0  0  0  0  0  0  0  0
   12.5425  -18.9756   26.5145 O   0  0  0  0  0  0  0  0  0  0  0  0
   12.1163  -17.7654   25.9626 C   0  0  0  0  0  0  0  0  0  0  0  0
   10.6698  -17.5760   26.3625 C   0  0  2  0  0  0  0  0  0  0  0  0
   10.0994  -16.3779   25.8044 N   0  0  0  0  0  0  0  0  0  0  0  0
   10.5615  -17.5075   27.8359 C   0  0  0  0  0  0  0  0  0  0  0  0
   10.9511  -18.5600   28.6503 O   0  0  0  0  0  0  0  0  0  0  0  0
   10.1082  -16.4864   28.4260 O   0  0  0  0  0  0  0  0  0  0  0  0
  2  1  1  6
  3  2  1  0
  4  3  1  0
  5  4  2  0
  6  2  1  0
  7  6  2  0
  8  4  1  0
 10  9  1  0
 10 11  1  0
 11 12  1  0
 13 12  1  1
 13 15  1  0
 13 14  1  0
 14  6  1  0
 15 20  1  0
 16 15  2  0
 18 17  1  0
 19 18  1  1
 19 21  1  0
 20 19  1  0
 21 23  2  0
 21 22  1  0
M  END
$$$$
