DMS.pdb
     RDKit          3D

 23 22  0  0  1  0  0  0  0  0999 V2000
    9.9696  -15.9750   19.5136 N   0  0  0  0  0  0  0  0  0  0  0  0
    9.0060  -16.4715   20.4622 C   0  0  1  0  0  0  0  0  0  0  0  0
    8.9663  -17.9777   20.3225 C   0  0  0  0  0  0  0  0  0  0  0  0
    8.5494  -18.3218   18.9362 C   0  0  0  0  0  0  0  0  0  0  0  0
    8.8428  -17.5594   17.9875 O   0  0  0  0  0  0  0  0  0  0  0  0
    9.2937  -16.0369   21.8409 C   0  0  0  0  0  0  0  0  0  0  0  0
   10.3723  -16.2768   22.4351 O   0  0  0  0  0  0  0  0  0  0  0  0
    7.8273  -19.4869   18.6385 O   0  0  0  0  0  0  0  0  0  0  0  0
    6.8642  -11.4504   27.8538 C   0  0  0  0  0  0  0  0  0  0  0  0
    6.5185  -12.1860   26.2356 S   0  0  0  0  0  0  0  0  0  0  0  0
    7.7665  -13.4507   25.8241 C   0  0  0  0  0  0  0  0  0  0  0  0
    7.4824  -13.9070   24.4035 C   0  0  0  0  0  0  0  0  0  0  0  0
    8.5321  -14.8774   23.9124 C   0  0  2  0  0  0  0  0  0  0  0  0
    8.3211  -15.3056   22.5658 N   0  0  0  0  0  0  0  0  0  0  0  0
    8.7203  -16.0063   24.8568 C   0  0  0  0  0  0  0  0  0  0  0  0
    7.7706  -16.8074   25.0311 O   0  0  0  0  0  0  0  0  0  0  0  0
   12.4149  -17.4141   25.8953 O   0  0  0  0  0  0  0  0  0  0  0  0
   11.3020  -18.2579   25.8791 C   0  0  0  0  0  0  0  0  0  0  0  0
   10.1215  -17.4511   26.3727 C   0  0  2  0  0  0  0  0  0  0  0  0
    9.9066  -16.2607   25.5923 N   0  0  0  0  0  0  0  0  0  0  0  0
   10.3366  -17.0582   27.7822 C   0  0  0  0  0  0  0  0  0  0  0  0
   10.3306  -15.7308   28.1833 O   0  0  0  0  0  0  0  0  0  0  0  0
   10.5369  -17.9126   28.6911 O   0  0  0  0  0  0  0  0  0  0  0  0
  2  1  1  6
  3  2  1  0
  4  3  1  0
  5  4  2  0
  6  2  1  0
  7  6  2  0
  8  4  1  0
 10  9  1  0
 10 11  1  0
 11 12  1  0
 13 12  1  1
 13 15  1  0
 13 14  1  0
 14  6  1  0
 15 20  1  0
 16 15  2  0
 18 17  1  0
 19 18  1  6
 19 21  1  0
 20 19  1  0
 21 23  2  0
 21 22  1  0
M  END
$$$$
