DMS.pdb
     RDKit          3D

 23 22  0  0  1  0  0  0  0  0999 V2000
    9.0259  -14.9855   19.8392 N   0  0  0  0  0  0  0  0  0  0  0  0
    8.5025  -15.9607   20.7612 C   0  0  1  0  0  0  0  0  0  0  0  0
    8.8910  -17.3286   20.2438 C   0  0  0  0  0  0  0  0  0  0  0  0
    8.1340  -17.6029   18.9926 C   0  0  0  0  0  0  0  0  0  0  0  0
    8.0442  -16.7198   18.1096 O   0  0  0  0  0  0  0  0  0  0  0  0
    8.9522  -15.7288   22.1455 C   0  0  0  0  0  0  0  0  0  0  0  0
   10.1587  -15.6540   22.4816 O   0  0  0  0  0  0  0  0  0  0  0  0
    7.5034  -18.8327   18.7528 O   0  0  0  0  0  0  0  0  0  0  0  0
    6.2893  -10.5077   26.0893 C   0  0  0  0  0  0  0  0  0  0  0  0
    6.2408  -12.3100   26.2584 S   0  0  0  0  0  0  0  0  0  0  0  0
    7.3948  -13.0973   25.0860 C   0  0  0  0  0  0  0  0  0  0  0  0
    7.3173  -14.5949   25.3270 C   0  0  0  0  0  0  0  0  0  0  0  0
    8.3704  -15.3388   24.5382 C   0  0  2  0  0  0  0  0  0  0  0  0
    7.9967  -15.5775   23.1800 N   0  0  0  0  0  0  0  0  0  0  0  0
    8.8166  -16.5671   25.2410 C   0  0  0  0  0  0  0  0  0  0  0  0
    8.0404  -17.5520   25.2792 O   0  0  0  0  0  0  0  0  0  0  0  0
   12.7204  -17.1987   25.9920 O   0  0  0  0  0  0  0  0  0  0  0  0
   11.9197  -18.3368   25.8718 C   0  0  0  0  0  0  0  0  0  0  0  0
   10.5498  -17.9785   26.4040 C   0  0  2  0  0  0  0  0  0  0  0  0
   10.0712  -16.7241   25.8848 N   0  0  0  0  0  0  0  0  0  0  0  0
   10.5918  -17.8924   27.8799 C   0  0  0  0  0  0  0  0  0  0  0  0
   11.0003  -18.9590   28.6660 O   0  0  0  0  0  0  0  0  0  0  0  0
   10.2570  -16.8425   28.4980 O   0  0  0  0  0  0  0  0  0  0  0  0
  2  1  1  6
  3  2  1  0
  4  3  1  0
  5  4  2  0
  6  2  1  0
  7  6  2  0
  8  4  1  0
 10  9  1  0
 10 11  1  0
 11 12  1  0
 13 12  1  1
 13 15  1  0
 13 14  1  0
 14  6  1  0
 15 20  1  0
 16 15  2  0
 18 17  1  0
 19 18  1  6
 19 21  1  0
 20 19  1  0
 21 23  2  0
 21 22  1  0
M  END
$$$$
