DMS.pdb
     RDKit          3D

 23 22  0  0  1  0  0  0  0  0999 V2000
    7.9824  -16.6677   20.2347 N   0  0  0  0  0  0  0  0  0  0  0  0
    9.3833  -16.6229   20.5671 C   0  0  1  0  0  0  0  0  0  0  0  0
   10.1068  -15.9888   19.3991 C   0  0  0  0  0  0  0  0  0  0  0  0
    9.8979  -16.8298   18.1895 C   0  0  0  0  0  0  0  0  0  0  0  0
    9.1709  -16.4160   17.2580 O   0  0  0  0  0  0  0  0  0  0  0  0
    9.6406  -15.9259   21.8400 C   0  0  0  0  0  0  0  0  0  0  0  0
   10.7825  -15.5720   22.2209 O   0  0  0  0  0  0  0  0  0  0  0  0
   10.4919  -18.0920   18.0430 O   0  0  0  0  0  0  0  0  0  0  0  0
    6.6877  -11.6834   27.8085 C   0  0  0  0  0  0  0  0  0  0  0  0
    6.4564  -12.4918   26.2046 S   0  0  0  0  0  0  0  0  0  0  0  0
    7.8656  -13.5860   25.8267 C   0  0  0  0  0  0  0  0  0  0  0  0
    7.6135  -14.1721   24.4483 C   0  0  0  0  0  0  0  0  0  0  0  0
    8.7586  -15.0520   24.0020 C   0  0  2  0  0  0  0  0  0  0  0  0
    8.5624  -15.6227   22.7070 N   0  0  0  0  0  0  0  0  0  0  0  0
    9.1097  -16.0603   25.0325 C   0  0  0  0  0  0  0  0  0  0  0  0
    8.2387  -16.8954   25.3760 O   0  0  0  0  0  0  0  0  0  0  0  0
   12.6218  -17.0772   25.1434 O   0  0  0  0  0  0  0  0  0  0  0  0
   12.1702  -17.7044   26.3069 C   0  0  0  0  0  0  0  0  0  0  0  0
   10.7441  -17.2535   26.5335 C   0  0  2  0  0  0  0  0  0  0  0  0
   10.3716  -16.1612   25.6733 N   0  0  0  0  0  0  0  0  0  0  0  0
   10.5702  -16.8271   27.9390 C   0  0  0  0  0  0  0  0  0  0  0  0
   10.8344  -17.6773   29.0021 O   0  0  0  0  0  0  0  0  0  0  0  0
   10.1719  -15.6668   28.2409 O   0  0  0  0  0  0  0  0  0  0  0  0
  2  1  1  6
  3  2  1  0
  4  3  1  0
  5  4  2  0
  6  2  1  0
  7  6  2  0
  8  4  1  0
 10  9  1  0
 10 11  1  0
 11 12  1  0
 13 12  1  1
 13 15  1  0
 13 14  1  0
 14  6  1  0
 15 20  1  0
 16 15  2  0
 18 17  1  0
 19 18  1  1
 19 21  1  0
 20 19  1  0
 21 23  2  0
 21 22  1  0
M  END
$$$$
