DMS.pdb
     RDKit          3D

 23 22  0  0  1  0  0  0  0  0999 V2000
    8.6289  -16.3159   20.8206 N   0  0  0  0  0  0  0  0  0  0  0  0
    9.9357  -16.6504   21.3262 C   0  0  1  0  0  0  0  0  0  0  0  0
   10.9512  -16.1684   20.3132 C   0  0  0  0  0  0  0  0  0  0  0  0
   10.5099  -16.5835   18.9542 C   0  0  0  0  0  0  0  0  0  0  0  0
   10.1769  -17.7713   18.7404 O   0  0  0  0  0  0  0  0  0  0  0  0
   10.1768  -16.1063   22.6746 C   0  0  0  0  0  0  0  0  0  0  0  0
   11.3107  -16.0476   23.2085 O   0  0  0  0  0  0  0  0  0  0  0  0
   10.4488  -15.6845   17.8792 O   0  0  0  0  0  0  0  0  0  0  0  0
    5.6259  -12.7488   26.2821 C   0  0  0  0  0  0  0  0  0  0  0  0
    7.2508  -12.3778   26.9902 S   0  0  0  0  0  0  0  0  0  0  0  0
    8.4203  -13.7388   26.6644 C   0  0  0  0  0  0  0  0  0  0  0  0
    8.2374  -14.1410   25.2112 C   0  0  0  0  0  0  0  0  0  0  0  0
    9.2392  -15.1943   24.7971 C   0  0  2  0  0  0  0  0  0  0  0  0
    9.0912  -15.6133   23.4392 N   0  0  0  0  0  0  0  0  0  0  0  0
    9.2699  -16.3284   25.7535 C   0  0  0  0  0  0  0  0  0  0  0  0
    8.2522  -17.0550   25.8554 O   0  0  0  0  0  0  0  0  0  0  0  0
   11.2927  -18.9944   25.6353 O   0  0  0  0  0  0  0  0  0  0  0  0
   11.4180  -18.8424   27.0181 C   0  0  0  0  0  0  0  0  0  0  0  0
   10.3984  -17.8115   27.4492 C   0  0  2  0  0  0  0  0  0  0  0  0
   10.3746  -16.6665   26.5772 N   0  0  0  0  0  0  0  0  0  0  0  0
   10.6994  -17.3520   28.8224 C   0  0  0  0  0  0  0  0  0  0  0  0
   10.7372  -18.2270   29.8974 O   0  0  0  0  0  0  0  0  0  0  0  0
   10.9368  -16.1391   29.0844 O   0  0  0  0  0  0  0  0  0  0  0  0
  2  1  1  6
  3  2  1  0
  4  3  1  0
  5  4  2  0
  6  2  1  0
  7  6  2  0
  8  4  1  0
 10  9  1  0
 10 11  1  0
 11 12  1  0
 13 12  1  1
 13 15  1  0
 13 14  1  0
 14  6  1  0
 15 20  1  0
 16 15  2  0
 18 17  1  0
 19 18  1  6
 19 21  1  0
 20 19  1  0
 21 23  2  0
 21 22  1  0
M  END
$$$$
