DMS.pdb
     RDKit          3D

 23 22  0  0  1  0  0  0  0  0999 V2000
    8.4500  -16.7999   20.0041 N   0  0  0  0  0  0  0  0  0  0  0  0
    9.8060  -16.8381   20.4889 C   0  0  1  0  0  0  0  0  0  0  0  0
   10.6940  -16.2826   19.3969 C   0  0  0  0  0  0  0  0  0  0  0  0
   10.4969  -17.0866   18.1605 C   0  0  0  0  0  0  0  0  0  0  0  0
   10.7306  -18.3165   18.1704 O   0  0  0  0  0  0  0  0  0  0  0  0
    9.9690  -16.1270   21.7696 C   0  0  0  0  0  0  0  0  0  0  0  0
   11.0820  -15.8994   22.3020 O   0  0  0  0  0  0  0  0  0  0  0  0
   10.0511  -16.5161   16.9591 O   0  0  0  0  0  0  0  0  0  0  0  0
    6.5298  -11.7899   27.4327 C   0  0  0  0  0  0  0  0  0  0  0  0
    6.3494  -12.7433   25.9037 S   0  0  0  0  0  0  0  0  0  0  0  0
    7.8587  -13.7100   25.5668 C   0  0  0  0  0  0  0  0  0  0  0  0
    7.6954  -14.3179   24.1844 C   0  0  0  0  0  0  0  0  0  0  0  0
    8.9000  -15.1442   23.7962 C   0  0  2  0  0  0  0  0  0  0  0  0
    8.8273  -15.6606   22.4660 N   0  0  0  0  0  0  0  0  0  0  0  0
    9.1984  -16.1881   24.8076 C   0  0  0  0  0  0  0  0  0  0  0  0
    8.4644  -17.2044   24.8553 O   0  0  0  0  0  0  0  0  0  0  0  0
   12.1435  -17.8490   24.9582 O   0  0  0  0  0  0  0  0  0  0  0  0
   12.0028  -17.7550   26.3447 C   0  0  0  0  0  0  0  0  0  0  0  0
   10.6149  -17.2194   26.6183 C   0  0  2  0  0  0  0  0  0  0  0  0
   10.2645  -16.1323   25.7422 N   0  0  0  0  0  0  0  0  0  0  0  0
   10.5269  -16.7450   28.0164 C   0  0  0  0  0  0  0  0  0  0  0  0
   10.1047  -15.4623   28.3311 O   0  0  0  0  0  0  0  0  0  0  0  0
   10.8324  -17.4851   28.9938 O   0  0  0  0  0  0  0  0  0  0  0  0
  2  1  1  6
  3  2  1  0
  4  3  1  0
  5  4  2  0
  6  2  1  0
  7  6  2  0
  8  4  1  0
 10  9  1  0
 10 11  1  0
 11 12  1  0
 13 12  1  1
 13 15  1  0
 13 14  1  0
 14  6  1  0
 15 20  1  0
 16 15  2  0
 18 17  1  0
 19 18  1  6
 19 21  1  0
 20 19  1  0
 21 23  2  0
 21 22  1  0
M  END
$$$$
