DMS.pdb
     RDKit          3D

 23 22  0  0  1  0  0  0  0  0999 V2000
    8.7259  -15.9807   19.6844 N   0  0  0  0  0  0  0  0  0  0  0  0
    8.4530  -16.7517   20.8703 C   0  0  1  0  0  0  0  0  0  0  0  0
    9.0881  -18.1124   20.6830 C   0  0  0  0  0  0  0  0  0  0  0  0
    8.4451  -18.7883   19.5238 C   0  0  0  0  0  0  0  0  0  0  0  0
    8.9977  -18.7648   18.4007 O   0  0  0  0  0  0  0  0  0  0  0  0
    8.9071  -16.0779   22.0999 C   0  0  0  0  0  0  0  0  0  0  0  0
   10.1074  -16.0251   22.4615 O   0  0  0  0  0  0  0  0  0  0  0  0
    7.2216  -19.4652   19.6357 O   0  0  0  0  0  0  0  0  0  0  0  0
    6.7611  -11.2589   28.0553 C   0  0  0  0  0  0  0  0  0  0  0  0
    6.3281  -12.1371   26.5319 S   0  0  0  0  0  0  0  0  0  0  0  0
    7.7013  -13.2112   25.9963 C   0  0  0  0  0  0  0  0  0  0  0  0
    7.2660  -13.8728   24.7002 C   0  0  0  0  0  0  0  0  0  0  0  0
    8.3407  -14.7852   24.1551 C   0  0  2  0  0  0  0  0  0  0  0  0
    7.9634  -15.4442   22.9449 N   0  0  0  0  0  0  0  0  0  0  0  0
    8.8442  -15.7202   25.1915 C   0  0  0  0  0  0  0  0  0  0  0  0
    8.0580  -16.5801   25.6566 O   0  0  0  0  0  0  0  0  0  0  0  0
   12.3486  -17.2288   25.0902 O   0  0  0  0  0  0  0  0  0  0  0  0
   12.1363  -16.9828   26.4487 C   0  0  0  0  0  0  0  0  0  0  0  0
   10.6586  -16.7147   26.6294 C   0  0  2  0  0  0  0  0  0  0  0  0
   10.1651  -15.7235   25.7096 N   0  0  0  0  0  0  0  0  0  0  0  0
   10.3983  -16.2489   28.0087 C   0  0  0  0  0  0  0  0  0  0  0  0
    9.7929  -15.0289   28.2695 O   0  0  0  0  0  0  0  0  0  0  0  0
   10.7148  -16.9394   29.0183 O   0  0  0  0  0  0  0  0  0  0  0  0
  2  1  1  6
  3  2  1  0
  4  3  1  0
  5  4  2  0
  6  2  1  0
  7  6  2  0
  8  4  1  0
 10  9  1  0
 10 11  1  0
 11 12  1  0
 13 12  1  1
 13 15  1  0
 13 14  1  0
 14  6  1  0
 15 20  1  0
 16 15  2  0
 18 17  1  0
 19 18  1  1
 19 21  1  0
 20 19  1  0
 21 23  2  0
 21 22  1  0
M  END
$$$$
