DMS.pdb
     RDKit          3D

 23 22  0  0  1  0  0  0  0  0999 V2000
    8.9468  -14.9858   19.9127 N   0  0  0  0  0  0  0  0  0  0  0  0
    8.2736  -15.7476   20.9332 C   0  0  1  0  0  0  0  0  0  0  0  0
    8.3864  -17.2090   20.5572 C   0  0  0  0  0  0  0  0  0  0  0  0
    7.9957  -17.3706   19.1307 C   0  0  0  0  0  0  0  0  0  0  0  0
    7.5055  -16.4045   18.5032 O   0  0  0  0  0  0  0  0  0  0  0  0
    8.7932  -15.4673   22.2837 C   0  0  0  0  0  0  0  0  0  0  0  0
   10.0153  -15.4345   22.5658 O   0  0  0  0  0  0  0  0  0  0  0  0
    8.1557  -18.5825   18.4428 O   0  0  0  0  0  0  0  0  0  0  0  0
    6.7979  -11.7275   27.6072 C   0  0  0  0  0  0  0  0  0  0  0  0
    6.0894  -11.7975   25.9421 S   0  0  0  0  0  0  0  0  0  0  0  0
    7.1620  -12.7630   24.8269 C   0  0  0  0  0  0  0  0  0  0  0  0
    7.3784  -14.1159   25.4827 C   0  0  0  0  0  0  0  0  0  0  0  0
    8.3330  -14.9730   24.6836 C   0  0  2  0  0  0  0  0  0  0  0  0
    7.8915  -15.2165   23.3468 N   0  0  0  0  0  0  0  0  0  0  0  0
    8.6942  -16.2155   25.4101 C   0  0  0  0  0  0  0  0  0  0  0  0
    7.8708  -17.1619   25.4263 O   0  0  0  0  0  0  0  0  0  0  0  0
   11.3072  -18.3841   24.7505 O   0  0  0  0  0  0  0  0  0  0  0  0
   11.5183  -18.2839   26.1276 C   0  0  0  0  0  0  0  0  0  0  0  0
   10.2720  -17.6722   26.7281 C   0  0  2  0  0  0  0  0  0  0  0  0
    9.9157  -16.4268   26.1003 N   0  0  0  0  0  0  0  0  0  0  0  0
   10.4779  -17.4299   28.1725 C   0  0  0  0  0  0  0  0  0  0  0  0
   10.8286  -18.4490   29.0450 O   0  0  0  0  0  0  0  0  0  0  0  0
   10.3442  -16.2822   28.6834 O   0  0  0  0  0  0  0  0  0  0  0  0
  2  1  1  6
  3  2  1  0
  4  3  1  0
  5  4  2  0
  6  2  1  0
  7  6  2  0
  8  4  1  0
 10  9  1  0
 10 11  1  0
 11 12  1  0
 13 12  1  1
 13 15  1  0
 13 14  1  0
 14  6  1  0
 15 20  1  0
 16 15  2  0
 18 17  1  0
 19 18  1  6
 19 21  1  0
 20 19  1  0
 21 23  2  0
 21 22  1  0
M  END
$$$$
