DMS.pdb
     RDKit          3D

 23 22  0  0  1  0  0  0  0  0999 V2000
    8.4681  -16.4558   20.1350 N   0  0  0  0  0  0  0  0  0  0  0  0
    9.7463  -16.6506   20.7701 C   0  0  1  0  0  0  0  0  0  0  0  0
   10.8045  -16.1014   19.8382 C   0  0  0  0  0  0  0  0  0  0  0  0
   10.6902  -16.7872   18.5227 C   0  0  0  0  0  0  0  0  0  0  0  0
   10.7879  -18.0336   18.4566 O   0  0  0  0  0  0  0  0  0  0  0  0
    9.8072  -16.0499   22.1146 C   0  0  0  0  0  0  0  0  0  0  0  0
   10.8679  -15.9238   22.7728 O   0  0  0  0  0  0  0  0  0  0  0  0
   10.4731  -16.0848   17.3280 O   0  0  0  0  0  0  0  0  0  0  0  0
    7.2140  -11.7807   27.8547 C   0  0  0  0  0  0  0  0  0  0  0  0
    7.3069  -12.2520   26.1087 S   0  0  0  0  0  0  0  0  0  0  0  0
    7.2725  -14.0666   25.9297 C   0  0  0  0  0  0  0  0  0  0  0  0
    7.3436  -14.3660   24.4422 C   0  0  0  0  0  0  0  0  0  0  0  0
    8.5805  -15.1625   24.0955 C   0  0  2  0  0  0  0  0  0  0  0  0
    8.6215  -15.5780   22.7291 N   0  0  0  0  0  0  0  0  0  0  0  0
    8.7987  -16.2794   25.0477 C   0  0  0  0  0  0  0  0  0  0  0  0
    7.9025  -17.1491   25.1678 O   0  0  0  0  0  0  0  0  0  0  0  0
   12.4406  -17.5464   26.0187 O   0  0  0  0  0  0  0  0  0  0  0  0
   11.3697  -18.4247   26.1994 C   0  0  0  0  0  0  0  0  0  0  0  0
   10.1927  -17.6030   26.6766 C   0  0  2  0  0  0  0  0  0  0  0  0
    9.9578  -16.4496   25.8481 N   0  0  0  0  0  0  0  0  0  0  0  0
   10.4287  -17.1469   28.0636 C   0  0  0  0  0  0  0  0  0  0  0  0
   10.6581  -18.0386   29.1004 O   0  0  0  0  0  0  0  0  0  0  0  0
   10.4328  -15.9219   28.3727 O   0  0  0  0  0  0  0  0  0  0  0  0
  2  1  1  6
  3  2  1  0
  4  3  1  0
  5  4  2  0
  6  2  1  0
  7  6  2  0
  8  4  1  0
 10  9  1  0
 10 11  1  0
 11 12  1  0
 13 12  1  1
 13 15  1  0
 13 14  1  0
 14  6  1  0
 15 20  1  0
 16 15  2  0
 18 17  1  0
 19 18  1  6
 19 21  1  0
 20 19  1  0
 21 23  2  0
 21 22  1  0
M  END
$$$$
