DMS.pdb
     RDKit          3D

 23 22  0  0  1  0  0  0  0  0999 V2000
    9.9118  -15.2938   19.7889 N   0  0  0  0  0  0  0  0  0  0  0  0
    8.9138  -15.9134   20.6227 C   0  0  1  0  0  0  0  0  0  0  0  0
    8.9086  -17.3921   20.3015 C   0  0  0  0  0  0  0  0  0  0  0  0
    8.7020  -17.5661   18.8382 C   0  0  0  0  0  0  0  0  0  0  0  0
    7.7208  -18.2206   18.4186 O   0  0  0  0  0  0  0  0  0  0  0  0
    9.1281  -15.6448   22.0560 C   0  0  0  0  0  0  0  0  0  0  0  0
   10.2448  -15.7336   22.6210 O   0  0  0  0  0  0  0  0  0  0  0  0
    9.5760  -17.0177   17.8879 O   0  0  0  0  0  0  0  0  0  0  0  0
    8.4790  -11.5744   27.5264 C   0  0  0  0  0  0  0  0  0  0  0  0
    7.0293  -12.2008   26.6402 S   0  0  0  0  0  0  0  0  0  0  0  0
    7.1842  -13.9929   26.3394 C   0  0  0  0  0  0  0  0  0  0  0  0
    7.0207  -14.2064   24.8444 C   0  0  0  0  0  0  0  0  0  0  0  0
    8.1806  -14.9834   24.2652 C   0  0  2  0  0  0  0  0  0  0  0  0
    8.0349  -15.2629   22.8717 N   0  0  0  0  0  0  0  0  0  0  0  0
    8.4877  -16.1918   25.0696 C   0  0  0  0  0  0  0  0  0  0  0  0
    7.5818  -17.0417   25.2455 O   0  0  0  0  0  0  0  0  0  0  0  0
   12.2610  -17.4366   25.6533 O   0  0  0  0  0  0  0  0  0  0  0  0
   11.2576  -18.3984   25.7913 C   0  0  0  0  0  0  0  0  0  0  0  0
   10.0421  -17.6989   26.3584 C   0  0  2  0  0  0  0  0  0  0  0  0
    9.7437  -16.4721   25.6672 N   0  0  0  0  0  0  0  0  0  0  0  0
   10.2614  -17.3928   27.7887 C   0  0  0  0  0  0  0  0  0  0  0  0
   10.5832  -18.3784   28.7094 O   0  0  0  0  0  0  0  0  0  0  0  0
   10.1660  -16.2177   28.2429 O   0  0  0  0  0  0  0  0  0  0  0  0
  2  1  1  6
  3  2  1  0
  4  3  1  0
  5  4  2  0
  6  2  1  0
  7  6  2  0
  8  4  1  0
 10  9  1  0
 10 11  1  0
 11 12  1  0
 13 12  1  1
 13 15  1  0
 13 14  1  0
 14  6  1  0
 15 20  1  0
 16 15  2  0
 18 17  1  0
 19 18  1  6
 19 21  1  0
 20 19  1  0
 21 23  2  0
 21 22  1  0
M  END
$$$$
