DMS.pdb
     RDKit          3D

 23 22  0  0  1  0  0  0  0  0999 V2000
    7.4066  -16.5776   20.0754 N   0  0  0  0  0  0  0  0  0  0  0  0
    8.8287  -16.3977   20.2181 C   0  0  1  0  0  0  0  0  0  0  0  0
    9.3119  -15.6258   19.0096 C   0  0  0  0  0  0  0  0  0  0  0  0
    8.9627  -16.3880   17.7804 C   0  0  0  0  0  0  0  0  0  0  0  0
    9.3448  -17.5731   17.6496 O   0  0  0  0  0  0  0  0  0  0  0  0
    9.1917  -15.7468   21.4896 C   0  0  0  0  0  0  0  0  0  0  0  0
   10.3512  -15.3537   21.7637 O   0  0  0  0  0  0  0  0  0  0  0  0
    8.2083  -15.8264   16.7397 O   0  0  0  0  0  0  0  0  0  0  0  0
    6.7587  -11.3248   26.6458 C   0  0  0  0  0  0  0  0  0  0  0  0
    6.3627  -13.0917   26.6178 S   0  0  0  0  0  0  0  0  0  0  0  0
    7.7565  -14.0524   25.9391 C   0  0  0  0  0  0  0  0  0  0  0  0
    7.3931  -14.4084   24.5078 C   0  0  0  0  0  0  0  0  0  0  0  0
    8.5251  -15.1278   23.8109 C   0  0  2  0  0  0  0  0  0  0  0  0
    8.2018  -15.5370   22.4808 N   0  0  0  0  0  0  0  0  0  0  0  0
    9.0673  -16.2317   24.6412 C   0  0  0  0  0  0  0  0  0  0  0  0
    8.3815  -17.2736   24.7760 O   0  0  0  0  0  0  0  0  0  0  0  0
   12.5224  -17.4932   24.3430 O   0  0  0  0  0  0  0  0  0  0  0  0
   12.3533  -17.5130   25.7293 C   0  0  0  0  0  0  0  0  0  0  0  0
   10.8757  -17.3385   26.0025 C   0  0  2  0  0  0  0  0  0  0  0  0
   10.3199  -16.2073   25.3072 N   0  0  0  0  0  0  0  0  0  0  0  0
   10.6518  -17.1567   27.4530 C   0  0  0  0  0  0  0  0  0  0  0  0
   11.0379  -18.1123   28.3808 O   0  0  0  0  0  0  0  0  0  0  0  0
   10.0971  -16.1217   27.9192 O   0  0  0  0  0  0  0  0  0  0  0  0
  2  1  1  6
  3  2  1  0
  4  3  1  0
  5  4  2  0
  6  2  1  0
  7  6  2  0
  8  4  1  0
 10  9  1  0
 10 11  1  0
 11 12  1  0
 13 12  1  1
 13 15  1  0
 13 14  1  0
 14  6  1  0
 15 20  1  0
 16 15  2  0
 18 17  1  0
 19 18  1  1
 19 21  1  0
 20 19  1  0
 21 23  2  0
 21 22  1  0
M  END
$$$$
