DMS.pdb
     RDKit          3D

 23 22  0  0  1  0  0  0  0  0999 V2000
    8.6516  -15.5396   19.0373 N   0  0  0  0  0  0  0  0  0  0  0  0
    8.5684  -16.6135   19.9938 C   0  0  1  0  0  0  0  0  0  0  0  0
    9.4127  -17.7545   19.4694 C   0  0  0  0  0  0  0  0  0  0  0  0
    8.9411  -18.1149   18.1050 C   0  0  0  0  0  0  0  0  0  0  0  0
    9.7660  -18.4623   17.2297 O   0  0  0  0  0  0  0  0  0  0  0  0
    8.9613  -16.1939   21.3509 C   0  0  0  0  0  0  0  0  0  0  0  0
   10.0710  -16.4658   21.8692 O   0  0  0  0  0  0  0  0  0  0  0  0
    7.5849  -18.0825   17.7483 O   0  0  0  0  0  0  0  0  0  0  0  0
    7.1913  -11.3436   27.3707 C   0  0  0  0  0  0  0  0  0  0  0  0
    6.6401  -12.1922   25.8689 S   0  0  0  0  0  0  0  0  0  0  0  0
    7.8464  -13.4661   25.3705 C   0  0  0  0  0  0  0  0  0  0  0  0
    7.4136  -13.9759   24.0067 C   0  0  0  0  0  0  0  0  0  0  0  0
    8.3898  -14.9914   23.4589 C   0  0  2  0  0  0  0  0  0  0  0  0
    8.0607  -15.4404   22.1431 N   0  0  0  0  0  0  0  0  0  0  0  0
    8.6147  -16.1060   24.4122 C   0  0  0  0  0  0  0  0  0  0  0  0
    7.6889  -16.9318   24.5990 O   0  0  0  0  0  0  0  0  0  0  0  0
   12.2986  -17.5194   25.2100 O   0  0  0  0  0  0  0  0  0  0  0  0
   11.1808  -18.3458   25.3460 C   0  0  0  0  0  0  0  0  0  0  0  0
   10.0678  -17.5012   25.9258 C   0  0  2  0  0  0  0  0  0  0  0  0
    9.8116  -16.3204   25.1434 N   0  0  0  0  0  0  0  0  0  0  0  0
   10.4166  -17.0880   27.3024 C   0  0  0  0  0  0  0  0  0  0  0  0
   10.4961  -15.7535   27.6703 O   0  0  0  0  0  0  0  0  0  0  0  0
   10.6599  -17.9307   28.2117 O   0  0  0  0  0  0  0  0  0  0  0  0
  2  1  1  6
  3  2  1  0
  4  3  1  0
  5  4  2  0
  6  2  1  0
  7  6  2  0
  8  4  1  0
 10  9  1  0
 10 11  1  0
 11 12  1  0
 13 12  1  1
 13 15  1  0
 13 14  1  0
 14  6  1  0
 15 20  1  0
 16 15  2  0
 18 17  1  0
 19 18  1  6
 19 21  1  0
 20 19  1  0
 21 23  2  0
 21 22  1  0
M  END
$$$$
