DGA.pdb
     RDKit          3D

 18 17  0  0  1  0  0  0  0  0999 V2000
   10.8622  -18.5763   21.0573 N   0  0  0  0  0  0  0  0  0  0  0  0
   11.2695  -17.2551   20.7210 C   0  0  1  0  0  0  0  0  0  0  0  0
   11.4144  -17.1263   19.2226 C   0  0  0  0  0  0  0  0  0  0  0  0
   12.7417  -17.4720   18.7369 C   0  0  0  0  0  0  0  0  0  0  0  0
   12.9391  -17.7968   17.5460 O   0  0  0  0  0  0  0  0  0  0  0  0
   10.3577  -16.2066   21.2493 C   0  0  0  0  0  0  0  0  0  0  0  0
   10.5917  -14.9861   21.0612 O   0  0  0  0  0  0  0  0  0  0  0  0
   13.8155  -17.4437   19.6048 O   0  0  0  0  0  0  0  0  0  0  0  0
    9.1821  -16.5255   21.9895 N   0  0  0  0  0  0  0  0  0  0  0  0
    8.2334  -15.5718   22.4748 C   0  0  0  0  0  0  0  0  0  0  0  0
    8.5819  -14.8612   23.6958 C   0  0  0  0  0  0  0  0  0  0  0  0
    9.6780  -15.1402   24.2468 O   0  0  0  0  0  0  0  0  0  0  0  0
    7.3073  -12.0426   25.8565 C   0  0  0  0  0  0  0  0  0  0  0  0
    8.2022  -13.2125   25.5129 C   0  0  2  0  0  0  0  0  0  0  0  0
    7.7757  -13.8793   24.3022 N   0  0  0  0  0  0  0  0  0  0  0  0
    8.1547  -14.1809   26.6364 C   0  0  0  0  0  0  0  0  0  0  0  0
    8.7610  -13.8752   27.8234 O   0  0  0  0  0  0  0  0  0  0  0  0
    7.5545  -15.2889   26.4989 O   0  0  0  0  0  0  0  0  0  0  0  0
  2  1  1  6
  2  3  1  0
  3  4  1  0
  4  5  2  0
  4  8  1  0
  6  7  2  0
  6  2  1  0
  9  6  1  0
 10 11  1  0
 10  9  1  0
 11 12  2  0
 14 13  1  1
 15 14  1  0
 15 11  1  0
 16 17  1  0
 16 14  1  0
 18 16  2  0
M  END
$$$$
