DGA.pdb
     RDKit          3D

 18 17  0  0  1  0  0  0  0  0999 V2000
    9.8478  -16.2256   20.3353 N   0  0  0  0  0  0  0  0  0  0  0  0
    8.5329  -16.7691   20.3252 C   0  0  1  0  0  0  0  0  0  0  0  0
    8.5729  -18.2224   20.7361 C   0  0  0  0  0  0  0  0  0  0  0  0
    9.6888  -18.9571   20.1597 C   0  0  0  0  0  0  0  0  0  0  0  0
   10.1613  -18.6589   19.0414 O   0  0  0  0  0  0  0  0  0  0  0  0
    7.5776  -16.0121   21.1762 C   0  0  0  0  0  0  0  0  0  0  0  0
    6.4360  -16.4688   21.4371 O   0  0  0  0  0  0  0  0  0  0  0  0
   10.2460  -20.0109   20.8569 O   0  0  0  0  0  0  0  0  0  0  0  0
    7.9012  -14.7418   21.7358 N   0  0  0  0  0  0  0  0  0  0  0  0
    7.0487  -13.9828   22.5972 C   0  0  0  0  0  0  0  0  0  0  0  0
    7.5571  -13.6832   23.9273 C   0  0  0  0  0  0  0  0  0  0  0  0
    8.6997  -14.1132   24.2312 O   0  0  0  0  0  0  0  0  0  0  0  0
    6.6592  -11.5285   26.8909 C   0  0  0  0  0  0  0  0  0  0  0  0
    7.5093  -12.5092   26.1144 C   0  0  2  0  0  0  0  0  0  0  0  0
    6.8572  -12.9416   24.8978 N   0  0  0  0  0  0  0  0  0  0  0  0
    7.7564  -13.6936   26.9736 C   0  0  0  0  0  0  0  0  0  0  0  0
    8.7472  -13.6554   27.9155 O   0  0  0  0  0  0  0  0  0  0  0  0
    7.0527  -14.7391   26.8371 O   0  0  0  0  0  0  0  0  0  0  0  0
  2  1  1  1
  2  3  1  0
  3  4  1  0
  4  5  2  0
  4  8  1  0
  6  7  2  0
  6  2  1  0
  9  6  1  0
 10 11  1  0
 10  9  1  0
 11 12  2  0
 14 13  1  1
 15 14  1  0
 15 11  1  0
 16 17  1  0
 16 14  1  0
 18 16  2  0
M  END
$$$$
