DGA.pdb
     RDKit          3D

 18 17  0  0  1  0  0  0  0  0999 V2000
   10.2322  -18.7201   22.2293 N   0  0  0  0  0  0  0  0  0  0  0  0
   10.4081  -17.4363   21.6416 C   0  0  1  0  0  0  0  0  0  0  0  0
   10.3291  -17.5434   20.1366 C   0  0  0  0  0  0  0  0  0  0  0  0
   11.6010  -17.8730   19.5115 C   0  0  0  0  0  0  0  0  0  0  0  0
   12.3216  -18.7992   19.9420 O   0  0  0  0  0  0  0  0  0  0  0  0
    9.4439  -16.4228   22.1443 C   0  0  0  0  0  0  0  0  0  0  0  0
    9.4789  -15.2339   21.7377 O   0  0  0  0  0  0  0  0  0  0  0  0
   12.0310  -17.1510   18.4156 O   0  0  0  0  0  0  0  0  0  0  0  0
    8.4390  -16.7411   23.1036 N   0  0  0  0  0  0  0  0  0  0  0  0
    7.3992  -15.8558   23.5281 C   0  0  0  0  0  0  0  0  0  0  0  0
    7.7734  -14.8005   24.4575 C   0  0  0  0  0  0  0  0  0  0  0  0
    8.9804  -14.7214   24.8032 O   0  0  0  0  0  0  0  0  0  0  0  0
    6.2542  -11.8004   26.1719 C   0  0  0  0  0  0  0  0  0  0  0  0
    7.3378  -12.8153   25.8835 C   0  0  2  0  0  0  0  0  0  0  0  0
    6.8755  -13.8591   24.9951 N   0  0  0  0  0  0  0  0  0  0  0  0
    7.7552  -13.4289   27.1686 C   0  0  0  0  0  0  0  0  0  0  0  0
    8.4737  -12.6943   28.0710 O   0  0  0  0  0  0  0  0  0  0  0  0
    7.4481  -14.6302   27.4318 O   0  0  0  0  0  0  0  0  0  0  0  0
  2  1  1  1
  2  3  1  0
  3  4  1  0
  4  5  2  0
  4  8  1  0
  6  7  2  0
  6  2  1  0
  9  6  1  0
 10 11  1  0
 10  9  1  0
 11 12  2  0
 14 13  1  1
 15 14  1  0
 15 11  1  0
 16 17  1  0
 16 14  1  0
 18 16  2  0
M  END
$$$$
