DGA.pdb
     RDKit          3D

 18 17  0  0  1  0  0  0  0  0999 V2000
    6.6667  -17.3756   18.0970 N   0  0  0  0  0  0  0  0  0  0  0  0
    8.0862  -17.4589   18.0461 C   0  0  1  0  0  0  0  0  0  0  0  0
    8.5949  -16.8162   16.7769 C   0  0  0  0  0  0  0  0  0  0  0  0
    8.4975  -17.6804   15.6103 C   0  0  0  0  0  0  0  0  0  0  0  0
    8.1266  -18.8703   15.7061 O   0  0  0  0  0  0  0  0  0  0  0  0
    8.7528  -16.8657   19.2351 C   0  0  0  0  0  0  0  0  0  0  0  0
    9.9982  -16.9401   19.3872 O   0  0  0  0  0  0  0  0  0  0  0  0
    8.8204  -17.1834   14.3631 O   0  0  0  0  0  0  0  0  0  0  0  0
    8.0234  -16.1883   20.2552 N   0  0  0  0  0  0  0  0  0  0  0  0
    8.6023  -15.5834   21.4145 C   0  0  0  0  0  0  0  0  0  0  0  0
    9.1899  -16.4792   22.3992 C   0  0  0  0  0  0  0  0  0  0  0  0
    8.5565  -17.5250   22.6954 O   0  0  0  0  0  0  0  0  0  0  0  0
   11.5819  -18.4153   23.0691 C   0  0  0  0  0  0  0  0  0  0  0  0
   11.0159  -17.2726   23.8824 C   0  0  2  0  0  0  0  0  0  0  0  0
   10.4221  -16.2559   23.0422 N   0  0  0  0  0  0  0  0  0  0  0  0
   12.1216  -16.6643   24.6632 C   0  0  0  0  0  0  0  0  0  0  0  0
   12.7220  -17.3795   25.6624 O   0  0  0  0  0  0  0  0  0  0  0  0
   12.5106  -15.4853   24.4070 O   0  0  0  0  0  0  0  0  0  0  0  0
  2  1  1  1
  2  3  1  0
  3  4  1  0
  4  5  2  0
  4  8  1  0
  6  7  2  0
  6  2  1  0
  9  6  1  0
 10 11  1  0
 10  9  1  0
 11 12  2  0
 14 13  1  6
 15 14  1  0
 15 11  1  0
 16 17  1  0
 16 14  1  0
 18 16  2  0
M  END
$$$$
