DGA.pdb
     RDKit          3D

 18 17  0  0  1  0  0  0  0  0999 V2000
   -5.7072  -28.6751   26.8327 N   0  0  0  0  0  0  0  0  0  0  0  0
   -5.8389  -27.3069   27.2004 C   0  0  1  0  0  0  0  0  0  0  0  0
   -6.9599  -26.6677   26.4147 C   0  0  0  0  0  0  0  0  0  0  0  0
   -6.7624  -26.7225   24.9741 C   0  0  0  0  0  0  0  0  0  0  0  0
   -5.6186  -26.7324   24.4699 O   0  0  0  0  0  0  0  0  0  0  0  0
   -6.0441  -27.1076   28.6592 C   0  0  0  0  0  0  0  0  0  0  0  0
   -6.8851  -27.7900   29.2969 O   0  0  0  0  0  0  0  0  0  0  0  0
   -7.8587  -26.7647   24.1354 O   0  0  0  0  0  0  0  0  0  0  0  0
   -5.3063  -26.1426   29.4048 N   0  0  0  0  0  0  0  0  0  0  0  0
   -5.4969  -25.8567   30.7930 C   0  0  0  0  0  0  0  0  0  0  0  0
   -6.2460  -24.6526   31.1191 C   0  0  0  0  0  0  0  0  0  0  0  0
   -6.4620  -24.4046   32.3334 O   0  0  0  0  0  0  0  0  0  0  0  0
   -7.2738  -21.4097   29.6360 C   0  0  0  0  0  0  0  0  0  0  0  0
   -7.4913  -22.5746   30.5759 C   0  0  2  0  0  0  0  0  0  0  0  0
   -6.7441  -23.7436   30.1666 N   0  0  0  0  0  0  0  0  0  0  0  0
   -8.9377  -22.9064   30.5795 C   0  0  0  0  0  0  0  0  0  0  0  0
   -9.3568  -24.1246   30.1207 O   0  0  0  0  0  0  0  0  0  0  0  0
   -9.7845  -22.0651   31.0060 O   0  0  0  0  0  0  0  0  0  0  0  0
  2  1  1  1
  2  3  1  0
  3  4  1  0
  4  5  2  0
  4  8  1  0
  6  7  2  0
  6  2  1  0
  9  6  1  0
 10 11  1  0
 10  9  1  0
 11 12  2  0
 14 13  1  6
 15 14  1  0
 15 11  1  0
 16 17  1  0
 16 14  1  0
 18 16  2  0
M  END
$$$$
