DGA.pdb
     RDKit          3D

 18 17  0  0  1  0  0  0  0  0999 V2000
    6.9543  -15.6073   19.1563 N   0  0  0  0  0  0  0  0  0  0  0  0
    8.0343  -14.6851   19.2439 C   0  0  1  0  0  0  0  0  0  0  0  0
    7.7852  -13.5112   18.3259 C   0  0  0  0  0  0  0  0  0  0  0  0
    7.8556  -13.8547   16.9137 C   0  0  0  0  0  0  0  0  0  0  0  0
    8.3178  -14.9505   16.5286 O   0  0  0  0  0  0  0  0  0  0  0  0
    8.2965  -14.2172   20.6303 C   0  0  0  0  0  0  0  0  0  0  0  0
    9.3275  -13.5544   20.9090 O   0  0  0  0  0  0  0  0  0  0  0  0
    7.4033  -12.9553   15.9685 O   0  0  0  0  0  0  0  0  0  0  0  0
    7.4030  -14.4921   21.7061 N   0  0  0  0  0  0  0  0  0  0  0  0
    7.6354  -14.1485   23.0747 C   0  0  0  0  0  0  0  0  0  0  0  0
    8.5787  -14.9778   23.8093 C   0  0  0  0  0  0  0  0  0  0  0  0
    8.7240  -14.7560   25.0391 O   0  0  0  0  0  0  0  0  0  0  0  0
   10.2448  -18.2767   23.5072 C   0  0  0  0  0  0  0  0  0  0  0  0
   10.1652  -16.8711   24.0599 C   0  0  2  0  0  0  0  0  0  0  0  0
    9.3394  -16.0149   23.2369 N   0  0  0  0  0  0  0  0  0  0  0  0
   11.5387  -16.3110   24.1078 C   0  0  0  0  0  0  0  0  0  0  0  0
   12.3331  -16.5512   25.1948 O   0  0  0  0  0  0  0  0  0  0  0  0
   11.9767  -15.6117   23.1456 O   0  0  0  0  0  0  0  0  0  0  0  0
  2  1  1  1
  2  3  1  0
  3  4  1  0
  4  5  2  0
  4  8  1  0
  6  7  2  0
  6  2  1  0
  9  6  1  0
 10 11  1  0
 10  9  1  0
 11 12  2  0
 14 13  1  6
 15 14  1  0
 15 11  1  0
 16 17  1  0
 16 14  1  0
 18 16  2  0
M  END
$$$$
