DGA.pdb
     RDKit          3D

 18 17  0  0  1  0  0  0  0  0999 V2000
   10.8728  -15.9846   20.9644 N   0  0  0  0  0  0  0  0  0  0  0  0
    9.8013  -16.9091   20.8166 C   0  0  1  0  0  0  0  0  0  0  0  0
   10.2645  -18.2984   21.1876 C   0  0  0  0  0  0  0  0  0  0  0  0
   11.6897  -18.5082   20.9824 C   0  0  0  0  0  0  0  0  0  0  0  0
   12.1243  -19.1185   19.9818 O   0  0  0  0  0  0  0  0  0  0  0  0
    8.5918  -16.5363   21.5965 C   0  0  0  0  0  0  0  0  0  0  0  0
    7.5023  -17.1422   21.4361 O   0  0  0  0  0  0  0  0  0  0  0  0
   12.5917  -18.0254   21.9099 O   0  0  0  0  0  0  0  0  0  0  0  0
    8.6026  -15.4836   22.5572 N   0  0  0  0  0  0  0  0  0  0  0  0
    7.4863  -15.0953   23.3623 C   0  0  0  0  0  0  0  0  0  0  0  0
    7.7380  -14.1104   24.4034 C   0  0  0  0  0  0  0  0  0  0  0  0
    8.9349  -13.8361   24.6772 O   0  0  0  0  0  0  0  0  0  0  0  0
    5.8436  -11.7089   26.6150 C   0  0  0  0  0  0  0  0  0  0  0  0
    7.0679  -12.4454   26.1189 C   0  0  2  0  0  0  0  0  0  0  0  0
    6.7315  -13.4407   25.1247 N   0  0  0  0  0  0  0  0  0  0  0  0
    7.7065  -13.1198   27.2763 C   0  0  0  0  0  0  0  0  0  0  0  0
    7.7044  -14.4852   27.3535 O   0  0  0  0  0  0  0  0  0  0  0  0
    8.2530  -12.4348   28.1922 O   0  0  0  0  0  0  0  0  0  0  0  0
  2  1  1  1
  2  3  1  0
  3  4  1  0
  4  5  2  0
  4  8  1  0
  6  7  2  0
  6  2  1  0
  9  6  1  0
 10 11  1  0
 10  9  1  0
 11 12  2  0
 14 13  1  1
 15 14  1  0
 15 11  1  0
 16 17  1  0
 16 14  1  0
 18 16  2  0
M  END
$$$$
