DGA.pdb
     RDKit          3D

 18 17  0  0  1  0  0  0  0  0999 V2000
    9.1575  -17.8863   20.4102 N   0  0  0  0  0  0  0  0  0  0  0  0
   10.1907  -17.2161   21.1229 C   0  0  1  0  0  0  0  0  0  0  0  0
   11.1931  -16.6358   20.1528 C   0  0  0  0  0  0  0  0  0  0  0  0
   12.0389  -17.6391   19.5241 C   0  0  0  0  0  0  0  0  0  0  0  0
   11.9025  -18.8573   19.7691 O   0  0  0  0  0  0  0  0  0  0  0  0
    9.6833  -16.1632   22.0414 C   0  0  0  0  0  0  0  0  0  0  0  0
   10.4632  -15.5229   22.7909 O   0  0  0  0  0  0  0  0  0  0  0  0
   13.0188  -17.2460   18.6340 O   0  0  0  0  0  0  0  0  0  0  0  0
    8.3005  -15.8269   22.1208 N   0  0  0  0  0  0  0  0  0  0  0  0
    7.7186  -14.9733   23.1096 C   0  0  0  0  0  0  0  0  0  0  0  0
    7.5555  -15.5296   24.4443 C   0  0  0  0  0  0  0  0  0  0  0  0
    6.9583  -14.8317   25.3039 O   0  0  0  0  0  0  0  0  0  0  0  0
    7.0395  -18.5461   26.2515 C   0  0  0  0  0  0  0  0  0  0  0  0
    7.8415  -17.2650   26.1966 C   0  0  2  0  0  0  0  0  0  0  0  0
    8.0194  -16.7987   24.8389 N   0  0  0  0  0  0  0  0  0  0  0  0
    9.1752  -17.5245   26.7936 C   0  0  0  0  0  0  0  0  0  0  0  0
   10.3002  -17.3929   26.0273 O   0  0  0  0  0  0  0  0  0  0  0  0
    9.2742  -17.8672   28.0099 O   0  0  0  0  0  0  0  0  0  0  0  0
  2  1  1  6
  2  3  1  0
  3  4  1  0
  4  5  2  0
  4  8  1  0
  6  7  2  0
  6  2  1  0
  9  6  1  0
 10 11  1  0
 10  9  1  0
 11 12  2  0
 14 13  1  6
 15 14  1  0
 15 11  1  0
 16 17  1  0
 16 14  1  0
 18 16  2  0
M  END
$$$$
