DGA.pdb
     RDKit          3D

 18 17  0  0  1  0  0  0  0  0999 V2000
   10.2348  -18.4544   22.2607 N   0  0  0  0  0  0  0  0  0  0  0  0
    9.9338  -17.3821   21.3752 C   0  0  1  0  0  0  0  0  0  0  0  0
    9.5177  -17.9269   20.0288 C   0  0  0  0  0  0  0  0  0  0  0  0
   10.6067  -17.9852   19.0655 C   0  0  0  0  0  0  0  0  0  0  0  0
   11.5144  -18.8401   19.1544 O   0  0  0  0  0  0  0  0  0  0  0  0
    8.9000  -16.4547   21.9053 C   0  0  0  0  0  0  0  0  0  0  0  0
    8.6115  -15.3897   21.3033 O   0  0  0  0  0  0  0  0  0  0  0  0
   10.6472  -17.0787   18.0246 O   0  0  0  0  0  0  0  0  0  0  0  0
    8.1883  -16.7204   23.1112 N   0  0  0  0  0  0  0  0  0  0  0  0
    7.1468  -15.9004   23.6477 C   0  0  0  0  0  0  0  0  0  0  0  0
    7.5515  -14.8226   24.5376 C   0  0  0  0  0  0  0  0  0  0  0  0
    8.7818  -14.6614   24.7452 O   0  0  0  0  0  0  0  0  0  0  0  0
    6.0284  -11.8970   26.3717 C   0  0  0  0  0  0  0  0  0  0  0  0
    7.1471  -12.8273   25.9585 C   0  0  2  0  0  0  0  0  0  0  0  0
    6.6586  -13.9450   25.1811 N   0  0  0  0  0  0  0  0  0  0  0  0
    7.7994  -13.3454   27.1867 C   0  0  0  0  0  0  0  0  0  0  0  0
    7.6473  -14.6592   27.5346 O   0  0  0  0  0  0  0  0  0  0  0  0
    8.4962  -12.5747   27.9129 O   0  0  0  0  0  0  0  0  0  0  0  0
  2  1  1  1
  2  3  1  0
  3  4  1  0
  4  5  2  0
  4  8  1  0
  6  7  2  0
  6  2  1  0
  9  6  1  0
 10 11  1  0
 10  9  1  0
 11 12  2  0
 14 13  1  1
 15 14  1  0
 15 11  1  0
 16 17  1  0
 16 14  1  0
 18 16  2  0
M  END
$$$$
