DGA.pdb
     RDKit          3D

 18 17  0  0  1  0  0  0  0  0999 V2000
   10.7977  -19.1063   21.8038 N   0  0  0  0  0  0  0  0  0  0  0  0
   11.5753  -17.9168   21.8748 C   0  0  1  0  0  0  0  0  0  0  0  0
   11.7258  -17.3165   20.4966 C   0  0  0  0  0  0  0  0  0  0  0  0
   13.0431  -17.5245   19.9145 C   0  0  0  0  0  0  0  0  0  0  0  0
   13.3445  -17.0602   18.7937 O   0  0  0  0  0  0  0  0  0  0  0  0
   11.0281  -16.9128   22.8247 C   0  0  0  0  0  0  0  0  0  0  0  0
   11.6030  -15.8102   23.0083 O   0  0  0  0  0  0  0  0  0  0  0  0
   13.9900  -18.2509   20.6093 O   0  0  0  0  0  0  0  0  0  0  0  0
    9.8354  -17.1439   23.5700 N   0  0  0  0  0  0  0  0  0  0  0  0
    9.1986  -16.1850   24.4186 C   0  0  0  0  0  0  0  0  0  0  0  0
    9.9199  -15.7877   25.6182 C   0  0  0  0  0  0  0  0  0  0  0  0
   11.0381  -16.3212   25.8365 O   0  0  0  0  0  0  0  0  0  0  0  0
    9.7458  -13.1615   28.3102 C   0  0  0  0  0  0  0  0  0  0  0  0
   10.2844  -14.4127   27.6531 C   0  0  2  0  0  0  0  0  0  0  0  0
    9.4517  -14.8436   26.5516 N   0  0  0  0  0  0  0  0  0  0  0  0
   10.3292  -15.4912   28.6714 C   0  0  0  0  0  0  0  0  0  0  0  0
   11.2612  -15.4440   29.6711 O   0  0  0  0  0  0  0  0  0  0  0  0
    9.5072  -16.4546   28.6173 O   0  0  0  0  0  0  0  0  0  0  0  0
  2  1  1  6
  2  3  1  0
  3  4  1  0
  4  5  2  0
  4  8  1  0
  6  7  2  0
  6  2  1  0
  9  6  1  0
 10 11  1  0
 10  9  1  0
 11 12  2  0
 14 13  1  1
 15 14  1  0
 15 11  1  0
 16 17  1  0
 16 14  1  0
 18 16  2  0
M  END
$$$$
