YQP.pdb
     RDKit          3D

 29 30  0  0  1  0  0  0  0  0999 V2000
   11.5982  -19.5025   31.1355 O   0  0  0  0  0  0  0  0  0  0  0  0
   11.5739  -18.5600   30.1067 C   0  0  0  0  0  0  0  0  0  0  0  0
   10.5766  -18.5515   29.1667 C   0  0  0  0  0  0  0  0  0  0  0  0
   10.5722  -17.6034   28.1505 C   0  0  0  0  0  0  0  0  0  0  0  0
   11.5659  -16.6388   28.0486 C   0  0  0  0  0  0  0  0  0  0  0  0
   11.5561  -15.6322   26.9648 C   0  0  0  0  0  0  0  0  0  0  0  0
   11.6603  -16.4052   25.6489 C   0  0  2  0  0  0  0  0  0  0  0  0
   13.0657  -16.5416   25.3629 N   0  0  0  0  0  0  0  0  0  0  0  0
   10.9170  -15.6950   24.5686 C   0  0  0  0  0  0  0  0  0  0  0  0
   11.4768  -14.6882   24.0852 O   0  0  0  0  0  0  0  0  0  0  0  0
   12.5584  -16.6808   29.0198 C   0  0  0  0  0  0  0  0  0  0  0  0
   12.5792  -17.6054   30.0262 C   0  0  0  0  0  0  0  0  0  0  0  0
    7.6186  -15.9371   19.9479 N   0  0  0  0  0  0  0  0  0  0  0  0
    6.5059  -15.3818   20.6822 C   0  0  0  0  0  0  0  0  0  0  0  0
    5.5851  -14.9213   19.9981 O   0  0  0  0  0  0  0  0  0  0  0  0
    6.6061  -15.4365   22.1439 C   0  0  0  0  0  0  0  0  0  0  0  0
    7.8414  -15.9938   22.7112 C   0  0  0  0  0  0  0  0  0  0  0  0
    8.5957  -15.2466   23.7516 C   0  0  2  0  0  0  0  0  0  0  0  0
    9.6605  -16.1917   24.1704 N   0  0  0  0  0  0  0  0  0  0  0  0
    7.8943  -14.6722   24.8723 C   0  0  0  0  0  0  0  0  0  0  0  0
    7.4841  -15.4838   25.7735 O   0  0  0  0  0  0  0  0  0  0  0  0
    7.6050  -13.2904   25.1061 N   0  0  0  0  0  0  0  0  0  0  0  0
    7.8101  -12.2866   24.0867 C   0  0  0  0  0  0  0  0  0  0  0  0
    6.8274  -11.2019   24.4229 C   0  0  0  0  0  0  0  0  0  0  0  0
    7.0548  -11.1383   25.9478 C   0  0  0  0  0  0  0  0  0  0  0  0
    7.0468  -12.6549   26.2536 C   0  0  1  0  0  0  0  0  0  0  0  0
    5.6472  -13.0370   26.5199 C   0  0  0  0  0  0  0  0  0  0  0  0
    5.0227  -13.7124   25.6836 O   0  0  0  0  0  0  0  0  0  0  0  0
    5.0315  -12.6531   27.6836 O   0  0  0  0  0  0  0  0  0  0  0  0
  2  1  1  0
  3  2  2  0
  4  3  1  0
  5  4  2  0
  5 11  1  0
  6  5  1  0
  7  8  1  6
  7  6  1  0
  9  7  1  0
  9 19  1  0
 10  9  2  0
 11 12  2  0
 12  2  1  0
 14 16  1  0
 14 13  1  0
 15 14  2  0
 17 16  1  0
 18 19  1  0
 18 17  1  6
 20 18  1  0
 21 20  2  0
 22 20  1  0
 23 22  1  0
 24 25  1  0
 24 23  1  0
 25 26  1  0
 26 22  1  0
 26 27  1  6
 27 29  1  0
 28 27  2  0
M  END
$$$$
