YQP.pdb
     RDKit          3D

 29 30  0  0  1  0  0  0  0  0999 V2000
   10.1759  -14.4863   31.0434 O   0  0  0  0  0  0  0  0  0  0  0  0
   10.2579  -14.6921   29.6656 C   0  0  0  0  0  0  0  0  0  0  0  0
   11.0539  -15.6731   29.1342 C   0  0  0  0  0  0  0  0  0  0  0  0
   11.1204  -15.8604   27.7588 C   0  0  0  0  0  0  0  0  0  0  0  0
   10.3919  -15.0707   26.8790 C   0  0  0  0  0  0  0  0  0  0  0  0
   10.4667  -15.2747   25.4158 C   0  0  0  0  0  0  0  0  0  0  0  0
    9.8206  -16.6314   25.1298 C   0  0  2  0  0  0  0  0  0  0  0  0
   10.7586  -17.6335   25.5673 N   0  0  0  0  0  0  0  0  0  0  0  0
    9.4809  -16.7506   23.6825 C   0  0  0  0  0  0  0  0  0  0  0  0
   10.4077  -17.1138   22.9276 O   0  0  0  0  0  0  0  0  0  0  0  0
    9.5976  -14.0880   27.4563 C   0  0  0  0  0  0  0  0  0  0  0  0
    9.5196  -13.8891   28.8064 C   0  0  0  0  0  0  0  0  0  0  0  0
    6.4058  -20.0975   19.9058 N   0  0  0  0  0  0  0  0  0  0  0  0
    7.6024  -19.9166   20.6940 C   0  0  0  0  0  0  0  0  0  0  0  0
    8.6373  -20.3989   20.2204 O   0  0  0  0  0  0  0  0  0  0  0  0
    7.4408  -19.1826   21.9528 C   0  0  0  0  0  0  0  0  0  0  0  0
    6.8851  -17.8251   21.8712 C   0  0  0  0  0  0  0  0  0  0  0  0
    7.7862  -16.6432   21.8459 C   0  0  2  0  0  0  0  0  0  0  0  0
    8.1682  -16.4532   23.2673 N   0  0  0  0  0  0  0  0  0  0  0  0
    7.3469  -15.4197   21.2233 C   0  0  0  0  0  0  0  0  0  0  0  0
    6.0910  -15.1735   21.2577 O   0  0  0  0  0  0  0  0  0  0  0  0
    8.1531  -14.4330   20.5718 N   0  0  0  0  0  0  0  0  0  0  0  0
    9.5841  -14.3707   20.7648 C   0  0  0  0  0  0  0  0  0  0  0  0
   10.1073  -13.7432   19.5047 C   0  0  0  0  0  0  0  0  0  0  0  0
    9.0695  -12.6113   19.3533 C   0  0  0  0  0  0  0  0  0  0  0  0
    7.7846  -13.4273   19.6312 C   0  0  1  0  0  0  0  0  0  0  0  0
    7.3241  -13.9664   18.3378 C   0  0  0  0  0  0  0  0  0  0  0  0
    7.5457  -15.1558   18.0516 O   0  0  0  0  0  0  0  0  0  0  0  0
    6.6526  -13.1650   17.4503 O   0  0  0  0  0  0  0  0  0  0  0  0
  2  1  1  0
  3  2  2  0
  4  3  1  0
  5  4  2  0
  5 11  1  0
  6  5  1  0
  7  8  1  6
  7  6  1  0
  9  7  1  0
  9 19  1  0
 10  9  2  0
 11 12  2  0
 12  2  1  0
 14 16  1  0
 14 13  1  0
 15 14  2  0
 17 16  1  0
 18 19  1  0
 18 17  1  1
 20 18  1  0
 21 20  2  0
 22 20  1  0
 23 22  1  0
 24 25  1  0
 24 23  1  0
 25 26  1  0
 26 22  1  0
 26 27  1  6
 27 29  1  0
 28 27  2  0
M  END
$$$$
