YQP.pdb
     RDKit          3D

 29 30  0  0  1  0  0  0  0  0999 V2000
   11.4881  -16.5714   30.5218 O   0  0  0  0  0  0  0  0  0  0  0  0
   10.5563  -15.9843   29.6649 C   0  0  0  0  0  0  0  0  0  0  0  0
   10.6246  -14.6559   29.3348 C   0  0  0  0  0  0  0  0  0  0  0  0
    9.6857  -14.0919   28.4793 C   0  0  0  0  0  0  0  0  0  0  0  0
    8.6538  -14.8427   27.9317 C   0  0  0  0  0  0  0  0  0  0  0  0
    7.6573  -14.2369   27.0217 C   0  0  0  0  0  0  0  0  0  0  0  0
    7.3631  -15.2778   25.9401 C   0  0  2  0  0  0  0  0  0  0  0  0
    7.9307  -16.5196   26.3998 N   0  0  0  0  0  0  0  0  0  0  0  0
    7.9216  -14.8374   24.6293 C   0  0  0  0  0  0  0  0  0  0  0  0
    7.5708  -13.7054   24.2338 O   0  0  0  0  0  0  0  0  0  0  0  0
    8.6191  -16.1844   28.2905 C   0  0  0  0  0  0  0  0  0  0  0  0
    9.5334  -16.7563   29.1302 C   0  0  0  0  0  0  0  0  0  0  0  0
   12.8912  -17.6083   22.9255 N   0  0  0  0  0  0  0  0  0  0  0  0
   13.0265  -16.2264   23.3227 C   0  0  0  0  0  0  0  0  0  0  0  0
   14.1667  -15.8648   23.6342 O   0  0  0  0  0  0  0  0  0  0  0  0
   11.7980  -15.4266   23.3038 C   0  0  0  0  0  0  0  0  0  0  0  0
   10.6574  -15.9666   22.5516 C   0  0  0  0  0  0  0  0  0  0  0  0
    9.3304  -15.2997   22.6149 C   0  0  2  0  0  0  0  0  0  0  0  0
    8.7886  -15.7042   23.9359 N   0  0  0  0  0  0  0  0  0  0  0  0
    8.3813  -15.4885   21.5466 C   0  0  0  0  0  0  0  0  0  0  0  0
    7.7485  -16.6013   21.5272 O   0  0  0  0  0  0  0  0  0  0  0  0
    8.0511  -14.5708   20.4994 N   0  0  0  0  0  0  0  0  0  0  0  0
    8.4172  -13.1743   20.5675 C   0  0  0  0  0  0  0  0  0  0  0  0
    8.5264  -12.7430   19.1331 C   0  0  0  0  0  0  0  0  0  0  0  0
    7.2508  -13.4158   18.5841 C   0  0  0  0  0  0  0  0  0  0  0  0
    7.4087  -14.8042   19.2484 C   0  0  1  0  0  0  0  0  0  0  0  0
    8.1978  -15.6406   18.3246 C   0  0  0  0  0  0  0  0  0  0  0  0
    9.4010  -15.8497   18.5573 O   0  0  0  0  0  0  0  0  0  0  0  0
    7.6127  -16.1894   17.2123 O   0  0  0  0  0  0  0  0  0  0  0  0
  2  1  1  0
  3  2  2  0
  4  3  1  0
  5  4  2  0
  5 11  1  0
  6  5  1  0
  7  8  1  1
  7  6  1  0
  9  7  1  0
  9 19  1  0
 10  9  2  0
 11 12  2  0
 12  2  1  0
 14 16  1  0
 14 13  1  0
 15 14  2  0
 17 16  1  0
 18 19  1  0
 18 17  1  6
 20 18  1  0
 21 20  2  0
 22 20  1  0
 23 22  1  0
 24 25  1  0
 24 23  1  0
 25 26  1  0
 26 22  1  0
 26 27  1  6
 27 29  1  0
 28 27  2  0
M  END
$$$$
