YQP.pdb
     RDKit          3D

 29 30  0  0  1  0  0  0  0  0999 V2000
   10.3572  -12.3256   18.9621 O   0  0  0  0  0  0  0  0  0  0  0  0
    9.2970  -13.1729   19.2865 C   0  0  0  0  0  0  0  0  0  0  0  0
    8.3333  -12.8014   20.1874 C   0  0  0  0  0  0  0  0  0  0  0  0
    7.2860  -13.6614   20.4957 C   0  0  0  0  0  0  0  0  0  0  0  0
    7.1757  -14.9158   19.9104 C   0  0  0  0  0  0  0  0  0  0  0  0
    6.0587  -15.8269   20.2425 C   0  0  0  0  0  0  0  0  0  0  0  0
    6.6720  -17.0222   20.9740 C   0  0  2  0  0  0  0  0  0  0  0  0
    6.0286  -18.1994   20.4489 N   0  0  0  0  0  0  0  0  0  0  0  0
    6.4956  -16.8760   22.4477 C   0  0  0  0  0  0  0  0  0  0  0  0
    5.3170  -16.8453   22.8607 O   0  0  0  0  0  0  0  0  0  0  0  0
    8.1716  -15.2550   19.0032 C   0  0  0  0  0  0  0  0  0  0  0  0
    9.2088  -14.4226   18.6876 C   0  0  0  0  0  0  0  0  0  0  0  0
    7.5039  -20.3993   26.4062 N   0  0  0  0  0  0  0  0  0  0  0  0
    7.3832  -19.3221   27.3606 C   0  0  0  0  0  0  0  0  0  0  0  0
    7.3439  -19.6578   28.5496 O   0  0  0  0  0  0  0  0  0  0  0  0
    7.3257  -17.9681   26.8012 C   0  0  0  0  0  0  0  0  0  0  0  0
    7.4889  -17.8355   25.3472 C   0  0  0  0  0  0  0  0  0  0  0  0
    7.4924  -16.4928   24.7095 C   0  0  2  0  0  0  0  0  0  0  0  0
    7.6412  -16.7838   23.2620 N   0  0  0  0  0  0  0  0  0  0  0  0
    8.4137  -15.4835   25.1681 C   0  0  0  0  0  0  0  0  0  0  0  0
    9.6577  -15.7856   25.1469 O   0  0  0  0  0  0  0  0  0  0  0  0
    8.1044  -14.1689   25.6413 N   0  0  0  0  0  0  0  0  0  0  0  0
    6.7941  -13.5851   25.4649 C   0  0  0  0  0  0  0  0  0  0  0  0
    6.6614  -12.6077   26.5973 C   0  0  0  0  0  0  0  0  0  0  0  0
    8.0612  -11.9627   26.5207 C   0  0  0  0  0  0  0  0  0  0  0  0
    8.9088  -13.2488   26.3751 C   0  0  1  0  0  0  0  0  0  0  0  0
    9.2400  -13.7074   27.7373 C   0  0  0  0  0  0  0  0  0  0  0  0
   10.0386  -13.0539   28.4307 O   0  0  0  0  0  0  0  0  0  0  0  0
    8.6723  -14.8486   28.2436 O   0  0  0  0  0  0  0  0  0  0  0  0
  2  1  1  0
  3  2  2  0
  4  3  1  0
  5  4  2  0
  5 11  1  0
  6  5  1  0
  7  8  1  6
  7  6  1  0
  9  7  1  0
  9 19  1  0
 10  9  2  0
 11 12  2  0
 12  2  1  0
 14 16  1  0
 14 13  1  0
 15 14  2  0
 17 16  1  0
 18 19  1  0
 18 17  1  1
 20 18  1  0
 21 20  2  0
 22 20  1  0
 23 22  1  0
 24 25  1  0
 24 23  1  0
 25 26  1  0
 26 22  1  0
 26 27  1  1
 27 29  1  0
 28 27  2  0
M  END
$$$$
