YQP.pdb
     RDKit          3D

 29 30  0  0  1  0  0  0  0  0999 V2000
   11.7050  -15.9913   30.6617 O   0  0  0  0  0  0  0  0  0  0  0  0
   10.8644  -15.6706   29.5950 C   0  0  0  0  0  0  0  0  0  0  0  0
    9.9413  -16.5638   29.1171 C   0  0  0  0  0  0  0  0  0  0  0  0
    9.1142  -16.2231   28.0535 C   0  0  0  0  0  0  0  0  0  0  0  0
    9.1892  -14.9794   27.4403 C   0  0  0  0  0  0  0  0  0  0  0  0
    8.3062  -14.6224   26.3086 C   0  0  0  0  0  0  0  0  0  0  0  0
    8.6613  -15.5696   25.1611 C   0  0  2  0  0  0  0  0  0  0  0  0
    9.9061  -16.2002   25.5193 N   0  0  0  0  0  0  0  0  0  0  0  0
    8.7425  -14.8199   23.8745 C   0  0  0  0  0  0  0  0  0  0  0  0
    7.8109  -14.0202   23.6435 O   0  0  0  0  0  0  0  0  0  0  0  0
   10.1369  -14.1028   27.9535 C   0  0  0  0  0  0  0  0  0  0  0  0
   10.9587  -14.4202   28.9985 C   0  0  0  0  0  0  0  0  0  0  0  0
   13.4141  -13.8895   19.5388 N   0  0  0  0  0  0  0  0  0  0  0  0
   13.4837  -15.0047   20.4537 C   0  0  0  0  0  0  0  0  0  0  0  0
   14.5584  -15.6149   20.4783 O   0  0  0  0  0  0  0  0  0  0  0  0
   12.2747  -15.2711   21.2392 C   0  0  0  0  0  0  0  0  0  0  0  0
   11.4334  -14.1181   21.5873 C   0  0  0  0  0  0  0  0  0  0  0  0
    9.9661  -14.2820   21.7603 C   0  0  2  0  0  0  0  0  0  0  0  0
    9.8379  -15.0547   23.0207 N   0  0  0  0  0  0  0  0  0  0  0  0
    9.1752  -14.8354   20.6898 C   0  0  0  0  0  0  0  0  0  0  0  0
    9.1202  -16.1122   20.6136 O   0  0  0  0  0  0  0  0  0  0  0  0
    8.4300  -14.1238   19.6967 N   0  0  0  0  0  0  0  0  0  0  0  0
    8.2331  -12.6940   19.7720 C   0  0  0  0  0  0  0  0  0  0  0  0
    8.0469  -12.2635   18.3453 C   0  0  0  0  0  0  0  0  0  0  0  0
    7.0888  -13.3810   17.8823 C   0  0  0  0  0  0  0  0  0  0  0  0
    7.8253  -14.5958   18.4952 C   0  0  1  0  0  0  0  0  0  0  0  0
    8.7958  -15.0681   17.4897 C   0  0  0  0  0  0  0  0  0  0  0  0
   10.0034  -14.8077   17.6287 O   0  0  0  0  0  0  0  0  0  0  0  0
    8.3746  -15.7927   16.4042 O   0  0  0  0  0  0  0  0  0  0  0  0
  2  1  1  0
  3  2  2  0
  4  3  1  0
  5  4  2  0
  5 11  1  0
  6  5  1  0
  7  8  1  1
  7  6  1  0
  9  7  1  0
  9 19  1  0
 10  9  2  0
 11 12  2  0
 12  2  1  0
 14 16  1  0
 14 13  1  0
 15 14  2  0
 17 16  1  0
 18 19  1  0
 18 17  1  6
 20 18  1  0
 21 20  2  0
 22 20  1  0
 23 22  1  0
 24 25  1  0
 24 23  1  0
 25 26  1  0
 26 22  1  0
 26 27  1  6
 27 29  1  0
 28 27  2  0
M  END
$$$$
