YQP.pdb
     RDKit          3D

 29 30  0  0  1  0  0  0  0  0999 V2000
    6.9999  -10.5935   27.0436 O   0  0  0  0  0  0  0  0  0  0  0  0
    6.9514  -11.9646   26.7884 C   0  0  0  0  0  0  0  0  0  0  0  0
    5.8202  -12.6988   27.0325 C   0  0  0  0  0  0  0  0  0  0  0  0
    5.7941  -14.0634   26.7709 C   0  0  0  0  0  0  0  0  0  0  0  0
    6.8996  -14.7291   26.2579 C   0  0  0  0  0  0  0  0  0  0  0  0
    6.8660  -16.1818   25.9814 C   0  0  0  0  0  0  0  0  0  0  0  0
    5.9994  -16.3698   24.7350 C   0  0  2  0  0  0  0  0  0  0  0  0
    5.2979  -17.6164   24.9067 N   0  0  0  0  0  0  0  0  0  0  0  0
    6.8441  -16.3466   23.5062 C   0  0  0  0  0  0  0  0  0  0  0  0
    7.4571  -17.4020   23.2395 O   0  0  0  0  0  0  0  0  0  0  0  0
    8.0261  -13.9503   26.0243 C   0  0  0  0  0  0  0  0  0  0  0  0
    8.0702  -12.6074   26.2754 C   0  0  0  0  0  0  0  0  0  0  0  0
    6.6447  -14.2054   18.1498 N   0  0  0  0  0  0  0  0  0  0  0  0
    8.0220  -14.0302   18.5472 C   0  0  0  0  0  0  0  0  0  0  0  0
    8.8674  -14.5222   17.7914 O   0  0  0  0  0  0  0  0  0  0  0  0
    8.2448  -13.2898   19.7928 C   0  0  0  0  0  0  0  0  0  0  0  0
    7.5197  -13.7492   20.9851 C   0  0  0  0  0  0  0  0  0  0  0  0
    7.7860  -15.0957   21.5556 C   0  0  2  0  0  0  0  0  0  0  0  0
    6.8968  -15.1647   22.7417 N   0  0  0  0  0  0  0  0  0  0  0  0
    9.1388  -15.4930   21.8550 C   0  0  0  0  0  0  0  0  0  0  0  0
    9.7147  -14.8919   22.8278 O   0  0  0  0  0  0  0  0  0  0  0  0
    9.9215  -16.4932   21.1957 N   0  0  0  0  0  0  0  0  0  0  0  0
    9.4052  -17.2488   20.0770 C   0  0  0  0  0  0  0  0  0  0  0  0
   10.6240  -17.6382   19.2906 C   0  0  0  0  0  0  0  0  0  0  0  0
   11.5314  -18.0771   20.4591 C   0  0  0  0  0  0  0  0  0  0  0  0
   11.2710  -16.8933   21.4208 C   0  0  1  0  0  0  0  0  0  0  0  0
   12.2601  -15.8472   21.0999 C   0  0  0  0  0  0  0  0  0  0  0  0
   11.9895  -14.9835   20.2477 O   0  0  0  0  0  0  0  0  0  0  0  0
   13.4748  -15.8208   21.7360 O   0  0  0  0  0  0  0  0  0  0  0  0
  2  1  1  0
  3  2  2  0
  4  3  1  0
  5  4  2  0
  5 11  1  0
  6  5  1  0
  7  8  1  1
  7  6  1  0
  9  7  1  0
  9 19  1  0
 10  9  2  0
 11 12  2  0
 12  2  1  0
 14 16  1  0
 14 13  1  0
 15 14  2  0
 17 16  1  0
 18 19  1  0
 18 17  1  1
 20 18  1  0
 21 20  2  0
 22 20  1  0
 23 22  1  0
 24 25  1  0
 24 23  1  0
 25 26  1  0
 26 22  1  0
 26 27  1  6
 27 29  1  0
 28 27  2  0
M  END
$$$$
