YQP.pdb
     RDKit          3D

 29 30  0  0  1  0  0  0  0  0999 V2000
    9.5924  -13.1170   17.1067 O   0  0  0  0  0  0  0  0  0  0  0  0
    8.8166  -13.4982   18.2023 C   0  0  0  0  0  0  0  0  0  0  0  0
    9.1459  -13.1220   19.4784 C   0  0  0  0  0  0  0  0  0  0  0  0
    8.3588  -13.5131   20.5550 C   0  0  0  0  0  0  0  0  0  0  0  0
    7.2214  -14.2910   20.3826 C   0  0  0  0  0  0  0  0  0  0  0  0
    6.3875  -14.7042   21.5323 C   0  0  0  0  0  0  0  0  0  0  0  0
    6.7164  -16.1729   21.8056 C   0  0  2  0  0  0  0  0  0  0  0  0
    5.6955  -16.9510   21.1516 N   0  0  0  0  0  0  0  0  0  0  0  0
    6.7840  -16.4258   23.2738 C   0  0  0  0  0  0  0  0  0  0  0  0
    5.7507  -16.1649   23.9256 O   0  0  0  0  0  0  0  0  0  0  0  0
    6.9217  -14.6513   19.0748 C   0  0  0  0  0  0  0  0  0  0  0  0
    7.6837  -14.2762   18.0039 C   0  0  0  0  0  0  0  0  0  0  0  0
    6.8679  -20.9078   26.1842 N   0  0  0  0  0  0  0  0  0  0  0  0
    7.5341  -20.2420   27.2790 C   0  0  0  0  0  0  0  0  0  0  0  0
    7.4955  -20.8256   28.3679 O   0  0  0  0  0  0  0  0  0  0  0  0
    8.1740  -18.9616   26.9618 C   0  0  0  0  0  0  0  0  0  0  0  0
    8.0401  -18.4677   25.5846 C   0  0  0  0  0  0  0  0  0  0  0  0
    8.1371  -17.0132   25.2939 C   0  0  2  0  0  0  0  0  0  0  0  0
    7.9799  -16.9309   23.8205 N   0  0  0  0  0  0  0  0  0  0  0  0
    9.2695  -16.2603   25.7719 C   0  0  0  0  0  0  0  0  0  0  0  0
   10.4293  -16.6926   25.4447 O   0  0  0  0  0  0  0  0  0  0  0  0
    9.2545  -15.0719   26.5690 N   0  0  0  0  0  0  0  0  0  0  0  0
    8.0537  -14.2862   26.7417 C   0  0  0  0  0  0  0  0  0  0  0  0
    8.2351  -13.6075   28.0691 C   0  0  0  0  0  0  0  0  0  0  0  0
    9.7049  -13.1646   27.9114 C   0  0  0  0  0  0  0  0  0  0  0  0
   10.2915  -14.4808   27.3482 C   0  0  1  0  0  0  0  0  0  0  0  0
   10.7056  -15.3008   28.5023 C   0  0  0  0  0  0  0  0  0  0  0  0
   11.7289  -14.9964   29.1393 O   0  0  0  0  0  0  0  0  0  0  0  0
    9.9689  -16.3951   28.8773 O   0  0  0  0  0  0  0  0  0  0  0  0
  2  1  1  0
  3  2  2  0
  4  3  1  0
  5  4  2  0
  5 11  1  0
  6  5  1  0
  7  8  1  1
  7  6  1  0
  9  7  1  0
  9 19  1  0
 10  9  2  0
 11 12  2  0
 12  2  1  0
 14 16  1  0
 14 13  1  0
 15 14  2  0
 17 16  1  0
 18 19  1  0
 18 17  1  6
 20 18  1  0
 21 20  2  0
 22 20  1  0
 23 22  1  0
 24 25  1  0
 24 23  1  0
 25 26  1  0
 26 22  1  0
 26 27  1  1
 27 29  1  0
 28 27  2  0
M  END
$$$$
