YQP.pdb
     RDKit          3D

 29 30  0  0  1  0  0  0  0  0999 V2000
   12.0079  -13.5294   17.7198 O   0  0  0  0  0  0  0  0  0  0  0  0
   10.8541  -13.7111   18.4834 C   0  0  0  0  0  0  0  0  0  0  0  0
   10.8767  -14.4165   19.6583 C   0  0  0  0  0  0  0  0  0  0  0  0
    9.7155  -14.5851   20.4029 C   0  0  0  0  0  0  0  0  0  0  0  0
    8.5011  -14.0521   19.9912 C   0  0  0  0  0  0  0  0  0  0  0  0
    7.2682  -14.2348   20.7880 C   0  0  0  0  0  0  0  0  0  0  0  0
    7.1477  -15.7335   21.0697 C   0  0  2  0  0  0  0  0  0  0  0  0
    6.3214  -16.2826   20.0251 N   0  0  0  0  0  0  0  0  0  0  0  0
    6.5854  -15.9627   22.4318 C   0  0  0  0  0  0  0  0  0  0  0  0
    5.3441  -15.8691   22.5379 O   0  0  0  0  0  0  0  0  0  0  0  0
    8.5197  -13.3443   18.7959 C   0  0  0  0  0  0  0  0  0  0  0  0
    9.6517  -13.1682   18.0504 C   0  0  0  0  0  0  0  0  0  0  0  0
    7.1276  -18.8557   27.5167 N   0  0  0  0  0  0  0  0  0  0  0  0
    7.5007  -19.3934   26.2293 C   0  0  0  0  0  0  0  0  0  0  0  0
    8.0708  -20.4900   26.2483 O   0  0  0  0  0  0  0  0  0  0  0  0
    7.1545  -18.5746   25.0634 C   0  0  0  0  0  0  0  0  0  0  0  0
    6.4500  -17.3106   25.3167 C   0  0  0  0  0  0  0  0  0  0  0  0
    7.0464  -16.0177   24.8896 C   0  0  2  0  0  0  0  0  0  0  0  0
    7.4676  -16.2630   23.4880 N   0  0  0  0  0  0  0  0  0  0  0  0
    8.0872  -15.4118   25.6816 C   0  0  0  0  0  0  0  0  0  0  0  0
    9.2621  -15.9073   25.5667 O   0  0  0  0  0  0  0  0  0  0  0  0
    7.9672  -14.3074   26.5837 N   0  0  0  0  0  0  0  0  0  0  0  0
    6.7081  -13.6296   26.7941 C   0  0  0  0  0  0  0  0  0  0  0  0
    6.8104  -13.0669   28.1826 C   0  0  0  0  0  0  0  0  0  0  0  0
    8.2463  -12.5066   28.1076 C   0  0  0  0  0  0  0  0  0  0  0  0
    8.9408  -13.7188   27.4426 C   0  0  1  0  0  0  0  0  0  0  0  0
    9.3899  -14.6113   28.5277 C   0  0  0  0  0  0  0  0  0  0  0  0
    8.7902  -15.6804   28.7347 O   0  0  0  0  0  0  0  0  0  0  0  0
   10.4646  -14.2698   29.3083 O   0  0  0  0  0  0  0  0  0  0  0  0
  2  1  1  0
  3  2  2  0
  4  3  1  0
  5  4  2  0
  5 11  1  0
  6  5  1  0
  7  8  1  6
  7  6  1  0
  9  7  1  0
  9 19  1  0
 10  9  2  0
 11 12  2  0
 12  2  1  0
 14 16  1  0
 14 13  1  0
 15 14  2  0
 17 16  1  0
 18 19  1  0
 18 17  1  1
 20 18  1  0
 21 20  2  0
 22 20  1  0
 23 22  1  0
 24 25  1  0
 24 23  1  0
 25 26  1  0
 26 22  1  0
 26 27  1  1
 27 29  1  0
 28 27  2  0
M  END
$$$$
