YQP.pdb
     RDKit          3D

 29 30  0  0  1  0  0  0  0  0999 V2000
    8.6409  -13.4940   16.4231 O   0  0  0  0  0  0  0  0  0  0  0  0
    8.3113  -13.6647   17.7683 C   0  0  0  0  0  0  0  0  0  0  0  0
    9.1752  -14.2652   18.6466 C   0  0  0  0  0  0  0  0  0  0  0  0
    8.8262  -14.4249   19.9823 C   0  0  0  0  0  0  0  0  0  0  0  0
    7.6033  -13.9877   20.4740 C   0  0  0  0  0  0  0  0  0  0  0  0
    7.2372  -14.1603   21.8968 C   0  0  0  0  0  0  0  0  0  0  0  0
    7.0831  -15.6644   22.1293 C   0  0  2  0  0  0  0  0  0  0  0  0
    5.7797  -16.0253   21.6331 N   0  0  0  0  0  0  0  0  0  0  0  0
    7.2614  -15.9878   23.5742 C   0  0  0  0  0  0  0  0  0  0  0  0
    6.3086  -15.6921   24.3262 O   0  0  0  0  0  0  0  0  0  0  0  0
    6.7561  -13.3845   19.5529 C   0  0  0  0  0  0  0  0  0  0  0  0
    7.0822  -13.2189   18.2358 C   0  0  0  0  0  0  0  0  0  0  0  0
    7.7752  -19.5555   27.8368 N   0  0  0  0  0  0  0  0  0  0  0  0
    6.8151  -19.6530   26.7623 C   0  0  0  0  0  0  0  0  0  0  0  0
    5.7366  -20.1840   27.0502 O   0  0  0  0  0  0  0  0  0  0  0  0
    7.2377  -19.1086   25.4683 C   0  0  0  0  0  0  0  0  0  0  0  0
    8.5486  -18.4475   25.4145 C   0  0  0  0  0  0  0  0  0  0  0  0
    8.6441  -16.9641   25.4158 C   0  0  2  0  0  0  0  0  0  0  0  0
    8.4637  -16.5920   23.9906 N   0  0  0  0  0  0  0  0  0  0  0  0
    9.7855  -16.3194   26.0153 C   0  0  0  0  0  0  0  0  0  0  0  0
   10.9388  -16.6732   25.5866 O   0  0  0  0  0  0  0  0  0  0  0  0
    9.7858  -15.3163   27.0358 N   0  0  0  0  0  0  0  0  0  0  0  0
    8.6017  -14.5494   27.3498 C   0  0  0  0  0  0  0  0  0  0  0  0
    8.7770  -14.1575   28.7889 C   0  0  0  0  0  0  0  0  0  0  0  0
   10.2595  -13.7318   28.7411 C   0  0  0  0  0  0  0  0  0  0  0  0
   10.8236  -14.9228   27.9304 C   0  0  1  0  0  0  0  0  0  0  0  0
   11.1982  -15.9696   28.8997 C   0  0  0  0  0  0  0  0  0  0  0  0
   10.4605  -16.9581   29.0555 O   0  0  0  0  0  0  0  0  0  0  0  0
   12.3546  -15.8598   29.6287 O   0  0  0  0  0  0  0  0  0  0  0  0
  2  1  1  0
  3  2  2  0
  4  3  1  0
  5  4  2  0
  5 11  1  0
  6  5  1  0
  7  8  1  1
  7  6  1  0
  9  7  1  0
  9 19  1  0
 10  9  2  0
 11 12  2  0
 12  2  1  0
 14 16  1  0
 14 13  1  0
 15 14  2  0
 17 16  1  0
 18 19  1  0
 18 17  1  6
 20 18  1  0
 21 20  2  0
 22 20  1  0
 23 22  1  0
 24 25  1  0
 24 23  1  0
 25 26  1  0
 26 22  1  0
 26 27  1  1
 27 29  1  0
 28 27  2  0
M  END
$$$$
