YQP.pdb
     RDKit          3D

 29 30  0  0  1  0  0  0  0  0999 V2000
    9.8399  -12.5547   17.4890 O   0  0  0  0  0  0  0  0  0  0  0  0
    8.8981  -13.1994   18.2919 C   0  0  0  0  0  0  0  0  0  0  0  0
    8.0133  -14.1067   17.7701 C   0  0  0  0  0  0  0  0  0  0  0  0
    7.0836  -14.7371   18.5884 C   0  0  0  0  0  0  0  0  0  0  0  0
    7.0151  -14.4759   19.9506 C   0  0  0  0  0  0  0  0  0  0  0  0
    6.0233  -15.1500   20.8167 C   0  0  0  0  0  0  0  0  0  0  0  0
    6.6772  -16.4435   21.3058 C   0  0  2  0  0  0  0  0  0  0  0  0
    6.0090  -17.5239   20.6263 N   0  0  0  0  0  0  0  0  0  0  0  0
    6.5796  -16.5462   22.7904 C   0  0  0  0  0  0  0  0  0  0  0  0
    5.4304  -16.6935   23.2577 O   0  0  0  0  0  0  0  0  0  0  0  0
    7.9284  -13.5510   20.4408 C   0  0  0  0  0  0  0  0  0  0  0  0
    8.8496  -12.9213   19.6515 C   0  0  0  0  0  0  0  0  0  0  0  0
    8.1904  -20.6502   25.9861 N   0  0  0  0  0  0  0  0  0  0  0  0
    7.0062  -20.3467   25.2172 C   0  0  0  0  0  0  0  0  0  0  0  0
    6.2909  -21.3119   24.9263 O   0  0  0  0  0  0  0  0  0  0  0  0
    6.7996  -18.9347   24.8811 C   0  0  0  0  0  0  0  0  0  0  0  0
    7.8151  -17.9793   25.3443 C   0  0  0  0  0  0  0  0  0  0  0  0
    7.6829  -16.5314   25.0352 C   0  0  2  0  0  0  0  0  0  0  0  0
    7.7607  -16.4725   23.5544 N   0  0  0  0  0  0  0  0  0  0  0  0
    8.5570  -15.5792   25.6730 C   0  0  0  0  0  0  0  0  0  0  0  0
    9.8091  -15.8463   25.6595 O   0  0  0  0  0  0  0  0  0  0  0  0
    8.1926  -14.3553   26.3189 N   0  0  0  0  0  0  0  0  0  0  0  0
    6.8535  -13.8183   26.2323 C   0  0  0  0  0  0  0  0  0  0  0  0
    6.6913  -13.0066   27.4855 C   0  0  0  0  0  0  0  0  0  0  0  0
    8.0576  -12.2892   27.4833 C   0  0  0  0  0  0  0  0  0  0  0  0
    8.9631  -13.5018   27.1614 C   0  0  1  0  0  0  0  0  0  0  0  0
    9.3358  -14.1194   28.4480 C   0  0  0  0  0  0  0  0  0  0  0  0
   10.0765  -13.5050   29.2351 O   0  0  0  0  0  0  0  0  0  0  0  0
    8.8701  -15.3654   28.7815 O   0  0  0  0  0  0  0  0  0  0  0  0
  2  1  1  0
  3  2  2  0
  4  3  1  0
  5  4  2  0
  5 11  1  0
  6  5  1  0
  7  8  1  6
  7  6  1  0
  9  7  1  0
  9 19  1  0
 10  9  2  0
 11 12  2  0
 12  2  1  0
 14 16  1  0
 14 13  1  0
 15 14  2  0
 17 16  1  0
 18 19  1  0
 18 17  1  1
 20 18  1  0
 21 20  2  0
 22 20  1  0
 23 22  1  0
 24 25  1  0
 24 23  1  0
 25 26  1  0
 26 22  1  0
 26 27  1  1
 27 29  1  0
 28 27  2  0
M  END
$$$$
