YQP.pdb
     RDKit          3D

 29 30  0  0  1  0  0  0  0  0999 V2000
    9.2304  -13.7504   15.8897 O   0  0  0  0  0  0  0  0  0  0  0  0
    8.7347  -13.7892   17.1936 C   0  0  0  0  0  0  0  0  0  0  0  0
    7.5254  -13.2311   17.5169 C   0  0  0  0  0  0  0  0  0  0  0  0
    7.0510  -13.2814   18.8222 C   0  0  0  0  0  0  0  0  0  0  0  0
    7.7746  -13.8916   19.8383 C   0  0  0  0  0  0  0  0  0  0  0  0
    7.2646  -13.9421   21.2259 C   0  0  0  0  0  0  0  0  0  0  0  0
    7.0749  -15.4208   21.5686 C   0  0  2  0  0  0  0  0  0  0  0  0
    5.8961  -15.8575   20.8649 N   0  0  0  0  0  0  0  0  0  0  0  0
    6.9670  -15.6024   23.0450 C   0  0  0  0  0  0  0  0  0  0  0  0
    5.9071  -15.2040   23.5727 O   0  0  0  0  0  0  0  0  0  0  0  0
    8.9945  -14.4451   19.4705 C   0  0  0  0  0  0  0  0  0  0  0  0
    9.4771  -14.4054   18.1923 C   0  0  0  0  0  0  0  0  0  0  0  0
    7.2482  -20.6702   24.2795 N   0  0  0  0  0  0  0  0  0  0  0  0
    6.2885  -19.6457   23.9402 C   0  0  0  0  0  0  0  0  0  0  0  0
    5.5593  -19.8901   22.9725 O   0  0  0  0  0  0  0  0  0  0  0  0
    6.2974  -18.4481   24.7858 C   0  0  0  0  0  0  0  0  0  0  0  0
    7.6065  -17.9479   25.2268 C   0  0  0  0  0  0  0  0  0  0  0  0
    7.9100  -16.4934   25.1835 C   0  0  2  0  0  0  0  0  0  0  0  0
    8.0410  -16.1974   23.7353 N   0  0  0  0  0  0  0  0  0  0  0  0
    9.0062  -15.9662   25.9569 C   0  0  0  0  0  0  0  0  0  0  0  0
   10.1666  -16.4515   25.7180 O   0  0  0  0  0  0  0  0  0  0  0  0
    8.9558  -14.9505   26.9636 N   0  0  0  0  0  0  0  0  0  0  0  0
    7.7353  -14.2375   27.2652 C   0  0  0  0  0  0  0  0  0  0  0  0
    7.8883  -13.8181   28.6991 C   0  0  0  0  0  0  0  0  0  0  0  0
    9.3486  -13.3219   28.6478 C   0  0  0  0  0  0  0  0  0  0  0  0
    9.9713  -14.4952   27.8544 C   0  0  1  0  0  0  0  0  0  0  0  0
   10.3939  -15.5094   28.8385 C   0  0  0  0  0  0  0  0  0  0  0  0
   11.3647  -15.2811   29.5809 O   0  0  0  0  0  0  0  0  0  0  0  0
    9.7227  -16.7010   28.9403 O   0  0  0  0  0  0  0  0  0  0  0  0
  2  1  1  0
  3  2  2  0
  4  3  1  0
  5  4  2  0
  5 11  1  0
  6  5  1  0
  7  8  1  6
  7  6  1  0
  9  7  1  0
  9 19  1  0
 10  9  2  0
 11 12  2  0
 12  2  1  0
 14 16  1  0
 14 13  1  0
 15 14  2  0
 17 16  1  0
 18 19  1  0
 18 17  1  6
 20 18  1  0
 21 20  2  0
 22 20  1  0
 23 22  1  0
 24 25  1  0
 24 23  1  0
 25 26  1  0
 26 22  1  0
 26 27  1  1
 27 29  1  0
 28 27  2  0
M  END
$$$$
