YQP.pdb
     RDKit          3D

 29 30  0  0  1  0  0  0  0  0999 V2000
    6.0579  -10.2173   26.9270 O   0  0  0  0  0  0  0  0  0  0  0  0
    6.3618  -11.5651   26.7305 C   0  0  0  0  0  0  0  0  0  0  0  0
    5.3914  -12.5318   26.7749 C   0  0  0  0  0  0  0  0  0  0  0  0
    5.7166  -13.8683   26.5763 C   0  0  0  0  0  0  0  0  0  0  0  0
    7.0218  -14.2723   26.3280 C   0  0  0  0  0  0  0  0  0  0  0  0
    7.3621  -15.6963   26.1174 C   0  0  0  0  0  0  0  0  0  0  0  0
    6.6857  -16.1192   24.8122 C   0  0  2  0  0  0  0  0  0  0  0  0
    5.8390  -17.2398   25.1327 N   0  0  0  0  0  0  0  0  0  0  0  0
    7.7096  -16.4457   23.7782 C   0  0  0  0  0  0  0  0  0  0  0  0
    8.2869  -17.5465   23.9034 O   0  0  0  0  0  0  0  0  0  0  0  0
    7.9759  -13.2631   26.2909 C   0  0  0  0  0  0  0  0  0  0  0  0
    7.6748  -11.9439   26.4838 C   0  0  0  0  0  0  0  0  0  0  0  0
    8.6745  -12.6179   18.9284 N   0  0  0  0  0  0  0  0  0  0  0  0
    7.7455  -13.7069   18.7368 C   0  0  0  0  0  0  0  0  0  0  0  0
    6.9489  -13.5768   17.8006 O   0  0  0  0  0  0  0  0  0  0  0  0
    7.8652  -14.8291   19.6726 C   0  0  0  0  0  0  0  0  0  0  0  0
    8.8571  -14.7022   20.7489 C   0  0  0  0  0  0  0  0  0  0  0  0
    9.0210  -15.7860   21.7530 C   0  0  2  0  0  0  0  0  0  0  0  0
    7.9557  -15.5150   22.7500 N   0  0  0  0  0  0  0  0  0  0  0  0
   10.3071  -16.0083   22.3648 C   0  0  0  0  0  0  0  0  0  0  0  0
   10.7491  -15.0828   23.1311 O   0  0  0  0  0  0  0  0  0  0  0  0
   11.1547  -17.1527   22.2246 N   0  0  0  0  0  0  0  0  0  0  0  0
   10.7337  -18.3270   21.4948 C   0  0  0  0  0  0  0  0  0  0  0  0
   12.0122  -18.9475   21.0092 C   0  0  0  0  0  0  0  0  0  0  0  0
   12.8451  -18.8199   22.3020 C   0  0  0  0  0  0  0  0  0  0  0  0
   12.4935  -17.3585   22.6689 C   0  0  1  0  0  0  0  0  0  0  0  0
   13.4802  -16.4923   21.9967 C   0  0  0  0  0  0  0  0  0  0  0  0
   13.1806  -15.9295   20.9295 O   0  0  0  0  0  0  0  0  0  0  0  0
   14.7244  -16.3034   22.5418 O   0  0  0  0  0  0  0  0  0  0  0  0
  2  1  1  0
  3  2  2  0
  4  3  1  0
  5  4  2  0
  5 11  1  0
  6  5  1  0
  7  8  1  1
  7  6  1  0
  9  7  1  0
  9 19  1  0
 10  9  2  0
 11 12  2  0
 12  2  1  0
 14 16  1  0
 14 13  1  0
 15 14  2  0
 17 16  1  0
 18 19  1  0
 18 17  1  6
 20 18  1  0
 21 20  2  0
 22 20  1  0
 23 22  1  0
 24 25  1  0
 24 23  1  0
 25 26  1  0
 26 22  1  0
 26 27  1  6
 27 29  1  0
 28 27  2  0
M  END
$$$$
