YQP.pdb
     RDKit          3D

 29 30  0  0  1  0  0  0  0  0999 V2000
    9.6105  -14.3723   15.4016 O   0  0  0  0  0  0  0  0  0  0  0  0
    9.0409  -14.3171   16.6744 C   0  0  0  0  0  0  0  0  0  0  0  0
    7.9172  -13.5734   16.9244 C   0  0  0  0  0  0  0  0  0  0  0  0
    7.3669  -13.5328   18.1999 C   0  0  0  0  0  0  0  0  0  0  0  0
    7.9268  -14.2355   19.2587 C   0  0  0  0  0  0  0  0  0  0  0  0
    7.3366  -14.1885   20.6142 C   0  0  0  0  0  0  0  0  0  0  0  0
    7.0941  -15.6387   21.0362 C   0  0  2  0  0  0  0  0  0  0  0  0
    6.0293  -16.1363   20.2031 N   0  0  0  0  0  0  0  0  0  0  0  0
    6.7715  -15.7098   22.4905 C   0  0  0  0  0  0  0  0  0  0  0  0
    5.6180  -15.3576   22.8163 O   0  0  0  0  0  0  0  0  0  0  0  0
    9.0644  -14.9769   18.9647 C   0  0  0  0  0  0  0  0  0  0  0  0
    9.6196  -15.0288   17.7169 C   0  0  0  0  0  0  0  0  0  0  0  0
    7.4381  -20.2665   25.8290 N   0  0  0  0  0  0  0  0  0  0  0  0
    7.2123  -19.3748   26.9424 C   0  0  0  0  0  0  0  0  0  0  0  0
    7.0423  -19.9165   28.0403 O   0  0  0  0  0  0  0  0  0  0  0  0
    7.2159  -17.9419   26.6322 C   0  0  0  0  0  0  0  0  0  0  0  0
    7.4661  -17.5583   25.2362 C   0  0  0  0  0  0  0  0  0  0  0  0
    7.5061  -16.1248   24.8452 C   0  0  2  0  0  0  0  0  0  0  0  0
    7.7634  -16.1589   23.3840 N   0  0  0  0  0  0  0  0  0  0  0  0
    8.3833  -15.2161   25.5399 C   0  0  0  0  0  0  0  0  0  0  0  0
    9.6337  -15.4901   25.5163 O   0  0  0  0  0  0  0  0  0  0  0  0
    8.0235  -14.0288   26.2530 N   0  0  0  0  0  0  0  0  0  0  0  0
    6.7136  -13.4315   26.1254 C   0  0  0  0  0  0  0  0  0  0  0  0
    6.5012  -12.7078   27.4240 C   0  0  0  0  0  0  0  0  0  0  0  0
    7.8903  -12.0497   27.5601 C   0  0  0  0  0  0  0  0  0  0  0  0
    8.7692  -13.2721   27.2035 C   0  0  1  0  0  0  0  0  0  0  0  0
    9.0354  -13.9973   28.4600 C   0  0  0  0  0  0  0  0  0  0  0  0
    8.4326  -15.0579   28.6992 O   0  0  0  0  0  0  0  0  0  0  0  0
    9.9435  -13.5098   29.3647 O   0  0  0  0  0  0  0  0  0  0  0  0
  2  1  1  0
  3  2  2  0
  4  3  1  0
  5  4  2  0
  5 11  1  0
  6  5  1  0
  7  8  1  6
  7  6  1  0
  9  7  1  0
  9 19  1  0
 10  9  2  0
 11 12  2  0
 12  2  1  0
 14 16  1  0
 14 13  1  0
 15 14  2  0
 17 16  1  0
 18 19  1  0
 18 17  1  1
 20 18  1  0
 21 20  2  0
 22 20  1  0
 23 22  1  0
 24 25  1  0
 24 23  1  0
 25 26  1  0
 26 22  1  0
 26 27  1  1
 27 29  1  0
 28 27  2  0
M  END
$$$$
