YQP.pdb
     RDKit          3D

 29 30  0  0  1  0  0  0  0  0999 V2000
   11.5995  -21.9991   29.2348 O   0  0  0  0  0  0  0  0  0  0  0  0
   11.5293  -20.7870   28.5468 C   0  0  0  0  0  0  0  0  0  0  0  0
   12.4845  -19.8172   28.7055 C   0  0  0  0  0  0  0  0  0  0  0  0
   12.3946  -18.6172   28.0101 C   0  0  0  0  0  0  0  0  0  0  0  0
   11.3462  -18.3566   27.1375 C   0  0  0  0  0  0  0  0  0  0  0  0
   11.2558  -17.0775   26.4000 C   0  0  0  0  0  0  0  0  0  0  0  0
   11.0690  -17.4357   24.9246 C   0  0  2  0  0  0  0  0  0  0  0  0
   12.3488  -17.8948   24.4482 N   0  0  0  0  0  0  0  0  0  0  0  0
   10.5579  -16.2586   24.1647 C   0  0  0  0  0  0  0  0  0  0  0  0
   11.3230  -15.2734   24.0958 O   0  0  0  0  0  0  0  0  0  0  0  0
   10.3990  -19.3641   27.0042 C   0  0  0  0  0  0  0  0  0  0  0  0
   10.4709  -20.5502   27.6797 C   0  0  0  0  0  0  0  0  0  0  0  0
    8.4054  -14.3816   19.6624 N   0  0  0  0  0  0  0  0  0  0  0  0
    7.2427  -13.7844   20.2766 C   0  0  0  0  0  0  0  0  0  0  0  0
    6.7269  -12.8480   19.6562 O   0  0  0  0  0  0  0  0  0  0  0  0
    6.8188  -14.3643   21.5547 C   0  0  0  0  0  0  0  0  0  0  0  0
    7.6872  -15.3912   22.1463 C   0  0  0  0  0  0  0  0  0  0  0  0
    8.5072  -15.0828   23.3472 C   0  0  2  0  0  0  0  0  0  0  0  0
    9.2756  -16.3297   23.5863 N   0  0  0  0  0  0  0  0  0  0  0  0
    7.8710  -14.5877   24.5421 C   0  0  0  0  0  0  0  0  0  0  0  0
    7.3444  -15.4589   25.3185 O   0  0  0  0  0  0  0  0  0  0  0  0
    7.7625  -13.2279   24.9743 N   0  0  0  0  0  0  0  0  0  0  0  0
    8.2847  -12.1346   24.1862 C   0  0  0  0  0  0  0  0  0  0  0  0
    7.4382  -10.9551   24.5704 C   0  0  0  0  0  0  0  0  0  0  0  0
    7.4179  -11.1642   26.0992 C   0  0  0  0  0  0  0  0  0  0  0  0
    7.1268  -12.6835   26.1282 C   0  0  1  0  0  0  0  0  0  0  0  0
    5.6607  -12.8451   26.1282 C   0  0  0  0  0  0  0  0  0  0  0  0
    5.0804  -13.2075   25.0901 O   0  0  0  0  0  0  0  0  0  0  0  0
    4.9345  -12.5992   27.2653 O   0  0  0  0  0  0  0  0  0  0  0  0
  2  1  1  0
  3  2  2  0
  4  3  1  0
  5  4  2  0
  5 11  1  0
  6  5  1  0
  7  8  1  6
  7  6  1  0
  9  7  1  0
  9 19  1  0
 10  9  2  0
 11 12  2  0
 12  2  1  0
 14 16  1  0
 14 13  1  0
 15 14  2  0
 17 16  1  0
 18 19  1  0
 18 17  1  6
 20 18  1  0
 21 20  2  0
 22 20  1  0
 23 22  1  0
 24 25  1  0
 24 23  1  0
 25 26  1  0
 26 22  1  0
 26 27  1  6
 27 29  1  0
 28 27  2  0
M  END
$$$$
