YQP.pdb
     RDKit          3D

 29 30  0  0  1  0  0  0  0  0999 V2000
   10.7261  -12.5750   18.5385 O   0  0  0  0  0  0  0  0  0  0  0  0
    9.5773  -13.2133   19.0079 C   0  0  0  0  0  0  0  0  0  0  0  0
    8.6507  -12.5508   19.7699 C   0  0  0  0  0  0  0  0  0  0  0  0
    7.5136  -13.2063   20.2268 C   0  0  0  0  0  0  0  0  0  0  0  0
    7.2742  -14.5423   19.9330 C   0  0  0  0  0  0  0  0  0  0  0  0
    6.0620  -15.2348   20.4222 C   0  0  0  0  0  0  0  0  0  0  0  0
    6.5336  -16.5404   21.0649 C   0  0  2  0  0  0  0  0  0  0  0  0
    5.7706  -17.5983   20.4533 N   0  0  0  0  0  0  0  0  0  0  0  0
    6.3595  -16.4836   22.5450 C   0  0  0  0  0  0  0  0  0  0  0  0
    5.2036  -16.6897   22.9716 O   0  0  0  0  0  0  0  0  0  0  0  0
    8.2364  -15.1783   19.1588 C   0  0  0  0  0  0  0  0  0  0  0  0
    9.3605  -14.5500   18.7006 C   0  0  0  0  0  0  0  0  0  0  0  0
    6.1157  -20.3142   26.7506 N   0  0  0  0  0  0  0  0  0  0  0  0
    7.3632  -19.5878   26.7930 C   0  0  0  0  0  0  0  0  0  0  0  0
    8.3717  -20.2626   27.0287 O   0  0  0  0  0  0  0  0  0  0  0  0
    7.2779  -18.1446   26.5489 C   0  0  0  0  0  0  0  0  0  0  0  0
    7.3538  -17.6949   25.1523 C   0  0  0  0  0  0  0  0  0  0  0  0
    7.3536  -16.2443   24.8277 C   0  0  2  0  0  0  0  0  0  0  0  0
    7.4821  -16.2078   23.3497 N   0  0  0  0  0  0  0  0  0  0  0  0
    8.2846  -15.3621   25.4856 C   0  0  0  0  0  0  0  0  0  0  0  0
    9.5287  -15.6333   25.3525 O   0  0  0  0  0  0  0  0  0  0  0  0
    7.9844  -14.2038   26.2705 N   0  0  0  0  0  0  0  0  0  0  0  0
    6.6291  -13.7333   26.4457 C   0  0  0  0  0  0  0  0  0  0  0  0
    6.6471  -13.0147   27.7643 C   0  0  0  0  0  0  0  0  0  0  0  0
    7.9631  -12.2281   27.5892 C   0  0  0  0  0  0  0  0  0  0  0  0
    8.8502  -13.3679   27.0344 C   0  0  1  0  0  0  0  0  0  0  0  0
    9.4591  -14.0478   28.1932 C   0  0  0  0  0  0  0  0  0  0  0  0
   10.3093  -13.4545   28.8793 O   0  0  0  0  0  0  0  0  0  0  0  0
    9.0927  -15.3286   28.5187 O   0  0  0  0  0  0  0  0  0  0  0  0
  2  1  1  0
  3  2  2  0
  4  3  1  0
  5  4  2  0
  5 11  1  0
  6  5  1  0
  7  8  1  6
  7  6  1  0
  9  7  1  0
  9 19  1  0
 10  9  2  0
 11 12  2  0
 12  2  1  0
 14 16  1  0
 14 13  1  0
 15 14  2  0
 17 16  1  0
 18 19  1  0
 18 17  1  1
 20 18  1  0
 21 20  2  0
 22 20  1  0
 23 22  1  0
 24 25  1  0
 24 23  1  0
 25 26  1  0
 26 22  1  0
 26 27  1  1
 27 29  1  0
 28 27  2  0
M  END
$$$$
