CLE.pdb
     RDKit          3D

 24 23  0  0  1  0  0  0  0  0999 V2000
    8.6465  -15.5760   19.6523 N   0  0  0  0  0  0  0  0  0  0  0  0
    7.8052  -15.9098   20.7662 C   0  0  1  0  0  0  0  0  0  0  0  0
    7.6821  -17.4039   20.9338 C   0  0  0  0  0  0  0  0  0  0  0  0
    6.8855  -18.0730   19.4459 S   0  0  0  0  0  0  0  0  0  0  0  0
    8.3322  -15.2859   22.0028 C   0  0  0  0  0  0  0  0  0  0  0  0
    9.5806  -15.1576   22.1321 O   0  0  0  0  0  0  0  0  0  0  0  0
    5.9024  -12.5709   27.0005 C   0  0  0  0  0  0  0  0  0  0  0  0
    7.2067  -13.0942   26.3782 C   0  0  2  0  0  0  0  0  0  0  0  0
    8.1605  -11.9458   26.3639 C   0  0  0  0  0  0  0  0  0  0  0  0
    6.8308  -13.6352   25.0397 C   0  0  0  0  0  0  0  0  0  0  0  0
    7.9368  -14.2364   24.2449 C   0  0  2  0  0  0  0  0  0  0  0  0
    7.4694  -14.8424   23.0176 N   0  0  0  0  0  0  0  0  0  0  0  0
    8.5353  -15.3460   25.0742 C   0  0  0  0  0  0  0  0  0  0  0  0
    7.7869  -16.3362   25.3541 O   0  0  0  0  0  0  0  0  0  0  0  0
    9.8632  -15.3066   25.5291 N   0  0  0  0  0  0  0  0  0  0  0  0
   10.4556  -16.5072   26.1977 C   0  0  1  0  0  0  0  0  0  0  0  0
   11.8533  -16.6039   25.7465 C   0  0  0  0  0  0  0  0  0  0  0  0
   12.0993  -17.4608   24.5574 C   0  0  0  0  0  0  0  0  0  0  0  0
   13.4470  -17.4417   23.9813 C   0  0  0  0  0  0  0  0  0  0  0  0
   13.6919  -18.0544   22.9196 O   0  0  0  0  0  0  0  0  0  0  0  0
   10.1830  -16.4664   27.6176 C   0  0  0  0  0  0  0  0  0  0  0  0
    9.7092  -15.4989   28.2403 O   0  0  0  0  0  0  0  0  0  0  0  0
   14.4580  -16.7426   24.6028 O   0  0  0  0  0  0  0  0  0  0  0  0
   10.4720  -17.6177   28.3920 O   0  0  0  0  0  0  0  0  0  0  0  0
  2  3  1  0
  2  1  1  6
  4  3  1  0
  5  2  1  0
  5  6  2  0
  8  7  1  6
  8 10  1  0
  8  9  1  0
 11 10  1  1
 11 13  1  0
 12 11  1  0
 12  5  1  0
 13 14  2  0
 13 15  1  0
 15 16  1  0
 16 21  1  0
 16 17  1  1
 18 17  1  0
 19 18  1  0
 20 19  2  0
 21 22  2  0
 21 24  1  0
 23 19  1  0
M  END
$$$$
