CLE.pdb
     RDKit          3D

 24 23  0  0  1  0  0  0  0  0999 V2000
    8.9392  -16.3770   20.4385 N   0  0  0  0  0  0  0  0  0  0  0  0
    7.9113  -16.3095   21.4380 C   0  0  1  0  0  0  0  0  0  0  0  0
    7.5350  -17.6839   21.9330 C   0  0  0  0  0  0  0  0  0  0  0  0
    8.9961  -18.4166   22.7232 S   0  0  0  0  0  0  0  0  0  0  0  0
    8.3544  -15.4514   22.5620 C   0  0  0  0  0  0  0  0  0  0  0  0
    9.5808  -15.1738   22.6655 O   0  0  0  0  0  0  0  0  0  0  0  0
    5.6181  -11.8447   26.7445 C   0  0  0  0  0  0  0  0  0  0  0  0
    6.9726  -12.3997   26.2760 C   0  0  2  0  0  0  0  0  0  0  0  0
    7.8182  -11.2189   25.9304 C   0  0  0  0  0  0  0  0  0  0  0  0
    6.6652  -13.3239   25.1460 C   0  0  0  0  0  0  0  0  0  0  0  0
    7.8180  -14.0898   24.5974 C   0  0  2  0  0  0  0  0  0  0  0  0
    7.4372  -14.9510   23.4996 N   0  0  0  0  0  0  0  0  0  0  0  0
    8.3244  -14.9901   25.6974 C   0  0  0  0  0  0  0  0  0  0  0  0
    8.3657  -14.5092   26.8747 O   0  0  0  0  0  0  0  0  0  0  0  0
    8.7387  -16.3093   25.4527 N   0  0  0  0  0  0  0  0  0  0  0  0
    9.2079  -17.1637   26.5882 C   0  0  1  0  0  0  0  0  0  0  0  0
    8.7288  -18.5301   26.3239 C   0  0  0  0  0  0  0  0  0  0  0  0
    7.7047  -19.0575   27.2628 C   0  0  0  0  0  0  0  0  0  0  0  0
    7.2545  -20.4378   27.0617 C   0  0  0  0  0  0  0  0  0  0  0  0
    6.4312  -20.9574   27.8458 O   0  0  0  0  0  0  0  0  0  0  0  0
   10.6208  -16.9521   26.8141 C   0  0  0  0  0  0  0  0  0  0  0  0
   11.2018  -17.0274   27.9119 O   0  0  0  0  0  0  0  0  0  0  0  0
    7.7313  -21.1761   26.0011 O   0  0  0  0  0  0  0  0  0  0  0  0
   11.4392  -16.6289   25.7031 O   0  0  0  0  0  0  0  0  0  0  0  0
  2  3  1  0
  2  1  1  6
  4  3  1  0
  5  2  1  0
  5  6  2  0
  8  7  1  6
  8 10  1  0
  8  9  1  0
 11 10  1  1
 11 13  1  0
 12 11  1  0
 12  5  1  0
 13 14  2  0
 13 15  1  0
 15 16  1  0
 16 21  1  0
 16 17  1  6
 18 17  1  0
 19 18  1  0
 20 19  2  0
 21 22  2  0
 21 24  1  0
 23 19  1  0
M  END
$$$$
