CLE.pdb
     RDKit          3D

 24 23  0  0  1  0  0  0  0  0999 V2000
    8.2715  -16.0440   19.6390 N   0  0  0  0  0  0  0  0  0  0  0  0
    7.6632  -16.2873   20.9160 C   0  0  1  0  0  0  0  0  0  0  0  0
    7.9579  -17.6824   21.4083 C   0  0  0  0  0  0  0  0  0  0  0  0
    9.4124  -18.2989   20.5139 S   0  0  0  0  0  0  0  0  0  0  0  0
    8.1255  -15.2774   21.8971 C   0  0  0  0  0  0  0  0  0  0  0  0
    9.1779  -14.6276   21.6476 O   0  0  0  0  0  0  0  0  0  0  0  0
    5.8081  -12.5632   26.9296 C   0  0  0  0  0  0  0  0  0  0  0  0
    7.0767  -12.7232   26.0769 C   0  0  2  0  0  0  0  0  0  0  0  0
    7.4326  -11.3590   25.5859 C   0  0  0  0  0  0  0  0  0  0  0  0
    6.7340  -13.7185   25.0198 C   0  0  0  0  0  0  0  0  0  0  0  0
    7.8280  -14.0665   24.0720 C   0  0  2  0  0  0  0  0  0  0  0  0
    7.4152  -15.0391   23.0843 N   0  0  0  0  0  0  0  0  0  0  0  0
    8.9323  -14.7085   24.8755 C   0  0  0  0  0  0  0  0  0  0  0  0
    9.1917  -14.2093   26.0167 O   0  0  0  0  0  0  0  0  0  0  0  0
    9.6570  -15.8136   24.4008 N   0  0  0  0  0  0  0  0  0  0  0  0
   10.7200  -16.4283   25.2562 C   0  0  1  0  0  0  0  0  0  0  0  0
   10.0631  -16.8954   26.4878 C   0  0  0  0  0  0  0  0  0  0  0  0
   10.9224  -17.6376   27.4466 C   0  0  0  0  0  0  0  0  0  0  0  0
   10.2493  -18.4475   28.4661 C   0  0  0  0  0  0  0  0  0  0  0  0
    9.0032  -18.5459   28.4775 O   0  0  0  0  0  0  0  0  0  0  0  0
   11.4952  -17.3705   24.4794 C   0  0  0  0  0  0  0  0  0  0  0  0
   11.1073  -17.9642   23.4569 O   0  0  0  0  0  0  0  0  0  0  0  0
   10.9852  -19.1139   29.4209 O   0  0  0  0  0  0  0  0  0  0  0  0
   12.8175  -17.6614   24.8983 O   0  0  0  0  0  0  0  0  0  0  0  0
  2  3  1  0
  2  1  1  6
  4  3  1  0
  5  2  1  0
  5  6  2  0
  8  7  1  1
  8 10  1  0
  8  9  1  0
 11 10  1  1
 11 13  1  0
 12 11  1  0
 12  5  1  0
 13 14  2  0
 13 15  1  0
 15 16  1  0
 16 21  1  0
 16 17  1  1
 18 17  1  0
 19 18  1  0
 20 19  2  0
 21 22  2  0
 21 24  1  0
 23 19  1  0
M  END
$$$$
