CLE.pdb
     RDKit          3D

 24 23  0  0  1  0  0  0  0  0999 V2000
    7.8842  -14.2102   19.9137 N   0  0  0  0  0  0  0  0  0  0  0  0
    7.0691  -14.5312   21.0507 C   0  0  1  0  0  0  0  0  0  0  0  0
    6.4401  -15.8950   20.9086 C   0  0  0  0  0  0  0  0  0  0  0  0
    7.7744  -17.1154   20.7466 S   0  0  0  0  0  0  0  0  0  0  0  0
    7.8774  -14.4540   22.2904 C   0  0  0  0  0  0  0  0  0  0  0  0
    9.1353  -14.4798   22.1961 O   0  0  0  0  0  0  0  0  0  0  0  0
    7.7575  -11.4882   25.9763 C   0  0  0  0  0  0  0  0  0  0  0  0
    6.5727  -12.4590   25.8500 C   0  0  2  0  0  0  0  0  0  0  0  0
    5.6145  -12.1028   26.9381 C   0  0  0  0  0  0  0  0  0  0  0  0
    7.1581  -13.8288   25.9311 C   0  0  0  0  0  0  0  0  0  0  0  0
    8.0133  -14.2418   24.7846 C   0  0  2  0  0  0  0  0  0  0  0  0
    7.2671  -14.3539   23.5507 N   0  0  0  0  0  0  0  0  0  0  0  0
    8.5462  -15.6193   25.0941 C   0  0  0  0  0  0  0  0  0  0  0  0
    7.7428  -16.5984   24.9723 O   0  0  0  0  0  0  0  0  0  0  0  0
    9.8727  -15.8336   25.5020 N   0  0  0  0  0  0  0  0  0  0  0  0
   10.3972  -17.2301   25.6209 C   0  0  1  0  0  0  0  0  0  0  0  0
   11.4557  -17.3788   24.6090 C   0  0  0  0  0  0  0  0  0  0  0  0
   12.7812  -16.8053   24.9595 C   0  0  0  0  0  0  0  0  0  0  0  0
   13.8229  -16.8391   23.9289 C   0  0  0  0  0  0  0  0  0  0  0  0
   14.6079  -15.8765   23.7883 O   0  0  0  0  0  0  0  0  0  0  0  0
   10.7075  -17.5249   27.0025 C   0  0  0  0  0  0  0  0  0  0  0  0
   11.0710  -18.6287   27.4475 O   0  0  0  0  0  0  0  0  0  0  0  0
   13.9508  -17.9367   23.1066 O   0  0  0  0  0  0  0  0  0  0  0  0
   10.5957  -16.4815   27.9551 O   0  0  0  0  0  0  0  0  0  0  0  0
  2  3  1  0
  2  1  1  6
  4  3  1  0
  5  2  1  0
  5  6  2  0
  8  7  1  1
  8 10  1  0
  8  9  1  0
 11 10  1  1
 11 13  1  0
 12 11  1  0
 12  5  1  0
 13 14  2  0
 13 15  1  0
 15 16  1  0
 16 21  1  0
 16 17  1  6
 18 17  1  0
 19 18  1  0
 20 19  2  0
 21 22  2  0
 21 24  1  0
 23 19  1  0
M  END
$$$$
