CLE.pdb
     RDKit          3D

 24 23  0  0  1  0  0  0  0  0999 V2000
    7.6731  -15.9918   20.8439 N   0  0  0  0  0  0  0  0  0  0  0  0
    7.1384  -16.0065   22.1758 C   0  0  1  0  0  0  0  0  0  0  0  0
    6.9825  -17.4161   22.6900 C   0  0  0  0  0  0  0  0  0  0  0  0
    8.5687  -18.2723   22.4734 S   0  0  0  0  0  0  0  0  0  0  0  0
    8.0060  -15.2131   23.0779 C   0  0  0  0  0  0  0  0  0  0  0  0
    9.1611  -14.8950   22.6824 O   0  0  0  0  0  0  0  0  0  0  0  0
    7.2617  -11.1815   25.1722 C   0  0  0  0  0  0  0  0  0  0  0  0
    6.4729  -12.3471   25.7896 C   0  0  2  0  0  0  0  0  0  0  0  0
    5.5962  -11.7552   26.8431 C   0  0  0  0  0  0  0  0  0  0  0  0
    7.4954  -13.3191   26.2746 C   0  0  0  0  0  0  0  0  0  0  0  0
    8.3334  -13.9623   25.2257 C   0  0  2  0  0  0  0  0  0  0  0  0
    7.5629  -14.8172   24.3498 N   0  0  0  0  0  0  0  0  0  0  0  0
    9.3308  -14.8502   25.9286 C   0  0  0  0  0  0  0  0  0  0  0  0
   10.1083  -14.3024   26.7737 O   0  0  0  0  0  0  0  0  0  0  0  0
    9.4142  -16.2287   25.6742 N   0  0  0  0  0  0  0  0  0  0  0  0
   10.4402  -17.0548   26.3844 C   0  0  1  0  0  0  0  0  0  0  0  0
    9.8102  -18.3483   26.6946 C   0  0  0  0  0  0  0  0  0  0  0  0
    9.7884  -19.3463   25.5937 C   0  0  0  0  0  0  0  0  0  0  0  0
    9.3389  -20.7020   25.9230 C   0  0  0  0  0  0  0  0  0  0  0  0
    8.5185  -21.2944   25.1890 O   0  0  0  0  0  0  0  0  0  0  0  0
   11.6819  -17.0445   25.6426 C   0  0  0  0  0  0  0  0  0  0  0  0
   12.7913  -17.4059   26.0752 O   0  0  0  0  0  0  0  0  0  0  0  0
    9.8209  -21.3402   27.0444 O   0  0  0  0  0  0  0  0  0  0  0  0
   11.6612  -16.5866   24.3015 O   0  0  0  0  0  0  0  0  0  0  0  0
  2  3  1  0
  2  1  1  6
  4  3  1  0
  5  2  1  0
  5  6  2  0
  8  7  1  1
  8 10  1  0
  8  9  1  0
 11 10  1  1
 11 13  1  0
 12 11  1  0
 12  5  1  0
 13 14  2  0
 13 15  1  0
 15 16  1  0
 16 21  1  0
 16 17  1  6
 18 17  1  0
 19 18  1  0
 20 19  2  0
 21 22  2  0
 21 24  1  0
 23 19  1  0
M  END
$$$$
