CLE.pdb
     RDKit          3D

 24 23  0  0  1  0  0  0  0  0999 V2000
    9.1315  -15.6396   19.7660 N   0  0  0  0  0  0  0  0  0  0  0  0
    8.0776  -15.7722   20.7313 C   0  0  1  0  0  0  0  0  0  0  0  0
    7.6232  -17.2053   20.8556 C   0  0  0  0  0  0  0  0  0  0  0  0
    6.8278  -17.6804   19.2943 S   0  0  0  0  0  0  0  0  0  0  0  0
    8.5251  -15.2493   22.0437 C   0  0  0  0  0  0  0  0  0  0  0  0
    9.7460  -15.3411   22.3482 O   0  0  0  0  0  0  0  0  0  0  0  0
    5.8724  -12.4124   26.8611 C   0  0  0  0  0  0  0  0  0  0  0  0
    7.1542  -13.1066   26.3741 C   0  0  2  0  0  0  0  0  0  0  0  0
    8.2665  -12.1305   26.5711 C   0  0  0  0  0  0  0  0  0  0  0  0
    6.8900  -13.5046   24.9608 C   0  0  0  0  0  0  0  0  0  0  0  0
    7.9781  -14.2601   24.2814 C   0  0  2  0  0  0  0  0  0  0  0  0
    7.6179  -14.6609   22.9392 N   0  0  0  0  0  0  0  0  0  0  0  0
    8.2022  -15.5295   25.0660 C   0  0  0  0  0  0  0  0  0  0  0  0
    7.2161  -16.3243   25.1872 O   0  0  0  0  0  0  0  0  0  0  0  0
    9.4421  -15.8399   25.6477 N   0  0  0  0  0  0  0  0  0  0  0  0
    9.6243  -17.1450   26.3569 C   0  0  1  0  0  0  0  0  0  0  0  0
   10.3897  -18.0207   25.4549 C   0  0  0  0  0  0  0  0  0  0  0  0
   11.6614  -17.4633   24.9251 C   0  0  0  0  0  0  0  0  0  0  0  0
   12.4421  -18.3109   24.0193 C   0  0  0  0  0  0  0  0  0  0  0  0
   13.4690  -18.8966   24.4256 O   0  0  0  0  0  0  0  0  0  0  0  0
   10.1243  -16.9143   27.6944 C   0  0  0  0  0  0  0  0  0  0  0  0
    9.6993  -17.4516   28.7332 O   0  0  0  0  0  0  0  0  0  0  0  0
   12.0481  -18.4749   22.7097 O   0  0  0  0  0  0  0  0  0  0  0  0
   11.1932  -15.9995   27.8651 O   0  0  0  0  0  0  0  0  0  0  0  0
  2  3  1  0
  2  1  1  6
  4  3  1  0
  5  2  1  0
  5  6  2  0
  8  7  1  6
  8 10  1  0
  8  9  1  0
 11 10  1  1
 11 13  1  0
 12 11  1  0
 12  5  1  0
 13 14  2  0
 13 15  1  0
 15 16  1  0
 16 21  1  0
 16 17  1  6
 18 17  1  0
 19 18  1  0
 20 19  2  0
 21 22  2  0
 21 24  1  0
 23 19  1  0
M  END
$$$$
