CLE.pdb
     RDKit          3D

 24 23  0  0  1  0  0  0  0  0999 V2000
    6.2293  -16.2864   21.6714 N   0  0  0  0  0  0  0  0  0  0  0  0
    7.4866  -15.6740   21.3484 C   0  0  1  0  0  0  0  0  0  0  0  0
    7.2977  -14.4583   20.4755 C   0  0  0  0  0  0  0  0  0  0  0  0
    8.8881  -14.0805   19.6857 S   0  0  0  0  0  0  0  0  0  0  0  0
    8.2102  -15.3184   22.5918 C   0  0  0  0  0  0  0  0  0  0  0  0
    9.4520  -15.1044   22.5301 O   0  0  0  0  0  0  0  0  0  0  0  0
    8.2539  -11.9871   25.7798 C   0  0  0  0  0  0  0  0  0  0  0  0
    6.9447  -12.7866   25.6848 C   0  0  2  0  0  0  0  0  0  0  0  0
    5.9771  -12.1277   26.6113 C   0  0  0  0  0  0  0  0  0  0  0  0
    7.3022  -14.1950   26.0229 C   0  0  0  0  0  0  0  0  0  0  0  0
    8.2032  -14.8882   25.0616 C   0  0  2  0  0  0  0  0  0  0  0  0
    7.5382  -15.2184   23.8204 N   0  0  0  0  0  0  0  0  0  0  0  0
    8.6141  -16.1958   25.6928 C   0  0  0  0  0  0  0  0  0  0  0  0
    7.6985  -17.0498   25.9186 O   0  0  0  0  0  0  0  0  0  0  0  0
    9.9487  -16.4785   26.0258 N   0  0  0  0  0  0  0  0  0  0  0  0
   10.2952  -17.7902   26.6574 C   0  0  1  0  0  0  0  0  0  0  0  0
   11.4530  -18.3272   25.9241 C   0  0  0  0  0  0  0  0  0  0  0  0
   11.3450  -18.3297   24.4419 C   0  0  0  0  0  0  0  0  0  0  0  0
   12.5164  -18.7764   23.6825 C   0  0  0  0  0  0  0  0  0  0  0  0
   12.5288  -18.7046   22.4346 O   0  0  0  0  0  0  0  0  0  0  0  0
   10.3891  -17.6376   28.0927 C   0  0  0  0  0  0  0  0  0  0  0  0
   10.3530  -16.5601   28.7140 O   0  0  0  0  0  0  0  0  0  0  0  0
   13.6198  -19.2760   24.3383 O   0  0  0  0  0  0  0  0  0  0  0  0
   10.5360  -18.8031   28.8855 O   0  0  0  0  0  0  0  0  0  0  0  0
  2  3  1  0
  2  1  1  1
  4  3  1  0
  5  2  1  0
  5  6  2  0
  8  7  1  1
  8 10  1  0
  8  9  1  0
 11 10  1  1
 11 13  1  0
 12 11  1  0
 12  5  1  0
 13 14  2  0
 13 15  1  0
 15 16  1  0
 16 21  1  0
 16 17  1  6
 18 17  1  0
 19 18  1  0
 20 19  2  0
 21 22  2  0
 21 24  1  0
 23 19  1  0
M  END
$$$$
