CLE.pdb
     RDKit          3D

 24 23  0  0  1  0  0  0  0  0999 V2000
    8.2985  -15.0961   19.3304 N   0  0  0  0  0  0  0  0  0  0  0  0
    7.2703  -15.0086   20.3280 C   0  0  1  0  0  0  0  0  0  0  0  0
    6.4497  -16.2731   20.3840 C   0  0  0  0  0  0  0  0  0  0  0  0
    7.5865  -17.6722   20.5988 S   0  0  0  0  0  0  0  0  0  0  0  0
    7.8721  -14.7160   21.6502 C   0  0  0  0  0  0  0  0  0  0  0  0
    9.1236  -14.8091   21.7803 O   0  0  0  0  0  0  0  0  0  0  0  0
    5.8248  -12.3614   26.9875 C   0  0  0  0  0  0  0  0  0  0  0  0
    7.0670  -12.8963   26.2574 C   0  0  2  0  0  0  0  0  0  0  0  0
    8.0752  -11.7954   26.2730 C   0  0  0  0  0  0  0  0  0  0  0  0
    6.5953  -13.3178   24.9064 C   0  0  0  0  0  0  0  0  0  0  0  0
    7.6243  -13.9191   24.0142 C   0  0  2  0  0  0  0  0  0  0  0  0
    7.0760  -14.3416   22.7443 N   0  0  0  0  0  0  0  0  0  0  0  0
    8.1409  -15.1618   24.6968 C   0  0  0  0  0  0  0  0  0  0  0  0
    7.3394  -16.1435   24.8096 O   0  0  0  0  0  0  0  0  0  0  0  0
    9.4507  -15.2516   25.1950 N   0  0  0  0  0  0  0  0  0  0  0  0
   10.0220  -16.5892   25.5468 C   0  0  1  0  0  0  0  0  0  0  0  0
   11.3139  -16.7009   24.8504 C   0  0  0  0  0  0  0  0  0  0  0  0
   12.1004  -17.9318   25.1239 C   0  0  0  0  0  0  0  0  0  0  0  0
   13.4007  -18.0611   24.4598 C   0  0  0  0  0  0  0  0  0  0  0  0
   13.8253  -17.1523   23.7138 O   0  0  0  0  0  0  0  0  0  0  0  0
    9.9840  -16.7809   26.9800 C   0  0  0  0  0  0  0  0  0  0  0  0
    9.9151  -15.8780   27.8335 O   0  0  0  0  0  0  0  0  0  0  0  0
   14.1717  -19.1855   24.6557 O   0  0  0  0  0  0  0  0  0  0  0  0
   10.0278  -18.1049   27.4835 O   0  0  0  0  0  0  0  0  0  0  0  0
  2  3  1  0
  2  1  1  6
  4  3  1  0
  5  2  1  0
  5  6  2  0
  8  7  1  1
  8 10  1  0
  8  9  1  0
 11 10  1  1
 11 13  1  0
 12 11  1  0
 12  5  1  0
 13 14  2  0
 13 15  1  0
 15 16  1  0
 16 21  1  0
 16 17  1  1
 18 17  1  0
 19 18  1  0
 20 19  2  0
 21 22  2  0
 21 24  1  0
 23 19  1  0
M  END
$$$$
