CLE.pdb
     RDKit          3D

 24 23  0  0  1  0  0  0  0  0999 V2000
    8.1224  -13.7413   19.2267 N   0  0  0  0  0  0  0  0  0  0  0  0
    7.4703  -14.5122   20.2468 C   0  0  1  0  0  0  0  0  0  0  0  0
    7.5800  -15.9915   19.9724 C   0  0  0  0  0  0  0  0  0  0  0  0
    6.6708  -16.3485   18.4421 S   0  0  0  0  0  0  0  0  0  0  0  0
    8.0423  -14.1820   21.5734 C   0  0  0  0  0  0  0  0  0  0  0  0
    9.2934  -14.0588   21.6803 O   0  0  0  0  0  0  0  0  0  0  0  0
    5.8744  -12.6072   27.1385 C   0  0  0  0  0  0  0  0  0  0  0  0
    7.1033  -13.1542   26.3949 C   0  0  2  0  0  0  0  0  0  0  0  0
    8.2167  -12.1933   26.6513 C   0  0  0  0  0  0  0  0  0  0  0  0
    6.6880  -13.2922   24.9687 C   0  0  0  0  0  0  0  0  0  0  0  0
    7.7345  -13.7797   24.0287 C   0  0  2  0  0  0  0  0  0  0  0  0
    7.2186  -14.0071   22.6968 N   0  0  0  0  0  0  0  0  0  0  0  0
    8.2123  -15.1163   24.5412 C   0  0  0  0  0  0  0  0  0  0  0  0
    7.3733  -16.0728   24.5516 O   0  0  0  0  0  0  0  0  0  0  0  0
    9.5264  -15.3174   24.9934 N   0  0  0  0  0  0  0  0  0  0  0  0
    9.9840  -16.6945   25.3588 C   0  0  1  0  0  0  0  0  0  0  0  0
   11.2696  -16.9149   24.6766 C   0  0  0  0  0  0  0  0  0  0  0  0
   11.9859  -18.1709   25.0202 C   0  0  0  0  0  0  0  0  0  0  0  0
   13.2512  -18.4346   24.3290 C   0  0  0  0  0  0  0  0  0  0  0  0
   13.3153  -18.3849   23.0816 O   0  0  0  0  0  0  0  0  0  0  0  0
    9.9163  -16.8730   26.7925 C   0  0  0  0  0  0  0  0  0  0  0  0
    9.8889  -15.9614   27.6391 O   0  0  0  0  0  0  0  0  0  0  0  0
   14.3861  -18.7356   25.0492 O   0  0  0  0  0  0  0  0  0  0  0  0
    9.8768  -18.1936   27.3054 O   0  0  0  0  0  0  0  0  0  0  0  0
  2  3  1  0
  2  1  1  6
  4  3  1  0
  5  2  1  0
  5  6  2  0
  8  7  1  1
  8 10  1  0
  8  9  1  0
 11 10  1  1
 11 13  1  0
 12 11  1  0
 12  5  1  0
 13 14  2  0
 13 15  1  0
 15 16  1  0
 16 21  1  0
 16 17  1  1
 18 17  1  0
 19 18  1  0
 20 19  2  0
 21 22  2  0
 21 24  1  0
 23 19  1  0
M  END
$$$$
