NNV.pdb
     RDKit          3D

 24 23  0  0  1  0  0  0  0  0999 V2000
    7.8440  -15.5388   16.8957 N   0  0  0  0  0  0  0  0  0  0  0  0
    8.2146  -14.3632   17.6050 C   0  0  0  0  0  0  0  0  0  0  0  0
    9.4519  -14.1739   17.7688 O   0  0  0  0  0  0  0  0  0  0  0  0
    7.2409  -13.3834   18.1421 C   0  0  0  0  0  0  0  0  0  0  0  0
    7.6899  -12.9522   19.4969 C   0  0  2  0  0  0  0  0  0  0  0  0
    9.0483  -12.4552   19.4226 N   0  0  0  0  0  0  0  0  0  0  0  0
    7.5955  -14.0426   20.5148 C   0  0  0  0  0  0  0  0  0  0  0  0
    6.4526  -14.5624   20.7085 O   0  0  0  0  0  0  0  0  0  0  0  0
   10.7852  -18.2210   23.5288 N   0  0  0  0  0  0  0  0  0  0  0  0
    9.5638  -17.5714   23.1523 C   0  0  0  0  0  0  0  0  0  0  0  0
    8.5513  -17.8915   23.8296 O   0  0  0  0  0  0  0  0  0  0  0  0
    9.5558  -16.6043   22.0401 C   0  0  0  0  0  0  0  0  0  0  0  0
    8.6749  -15.4142   22.2910 C   0  0  2  0  0  0  0  0  0  0  0  0
    8.7450  -14.4511   21.2105 N   0  0  0  0  0  0  0  0  0  0  0  0
    8.9245  -14.7541   23.5956 C   0  0  0  0  0  0  0  0  0  0  0  0
   10.0054  -14.1822   23.8741 O   0  0  0  0  0  0  0  0  0  0  0  0
    7.2696  -12.5175   27.5949 C   0  0  0  0  0  0  0  0  0  0  0  0
    6.9506  -13.1945   26.2802 C   0  0  1  0  0  0  0  0  0  0  0  0
    6.7240  -12.0933   25.2622 C   0  0  0  0  0  0  0  0  0  0  0  0
    8.0957  -14.0651   25.8982 C   0  0  2  0  0  0  0  0  0  0  0  0
    7.9214  -14.7348   24.6296 N   0  0  0  0  0  0  0  0  0  0  0  0
    8.4368  -14.9929   26.9868 C   0  0  0  0  0  0  0  0  0  0  0  0
    9.0868  -14.5134   28.1074 O   0  0  0  0  0  0  0  0  0  0  0  0
    8.1527  -16.2076   26.9252 O   0  0  0  0  0  0  0  0  0  0  0  0
  1  2  1  0
  2  3  2  0
  4  5  1  0
  4  2  1  0
  5  6  1  6
  7  5  1  0
  8  7  2  0
  9 10  1  0
 10 11  2  0
 10 12  1  0
 13 12  1  6
 13 15  1  0
 13 14  1  0
 14  7  1  0
 15 21  1  0
 16 15  2  0
 18 17  1  1
 19 18  1  0
 20 18  1  0
 20 22  1  0
 20 21  1  6
 22 24  2  0
 22 23  1  0
M  END
$$$$
