NNV.pdb
     RDKit          3D

 24 23  0  0  1  0  0  0  0  0999 V2000
    8.5167  -12.4110   17.5170 N   0  0  0  0  0  0  0  0  0  0  0  0
    7.9993  -13.7065   17.7940 C   0  0  0  0  0  0  0  0  0  0  0  0
    8.2036  -14.5910   16.9168 O   0  0  0  0  0  0  0  0  0  0  0  0
    7.2551  -14.0499   19.0288 C   0  0  0  0  0  0  0  0  0  0  0  0
    8.2329  -14.4108   20.0950 C   0  0  2  0  0  0  0  0  0  0  0  0
    9.0536  -15.5169   19.6467 N   0  0  0  0  0  0  0  0  0  0  0  0
    7.5769  -14.7499   21.3945 C   0  0  0  0  0  0  0  0  0  0  0  0
    6.7732  -13.8955   21.8826 O   0  0  0  0  0  0  0  0  0  0  0  0
    7.5573  -19.0872   25.6910 N   0  0  0  0  0  0  0  0  0  0  0  0
    6.8183  -18.1179   24.9361 C   0  0  0  0  0  0  0  0  0  0  0  0
    5.8193  -17.6242   25.5230 O   0  0  0  0  0  0  0  0  0  0  0  0
    7.2468  -17.7643   23.5709 C   0  0  0  0  0  0  0  0  0  0  0  0
    7.3507  -16.2837   23.3432 C   0  0  2  0  0  0  0  0  0  0  0  0
    7.8609  -15.9732   22.0229 N   0  0  0  0  0  0  0  0  0  0  0  0
    8.1334  -15.5752   24.3851 C   0  0  0  0  0  0  0  0  0  0  0  0
    9.3848  -15.6276   24.4507 O   0  0  0  0  0  0  0  0  0  0  0  0
    7.6646  -11.8261   25.5099 C   0  0  0  0  0  0  0  0  0  0  0  0
    7.5897  -12.7162   26.7308 C   0  0  1  0  0  0  0  0  0  0  0  0
    6.1210  -12.8587   27.0816 C   0  0  0  0  0  0  0  0  0  0  0  0
    8.2040  -14.0319   26.4042 C   0  0  2  0  0  0  0  0  0  0  0  0
    7.4865  -14.7760   25.3943 N   0  0  0  0  0  0  0  0  0  0  0  0
    8.4434  -14.8175   27.6239 C   0  0  0  0  0  0  0  0  0  0  0  0
    9.3132  -14.3338   28.5820 O   0  0  0  0  0  0  0  0  0  0  0  0
    7.8785  -15.9145   27.8179 O   0  0  0  0  0  0  0  0  0  0  0  0
  1  2  1  0
  2  3  2  0
  4  5  1  0
  4  2  1  0
  5  6  1  6
  7  5  1  0
  8  7  2  0
  9 10  1  0
 10 11  2  0
 10 12  1  0
 13 12  1  1
 13 15  1  0
 13 14  1  0
 14  7  1  0
 15 21  1  0
 16 15  2  0
 18 17  1  6
 19 18  1  0
 20 18  1  0
 20 22  1  0
 20 21  1  6
 22 24  2  0
 22 23  1  0
M  END
$$$$
