NNV.pdb
     RDKit          3D

 24 23  0  0  1  0  0  0  0  0999 V2000
    9.3896  -13.6829   16.9994 N   0  0  0  0  0  0  0  0  0  0  0  0
    8.0078  -13.6194   17.3303 C   0  0  0  0  0  0  0  0  0  0  0  0
    7.2203  -13.3136   16.3922 O   0  0  0  0  0  0  0  0  0  0  0  0
    7.4718  -13.8884   18.6855 C   0  0  0  0  0  0  0  0  0  0  0  0
    8.5996  -14.2755   19.5808 C   0  0  2  0  0  0  0  0  0  0  0  0
    9.4122  -15.2825   18.9299 N   0  0  0  0  0  0  0  0  0  0  0  0
    8.1398  -14.7681   20.9149 C   0  0  0  0  0  0  0  0  0  0  0  0
    7.0234  -14.3380   21.3424 O   0  0  0  0  0  0  0  0  0  0  0  0
    7.5469  -19.2786   22.0350 N   0  0  0  0  0  0  0  0  0  0  0  0
    8.7699  -18.5306   22.0473 C   0  0  0  0  0  0  0  0  0  0  0  0
    9.5427  -18.7436   21.0760 O   0  0  0  0  0  0  0  0  0  0  0  0
    9.0483  -17.5913   23.1486 C   0  0  0  0  0  0  0  0  0  0  0  0
    8.5003  -16.2137   22.9103 C   0  0  2  0  0  0  0  0  0  0  0  0
    8.9357  -15.6700   21.6395 N   0  0  0  0  0  0  0  0  0  0  0  0
    8.7860  -15.2613   24.0109 C   0  0  0  0  0  0  0  0  0  0  0  0
    9.9430  -14.8593   24.2809 O   0  0  0  0  0  0  0  0  0  0  0  0
    7.2491  -12.0561   27.4271 C   0  0  0  0  0  0  0  0  0  0  0  0
    6.8272  -12.9942   26.3179 C   0  0  1  0  0  0  0  0  0  0  0  0
    6.4445  -12.1291   25.1323 C   0  0  0  0  0  0  0  0  0  0  0  0
    7.9658  -13.8955   25.9922 C   0  0  2  0  0  0  0  0  0  0  0  0
    7.7317  -14.7388   24.8423 N   0  0  0  0  0  0  0  0  0  0  0  0
    8.3890  -14.6570   27.1768 C   0  0  0  0  0  0  0  0  0  0  0  0
    9.2165  -14.0588   28.1072 O   0  0  0  0  0  0  0  0  0  0  0  0
    8.0181  -15.8347   27.3653 O   0  0  0  0  0  0  0  0  0  0  0  0
  1  2  1  0
  2  3  2  0
  4  5  1  0
  4  2  1  0
  5  6  1  6
  7  5  1  0
  8  7  2  0
  9 10  1  0
 10 11  2  0
 10 12  1  0
 13 12  1  1
 13 15  1  0
 13 14  1  0
 14  7  1  0
 15 21  1  0
 16 15  2  0
 18 17  1  1
 19 18  1  0
 20 18  1  0
 20 22  1  0
 20 21  1  6
 22 24  2  0
 22 23  1  0
M  END
$$$$
