NNV.pdb
     RDKit          3D

 24 23  0  0  1  0  0  0  0  0999 V2000
    8.5761  -12.7336   17.2044 N   0  0  0  0  0  0  0  0  0  0  0  0
    8.0386  -14.0259   17.4567 C   0  0  0  0  0  0  0  0  0  0  0  0
    8.1920  -14.8847   16.5442 O   0  0  0  0  0  0  0  0  0  0  0  0
    7.3293  -14.3941   18.7048 C   0  0  0  0  0  0  0  0  0  0  0  0
    8.3132  -14.4295   19.8245 C   0  0  2  0  0  0  0  0  0  0  0  0
    9.3391  -15.4111   19.5383 N   0  0  0  0  0  0  0  0  0  0  0  0
    7.6788  -14.7182   21.1467 C   0  0  0  0  0  0  0  0  0  0  0  0
    6.7161  -13.9717   21.5072 O   0  0  0  0  0  0  0  0  0  0  0  0
    7.5625  -18.9096   25.5920 N   0  0  0  0  0  0  0  0  0  0  0  0
    6.9112  -17.9491   24.7501 C   0  0  0  0  0  0  0  0  0  0  0  0
    5.8383  -17.4719   25.2055 O   0  0  0  0  0  0  0  0  0  0  0  0
    7.5048  -17.5851   23.4510 C   0  0  0  0  0  0  0  0  0  0  0  0
    7.5547  -16.1033   23.2125 C   0  0  2  0  0  0  0  0  0  0  0  0
    8.1535  -15.7806   21.9330 N   0  0  0  0  0  0  0  0  0  0  0  0
    8.2160  -15.3472   24.3038 C   0  0  0  0  0  0  0  0  0  0  0  0
    9.4396  -15.4498   24.5595 O   0  0  0  0  0  0  0  0  0  0  0  0
    7.6250  -11.5115   25.2061 C   0  0  0  0  0  0  0  0  0  0  0  0
    7.4370  -12.3569   26.4464 C   0  0  1  0  0  0  0  0  0  0  0  0
    5.9423  -12.4821   26.6708 C   0  0  0  0  0  0  0  0  0  0  0  0
    8.0694  -13.6854   26.2223 C   0  0  2  0  0  0  0  0  0  0  0  0
    7.4752  -14.4395   25.1423 N   0  0  0  0  0  0  0  0  0  0  0  0
    8.1420  -14.4512   27.4755 C   0  0  0  0  0  0  0  0  0  0  0  0
    8.9146  -13.9752   28.5171 O   0  0  0  0  0  0  0  0  0  0  0  0
    7.5206  -15.5245   27.6242 O   0  0  0  0  0  0  0  0  0  0  0  0
  1  2  1  0
  2  3  2  0
  4  5  1  0
  4  2  1  0
  5  6  1  6
  7  5  1  0
  8  7  2  0
  9 10  1  0
 10 11  2  0
 10 12  1  0
 13 12  1  1
 13 15  1  0
 13 14  1  0
 14  7  1  0
 15 21  1  0
 16 15  2  0
 18 17  1  6
 19 18  1  0
 20 18  1  0
 20 22  1  0
 20 21  1  6
 22 24  2  0
 22 23  1  0
M  END
$$$$
