NNV.pdb
     RDKit          3D

 24 23  0  0  1  0  0  0  0  0999 V2000
    8.3022  -12.5148   17.1829 N   0  0  0  0  0  0  0  0  0  0  0  0
    8.0978  -13.8467   17.6375 C   0  0  0  0  0  0  0  0  0  0  0  0
    8.5745  -14.7652   16.9144 O   0  0  0  0  0  0  0  0  0  0  0  0
    7.3725  -14.1900   18.8835 C   0  0  0  0  0  0  0  0  0  0  0  0
    8.3648  -14.5819   19.9252 C   0  0  2  0  0  0  0  0  0  0  0  0
    9.1402  -15.7118   19.4561 N   0  0  0  0  0  0  0  0  0  0  0  0
    7.7308  -14.9027   21.2402 C   0  0  0  0  0  0  0  0  0  0  0  0
    6.9016  -14.0618   21.7085 O   0  0  0  0  0  0  0  0  0  0  0  0
    7.6608  -19.2324   25.5809 N   0  0  0  0  0  0  0  0  0  0  0  0
    6.9556  -18.3060   24.7443 C   0  0  0  0  0  0  0  0  0  0  0  0
    5.8683  -17.8758   25.2122 O   0  0  0  0  0  0  0  0  0  0  0  0
    7.5149  -17.9212   23.4360 C   0  0  0  0  0  0  0  0  0  0  0  0
    7.4702  -16.4421   23.1801 C   0  0  2  0  0  0  0  0  0  0  0  0
    8.0621  -16.0952   21.9037 N   0  0  0  0  0  0  0  0  0  0  0  0
    8.0670  -15.6318   24.2697 C   0  0  0  0  0  0  0  0  0  0  0  0
    9.3030  -15.5674   24.4724 O   0  0  0  0  0  0  0  0  0  0  0  0
    7.5282  -12.0728   27.6688 C   0  0  0  0  0  0  0  0  0  0  0  0
    6.8150  -12.9873   26.6974 C   0  0  1  0  0  0  0  0  0  0  0  0
    6.3053  -12.1152   25.5660 C   0  0  0  0  0  0  0  0  0  0  0  0
    7.7773  -14.0115   26.2073 C   0  0  2  0  0  0  0  0  0  0  0  0
    7.2443  -14.8627   25.1683 N   0  0  0  0  0  0  0  0  0  0  0  0
    8.3490  -14.7740   27.3271 C   0  0  0  0  0  0  0  0  0  0  0  0
    9.3434  -14.2037   28.0979 O   0  0  0  0  0  0  0  0  0  0  0  0
    7.9573  -15.9279   27.6014 O   0  0  0  0  0  0  0  0  0  0  0  0
  1  2  1  0
  2  3  2  0
  4  5  1  0
  4  2  1  0
  5  6  1  6
  7  5  1  0
  8  7  2  0
  9 10  1  0
 10 11  2  0
 10 12  1  0
 13 12  1  1
 13 15  1  0
 13 14  1  0
 14  7  1  0
 15 21  1  0
 16 15  2  0
 18 17  1  1
 19 18  1  0
 20 18  1  0
 20 22  1  0
 20 21  1  6
 22 24  2  0
 22 23  1  0
M  END
$$$$
