NNV.pdb
     RDKit          3D

 24 23  0  0  1  0  0  0  0  0999 V2000
    8.2805  -12.4234   17.2847 N   0  0  0  0  0  0  0  0  0  0  0  0
    7.9681  -13.7902   17.5235 C   0  0  0  0  0  0  0  0  0  0  0  0
    8.1380  -14.5815   16.5547 O   0  0  0  0  0  0  0  0  0  0  0  0
    7.4682  -14.3070   18.8194 C   0  0  0  0  0  0  0  0  0  0  0  0
    8.6145  -14.4219   19.7659 C   0  0  2  0  0  0  0  0  0  0  0  0
    9.6099  -15.3189   19.2159 N   0  0  0  0  0  0  0  0  0  0  0  0
    8.2010  -14.8832   21.1261 C   0  0  0  0  0  0  0  0  0  0  0  0
    7.1483  -14.3718   21.6205 O   0  0  0  0  0  0  0  0  0  0  0  0
    9.8272  -19.4947   21.7313 N   0  0  0  0  0  0  0  0  0  0  0  0
    8.8048  -18.7224   22.3746 C   0  0  0  0  0  0  0  0  0  0  0  0
    7.6257  -18.9843   22.0180 O   0  0  0  0  0  0  0  0  0  0  0  0
    9.1703  -17.7053   23.3769 C   0  0  0  0  0  0  0  0  0  0  0  0
    8.5755  -16.3546   23.1000 C   0  0  2  0  0  0  0  0  0  0  0  0
    8.9693  -15.8452   21.8017 N   0  0  0  0  0  0  0  0  0  0  0  0
    8.8528  -15.3541   24.1593 C   0  0  0  0  0  0  0  0  0  0  0  0
   10.0049  -14.9239   24.4054 O   0  0  0  0  0  0  0  0  0  0  0  0
    7.2956  -12.0479   27.4690 C   0  0  0  0  0  0  0  0  0  0  0  0
    6.8892  -13.0054   26.3706 C   0  0  1  0  0  0  0  0  0  0  0  0
    6.5478  -12.1626   25.1567 C   0  0  0  0  0  0  0  0  0  0  0  0
    8.0237  -13.9282   26.0940 C   0  0  2  0  0  0  0  0  0  0  0  0
    7.7954  -14.8144   24.9756 N   0  0  0  0  0  0  0  0  0  0  0  0
    8.4269  -14.6456   27.3126 C   0  0  0  0  0  0  0  0  0  0  0  0
    9.2345  -14.0115   28.2367 O   0  0  0  0  0  0  0  0  0  0  0  0
    8.0565  -15.8175   27.5356 O   0  0  0  0  0  0  0  0  0  0  0  0
  1  2  1  0
  2  3  2  0
  4  5  1  0
  4  2  1  0
  5  6  1  6
  7  5  1  0
  8  7  2  0
  9 10  1  0
 10 11  2  0
 10 12  1  0
 13 12  1  1
 13 15  1  0
 13 14  1  0
 14  7  1  0
 15 21  1  0
 16 15  2  0
 18 17  1  1
 19 18  1  0
 20 18  1  0
 20 22  1  0
 20 21  1  6
 22 24  2  0
 22 23  1  0
M  END
$$$$
