NNV.pdb
     RDKit          3D

 24 23  0  0  1  0  0  0  0  0999 V2000
    7.7389  -12.9748   17.8121 N   0  0  0  0  0  0  0  0  0  0  0  0
    8.0047  -14.3713   17.7708 C   0  0  0  0  0  0  0  0  0  0  0  0
    7.6272  -14.9834   16.7333 O   0  0  0  0  0  0  0  0  0  0  0  0
    8.6840  -15.1134   18.8592 C   0  0  0  0  0  0  0  0  0  0  0  0
    7.6505  -15.7499   19.7251 C   0  0  2  0  0  0  0  0  0  0  0  0
    6.7871  -14.7285   20.2811 N   0  0  0  0  0  0  0  0  0  0  0  0
    8.2403  -16.5779   20.8208 C   0  0  0  0  0  0  0  0  0  0  0  0
    8.5663  -17.7728   20.5380 O   0  0  0  0  0  0  0  0  0  0  0  0
   12.4377  -17.6201   23.1774 N   0  0  0  0  0  0  0  0  0  0  0  0
   12.1031  -16.2766   22.8052 C   0  0  0  0  0  0  0  0  0  0  0  0
   12.9337  -15.3969   23.1550 O   0  0  0  0  0  0  0  0  0  0  0  0
   10.8580  -16.0055   22.0644 C   0  0  0  0  0  0  0  0  0  0  0  0
    9.6170  -16.2586   22.8711 C   0  0  2  0  0  0  0  0  0  0  0  0
    8.4126  -16.0247   22.1000 N   0  0  0  0  0  0  0  0  0  0  0  0
    9.5738  -15.5053   24.1481 C   0  0  0  0  0  0  0  0  0  0  0  0
   10.5696  -15.3820   24.9005 O   0  0  0  0  0  0  0  0  0  0  0  0
    7.1770  -12.4521   27.2228 C   0  0  0  0  0  0  0  0  0  0  0  0
    7.0955  -13.2350   25.9309 C   0  0  1  0  0  0  0  0  0  0  0  0
    7.1226  -12.2233   24.8013 C   0  0  0  0  0  0  0  0  0  0  0  0
    8.2548  -14.1655   25.8595 C   0  0  2  0  0  0  0  0  0  0  0  0
    8.3650  -14.8643   24.5994 N   0  0  0  0  0  0  0  0  0  0  0  0
    8.2713  -15.0746   27.0151 C   0  0  0  0  0  0  0  0  0  0  0  0
    8.6514  -14.5915   28.2523 O   0  0  0  0  0  0  0  0  0  0  0  0
    7.9487  -16.2765   26.9077 O   0  0  0  0  0  0  0  0  0  0  0  0
  1  2  1  0
  2  3  2  0
  4  5  1  0
  4  2  1  0
  5  6  1  1
  7  5  1  0
  8  7  2  0
  9 10  1  0
 10 11  2  0
 10 12  1  0
 13 12  1  6
 13 15  1  0
 13 14  1  0
 14  7  1  0
 15 21  1  0
 16 15  2  0
 18 17  1  1
 19 18  1  0
 20 18  1  0
 20 22  1  0
 20 21  1  6
 22 24  2  0
 22 23  1  0
M  END
$$$$
