NNV.pdb
     RDKit          3D

 24 23  0  0  1  0  0  0  0  0999 V2000
    8.6602  -18.3354   17.2392 N   0  0  0  0  0  0  0  0  0  0  0  0
    8.9367  -17.3367   18.2133 C   0  0  0  0  0  0  0  0  0  0  0  0
    9.8632  -16.5250   17.9365 O   0  0  0  0  0  0  0  0  0  0  0  0
    8.2067  -17.2131   19.4971 C   0  0  0  0  0  0  0  0  0  0  0  0
    9.1784  -16.8580   20.5707 C   0  0  2  0  0  0  0  0  0  0  0  0
   10.2101  -17.8717   20.6462 N   0  0  0  0  0  0  0  0  0  0  0  0
    8.5304  -16.6823   21.9061 C   0  0  0  0  0  0  0  0  0  0  0  0
    7.5051  -15.9343   21.9630 O   0  0  0  0  0  0  0  0  0  0  0  0
    8.8993  -20.7332   23.9725 N   0  0  0  0  0  0  0  0  0  0  0  0
    8.0327  -19.7080   24.4761 C   0  0  0  0  0  0  0  0  0  0  0  0
    6.8008  -19.9170   24.3183 O   0  0  0  0  0  0  0  0  0  0  0  0
    8.6032  -18.5135   25.1244 C   0  0  0  0  0  0  0  0  0  0  0  0
    8.4153  -17.2551   24.3268 C   0  0  2  0  0  0  0  0  0  0  0  0
    9.0608  -17.3332   23.0317 N   0  0  0  0  0  0  0  0  0  0  0  0
    8.8343  -16.0272   25.0457 C   0  0  0  0  0  0  0  0  0  0  0  0
   10.0156  -15.6059   25.0433 O   0  0  0  0  0  0  0  0  0  0  0  0
    7.5751  -11.9246   27.5383 C   0  0  0  0  0  0  0  0  0  0  0  0
    7.0746  -13.2073   26.9118 C   0  0  1  0  0  0  0  0  0  0  0  0
    6.2331  -12.8123   25.7134 C   0  0  0  0  0  0  0  0  0  0  0  0
    8.2452  -14.0337   26.5094 C   0  0  2  0  0  0  0  0  0  0  0  0
    7.8904  -15.2403   25.7976 N   0  0  0  0  0  0  0  0  0  0  0  0
    9.1265  -14.2915   27.6580 C   0  0  0  0  0  0  0  0  0  0  0  0
   10.0102  -13.3120   28.0676 O   0  0  0  0  0  0  0  0  0  0  0  0
    9.0965  -15.3766   28.2759 O   0  0  0  0  0  0  0  0  0  0  0  0
  1  2  1  0
  2  3  2  0
  4  5  1  0
  4  2  1  0
  5  6  1  1
  7  5  1  0
  8  7  2  0
  9 10  1  0
 10 11  2  0
 10 12  1  0
 13 12  1  1
 13 15  1  0
 13 14  1  0
 14  7  1  0
 15 21  1  0
 16 15  2  0
 18 17  1  6
 19 18  1  0
 20 18  1  0
 20 22  1  0
 20 21  1  1
 22 24  2  0
 22 23  1  0
M  END
$$$$
