NNV.pdb
     RDKit          3D

 24 23  0  0  1  0  0  0  0  0999 V2000
    8.5952  -12.7148   16.8536 N   0  0  0  0  0  0  0  0  0  0  0  0
    8.3005  -14.0306   17.3058 C   0  0  0  0  0  0  0  0  0  0  0  0
    8.7419  -14.9785   16.5984 O   0  0  0  0  0  0  0  0  0  0  0  0
    7.5226  -14.3256   18.5323 C   0  0  0  0  0  0  0  0  0  0  0  0
    8.4386  -14.2715   19.7075 C   0  0  2  0  0  0  0  0  0  0  0  0
    9.5787  -15.1338   19.4743 N   0  0  0  0  0  0  0  0  0  0  0  0
    7.7640  -14.6448   20.9879 C   0  0  0  0  0  0  0  0  0  0  0  0
    6.7450  -13.9673   21.3294 O   0  0  0  0  0  0  0  0  0  0  0  0
    5.8665  -18.0455   24.9050 N   0  0  0  0  0  0  0  0  0  0  0  0
    7.2703  -17.8961   24.6548 C   0  0  0  0  0  0  0  0  0  0  0  0
    8.0200  -18.1016   25.6457 O   0  0  0  0  0  0  0  0  0  0  0  0
    7.7437  -17.5255   23.3090 C   0  0  0  0  0  0  0  0  0  0  0  0
    7.6891  -16.0485   23.0435 C   0  0  2  0  0  0  0  0  0  0  0  0
    8.2638  -15.7078   21.7575 N   0  0  0  0  0  0  0  0  0  0  0  0
    8.2955  -15.2279   24.1200 C   0  0  0  0  0  0  0  0  0  0  0  0
    9.5334  -15.1588   24.3089 O   0  0  0  0  0  0  0  0  0  0  0  0
    7.4354  -11.5559   25.1972 C   0  0  0  0  0  0  0  0  0  0  0  0
    7.3136  -12.4394   26.4191 C   0  0  1  0  0  0  0  0  0  0  0  0
    5.8315  -12.6486   26.6644 C   0  0  0  0  0  0  0  0  0  0  0  0
    8.0107  -13.7269   26.1522 C   0  0  2  0  0  0  0  0  0  0  0  0
    7.4805  -14.4537   25.0212 N   0  0  0  0  0  0  0  0  0  0  0  0
    8.0832  -14.5478   27.3700 C   0  0  0  0  0  0  0  0  0  0  0  0
    8.8376  -14.1077   28.4402 O   0  0  0  0  0  0  0  0  0  0  0  0
    7.4778  -15.6364   27.4631 O   0  0  0  0  0  0  0  0  0  0  0  0
  1  2  1  0
  2  3  2  0
  4  5  1  0
  4  2  1  0
  5  6  1  6
  7  5  1  0
  8  7  2  0
  9 10  1  0
 10 11  2  0
 10 12  1  0
 13 12  1  1
 13 15  1  0
 13 14  1  0
 14  7  1  0
 15 21  1  0
 16 15  2  0
 18 17  1  6
 19 18  1  0
 20 18  1  0
 20 22  1  0
 20 21  1  6
 22 24  2  0
 22 23  1  0
M  END
$$$$
