NNV.pdb
     RDKit          3D

 24 23  0  0  1  0  0  0  0  0999 V2000
    7.9642  -18.3851   16.6516 N   0  0  0  0  0  0  0  0  0  0  0  0
    8.0237  -17.2021   17.4388 C   0  0  0  0  0  0  0  0  0  0  0  0
    8.7701  -16.2794   17.0085 O   0  0  0  0  0  0  0  0  0  0  0  0
    7.2709  -17.0138   18.7014 C   0  0  0  0  0  0  0  0  0  0  0  0
    8.1609  -16.3520   19.6980 C   0  0  2  0  0  0  0  0  0  0  0  0
    9.4251  -17.0559   19.7624 N   0  0  0  0  0  0  0  0  0  0  0  0
    7.5483  -16.2679   21.0587 C   0  0  0  0  0  0  0  0  0  0  0  0
    6.4542  -15.6314   21.1676 O   0  0  0  0  0  0  0  0  0  0  0  0
    5.9113  -18.0498   26.0183 N   0  0  0  0  0  0  0  0  0  0  0  0
    7.2837  -18.0627   25.6035 C   0  0  0  0  0  0  0  0  0  0  0  0
    8.1296  -18.0055   26.5348 O   0  0  0  0  0  0  0  0  0  0  0  0
    7.6198  -18.1388   24.1704 C   0  0  0  0  0  0  0  0  0  0  0  0
    7.6359  -16.8003   23.4898 C   0  0  2  0  0  0  0  0  0  0  0  0
    8.1844  -16.8801   22.1509 N   0  0  0  0  0  0  0  0  0  0  0  0
    8.3214  -15.7433   24.2726 C   0  0  0  0  0  0  0  0  0  0  0  0
    9.5639  -15.5739   24.2469 O   0  0  0  0  0  0  0  0  0  0  0  0
    6.9516  -12.0562   24.7221 C   0  0  0  0  0  0  0  0  0  0  0  0
    7.3401  -12.5923   26.0822 C   0  0  1  0  0  0  0  0  0  0  0  0
    6.0512  -12.9385   26.8029 C   0  0  0  0  0  0  0  0  0  0  0  0
    8.2022  -13.7914   25.8973 C   0  0  2  0  0  0  0  0  0  0  0  0
    7.5838  -14.8399   25.1185 N   0  0  0  0  0  0  0  0  0  0  0  0
    8.7174  -14.2725   27.1878 C   0  0  0  0  0  0  0  0  0  0  0  0
    9.5351  -13.4515   27.9398 O   0  0  0  0  0  0  0  0  0  0  0  0
    8.4336  -15.4080   27.6241 O   0  0  0  0  0  0  0  0  0  0  0  0
  1  2  1  0
  2  3  2  0
  4  5  1  0
  4  2  1  0
  5  6  1  1
  7  5  1  0
  8  7  2  0
  9 10  1  0
 10 11  2  0
 10 12  1  0
 13 12  1  1
 13 15  1  0
 13 14  1  0
 14  7  1  0
 15 21  1  0
 16 15  2  0
 18 17  1  6
 19 18  1  0
 20 18  1  0
 20 22  1  0
 20 21  1  1
 22 24  2  0
 22 23  1  0
M  END
$$$$
