NNV.pdb
     RDKit          3D

 24 23  0  0  1  0  0  0  0  0999 V2000
    8.0622  -14.7846   16.4897 N   0  0  0  0  0  0  0  0  0  0  0  0
    8.0369  -13.8700   17.5785 C   0  0  0  0  0  0  0  0  0  0  0  0
    8.6731  -12.7913   17.4193 O   0  0  0  0  0  0  0  0  0  0  0  0
    7.3183  -14.1221   18.8499 C   0  0  0  0  0  0  0  0  0  0  0  0
    8.3193  -14.3569   19.9297 C   0  0  2  0  0  0  0  0  0  0  0  0
    9.2378  -15.3999   19.5216 N   0  0  0  0  0  0  0  0  0  0  0  0
    7.6900  -14.7083   21.2391 C   0  0  0  0  0  0  0  0  0  0  0  0
    6.7399  -13.9698   21.6464 O   0  0  0  0  0  0  0  0  0  0  0  0
    5.9514  -18.2008   25.2672 N   0  0  0  0  0  0  0  0  0  0  0  0
    7.3273  -17.9472   24.9537 C   0  0  0  0  0  0  0  0  0  0  0  0
    8.1274  -18.0406   25.9218 O   0  0  0  0  0  0  0  0  0  0  0  0
    7.7180  -17.6049   23.5743 C   0  0  0  0  0  0  0  0  0  0  0  0
    7.6395  -16.1345   23.2798 C   0  0  2  0  0  0  0  0  0  0  0  0
    8.1559  -15.8175   21.9635 N   0  0  0  0  0  0  0  0  0  0  0  0
    8.2840  -15.2861   24.3117 C   0  0  0  0  0  0  0  0  0  0  0  0
    9.5268  -15.2346   24.4725 O   0  0  0  0  0  0  0  0  0  0  0  0
    7.2151  -11.5779   25.2602 C   0  0  0  0  0  0  0  0  0  0  0  0
    7.3034  -12.4028   26.5251 C   0  0  1  0  0  0  0  0  0  0  0  0
    5.8805  -12.7218   26.9422 C   0  0  0  0  0  0  0  0  0  0  0  0
    8.0794  -13.6400   26.2384 C   0  0  2  0  0  0  0  0  0  0  0  0
    7.5033  -14.4622   25.1990 N   0  0  0  0  0  0  0  0  0  0  0  0
    8.3455  -14.3919   27.4737 C   0  0  0  0  0  0  0  0  0  0  0  0
    9.1215  -13.8185   28.4624 O   0  0  0  0  0  0  0  0  0  0  0  0
    7.8862  -15.5393   27.6540 O   0  0  0  0  0  0  0  0  0  0  0  0
  1  2  1  0
  2  3  2  0
  4  5  1  0
  4  2  1  0
  5  6  1  6
  7  5  1  0
  8  7  2  0
  9 10  1  0
 10 11  2  0
 10 12  1  0
 13 12  1  1
 13 15  1  0
 13 14  1  0
 14  7  1  0
 15 21  1  0
 16 15  2  0
 18 17  1  6
 19 18  1  0
 20 18  1  0
 20 22  1  0
 20 21  1  6
 22 24  2  0
 22 23  1  0
M  END
$$$$
