NNV.pdb
     RDKit          3D

 24 23  0  0  1  0  0  0  0  0999 V2000
    7.7761  -12.5278   17.0940 N   0  0  0  0  0  0  0  0  0  0  0  0
    7.8269  -13.8758   17.5444 C   0  0  0  0  0  0  0  0  0  0  0  0
    8.3860  -14.7039   16.7729 O   0  0  0  0  0  0  0  0  0  0  0  0
    7.2694  -14.3335   18.8391 C   0  0  0  0  0  0  0  0  0  0  0  0
    8.3748  -14.4167   19.8363 C   0  0  2  0  0  0  0  0  0  0  0  0
    9.3599  -15.3800   19.3896 N   0  0  0  0  0  0  0  0  0  0  0  0
    7.8952  -14.7686   21.2074 C   0  0  0  0  0  0  0  0  0  0  0  0
    6.8741  -14.1519   21.6444 O   0  0  0  0  0  0  0  0  0  0  0  0
   10.5430  -18.3120   22.4174 N   0  0  0  0  0  0  0  0  0  0  0  0
    9.9075  -17.8333   23.6101 C   0  0  0  0  0  0  0  0  0  0  0  0
   10.6655  -17.6915   24.6059 O   0  0  0  0  0  0  0  0  0  0  0  0
    8.4622  -17.5443   23.6099 C   0  0  0  0  0  0  0  0  0  0  0  0
    8.1403  -16.1131   23.2892 C   0  0  2  0  0  0  0  0  0  0  0  0
    8.5707  -15.7471   21.9548 N   0  0  0  0  0  0  0  0  0  0  0  0
    8.6604  -15.1482   24.2885 C   0  0  0  0  0  0  0  0  0  0  0  0
    9.8352  -14.7097   24.2650 O   0  0  0  0  0  0  0  0  0  0  0  0
    7.4996  -11.7678   25.2769 C   0  0  0  0  0  0  0  0  0  0  0  0
    7.4892  -12.5471   26.5734 C   0  0  1  0  0  0  0  0  0  0  0  0
    6.0405  -12.8798   26.8747 C   0  0  0  0  0  0  0  0  0  0  0  0
    8.3083  -13.7776   26.4006 C   0  0  2  0  0  0  0  0  0  0  0  0
    7.8294  -14.6553   25.3572 N   0  0  0  0  0  0  0  0  0  0  0  0
    8.4928  -14.4709   27.6842 C   0  0  0  0  0  0  0  0  0  0  0  0
    9.1467  -13.8252   28.7156 O   0  0  0  0  0  0  0  0  0  0  0  0
    8.0716  -15.6324   27.8677 O   0  0  0  0  0  0  0  0  0  0  0  0
  1  2  1  0
  2  3  2  0
  4  5  1  0
  4  2  1  0
  5  6  1  6
  7  5  1  0
  8  7  2  0
  9 10  1  0
 10 11  2  0
 10 12  1  0
 13 12  1  1
 13 15  1  0
 13 14  1  0
 14  7  1  0
 15 21  1  0
 16 15  2  0
 18 17  1  6
 19 18  1  0
 20 18  1  0
 20 22  1  0
 20 21  1  6
 22 24  2  0
 22 23  1  0
M  END
$$$$
