NGG.pdb
     RDKit          3D

 17 16  0  0  1  0  0  0  0  0999 V2000
   26.8267  -11.7680  -15.5264 N   0  0  0  0  0  0  0  0  0  0  0  0
   25.6765  -11.7938  -16.3413 C   0  0  0  0  0  0  0  0  0  0  0  0
   25.7626  -12.1050  -17.5329 O   0  0  0  0  0  0  0  0  0  0  0  0
   24.3629  -11.4432  -15.7530 C   0  0  0  0  0  0  0  0  0  0  0  0
   23.5281  -10.6558  -16.7438 C   0  0  2  0  0  0  0  0  0  0  0  0
   24.2639   -9.4630  -17.0906 N   0  0  0  0  0  0  0  0  0  0  0  0
   22.2407  -10.2657  -16.1318 C   0  0  0  0  0  0  0  0  0  0  0  0
   21.4771  -11.1210  -15.5988 O   0  0  0  0  0  0  0  0  0  0  0  0
   21.8351   -8.8883  -16.1349 N   0  0  0  0  0  0  0  0  0  0  0  0
   20.5950   -8.5322  -15.4995 C   0  0  0  0  0  0  0  0  0  0  0  0
   20.8037   -7.3375  -14.6471 C   0  0  0  0  0  0  0  0  0  0  0  0
   19.8286   -6.7292  -14.0905 O   0  0  0  0  0  0  0  0  0  0  0  0
   22.0992   -6.7952  -14.3963 N   0  0  0  0  0  0  0  0  0  0  0  0
   22.2711   -5.6840  -13.5003 C   0  0  0  0  0  0  0  0  0  0  0  0
   22.1044   -4.4290  -14.2696 C   0  0  0  0  0  0  0  0  0  0  0  0
   22.2955   -3.1741  -13.6781 O   0  0  0  0  0  0  0  0  0  0  0  0
   21.7880   -4.4329  -15.4731 O   0  0  0  0  0  0  0  0  0  0  0  0
  1  2  1  0
  2  3  2  0
  4  2  1  0
  5  4  1  0
  5  6  1  1
  7  8  2  0
  7  5  1  0
  9  7  1  0
 10 11  1  0
 10  9  1  0
 11 13  1  0
 12 11  2  0
 13 14  1  0
 14 15  1  0
 15 16  1  0
 17 15  2  0
M  END
$$$$
