NGG.pdb
     RDKit          3D

 17 16  0  0  1  0  0  0  0  0999 V2000
   18.7740  -15.3415  -17.7126 N   0  0  0  0  0  0  0  0  0  0  0  0
   19.5562  -14.3906  -18.3994 C   0  0  0  0  0  0  0  0  0  0  0  0
   20.4126  -14.7552  -19.2104 O   0  0  0  0  0  0  0  0  0  0  0  0
   19.3401  -12.9486  -18.1377 C   0  0  0  0  0  0  0  0  0  0  0  0
   20.6614  -12.2480  -17.8890 C   0  0  2  0  0  0  0  0  0  0  0  0
   21.2294  -12.7945  -16.6793 N   0  0  0  0  0  0  0  0  0  0  0  0
   20.4448  -10.7976  -17.7059 C   0  0  0  0  0  0  0  0  0  0  0  0
   19.9342  -10.0861  -18.6179 O   0  0  0  0  0  0  0  0  0  0  0  0
   20.8174  -10.1688  -16.4700 N   0  0  0  0  0  0  0  0  0  0  0  0
   20.4608   -8.7912  -16.2611 C   0  0  0  0  0  0  0  0  0  0  0  0
   20.9757   -8.3434  -14.9452 C   0  0  0  0  0  0  0  0  0  0  0  0
   21.0763   -9.1428  -13.9544 O   0  0  0  0  0  0  0  0  0  0  0  0
   21.3890   -6.9994  -14.7039 N   0  0  0  0  0  0  0  0  0  0  0  0
   21.9424   -6.6164  -13.4334 C   0  0  0  0  0  0  0  0  0  0  0  0
   22.2850   -5.1760  -13.4842 C   0  0  0  0  0  0  0  0  0  0  0  0
   22.8539   -4.5173  -12.3872 O   0  0  0  0  0  0  0  0  0  0  0  0
   22.0836   -4.4881  -14.5015 O   0  0  0  0  0  0  0  0  0  0  0  0
  1  2  1  0
  2  3  2  0
  4  2  1  0
  5  4  1  0
  5  6  1  1
  7  8  2  0
  7  5  1  0
  9  7  1  0
 10 11  1  0
 10  9  1  0
 11 13  1  0
 12 11  2  0
 13 14  1  0
 14 15  1  0
 15 16  1  0
 17 15  2  0
M  END
$$$$
