NGG.pdb
     RDKit          3D

 17 16  0  0  1  0  0  0  0  0999 V2000
   23.1153  -21.4491   -8.0150 N   0  0  0  0  0  0  0  0  0  0  0  0
   22.6415  -21.0173   -9.2708 C   0  0  0  0  0  0  0  0  0  0  0  0
   21.4286  -20.9482   -9.4903 O   0  0  0  0  0  0  0  0  0  0  0  0
   23.6145  -20.6474  -10.3248 C   0  0  0  0  0  0  0  0  0  0  0  0
   25.0246  -21.0053   -9.8981 C   0  0  2  0  0  0  0  0  0  0  0  0
   25.3385  -20.2317   -8.7201 N   0  0  0  0  0  0  0  0  0  0  0  0
   25.9851  -20.6632  -10.9680 C   0  0  0  0  0  0  0  0  0  0  0  0
   26.4565  -19.4957  -11.0835 O   0  0  0  0  0  0  0  0  0  0  0  0
   26.4015  -21.6691  -11.9043 N   0  0  0  0  0  0  0  0  0  0  0  0
   27.3816  -21.3237  -12.8986 C   0  0  0  0  0  0  0  0  0  0  0  0
   26.7443  -21.3177  -14.2369 C   0  0  0  0  0  0  0  0  0  0  0  0
   27.4336  -21.2581  -15.3103 O   0  0  0  0  0  0  0  0  0  0  0  0
   25.3294  -21.3779  -14.4093 N   0  0  0  0  0  0  0  0  0  0  0  0
   24.7509  -21.4615  -15.7229 C   0  0  0  0  0  0  0  0  0  0  0  0
   24.3105  -20.1070  -16.1302 C   0  0  0  0  0  0  0  0  0  0  0  0
   24.5240  -19.6244  -17.4273 O   0  0  0  0  0  0  0  0  0  0  0  0
   23.7320  -19.3387  -15.3404 O   0  0  0  0  0  0  0  0  0  0  0  0
  1  2  1  0
  2  3  2  0
  4  2  1  0
  5  4  1  0
  5  6  1  1
  7  8  2  0
  7  5  1  0
  9  7  1  0
 10 11  1  0
 10  9  1  0
 11 13  1  0
 12 11  2  0
 13 14  1  0
 14 15  1  0
 15 16  1  0
 17 15  2  0
M  END
$$$$
