NGG.pdb
     RDKit          3D

 17 16  0  0  1  0  0  0  0  0999 V2000
   16.4598  -13.1909  -15.4660 N   0  0  0  0  0  0  0  0  0  0  0  0
   17.1034  -12.5853  -16.5646 C   0  0  0  0  0  0  0  0  0  0  0  0
   16.8149  -12.9177  -17.7180 O   0  0  0  0  0  0  0  0  0  0  0  0
   18.1300  -11.5456  -16.3206 C   0  0  0  0  0  0  0  0  0  0  0  0
   19.4780  -11.9925  -16.8514 C   0  0  2  0  0  0  0  0  0  0  0  0
   19.6733  -13.3676  -16.4571 N   0  0  0  0  0  0  0  0  0  0  0  0
   20.5565  -11.1673  -16.2682 C   0  0  0  0  0  0  0  0  0  0  0  0
   21.6643  -11.6732  -15.9281 O   0  0  0  0  0  0  0  0  0  0  0  0
   20.3562   -9.7583  -16.0779 N   0  0  0  0  0  0  0  0  0  0  0  0
   21.3864   -8.9963  -15.4249 C   0  0  0  0  0  0  0  0  0  0  0  0
   20.9569   -7.5820  -15.3132 C   0  0  0  0  0  0  0  0  0  0  0  0
   19.9487   -7.1321  -15.9550 O   0  0  0  0  0  0  0  0  0  0  0  0
   21.6385   -6.6398  -14.4867 N   0  0  0  0  0  0  0  0  0  0  0  0
   21.1033   -5.3219  -14.2774 C   0  0  0  0  0  0  0  0  0  0  0  0
   21.9403   -4.6284  -13.2708 C   0  0  0  0  0  0  0  0  0  0  0  0
   22.1411   -3.2431  -13.3114 O   0  0  0  0  0  0  0  0  0  0  0  0
   22.5012   -5.2437  -12.3460 O   0  0  0  0  0  0  0  0  0  0  0  0
  1  2  1  0
  2  3  2  0
  4  2  1  0
  5  4  1  0
  5  6  1  1
  7  8  2  0
  7  5  1  0
  9  7  1  0
 10 11  1  0
 10  9  1  0
 11 13  1  0
 12 11  2  0
 13 14  1  0
 14 15  1  0
 15 16  1  0
 17 15  2  0
M  END
$$$$
