NGG.pdb
     RDKit          3D

 17 16  0  0  1  0  0  0  0  0999 V2000
   27.7046  -18.4798  -19.7047 N   0  0  0  0  0  0  0  0  0  0  0  0
   28.7533  -17.9894  -18.9001 C   0  0  0  0  0  0  0  0  0  0  0  0
   29.7016  -17.3855  -19.4102 O   0  0  0  0  0  0  0  0  0  0  0  0
   28.7059  -18.2062  -17.4354 C   0  0  0  0  0  0  0  0  0  0  0  0
   27.4619  -18.9832  -17.0515 C   0  0  2  0  0  0  0  0  0  0  0  0
   26.3512  -18.0609  -17.0425 N   0  0  0  0  0  0  0  0  0  0  0  0
   27.6170  -19.5622  -15.7007 C   0  0  0  0  0  0  0  0  0  0  0  0
   28.2046  -20.6670  -15.5194 O   0  0  0  0  0  0  0  0  0  0  0  0
   27.0940  -18.8657  -14.5591 N   0  0  0  0  0  0  0  0  0  0  0  0
   27.3048  -19.4266  -13.2517 C   0  0  0  0  0  0  0  0  0  0  0  0
   26.0146  -19.4766  -12.5235 C   0  0  0  0  0  0  0  0  0  0  0  0
   25.0283  -18.7340  -12.8499 O   0  0  0  0  0  0  0  0  0  0  0  0
   25.7946  -20.3522  -11.4188 N   0  0  0  0  0  0  0  0  0  0  0  0
   24.5593  -20.3140  -10.6841 C   0  0  0  0  0  0  0  0  0  0  0  0
   24.6770  -21.2201   -9.5180 C   0  0  0  0  0  0  0  0  0  0  0  0
   23.6100  -21.4214   -8.6338 O   0  0  0  0  0  0  0  0  0  0  0  0
   25.7265  -21.8420   -9.2723 O   0  0  0  0  0  0  0  0  0  0  0  0
  1  2  1  0
  2  3  2  0
  4  2  1  0
  5  4  1  0
  5  6  1  1
  7  8  2  0
  7  5  1  0
  9  7  1  0
 10 11  1  0
 10  9  1  0
 11 13  1  0
 12 11  2  0
 13 14  1  0
 14 15  1  0
 15 16  1  0
 17 15  2  0
M  END
$$$$
