NGG.pdb
     RDKit          3D

 17 16  0  0  1  0  0  0  0  0999 V2000
   24.2667  -21.7859   -8.2371 N   0  0  0  0  0  0  0  0  0  0  0  0
   24.5989  -20.8166   -9.2055 C   0  0  0  0  0  0  0  0  0  0  0  0
   23.9241  -19.7888   -9.3171 O   0  0  0  0  0  0  0  0  0  0  0  0
   25.7664  -21.0441  -10.0885 C   0  0  0  0  0  0  0  0  0  0  0  0
   25.4549  -20.6091  -11.5070 C   0  0  2  0  0  0  0  0  0  0  0  0
   24.4596  -21.5111  -12.0364 N   0  0  0  0  0  0  0  0  0  0  0  0
   26.6697  -20.6883  -12.3449 C   0  0  0  0  0  0  0  0  0  0  0  0
   27.3662  -21.7421  -12.3998 O   0  0  0  0  0  0  0  0  0  0  0  0
   27.0804  -19.5511  -13.1193 N   0  0  0  0  0  0  0  0  0  0  0  0
   28.1828  -19.6982  -14.0312 C   0  0  0  0  0  0  0  0  0  0  0  0
   27.8194  -19.1092  -15.3421 C   0  0  0  0  0  0  0  0  0  0  0  0
   28.4048  -19.4581  -16.4221 O   0  0  0  0  0  0  0  0  0  0  0  0
   26.7991  -18.1216  -15.4792 N   0  0  0  0  0  0  0  0  0  0  0  0
   25.4504  -18.4972  -15.8063 C   0  0  0  0  0  0  0  0  0  0  0  0
   25.4104  -18.9194  -17.2257 C   0  0  0  0  0  0  0  0  0  0  0  0
   25.4256  -20.2713  -17.5905 O   0  0  0  0  0  0  0  0  0  0  0  0
   25.3615  -18.0940  -18.1557 O   0  0  0  0  0  0  0  0  0  0  0  0
  1  2  1  0
  2  3  2  0
  4  2  1  0
  5  4  1  0
  5  6  1  6
  7  8  2  0
  7  5  1  0
  9  7  1  0
 10 11  1  0
 10  9  1  0
 11 13  1  0
 12 11  2  0
 13 14  1  0
 14 15  1  0
 15 16  1  0
 17 15  2  0
M  END
$$$$
