NGG.pdb
     RDKit          3D

 17 16  0  0  1  0  0  0  0  0999 V2000
   17.7975  -13.2563  -19.0954 N   0  0  0  0  0  0  0  0  0  0  0  0
   17.5103  -12.1085  -18.3286 C   0  0  0  0  0  0  0  0  0  0  0  0
   16.3965  -11.9626  -17.8166 O   0  0  0  0  0  0  0  0  0  0  0  0
   18.5591  -11.0788  -18.1436 C   0  0  0  0  0  0  0  0  0  0  0  0
   19.2319  -11.2395  -16.7945 C   0  0  2  0  0  0  0  0  0  0  0  0
   18.2512  -10.9492  -15.7754 N   0  0  0  0  0  0  0  0  0  0  0  0
   20.3548  -10.2874  -16.6662 C   0  0  0  0  0  0  0  0  0  0  0  0
   21.3824  -10.3761  -17.3976 O   0  0  0  0  0  0  0  0  0  0  0  0
   20.2914   -9.2327  -15.6939 N   0  0  0  0  0  0  0  0  0  0  0  0
   21.3143   -8.2217  -15.7039 C   0  0  0  0  0  0  0  0  0  0  0  0
   21.0378   -7.2309  -14.6366 C   0  0  0  0  0  0  0  0  0  0  0  0
   20.1901   -7.4596  -13.7092 O   0  0  0  0  0  0  0  0  0  0  0  0
   21.6971   -5.9671  -14.5783 N   0  0  0  0  0  0  0  0  0  0  0  0
   21.4614   -5.0638  -13.4849 C   0  0  0  0  0  0  0  0  0  0  0  0
   22.3683   -3.9015  -13.6307 C   0  0  0  0  0  0  0  0  0  0  0  0
   22.2883   -2.7958  -12.7752 O   0  0  0  0  0  0  0  0  0  0  0  0
   23.2401   -3.8553  -14.5175 O   0  0  0  0  0  0  0  0  0  0  0  0
  1  2  1  0
  2  3  2  0
  4  2  1  0
  5  4  1  0
  5  6  1  1
  7  8  2  0
  7  5  1  0
  9  7  1  0
 10 11  1  0
 10  9  1  0
 11 13  1  0
 12 11  2  0
 13 14  1  0
 14 15  1  0
 15 16  1  0
 17 15  2  0
M  END
$$$$
