NGG.pdb
     RDKit          3D

 17 16  0  0  1  0  0  0  0  0999 V2000
   16.9494  -15.1919  -16.1848 N   0  0  0  0  0  0  0  0  0  0  0  0
   16.6330  -13.8361  -15.9626 C   0  0  0  0  0  0  0  0  0  0  0  0
   15.6764  -13.5277  -15.2457 O   0  0  0  0  0  0  0  0  0  0  0  0
   17.4605  -12.7847  -16.5985 C   0  0  0  0  0  0  0  0  0  0  0  0
   18.3579  -12.1198  -15.5733 C   0  0  2  0  0  0  0  0  0  0  0  0
   17.5207  -11.3336  -14.6983 N   0  0  0  0  0  0  0  0  0  0  0  0
   19.3257  -11.2263  -16.2435 C   0  0  0  0  0  0  0  0  0  0  0  0
   20.1914  -11.6755  -17.0481 O   0  0  0  0  0  0  0  0  0  0  0  0
   19.2939   -9.8143  -15.9850 N   0  0  0  0  0  0  0  0  0  0  0  0
   20.3692   -8.9972  -16.4797 C   0  0  0  0  0  0  0  0  0  0  0  0
   20.4256   -7.7351  -15.7043 C   0  0  0  0  0  0  0  0  0  0  0  0
   19.4392   -7.3336  -14.9995 O   0  0  0  0  0  0  0  0  0  0  0  0
   21.5783   -6.8945  -15.6964 N   0  0  0  0  0  0  0  0  0  0  0  0
   21.5571   -5.6228  -15.0260 C   0  0  0  0  0  0  0  0  0  0  0  0
   21.8368   -5.8441  -13.5881 C   0  0  0  0  0  0  0  0  0  0  0  0
   21.9900   -4.7750  -12.6968 O   0  0  0  0  0  0  0  0  0  0  0  0
   21.9477   -6.9870  -13.1084 O   0  0  0  0  0  0  0  0  0  0  0  0
  1  2  1  0
  2  3  2  0
  4  2  1  0
  5  4  1  0
  5  6  1  1
  7  8  2  0
  7  5  1  0
  9  7  1  0
 10 11  1  0
 10  9  1  0
 11 13  1  0
 12 11  2  0
 13 14  1  0
 14 15  1  0
 15 16  1  0
 17 15  2  0
M  END
$$$$
