NGG.pdb
     RDKit          3D

 17 16  0  0  1  0  0  0  0  0999 V2000
   18.1928  -14.5122  -19.3945 N   0  0  0  0  0  0  0  0  0  0  0  0
   17.8706  -14.2014  -18.0576 C   0  0  0  0  0  0  0  0  0  0  0  0
   17.4458  -15.0771  -17.2981 O   0  0  0  0  0  0  0  0  0  0  0  0
   18.0470  -12.8126  -17.5732 C   0  0  0  0  0  0  0  0  0  0  0  0
   19.4556  -12.3258  -17.8515 C   0  0  2  0  0  0  0  0  0  0  0  0
   20.3255  -12.8976  -16.8512 N   0  0  0  0  0  0  0  0  0  0  0  0
   19.5158  -10.8522  -17.7555 C   0  0  0  0  0  0  0  0  0  0  0  0
   19.1688  -10.1130  -18.7207 O   0  0  0  0  0  0  0  0  0  0  0  0
   19.9765  -10.2322  -16.5450 N   0  0  0  0  0  0  0  0  0  0  0  0
   20.0266   -8.7963  -16.4804 C   0  0  0  0  0  0  0  0  0  0  0  0
   20.4793   -8.3797  -15.1317 C   0  0  0  0  0  0  0  0  0  0  0  0
   20.3865   -9.1551  -14.1213 O   0  0  0  0  0  0  0  0  0  0  0  0
   21.0438   -7.0941  -14.8790 N   0  0  0  0  0  0  0  0  0  0  0  0
   21.5157   -6.7425  -13.5672 C   0  0  0  0  0  0  0  0  0  0  0  0
   22.0741   -5.3713  -13.6196 C   0  0  0  0  0  0  0  0  0  0  0  0
   22.1579   -4.6581  -14.8218 O   0  0  0  0  0  0  0  0  0  0  0  0
   22.4926   -4.7927  -12.6005 O   0  0  0  0  0  0  0  0  0  0  0  0
  1  2  1  0
  2  3  2  0
  4  2  1  0
  5  4  1  0
  5  6  1  1
  7  8  2  0
  7  5  1  0
  9  7  1  0
 10 11  1  0
 10  9  1  0
 11 13  1  0
 12 11  2  0
 13 14  1  0
 14 15  1  0
 15 16  1  0
 17 15  2  0
M  END
$$$$
