NGG.pdb
     RDKit          3D

 17 16  0  0  1  0  0  0  0  0999 V2000
   17.6408  -12.9837  -15.7040 N   0  0  0  0  0  0  0  0  0  0  0  0
   18.0982  -11.6502  -15.7189 C   0  0  0  0  0  0  0  0  0  0  0  0
   17.3095  -10.7177  -15.5388 O   0  0  0  0  0  0  0  0  0  0  0  0
   19.5356  -11.3791  -15.9531 C   0  0  0  0  0  0  0  0  0  0  0  0
   19.7109  -10.3209  -17.0247 C   0  0  2  0  0  0  0  0  0  0  0  0
   19.2507  -10.8785  -18.2744 N   0  0  0  0  0  0  0  0  0  0  0  0
   21.1374   -9.9578  -17.1565 C   0  0  0  0  0  0  0  0  0  0  0  0
   21.9450  -10.6801  -17.8082 O   0  0  0  0  0  0  0  0  0  0  0  0
   21.6314   -8.7608  -16.5361 N   0  0  0  0  0  0  0  0  0  0  0  0
   23.0036   -8.3874  -16.7511 C   0  0  0  0  0  0  0  0  0  0  0  0
   23.2718   -7.0918  -16.0827 C   0  0  0  0  0  0  0  0  0  0  0  0
   24.4205   -6.5357  -16.1290 O   0  0  0  0  0  0  0  0  0  0  0  0
   22.2698   -6.3886  -15.3500 N   0  0  0  0  0  0  0  0  0  0  0  0
   22.5710   -5.1404  -14.7031 C   0  0  0  0  0  0  0  0  0  0  0  0
   21.3294   -4.6186  -14.0859 C   0  0  0  0  0  0  0  0  0  0  0  0
   20.1056   -5.2854  -14.2212 O   0  0  0  0  0  0  0  0  0  0  0  0
   21.3179   -3.5669  -13.4207 O   0  0  0  0  0  0  0  0  0  0  0  0
  1  2  1  0
  2  3  2  0
  4  2  1  0
  5  4  1  0
  5  6  1  6
  7  8  2  0
  7  5  1  0
  9  7  1  0
 10 11  1  0
 10  9  1  0
 11 13  1  0
 12 11  2  0
 13 14  1  0
 14 15  1  0
 15 16  1  0
 17 15  2  0
M  END
$$$$
