NGG.pdb
     RDKit          3D

 17 16  0  0  1  0  0  0  0  0999 V2000
   17.5562  -14.5593  -17.9219 N   0  0  0  0  0  0  0  0  0  0  0  0
   18.8216  -14.0483  -18.2760 C   0  0  0  0  0  0  0  0  0  0  0  0
   19.7371  -14.8132  -18.5934 O   0  0  0  0  0  0  0  0  0  0  0  0
   19.0415  -12.5834  -18.2634 C   0  0  0  0  0  0  0  0  0  0  0  0
   20.3743  -12.2499  -17.6221 C   0  0  2  0  0  0  0  0  0  0  0  0
   20.2861  -12.5872  -16.2210 N   0  0  0  0  0  0  0  0  0  0  0  0
   20.6572  -10.8052  -17.7520 C   0  0  0  0  0  0  0  0  0  0  0  0
   20.7639  -10.2526  -18.8842 O   0  0  0  0  0  0  0  0  0  0  0  0
   20.8166   -9.9985  -16.5749 N   0  0  0  0  0  0  0  0  0  0  0  0
   21.0251   -8.5840  -16.7301 C   0  0  0  0  0  0  0  0  0  0  0  0
   21.1282   -7.9519  -15.3933 C   0  0  0  0  0  0  0  0  0  0  0  0
   20.7983   -8.5735  -14.3276 O   0  0  0  0  0  0  0  0  0  0  0  0
   21.5995   -6.6173  -15.2138 N   0  0  0  0  0  0  0  0  0  0  0  0
   21.7229   -6.0511  -13.8980 C   0  0  0  0  0  0  0  0  0  0  0  0
   22.1075   -4.6268  -14.0327 C   0  0  0  0  0  0  0  0  0  0  0  0
   22.2143   -3.7864  -12.9177 O   0  0  0  0  0  0  0  0  0  0  0  0
   22.3526   -4.1141  -15.1398 O   0  0  0  0  0  0  0  0  0  0  0  0
  1  2  1  0
  2  3  2  0
  4  2  1  0
  5  4  1  0
  5  6  1  1
  7  8  2  0
  7  5  1  0
  9  7  1  0
 10 11  1  0
 10  9  1  0
 11 13  1  0
 12 11  2  0
 13 14  1  0
 14 15  1  0
 15 16  1  0
 17 15  2  0
M  END
$$$$
