NGG.pdb
     RDKit          3D

 17 16  0  0  1  0  0  0  0  0999 V2000
   11.8369  -12.7758   -9.3009 N   0  0  0  0  0  0  0  0  0  0  0  0
   12.9381  -13.0245  -10.1454 C   0  0  0  0  0  0  0  0  0  0  0  0
   13.2288  -14.1801  -10.4682 O   0  0  0  0  0  0  0  0  0  0  0  0
   13.7434  -11.8845  -10.6416 C   0  0  0  0  0  0  0  0  0  0  0  0
   13.3476  -10.6038   -9.9333 C   0  0  2  0  0  0  0  0  0  0  0  0
   11.9438  -10.3774  -10.1833 N   0  0  0  0  0  0  0  0  0  0  0  0
   14.1211   -9.4635  -10.4679 C   0  0  0  0  0  0  0  0  0  0  0  0
   13.8193   -8.9191  -11.5684 O   0  0  0  0  0  0  0  0  0  0  0  0
   15.2427   -8.9518   -9.7318 N   0  0  0  0  0  0  0  0  0  0  0  0
   16.0025   -7.8685  -10.2955 C   0  0  0  0  0  0  0  0  0  0  0  0
   16.2858   -6.8651   -9.2418 C   0  0  0  0  0  0  0  0  0  0  0  0
   16.3139   -7.1786   -8.0041 O   0  0  0  0  0  0  0  0  0  0  0  0
   16.5434   -5.4944   -9.5419 N   0  0  0  0  0  0  0  0  0  0  0  0
   16.9175   -4.5716   -8.5047 C   0  0  0  0  0  0  0  0  0  0  0  0
   17.1774   -3.2502   -9.1217 C   0  0  0  0  0  0  0  0  0  0  0  0
   17.5755   -2.1476   -8.3557 O   0  0  0  0  0  0  0  0  0  0  0  0
   17.0542   -3.0605  -10.3454 O   0  0  0  0  0  0  0  0  0  0  0  0
  1  2  1  0
  2  3  2  0
  4  2  1  0
  5  4  1  0
  5  6  1  6
  7  8  2  0
  7  5  1  0
  9  7  1  0
 10 11  1  0
 10  9  1  0
 11 13  1  0
 12 11  2  0
 13 14  1  0
 14 15  1  0
 15 16  1  0
 17 15  2  0
M  END
$$$$
