EMN.pdb
     RDKit          3D

 26 25  0  0  1  0  0  0  0  0999 V2000
    8.2787  -17.8560   20.8487 N   0  0  0  0  0  0  0  0  0  0  0  0
    9.5482  -17.8238   21.5354 C   0  0  1  0  0  0  0  0  0  0  0  0
   10.6000  -17.6561   20.4778 C   0  0  0  0  0  0  0  0  0  0  0  0
   10.2432  -16.7362   19.3630 C   0  0  0  0  0  0  0  0  0  0  0  0
   11.2894  -16.5298   18.3554 C   0  0  0  0  0  0  0  0  0  0  0  0
   12.0652  -15.5480   18.2883 O   0  0  0  0  0  0  0  0  0  0  0  0
    9.5995  -16.8605   22.6284 C   0  0  0  0  0  0  0  0  0  0  0  0
   10.6841  -16.6874   23.2376 O   0  0  0  0  0  0  0  0  0  0  0  0
   11.4371  -17.5146   17.3807 O   0  0  0  0  0  0  0  0  0  0  0  0
    6.1419  -11.1940   25.4216 C   0  0  0  0  0  0  0  0  0  0  0  0
    7.6933  -12.0238   25.8657 S   0  0  0  0  0  0  0  0  0  0  0  0
    7.4554  -13.8169   25.9348 C   0  0  0  0  0  0  0  0  0  0  0  0
    7.4408  -14.4338   24.5569 C   0  0  0  0  0  0  0  0  0  0  0  0
    8.4820  -15.4921   24.3930 C   0  0  2  0  0  0  0  0  0  0  0  0
    8.4948  -16.0794   23.0755 N   0  0  0  0  0  0  0  0  0  0  0  0
    8.3792  -16.5541   25.4373 C   0  0  0  0  0  0  0  0  0  0  0  0
    7.4561  -17.3847   25.2876 O   0  0  0  0  0  0  0  0  0  0  0  0
   12.3191  -20.3923   26.9604 N   0  0  0  0  0  0  0  0  0  0  0  0
   10.9865  -19.9509   27.0917 C   0  0  0  0  0  0  0  0  0  0  0  0
   10.1944  -20.5770   27.8227 O   0  0  0  0  0  0  0  0  0  0  0  0
   10.5316  -18.7486   26.3635 C   0  0  0  0  0  0  0  0  0  0  0  0
    9.6829  -17.8220   27.2400 C   0  0  2  0  0  0  0  0  0  0  0  0
    9.2481  -16.6374   26.5252 N   0  0  0  0  0  0  0  0  0  0  0  0
   10.5032  -17.4741   28.3929 C   0  0  0  0  0  0  0  0  0  0  0  0
   10.5786  -18.2916   29.3665 O   0  0  0  0  0  0  0  0  0  0  0  0
   11.2260  -16.3050   28.5281 O   0  0  0  0  0  0  0  0  0  0  0  0
  2  1  1  6
  2  7  1  0
  3  2  1  0
  3  4  1  0
  4  5  1  0
  5  9  1  0
  6  5  2  0
  7  8  2  0
 10 11  1  0
 11 12  1  0
 12 13  1  0
 14 13  1  6
 14 16  1  0
 15  7  1  0
 15 14  1  0
 16 17  2  0
 18 19  1  0
 19 20  2  0
 21 19  1  0
 22 21  1  6
 22 24  1  0
 23 22  1  0
 23 16  1  0
 24 25  2  0
 24 26  1  0
M  END
$$$$
