EMN.pdb
     RDKit          3D

 26 25  0  0  1  0  0  0  0  0999 V2000
    7.8517  -17.4864   20.2148 N   0  0  0  0  0  0  0  0  0  0  0  0
    9.2064  -17.0475   20.4528 C   0  0  1  0  0  0  0  0  0  0  0  0
    9.6877  -16.4368   19.1690 C   0  0  0  0  0  0  0  0  0  0  0  0
    9.6649  -17.3390   17.9851 C   0  0  0  0  0  0  0  0  0  0  0  0
    9.5941  -16.6689   16.6819 C   0  0  0  0  0  0  0  0  0  0  0  0
    9.6107  -15.4312   16.4872 O   0  0  0  0  0  0  0  0  0  0  0  0
    9.3522  -16.2111   21.6379 C   0  0  0  0  0  0  0  0  0  0  0  0
   10.4888  -15.7657   21.9332 O   0  0  0  0  0  0  0  0  0  0  0  0
    9.4993  -17.4808   15.5534 O   0  0  0  0  0  0  0  0  0  0  0  0
    6.7319  -11.6636   27.5447 C   0  0  0  0  0  0  0  0  0  0  0  0
    6.2875  -12.6109   26.0623 S   0  0  0  0  0  0  0  0  0  0  0  0
    7.6602  -13.6771   25.5566 C   0  0  0  0  0  0  0  0  0  0  0  0
    7.3807  -14.3649   24.2419 C   0  0  0  0  0  0  0  0  0  0  0  0
    8.5443  -15.1658   23.7568 C   0  0  2  0  0  0  0  0  0  0  0  0
    8.2871  -15.8476   22.5119 N   0  0  0  0  0  0  0  0  0  0  0  0
    9.0386  -16.1274   24.7865 C   0  0  0  0  0  0  0  0  0  0  0  0
    8.2682  -17.0701   25.0729 O   0  0  0  0  0  0  0  0  0  0  0  0
   13.5548  -15.5771   24.3577 N   0  0  0  0  0  0  0  0  0  0  0  0
   12.9950  -16.7667   24.8671 C   0  0  0  0  0  0  0  0  0  0  0  0
   12.9449  -17.7855   24.1507 O   0  0  0  0  0  0  0  0  0  0  0  0
   12.4692  -16.8035   26.2473 C   0  0  0  0  0  0  0  0  0  0  0  0
   10.9445  -16.9477   26.2869 C   0  0  2  0  0  0  0  0  0  0  0  0
   10.2814  -16.0042   25.4075 N   0  0  0  0  0  0  0  0  0  0  0  0
   10.5443  -16.7505   27.6741 C   0  0  0  0  0  0  0  0  0  0  0  0
    9.7740  -15.7781   27.9624 O   0  0  0  0  0  0  0  0  0  0  0  0
   10.9363  -17.5454   28.7332 O   0  0  0  0  0  0  0  0  0  0  0  0
  2  1  1  6
  2  7  1  0
  3  2  1  0
  3  4  1  0
  4  5  1  0
  5  9  1  0
  6  5  2  0
  7  8  2  0
 10 11  1  0
 11 12  1  0
 12 13  1  0
 14 13  1  1
 14 16  1  0
 15  7  1  0
 15 14  1  0
 16 17  2  0
 18 19  1  0
 19 20  2  0
 21 19  1  0
 22 21  1  1
 22 24  1  0
 23 22  1  0
 23 16  1  0
 24 25  2  0
 24 26  1  0
M  END
$$$$
