EMN.pdb
     RDKit          3D

 26 25  0  0  1  0  0  0  0  0999 V2000
    6.6574  -16.1276   20.6248 N   0  0  0  0  0  0  0  0  0  0  0  0
    8.0980  -16.1621   20.7129 C   0  0  1  0  0  0  0  0  0  0  0  0
    8.6156  -15.4270   19.5110 C   0  0  0  0  0  0  0  0  0  0  0  0
    7.5767  -14.7880   18.6574 C   0  0  0  0  0  0  0  0  0  0  0  0
    7.9516  -14.5825   17.2540 C   0  0  0  0  0  0  0  0  0  0  0  0
    7.9452  -15.4541   16.3537 O   0  0  0  0  0  0  0  0  0  0  0  0
    8.6181  -15.7082   21.9969 C   0  0  0  0  0  0  0  0  0  0  0  0
    9.8615  -15.6518   22.1651 O   0  0  0  0  0  0  0  0  0  0  0  0
    8.3528  -13.3004   16.8839 O   0  0  0  0  0  0  0  0  0  0  0  0
    6.0372  -12.5674   27.3478 C   0  0  0  0  0  0  0  0  0  0  0  0
    6.4945  -11.6599   25.8445 S   0  0  0  0  0  0  0  0  0  0  0  0
    7.4866  -12.7062   24.7500 C   0  0  0  0  0  0  0  0  0  0  0  0
    7.5415  -14.1340   25.2378 C   0  0  0  0  0  0  0  0  0  0  0  0
    8.4082  -14.9980   24.3816 C   0  0  2  0  0  0  0  0  0  0  0  0
    7.8144  -15.3138   23.1055 N   0  0  0  0  0  0  0  0  0  0  0  0
    8.8332  -16.2456   25.0830 C   0  0  0  0  0  0  0  0  0  0  0  0
    7.9493  -17.1165   25.2395 O   0  0  0  0  0  0  0  0  0  0  0  0
   11.3168  -18.9657   23.9758 N   0  0  0  0  0  0  0  0  0  0  0  0
   12.3995  -18.5302   24.7670 C   0  0  0  0  0  0  0  0  0  0  0  0
   13.5684  -18.7559   24.3977 O   0  0  0  0  0  0  0  0  0  0  0  0
   12.1470  -17.8080   26.0309 C   0  0  0  0  0  0  0  0  0  0  0  0
   10.6531  -17.5854   26.2871 C   0  0  2  0  0  0  0  0  0  0  0  0
   10.1324  -16.4525   25.5462 N   0  0  0  0  0  0  0  0  0  0  0  0
   10.5017  -17.3939   27.7237 C   0  0  0  0  0  0  0  0  0  0  0  0
   10.7841  -18.3566   28.5082 O   0  0  0  0  0  0  0  0  0  0  0  0
   10.0675  -16.2300   28.3271 O   0  0  0  0  0  0  0  0  0  0  0  0
  2  1  1  1
  2  7  1  0
  3  2  1  0
  3  4  1  0
  4  5  1  0
  5  9  1  0
  6  5  2  0
  7  8  2  0
 10 11  1  0
 11 12  1  0
 12 13  1  0
 14 13  1  1
 14 16  1  0
 15  7  1  0
 15 14  1  0
 16 17  2  0
 18 19  1  0
 19 20  2  0
 21 19  1  0
 22 21  1  1
 22 24  1  0
 23 22  1  0
 23 16  1  0
 24 25  2  0
 24 26  1  0
M  END
$$$$
