EMN.pdb
     RDKit          3D

 26 25  0  0  1  0  0  0  0  0999 V2000
    8.8714  -16.4432   20.7408 N   0  0  0  0  0  0  0  0  0  0  0  0
    9.7718  -17.1098   21.6515 C   0  0  1  0  0  0  0  0  0  0  0  0
   11.0520  -17.3297   20.8994 C   0  0  0  0  0  0  0  0  0  0  0  0
   10.9781  -17.0952   19.4312 C   0  0  0  0  0  0  0  0  0  0  0  0
   12.2431  -17.2448   18.7034 C   0  0  0  0  0  0  0  0  0  0  0  0
   13.3566  -17.5191   19.2087 O   0  0  0  0  0  0  0  0  0  0  0  0
    9.9085  -16.4379   22.9380 C   0  0  0  0  0  0  0  0  0  0  0  0
   11.0284  -16.4323   23.5066 O   0  0  0  0  0  0  0  0  0  0  0  0
   12.2073  -17.0660   17.3220 O   0  0  0  0  0  0  0  0  0  0  0  0
    6.6830  -10.6655   25.3280 C   0  0  0  0  0  0  0  0  0  0  0  0
    6.6361  -12.3498   26.0016 S   0  0  0  0  0  0  0  0  0  0  0  0
    7.7843  -13.4233   25.1038 C   0  0  0  0  0  0  0  0  0  0  0  0
    7.7133  -14.8509   25.5900 C   0  0  0  0  0  0  0  0  0  0  0  0
    8.8299  -15.6910   25.0626 C   0  0  2  0  0  0  0  0  0  0  0  0
    8.8517  -15.7708   23.6225 N   0  0  0  0  0  0  0  0  0  0  0  0
    8.8415  -17.0585   25.6618 C   0  0  0  0  0  0  0  0  0  0  0  0
    8.3149  -17.9630   24.9770 O   0  0  0  0  0  0  0  0  0  0  0  0
   11.8200  -21.0930   26.6024 N   0  0  0  0  0  0  0  0  0  0  0  0
   12.2913  -19.7751   26.7722 C   0  0  0  0  0  0  0  0  0  0  0  0
   13.4238  -19.5782   27.2544 O   0  0  0  0  0  0  0  0  0  0  0  0
   11.4433  -18.6311   26.3788 C   0  0  0  0  0  0  0  0  0  0  0  0
   10.2247  -18.4669   27.2927 C   0  0  2  0  0  0  0  0  0  0  0  0
    9.3997  -17.3374   26.9091 N   0  0  0  0  0  0  0  0  0  0  0  0
   10.7388  -18.3118   28.6473 C   0  0  0  0  0  0  0  0  0  0  0  0
   11.0115  -17.1434   29.0744 O   0  0  0  0  0  0  0  0  0  0  0  0
   10.9633  -19.3468   29.5336 O   0  0  0  0  0  0  0  0  0  0  0  0
  2  1  1  6
  2  7  1  0
  3  2  1  0
  3  4  1  0
  4  5  1  0
  5  9  1  0
  6  5  2  0
  7  8  2  0
 10 11  1  0
 11 12  1  0
 12 13  1  0
 14 13  1  6
 14 16  1  0
 15  7  1  0
 15 14  1  0
 16 17  2  0
 18 19  1  0
 19 20  2  0
 21 19  1  0
 22 21  1  6
 22 24  1  0
 23 22  1  0
 23 16  1  0
 24 25  2  0
 24 26  1  0
M  END
$$$$
