EMN.pdb
     RDKit          3D

 26 25  0  0  1  0  0  0  0  0999 V2000
    8.4990  -17.5110   20.4535 N   0  0  0  0  0  0  0  0  0  0  0  0
    9.8306  -17.1239   20.8552 C   0  0  1  0  0  0  0  0  0  0  0  0
   10.4843  -16.5274   19.6428 C   0  0  0  0  0  0  0  0  0  0  0  0
   10.6879  -17.4625   18.5024 C   0  0  0  0  0  0  0  0  0  0  0  0
   11.4407  -16.9186   17.3667 C   0  0  0  0  0  0  0  0  0  0  0  0
   12.4940  -16.2432   17.4357 O   0  0  0  0  0  0  0  0  0  0  0  0
    9.8640  -16.2973   22.0555 C   0  0  0  0  0  0  0  0  0  0  0  0
   10.9705  -15.8757   22.4743 O   0  0  0  0  0  0  0  0  0  0  0  0
   10.9413  -17.1745   16.0913 O   0  0  0  0  0  0  0  0  0  0  0  0
    6.3649  -11.1335   25.8229 C   0  0  0  0  0  0  0  0  0  0  0  0
    6.2095  -12.8957   26.2266 S   0  0  0  0  0  0  0  0  0  0  0  0
    7.7240  -13.7829   25.7840 C   0  0  0  0  0  0  0  0  0  0  0  0
    7.5761  -14.5277   24.4790 C   0  0  0  0  0  0  0  0  0  0  0  0
    8.8501  -15.1728   24.0411 C   0  0  2  0  0  0  0  0  0  0  0  0
    8.7183  -15.9184   22.8133 N   0  0  0  0  0  0  0  0  0  0  0  0
    9.4486  -16.0271   25.1094 C   0  0  0  0  0  0  0  0  0  0  0  0
    8.7929  -17.0416   25.4335 O   0  0  0  0  0  0  0  0  0  0  0  0
   11.4116  -14.8903   30.0904 N   0  0  0  0  0  0  0  0  0  0  0  0
   10.4422  -15.7290   29.5031 C   0  0  0  0  0  0  0  0  0  0  0  0
    9.9429  -16.6592   30.1657 O   0  0  0  0  0  0  0  0  0  0  0  0
   10.0206  -15.5042   28.1051 C   0  0  0  0  0  0  0  0  0  0  0  0
   11.0644  -15.9921   27.0954 C   0  0  2  0  0  0  0  0  0  0  0  0
   10.6649  -15.7335   25.7254 N   0  0  0  0  0  0  0  0  0  0  0  0
   11.2405  -17.4184   27.3359 C   0  0  0  0  0  0  0  0  0  0  0  0
   12.2832  -17.8173   27.9487 O   0  0  0  0  0  0  0  0  0  0  0  0
   10.3536  -18.4034   26.9479 O   0  0  0  0  0  0  0  0  0  0  0  0
  2  1  1  6
  2  7  1  0
  3  2  1  0
  3  4  1  0
  4  5  1  0
  5  9  1  0
  6  5  2  0
  7  8  2  0
 10 11  1  0
 11 12  1  0
 12 13  1  0
 14 13  1  1
 14 16  1  0
 15  7  1  0
 15 14  1  0
 16 17  2  0
 18 19  1  0
 19 20  2  0
 21 19  1  0
 22 21  1  1
 22 24  1  0
 23 22  1  0
 23 16  1  0
 24 25  2  0
 24 26  1  0
M  END
$$$$
