EMN.pdb
     RDKit          3D

 26 25  0  0  1  0  0  0  0  0999 V2000
    7.6912  -17.2671   20.9974 N   0  0  0  0  0  0  0  0  0  0  0  0
    9.0809  -16.9447   21.2190 C   0  0  1  0  0  0  0  0  0  0  0  0
    9.5680  -16.2772   19.9660 C   0  0  0  0  0  0  0  0  0  0  0  0
    9.3480  -17.0426   18.7082 C   0  0  0  0  0  0  0  0  0  0  0  0
    9.8663  -16.4144   17.4879 C   0  0  0  0  0  0  0  0  0  0  0  0
    9.2727  -15.5604   16.7889 O   0  0  0  0  0  0  0  0  0  0  0  0
    9.3229  -16.2103   22.4548 C   0  0  0  0  0  0  0  0  0  0  0  0
   10.4924  -15.8405   22.7248 O   0  0  0  0  0  0  0  0  0  0  0  0
   11.1361  -16.8005   17.0636 O   0  0  0  0  0  0  0  0  0  0  0  0
    6.8213  -11.9058   26.8908 C   0  0  0  0  0  0  0  0  0  0  0  0
    6.9734  -11.8736   25.0829 S   0  0  0  0  0  0  0  0  0  0  0  0
    6.8722  -13.5504   24.4087 C   0  0  0  0  0  0  0  0  0  0  0  0
    7.5214  -14.5620   25.3223 C   0  0  0  0  0  0  0  0  0  0  0  0
    8.6653  -15.2688   24.6721 C   0  0  2  0  0  0  0  0  0  0  0  0
    8.3191  -15.8685   23.4066 N   0  0  0  0  0  0  0  0  0  0  0  0
    9.2934  -16.2790   25.5744 C   0  0  0  0  0  0  0  0  0  0  0  0
    8.5713  -17.2452   25.9047 O   0  0  0  0  0  0  0  0  0  0  0  0
   11.9589  -16.1360   30.4114 N   0  0  0  0  0  0  0  0  0  0  0  0
   10.8207  -16.6763   29.7784 C   0  0  0  0  0  0  0  0  0  0  0  0
   10.2143  -17.6316   30.3014 O   0  0  0  0  0  0  0  0  0  0  0  0
   10.3494  -16.1101   28.4978 C   0  0  0  0  0  0  0  0  0  0  0  0
   11.1525  -16.6279   27.3002 C   0  0  2  0  0  0  0  0  0  0  0  0
   10.6054  -16.1747   26.0358 N   0  0  0  0  0  0  0  0  0  0  0  0
   11.1430  -18.0822   27.3909 C   0  0  0  0  0  0  0  0  0  0  0  0
   11.7355  -18.6438   28.3684 O   0  0  0  0  0  0  0  0  0  0  0  0
   10.5325  -18.9291   26.4870 O   0  0  0  0  0  0  0  0  0  0  0  0
  2  1  1  6
  2  7  1  0
  3  2  1  0
  3  4  1  0
  4  5  1  0
  5  9  1  0
  6  5  2  0
  7  8  2  0
 10 11  1  0
 11 12  1  0
 12 13  1  0
 14 13  1  1
 14 16  1  0
 15  7  1  0
 15 14  1  0
 16 17  2  0
 18 19  1  0
 19 20  2  0
 21 19  1  0
 22 21  1  1
 22 24  1  0
 23 22  1  0
 23 16  1  0
 24 25  2  0
 24 26  1  0
M  END
$$$$
