EMN.pdb
     RDKit          3D

 26 25  0  0  1  0  0  0  0  0999 V2000
    7.3816  -17.4859   20.9594 N   0  0  0  0  0  0  0  0  0  0  0  0
    8.7590  -17.0536   20.9388 C   0  0  1  0  0  0  0  0  0  0  0  0
    9.0580  -16.6523   19.5238 C   0  0  0  0  0  0  0  0  0  0  0  0
    7.9816  -15.8874   18.8362 C   0  0  0  0  0  0  0  0  0  0  0  0
    8.2459  -15.5473   17.4338 C   0  0  0  0  0  0  0  0  0  0  0  0
    8.1732  -16.3308   16.4586 O   0  0  0  0  0  0  0  0  0  0  0  0
    9.0757  -16.0558   21.9533 C   0  0  0  0  0  0  0  0  0  0  0  0
   10.2464  -15.6059   22.0209 O   0  0  0  0  0  0  0  0  0  0  0  0
    8.6123  -14.2318   17.1565 O   0  0  0  0  0  0  0  0  0  0  0  0
    5.6838  -11.9337   25.6679 C   0  0  0  0  0  0  0  0  0  0  0  0
    7.0077  -12.3352   26.8420 S   0  0  0  0  0  0  0  0  0  0  0  0
    8.1570  -13.5307   26.1163 C   0  0  0  0  0  0  0  0  0  0  0  0
    7.6431  -14.0781   24.8064 C   0  0  0  0  0  0  0  0  0  0  0  0
    8.5815  -15.0637   24.1909 C   0  0  2  0  0  0  0  0  0  0  0  0
    8.1457  -15.5351   22.8990 N   0  0  0  0  0  0  0  0  0  0  0  0
    8.8682  -16.2149   25.0974 C   0  0  0  0  0  0  0  0  0  0  0  0
    7.9154  -16.9963   25.3117 O   0  0  0  0  0  0  0  0  0  0  0  0
   13.2876  -17.1241   24.2504 N   0  0  0  0  0  0  0  0  0  0  0  0
   12.4275  -18.0423   24.8868 C   0  0  0  0  0  0  0  0  0  0  0  0
   11.9858  -19.0208   24.2533 O   0  0  0  0  0  0  0  0  0  0  0  0
   12.0515  -17.8434   26.3016 C   0  0  0  0  0  0  0  0  0  0  0  0
   10.5552  -17.5627   26.4736 C   0  0  2  0  0  0  0  0  0  0  0  0
   10.1156  -16.4288   25.6834 N   0  0  0  0  0  0  0  0  0  0  0  0
   10.3360  -17.3343   27.8960 C   0  0  0  0  0  0  0  0  0  0  0  0
    9.9011  -16.2004   28.2795 O   0  0  0  0  0  0  0  0  0  0  0  0
   10.5639  -18.2628   28.8926 O   0  0  0  0  0  0  0  0  0  0  0  0
  2  1  1  6
  2  7  1  0
  3  2  1  0
  3  4  1  0
  4  5  1  0
  5  9  1  0
  6  5  2  0
  7  8  2  0
 10 11  1  0
 11 12  1  0
 12 13  1  0
 14 13  1  1
 14 16  1  0
 15  7  1  0
 15 14  1  0
 16 17  2  0
 18 19  1  0
 19 20  2  0
 21 19  1  0
 22 21  1  1
 22 24  1  0
 23 22  1  0
 23 16  1  0
 24 25  2  0
 24 26  1  0
M  END
$$$$
