EMN.pdb
     RDKit          3D

 26 25  0  0  1  0  0  0  0  0999 V2000
    8.2354  -17.5883   20.3599 N   0  0  0  0  0  0  0  0  0  0  0  0
    9.4574  -17.8247   21.0915 C   0  0  1  0  0  0  0  0  0  0  0  0
   10.5674  -17.8123   20.0813 C   0  0  0  0  0  0  0  0  0  0  0  0
   10.4106  -16.8309   18.9729 C   0  0  0  0  0  0  0  0  0  0  0  0
   11.4965  -16.8139   17.9864 C   0  0  0  0  0  0  0  0  0  0  0  0
   12.5109  -16.0789   18.0190 O   0  0  0  0  0  0  0  0  0  0  0  0
    9.6390  -16.9362   22.2328 C   0  0  0  0  0  0  0  0  0  0  0  0
   10.7652  -16.8765   22.7855 O   0  0  0  0  0  0  0  0  0  0  0  0
   11.3938  -17.6952   16.9120 O   0  0  0  0  0  0  0  0  0  0  0  0
    7.3323  -11.3743   27.2999 C   0  0  0  0  0  0  0  0  0  0  0  0
    6.7050  -12.5543   26.0724 S   0  0  0  0  0  0  0  0  0  0  0  0
    7.9307  -13.8473   25.7525 C   0  0  0  0  0  0  0  0  0  0  0  0
    7.7533  -14.4617   24.3848 C   0  0  0  0  0  0  0  0  0  0  0  0
    8.7745  -15.5118   24.0927 C   0  0  2  0  0  0  0  0  0  0  0  0
    8.6204  -16.1091   22.7888 N   0  0  0  0  0  0  0  0  0  0  0  0
    8.8199  -16.5667   25.1484 C   0  0  0  0  0  0  0  0  0  0  0  0
    7.7665  -17.2191   25.3192 O   0  0  0  0  0  0  0  0  0  0  0  0
   12.2336  -18.9649   24.3193 N   0  0  0  0  0  0  0  0  0  0  0  0
   11.4148  -19.3923   25.3845 C   0  0  0  0  0  0  0  0  0  0  0  0
   10.6743  -20.3844   25.2388 O   0  0  0  0  0  0  0  0  0  0  0  0
   11.4358  -18.6646   26.6701 C   0  0  0  0  0  0  0  0  0  0  0  0
   10.1509  -17.8651   26.9088 C   0  0  2  0  0  0  0  0  0  0  0  0
    9.9566  -16.8290   25.9127 N   0  0  0  0  0  0  0  0  0  0  0  0
   10.2558  -17.2999   28.2478 C   0  0  0  0  0  0  0  0  0  0  0  0
   10.2946  -16.0341   28.3825 O   0  0  0  0  0  0  0  0  0  0  0  0
   10.3186  -18.0342   29.4158 O   0  0  0  0  0  0  0  0  0  0  0  0
  2  1  1  6
  2  7  1  0
  3  2  1  0
  3  4  1  0
  4  5  1  0
  5  9  1  0
  6  5  2  0
  7  8  2  0
 10 11  1  0
 11 12  1  0
 12 13  1  0
 14 13  1  1
 14 16  1  0
 15  7  1  0
 15 14  1  0
 16 17  2  0
 18 19  1  0
 19 20  2  0
 21 19  1  0
 22 21  1  6
 22 24  1  0
 23 22  1  0
 23 16  1  0
 24 25  2  0
 24 26  1  0
M  END
$$$$
