EMN.pdb
     RDKit          3D

 26 25  0  0  1  0  0  0  0  0999 V2000
    7.5635  -17.3278   20.3161 N   0  0  0  0  0  0  0  0  0  0  0  0
    8.9552  -17.1047   20.6289 C   0  0  1  0  0  0  0  0  0  0  0  0
    9.5879  -16.5533   19.3845 C   0  0  0  0  0  0  0  0  0  0  0  0
   11.0651  -16.3781   19.4434 C   0  0  0  0  0  0  0  0  0  0  0  0
   11.8425  -17.2803   18.5867 C   0  0  0  0  0  0  0  0  0  0  0  0
   12.6595  -18.1465   18.9772 O   0  0  0  0  0  0  0  0  0  0  0  0
    9.1658  -16.3201   21.8393 C   0  0  0  0  0  0  0  0  0  0  0  0
   10.3285  -16.2141   22.3022 O   0  0  0  0  0  0  0  0  0  0  0  0
   11.6583  -17.1664   17.2102 O   0  0  0  0  0  0  0  0  0  0  0  0
    7.2899  -10.9660   27.2161 C   0  0  0  0  0  0  0  0  0  0  0  0
    6.5382  -12.0924   26.0084 S   0  0  0  0  0  0  0  0  0  0  0  0
    7.6733  -13.4457   25.6123 C   0  0  0  0  0  0  0  0  0  0  0  0
    7.4022  -14.0221   24.2435 C   0  0  0  0  0  0  0  0  0  0  0  0
    8.3910  -15.0736   23.8595 C   0  0  2  0  0  0  0  0  0  0  0  0
    8.1375  -15.6468   22.5603 N   0  0  0  0  0  0  0  0  0  0  0  0
    8.5051  -16.1472   24.8908 C   0  0  0  0  0  0  0  0  0  0  0  0
    7.5524  -16.9553   24.9507 O   0  0  0  0  0  0  0  0  0  0  0  0
   12.9572  -19.5877   26.6287 N   0  0  0  0  0  0  0  0  0  0  0  0
   11.5774  -19.4258   26.3881 C   0  0  0  0  0  0  0  0  0  0  0  0
   10.7716  -20.2860   26.7935 O   0  0  0  0  0  0  0  0  0  0  0  0
   11.0897  -18.2384   25.6567 C   0  0  0  0  0  0  0  0  0  0  0  0
   10.0600  -17.4395   26.4621 C   0  0  2  0  0  0  0  0  0  0  0  0
    9.5984  -16.2640   25.7490 N   0  0  0  0  0  0  0  0  0  0  0  0
   10.7042  -17.0784   27.7182 C   0  0  0  0  0  0  0  0  0  0  0  0
   11.3050  -15.9587   27.8046 O   0  0  0  0  0  0  0  0  0  0  0  0
   10.7223  -17.8631   28.8545 O   0  0  0  0  0  0  0  0  0  0  0  0
  2  1  1  6
  2  7  1  0
  3  2  1  0
  3  4  1  0
  4  5  1  0
  5  9  1  0
  6  5  2  0
  7  8  2  0
 10 11  1  0
 11 12  1  0
 12 13  1  0
 14 13  1  1
 14 16  1  0
 15  7  1  0
 15 14  1  0
 16 17  2  0
 18 19  1  0
 19 20  2  0
 21 19  1  0
 22 21  1  6
 22 24  1  0
 23 22  1  0
 23 16  1  0
 24 25  2  0
 24 26  1  0
M  END
$$$$
