EMN.pdb
     RDKit          3D

 26 25  0  0  1  0  0  0  0  0999 V2000
    8.2537  -17.9047   21.6870 N   0  0  0  0  0  0  0  0  0  0  0  0
    9.5989  -17.3932   21.8029 C   0  0  1  0  0  0  0  0  0  0  0  0
   10.1454  -17.3132   20.4073 C   0  0  0  0  0  0  0  0  0  0  0  0
    9.2129  -16.7594   19.3874 C   0  0  0  0  0  0  0  0  0  0  0  0
    9.7391  -16.6955   18.0194 C   0  0  0  0  0  0  0  0  0  0  0  0
   10.8998  -17.0026   17.6606 O   0  0  0  0  0  0  0  0  0  0  0  0
    9.6946  -16.1665   22.5846 C   0  0  0  0  0  0  0  0  0  0  0  0
   10.8019  -15.5789   22.6632 O   0  0  0  0  0  0  0  0  0  0  0  0
    8.8707  -16.2523   17.0239 O   0  0  0  0  0  0  0  0  0  0  0  0
    5.2575  -12.2450   25.8160 C   0  0  0  0  0  0  0  0  0  0  0  0
    6.9138  -11.6470   26.2534 S   0  0  0  0  0  0  0  0  0  0  0  0
    8.1482  -12.9419   25.9776 C   0  0  0  0  0  0  0  0  0  0  0  0
    7.7955  -13.8092   24.7931 C   0  0  0  0  0  0  0  0  0  0  0  0
    8.8250  -14.8576   24.5251 C   0  0  2  0  0  0  0  0  0  0  0  0
    8.6106  -15.5628   23.2852 N   0  0  0  0  0  0  0  0  0  0  0  0
    8.9599  -15.8213   25.6576 C   0  0  0  0  0  0  0  0  0  0  0  0
    8.1778  -16.7972   25.6448 O   0  0  0  0  0  0  0  0  0  0  0  0
   13.0600  -18.2981   29.1478 N   0  0  0  0  0  0  0  0  0  0  0  0
   11.8352  -18.3869   28.4549 C   0  0  0  0  0  0  0  0  0  0  0  0
   11.0321  -19.3000   28.7285 O   0  0  0  0  0  0  0  0  0  0  0  0
   11.5064  -17.3988   27.4069 C   0  0  0  0  0  0  0  0  0  0  0  0
   10.2394  -16.6019   27.7336 C   0  0  2  0  0  0  0  0  0  0  0  0
    9.8941  -15.6654   26.6814 N   0  0  0  0  0  0  0  0  0  0  0  0
   10.4941  -15.9140   28.9927 C   0  0  0  0  0  0  0  0  0  0  0  0
   10.7247  -16.6042   30.0379 O   0  0  0  0  0  0  0  0  0  0  0  0
   10.5081  -14.5430   29.1586 O   0  0  0  0  0  0  0  0  0  0  0  0
  2  1  1  6
  2  7  1  0
  3  2  1  0
  3  4  1  0
  4  5  1  0
  5  9  1  0
  6  5  2  0
  7  8  2  0
 10 11  1  0
 11 12  1  0
 12 13  1  0
 14 13  1  1
 14 16  1  0
 15  7  1  0
 15 14  1  0
 16 17  2  0
 18 19  1  0
 19 20  2  0
 21 19  1  0
 22 21  1  6
 22 24  1  0
 23 22  1  0
 23 16  1  0
 24 25  2  0
 24 26  1  0
M  END
$$$$
