EMN.pdb
     RDKit          3D

 26 25  0  0  1  0  0  0  0  0999 V2000
    7.6791  -17.7690   20.9626 N   0  0  0  0  0  0  0  0  0  0  0  0
    9.0005  -17.2858   21.2864 C   0  0  1  0  0  0  0  0  0  0  0  0
    9.5944  -16.7791   20.0045 C   0  0  0  0  0  0  0  0  0  0  0  0
    8.6424  -16.0960   19.0862 C   0  0  0  0  0  0  0  0  0  0  0  0
    8.8270  -16.3814   17.6590 C   0  0  0  0  0  0  0  0  0  0  0  0
    9.7249  -17.0994   17.1606 O   0  0  0  0  0  0  0  0  0  0  0  0
    9.0248  -16.3477   22.4020 C   0  0  0  0  0  0  0  0  0  0  0  0
   10.1328  -15.9476   22.8376 O   0  0  0  0  0  0  0  0  0  0  0  0
    7.9218  -15.8019   16.7721 O   0  0  0  0  0  0  0  0  0  0  0  0
    6.4759  -11.0813   27.5802 C   0  0  0  0  0  0  0  0  0  0  0  0
    6.1962  -11.8883   25.9792 S   0  0  0  0  0  0  0  0  0  0  0  0
    7.0472  -13.4848   25.9172 C   0  0  0  0  0  0  0  0  0  0  0  0
    6.9523  -14.1177   24.5498 C   0  0  0  0  0  0  0  0  0  0  0  0
    7.9638  -15.1980   24.3481 C   0  0  2  0  0  0  0  0  0  0  0  0
    7.8683  -15.8339   23.0569 N   0  0  0  0  0  0  0  0  0  0  0  0
    7.9267  -16.2188   25.4371 C   0  0  0  0  0  0  0  0  0  0  0  0
    6.8182  -16.3933   25.9894 O   0  0  0  0  0  0  0  0  0  0  0  0
    7.8862  -20.6744   28.1611 N   0  0  0  0  0  0  0  0  0  0  0  0
    7.8685  -20.0637   26.8904 C   0  0  0  0  0  0  0  0  0  0  0  0
    6.8393  -20.1191   26.1894 O   0  0  0  0  0  0  0  0  0  0  0  0
    9.0684  -19.3601   26.3925 C   0  0  0  0  0  0  0  0  0  0  0  0
    9.1547  -17.9192   26.9058 C   0  0  2  0  0  0  0  0  0  0  0  0
    9.0474  -16.9479   25.8342 N   0  0  0  0  0  0  0  0  0  0  0  0
   10.4294  -17.8016   27.6020 C   0  0  0  0  0  0  0  0  0  0  0  0
   11.3290  -17.0405   27.1189 O   0  0  0  0  0  0  0  0  0  0  0  0
   10.7584  -18.4598   28.7707 O   0  0  0  0  0  0  0  0  0  0  0  0
  2  1  1  6
  2  7  1  0
  3  2  1  0
  3  4  1  0
  4  5  1  0
  5  9  1  0
  6  5  2  0
  7  8  2  0
 10 11  1  0
 11 12  1  0
 12 13  1  0
 14 13  1  1
 14 16  1  0
 15  7  1  0
 15 14  1  0
 16 17  2  0
 18 19  1  0
 19 20  2  0
 21 19  1  0
 22 21  1  6
 22 24  1  0
 23 22  1  0
 23 16  1  0
 24 25  2  0
 24 26  1  0
M  END
$$$$
