EMN.pdb
     RDKit          3D

 26 25  0  0  1  0  0  0  0  0999 V2000
    9.2496  -15.9518   19.2938 N   0  0  0  0  0  0  0  0  0  0  0  0
    8.1470  -16.0907   20.2155 C   0  0  1  0  0  0  0  0  0  0  0  0
    7.6667  -17.5075   20.0940 C   0  0  0  0  0  0  0  0  0  0  0  0
    8.7062  -18.5536   20.2977 C   0  0  0  0  0  0  0  0  0  0  0  0
    8.6941  -19.6532   19.3266 C   0  0  0  0  0  0  0  0  0  0  0  0
    7.6875  -20.3047   18.9627 O   0  0  0  0  0  0  0  0  0  0  0  0
    8.4552  -15.6477   21.5697 C   0  0  0  0  0  0  0  0  0  0  0  0
    9.6229  -15.7954   22.0082 O   0  0  0  0  0  0  0  0  0  0  0  0
    9.9134  -20.0092   18.7536 O   0  0  0  0  0  0  0  0  0  0  0  0
    7.7395  -11.7616   27.9997 C   0  0  0  0  0  0  0  0  0  0  0  0
    7.2022  -12.1442   26.3092 S   0  0  0  0  0  0  0  0  0  0  0  0
    7.1151  -13.9354   26.0624 C   0  0  0  0  0  0  0  0  0  0  0  0
    6.7160  -14.2876   24.6495 C   0  0  0  0  0  0  0  0  0  0  0  0
    7.8708  -14.7641   23.8309 C   0  0  2  0  0  0  0  0  0  0  0  0
    7.5196  -15.0464   22.4605 N   0  0  0  0  0  0  0  0  0  0  0  0
    8.5554  -15.9390   24.4473 C   0  0  0  0  0  0  0  0  0  0  0  0
    8.0074  -17.0494   24.2707 O   0  0  0  0  0  0  0  0  0  0  0  0
   13.0618  -18.8930   25.3174 N   0  0  0  0  0  0  0  0  0  0  0  0
   12.9295  -17.6802   26.0242 C   0  0  0  0  0  0  0  0  0  0  0  0
   13.5401  -17.5183   27.0988 O   0  0  0  0  0  0  0  0  0  0  0  0
   12.0684  -16.6048   25.4909 C   0  0  0  0  0  0  0  0  0  0  0  0
   10.5780  -16.8974   25.6912 C   0  0  2  0  0  0  0  0  0  0  0  0
    9.7365  -15.8319   25.1814 N   0  0  0  0  0  0  0  0  0  0  0  0
   10.3808  -17.0898   27.1221 C   0  0  0  0  0  0  0  0  0  0  0  0
   10.1359  -16.0763   27.8535 O   0  0  0  0  0  0  0  0  0  0  0  0
   10.4375  -18.3059   27.7740 O   0  0  0  0  0  0  0  0  0  0  0  0
  2  1  1  6
  2  7  1  0
  3  2  1  0
  3  4  1  0
  4  5  1  0
  5  9  1  0
  6  5  2  0
  7  8  2  0
 10 11  1  0
 11 12  1  0
 12 13  1  0
 14 13  1  1
 14 16  1  0
 15  7  1  0
 15 14  1  0
 16 17  2  0
 18 19  1  0
 19 20  2  0
 21 19  1  0
 22 21  1  1
 22 24  1  0
 23 22  1  0
 23 16  1  0
 24 25  2  0
 24 26  1  0
M  END
$$$$
