EMN.pdb
     RDKit          3D

 26 25  0  0  1  0  0  0  0  0999 V2000
    8.9237  -18.6005   22.0818 N   0  0  0  0  0  0  0  0  0  0  0  0
   10.0951  -18.0085   22.6832 C   0  0  1  0  0  0  0  0  0  0  0  0
   11.0444  -17.7081   21.5601 C   0  0  0  0  0  0  0  0  0  0  0  0
   10.4408  -17.0359   20.3768 C   0  0  0  0  0  0  0  0  0  0  0  0
   11.3753  -16.6996   19.2969 C   0  0  0  0  0  0  0  0  0  0  0  0
   11.7399  -15.5462   18.9697 O   0  0  0  0  0  0  0  0  0  0  0  0
    9.7977  -16.8891   23.5685 C   0  0  0  0  0  0  0  0  0  0  0  0
   10.7454  -16.2982   24.1430 O   0  0  0  0  0  0  0  0  0  0  0  0
   11.9090  -17.7582   18.5648 O   0  0  0  0  0  0  0  0  0  0  0  0
    7.0263  -11.0380   24.8716 C   0  0  0  0  0  0  0  0  0  0  0  0
    7.8037  -12.3857   25.8053 S   0  0  0  0  0  0  0  0  0  0  0  0
    6.6802  -13.7994   25.9313 C   0  0  0  0  0  0  0  0  0  0  0  0
    6.9082  -14.7971   24.8213 C   0  0  0  0  0  0  0  0  0  0  0  0
    8.2636  -15.4214   24.8829 C   0  0  2  0  0  0  0  0  0  0  0  0
    8.4893  -16.3969   23.8444 N   0  0  0  0  0  0  0  0  0  0  0  0
    8.5559  -16.0092   26.2239 C   0  0  0  0  0  0  0  0  0  0  0  0
    8.5416  -15.2127   27.1881 O   0  0  0  0  0  0  0  0  0  0  0  0
    6.4763  -20.1551   26.1133 N   0  0  0  0  0  0  0  0  0  0  0  0
    7.7449  -20.0148   26.7125 C   0  0  0  0  0  0  0  0  0  0  0  0
    8.7216  -20.6364   26.2506 O   0  0  0  0  0  0  0  0  0  0  0  0
    7.9141  -19.1326   27.8854 C   0  0  0  0  0  0  0  0  0  0  0  0
    9.0019  -18.0759   27.6684 C   0  0  2  0  0  0  0  0  0  0  0  0
    8.8318  -17.3627   26.4171 N   0  0  0  0  0  0  0  0  0  0  0  0
   10.2779  -18.7785   27.7086 C   0  0  0  0  0  0  0  0  0  0  0  0
   10.6253  -19.3667   28.7835 O   0  0  0  0  0  0  0  0  0  0  0  0
   11.1685  -18.8659   26.6568 O   0  0  0  0  0  0  0  0  0  0  0  0
  2  1  1  6
  2  7  1  0
  3  2  1  0
  3  4  1  0
  4  5  1  0
  5  9  1  0
  6  5  2  0
  7  8  2  0
 10 11  1  0
 11 12  1  0
 12 13  1  0
 14 13  1  1
 14 16  1  0
 15  7  1  0
 15 14  1  0
 16 17  2  0
 18 19  1  0
 19 20  2  0
 21 19  1  0
 22 21  1  6
 22 24  1  0
 23 22  1  0
 23 16  1  0
 24 25  2  0
 24 26  1  0
M  END
$$$$
