EMN.pdb
     RDKit          3D

 26 25  0  0  1  0  0  0  0  0999 V2000
    9.2480  -15.8775   19.1156 N   0  0  0  0  0  0  0  0  0  0  0  0
    8.1774  -15.6562   20.0586 C   0  0  1  0  0  0  0  0  0  0  0  0
    7.2152  -16.7951   19.8848 C   0  0  0  0  0  0  0  0  0  0  0  0
    7.7731  -18.1487   20.1544 C   0  0  0  0  0  0  0  0  0  0  0  0
    6.8108  -19.2538   20.0832 C   0  0  0  0  0  0  0  0  0  0  0  0
    6.3467  -19.8915   21.0570 O   0  0  0  0  0  0  0  0  0  0  0  0
    8.6359  -15.4260   21.4231 C   0  0  0  0  0  0  0  0  0  0  0  0
    9.7876  -15.8050   21.7510 O   0  0  0  0  0  0  0  0  0  0  0  0
    6.3696  -19.6326   18.8169 O   0  0  0  0  0  0  0  0  0  0  0  0
    5.6482  -12.0521   26.6400 C   0  0  0  0  0  0  0  0  0  0  0  0
    7.4559  -11.9151   26.7187 S   0  0  0  0  0  0  0  0  0  0  0  0
    8.2347  -13.3419   25.9223 C   0  0  0  0  0  0  0  0  0  0  0  0
    7.5731  -13.6804   24.6081 C   0  0  0  0  0  0  0  0  0  0  0  0
    8.4088  -14.5853   23.7634 C   0  0  2  0  0  0  0  0  0  0  0  0
    7.8680  -14.7918   22.4421 N   0  0  0  0  0  0  0  0  0  0  0  0
    8.6757  -15.8949   24.4290 C   0  0  0  0  0  0  0  0  0  0  0  0
    7.7489  -16.7335   24.3834 O   0  0  0  0  0  0  0  0  0  0  0  0
   12.1233  -19.1612   23.4061 N   0  0  0  0  0  0  0  0  0  0  0  0
   11.9760  -17.9036   24.0264 C   0  0  0  0  0  0  0  0  0  0  0  0
   12.0830  -16.8618   23.3504 O   0  0  0  0  0  0  0  0  0  0  0  0
   11.6957  -17.8229   25.4747 C   0  0  0  0  0  0  0  0  0  0  0  0
   10.2504  -17.4072   25.7668 C   0  0  2  0  0  0  0  0  0  0  0  0
    9.8783  -16.1906   25.0705 N   0  0  0  0  0  0  0  0  0  0  0  0
   10.1488  -17.2433   27.2112 C   0  0  0  0  0  0  0  0  0  0  0  0
   10.4035  -18.2379   27.9649 O   0  0  0  0  0  0  0  0  0  0  0  0
    9.7913  -16.0742   27.8535 O   0  0  0  0  0  0  0  0  0  0  0  0
  2  1  1  6
  2  7  1  0
  3  2  1  0
  3  4  1  0
  4  5  1  0
  5  9  1  0
  6  5  2  0
  7  8  2  0
 10 11  1  0
 11 12  1  0
 12 13  1  0
 14 13  1  1
 14 16  1  0
 15  7  1  0
 15 14  1  0
 16 17  2  0
 18 19  1  0
 19 20  2  0
 21 19  1  0
 22 21  1  1
 22 24  1  0
 23 22  1  0
 23 16  1  0
 24 25  2  0
 24 26  1  0
M  END
$$$$
