EMN.pdb
     RDKit          3D

 26 25  0  0  1  0  0  0  0  0999 V2000
    7.2809  -17.7248   20.2883 N   0  0  0  0  0  0  0  0  0  0  0  0
    8.6844  -17.4925   20.5344 C   0  0  1  0  0  0  0  0  0  0  0  0
    9.2982  -17.1511   19.2080 C   0  0  0  0  0  0  0  0  0  0  0  0
    8.3351  -16.7747   18.1370 C   0  0  0  0  0  0  0  0  0  0  0  0
    8.9342  -16.4170   16.8464 C   0  0  0  0  0  0  0  0  0  0  0  0
    8.3155  -16.0258   15.8293 O   0  0  0  0  0  0  0  0  0  0  0  0
    8.9420  -16.5402   21.6077 C   0  0  0  0  0  0  0  0  0  0  0  0
   10.1233  -16.1748   21.8276 O   0  0  0  0  0  0  0  0  0  0  0  0
   10.3194  -16.5210   16.7374 O   0  0  0  0  0  0  0  0  0  0  0  0
    6.9345  -11.4967   27.3744 C   0  0  0  0  0  0  0  0  0  0  0  0
    6.3846  -12.4057   25.9033 S   0  0  0  0  0  0  0  0  0  0  0  0
    7.6378  -13.6101   25.3978 C   0  0  0  0  0  0  0  0  0  0  0  0
    7.2660  -14.2970   24.1057 C   0  0  0  0  0  0  0  0  0  0  0  0
    8.2934  -15.2893   23.6692 C   0  0  2  0  0  0  0  0  0  0  0  0
    7.9412  -15.9751   22.4500 N   0  0  0  0  0  0  0  0  0  0  0  0
    8.6247  -16.2714   24.7439 C   0  0  0  0  0  0  0  0  0  0  0  0
    7.7022  -17.0435   25.0862 O   0  0  0  0  0  0  0  0  0  0  0  0
   12.9565  -17.2395   23.9610 N   0  0  0  0  0  0  0  0  0  0  0  0
   12.2757  -18.0683   24.8761 C   0  0  0  0  0  0  0  0  0  0  0  0
   12.0124  -19.2473   24.5686 O   0  0  0  0  0  0  0  0  0  0  0  0
   11.8758  -17.5388   26.1960 C   0  0  0  0  0  0  0  0  0  0  0  0
   10.3631  -17.3213   26.3034 C   0  0  2  0  0  0  0  0  0  0  0  0
    9.8803  -16.3441   25.3467 N   0  0  0  0  0  0  0  0  0  0  0  0
   10.1002  -16.8973   27.6725 C   0  0  0  0  0  0  0  0  0  0  0  0
    9.6798  -15.7136   27.8825 O   0  0  0  0  0  0  0  0  0  0  0  0
   10.2710  -17.6857   28.7934 O   0  0  0  0  0  0  0  0  0  0  0  0
  2  1  1  6
  2  7  1  0
  3  2  1  0
  3  4  1  0
  4  5  1  0
  5  9  1  0
  6  5  2  0
  7  8  2  0
 10 11  1  0
 11 12  1  0
 12 13  1  0
 14 13  1  1
 14 16  1  0
 15  7  1  0
 15 14  1  0
 16 17  2  0
 18 19  1  0
 19 20  2  0
 21 19  1  0
 22 21  1  1
 22 24  1  0
 23 22  1  0
 23 16  1  0
 24 25  2  0
 24 26  1  0
M  END
$$$$
