EMN.pdb
     RDKit          3D

 26 25  0  0  1  0  0  0  0  0999 V2000
    9.4675  -15.8724   19.5471 N   0  0  0  0  0  0  0  0  0  0  0  0
    8.3975  -16.0541   20.4991 C   0  0  1  0  0  0  0  0  0  0  0  0
    8.0126  -17.5034   20.4354 C   0  0  0  0  0  0  0  0  0  0  0  0
    8.6556  -18.2872   19.3451 C   0  0  0  0  0  0  0  0  0  0  0  0
    8.1761  -19.6651   19.1909 C   0  0  0  0  0  0  0  0  0  0  0  0
    8.6058  -20.5078   18.3690 O   0  0  0  0  0  0  0  0  0  0  0  0
    8.7041  -15.5452   21.8303 C   0  0  0  0  0  0  0  0  0  0  0  0
    9.8958  -15.2728   22.1190 O   0  0  0  0  0  0  0  0  0  0  0  0
    7.1473  -20.0789   20.0347 O   0  0  0  0  0  0  0  0  0  0  0  0
    6.5692  -10.3363   26.4788 C   0  0  0  0  0  0  0  0  0  0  0  0
    6.0441  -12.0718   26.5484 S   0  0  0  0  0  0  0  0  0  0  0  0
    7.3608  -13.1568   25.9434 C   0  0  0  0  0  0  0  0  0  0  0  0
    6.9963  -13.8000   24.6270 C   0  0  0  0  0  0  0  0  0  0  0  0
    8.0979  -14.6476   24.0802 C   0  0  2  0  0  0  0  0  0  0  0  0
    7.7417  -15.3259   22.8579 N   0  0  0  0  0  0  0  0  0  0  0  0
    8.6154  -15.6218   25.0864 C   0  0  0  0  0  0  0  0  0  0  0  0
    8.8180  -15.1702   26.2350 O   0  0  0  0  0  0  0  0  0  0  0  0
   12.8412  -19.1813   24.3036 N   0  0  0  0  0  0  0  0  0  0  0  0
   12.5314  -17.8851   24.7640 C   0  0  0  0  0  0  0  0  0  0  0  0
   13.3109  -17.2994   25.5405 O   0  0  0  0  0  0  0  0  0  0  0  0
   11.2848  -17.2242   24.3259 C   0  0  0  0  0  0  0  0  0  0  0  0
   10.0551  -17.7393   25.0806 C   0  0  2  0  0  0  0  0  0  0  0  0
    8.8667  -16.9610   24.7887 N   0  0  0  0  0  0  0  0  0  0  0  0
   10.3865  -17.6890   26.4987 C   0  0  0  0  0  0  0  0  0  0  0  0
   10.3085  -16.5755   27.1120 O   0  0  0  0  0  0  0  0  0  0  0  0
   10.7886  -18.7702   27.2580 O   0  0  0  0  0  0  0  0  0  0  0  0
  2  1  1  6
  2  7  1  0
  3  2  1  0
  3  4  1  0
  4  5  1  0
  5  9  1  0
  6  5  2  0
  7  8  2  0
 10 11  1  0
 11 12  1  0
 12 13  1  0
 14 13  1  1
 14 16  1  0
 15  7  1  0
 15 14  1  0
 16 17  2  0
 18 19  1  0
 19 20  2  0
 21 19  1  0
 22 21  1  6
 22 24  1  0
 23 22  1  0
 23 16  1  0
 24 25  2  0
 24 26  1  0
M  END
$$$$
