QDM.pdb
     RDKit          3D

 26 25  0  0  1  0  0  0  0  0999 V2000
   18.9384  -16.8724  -14.5954 N   0  0  0  0  0  0  0  0  0  0  0  0
   19.7311  -16.5753  -15.7245 C   0  0  0  0  0  0  0  0  0  0  0  0
   19.2466  -16.5961  -16.8657 O   0  0  0  0  0  0  0  0  0  0  0  0
   21.1960  -16.2240  -15.5639 C   0  0  0  0  0  0  0  0  0  0  0  0
   21.3714  -14.7383  -15.6041 C   0  0  0  0  0  0  0  0  0  0  0  0
   21.0382  -13.9847  -16.7903 C   0  0  2  0  0  0  0  0  0  0  0  0
   22.1902  -14.2086  -17.7626 N   0  0  0  0  0  0  0  0  0  0  0  0
   20.8321  -12.5455  -16.8242 C   0  0  0  0  0  0  0  0  0  0  0  0
   21.9320  -11.8661  -16.6423 O   0  0  0  0  0  0  0  0  0  0  0  0
   19.6946  -11.7671  -17.0058 N   0  0  0  0  0  0  0  0  0  0  0  0
   19.4724  -10.3568  -16.8705 C   0  0  1  0  0  0  0  0  0  0  0  0
   18.4717   -9.6974  -17.7449 C   0  0  0  0  0  0  0  0  0  0  0  0
   18.3905   -8.2260  -17.6594 C   0  0  0  0  0  0  0  0  0  0  0  0
   17.7622   -7.5693  -16.8143 O   0  0  0  0  0  0  0  0  0  0  0  0
   19.5871   -9.8551  -15.5036 C   0  0  0  0  0  0  0  0  0  0  0  0
   18.8324  -10.3131  -14.5883 O   0  0  0  0  0  0  0  0  0  0  0  0
   19.0958   -7.5102  -18.6325 O   0  0  0  0  0  0  0  0  0  0  0  0
   23.4418  -11.0768  -11.5557 C   0  0  0  0  0  0  0  0  0  0  0  0
   23.2569   -9.4713  -10.7743 S   0  0  0  0  0  0  0  0  0  0  0  0
   21.8720   -8.5828  -11.6031 C   0  0  0  0  0  0  0  0  0  0  0  0
   21.7696   -9.0331  -13.0312 C   0  0  0  0  0  0  0  0  0  0  0  0
   20.6387   -8.3650  -13.7306 C   0  0  2  0  0  0  0  0  0  0  0  0
   20.5125   -8.8587  -15.1071 N   0  0  0  0  0  0  0  0  0  0  0  0
   20.6562   -6.9245  -13.6656 C   0  0  0  0  0  0  0  0  0  0  0  0
   20.3498   -6.2139  -12.5410 O   0  0  0  0  0  0  0  0  0  0  0  0
   20.9725   -6.2644  -14.7131 O   0  0  0  0  0  0  0  0  0  0  0  0
  2  1  1  0
  2  3  2  0
  4  5  1  0
  4  2  1  0
  6  7  1  6
  6  5  1  0
  8  6  1  0
  8 10  1  0
  9  8  2  0
 11 10  1  0
 11 12  1  1
 13 14  2  0
 13 12  1  0
 15 11  1  0
 16 15  2  0
 17 13  1  0
 18 19  1  0
 20 21  1  0
 20 19  1  0
 22 21  1  6
 22 24  1  0
 22 23  1  0
 23 15  1  0
 24 25  1  0
 26 24  2  0
M  END
$$$$
