QDM.pdb
     RDKit          3D

 26 25  0  0  1  0  0  0  0  0999 V2000
   15.7301  -13.3658  -16.6795 N   0  0  0  0  0  0  0  0  0  0  0  0
   16.2860  -14.6311  -16.9651 C   0  0  0  0  0  0  0  0  0  0  0  0
   15.5657  -15.6359  -17.0611 O   0  0  0  0  0  0  0  0  0  0  0  0
   17.7801  -14.7875  -17.1607 C   0  0  0  0  0  0  0  0  0  0  0  0
   18.4588  -13.4656  -16.9819 C   0  0  0  0  0  0  0  0  0  0  0  0
   18.3123  -12.4185  -17.9657 C   0  0  2  0  0  0  0  0  0  0  0  0
   18.9938  -12.9348  -19.2274 N   0  0  0  0  0  0  0  0  0  0  0  0
   18.8331  -11.0685  -17.8194 C   0  0  0  0  0  0  0  0  0  0  0  0
   20.1364  -11.0263  -17.7561 O   0  0  0  0  0  0  0  0  0  0  0  0
   18.2090   -9.8294  -17.7293 N   0  0  0  0  0  0  0  0  0  0  0  0
   18.7335   -8.5096  -17.5307 C   0  0  1  0  0  0  0  0  0  0  0  0
   17.8201   -7.3461  -17.6441 C   0  0  0  0  0  0  0  0  0  0  0  0
   16.9021   -7.3399  -18.8000 C   0  0  0  0  0  0  0  0  0  0  0  0
   17.1436   -7.7758  -19.9366 O   0  0  0  0  0  0  0  0  0  0  0  0
   19.7901   -8.4238  -16.5259 C   0  0  0  0  0  0  0  0  0  0  0  0
   19.5352   -8.6761  -15.3059 O   0  0  0  0  0  0  0  0  0  0  0  0
   15.6367   -6.7853  -18.5817 O   0  0  0  0  0  0  0  0  0  0  0  0
   27.1143   -9.8031  -14.4567 C   0  0  0  0  0  0  0  0  0  0  0  0
   25.7660   -9.9995  -15.6254 S   0  0  0  0  0  0  0  0  0  0  0  0
   24.4208   -8.8316  -15.1554 C   0  0  0  0  0  0  0  0  0  0  0  0
   23.2839   -8.9577  -16.1272 C   0  0  0  0  0  0  0  0  0  0  0  0
   22.1940   -7.9941  -15.8145 C   0  0  2  0  0  0  0  0  0  0  0  0
   21.1287   -8.0673  -16.8215 N   0  0  0  0  0  0  0  0  0  0  0  0
   22.6344   -6.6407  -15.5815 C   0  0  0  0  0  0  0  0  0  0  0  0
   22.8163   -5.7225  -16.5752 O   0  0  0  0  0  0  0  0  0  0  0  0
   22.8730   -6.2683  -14.3827 O   0  0  0  0  0  0  0  0  0  0  0  0
  2  1  1  0
  2  3  2  0
  4  5  1  0
  4  2  1  0
  6  7  1  6
  6  5  1  0
  8  6  1  0
  8 10  1  0
  9  8  2  0
 11 10  1  0
 11 12  1  1
 13 14  2  0
 13 12  1  0
 15 11  1  0
 16 15  2  0
 17 13  1  0
 18 19  1  0
 20 21  1  0
 20 19  1  0
 22 21  1  6
 22 24  1  0
 22 23  1  0
 23 15  1  0
 24 25  1  0
 26 24  2  0
M  END
$$$$
