QDM.pdb
     RDKit          3D

 26 25  0  0  1  0  0  0  0  0999 V2000
   12.9841   -8.7296   -9.6852 N   0  0  0  0  0  0  0  0  0  0  0  0
   12.9331  -10.0561  -10.1640 C   0  0  0  0  0  0  0  0  0  0  0  0
   12.1079  -10.8643   -9.7129 O   0  0  0  0  0  0  0  0  0  0  0  0
   13.8896  -10.5209  -11.2429 C   0  0  0  0  0  0  0  0  0  0  0  0
   14.7129   -9.3681  -11.7255 C   0  0  0  0  0  0  0  0  0  0  0  0
   16.1529   -9.4602  -11.7866 C   0  0  2  0  0  0  0  0  0  0  0  0
   16.6223   -9.6029  -10.3438 N   0  0  0  0  0  0  0  0  0  0  0  0
   17.0242   -8.4321  -12.3334 C   0  0  0  0  0  0  0  0  0  0  0  0
   17.3124   -7.4939  -11.4725 O   0  0  0  0  0  0  0  0  0  0  0  0
   17.5959   -8.2607  -13.5891 N   0  0  0  0  0  0  0  0  0  0  0  0
   18.3911   -7.2012  -14.1384 C   0  0  1  0  0  0  0  0  0  0  0  0
   19.6867   -7.5310  -14.7814 C   0  0  0  0  0  0  0  0  0  0  0  0
   20.2857   -8.8324  -14.4260 C   0  0  0  0  0  0  0  0  0  0  0  0
   20.0085   -9.9338  -14.9264 O   0  0  0  0  0  0  0  0  0  0  0  0
   17.6200   -6.1102  -14.7288 C   0  0  0  0  0  0  0  0  0  0  0  0
   16.7362   -6.3548  -15.6097 O   0  0  0  0  0  0  0  0  0  0  0  0
   21.2619   -8.8110  -13.4245 O   0  0  0  0  0  0  0  0  0  0  0  0
   12.8294   -0.2963  -14.4074 C   0  0  0  0  0  0  0  0  0  0  0  0
   13.8208   -1.5416  -13.5775 S   0  0  0  0  0  0  0  0  0  0  0  0
   15.1646   -2.0665  -14.7233 C   0  0  0  0  0  0  0  0  0  0  0  0
   15.9125   -3.2219  -14.1245 C   0  0  0  0  0  0  0  0  0  0  0  0
   17.0404   -3.6481  -14.9966 C   0  0  2  0  0  0  0  0  0  0  0  0
   17.7901   -4.7483  -14.3787 N   0  0  0  0  0  0  0  0  0  0  0  0
   17.9016   -2.5776  -15.4348 C   0  0  0  0  0  0  0  0  0  0  0  0
   18.7101   -1.8655  -14.5965 O   0  0  0  0  0  0  0  0  0  0  0  0
   17.9163   -2.2669  -16.6742 O   0  0  0  0  0  0  0  0  0  0  0  0
  2  1  1  0
  2  3  2  0
  4  5  1  0
  4  2  1  0
  6  7  1  1
  6  5  1  0
  8  6  1  0
  8 10  1  0
  9  8  2  0
 11 10  1  0
 11 12  1  6
 13 14  2  0
 13 12  1  0
 15 11  1  0
 16 15  2  0
 17 13  1  0
 18 19  1  0
 20 21  1  0
 20 19  1  0
 22 21  1  1
 22 24  1  0
 22 23  1  0
 23 15  1  0
 24 25  1  0
 26 24  2  0
M  END
$$$$
