QDM.pdb
     RDKit          3D

 26 25  0  0  1  0  0  0  0  0999 V2000
   27.3091  -21.0829  -19.2067 N   0  0  0  0  0  0  0  0  0  0  0  0
   26.8020  -22.2065  -19.8938 C   0  0  0  0  0  0  0  0  0  0  0  0
   26.4613  -22.1248  -21.0833 O   0  0  0  0  0  0  0  0  0  0  0  0
   26.6631  -23.5401  -19.1886 C   0  0  0  0  0  0  0  0  0  0  0  0
   27.0598  -23.4010  -17.7523 C   0  0  0  0  0  0  0  0  0  0  0  0
   26.0784  -23.0905  -16.7393 C   0  0  2  0  0  0  0  0  0  0  0  0
   25.0078  -22.2608  -17.4378 N   0  0  0  0  0  0  0  0  0  0  0  0
   26.3548  -22.3440  -15.5221 C   0  0  0  0  0  0  0  0  0  0  0  0
   27.2280  -22.9305  -14.7488 O   0  0  0  0  0  0  0  0  0  0  0  0
   25.8638  -21.1396  -15.0312 N   0  0  0  0  0  0  0  0  0  0  0  0
   26.1351  -20.4220  -13.8196 C   0  0  1  0  0  0  0  0  0  0  0  0
   26.1934  -18.9400  -13.8569 C   0  0  0  0  0  0  0  0  0  0  0  0
   26.7812  -18.3346  -15.0680 C   0  0  0  0  0  0  0  0  0  0  0  0
   26.3437  -17.3534  -15.6894 O   0  0  0  0  0  0  0  0  0  0  0  0
   25.5711  -21.0303  -12.6175 C   0  0  0  0  0  0  0  0  0  0  0  0
   24.4125  -21.5536  -12.6482 O   0  0  0  0  0  0  0  0  0  0  0  0
   27.9473  -18.9339  -15.5554 O   0  0  0  0  0  0  0  0  0  0  0  0
   27.5899  -18.7507   -6.8577 C   0  0  0  0  0  0  0  0  0  0  0  0
   26.8304  -20.2805   -6.3054 S   0  0  0  0  0  0  0  0  0  0  0  0
   25.7232  -20.8911   -7.6454 C   0  0  0  0  0  0  0  0  0  0  0  0
   26.3840  -20.6830   -8.9768 C   0  0  0  0  0  0  0  0  0  0  0  0
   25.5640  -21.2469  -10.0831 C   0  0  2  0  0  0  0  0  0  0  0  0
   26.2453  -21.0829  -11.3728 N   0  0  0  0  0  0  0  0  0  0  0  0
   24.2003  -20.7794  -10.1215 C   0  0  0  0  0  0  0  0  0  0  0  0
   23.1842  -21.3503   -9.4107 O   0  0  0  0  0  0  0  0  0  0  0  0
   23.9134  -19.7768  -10.8600 O   0  0  0  0  0  0  0  0  0  0  0  0
  2  1  1  0
  2  3  2  0
  4  5  1  0
  4  2  1  0
  6  7  1  6
  6  5  1  0
  8  6  1  0
  8 10  1  0
  9  8  2  0
 11 10  1  0
 11 12  1  6
 13 14  2  0
 13 12  1  0
 15 11  1  0
 16 15  2  0
 17 13  1  0
 18 19  1  0
 20 21  1  0
 20 19  1  0
 22 21  1  1
 22 24  1  0
 22 23  1  0
 23 15  1  0
 24 25  1  0
 26 24  2  0
M  END
$$$$
