QDM.pdb
     RDKit          3D

 26 25  0  0  1  0  0  0  0  0999 V2000
   15.7805  -13.2428  -17.0171 N   0  0  0  0  0  0  0  0  0  0  0  0
   16.6411  -14.3453  -16.8289 C   0  0  0  0  0  0  0  0  0  0  0  0
   16.1888  -15.4949  -16.7217 O   0  0  0  0  0  0  0  0  0  0  0  0
   18.1409  -14.1451  -16.7533 C   0  0  0  0  0  0  0  0  0  0  0  0
   18.4744  -12.7026  -16.9720 C   0  0  0  0  0  0  0  0  0  0  0  0
   18.5922  -11.7922  -15.8572 C   0  0  2  0  0  0  0  0  0  0  0  0
   17.2013  -11.7080  -15.2400 N   0  0  0  0  0  0  0  0  0  0  0  0
   19.0069  -10.4024  -15.9655 C   0  0  0  0  0  0  0  0  0  0  0  0
   20.1175  -10.2500  -16.6346 O   0  0  0  0  0  0  0  0  0  0  0  0
   18.4511   -9.2202  -15.4897 N   0  0  0  0  0  0  0  0  0  0  0  0
   18.9008   -7.8601  -15.5569 C   0  0  1  0  0  0  0  0  0  0  0  0
   17.9290   -6.7664  -15.3117 C   0  0  0  0  0  0  0  0  0  0  0  0
   16.5984   -6.9163  -15.9330 C   0  0  0  0  0  0  0  0  0  0  0  0
   16.3638   -7.1285  -17.1330 O   0  0  0  0  0  0  0  0  0  0  0  0
   20.2651   -7.6502  -15.0796 C   0  0  0  0  0  0  0  0  0  0  0  0
   20.5745   -7.9361  -13.8798 O   0  0  0  0  0  0  0  0  0  0  0  0
   15.4993   -6.8068  -15.0747 O   0  0  0  0  0  0  0  0  0  0  0  0
   27.2617  -10.1048  -15.4593 C   0  0  0  0  0  0  0  0  0  0  0  0
   25.5117  -10.1350  -15.8579 S   0  0  0  0  0  0  0  0  0  0  0  0
   24.8062   -8.4750  -15.4829 C   0  0  0  0  0  0  0  0  0  0  0  0
   23.3355   -8.4749  -15.7826 C   0  0  0  0  0  0  0  0  0  0  0  0
   22.7239   -7.1490  -15.4958 C   0  0  2  0  0  0  0  0  0  0  0  0
   21.3088   -7.1326  -15.8853 N   0  0  0  0  0  0  0  0  0  0  0  0
   23.4505   -6.0222  -16.0269 C   0  0  0  0  0  0  0  0  0  0  0  0
   24.4475   -5.3786  -15.3521 O   0  0  0  0  0  0  0  0  0  0  0  0
   23.1528   -5.5912  -17.1924 O   0  0  0  0  0  0  0  0  0  0  0  0
  2  1  1  0
  2  3  2  0
  4  5  1  0
  4  2  1  0
  6  7  1  6
  6  5  1  0
  8  6  1  0
  8 10  1  0
  9  8  2  0
 11 10  1  0
 11 12  1  1
 13 14  2  0
 13 12  1  0
 15 11  1  0
 16 15  2  0
 17 13  1  0
 18 19  1  0
 20 21  1  0
 20 19  1  0
 22 21  1  6
 22 24  1  0
 22 23  1  0
 23 15  1  0
 24 25  1  0
 26 24  2  0
M  END
$$$$
