QDM.pdb
     RDKit          3D

 26 25  0  0  1  0  0  0  0  0999 V2000
   21.2924  -17.0637  -13.9813 N   0  0  0  0  0  0  0  0  0  0  0  0
   21.1355  -18.3658  -14.5022 C   0  0  0  0  0  0  0  0  0  0  0  0
   21.5027  -19.3584  -13.8560 O   0  0  0  0  0  0  0  0  0  0  0  0
   20.5129  -18.5776  -15.8669 C   0  0  0  0  0  0  0  0  0  0  0  0
   20.0517  -17.2681  -16.4257 C   0  0  0  0  0  0  0  0  0  0  0  0
   18.9207  -16.5756  -15.8538 C   0  0  2  0  0  0  0  0  0  0  0  0
   17.7078  -17.4531  -16.1391 N   0  0  0  0  0  0  0  0  0  0  0  0
   18.4835  -15.2444  -16.2435 C   0  0  0  0  0  0  0  0  0  0  0  0
   18.8651  -14.9118  -17.4469 O   0  0  0  0  0  0  0  0  0  0  0  0
   17.7488  -14.2688  -15.5791 N   0  0  0  0  0  0  0  0  0  0  0  0
   17.2934  -12.9726  -15.9903 C   0  0  1  0  0  0  0  0  0  0  0  0
   15.9759  -12.4861  -15.5124 C   0  0  0  0  0  0  0  0  0  0  0  0
   15.5663  -11.1425  -15.9658 C   0  0  0  0  0  0  0  0  0  0  0  0
   15.5268  -10.7396  -17.1389 O   0  0  0  0  0  0  0  0  0  0  0  0
   18.3525  -11.9770  -16.1329 C   0  0  0  0  0  0  0  0  0  0  0  0
   19.1213  -11.7156  -15.1543 O   0  0  0  0  0  0  0  0  0  0  0  0
   15.1866  -10.2414  -14.9655 O   0  0  0  0  0  0  0  0  0  0  0  0
   22.8058   -7.7338  -21.1056 C   0  0  0  0  0  0  0  0  0  0  0  0
   21.3530   -8.7706  -20.9142 S   0  0  0  0  0  0  0  0  0  0  0  0
   21.1138   -9.1019  -19.1177 C   0  0  0  0  0  0  0  0  0  0  0  0
   19.8944   -9.9551  -18.9223 C   0  0  0  0  0  0  0  0  0  0  0  0
   19.6923  -10.2914  -17.4869 C   0  0  2  0  0  0  0  0  0  0  0  0
   18.5961  -11.2541  -17.3265 N   0  0  0  0  0  0  0  0  0  0  0  0
   19.5514   -9.1515  -16.6148 C   0  0  0  0  0  0  0  0  0  0  0  0
   20.5089   -8.7558  -15.7259 O   0  0  0  0  0  0  0  0  0  0  0  0
   18.4738   -8.4666  -16.6655 O   0  0  0  0  0  0  0  0  0  0  0  0
  2  1  1  0
  2  3  2  0
  4  5  1  0
  4  2  1  0
  6  7  1  6
  6  5  1  0
  8  6  1  0
  8 10  1  0
  9  8  2  0
 11 10  1  0
 11 12  1  1
 13 14  2  0
 13 12  1  0
 15 11  1  0
 16 15  2  0
 17 13  1  0
 18 19  1  0
 20 21  1  0
 20 19  1  0
 22 21  1  6
 22 24  1  0
 22 23  1  0
 23 15  1  0
 24 25  1  0
 26 24  2  0
M  END
$$$$
