QDM.pdb
     RDKit          3D

 26 25  0  0  1  0  0  0  0  0999 V2000
   21.2156  -31.0163   -8.9974 N   0  0  0  0  0  0  0  0  0  0  0  0
   20.9808  -31.3397  -10.3508 C   0  0  0  0  0  0  0  0  0  0  0  0
   20.5136  -30.4996  -11.1342 O   0  0  0  0  0  0  0  0  0  0  0  0
   21.2959  -32.7254  -10.8756 C   0  0  0  0  0  0  0  0  0  0  0  0
   21.9317  -33.5463   -9.7978 C   0  0  0  0  0  0  0  0  0  0  0  0
   23.3540  -33.4790   -9.5567 C   0  0  2  0  0  0  0  0  0  0  0  0
   24.0021  -34.3139  -10.6547 N   0  0  0  0  0  0  0  0  0  0  0  0
   24.0089  -33.9375   -8.3418 C   0  0  0  0  0  0  0  0  0  0  0  0
   24.1520  -35.2343   -8.2953 O   0  0  0  0  0  0  0  0  0  0  0  0
   24.4997  -33.2610   -7.2308 N   0  0  0  0  0  0  0  0  0  0  0  0
   25.0627  -33.7324   -5.9990 C   0  0  1  0  0  0  0  0  0  0  0  0
   26.1230  -32.9325   -5.3381 C   0  0  0  0  0  0  0  0  0  0  0  0
   26.7957  -33.5579   -4.1826 C   0  0  0  0  0  0  0  0  0  0  0  0
   27.2649  -34.7058   -4.1342 O   0  0  0  0  0  0  0  0  0  0  0  0
   24.1161  -34.4226   -5.1267 C   0  0  0  0  0  0  0  0  0  0  0  0
   23.1235  -33.7967   -4.6368 O   0  0  0  0  0  0  0  0  0  0  0  0
   26.9106  -32.7696   -3.0328 O   0  0  0  0  0  0  0  0  0  0  0  0
   20.9697  -41.2789   -2.8544 C   0  0  0  0  0  0  0  0  0  0  0  0
   22.1458  -40.4337   -3.9149 S   0  0  0  0  0  0  0  0  0  0  0  0
   22.1813  -38.6555   -3.4343 C   0  0  0  0  0  0  0  0  0  0  0  0
   23.2585  -37.9485   -4.2040 C   0  0  0  0  0  0  0  0  0  0  0  0
   23.2643  -36.4893   -3.9130 C   0  0  2  0  0  0  0  0  0  0  0  0
   24.2261  -35.7899   -4.7733 N   0  0  0  0  0  0  0  0  0  0  0  0
   23.4305  -36.1529   -2.5205 C   0  0  0  0  0  0  0  0  0  0  0  0
   24.5534  -35.5658   -2.0127 O   0  0  0  0  0  0  0  0  0  0  0  0
   22.4819  -36.4159   -1.7058 O   0  0  0  0  0  0  0  0  0  0  0  0
  2  1  1  0
  2  3  2  0
  4  5  1  0
  4  2  1  0
  6  7  1  6
  6  5  1  0
  8  6  1  0
  8 10  1  0
  9  8  2  0
 11 10  1  0
 11 12  1  1
 13 14  2  0
 13 12  1  0
 15 11  1  0
 16 15  2  0
 17 13  1  0
 18 19  1  0
 20 21  1  0
 20 19  1  0
 22 21  1  1
 22 24  1  0
 22 23  1  0
 23 15  1  0
 24 25  1  0
 26 24  2  0
M  END
$$$$
