QDM.pdb
     RDKit          3D

 26 25  0  0  1  0  0  0  0  0999 V2000
   27.5745  -26.2761  -19.3690 N   0  0  0  0  0  0  0  0  0  0  0  0
   26.3972  -26.7546  -18.7554 C   0  0  0  0  0  0  0  0  0  0  0  0
   25.3411  -26.8564  -19.3972 O   0  0  0  0  0  0  0  0  0  0  0  0
   26.4003  -27.1547  -17.2943 C   0  0  0  0  0  0  0  0  0  0  0  0
   26.7991  -25.9873  -16.4469 C   0  0  0  0  0  0  0  0  0  0  0  0
   25.8788  -24.9020  -16.2003 C   0  0  2  0  0  0  0  0  0  0  0  0
   25.4281  -24.4186  -17.5736 N   0  0  0  0  0  0  0  0  0  0  0  0
   26.2173  -23.6753  -15.4961 C   0  0  0  0  0  0  0  0  0  0  0  0
   27.3633  -23.7414  -14.8741 O   0  0  0  0  0  0  0  0  0  0  0  0
   25.5532  -22.4618  -15.3582 N   0  0  0  0  0  0  0  0  0  0  0  0
   25.8137  -21.3208  -14.5294 C   0  0  1  0  0  0  0  0  0  0  0  0
   25.6251  -19.9617  -15.0934 C   0  0  0  0  0  0  0  0  0  0  0  0
   26.1157  -18.8354  -14.2752 C   0  0  0  0  0  0  0  0  0  0  0  0
   25.4530  -18.1671  -13.4663 O   0  0  0  0  0  0  0  0  0  0  0  0
   25.4697  -21.5049  -13.1218 C   0  0  0  0  0  0  0  0  0  0  0  0
   24.3137  -21.9218  -12.7947 O   0  0  0  0  0  0  0  0  0  0  0  0
   27.4633  -18.4960  -14.4349 O   0  0  0  0  0  0  0  0  0  0  0  0
   27.4536  -19.6584   -5.6721 C   0  0  0  0  0  0  0  0  0  0  0  0
   27.9263  -19.6254   -7.4035 S   0  0  0  0  0  0  0  0  0  0  0  0
   26.5804  -20.4138   -8.3838 C   0  0  0  0  0  0  0  0  0  0  0  0
   26.9953  -20.5062   -9.8233 C   0  0  0  0  0  0  0  0  0  0  0  0
   25.9527  -21.1770  -10.6462 C   0  0  2  0  0  0  0  0  0  0  0  0
   26.3629  -21.2440  -12.0538 N   0  0  0  0  0  0  0  0  0  0  0  0
   24.6232  -20.6409  -10.4888 C   0  0  0  0  0  0  0  0  0  0  0  0
   23.7837  -20.9864   -9.4692 O   0  0  0  0  0  0  0  0  0  0  0  0
   24.1942  -19.7959  -11.3460 O   0  0  0  0  0  0  0  0  0  0  0  0
  2  1  1  0
  2  3  2  0
  4  5  1  0
  4  2  1  0
  6  7  1  6
  6  5  1  0
  8  6  1  0
  8 10  1  0
  9  8  2  0
 11 10  1  0
 11 12  1  6
 13 14  2  0
 13 12  1  0
 15 11  1  0
 16 15  2  0
 17 13  1  0
 18 19  1  0
 20 21  1  0
 20 19  1  0
 22 21  1  1
 22 24  1  0
 22 23  1  0
 23 15  1  0
 24 25  1  0
 26 24  2  0
M  END
$$$$
