QDM.pdb
     RDKit          3D

 26 25  0  0  1  0  0  0  0  0999 V2000
   15.1410  -12.6574  -21.1309 N   0  0  0  0  0  0  0  0  0  0  0  0
   15.6877  -11.3567  -21.1581 C   0  0  0  0  0  0  0  0  0  0  0  0
   14.9636  -10.3655  -21.3336 O   0  0  0  0  0  0  0  0  0  0  0  0
   17.1763  -11.1448  -20.9732 C   0  0  0  0  0  0  0  0  0  0  0  0
   17.4185  -10.1670  -19.8664 C   0  0  0  0  0  0  0  0  0  0  0  0
   18.5377  -10.3272  -18.9679 C   0  0  2  0  0  0  0  0  0  0  0  0
   18.3137  -11.6567  -18.2573 N   0  0  0  0  0  0  0  0  0  0  0  0
   18.8689   -9.4101  -17.8888 C   0  0  0  0  0  0  0  0  0  0  0  0
   17.8384   -8.7363  -17.4549 O   0  0  0  0  0  0  0  0  0  0  0  0
   20.0654   -9.1161  -17.2448 N   0  0  0  0  0  0  0  0  0  0  0  0
   20.3668   -8.2532  -16.1397 C   0  0  1  0  0  0  0  0  0  0  0  0
   21.0142   -8.8254  -14.9337 C   0  0  0  0  0  0  0  0  0  0  0  0
   21.3278   -7.8805  -13.8440 C   0  0  0  0  0  0  0  0  0  0  0  0
   22.2421   -7.0414  -13.8350 O   0  0  0  0  0  0  0  0  0  0  0  0
   20.7595   -6.8987  -16.5199 C   0  0  0  0  0  0  0  0  0  0  0  0
   21.7420   -6.7140  -17.3057 O   0  0  0  0  0  0  0  0  0  0  0  0
   20.5065   -7.9456  -12.7135 O   0  0  0  0  0  0  0  0  0  0  0  0
   18.8526    0.1115  -19.0124 C   0  0  0  0  0  0  0  0  0  0  0  0
   18.3344   -1.5188  -18.4684 S   0  0  0  0  0  0  0  0  0  0  0  0
   19.7291   -2.2878  -17.5422 C   0  0  0  0  0  0  0  0  0  0  0  0
   19.3994   -3.7196  -17.2354 C   0  0  0  0  0  0  0  0  0  0  0  0
   20.4858   -4.3708  -16.4544 C   0  0  2  0  0  0  0  0  0  0  0  0
   20.1012   -5.7315  -16.0609 N   0  0  0  0  0  0  0  0  0  0  0  0
   20.9746   -3.5967  -15.3402 C   0  0  0  0  0  0  0  0  0  0  0  0
   21.8657   -2.5700  -15.4649 O   0  0  0  0  0  0  0  0  0  0  0  0
   20.5597   -3.8788  -14.1650 O   0  0  0  0  0  0  0  0  0  0  0  0
  2  1  1  0
  2  3  2  0
  4  5  1  0
  4  2  1  0
  6  7  1  1
  6  5  1  0
  8  6  1  0
  8 10  1  0
  9  8  2  0
 11 10  1  0
 11 12  1  6
 13 14  2  0
 13 12  1  0
 15 11  1  0
 16 15  2  0
 17 13  1  0
 18 19  1  0
 20 21  1  0
 20 19  1  0
 22 21  1  1
 22 24  1  0
 22 23  1  0
 23 15  1  0
 24 25  1  0
 26 24  2  0
M  END
$$$$
