QDM.pdb
     RDKit          3D

 26 25  0  0  1  0  0  0  0  0999 V2000
   24.1383  -21.1838   -8.3364 N   0  0  0  0  0  0  0  0  0  0  0  0
   23.7135  -20.3805   -9.4161 C   0  0  0  0  0  0  0  0  0  0  0  0
   22.6110  -19.8134   -9.3924 O   0  0  0  0  0  0  0  0  0  0  0  0
   24.5996  -20.1945  -10.6307 C   0  0  0  0  0  0  0  0  0  0  0  0
   25.0092  -21.5283  -11.1720 C   0  0  0  0  0  0  0  0  0  0  0  0
   24.8014  -21.8592  -12.5623 C   0  0  2  0  0  0  0  0  0  0  0  0
   26.1921  -21.9735  -13.1751 N   0  0  0  0  0  0  0  0  0  0  0  0
   24.0735  -21.0295  -13.5094 C   0  0  0  0  0  0  0  0  0  0  0  0
   24.8419  -20.4999  -14.4223 O   0  0  0  0  0  0  0  0  0  0  0  0
   22.7288  -20.6941  -13.6190 N   0  0  0  0  0  0  0  0  0  0  0  0
   22.0124  -19.9344  -14.6020 C   0  0  1  0  0  0  0  0  0  0  0  0
   20.5411  -19.7944  -14.4735 C   0  0  0  0  0  0  0  0  0  0  0  0
   19.8457  -19.1100  -15.5810 C   0  0  0  0  0  0  0  0  0  0  0  0
   19.4193  -19.6351  -16.6215 O   0  0  0  0  0  0  0  0  0  0  0  0
   22.7419  -18.7822  -15.1251 C   0  0  0  0  0  0  0  0  0  0  0  0
   22.9564  -17.7706  -14.3850 O   0  0  0  0  0  0  0  0  0  0  0  0
   19.6531  -17.7324  -15.4329 O   0  0  0  0  0  0  0  0  0  0  0  0
   28.5961  -18.2310  -16.2672 C   0  0  0  0  0  0  0  0  0  0  0  0
   28.0680  -17.4510  -17.7953 S   0  0  0  0  0  0  0  0  0  0  0  0
   26.3357  -16.8641  -17.5743 C   0  0  0  0  0  0  0  0  0  0  0  0
   25.5000  -17.9705  -16.9997 C   0  0  0  0  0  0  0  0  0  0  0  0
   24.0622  -17.5909  -16.9437 C   0  0  2  0  0  0  0  0  0  0  0  0
   23.2478  -18.7059  -16.4460 N   0  0  0  0  0  0  0  0  0  0  0  0
   23.5378  -17.0333  -18.1659 C   0  0  0  0  0  0  0  0  0  0  0  0
   22.4658  -17.5502  -18.8346 O   0  0  0  0  0  0  0  0  0  0  0  0
   24.1004  -15.9989  -18.6623 O   0  0  0  0  0  0  0  0  0  0  0  0
  2  1  1  0
  2  3  2  0
  4  5  1  0
  4  2  1  0
  6  7  1  6
  6  5  1  0
  8  6  1  0
  8 10  1  0
  9  8  2  0
 11 10  1  0
 11 12  1  1
 13 14  2  0
 13 12  1  0
 15 11  1  0
 16 15  2  0
 17 13  1  0
 18 19  1  0
 20 21  1  0
 20 19  1  0
 22 21  1  6
 22 24  1  0
 22 23  1  0
 23 15  1  0
 24 25  1  0
 26 24  2  0
M  END
$$$$
