QDM.pdb
     RDKit          3D

 26 25  0  0  1  0  0  0  0  0999 V2000
   30.8912  -22.9342  -17.1449 N   0  0  0  0  0  0  0  0  0  0  0  0
   30.3260  -22.7181  -18.4198 C   0  0  0  0  0  0  0  0  0  0  0  0
   30.7336  -23.3420  -19.4109 O   0  0  0  0  0  0  0  0  0  0  0  0
   29.2056  -21.7150  -18.6036 C   0  0  0  0  0  0  0  0  0  0  0  0
   28.9574  -20.9870  -17.3198 C   0  0  0  0  0  0  0  0  0  0  0  0
   28.3641  -21.6609  -16.1887 C   0  0  2  0  0  0  0  0  0  0  0  0
   27.6846  -22.9025  -16.7536 N   0  0  0  0  0  0  0  0  0  0  0  0
   27.3544  -21.0806  -15.3175 C   0  0  0  0  0  0  0  0  0  0  0  0
   27.6643  -19.8826  -14.9013 O   0  0  0  0  0  0  0  0  0  0  0  0
   26.1378  -21.5603  -14.8457 N   0  0  0  0  0  0  0  0  0  0  0  0
   25.1291  -20.9578  -14.0234 C   0  0  1  0  0  0  0  0  0  0  0  0
   23.7886  -20.6957  -14.6023 C   0  0  0  0  0  0  0  0  0  0  0  0
   22.7720  -20.1437  -13.6855 C   0  0  0  0  0  0  0  0  0  0  0  0
   22.5769  -18.9437  -13.4360 O   0  0  0  0  0  0  0  0  0  0  0  0
   25.1751  -21.3579  -12.6195 C   0  0  0  0  0  0  0  0  0  0  0  0
   24.8619  -22.5431  -12.2812 O   0  0  0  0  0  0  0  0  0  0  0  0
   21.9520  -21.0743  -13.0388 O   0  0  0  0  0  0  0  0  0  0  0  0
   29.1231  -19.8995   -7.3085 C   0  0  0  0  0  0  0  0  0  0  0  0
   27.4733  -19.3104   -6.9170 S   0  0  0  0  0  0  0  0  0  0  0  0
   26.2601  -20.3194   -7.8680 C   0  0  0  0  0  0  0  0  0  0  0  0
   26.3632  -19.9848   -9.3275 C   0  0  0  0  0  0  0  0  0  0  0  0
   25.4637  -20.8429  -10.1454 C   0  0  2  0  0  0  0  0  0  0  0  0
   25.5578  -20.4905  -11.5671 N   0  0  0  0  0  0  0  0  0  0  0  0
   24.0983  -20.8965   -9.6844 C   0  0  0  0  0  0  0  0  0  0  0  0
   23.6812  -21.6742   -8.6428 O   0  0  0  0  0  0  0  0  0  0  0  0
   23.2196  -20.1825  -10.2768 O   0  0  0  0  0  0  0  0  0  0  0  0
  2  1  1  0
  2  3  2  0
  4  5  1  0
  4  2  1  0
  6  7  1  6
  6  5  1  0
  8  6  1  0
  8 10  1  0
  9  8  2  0
 11 10  1  0
 11 12  1  6
 13 14  2  0
 13 12  1  0
 15 11  1  0
 16 15  2  0
 17 13  1  0
 18 19  1  0
 20 21  1  0
 20 19  1  0
 22 21  1  1
 22 24  1  0
 22 23  1  0
 23 15  1  0
 24 25  1  0
 26 24  2  0
M  END
$$$$
