QDM.pdb
     RDKit          3D

 26 25  0  0  1  0  0  0  0  0999 V2000
   14.4676   -8.9977   -8.7627 N   0  0  0  0  0  0  0  0  0  0  0  0
   13.2183   -9.2532   -9.3673 C   0  0  0  0  0  0  0  0  0  0  0  0
   12.1773   -9.2720   -8.6939 O   0  0  0  0  0  0  0  0  0  0  0  0
   13.1241   -9.5111  -10.8571 C   0  0  0  0  0  0  0  0  0  0  0  0
   14.4807   -9.4037  -11.4799 C   0  0  0  0  0  0  0  0  0  0  0  0
   14.6603   -9.5881  -12.9010 C   0  0  2  0  0  0  0  0  0  0  0  0
   14.5951  -11.0923  -13.1369 N   0  0  0  0  0  0  0  0  0  0  0  0
   15.8381   -9.1721  -13.6459 C   0  0  0  0  0  0  0  0  0  0  0  0
   16.7956  -10.0595  -13.6274 O   0  0  0  0  0  0  0  0  0  0  0  0
   16.1336   -8.0168  -14.3605 N   0  0  0  0  0  0  0  0  0  0  0  0
   17.3581   -7.5351  -14.9308 C   0  0  1  0  0  0  0  0  0  0  0  0
   17.3128   -6.7933  -16.2148 C   0  0  0  0  0  0  0  0  0  0  0  0
   18.6128   -6.4674  -16.8331 C   0  0  0  0  0  0  0  0  0  0  0  0
   19.3441   -7.2442  -17.4670 O   0  0  0  0  0  0  0  0  0  0  0  0
   18.3509   -7.0999  -13.9518 C   0  0  0  0  0  0  0  0  0  0  0  0
   18.0019   -6.3814  -12.9624 O   0  0  0  0  0  0  0  0  0  0  0  0
   19.0554   -5.1488  -16.6838 O   0  0  0  0  0  0  0  0  0  0  0  0
   24.1144   -8.5921   -9.1428 C   0  0  0  0  0  0  0  0  0  0  0  0
   23.0407   -9.1657  -10.4621 S   0  0  0  0  0  0  0  0  0  0  0  0
   22.2686   -7.6943  -11.2579 C   0  0  0  0  0  0  0  0  0  0  0  0
   21.3181   -8.1436  -12.3291 C   0  0  0  0  0  0  0  0  0  0  0  0
   20.7264   -6.9841  -13.0500 C   0  0  2  0  0  0  0  0  0  0  0  0
   19.7258   -7.4324  -14.0258 N   0  0  0  0  0  0  0  0  0  0  0  0
   21.6886   -6.0796  -13.6294 C   0  0  0  0  0  0  0  0  0  0  0  0
   22.2988   -6.2926  -14.8319 O   0  0  0  0  0  0  0  0  0  0  0  0
   21.9976   -5.0169  -12.9907 O   0  0  0  0  0  0  0  0  0  0  0  0
  2  1  1  0
  2  3  2  0
  4  5  1  0
  4  2  1  0
  6  7  1  1
  6  5  1  0
  8  6  1  0
  8 10  1  0
  9  8  2  0
 11 10  1  0
 11 12  1  6
 13 14  2  0
 13 12  1  0
 15 11  1  0
 16 15  2  0
 17 13  1  0
 18 19  1  0
 20 21  1  0
 20 19  1  0
 22 21  1  6
 22 24  1  0
 22 23  1  0
 23 15  1  0
 24 25  1  0
 26 24  2  0
M  END
$$$$
