QDM.pdb
     RDKit          3D

 26 25  0  0  1  0  0  0  0  0999 V2000
   23.0758  -14.9264  -19.8833 N   0  0  0  0  0  0  0  0  0  0  0  0
   22.5860  -16.1209  -19.3134 C   0  0  0  0  0  0  0  0  0  0  0  0
   22.4767  -17.1523  -19.9931 O   0  0  0  0  0  0  0  0  0  0  0  0
   22.1819  -16.1668  -17.8541 C   0  0  0  0  0  0  0  0  0  0  0  0
   22.4467  -14.8422  -17.2099 C   0  0  0  0  0  0  0  0  0  0  0  0
   21.3594  -13.9613  -16.8531 C   0  0  2  0  0  0  0  0  0  0  0  0
   20.2172  -14.3047  -17.8019 N   0  0  0  0  0  0  0  0  0  0  0  0
   21.4229  -12.5091  -16.9002 C   0  0  0  0  0  0  0  0  0  0  0  0
   22.1651  -12.0602  -17.8759 O   0  0  0  0  0  0  0  0  0  0  0  0
   20.8523  -11.5212  -16.1056 N   0  0  0  0  0  0  0  0  0  0  0  0
   20.9571  -10.0913  -16.1393 C   0  0  1  0  0  0  0  0  0  0  0  0
   19.8568   -9.2741  -15.5716 C   0  0  0  0  0  0  0  0  0  0  0  0
   20.0425   -7.8100  -15.5988 C   0  0  0  0  0  0  0  0  0  0  0  0
   19.9403   -7.0713  -16.5908 O   0  0  0  0  0  0  0  0  0  0  0  0
   22.3147   -9.5805  -15.9683 C   0  0  0  0  0  0  0  0  0  0  0  0
   22.9450   -9.7886  -14.8836 O   0  0  0  0  0  0  0  0  0  0  0  0
   20.3655   -7.2049  -14.3797 O   0  0  0  0  0  0  0  0  0  0  0  0
   29.6304   -9.3869  -17.4877 C   0  0  0  0  0  0  0  0  0  0  0  0
   27.9702  -10.0165  -17.7510 S   0  0  0  0  0  0  0  0  0  0  0  0
   26.7748   -8.7983  -17.0574 C   0  0  0  0  0  0  0  0  0  0  0  0
   25.3796   -9.3379  -17.1799 C   0  0  0  0  0  0  0  0  0  0  0  0
   24.3681   -8.3206  -16.7845 C   0  0  2  0  0  0  0  0  0  0  0  0
   23.0076   -8.8429  -16.9594 N   0  0  0  0  0  0  0  0  0  0  0  0
   24.5410   -7.0278  -17.3996 C   0  0  0  0  0  0  0  0  0  0  0  0
   25.4571   -6.1066  -16.9802 O   0  0  0  0  0  0  0  0  0  0  0  0
   23.8002   -6.7139  -18.3923 O   0  0  0  0  0  0  0  0  0  0  0  0
  2  1  1  0
  2  3  2  0
  4  5  1  0
  4  2  1  0
  6  7  1  6
  6  5  1  0
  8  6  1  0
  8 10  1  0
  9  8  2  0
 11 10  1  0
 11 12  1  1
 13 14  2  0
 13 12  1  0
 15 11  1  0
 16 15  2  0
 17 13  1  0
 18 19  1  0
 20 21  1  0
 20 19  1  0
 22 21  1  6
 22 24  1  0
 22 23  1  0
 23 15  1  0
 24 25  1  0
 26 24  2  0
M  END
$$$$
