KAC.pdb
     RDKit          3D

 21 20  0  0  1  0  0  0  0  0999 V2000
   16.5609  -12.1365  -14.1445 N   0  0  0  0  0  0  0  0  0  0  0  0
   15.7432  -11.2909  -13.3208 C   0  0  1  0  0  0  0  0  0  0  0  0
   15.5810  -11.8701  -11.9304 C   0  0  0  0  0  0  0  0  0  0  0  0
   14.7975  -13.1568  -12.0843 C   0  0  0  0  0  0  0  0  0  0  0  0
   13.3150  -12.9272  -11.8513 C   0  0  0  0  0  0  0  0  0  0  0  0
   12.5399  -14.2420  -11.8827 C   0  0  0  0  0  0  0  0  0  0  0  0
   11.1209  -13.8858  -11.7819 N   0  0  0  0  0  0  0  0  0  0  0  0
   16.2457   -9.8919  -13.2874 C   0  0  0  0  0  0  0  0  0  0  0  0
   17.4746   -9.6735  -13.1342 O   0  0  0  0  0  0  0  0  0  0  0  0
   15.1909   -6.6051  -14.4370 C   0  0  0  0  0  0  0  0  0  0  0  0
   15.9542   -7.4497  -13.4398 C   0  0  2  0  0  0  0  0  0  0  0  0
   15.3891   -8.7666  -13.4227 N   0  0  0  0  0  0  0  0  0  0  0  0
   15.9751   -6.8210  -12.0937 C   0  0  0  0  0  0  0  0  0  0  0  0
   16.3348   -5.6244  -12.0136 O   0  0  0  0  0  0  0  0  0  0  0  0
   15.6120   -7.5030  -10.9127 N   0  0  0  0  0  0  0  0  0  0  0  0
   15.4965   -6.8678   -9.6157 C   0  0  1  0  0  0  0  0  0  0  0  0
   14.9259   -7.9156   -8.6590 C   0  0  0  0  0  0  0  0  0  0  0  0
   13.4762   -8.7262   -9.3939 S   0  0  0  0  0  0  0  0  0  0  0  0
   16.8046   -6.4626   -9.0683 C   0  0  0  0  0  0  0  0  0  0  0  0
   17.8449   -6.8016   -9.6659 O   0  0  0  0  0  0  0  0  0  0  0  0
   16.8976   -5.7195   -7.9137 O   0  0  0  0  0  0  0  0  0  0  0  0
  2  1  1  6
  2  8  1  0
  3  2  1  0
  4  3  1  0
  4  5  1  0
  6  5  1  0
  7  6  1  0
  8  9  2  0
 11 10  1  6
 12  8  1  0
 12 11  1  0
 13 11  1  0
 13 15  1  0
 14 13  2  0
 16 19  1  0
 16 15  1  0
 16 17  1  1
 18 17  1  0
 19 21  1  0
 20 19  2  0
M  END
$$$$
