KAC.pdb
     RDKit          3D

 21 20  0  0  1  0  0  0  0  0999 V2000
   19.7295  -21.1929  -18.3627 N   0  0  0  0  0  0  0  0  0  0  0  0
   19.0835  -20.1693  -19.1356 C   0  0  1  0  0  0  0  0  0  0  0  0
   17.5780  -20.3368  -19.1188 C   0  0  0  0  0  0  0  0  0  0  0  0
   17.3021  -21.8096  -19.3381 C   0  0  0  0  0  0  0  0  0  0  0  0
   16.7940  -22.4672  -18.0676 C   0  0  0  0  0  0  0  0  0  0  0  0
   16.4392  -23.9326  -18.3070 C   0  0  0  0  0  0  0  0  0  0  0  0
   15.3303  -23.9361  -19.2665 N   0  0  0  0  0  0  0  0  0  0  0  0
   19.4980  -18.8060  -18.7110 C   0  0  0  0  0  0  0  0  0  0  0  0
   19.0155  -17.7986  -19.2885 O   0  0  0  0  0  0  0  0  0  0  0  0
   21.5416  -17.2614  -16.0001 C   0  0  0  0  0  0  0  0  0  0  0  0
   20.7744  -17.2360  -17.3044 C   0  0  2  0  0  0  0  0  0  0  0  0
   20.4313  -18.5801  -17.6639 N   0  0  0  0  0  0  0  0  0  0  0  0
   21.5347  -16.5367  -18.3723 C   0  0  0  0  0  0  0  0  0  0  0  0
   22.4053  -17.1892  -18.9922 O   0  0  0  0  0  0  0  0  0  0  0  0
   21.3236  -15.1847  -18.7173 N   0  0  0  0  0  0  0  0  0  0  0  0
   22.1138  -14.4678  -19.6975 C   0  0  1  0  0  0  0  0  0  0  0  0
   21.3568  -14.5521  -21.0236 C   0  0  0  0  0  0  0  0  0  0  0  0
   22.1597  -13.5171  -22.2818 S   0  0  0  0  0  0  0  0  0  0  0  0
   22.2457  -13.0346  -19.3757 C   0  0  0  0  0  0  0  0  0  0  0  0
   21.5510  -12.5507  -18.4607 O   0  0  0  0  0  0  0  0  0  0  0  0
   23.1188  -12.2243  -20.0649 O   0  0  0  0  0  0  0  0  0  0  0  0
  2  1  1  1
  2  8  1  0
  3  2  1  0
  4  3  1  0
  4  5  1  0
  6  5  1  0
  7  6  1  0
  8  9  2  0
 11 10  1  1
 12  8  1  0
 12 11  1  0
 13 11  1  0
 13 15  1  0
 14 13  2  0
 16 19  1  0
 16 15  1  0
 16 17  1  6
 18 17  1  0
 19 21  1  0
 20 19  2  0
M  END
$$$$
