KAC.pdb
     RDKit          3D

 21 20  0  0  1  0  0  0  0  0999 V2000
   22.5885  -16.7598  -16.9039 N   0  0  0  0  0  0  0  0  0  0  0  0
   21.4140  -16.2874  -16.2259 C   0  0  1  0  0  0  0  0  0  0  0  0
   20.9346  -17.2892  -15.1956 C   0  0  0  0  0  0  0  0  0  0  0  0
   20.7779  -18.6120  -15.9158 C   0  0  0  0  0  0  0  0  0  0  0  0
   21.8834  -19.5793  -15.5325 C   0  0  0  0  0  0  0  0  0  0  0  0
   21.6891  -20.9361  -16.2048 C   0  0  0  0  0  0  0  0  0  0  0  0
   22.8281  -21.7646  -15.7966 N   0  0  0  0  0  0  0  0  0  0  0  0
   21.6156  -14.9362  -15.6388 C   0  0  0  0  0  0  0  0  0  0  0  0
   20.6933  -14.4013  -14.9722 O   0  0  0  0  0  0  0  0  0  0  0  0
   24.3860  -12.4853  -15.2124 C   0  0  0  0  0  0  0  0  0  0  0  0
   22.9278  -12.8895  -15.2369 C   0  0  2  0  0  0  0  0  0  0  0  0
   22.8232  -14.2046  -15.7968 N   0  0  0  0  0  0  0  0  0  0  0  0
   22.0967  -11.8938  -15.9616 C   0  0  0  0  0  0  0  0  0  0  0  0
   22.1279  -11.9072  -17.2132 O   0  0  0  0  0  0  0  0  0  0  0  0
   21.2815  -10.9427  -15.3114 N   0  0  0  0  0  0  0  0  0  0  0  0
   20.5041   -9.9358  -16.0046 C   0  0  1  0  0  0  0  0  0  0  0  0
   19.4481   -9.4352  -15.0182 C   0  0  0  0  0  0  0  0  0  0  0  0
   18.4285  -10.8152  -14.4224 S   0  0  0  0  0  0  0  0  0  0  0  0
   21.3137   -8.7645  -16.3886 C   0  0  0  0  0  0  0  0  0  0  0  0
   20.7964   -7.8707  -17.0870 O   0  0  0  0  0  0  0  0  0  0  0  0
   22.6255   -8.6405  -15.9915 O   0  0  0  0  0  0  0  0  0  0  0  0
  2  1  1  1
  2  8  1  0
  3  2  1  0
  4  3  1  0
  4  5  1  0
  6  5  1  0
  7  6  1  0
  8  9  2  0
 11 10  1  6
 12  8  1  0
 12 11  1  0
 13 11  1  0
 13 15  1  0
 14 13  2  0
 16 19  1  0
 16 15  1  0
 16 17  1  1
 18 17  1  0
 19 21  1  0
 20 19  2  0
M  END
$$$$
