KAC.pdb
     RDKit          3D

 21 20  0  0  1  0  0  0  0  0999 V2000
   17.8787  -12.4309  -15.7875 N   0  0  0  0  0  0  0  0  0  0  0  0
   16.9417  -11.3426  -15.7835 C   0  0  1  0  0  0  0  0  0  0  0  0
   15.5528  -11.8156  -15.4066 C   0  0  0  0  0  0  0  0  0  0  0  0
   15.0459  -12.6446  -16.5680 C   0  0  0  0  0  0  0  0  0  0  0  0
   13.6667  -13.2089  -16.2781 C   0  0  0  0  0  0  0  0  0  0  0  0
   13.1721  -14.0803  -17.4299 C   0  0  0  0  0  0  0  0  0  0  0  0
   11.8206  -14.5168  -17.0649 N   0  0  0  0  0  0  0  0  0  0  0  0
   17.3995  -10.2168  -14.9268 C   0  0  0  0  0  0  0  0  0  0  0  0
   17.9357  -10.4565  -13.8149 O   0  0  0  0  0  0  0  0  0  0  0  0
   17.8377   -6.5362  -15.1580 C   0  0  0  0  0  0  0  0  0  0  0  0
   17.6314   -7.8232  -14.3889 C   0  0  2  0  0  0  0  0  0  0  0  0
   17.2584   -8.8560  -15.3098 N   0  0  0  0  0  0  0  0  0  0  0  0
   16.6428   -7.6525  -13.2929 C   0  0  0  0  0  0  0  0  0  0  0  0
   15.4307   -7.7950  -13.5724 O   0  0  0  0  0  0  0  0  0  0  0  0
   17.0029   -7.3403  -11.9645 N   0  0  0  0  0  0  0  0  0  0  0  0
   16.0466   -7.0708  -10.9101 C   0  0  1  0  0  0  0  0  0  0  0  0
   16.7461   -7.3857   -9.5871 C   0  0  0  0  0  0  0  0  0  0  0  0
   16.9695   -9.1780   -9.3960 S   0  0  0  0  0  0  0  0  0  0  0  0
   15.6551   -5.6500  -10.8543 C   0  0  0  0  0  0  0  0  0  0  0  0
   14.7226   -5.3057  -10.1019 O   0  0  0  0  0  0  0  0  0  0  0  0
   16.2982   -4.7005  -11.6150 O   0  0  0  0  0  0  0  0  0  0  0  0
  2  1  1  1
  2  8  1  0
  3  2  1  0
  4  3  1  0
  4  5  1  0
  6  5  1  0
  7  6  1  0
  8  9  2  0
 11 10  1  6
 12  8  1  0
 12 11  1  0
 13 11  1  0
 13 15  1  0
 14 13  2  0
 16 19  1  0
 16 15  1  0
 16 17  1  1
 18 17  1  0
 19 21  1  0
 20 19  2  0
M  END
$$$$
