KAC.pdb
     RDKit          3D

 21 20  0  0  1  0  0  0  0  0999 V2000
   23.4413  -13.8674  -19.6788 N   0  0  0  0  0  0  0  0  0  0  0  0
   23.4951  -13.3158  -18.3540 C   0  0  1  0  0  0  0  0  0  0  0  0
   24.9221  -13.2299  -17.8528 C   0  0  0  0  0  0  0  0  0  0  0  0
   25.4857  -14.6345  -17.9030 C   0  0  0  0  0  0  0  0  0  0  0  0
   26.8936  -14.6809  -17.3370 C   0  0  0  0  0  0  0  0  0  0  0  0
   27.4977  -16.0766  -17.4701 C   0  0  0  0  0  0  0  0  0  0  0  0
   28.8690  -15.9820  -16.9591 N   0  0  0  0  0  0  0  0  0  0  0  0
   22.7932  -12.0079  -18.2664 C   0  0  0  0  0  0  0  0  0  0  0  0
   22.8740  -11.1911  -19.2191 O   0  0  0  0  0  0  0  0  0  0  0  0
   19.8529  -10.6595  -16.8095 C   0  0  0  0  0  0  0  0  0  0  0  0
   21.2996  -10.3887  -17.1620 C   0  0  2  0  0  0  0  0  0  0  0  0
   22.0199  -11.6274  -17.1370 N   0  0  0  0  0  0  0  0  0  0  0  0
   21.8974   -9.3636  -16.2680 C   0  0  0  0  0  0  0  0  0  0  0  0
   22.1703   -9.7006  -15.0934 O   0  0  0  0  0  0  0  0  0  0  0  0
   22.1692   -8.0405  -16.6769 N   0  0  0  0  0  0  0  0  0  0  0  0
   22.7625   -7.0351  -15.8189 C   0  0  1  0  0  0  0  0  0  0  0  0
   23.7704   -6.2639  -16.6721 C   0  0  0  0  0  0  0  0  0  0  0  0
   25.1547   -7.3386  -17.1492 S   0  0  0  0  0  0  0  0  0  0  0  0
   21.7749   -6.0513  -15.3376 C   0  0  0  0  0  0  0  0  0  0  0  0
   20.6489   -6.0095  -15.8711 O   0  0  0  0  0  0  0  0  0  0  0  0
   22.0725   -5.1813  -14.3135 O   0  0  0  0  0  0  0  0  0  0  0  0
  2  1  1  6
  2  8  1  0
  3  2  1  0
  4  3  1  0
  4  5  1  0
  6  5  1  0
  7  6  1  0
  8  9  2  0
 11 10  1  1
 12  8  1  0
 12 11  1  0
 13 11  1  0
 13 15  1  0
 14 13  2  0
 16 19  1  0
 16 15  1  0
 16 17  1  6
 18 17  1  0
 19 21  1  0
 20 19  2  0
M  END
$$$$
