KAC.pdb
     RDKit          3D

 21 20  0  0  1  0  0  0  0  0999 V2000
   16.7204  -11.5829  -14.7976 N   0  0  0  0  0  0  0  0  0  0  0  0
   18.0992  -11.3920  -15.1509 C   0  0  1  0  0  0  0  0  0  0  0  0
   18.5158  -12.3314  -16.2639 C   0  0  0  0  0  0  0  0  0  0  0  0
   17.7449  -13.6184  -16.0577 C   0  0  0  0  0  0  0  0  0  0  0  0
   18.0967  -14.6444  -17.1199 C   0  0  0  0  0  0  0  0  0  0  0  0
   17.3324  -15.9482  -16.9044 C   0  0  0  0  0  0  0  0  0  0  0  0
   17.6941  -16.8269  -18.0214 N   0  0  0  0  0  0  0  0  0  0  0  0
   18.3990   -9.9726  -15.4772 C   0  0  0  0  0  0  0  0  0  0  0  0
   19.5748   -9.6335  -15.7666 O   0  0  0  0  0  0  0  0  0  0  0  0
   16.4739   -6.8553  -16.1480 C   0  0  0  0  0  0  0  0  0  0  0  0
   17.7476   -7.6336  -15.8979 C   0  0  2  0  0  0  0  0  0  0  0  0
   17.4027   -8.9598  -15.4782 N   0  0  0  0  0  0  0  0  0  0  0  0
   18.6303   -6.9394  -14.9250 C   0  0  0  0  0  0  0  0  0  0  0  0
   18.4227   -7.1342  -13.7057 O   0  0  0  0  0  0  0  0  0  0  0  0
   19.6815   -6.0789  -15.3074 N   0  0  0  0  0  0  0  0  0  0  0  0
   20.4201   -5.2444  -14.3817 C   0  0  1  0  0  0  0  0  0  0  0  0
   21.7782   -5.9145  -14.1685 C   0  0  0  0  0  0  0  0  0  0  0  0
   22.8806   -4.8300  -13.2158 S   0  0  0  0  0  0  0  0  0  0  0  0
   20.6918   -3.9015  -14.9273 C   0  0  0  0  0  0  0  0  0  0  0  0
   20.8264   -3.7616  -16.1588 O   0  0  0  0  0  0  0  0  0  0  0  0
   20.7989   -2.8034  -14.1046 O   0  0  0  0  0  0  0  0  0  0  0  0
  2  1  1  6
  2  8  1  0
  3  2  1  0
  4  3  1  0
  4  5  1  0
  6  5  1  0
  7  6  1  0
  8  9  2  0
 11 10  1  1
 12  8  1  0
 12 11  1  0
 13 11  1  0
 13 15  1  0
 14 13  2  0
 16 19  1  0
 16 15  1  0
 16 17  1  6
 18 17  1  0
 19 21  1  0
 20 19  2  0
M  END
$$$$
