KAC.pdb
     RDKit          3D

 21 20  0  0  1  0  0  0  0  0999 V2000
   17.6266  -25.1264   -5.7814 N   0  0  0  0  0  0  0  0  0  0  0  0
   16.3316  -25.3954   -5.2220 C   0  0  1  0  0  0  0  0  0  0  0  0
   16.2663  -26.7903   -4.6347 C   0  0  0  0  0  0  0  0  0  0  0  0
   15.5284  -27.6506   -5.6388 C   0  0  0  0  0  0  0  0  0  0  0  0
   16.4740  -28.6110   -6.3376 C   0  0  0  0  0  0  0  0  0  0  0  0
   15.7461  -29.4274   -7.4025 C   0  0  0  0  0  0  0  0  0  0  0  0
   16.7607  -30.2764   -8.0353 N   0  0  0  0  0  0  0  0  0  0  0  0
   15.9226  -24.3566   -4.2399 C   0  0  0  0  0  0  0  0  0  0  0  0
   16.7739  -23.8752   -3.4495 O   0  0  0  0  0  0  0  0  0  0  0  0
   12.9205  -22.2720   -3.5206 C   0  0  0  0  0  0  0  0  0  0  0  0
   14.2760  -22.8562   -3.1864 C   0  0  2  0  0  0  0  0  0  0  0  0
   14.5906  -23.8710   -4.1482 N   0  0  0  0  0  0  0  0  0  0  0  0
   14.3248  -23.3600   -1.7895 C   0  0  0  0  0  0  0  0  0  0  0  0
   14.0187  -24.5575   -1.5896 O   0  0  0  0  0  0  0  0  0  0  0  0
   14.6965  -22.5596   -0.6882 N   0  0  0  0  0  0  0  0  0  0  0  0
   14.7613  -23.0422    0.6763 C   0  0  1  0  0  0  0  0  0  0  0  0
   16.1194  -22.6133    1.2334 C   0  0  0  0  0  0  0  0  0  0  0  0
   16.3490  -20.8218    1.0422 S   0  0  0  0  0  0  0  0  0  0  0  0
   13.7363  -22.4279    1.5405 C   0  0  0  0  0  0  0  0  0  0  0  0
   13.0531  -21.4843    1.0965 O   0  0  0  0  0  0  0  0  0  0  0  0
   13.5207  -22.8757    2.8238 O   0  0  0  0  0  0  0  0  0  0  0  0
  2  1  1  1
  2  8  1  0
  3  2  1  0
  4  3  1  0
  4  5  1  0
  6  5  1  0
  7  6  1  0
  8  9  2  0
 11 10  1  6
 12  8  1  0
 12 11  1  0
 13 11  1  0
 13 15  1  0
 14 13  2  0
 16 19  1  0
 16 15  1  0
 16 17  1  1
 18 17  1  0
 19 21  1  0
 20 19  2  0
M  END
$$$$
