KAC.pdb
     RDKit          3D

 21 20  0  0  1  0  0  0  0  0999 V2000
   17.8077  -11.5686  -15.7044 N   0  0  0  0  0  0  0  0  0  0  0  0
   19.1244  -11.1292  -16.0722 C   0  0  1  0  0  0  0  0  0  0  0  0
   19.4678  -11.5485  -17.4868 C   0  0  0  0  0  0  0  0  0  0  0  0
   19.3136  -13.0538  -17.5435 C   0  0  0  0  0  0  0  0  0  0  0  0
   19.5882  -13.5809  -18.9405 C   0  0  0  0  0  0  0  0  0  0  0  0
   19.4005  -15.0944  -19.0076 C   0  0  0  0  0  0  0  0  0  0  0  0
   19.6894  -15.4840  -20.3916 N   0  0  0  0  0  0  0  0  0  0  0  0
   19.3018   -9.6676  -15.8647 C   0  0  0  0  0  0  0  0  0  0  0  0
   18.3241   -8.8920  -16.0188 O   0  0  0  0  0  0  0  0  0  0  0  0
   21.8264   -7.3739  -14.4210 C   0  0  0  0  0  0  0  0  0  0  0  0
   20.6395   -7.6735  -15.3109 C   0  0  2  0  0  0  0  0  0  0  0  0
   20.5465   -9.0918  -15.4935 N   0  0  0  0  0  0  0  0  0  0  0  0
   20.7221   -6.9371  -16.5987 C   0  0  0  0  0  0  0  0  0  0  0  0
   21.4208   -7.4335  -17.5114 O   0  0  0  0  0  0  0  0  0  0  0  0
   20.0563   -5.7161  -16.8387 N   0  0  0  0  0  0  0  0  0  0  0  0
   20.1288   -4.9884  -18.0894 C   0  0  1  0  0  0  0  0  0  0  0  0
   18.7143   -4.4954  -18.3973 C   0  0  0  0  0  0  0  0  0  0  0  0
   17.5822   -5.9001  -18.6072 S   0  0  0  0  0  0  0  0  0  0  0  0
   20.9836   -3.7903  -17.9953 C   0  0  0  0  0  0  0  0  0  0  0  0
   21.4437   -3.4576  -16.8854 O   0  0  0  0  0  0  0  0  0  0  0  0
   21.2815   -3.0351  -19.1066 O   0  0  0  0  0  0  0  0  0  0  0  0
  2  1  1  6
  2  8  1  0
  3  2  1  0
  4  3  1  0
  4  5  1  0
  6  5  1  0
  7  6  1  0
  8  9  2  0
 11 10  1  1
 12  8  1  0
 12 11  1  0
 13 11  1  0
 13 15  1  0
 14 13  2  0
 16 19  1  0
 16 15  1  0
 16 17  1  1
 18 17  1  0
 19 21  1  0
 20 19  2  0
M  END
$$$$
