KAC.pdb
     RDKit          3D

 21 20  0  0  1  0  0  0  0  0999 V2000
   22.9426  -13.2096  -16.7640 N   0  0  0  0  0  0  0  0  0  0  0  0
   23.1697  -12.2460  -17.8043 C   0  0  1  0  0  0  0  0  0  0  0  0
   21.9008  -11.4886  -18.1375 C   0  0  0  0  0  0  0  0  0  0  0  0
   20.8211  -12.5265  -18.3611 C   0  0  0  0  0  0  0  0  0  0  0  0
   21.0973  -13.3449  -19.6096 C   0  0  0  0  0  0  0  0  0  0  0  0
   19.9170  -14.2518  -19.9489 C   0  0  0  0  0  0  0  0  0  0  0  0
   20.3067  -15.0037  -21.1461 N   0  0  0  0  0  0  0  0  0  0  0  0
   24.2966  -11.3317  -17.4801 C   0  0  0  0  0  0  0  0  0  0  0  0
   24.5855  -10.3939  -18.2663 O   0  0  0  0  0  0  0  0  0  0  0  0
   26.6828  -10.7836  -14.6590 C   0  0  0  0  0  0  0  0  0  0  0  0
   26.1389  -10.5369  -16.0496 C   0  0  2  0  0  0  0  0  0  0  0  0
   25.0790  -11.4678  -16.3021 N   0  0  0  0  0  0  0  0  0  0  0  0
   27.2115  -10.6023  -17.0756 C   0  0  0  0  0  0  0  0  0  0  0  0
   27.4963  -11.7246  -17.5520 O   0  0  0  0  0  0  0  0  0  0  0  0
   27.9175   -9.4694  -17.5339 N   0  0  0  0  0  0  0  0  0  0  0  0
   28.9779   -9.5222  -18.5197 C   0  0  1  0  0  0  0  0  0  0  0  0
   28.6037   -8.5344  -19.6255 C   0  0  0  0  0  0  0  0  0  0  0  0
   27.0866   -9.0685  -20.4695 S   0  0  0  0  0  0  0  0  0  0  0  0
   30.2748   -9.0779  -17.9763 C   0  0  0  0  0  0  0  0  0  0  0  0
   30.2999   -8.4523  -16.8982 O   0  0  0  0  0  0  0  0  0  0  0  0
   31.4542   -9.3403  -18.6353 O   0  0  0  0  0  0  0  0  0  0  0  0
  2  1  1  1
  2  8  1  0
  3  2  1  0
  4  3  1  0
  4  5  1  0
  6  5  1  0
  7  6  1  0
  8  9  2  0
 11 10  1  1
 12  8  1  0
 12 11  1  0
 13 11  1  0
 13 15  1  0
 14 13  2  0
 16 19  1  0
 16 15  1  0
 16 17  1  6
 18 17  1  0
 19 21  1  0
 20 19  2  0
M  END
$$$$
