KAC.pdb
     RDKit          3D

 21 20  0  0  1  0  0  0  0  0999 V2000
   20.6974  -12.3844  -17.6248 N   0  0  0  0  0  0  0  0  0  0  0  0
   19.6749  -11.4932  -17.1530 C   0  0  1  0  0  0  0  0  0  0  0  0
   18.4955  -12.2597  -16.5905 C   0  0  0  0  0  0  0  0  0  0  0  0
   17.9913  -13.1577  -17.7007 C   0  0  0  0  0  0  0  0  0  0  0  0
   16.7440  -13.9103  -17.2734 C   0  0  0  0  0  0  0  0  0  0  0  0
   16.2437  -14.8285  -18.3857 C   0  0  0  0  0  0  0  0  0  0  0  0
   16.0648  -13.9815  -19.5693 N   0  0  0  0  0  0  0  0  0  0  0  0
   20.2069  -10.4982  -16.1846 C   0  0  0  0  0  0  0  0  0  0  0  0
   19.4288   -9.6636  -15.6562 O   0  0  0  0  0  0  0  0  0  0  0  0
   23.4329   -9.8338  -14.4293 C   0  0  0  0  0  0  0  0  0  0  0  0
   21.9998   -9.5232  -14.8035 C   0  0  2  0  0  0  0  0  0  0  0  0
   21.5787  -10.4425  -15.8190 N   0  0  0  0  0  0  0  0  0  0  0  0
   21.8375   -8.1050  -15.2157 C   0  0  0  0  0  0  0  0  0  0  0  0
   22.1671   -7.7948  -16.3831 O   0  0  0  0  0  0  0  0  0  0  0  0
   21.3342   -7.1010  -14.3610 N   0  0  0  0  0  0  0  0  0  0  0  0
   21.2540   -5.6996  -14.7200 C   0  0  1  0  0  0  0  0  0  0  0  0
   19.7985   -5.2744  -14.5212 C   0  0  0  0  0  0  0  0  0  0  0  0
   18.7017   -6.2315  -15.6074 S   0  0  0  0  0  0  0  0  0  0  0  0
   22.0692   -4.8444  -13.8374 C   0  0  0  0  0  0  0  0  0  0  0  0
   22.5621   -5.3344  -12.8025 O   0  0  0  0  0  0  0  0  0  0  0  0
   22.2949   -3.5197  -14.1344 O   0  0  0  0  0  0  0  0  0  0  0  0
  2  1  1  1
  2  8  1  0
  3  2  1  0
  4  3  1  0
  4  5  1  0
  6  5  1  0
  7  6  1  0
  8  9  2  0
 11 10  1  6
 12  8  1  0
 12 11  1  0
 13 11  1  0
 13 15  1  0
 14 13  2  0
 16 19  1  0
 16 15  1  0
 16 17  1  1
 18 17  1  0
 19 21  1  0
 20 19  2  0
M  END
$$$$
