KAC.pdb
     RDKit          3D

 21 20  0  0  1  0  0  0  0  0999 V2000
   21.3975  -12.0412  -18.8035 N   0  0  0  0  0  0  0  0  0  0  0  0
   20.2972  -11.3484  -18.1936 C   0  0  1  0  0  0  0  0  0  0  0  0
   19.1946  -12.3094  -17.7988 C   0  0  0  0  0  0  0  0  0  0  0  0
   19.0888  -13.3304  -18.9121 C   0  0  0  0  0  0  0  0  0  0  0  0
   18.0602  -14.3971  -18.5817 C   0  0  0  0  0  0  0  0  0  0  0  0
   18.0164  -15.4763  -19.6605 C   0  0  0  0  0  0  0  0  0  0  0  0
   18.2805  -16.7487  -18.9809 N   0  0  0  0  0  0  0  0  0  0  0  0
   20.7358  -10.5028  -17.0519 C   0  0  0  0  0  0  0  0  0  0  0  0
   19.8817   -9.8721  -16.3781 O   0  0  0  0  0  0  0  0  0  0  0  0
   23.8970   -9.8516  -15.1797 C   0  0  0  0  0  0  0  0  0  0  0  0
   22.4364   -9.6207  -15.5021 C   0  0  2  0  0  0  0  0  0  0  0  0
   22.0995  -10.3692  -16.6769 N   0  0  0  0  0  0  0  0  0  0  0  0
   22.1294   -8.1736  -15.6407 C   0  0  0  0  0  0  0  0  0  0  0  0
   22.4226   -7.6154  -16.7224 O   0  0  0  0  0  0  0  0  0  0  0  0
   21.5286   -7.4064  -14.6199 N   0  0  0  0  0  0  0  0  0  0  0  0
   21.2629   -5.9861  -14.7264 C   0  0  1  0  0  0  0  0  0  0  0  0
   19.7711   -5.7930  -14.4507 C   0  0  0  0  0  0  0  0  0  0  0  0
   18.7758   -6.6992  -15.6702 S   0  0  0  0  0  0  0  0  0  0  0  0
   21.9865   -5.1998  -13.7101 C   0  0  0  0  0  0  0  0  0  0  0  0
   22.6030   -5.7964  -12.8055 O   0  0  0  0  0  0  0  0  0  0  0  0
   21.9936   -3.8239  -13.7417 O   0  0  0  0  0  0  0  0  0  0  0  0
  2  1  1  1
  2  8  1  0
  3  2  1  0
  4  3  1  0
  4  5  1  0
  6  5  1  0
  7  6  1  0
  8  9  2  0
 11 10  1  6
 12  8  1  0
 12 11  1  0
 13 11  1  0
 13 15  1  0
 14 13  2  0
 16 19  1  0
 16 15  1  0
 16 17  1  1
 18 17  1  0
 19 21  1  0
 20 19  2  0
M  END
$$$$
