KAC.pdb
     RDKit          3D

 21 20  0  0  1  0  0  0  0  0999 V2000
   25.5049  -14.7994  -17.9198 N   0  0  0  0  0  0  0  0  0  0  0  0
   25.8959  -13.4411  -18.1733 C   0  0  1  0  0  0  0  0  0  0  0  0
   25.5505  -13.0254  -19.5885 C   0  0  0  0  0  0  0  0  0  0  0  0
   24.1890  -13.6137  -19.8942 C   0  0  0  0  0  0  0  0  0  0  0  0
   24.2934  -14.7412  -20.9054 C   0  0  0  0  0  0  0  0  0  0  0  0
   22.9132  -15.1860  -21.3825 C   0  0  0  0  0  0  0  0  0  0  0  0
   23.1366  -16.3082  -22.2998 N   0  0  0  0  0  0  0  0  0  0  0  0
   25.3369  -12.5031  -17.1640 C   0  0  0  0  0  0  0  0  0  0  0  0
   24.1697  -12.6767  -16.7296 O   0  0  0  0  0  0  0  0  0  0  0  0
   26.5622   -9.7284  -15.0092 C   0  0  0  0  0  0  0  0  0  0  0  0
   25.4750  -10.5543  -15.6622 C   0  0  2  0  0  0  0  0  0  0  0  0
   26.0708  -11.3980  -16.6557 N   0  0  0  0  0  0  0  0  0  0  0  0
   24.3952   -9.6969  -16.2157 C   0  0  0  0  0  0  0  0  0  0  0  0
   24.5223   -9.2832  -17.3905 O   0  0  0  0  0  0  0  0  0  0  0  0
   23.2440   -9.3307  -15.4860 N   0  0  0  0  0  0  0  0  0  0  0  0
   22.2073   -8.4570  -15.9969 C   0  0  1  0  0  0  0  0  0  0  0  0
   20.8789   -9.1922  -15.8135 C   0  0  0  0  0  0  0  0  0  0  0  0
   20.9520  -10.8388  -16.5765 S   0  0  0  0  0  0  0  0  0  0  0  0
   22.1039   -7.1993  -15.2338 C   0  0  0  0  0  0  0  0  0  0  0  0
   22.8209   -7.0387  -14.2267 O   0  0  0  0  0  0  0  0  0  0  0  0
   21.2332   -6.2028  -15.6120 O   0  0  0  0  0  0  0  0  0  0  0  0
  2  1  1  1
  2  8  1  0
  3  2  1  0
  4  3  1  0
  4  5  1  0
  6  5  1  0
  7  6  1  0
  8  9  2  0
 11 10  1  6
 12  8  1  0
 12 11  1  0
 13 11  1  0
 13 15  1  0
 14 13  2  0
 16 19  1  0
 16 15  1  0
 16 17  1  1
 18 17  1  0
 19 21  1  0
 20 19  2  0
M  END
$$$$
