KAC.pdb
     RDKit          3D

 21 20  0  0  1  0  0  0  0  0999 V2000
   30.0568  -36.9739   -8.1347 N   0  0  0  0  0  0  0  0  0  0  0  0
   28.9032  -36.2445   -7.6882 C   0  0  1  0  0  0  0  0  0  0  0  0
   27.6427  -37.0735   -7.8253 C   0  0  0  0  0  0  0  0  0  0  0  0
   27.3130  -37.1222   -9.3024 C   0  0  0  0  0  0  0  0  0  0  0  0
   26.1287  -38.0335   -9.5701 C   0  0  0  0  0  0  0  0  0  0  0  0
   25.8672  -38.1754  -11.0675 C   0  0  0  0  0  0  0  0  0  0  0  0
   24.8069  -39.1788  -11.2068 N   0  0  0  0  0  0  0  0  0  0  0  0
   29.0773  -35.7176   -6.3087 C   0  0  0  0  0  0  0  0  0  0  0  0
   30.0085  -36.1556   -5.5860 O   0  0  0  0  0  0  0  0  0  0  0  0
   27.6627  -32.9985   -4.1911 C   0  0  0  0  0  0  0  0  0  0  0  0
   28.4537  -34.2691   -4.4152 C   0  0  2  0  0  0  0  0  0  0  0  0
   28.2265  -34.7235   -5.7552 N   0  0  0  0  0  0  0  0  0  0  0  0
   28.1264  -35.3030   -3.3995 C   0  0  0  0  0  0  0  0  0  0  0  0
   27.2867  -36.1792   -3.7077 O   0  0  0  0  0  0  0  0  0  0  0  0
   28.7122  -35.3432   -2.1162 N   0  0  0  0  0  0  0  0  0  0  0  0
   28.4017  -36.3455   -1.1171 C   0  0  1  0  0  0  0  0  0  0  0  0
   29.3890  -36.1443    0.0334 C   0  0  0  0  0  0  0  0  0  0  0  0
   31.0967  -36.3497   -0.5500 S   0  0  0  0  0  0  0  0  0  0  0  0
   27.0509  -36.1762   -0.5501 C   0  0  0  0  0  0  0  0  0  0  0  0
   26.4625  -35.0868   -0.6962 O   0  0  0  0  0  0  0  0  0  0  0  0
   26.4298  -37.1954    0.1351 O   0  0  0  0  0  0  0  0  0  0  0  0
  2  1  1  1
  2  8  1  0
  3  2  1  0
  4  3  1  0
  4  5  1  0
  6  5  1  0
  7  6  1  0
  8  9  2  0
 11 10  1  1
 12  8  1  0
 12 11  1  0
 13 11  1  0
 13 15  1  0
 14 13  2  0
 16 19  1  0
 16 15  1  0
 16 17  1  1
 18 17  1  0
 19 21  1  0
 20 19  2  0
M  END
$$$$
