KAC.pdb
     RDKit          3D

 21 20  0  0  1  0  0  0  0  0999 V2000
   26.9551  -28.7018  -16.6741 N   0  0  0  0  0  0  0  0  0  0  0  0
   27.6394  -27.9843  -17.7130 C   0  0  1  0  0  0  0  0  0  0  0  0
   27.1953  -26.5369  -17.7646 C   0  0  0  0  0  0  0  0  0  0  0  0
   25.6839  -26.5490  -17.8569 C   0  0  0  0  0  0  0  0  0  0  0  0
   25.1248  -25.1378  -17.8822 C   0  0  0  0  0  0  0  0  0  0  0  0
   23.6049  -25.1474  -18.0254 C   0  0  0  0  0  0  0  0  0  0  0  0
   23.1665  -23.7586  -17.8530 N   0  0  0  0  0  0  0  0  0  0  0  0
   29.1164  -28.1111  -17.5973 C   0  0  0  0  0  0  0  0  0  0  0  0
   29.6500  -28.1774  -16.4606 O   0  0  0  0  0  0  0  0  0  0  0  0
   31.9636  -29.0495  -19.7233 C   0  0  0  0  0  0  0  0  0  0  0  0
   31.3851  -28.3054  -18.5392 C   0  0  2  0  0  0  0  0  0  0  0  0
   29.9721  -28.1620  -18.7302 N   0  0  0  0  0  0  0  0  0  0  0  0
   32.0667  -27.0025  -18.3263 C   0  0  0  0  0  0  0  0  0  0  0  0
   31.8002  -26.0681  -19.1161 O   0  0  0  0  0  0  0  0  0  0  0  0
   32.9915  -26.7711  -17.2856 N   0  0  0  0  0  0  0  0  0  0  0  0
   33.6146  -25.4886  -17.0286 C   0  0  1  0  0  0  0  0  0  0  0  0
   33.9823  -25.4648  -15.5443 C   0  0  0  0  0  0  0  0  0  0  0  0
   32.4855  -25.3803  -14.5190 S   0  0  0  0  0  0  0  0  0  0  0  0
   34.8719  -25.3127  -17.7790 C   0  0  0  0  0  0  0  0  0  0  0  0
   35.4951  -26.3208  -18.1656 O   0  0  0  0  0  0  0  0  0  0  0  0
   35.3681  -24.0600  -18.0595 O   0  0  0  0  0  0  0  0  0  0  0  0
  2  1  1  1
  2  8  1  0
  3  2  1  0
  4  3  1  0
  4  5  1  0
  6  5  1  0
  7  6  1  0
  8  9  2  0
 11 10  1  6
 12  8  1  0
 12 11  1  0
 13 11  1  0
 13 15  1  0
 14 13  2  0
 16 19  1  0
 16 15  1  0
 16 17  1  1
 18 17  1  0
 19 21  1  0
 20 19  2  0
M  END
$$$$
