WGR.pdb
     RDKit          3D

 30 31  0  0  1  0  0  0  0  0999 V2000
    9.8191  -15.5288   21.8418 N   0  0  0  0  0  0  0  0  0  0  0  0
    9.3351  -15.9071   23.1736 C   0  0  1  0  0  0  0  0  0  0  0  0
    7.8606  -15.7740   23.3221 C   0  0  0  0  0  0  0  0  0  0  0  0
    7.4832  -14.3446   23.2413 C   0  0  0  0  0  0  0  0  0  0  0  0
    7.1115  -13.5850   22.1578 C   0  0  0  0  0  0  0  0  0  0  0  0
    6.8158  -12.3361   22.5273 N   0  0  0  0  0  0  0  0  0  0  0  0
    6.9998  -12.2861   23.8737 C   0  0  0  0  0  0  0  0  0  0  0  0
    6.8362  -11.2533   24.7759 C   0  0  0  0  0  0  0  0  0  0  0  0
    7.0743  -11.4249   26.1148 C   0  0  0  0  0  0  0  0  0  0  0  0
    7.4859  -12.6532   26.5689 C   0  0  0  0  0  0  0  0  0  0  0  0
    7.6589  -13.6992   25.7015 C   0  0  0  0  0  0  0  0  0  0  0  0
    7.4116  -13.5093   24.3411 C   0  0  0  0  0  0  0  0  0  0  0  0
    9.7040  -17.3480   23.4097 C   0  0  0  0  0  0  0  0  0  0  0  0
    9.9878  -18.1712   22.5198 O   0  0  0  0  0  0  0  0  0  0  0  0
    9.7222  -17.7943   24.7746 N   0  0  0  0  0  0  0  0  0  0  0  0
   10.2297  -19.1074   25.0467 C   0  0  0  0  0  0  0  0  0  0  0  0
   11.4492  -19.1856   25.8400 C   0  0  0  0  0  0  0  0  0  0  0  0
   11.9625  -18.0767   26.2408 O   0  0  0  0  0  0  0  0  0  0  0  0
   13.6401  -21.5608   33.1898 N   0  0  0  0  0  0  0  0  0  0  0  0
   12.7316  -22.4544   32.5612 C   0  0  0  0  0  0  0  0  0  0  0  0
   12.3491  -23.4624   33.2934 N   0  0  0  0  0  0  0  0  0  0  0  0
   12.2820  -22.2506   31.2343 N   0  0  0  0  0  0  0  0  0  0  0  0
   13.2286  -22.0484   30.1558 C   0  0  0  0  0  0  0  0  0  0  0  0
   12.5124  -21.9469   28.8175 C   0  0  0  0  0  0  0  0  0  0  0  0
   13.4727  -21.7503   27.6848 C   0  0  0  0  0  0  0  0  0  0  0  0
   13.2841  -20.4101   27.0707 C   0  0  2  0  0  0  0  0  0  0  0  0
   12.0989  -20.3863   26.1901 N   0  0  0  0  0  0  0  0  0  0  0  0
   14.4833  -19.9830   26.2841 C   0  0  0  0  0  0  0  0  0  0  0  0
   14.5720  -20.3298   25.0977 O   0  0  0  0  0  0  0  0  0  0  0  0
   15.4779  -19.2214   26.8509 O   0  0  0  0  0  0  0  0  0  0  0  0
  2  1  1  6
  2  3  1  0
  3  4  1  0
  4 12  1  0
  4  5  2  0
  5  6  1  0
  7  8  2  0
  7  6  1  0
  9  8  1  0
 10  9  2  0
 11 10  1  0
 11 12  2  0
 12  7  1  0
 13 14  2  0
 13  2  1  0
 15 13  1  0
 16 15  1  0
 17 16  1  0
 18 17  2  0
 20 19  1  0
 21 20  2  0
 22 20  1  0
 23 24  1  0
 23 22  1  0
 26 25  1  6
 25 24  1  0
 26 27  1  0
 27 17  1  0
 28 26  1  0
 29 28  2  0
 30 28  1  0
M  END
$$$$
