WGR.pdb
     RDKit          3D

 30 31  0  0  1  0  0  0  0  0999 V2000
    8.0892  -16.4699   23.8645 N   0  0  0  0  0  0  0  0  0  0  0  0
    9.2796  -15.8577   24.4638 C   0  0  1  0  0  0  0  0  0  0  0  0
    9.1682  -15.6762   25.9364 C   0  0  0  0  0  0  0  0  0  0  0  0
    7.8870  -15.0063   26.2558 C   0  0  0  0  0  0  0  0  0  0  0  0
    6.6575  -15.5411   26.5584 C   0  0  0  0  0  0  0  0  0  0  0  0
    5.7682  -14.5795   26.8197 N   0  0  0  0  0  0  0  0  0  0  0  0
    6.4335  -13.4014   26.6834 C   0  0  0  0  0  0  0  0  0  0  0  0
    6.0118  -12.0957   26.8405 C   0  0  0  0  0  0  0  0  0  0  0  0
    6.8652  -11.0386   26.6584 C   0  0  0  0  0  0  0  0  0  0  0  0
    8.1701  -11.2847   26.3107 C   0  0  0  0  0  0  0  0  0  0  0  0
    8.6217  -12.5674   26.1460 C   0  0  0  0  0  0  0  0  0  0  0  0
    7.7411  -13.6334   26.3359 C   0  0  0  0  0  0  0  0  0  0  0  0
   10.4541  -16.7590   24.1879 C   0  0  0  0  0  0  0  0  0  0  0  0
   11.6057  -16.5929   24.6311 O   0  0  0  0  0  0  0  0  0  0  0  0
   10.2121  -17.8940   23.3420 N   0  0  0  0  0  0  0  0  0  0  0  0
   11.2969  -18.3787   22.5394 C   0  0  0  0  0  0  0  0  0  0  0  0
   11.7892  -17.4867   21.4979 C   0  0  0  0  0  0  0  0  0  0  0  0
   12.6582  -17.9627   20.6781 O   0  0  0  0  0  0  0  0  0  0  0  0
    8.0690  -15.4561   16.8566 N   0  0  0  0  0  0  0  0  0  0  0  0
    8.3474  -14.1887   16.2775 C   0  0  0  0  0  0  0  0  0  0  0  0
    8.5479  -14.1993   14.9899 N   0  0  0  0  0  0  0  0  0  0  0  0
    8.3988  -13.0075   17.0563 N   0  0  0  0  0  0  0  0  0  0  0  0
    8.8346  -13.0511   18.4378 C   0  0  0  0  0  0  0  0  0  0  0  0
   10.0712  -13.9242   18.5891 C   0  0  0  0  0  0  0  0  0  0  0  0
   10.1030  -14.6208   19.9148 C   0  0  0  0  0  0  0  0  0  0  0  0
   11.2897  -15.5110   20.0054 C   0  0  2  0  0  0  0  0  0  0  0  0
   11.3817  -16.1475   21.3348 N   0  0  0  0  0  0  0  0  0  0  0  0
   12.5625  -14.7739   19.7298 C   0  0  0  0  0  0  0  0  0  0  0  0
   12.7211  -14.2549   18.6157 O   0  0  0  0  0  0  0  0  0  0  0  0
   13.5484  -14.6655   20.6821 O   0  0  0  0  0  0  0  0  0  0  0  0
  2  1  1  1
  2  3  1  0
  3  4  1  0
  4 12  1  0
  4  5  2  0
  5  6  1  0
  7  8  2  0
  7  6  1  0
  9  8  1  0
 10  9  2  0
 11 10  1  0
 11 12  2  0
 12  7  1  0
 13 14  2  0
 13  2  1  0
 15 13  1  0
 16 15  1  0
 17 16  1  0
 18 17  2  0
 20 19  1  0
 21 20  2  0
 22 20  1  0
 23 24  1  0
 23 22  1  0
 26 25  1  1
 25 24  1  0
 26 27  1  0
 27 17  1  0
 28 26  1  0
 29 28  2  0
 30 28  1  0
M  END
$$$$
