WGR.pdb
     RDKit          3D

 30 31  0  0  1  0  0  0  0  0999 V2000
    8.6360  -16.8048   22.9586 N   0  0  0  0  0  0  0  0  0  0  0  0
    9.2756  -16.1329   24.0947 C   0  0  1  0  0  0  0  0  0  0  0  0
    8.3498  -15.8997   25.2359 C   0  0  0  0  0  0  0  0  0  0  0  0
    7.4708  -14.7478   24.9313 C   0  0  0  0  0  0  0  0  0  0  0  0
    6.3906  -14.6551   24.0865 C   0  0  0  0  0  0  0  0  0  0  0  0
    5.8510  -13.4342   24.1313 N   0  0  0  0  0  0  0  0  0  0  0  0
    6.5953  -12.7238   25.0204 C   0  0  0  0  0  0  0  0  0  0  0  0
    6.4868  -11.4186   25.4590 C   0  0  0  0  0  0  0  0  0  0  0  0
    7.3547  -10.8970   26.3828 C   0  0  0  0  0  0  0  0  0  0  0  0
    8.3560  -11.6915   26.8831 C   0  0  0  0  0  0  0  0  0  0  0  0
    8.4930  -12.9902   26.4696 C   0  0  0  0  0  0  0  0  0  0  0  0
    7.6009  -13.5075   25.5290 C   0  0  0  0  0  0  0  0  0  0  0  0
   10.4046  -17.0061   24.5751 C   0  0  0  0  0  0  0  0  0  0  0  0
   11.3163  -16.6432   25.3414 O   0  0  0  0  0  0  0  0  0  0  0  0
   10.4195  -18.3613   24.1002 N   0  0  0  0  0  0  0  0  0  0  0  0
   11.3852  -19.2605   24.6613 C   0  0  0  0  0  0  0  0  0  0  0  0
   11.6094  -19.1660   26.0977 C   0  0  0  0  0  0  0  0  0  0  0  0
   11.7371  -17.9878   26.5970 O   0  0  0  0  0  0  0  0  0  0  0  0
   10.3959  -25.3285   30.5357 N   0  0  0  0  0  0  0  0  0  0  0  0
   10.5904  -25.2781   29.1290 C   0  0  0  0  0  0  0  0  0  0  0  0
    9.7310  -25.9599   28.4256 N   0  0  0  0  0  0  0  0  0  0  0  0
   11.6460  -24.5350   28.5479 N   0  0  0  0  0  0  0  0  0  0  0  0
   12.5339  -23.7417   29.3740 C   0  0  0  0  0  0  0  0  0  0  0  0
   12.7590  -22.3667   28.7631 C   0  0  0  0  0  0  0  0  0  0  0  0
   11.6698  -21.4073   29.1330 C   0  0  0  0  0  0  0  0  0  0  0  0
   11.8557  -20.1130   28.4266 C   0  0  2  0  0  0  0  0  0  0  0  0
   11.6987  -20.2719   26.9668 N   0  0  0  0  0  0  0  0  0  0  0  0
   13.1961  -19.5106   28.7090 C   0  0  0  0  0  0  0  0  0  0  0  0
   14.0130  -19.4141   27.7822 O   0  0  0  0  0  0  0  0  0  0  0  0
   13.5324  -19.0686   29.9668 O   0  0  0  0  0  0  0  0  0  0  0  0
  2  1  1  6
  2  3  1  0
  3  4  1  0
  4 12  1  0
  4  5  2  0
  5  6  1  0
  7  8  2  0
  7  6  1  0
  9  8  1  0
 10  9  2  0
 11 10  1  0
 11 12  2  0
 12  7  1  0
 13 14  2  0
 13  2  1  0
 15 13  1  0
 16 15  1  0
 17 16  1  0
 18 17  2  0
 20 19  1  0
 21 20  2  0
 22 20  1  0
 23 24  1  0
 23 22  1  0
 26 25  1  1
 25 24  1  0
 26 27  1  0
 27 17  1  0
 28 26  1  0
 29 28  2  0
 30 28  1  0
M  END
$$$$
