WGR.pdb
     RDKit          3D

 30 31  0  0  1  0  0  0  0  0999 V2000
    6.3257  -16.1257   22.1960 N   0  0  0  0  0  0  0  0  0  0  0  0
    7.6371  -15.5384   22.4901 C   0  0  1  0  0  0  0  0  0  0  0  0
    8.1052  -15.8114   23.8758 C   0  0  0  0  0  0  0  0  0  0  0  0
    7.2146  -15.1282   24.8415 C   0  0  0  0  0  0  0  0  0  0  0  0
    6.1177  -15.5986   25.5230 C   0  0  0  0  0  0  0  0  0  0  0  0
    5.6164  -14.6598   26.3300 N   0  0  0  0  0  0  0  0  0  0  0  0
    6.4024  -13.5621   26.1676 C   0  0  0  0  0  0  0  0  0  0  0  0
    6.3514  -12.3126   26.7538 C   0  0  0  0  0  0  0  0  0  0  0  0
    7.2638  -11.3372   26.4460 C   0  0  0  0  0  0  0  0  0  0  0  0
    8.2514  -11.6095   25.5324 C   0  0  0  0  0  0  0  0  0  0  0  0
    8.3311  -12.8379   24.9315 C   0  0  0  0  0  0  0  0  0  0  0  0
    7.3953  -13.8213   25.2559 C   0  0  0  0  0  0  0  0  0  0  0  0
    8.6363  -16.1292   21.5306 C   0  0  0  0  0  0  0  0  0  0  0  0
    8.3530  -16.7026   20.4624 O   0  0  0  0  0  0  0  0  0  0  0  0
   10.0218  -16.0177   21.8916 N   0  0  0  0  0  0  0  0  0  0  0  0
   11.0008  -16.4940   20.9587 C   0  0  0  0  0  0  0  0  0  0  0  0
   12.3979  -16.2669   21.3040 C   0  0  0  0  0  0  0  0  0  0  0  0
   13.0249  -15.3547   20.6494 O   0  0  0  0  0  0  0  0  0  0  0  0
   11.4209  -18.9568   23.4090 N   0  0  0  0  0  0  0  0  0  0  0  0
   10.9666  -18.6827   24.7272 C   0  0  0  0  0  0  0  0  0  0  0  0
    9.9157  -19.3557   25.1027 N   0  0  0  0  0  0  0  0  0  0  0  0
   11.6200  -17.7440   25.5616 N   0  0  0  0  0  0  0  0  0  0  0  0
   13.0312  -17.8786   25.8624 C   0  0  0  0  0  0  0  0  0  0  0  0
   13.8268  -16.7329   25.2552 C   0  0  0  0  0  0  0  0  0  0  0  0
   14.7031  -17.1963   24.1322 C   0  0  0  0  0  0  0  0  0  0  0  0
   14.3631  -16.4765   22.8771 C   0  0  2  0  0  0  0  0  0  0  0  0
   13.1013  -16.9782   22.2968 N   0  0  0  0  0  0  0  0  0  0  0  0
   15.4495  -16.5941   21.8547 C   0  0  0  0  0  0  0  0  0  0  0  0
   15.3128  -17.4093   20.9313 O   0  0  0  0  0  0  0  0  0  0  0  0
   16.5848  -15.8216   21.9233 O   0  0  0  0  0  0  0  0  0  0  0  0
  2  1  1  1
  2  3  1  0
  3  4  1  0
  4 12  1  0
  4  5  2  0
  5  6  1  0
  7  8  2  0
  7  6  1  0
  9  8  1  0
 10  9  2  0
 11 10  1  0
 11 12  2  0
 12  7  1  0
 13 14  2  0
 13  2  1  0
 15 13  1  0
 16 15  1  0
 17 16  1  0
 18 17  2  0
 20 19  1  0
 21 20  2  0
 22 20  1  0
 23 24  1  0
 23 22  1  0
 26 25  1  1
 25 24  1  0
 26 27  1  0
 27 17  1  0
 28 26  1  0
 29 28  2  0
 30 28  1  0
M  END
$$$$
