WGR.pdb
     RDKit          3D

 30 31  0  0  1  0  0  0  0  0999 V2000
    7.0501  -17.8473   23.9004 N   0  0  0  0  0  0  0  0  0  0  0  0
    7.7404  -16.6394   23.4360 C   0  0  1  0  0  0  0  0  0  0  0  0
    8.4492  -15.9132   24.5242 C   0  0  0  0  0  0  0  0  0  0  0  0
    7.4571  -15.3036   25.4387 C   0  0  0  0  0  0  0  0  0  0  0  0
    6.5199  -15.8944   26.2522 C   0  0  0  0  0  0  0  0  0  0  0  0
    5.8427  -14.9769   26.9475 N   0  0  0  0  0  0  0  0  0  0  0  0
    6.3501  -13.7708   26.5772 C   0  0  0  0  0  0  0  0  0  0  0  0
    6.0325  -12.4885   26.9800 C   0  0  0  0  0  0  0  0  0  0  0  0
    6.6863  -11.3946   26.4753 C   0  0  0  0  0  0  0  0  0  0  0  0
    7.6801  -11.5790   25.5466 C   0  0  0  0  0  0  0  0  0  0  0  0
    8.0203  -12.8370   25.1244 C   0  0  0  0  0  0  0  0  0  0  0  0
    7.3461  -13.9411   25.6482 C   0  0  0  0  0  0  0  0  0  0  0  0
    8.7578  -17.0532   22.4056 C   0  0  0  0  0  0  0  0  0  0  0  0
    9.0168  -18.2278   22.0842 O   0  0  0  0  0  0  0  0  0  0  0  0
    9.4813  -15.9983   21.7529 N   0  0  0  0  0  0  0  0  0  0  0  0
   10.4201  -16.3582   20.7308 C   0  0  0  0  0  0  0  0  0  0  0  0
   11.7268  -16.8227   21.1773 C   0  0  0  0  0  0  0  0  0  0  0  0
   12.6322  -16.9851   20.2785 O   0  0  0  0  0  0  0  0  0  0  0  0
   10.4855  -22.0687   21.9074 N   0  0  0  0  0  0  0  0  0  0  0  0
   10.8385  -21.8308   23.2631 C   0  0  0  0  0  0  0  0  0  0  0  0
    9.8340  -21.6819   24.0798 N   0  0  0  0  0  0  0  0  0  0  0  0
   12.1893  -21.7642   23.6818 N   0  0  0  0  0  0  0  0  0  0  0  0
   12.9561  -20.5459   23.5141 C   0  0  0  0  0  0  0  0  0  0  0  0
   12.9023  -20.0654   22.0717 C   0  0  0  0  0  0  0  0  0  0  0  0
   13.6929  -18.8088   21.8729 C   0  0  0  0  0  0  0  0  0  0  0  0
   13.3141  -17.7908   22.8873 C   0  0  2  0  0  0  0  0  0  0  0  0
   12.0587  -17.1069   22.5172 N   0  0  0  0  0  0  0  0  0  0  0  0
   14.3883  -16.7664   23.0779 C   0  0  0  0  0  0  0  0  0  0  0  0
   14.8065  -16.1504   22.0873 O   0  0  0  0  0  0  0  0  0  0  0  0
   14.9136  -16.5017   24.3207 O   0  0  0  0  0  0  0  0  0  0  0  0
  2  1  1  1
  2  3  1  0
  3  4  1  0
  4 12  1  0
  4  5  2  0
  5  6  1  0
  7  8  2  0
  7  6  1  0
  9  8  1  0
 10  9  2  0
 11 10  1  0
 11 12  2  0
 12  7  1  0
 13 14  2  0
 13  2  1  0
 15 13  1  0
 16 15  1  0
 17 16  1  0
 18 17  2  0
 20 19  1  0
 21 20  2  0
 22 20  1  0
 23 24  1  0
 23 22  1  0
 26 25  1  6
 25 24  1  0
 26 27  1  0
 27 17  1  0
 28 26  1  0
 29 28  2  0
 30 28  1  0
M  END
$$$$
