WGR.pdb
     RDKit          3D

 30 31  0  0  1  0  0  0  0  0999 V2000
    6.6588  -17.4306   26.4895 N   0  0  0  0  0  0  0  0  0  0  0  0
    6.9036  -16.5618   25.3336 C   0  0  1  0  0  0  0  0  0  0  0  0
    8.2188  -15.8680   25.3887 C   0  0  0  0  0  0  0  0  0  0  0  0
    8.2028  -14.8651   26.4778 C   0  0  0  0  0  0  0  0  0  0  0  0
    8.8481  -14.8629   27.6913 C   0  0  0  0  0  0  0  0  0  0  0  0
    8.5895  -13.7415   28.3692 N   0  0  0  0  0  0  0  0  0  0  0  0
    7.7618  -13.0050   27.5807 C   0  0  0  0  0  0  0  0  0  0  0  0
    7.1874  -11.7641   27.7749 C   0  0  0  0  0  0  0  0  0  0  0  0
    6.3757  -11.1927   26.8297 C   0  0  0  0  0  0  0  0  0  0  0  0
    6.1278  -11.8712   25.6625 C   0  0  0  0  0  0  0  0  0  0  0  0
    6.6806  -13.1041   25.4375 C   0  0  0  0  0  0  0  0  0  0  0  0
    7.5059  -13.6726   26.4090 C   0  0  0  0  0  0  0  0  0  0  0  0
    6.8742  -17.4176   24.0948 C   0  0  0  0  0  0  0  0  0  0  0  0
    6.0207  -18.2889   23.8446 O   0  0  0  0  0  0  0  0  0  0  0  0
    7.9223  -17.2029   23.1368 N   0  0  0  0  0  0  0  0  0  0  0  0
    7.5482  -16.8765   21.7917 C   0  0  0  0  0  0  0  0  0  0  0  0
    8.6316  -16.7344   20.8279 C   0  0  0  0  0  0  0  0  0  0  0  0
    8.9044  -17.7551   20.0947 O   0  0  0  0  0  0  0  0  0  0  0  0
    8.8319  -12.9689   15.1168 N   0  0  0  0  0  0  0  0  0  0  0  0
    7.9035  -13.8255   15.7674 C   0  0  0  0  0  0  0  0  0  0  0  0
    7.5261  -14.8627   15.0744 N   0  0  0  0  0  0  0  0  0  0  0  0
    7.4322  -13.5590   17.0755 N   0  0  0  0  0  0  0  0  0  0  0  0
    8.3390  -13.5753   18.2058 C   0  0  0  0  0  0  0  0  0  0  0  0
    9.6261  -14.3080   17.8579 C   0  0  0  0  0  0  0  0  0  0  0  0
   10.6163  -14.2592   18.9807 C   0  0  0  0  0  0  0  0  0  0  0  0
   10.5754  -15.5214   19.7645 C   0  0  2  0  0  0  0  0  0  0  0  0
    9.3954  -15.5632   20.6515 N   0  0  0  0  0  0  0  0  0  0  0  0
   11.8105  -15.7065   20.5888 C   0  0  0  0  0  0  0  0  0  0  0  0
   12.9098  -15.7329   20.0173 O   0  0  0  0  0  0  0  0  0  0  0  0
   11.7457  -15.8475   21.9550 O   0  0  0  0  0  0  0  0  0  0  0  0
  2  1  1  1
  2  3  1  0
  3  4  1  0
  4 12  1  0
  4  5  2  0
  5  6  1  0
  7  8  2  0
  7  6  1  0
  9  8  1  0
 10  9  2  0
 11 10  1  0
 11 12  2  0
 12  7  1  0
 13 14  2  0
 13  2  1  0
 15 13  1  0
 16 15  1  0
 17 16  1  0
 18 17  2  0
 20 19  1  0
 21 20  2  0
 22 20  1  0
 23 24  1  0
 23 22  1  0
 26 25  1  1
 25 24  1  0
 26 27  1  0
 27 17  1  0
 28 26  1  0
 29 28  2  0
 30 28  1  0
M  END
$$$$
