WGR.pdb
     RDKit          3D

 30 31  0  0  1  0  0  0  0  0999 V2000
    7.7072  -16.9889   23.1079 N   0  0  0  0  0  0  0  0  0  0  0  0
    8.4262  -15.7159   23.2239 C   0  0  1  0  0  0  0  0  0  0  0  0
    8.7449  -15.3475   24.6298 C   0  0  0  0  0  0  0  0  0  0  0  0
    7.5300  -14.8159   25.2885 C   0  0  0  0  0  0  0  0  0  0  0  0
    6.4739  -15.4772   25.8684 C   0  0  0  0  0  0  0  0  0  0  0  0
    5.5940  -14.6149   26.3843 N   0  0  0  0  0  0  0  0  0  0  0  0
    6.0890  -13.3735   26.1334 C   0  0  0  0  0  0  0  0  0  0  0  0
    5.6004  -12.1198   26.4449 C   0  0  0  0  0  0  0  0  0  0  0  0
    6.2761  -10.9790   26.0974 C   0  0  0  0  0  0  0  0  0  0  0  0
    7.4668  -11.0861   25.4229 C   0  0  0  0  0  0  0  0  0  0  0  0
    7.9801  -12.3137   25.0975 C   0  0  0  0  0  0  0  0  0  0  0  0
    7.2810  -13.4664   25.4589 C   0  0  0  0  0  0  0  0  0  0  0  0
    9.7209  -15.8431   22.4653 C   0  0  0  0  0  0  0  0  0  0  0  0
   10.5828  -14.9505   22.3621 O   0  0  0  0  0  0  0  0  0  0  0  0
    9.9654  -17.0981   21.8114 N   0  0  0  0  0  0  0  0  0  0  0  0
   11.1673  -17.2330   21.0414 C   0  0  0  0  0  0  0  0  0  0  0  0
   12.4176  -17.2961   21.7866 C   0  0  0  0  0  0  0  0  0  0  0  0
   12.7701  -18.4435   22.2482 O   0  0  0  0  0  0  0  0  0  0  0  0
   10.1229  -18.0594   28.2475 N   0  0  0  0  0  0  0  0  0  0  0  0
   10.9518  -16.9155   28.0943 C   0  0  0  0  0  0  0  0  0  0  0  0
   10.8109  -16.0015   29.0124 N   0  0  0  0  0  0  0  0  0  0  0  0
   11.8618  -16.7923   27.0167 N   0  0  0  0  0  0  0  0  0  0  0  0
   12.7491  -15.6501   26.9253 C   0  0  0  0  0  0  0  0  0  0  0  0
   13.7095  -15.8018   25.7553 C   0  0  0  0  0  0  0  0  0  0  0  0
   12.9857  -15.8766   24.4460 C   0  0  0  0  0  0  0  0  0  0  0  0
   13.9524  -16.0081   23.3248 C   0  0  2  0  0  0  0  0  0  0  0  0
   13.2560  -16.1909   22.0355 N   0  0  0  0  0  0  0  0  0  0  0  0
   14.8971  -17.1497   23.5336 C   0  0  0  0  0  0  0  0  0  0  0  0
   16.0543  -16.9053   23.9035 O   0  0  0  0  0  0  0  0  0  0  0  0
   14.5062  -18.4510   23.3229 O   0  0  0  0  0  0  0  0  0  0  0  0
  2  1  1  1
  2  3  1  0
  3  4  1  0
  4 12  1  0
  4  5  2  0
  5  6  1  0
  7  8  2  0
  7  6  1  0
  9  8  1  0
 10  9  2  0
 11 10  1  0
 11 12  2  0
 12  7  1  0
 13 14  2  0
 13  2  1  0
 15 13  1  0
 16 15  1  0
 17 16  1  0
 18 17  2  0
 20 19  1  0
 21 20  2  0
 22 20  1  0
 23 24  1  0
 23 22  1  0
 26 25  1  1
 25 24  1  0
 26 27  1  0
 27 17  1  0
 28 26  1  0
 29 28  2  0
 30 28  1  0
M  END
$$$$
