WGR.pdb
     RDKit          3D

 30 31  0  0  1  0  0  0  0  0999 V2000
    9.5532  -15.5672   20.6892 N   0  0  0  0  0  0  0  0  0  0  0  0
    9.2610  -16.0193   22.0534 C   0  0  1  0  0  0  0  0  0  0  0  0
    7.8338  -15.8453   22.4366 C   0  0  0  0  0  0  0  0  0  0  0  0
    7.5431  -14.4048   22.6173 C   0  0  0  0  0  0  0  0  0  0  0  0
    7.4201  -13.4010   21.6865 C   0  0  0  0  0  0  0  0  0  0  0  0
    7.1151  -12.2399   22.2719 N   0  0  0  0  0  0  0  0  0  0  0  0
    7.0398  -12.4965   23.6051 C   0  0  0  0  0  0  0  0  0  0  0  0
    6.7526  -11.6715   24.6749 C   0  0  0  0  0  0  0  0  0  0  0  0
    6.7218  -12.1467   25.9602 C   0  0  0  0  0  0  0  0  0  0  0  0
    6.9835  -13.4747   26.1887 C   0  0  0  0  0  0  0  0  0  0  0  0
    7.2726  -14.3208   25.1510 C   0  0  0  0  0  0  0  0  0  0  0  0
    7.2993  -13.8224   23.8476 C   0  0  0  0  0  0  0  0  0  0  0  0
    9.5962  -17.4850   22.1387 C   0  0  0  0  0  0  0  0  0  0  0  0
    9.4841  -18.3022   21.2061 O   0  0  0  0  0  0  0  0  0  0  0  0
   10.0789  -17.9643   23.4035 N   0  0  0  0  0  0  0  0  0  0  0  0
   11.3412  -18.6438   23.4286 C   0  0  0  0  0  0  0  0  0  0  0  0
   11.8093  -19.1059   24.7285 C   0  0  0  0  0  0  0  0  0  0  0  0
   12.9310  -19.7341   24.7606 O   0  0  0  0  0  0  0  0  0  0  0  0
    9.7458  -14.3814   26.6787 N   0  0  0  0  0  0  0  0  0  0  0  0
    9.8349  -14.3771   28.0969 C   0  0  0  0  0  0  0  0  0  0  0  0
   10.1056  -13.2201   28.6320 N   0  0  0  0  0  0  0  0  0  0  0  0
    9.6400  -15.5533   28.8604 N   0  0  0  0  0  0  0  0  0  0  0  0
   10.7726  -16.3180   29.3424 C   0  0  0  0  0  0  0  0  0  0  0  0
   11.3876  -17.1417   28.2209 C   0  0  0  0  0  0  0  0  0  0  0  0
   11.0787  -18.6002   28.3665 C   0  0  0  0  0  0  0  0  0  0  0  0
   11.6612  -19.3698   27.2364 C   0  0  2  0  0  0  0  0  0  0  0  0
   11.1172  -18.9144   25.9412 N   0  0  0  0  0  0  0  0  0  0  0  0
   11.4164  -20.8394   27.3772 C   0  0  0  0  0  0  0  0  0  0  0  0
   10.7507  -21.4185   26.5071 O   0  0  0  0  0  0  0  0  0  0  0  0
   11.9119  -21.5492   28.4455 O   0  0  0  0  0  0  0  0  0  0  0  0
  2  1  1  6
  2  3  1  0
  3  4  1  0
  4 12  1  0
  4  5  2  0
  5  6  1  0
  7  8  2  0
  7  6  1  0
  9  8  1  0
 10  9  2  0
 11 10  1  0
 11 12  2  0
 12  7  1  0
 13 14  2  0
 13  2  1  0
 15 13  1  0
 16 15  1  0
 17 16  1  0
 18 17  2  0
 20 19  1  0
 21 20  2  0
 22 20  1  0
 23 24  1  0
 23 22  1  0
 26 25  1  1
 25 24  1  0
 26 27  1  0
 27 17  1  0
 28 26  1  0
 29 28  2  0
 30 28  1  0
M  END
$$$$
