WGR.pdb
     RDKit          3D

 30 31  0  0  1  0  0  0  0  0999 V2000
    6.8151  -18.2578   25.8166 N   0  0  0  0  0  0  0  0  0  0  0  0
    7.2134  -17.5097   24.6197 C   0  0  1  0  0  0  0  0  0  0  0  0
    6.6656  -16.1268   24.5823 C   0  0  0  0  0  0  0  0  0  0  0  0
    7.1474  -15.3727   25.7618 C   0  0  0  0  0  0  0  0  0  0  0  0
    7.8189  -15.8079   26.8794 C   0  0  0  0  0  0  0  0  0  0  0  0
    8.1014  -14.7890   27.6954 N   0  0  0  0  0  0  0  0  0  0  0  0
    7.6035  -13.6747   27.0958 C   0  0  0  0  0  0  0  0  0  0  0  0
    7.6155  -12.3499   27.4861 C   0  0  0  0  0  0  0  0  0  0  0  0
    7.0520  -11.3684   26.7129 C   0  0  0  0  0  0  0  0  0  0  0  0
    6.4612  -11.7114   25.5224 C   0  0  0  0  0  0  0  0  0  0  0  0
    6.4308  -13.0157   25.1051 C   0  0  0  0  0  0  0  0  0  0  0  0
    7.0096  -14.0039   25.9029 C   0  0  0  0  0  0  0  0  0  0  0  0
    8.7167  -17.4213   24.6062 C   0  0  0  0  0  0  0  0  0  0  0  0
    9.4507  -17.5252   25.6066 O   0  0  0  0  0  0  0  0  0  0  0  0
    9.3387  -17.1954   23.3316 N   0  0  0  0  0  0  0  0  0  0  0  0
   10.7703  -17.2368   23.2645 C   0  0  0  0  0  0  0  0  0  0  0  0
   11.3714  -16.9848   21.9615 C   0  0  0  0  0  0  0  0  0  0  0  0
   11.3524  -17.9472   21.1087 O   0  0  0  0  0  0  0  0  0  0  0  0
    6.8814  -14.1512   17.6723 N   0  0  0  0  0  0  0  0  0  0  0  0
    8.2156  -13.6647   17.6248 C   0  0  0  0  0  0  0  0  0  0  0  0
    8.3357  -12.4049   17.3137 N   0  0  0  0  0  0  0  0  0  0  0  0
    9.3249  -14.5005   17.8994 N   0  0  0  0  0  0  0  0  0  0  0  0
    9.5429  -15.0255   19.2324 C   0  0  0  0  0  0  0  0  0  0  0  0
   10.4217  -14.0884   20.0473 C   0  0  0  0  0  0  0  0  0  0  0  0
   11.8686  -14.2248   19.6846 C   0  0  0  0  0  0  0  0  0  0  0  0
   12.4131  -15.5101   20.1949 C   0  0  2  0  0  0  0  0  0  0  0  0
   11.9702  -15.7674   21.5799 N   0  0  0  0  0  0  0  0  0  0  0  0
   13.9085  -15.5401   20.1487 C   0  0  0  0  0  0  0  0  0  0  0  0
   14.4707  -15.5345   19.0444 O   0  0  0  0  0  0  0  0  0  0  0  0
   14.6604  -15.5745   21.2994 O   0  0  0  0  0  0  0  0  0  0  0  0
  2  1  1  1
  2  3  1  0
  3  4  1  0
  4 12  1  0
  4  5  2  0
  5  6  1  0
  7  8  2  0
  7  6  1  0
  9  8  1  0
 10  9  2  0
 11 10  1  0
 11 12  2  0
 12  7  1  0
 13 14  2  0
 13  2  1  0
 15 13  1  0
 16 15  1  0
 17 16  1  0
 18 17  2  0
 20 19  1  0
 21 20  2  0
 22 20  1  0
 23 24  1  0
 23 22  1  0
 26 25  1  1
 25 24  1  0
 26 27  1  0
 27 17  1  0
 28 26  1  0
 29 28  2  0
 30 28  1  0
M  END
$$$$
