EFG.pdb
     RDKit          3D

 25 25  0  0  1  0  0  0  0  0999 V2000
    7.6585  -13.7134   19.9235 N   0  0  0  0  0  0  0  0  0  0  0  0
    7.3237  -14.8547   20.7531 C   0  0  1  0  0  0  0  0  0  0  0  0
    7.5909  -16.1387   20.0001 C   0  0  0  0  0  0  0  0  0  0  0  0
    6.9559  -16.1425   18.6432 C   0  0  0  0  0  0  0  0  0  0  0  0
    7.0470  -17.4866   18.0324 C   0  0  0  0  0  0  0  0  0  0  0  0
    7.7587  -17.6675   17.0071 O   0  0  0  0  0  0  0  0  0  0  0  0
    8.1382  -14.7877   22.0066 C   0  0  0  0  0  0  0  0  0  0  0  0
    9.2301  -14.1676   22.0097 O   0  0  0  0  0  0  0  0  0  0  0  0
    6.3660  -18.5725   18.5561 O   0  0  0  0  0  0  0  0  0  0  0  0
    7.7149  -15.4091   23.2112 N   0  0  0  0  0  0  0  0  0  0  0  0
    8.4180  -15.3772   24.4675 C   0  0  1  0  0  0  0  0  0  0  0  0
    7.5028  -15.2927   25.6892 C   0  0  0  0  0  0  0  0  0  0  0  0
    7.2849  -13.8898   26.1339 C   0  0  0  0  0  0  0  0  0  0  0  0
    8.2492  -13.0670   26.6540 C   0  0  0  0  0  0  0  0  0  0  0  0
    7.9706  -11.7678   27.0606 C   0  0  0  0  0  0  0  0  0  0  0  0
    6.7008  -11.2548   26.9538 C   0  0  0  0  0  0  0  0  0  0  0  0
    5.7380  -12.0718   26.4358 C   0  0  0  0  0  0  0  0  0  0  0  0
    5.9927  -13.3476   26.0323 C   0  0  0  0  0  0  0  0  0  0  0  0
    9.4242  -16.4478   24.6058 C   0  0  0  0  0  0  0  0  0  0  0  0
    9.0486  -17.5985   24.9634 O   0  0  0  0  0  0  0  0  0  0  0  0
   10.8038  -16.2679   24.3603 N   0  0  0  0  0  0  0  0  0  0  0  0
   11.7433  -17.4008   24.3791 C   0  0  0  0  0  0  0  0  0  0  0  0
   13.1396  -16.9119   24.2758 C   0  0  0  0  0  0  0  0  0  0  0  0
   13.4886  -16.2318   23.2874 O   0  0  0  0  0  0  0  0  0  0  0  0
   14.0600  -17.2019   25.2639 O   0  0  0  0  0  0  0  0  0  0  0  0
  2  1  1  6
  2  7  1  0
  3  2  1  0
  4  3  1  0
  5  4  1  0
  6  5  2  0
  7 10  1  0
  7  8  2  0
  9  5  1  0
 10 11  1  0
 11 12  1  1
 13 12  1  0
 14 13  2  0
 15 14  1  0
 16 17  1  0
 16 15  2  0
 17 18  2  0
 18 13  1  0
 19 21  1  0
 19 11  1  0
 20 19  2  0
 22 21  1  0
 23 22  1  0
 24 23  2  0
 25 23  1  0
M  END
$$$$
