EFG.pdb
     RDKit          3D

 25 25  0  0  1  0  0  0  0  0999 V2000
    8.5172  -17.1914   17.8210 N   0  0  0  0  0  0  0  0  0  0  0  0
    9.4500  -17.8138   18.7405 C   0  0  1  0  0  0  0  0  0  0  0  0
   10.6043  -18.4212   17.9752 C   0  0  0  0  0  0  0  0  0  0  0  0
   10.1794  -18.9635   16.6449 C   0  0  0  0  0  0  0  0  0  0  0  0
   11.3301  -19.5715   15.9419 C   0  0  0  0  0  0  0  0  0  0  0  0
   11.6021  -19.2266   14.7598 O   0  0  0  0  0  0  0  0  0  0  0  0
    9.9316  -16.7764   19.7053 C   0  0  0  0  0  0  0  0  0  0  0  0
   10.6255  -15.8143   19.2934 O   0  0  0  0  0  0  0  0  0  0  0  0
   12.1335  -20.5232   16.5470 O   0  0  0  0  0  0  0  0  0  0  0  0
    9.6280  -16.8411   21.0909 N   0  0  0  0  0  0  0  0  0  0  0  0
   10.0653  -15.9045   22.0936 C   0  0  1  0  0  0  0  0  0  0  0  0
    8.9261  -15.1382   22.7662 C   0  0  0  0  0  0  0  0  0  0  0  0
    8.1274  -14.3467   21.7923 C   0  0  0  0  0  0  0  0  0  0  0  0
    6.9541  -14.7562   21.2149 C   0  0  0  0  0  0  0  0  0  0  0  0
    6.2658  -13.9671   20.3015 C   0  0  0  0  0  0  0  0  0  0  0  0
    6.7434  -12.7308   19.9401 C   0  0  0  0  0  0  0  0  0  0  0  0
    7.9116  -12.3198   20.5138 C   0  0  0  0  0  0  0  0  0  0  0  0
    8.5998  -13.0798   21.4105 C   0  0  0  0  0  0  0  0  0  0  0  0
   10.9937  -16.4897   23.0801 C   0  0  0  0  0  0  0  0  0  0  0  0
   10.5640  -17.3663   23.8802 O   0  0  0  0  0  0  0  0  0  0  0  0
   12.3550  -16.1283   23.1910 N   0  0  0  0  0  0  0  0  0  0  0  0
   13.2474  -16.7783   24.1643 C   0  0  0  0  0  0  0  0  0  0  0  0
   14.6290  -16.2588   24.0213 C   0  0  0  0  0  0  0  0  0  0  0  0
   14.9169  -15.5146   23.0597 O   0  0  0  0  0  0  0  0  0  0  0  0
   15.6028  -16.5903   24.9429 O   0  0  0  0  0  0  0  0  0  0  0  0
  2  1  1  6
  2  7  1  0
  3  2  1  0
  4  3  1  0
  5  4  1  0
  6  5  2  0
  7 10  1  0
  7  8  2  0
  9  5  1  0
 10 11  1  0
 11 12  1  1
 13 12  1  0
 14 13  2  0
 15 14  1  0
 16 17  1  0
 16 15  2  0
 17 18  2  0
 18 13  1  0
 19 21  1  0
 19 11  1  0
 20 19  2  0
 22 21  1  0
 23 22  1  0
 24 23  2  0
 25 23  1  0
M  END
$$$$
