EFG.pdb
     RDKit          3D

 25 25  0  0  1  0  0  0  0  0999 V2000
    8.2762  -14.5233   21.0133 N   0  0  0  0  0  0  0  0  0  0  0  0
    8.2903  -15.7657   21.7610 C   0  0  1  0  0  0  0  0  0  0  0  0
    9.0871  -16.8112   21.0134 C   0  0  0  0  0  0  0  0  0  0  0  0
    9.5732  -16.3120   19.6872 C   0  0  0  0  0  0  0  0  0  0  0  0
   10.2330  -17.4008   18.9340 C   0  0  0  0  0  0  0  0  0  0  0  0
   11.2616  -17.1592   18.2454 O   0  0  0  0  0  0  0  0  0  0  0  0
    8.8815  -15.5029   23.1103 C   0  0  0  0  0  0  0  0  0  0  0  0
    9.9824  -14.9064   23.2046 O   0  0  0  0  0  0  0  0  0  0  0  0
    9.7523  -18.6990   18.9588 O   0  0  0  0  0  0  0  0  0  0  0  0
    8.2331  -15.9098   24.3063 N   0  0  0  0  0  0  0  0  0  0  0  0
    8.7222  -15.6966   25.6439 C   0  0  1  0  0  0  0  0  0  0  0  0
    7.6485  -15.2408   26.6322 C   0  0  0  0  0  0  0  0  0  0  0  0
    7.2870  -13.8092   26.4507 C   0  0  0  0  0  0  0  0  0  0  0  0
    8.1668  -12.7598   26.4993 C   0  0  0  0  0  0  0  0  0  0  0  0
    7.7555  -11.4431   26.3320 C   0  0  0  0  0  0  0  0  0  0  0  0
    6.4340  -11.1423   26.1084 C   0  0  0  0  0  0  0  0  0  0  0  0
    5.5552  -12.1854   26.0589 C   0  0  0  0  0  0  0  0  0  0  0  0
    5.9401  -13.4819   26.2208 C   0  0  0  0  0  0  0  0  0  0  0  0
    9.5101  -16.8284   26.1694 C   0  0  0  0  0  0  0  0  0  0  0  0
    9.8376  -16.8326   27.3883 O   0  0  0  0  0  0  0  0  0  0  0  0
    9.9296  -17.9266   25.3858 N   0  0  0  0  0  0  0  0  0  0  0  0
   10.6212  -19.0798   25.9843 C   0  0  0  0  0  0  0  0  0  0  0  0
   12.0906  -18.9046   25.8869 C   0  0  0  0  0  0  0  0  0  0  0  0
   12.5611  -17.8372   25.4388 O   0  0  0  0  0  0  0  0  0  0  0  0
   12.9461  -19.9122   26.2876 O   0  0  0  0  0  0  0  0  0  0  0  0
  2  1  1  6
  2  7  1  0
  3  2  1  0
  4  3  1  0
  5  4  1  0
  6  5  2  0
  7 10  1  0
  7  8  2  0
  9  5  1  0
 10 11  1  0
 11 12  1  1
 13 12  1  0
 14 13  2  0
 15 14  1  0
 16 17  1  0
 16 15  2  0
 17 18  2  0
 18 13  1  0
 19 21  1  0
 19 11  1  0
 20 19  2  0
 22 21  1  0
 23 22  1  0
 24 23  2  0
 25 23  1  0
M  END
$$$$
