EFG.pdb
     RDKit          3D

 25 25  0  0  1  0  0  0  0  0999 V2000
    7.1864  -17.1757   22.0264 N   0  0  0  0  0  0  0  0  0  0  0  0
    8.3659  -16.4560   21.5865 C   0  0  1  0  0  0  0  0  0  0  0  0
    7.9863  -15.4258   20.5464 C   0  0  0  0  0  0  0  0  0  0  0  0
    7.2852  -16.0377   19.3724 C   0  0  0  0  0  0  0  0  0  0  0  0
    8.1654  -16.0335   18.1835 C   0  0  0  0  0  0  0  0  0  0  0  0
    9.0228  -16.9453   18.0292 O   0  0  0  0  0  0  0  0  0  0  0  0
    9.0006  -15.8088   22.7770 C   0  0  0  0  0  0  0  0  0  0  0  0
    9.9741  -15.0312   22.6206 O   0  0  0  0  0  0  0  0  0  0  0  0
    8.0794  -15.0458   17.2170 O   0  0  0  0  0  0  0  0  0  0  0  0
    8.5351  -16.0454   24.0975 N   0  0  0  0  0  0  0  0  0  0  0  0
    9.1364  -15.5421   25.3053 C   0  0  1  0  0  0  0  0  0  0  0  0
    8.1303  -15.2057   26.4063 C   0  0  0  0  0  0  0  0  0  0  0  0
    7.5007  -13.8728   26.2058 C   0  0  0  0  0  0  0  0  0  0  0  0
    8.1604  -12.7387   25.8107 C   0  0  0  0  0  0  0  0  0  0  0  0
    7.5083  -11.5216   25.6547 C   0  0  0  0  0  0  0  0  0  0  0  0
    6.1603  -11.4105   25.8940 C   0  0  0  0  0  0  0  0  0  0  0  0
    5.5001  -12.5385   26.2873 C   0  0  0  0  0  0  0  0  0  0  0  0
    6.1227  -13.7396   26.4456 C   0  0  0  0  0  0  0  0  0  0  0  0
   10.2413  -16.3822   25.8066 C   0  0  0  0  0  0  0  0  0  0  0  0
   11.0010  -15.9230   26.7038 O   0  0  0  0  0  0  0  0  0  0  0  0
   10.5102  -17.6888   25.3413 N   0  0  0  0  0  0  0  0  0  0  0  0
   11.6148  -18.4902   25.8926 C   0  0  0  0  0  0  0  0  0  0  0  0
   11.1752  -19.1937   27.1219 C   0  0  0  0  0  0  0  0  0  0  0  0
    9.9926  -19.0859   27.5107 O   0  0  0  0  0  0  0  0  0  0  0  0
   12.0625  -19.9689   27.8428 O   0  0  0  0  0  0  0  0  0  0  0  0
  2  1  1  1
  2  7  1  0
  3  2  1  0
  4  3  1  0
  5  4  1  0
  6  5  2  0
  7 10  1  0
  7  8  2  0
  9  5  1  0
 10 11  1  0
 11 12  1  1
 13 12  1  0
 14 13  2  0
 15 14  1  0
 16 17  1  0
 16 15  2  0
 17 18  2  0
 18 13  1  0
 19 21  1  0
 19 11  1  0
 20 19  2  0
 22 21  1  0
 23 22  1  0
 24 23  2  0
 25 23  1  0
M  END
$$$$
