EFG.pdb
     RDKit          3D

 25 25  0  0  1  0  0  0  0  0999 V2000
    9.7330  -16.1999   19.5315 N   0  0  0  0  0  0  0  0  0  0  0  0
    8.4935  -16.1838   20.2841 C   0  0  1  0  0  0  0  0  0  0  0  0
    7.8032  -17.5249   20.1740 C   0  0  0  0  0  0  0  0  0  0  0  0
    8.6931  -18.5732   19.5795 C   0  0  0  0  0  0  0  0  0  0  0  0
    8.7457  -19.7649   20.4542 C   0  0  0  0  0  0  0  0  0  0  0  0
    7.7061  -20.4517   20.6492 O   0  0  0  0  0  0  0  0  0  0  0  0
    8.8065  -15.8562   21.7103 C   0  0  0  0  0  0  0  0  0  0  0  0
   10.0022  -15.7531   22.0797 O   0  0  0  0  0  0  0  0  0  0  0  0
    9.9172  -20.1599   21.0775 O   0  0  0  0  0  0  0  0  0  0  0  0
    7.7851  -15.6546   22.6759 N   0  0  0  0  0  0  0  0  0  0  0  0
    7.8783  -14.8064   23.8358 C   0  0  1  0  0  0  0  0  0  0  0  0
    6.7012  -13.8444   23.9978 C   0  0  0  0  0  0  0  0  0  0  0  0
    6.8323  -12.9927   25.2104 C   0  0  0  0  0  0  0  0  0  0  0  0
    7.8994  -12.1812   25.4943 C   0  0  0  0  0  0  0  0  0  0  0  0
    7.9599  -11.4202   26.6553 C   0  0  0  0  0  0  0  0  0  0  0  0
    6.9378  -11.4543   27.5725 C   0  0  0  0  0  0  0  0  0  0  0  0
    5.8734  -12.2613   27.2924 C   0  0  0  0  0  0  0  0  0  0  0  0
    5.7970  -13.0143   26.1599 C   0  0  0  0  0  0  0  0  0  0  0  0
    8.1630  -15.5435   25.0822 C   0  0  0  0  0  0  0  0  0  0  0  0
    8.2010  -14.9099   26.1731 O   0  0  0  0  0  0  0  0  0  0  0  0
    8.3999  -16.9352   25.1370 N   0  0  0  0  0  0  0  0  0  0  0  0
    8.5403  -17.6423   26.4202 C   0  0  0  0  0  0  0  0  0  0  0  0
    9.9719  -17.7555   26.7903 C   0  0  0  0  0  0  0  0  0  0  0  0
   10.3126  -18.4961   27.7373 O   0  0  0  0  0  0  0  0  0  0  0  0
   10.9346  -17.0484   26.0966 O   0  0  0  0  0  0  0  0  0  0  0  0
  2  1  1  6
  2  7  1  0
  3  2  1  0
  4  3  1  0
  5  4  1  0
  6  5  2  0
  7 10  1  0
  7  8  2  0
  9  5  1  0
 10 11  1  0
 11 12  1  1
 13 12  1  0
 14 13  2  0
 15 14  1  0
 16 17  1  0
 16 15  2  0
 17 18  2  0
 18 13  1  0
 19 21  1  0
 19 11  1  0
 20 19  2  0
 22 21  1  0
 23 22  1  0
 24 23  2  0
 25 23  1  0
M  END
$$$$
