EFG.pdb
     RDKit          3D

 25 25  0  0  1  0  0  0  0  0999 V2000
    7.0814  -17.1540   21.6136 N   0  0  0  0  0  0  0  0  0  0  0  0
    8.3987  -16.5978   21.3722 C   0  0  1  0  0  0  0  0  0  0  0  0
    8.3234  -15.5343   20.2996 C   0  0  0  0  0  0  0  0  0  0  0  0
    7.4229  -15.9314   19.1701 C   0  0  0  0  0  0  0  0  0  0  0  0
    8.1053  -15.7403   17.8717 C   0  0  0  0  0  0  0  0  0  0  0  0
    8.7534  -16.6896   17.3530 O   0  0  0  0  0  0  0  0  0  0  0  0
    8.9187  -16.0306   22.6555 C   0  0  0  0  0  0  0  0  0  0  0  0
    9.8835  -15.2272   22.6380 O   0  0  0  0  0  0  0  0  0  0  0  0
    8.0566  -14.5340   17.1938 O   0  0  0  0  0  0  0  0  0  0  0  0
    8.3522  -16.3729   23.9118 N   0  0  0  0  0  0  0  0  0  0  0  0
    8.8407  -15.9509   25.1990 C   0  0  1  0  0  0  0  0  0  0  0  0
    7.7384  -15.5628   26.1847 C   0  0  0  0  0  0  0  0  0  0  0  0
    7.2817  -14.1597   25.9954 C   0  0  0  0  0  0  0  0  0  0  0  0
    6.3453  -13.7499   25.0828 C   0  0  0  0  0  0  0  0  0  0  0  0
    5.9748  -12.4170   24.9528 C   0  0  0  0  0  0  0  0  0  0  0  0
    6.5418  -11.4491   25.7457 C   0  0  0  0  0  0  0  0  0  0  0  0
    7.4746  -11.8542   26.6560 C   0  0  0  0  0  0  0  0  0  0  0  0
    7.8501  -13.1558   26.7973 C   0  0  0  0  0  0  0  0  0  0  0  0
    9.8092  -16.8899   25.7973 C   0  0  0  0  0  0  0  0  0  0  0  0
    9.5155  -17.4637   26.8824 O   0  0  0  0  0  0  0  0  0  0  0  0
   11.0653  -17.1949   25.2268 N   0  0  0  0  0  0  0  0  0  0  0  0
   11.9806  -18.1627   25.8528 C   0  0  0  0  0  0  0  0  0  0  0  0
   13.2458  -18.2448   25.0836 C   0  0  0  0  0  0  0  0  0  0  0  0
   14.1696  -18.9850   25.4835 O   0  0  0  0  0  0  0  0  0  0  0  0
   13.4132  -17.5092   23.9265 O   0  0  0  0  0  0  0  0  0  0  0  0
  2  1  1  1
  2  7  1  0
  3  2  1  0
  4  3  1  0
  5  4  1  0
  6  5  2  0
  7 10  1  0
  7  8  2  0
  9  5  1  0
 10 11  1  0
 11 12  1  1
 13 12  1  0
 14 13  2  0
 15 14  1  0
 16 17  1  0
 16 15  2  0
 17 18  2  0
 18 13  1  0
 19 21  1  0
 19 11  1  0
 20 19  2  0
 22 21  1  0
 23 22  1  0
 24 23  2  0
 25 23  1  0
M  END
$$$$
