EFG.pdb
     RDKit          3D

 25 25  0  0  1  0  0  0  0  0999 V2000
    7.3425  -17.1316   22.5561 N   0  0  0  0  0  0  0  0  0  0  0  0
    8.5731  -16.4990   22.1221 C   0  0  1  0  0  0  0  0  0  0  0  0
    8.2801  -15.4842   21.0398 C   0  0  0  0  0  0  0  0  0  0  0  0
    7.3790  -16.0337   19.9767 C   0  0  0  0  0  0  0  0  0  0  0  0
    8.0543  -16.0080   18.6609 C   0  0  0  0  0  0  0  0  0  0  0  0
    9.0312  -16.7735   18.4373 O   0  0  0  0  0  0  0  0  0  0  0  0
    9.2186  -15.8505   23.3061 C   0  0  0  0  0  0  0  0  0  0  0  0
   10.2581  -15.1629   23.1524 O   0  0  0  0  0  0  0  0  0  0  0  0
    7.6441  -15.1577   17.6480 O   0  0  0  0  0  0  0  0  0  0  0  0
    8.6905  -15.9863   24.6172 N   0  0  0  0  0  0  0  0  0  0  0  0
    9.2441  -15.4045   25.8126 C   0  0  1  0  0  0  0  0  0  0  0  0
    8.1942  -14.9706   26.8356 C   0  0  0  0  0  0  0  0  0  0  0  0
    7.5369  -13.6900   26.4598 C   0  0  0  0  0  0  0  0  0  0  0  0
    6.2073  -13.5414   26.1639 C   0  0  0  0  0  0  0  0  0  0  0  0
    5.6627  -12.3135   25.8083 C   0  0  0  0  0  0  0  0  0  0  0  0
    6.4487  -11.1890   25.7402 C   0  0  0  0  0  0  0  0  0  0  0  0
    7.7735  -11.3336   26.0348 C   0  0  0  0  0  0  0  0  0  0  0  0
    8.3246  -12.5290   26.3850 C   0  0  0  0  0  0  0  0  0  0  0  0
   10.3071  -16.2230   26.4272 C   0  0  0  0  0  0  0  0  0  0  0  0
   11.0521  -15.7018   27.3027 O   0  0  0  0  0  0  0  0  0  0  0  0
   10.5510  -17.5745   26.0956 N   0  0  0  0  0  0  0  0  0  0  0  0
   11.5402  -18.3808   26.8290 C   0  0  0  0  0  0  0  0  0  0  0  0
   11.6271  -19.7417   26.2463 C   0  0  0  0  0  0  0  0  0  0  0  0
   12.4684  -20.5539   26.6866 O   0  0  0  0  0  0  0  0  0  0  0  0
   10.7851  -20.1209   25.2191 O   0  0  0  0  0  0  0  0  0  0  0  0
  2  1  1  1
  2  7  1  0
  3  2  1  0
  4  3  1  0
  5  4  1  0
  6  5  2  0
  7 10  1  0
  7  8  2  0
  9  5  1  0
 10 11  1  0
 11 12  1  1
 13 12  1  0
 14 13  2  0
 15 14  1  0
 16 17  1  0
 16 15  2  0
 17 18  2  0
 18 13  1  0
 19 21  1  0
 19 11  1  0
 20 19  2  0
 22 21  1  0
 23 22  1  0
 24 23  2  0
 25 23  1  0
M  END
$$$$
