EFG.pdb
     RDKit          3D

 25 25  0  0  1  0  0  0  0  0999 V2000
    7.4303  -16.9548   22.2221 N   0  0  0  0  0  0  0  0  0  0  0  0
    8.7314  -16.4002   21.9014 C   0  0  1  0  0  0  0  0  0  0  0  0
    8.6062  -15.4078   20.7672 C   0  0  0  0  0  0  0  0  0  0  0  0
    7.6447  -15.8685   19.7147 C   0  0  0  0  0  0  0  0  0  0  0  0
    8.2265  -15.6880   18.3668 C   0  0  0  0  0  0  0  0  0  0  0  0
    9.3903  -15.2193   18.2387 O   0  0  0  0  0  0  0  0  0  0  0  0
    9.2861  -15.7469   23.1281 C   0  0  0  0  0  0  0  0  0  0  0  0
   10.2999  -15.0114   23.0399 O   0  0  0  0  0  0  0  0  0  0  0  0
    7.5257  -16.0215   17.2201 O   0  0  0  0  0  0  0  0  0  0  0  0
    8.6989  -15.9313   24.4077 N   0  0  0  0  0  0  0  0  0  0  0  0
    9.2550  -15.4909   25.6609 C   0  0  1  0  0  0  0  0  0  0  0  0
    8.2078  -15.0568   26.6866 C   0  0  0  0  0  0  0  0  0  0  0  0
    7.5892  -13.7487   26.3411 C   0  0  0  0  0  0  0  0  0  0  0  0
    8.1383  -12.5211   26.6039 C   0  0  0  0  0  0  0  0  0  0  0  0
    7.4967  -11.3369   26.2622 C   0  0  0  0  0  0  0  0  0  0  0  0
    6.2723  -11.3548   25.6398 C   0  0  0  0  0  0  0  0  0  0  0  0
    5.7229  -12.5760   25.3762 C   0  0  0  0  0  0  0  0  0  0  0  0
    6.3370  -13.7469   25.7039 C   0  0  0  0  0  0  0  0  0  0  0  0
   10.2307  -16.4369   26.2362 C   0  0  0  0  0  0  0  0  0  0  0  0
   10.8896  -16.0922   27.2560 O   0  0  0  0  0  0  0  0  0  0  0  0
   10.4810  -17.7251   25.7127 N   0  0  0  0  0  0  0  0  0  0  0  0
   11.4279  -18.6482   26.3590 C   0  0  0  0  0  0  0  0  0  0  0  0
   10.8840  -19.1164   27.6568 C   0  0  0  0  0  0  0  0  0  0  0  0
    9.7390  -19.6141   27.7078 O   0  0  0  0  0  0  0  0  0  0  0  0
   11.6327  -19.0072   28.8124 O   0  0  0  0  0  0  0  0  0  0  0  0
  2  1  1  1
  2  7  1  0
  3  2  1  0
  4  3  1  0
  5  4  1  0
  6  5  2  0
  7 10  1  0
  7  8  2  0
  9  5  1  0
 10 11  1  0
 11 12  1  1
 13 12  1  0
 14 13  2  0
 15 14  1  0
 16 17  1  0
 16 15  2  0
 17 18  2  0
 18 13  1  0
 19 21  1  0
 19 11  1  0
 20 19  2  0
 22 21  1  0
 23 22  1  0
 24 23  2  0
 25 23  1  0
M  END
$$$$
