EFG.pdb
     RDKit          3D

 25 25  0  0  1  0  0  0  0  0999 V2000
    8.4344  -18.2903   18.5384 N   0  0  0  0  0  0  0  0  0  0  0  0
    9.8380  -17.9670   18.3701 C   0  0  1  0  0  0  0  0  0  0  0  0
   10.0437  -17.2093   17.0775 C   0  0  0  0  0  0  0  0  0  0  0  0
    8.9725  -17.5026   16.0722 C   0  0  0  0  0  0  0  0  0  0  0  0
    9.2669  -16.8272   14.7895 C   0  0  0  0  0  0  0  0  0  0  0  0
    8.3248  -16.3800   14.0803 O   0  0  0  0  0  0  0  0  0  0  0  0
   10.2841  -17.1553   19.5454 C   0  0  0  0  0  0  0  0  0  0  0  0
   11.4030  -16.5859   19.5230 O   0  0  0  0  0  0  0  0  0  0  0  0
   10.5637  -16.6658   14.3320 O   0  0  0  0  0  0  0  0  0  0  0  0
    9.4757  -17.0031   20.7029 N   0  0  0  0  0  0  0  0  0  0  0  0
    9.8566  -16.3203   21.9122 C   0  0  1  0  0  0  0  0  0  0  0  0
    8.8071  -15.3341   22.4253 C   0  0  0  0  0  0  0  0  0  0  0  0
    8.3293  -14.4141   21.3583 C   0  0  0  0  0  0  0  0  0  0  0  0
    8.9984  -13.3037   20.9145 C   0  0  0  0  0  0  0  0  0  0  0  0
    8.4851  -12.4809   19.9194 C   0  0  0  0  0  0  0  0  0  0  0  0
    7.2718  -12.7554   19.3366 C   0  0  0  0  0  0  0  0  0  0  0  0
    6.6030  -13.8609   19.7762 C   0  0  0  0  0  0  0  0  0  0  0  0
    7.0906  -14.6786   20.7504 C   0  0  0  0  0  0  0  0  0  0  0  0
   10.3269  -17.2277   22.9767 C   0  0  0  0  0  0  0  0  0  0  0  0
    9.4816  -17.9186   23.6101 O   0  0  0  0  0  0  0  0  0  0  0  0
   11.6838  -17.3775   23.3408 N   0  0  0  0  0  0  0  0  0  0  0  0
   12.1219  -18.4422   24.2577 C   0  0  0  0  0  0  0  0  0  0  0  0
   12.5482  -17.8608   25.5536 C   0  0  0  0  0  0  0  0  0  0  0  0
   13.6736  -17.3275   25.6556 O   0  0  0  0  0  0  0  0  0  0  0  0
   11.7112  -17.9033   26.6516 O   0  0  0  0  0  0  0  0  0  0  0  0
  2  1  1  1
  2  7  1  0
  3  2  1  0
  4  3  1  0
  5  4  1  0
  6  5  2  0
  7 10  1  0
  7  8  2  0
  9  5  1  0
 10 11  1  0
 11 12  1  1
 13 12  1  0
 14 13  2  0
 15 14  1  0
 16 17  1  0
 16 15  2  0
 17 18  2  0
 18 13  1  0
 19 21  1  0
 19 11  1  0
 20 19  2  0
 22 21  1  0
 23 22  1  0
 24 23  2  0
 25 23  1  0
M  END
$$$$
