EFG.pdb
     RDKit          3D

 25 25  0  0  1  0  0  0  0  0999 V2000
    8.1484  -17.8143   20.5988 N   0  0  0  0  0  0  0  0  0  0  0  0
    9.3742  -17.0525   20.4568 C   0  0  1  0  0  0  0  0  0  0  0  0
    9.4410  -16.4307   19.0799 C   0  0  0  0  0  0  0  0  0  0  0  0
    8.4208  -17.0082   18.1472 C   0  0  0  0  0  0  0  0  0  0  0  0
    8.5194  -16.3739   16.8145 C   0  0  0  0  0  0  0  0  0  0  0  0
    7.6790  -16.6553   15.9173 O   0  0  0  0  0  0  0  0  0  0  0  0
    9.4087  -16.0027   21.5226 C   0  0  0  0  0  0  0  0  0  0  0  0
   10.3932  -15.2275   21.6043 O   0  0  0  0  0  0  0  0  0  0  0  0
    9.5199  -15.4658   16.5121 O   0  0  0  0  0  0  0  0  0  0  0  0
    8.3527  -15.8487   22.4593 N   0  0  0  0  0  0  0  0  0  0  0  0
    8.3194  -14.9006   23.5427 C   0  0  1  0  0  0  0  0  0  0  0  0
    6.9106  -14.4531   23.9331 C   0  0  0  0  0  0  0  0  0  0  0  0
    6.9253  -13.3945   24.9783 C   0  0  0  0  0  0  0  0  0  0  0  0
    7.4292  -12.1307   24.8159 C   0  0  0  0  0  0  0  0  0  0  0  0
    7.4202  -11.1946   25.8427 C   0  0  0  0  0  0  0  0  0  0  0  0
    6.8981  -11.5070   27.0743 C   0  0  0  0  0  0  0  0  0  0  0  0
    6.3950  -12.7649   27.2392 C   0  0  0  0  0  0  0  0  0  0  0  0
    6.3956  -13.6953   26.2443 C   0  0  0  0  0  0  0  0  0  0  0  0
    9.1091  -15.3207   24.7164 C   0  0  0  0  0  0  0  0  0  0  0  0
    9.1748  -14.5536   25.7165 O   0  0  0  0  0  0  0  0  0  0  0  0
    9.8088  -16.5455   24.7969 N   0  0  0  0  0  0  0  0  0  0  0  0
   10.4793  -16.9690   26.0368 C   0  0  0  0  0  0  0  0  0  0  0  0
   11.1617  -18.2698   25.8331 C   0  0  0  0  0  0  0  0  0  0  0  0
   10.8207  -19.0090   24.8852 O   0  0  0  0  0  0  0  0  0  0  0  0
   12.1730  -18.6730   26.6832 O   0  0  0  0  0  0  0  0  0  0  0  0
  2  1  1  6
  2  7  1  0
  3  2  1  0
  4  3  1  0
  5  4  1  0
  6  5  2  0
  7 10  1  0
  7  8  2  0
  9  5  1  0
 10 11  1  0
 11 12  1  1
 13 12  1  0
 14 13  2  0
 15 14  1  0
 16 17  1  0
 16 15  2  0
 17 18  2  0
 18 13  1  0
 19 21  1  0
 19 11  1  0
 20 19  2  0
 22 21  1  0
 23 22  1  0
 24 23  2  0
 25 23  1  0
M  END
$$$$
