EFG.pdb
     RDKit          3D

 25 25  0  0  1  0  0  0  0  0999 V2000
    8.3003  -12.7337   19.6382 N   0  0  0  0  0  0  0  0  0  0  0  0
    7.5556  -13.7106   20.4088 C   0  0  1  0  0  0  0  0  0  0  0  0
    7.4026  -14.9889   19.6152 C   0  0  0  0  0  0  0  0  0  0  0  0
    8.7240  -15.5594   19.1996 C   0  0  0  0  0  0  0  0  0  0  0  0
    8.5407  -16.8850   18.5693 C   0  0  0  0  0  0  0  0  0  0  0  0
    7.3796  -17.3387   18.3787 O   0  0  0  0  0  0  0  0  0  0  0  0
    8.2828  -13.9592   21.6927 C   0  0  0  0  0  0  0  0  0  0  0  0
    9.4707  -13.5736   21.8227 O   0  0  0  0  0  0  0  0  0  0  0  0
    9.6186  -17.6590   18.1741 O   0  0  0  0  0  0  0  0  0  0  0  0
    7.6692  -14.6255   22.7863 N   0  0  0  0  0  0  0  0  0  0  0  0
    8.2380  -14.7894   24.0991 C   0  0  1  0  0  0  0  0  0  0  0  0
    7.2044  -14.8090   25.2255 C   0  0  0  0  0  0  0  0  0  0  0  0
    6.9852  -13.4597   25.8124 C   0  0  0  0  0  0  0  0  0  0  0  0
    7.9761  -12.5864   26.1775 C   0  0  0  0  0  0  0  0  0  0  0  0
    7.6972  -11.3434   26.7324 C   0  0  0  0  0  0  0  0  0  0  0  0
    6.4002  -10.9398   26.9371 C   0  0  0  0  0  0  0  0  0  0  0  0
    5.4110  -11.8072   26.5741 C   0  0  0  0  0  0  0  0  0  0  0  0
    5.6655  -13.0294   26.0292 C   0  0  0  0  0  0  0  0  0  0  0  0
    9.1791  -15.9220   24.1951 C   0  0  0  0  0  0  0  0  0  0  0  0
    9.6862  -16.2033   25.3162 O   0  0  0  0  0  0  0  0  0  0  0  0
    9.5572  -16.7266   23.0971 N   0  0  0  0  0  0  0  0  0  0  0  0
   10.4141  -17.9109   23.2693 C   0  0  0  0  0  0  0  0  0  0  0  0
   11.8254  -17.5723   22.9648 C   0  0  0  0  0  0  0  0  0  0  0  0
   12.1240  -16.4116   22.6112 O   0  0  0  0  0  0  0  0  0  0  0  0
   12.8154  -18.5299   23.0687 O   0  0  0  0  0  0  0  0  0  0  0  0
  2  1  1  6
  2  7  1  0
  3  2  1  0
  4  3  1  0
  5  4  1  0
  6  5  2  0
  7 10  1  0
  7  8  2  0
  9  5  1  0
 10 11  1  0
 11 12  1  1
 13 12  1  0
 14 13  2  0
 15 14  1  0
 16 17  1  0
 16 15  2  0
 17 18  2  0
 18 13  1  0
 19 21  1  0
 19 11  1  0
 20 19  2  0
 22 21  1  0
 23 22  1  0
 24 23  2  0
 25 23  1  0
M  END
$$$$
