EFG.pdb
     RDKit          3D

 25 25  0  0  1  0  0  0  0  0999 V2000
    8.7664  -18.2643   21.1386 N   0  0  0  0  0  0  0  0  0  0  0  0
    9.9458  -17.4315   21.0033 C   0  0  1  0  0  0  0  0  0  0  0  0
   10.0798  -16.9512   19.5756 C   0  0  0  0  0  0  0  0  0  0  0  0
    9.3342  -17.8230   18.6121 C   0  0  0  0  0  0  0  0  0  0  0  0
    9.6186  -17.4165   17.2186 C   0  0  0  0  0  0  0  0  0  0  0  0
   10.6694  -17.8148   16.6464 O   0  0  0  0  0  0  0  0  0  0  0  0
    9.8255  -16.2781   21.9491 C   0  0  0  0  0  0  0  0  0  0  0  0
   10.6861  -15.3639   21.9322 O   0  0  0  0  0  0  0  0  0  0  0  0
    8.7561  -16.5993   16.5077 O   0  0  0  0  0  0  0  0  0  0  0  0
    8.7572  -16.1782   22.8792 N   0  0  0  0  0  0  0  0  0  0  0  0
    8.6206  -15.1716   23.8999 C   0  0  1  0  0  0  0  0  0  0  0  0
    7.1717  -14.7961   24.2116 C   0  0  0  0  0  0  0  0  0  0  0  0
    7.0774  -13.6406   25.1440 C   0  0  0  0  0  0  0  0  0  0  0  0
    7.4930  -12.3649   24.8658 C   0  0  0  0  0  0  0  0  0  0  0  0
    7.3846  -11.3346   25.7917 C   0  0  0  0  0  0  0  0  0  0  0  0
    6.8490  -11.5611   27.0361 C   0  0  0  0  0  0  0  0  0  0  0  0
    6.4336  -12.8307   27.3162 C   0  0  0  0  0  0  0  0  0  0  0  0
    6.5323  -13.8529   26.4214 C   0  0  0  0  0  0  0  0  0  0  0  0
    9.3887  -15.4678   25.1246 C   0  0  0  0  0  0  0  0  0  0  0  0
    9.4646  -14.5888   26.0273 O   0  0  0  0  0  0  0  0  0  0  0  0
   10.0566  -16.6906   25.3585 N   0  0  0  0  0  0  0  0  0  0  0  0
   10.7295  -16.9679   26.6378 C   0  0  0  0  0  0  0  0  0  0  0  0
    9.9794  -17.9949   27.4007 C   0  0  0  0  0  0  0  0  0  0  0  0
   10.3749  -19.1802   27.4024 O   0  0  0  0  0  0  0  0  0  0  0  0
    8.8452  -17.6530   28.1109 O   0  0  0  0  0  0  0  0  0  0  0  0
  2  1  1  6
  2  7  1  0
  3  2  1  0
  4  3  1  0
  5  4  1  0
  6  5  2  0
  7 10  1  0
  7  8  2  0
  9  5  1  0
 10 11  1  0
 11 12  1  1
 13 12  1  0
 14 13  2  0
 15 14  1  0
 16 17  1  0
 16 15  2  0
 17 18  2  0
 18 13  1  0
 19 21  1  0
 19 11  1  0
 20 19  2  0
 22 21  1  0
 23 22  1  0
 24 23  2  0
 25 23  1  0
M  END
$$$$
