EFG.pdb
     RDKit          3D

 25 25  0  0  1  0  0  0  0  0999 V2000
    6.5741  -16.7622   21.5720 N   0  0  0  0  0  0  0  0  0  0  0  0
    8.0217  -16.7094   21.5044 C   0  0  1  0  0  0  0  0  0  0  0  0
    8.4549  -15.8085   20.3696 C   0  0  0  0  0  0  0  0  0  0  0  0
    7.5433  -15.9109   19.1852 C   0  0  0  0  0  0  0  0  0  0  0  0
    8.2530  -15.5143   17.9495 C   0  0  0  0  0  0  0  0  0  0  0  0
    7.7564  -14.6394   17.1890 O   0  0  0  0  0  0  0  0  0  0  0  0
    8.5418  -16.2098   22.8155 C   0  0  0  0  0  0  0  0  0  0  0  0
    9.5039  -15.4033   22.8396 O   0  0  0  0  0  0  0  0  0  0  0  0
    9.4652  -16.0799   17.5920 O   0  0  0  0  0  0  0  0  0  0  0  0
    7.9784  -16.6208   24.0525 N   0  0  0  0  0  0  0  0  0  0  0  0
    8.5371  -16.3725   25.3563 C   0  0  1  0  0  0  0  0  0  0  0  0
    7.5435  -15.7783   26.3547 C   0  0  0  0  0  0  0  0  0  0  0  0
    7.2436  -14.3495   26.0686 C   0  0  0  0  0  0  0  0  0  0  0  0
    6.1999  -13.8991   25.3036 C   0  0  0  0  0  0  0  0  0  0  0  0
    5.9868  -12.5463   25.0682 C   0  0  0  0  0  0  0  0  0  0  0  0
    6.8263  -11.5991   25.6018 C   0  0  0  0  0  0  0  0  0  0  0  0
    7.8667  -12.0444   26.3647 C   0  0  0  0  0  0  0  0  0  0  0  0
    8.0911  -13.3661   26.6059 C   0  0  0  0  0  0  0  0  0  0  0  0
    9.2564  -17.5320   25.9184 C   0  0  0  0  0  0  0  0  0  0  0  0
    8.5926  -18.4679   26.4444 O   0  0  0  0  0  0  0  0  0  0  0  0
   10.6627  -17.6670   25.9071 N   0  0  0  0  0  0  0  0  0  0  0  0
   11.3229  -18.8875   26.3979 C   0  0  0  0  0  0  0  0  0  0  0  0
   12.7966  -18.7275   26.3535 C   0  0  0  0  0  0  0  0  0  0  0  0
   13.3033  -17.8277   25.6500 O   0  0  0  0  0  0  0  0  0  0  0  0
   13.6163  -19.5656   27.0839 O   0  0  0  0  0  0  0  0  0  0  0  0
  2  1  1  1
  2  7  1  0
  3  2  1  0
  4  3  1  0
  5  4  1  0
  6  5  2  0
  7 10  1  0
  7  8  2  0
  9  5  1  0
 10 11  1  0
 11 12  1  1
 13 12  1  0
 14 13  2  0
 15 14  1  0
 16 17  1  0
 16 15  2  0
 17 18  2  0
 18 13  1  0
 19 21  1  0
 19 11  1  0
 20 19  2  0
 22 21  1  0
 23 22  1  0
 24 23  2  0
 25 23  1  0
M  END
$$$$
