EFG.pdb
     RDKit          3D

 25 25  0  0  1  0  0  0  0  0999 V2000
   10.7979  -16.7073   20.1563 N   0  0  0  0  0  0  0  0  0  0  0  0
    9.8753  -17.2147   21.1534 C   0  0  1  0  0  0  0  0  0  0  0  0
   10.3558  -18.5521   21.6707 C   0  0  0  0  0  0  0  0  0  0  0  0
   10.7022  -19.4975   20.5615 C   0  0  0  0  0  0  0  0  0  0  0  0
   11.0738  -20.8215   21.1063 C   0  0  0  0  0  0  0  0  0  0  0  0
   11.0756  -21.0138   22.3526 O   0  0  0  0  0  0  0  0  0  0  0  0
    9.7746  -16.2146   22.2620 C   0  0  0  0  0  0  0  0  0  0  0  0
   10.7899  -15.5625   22.6091 O   0  0  0  0  0  0  0  0  0  0  0  0
   11.4260  -21.8761   20.2811 O   0  0  0  0  0  0  0  0  0  0  0  0
    8.5541  -15.9724   22.9461 N   0  0  0  0  0  0  0  0  0  0  0  0
    8.3575  -15.0166   24.0051 C   0  0  1  0  0  0  0  0  0  0  0  0
    7.0415  -14.2446   23.9084 C   0  0  0  0  0  0  0  0  0  0  0  0
    6.8868  -13.2550   25.0083 C   0  0  0  0  0  0  0  0  0  0  0  0
    5.9989  -13.3602   26.0467 C   0  0  0  0  0  0  0  0  0  0  0  0
    5.9006  -12.3889   27.0355 C   0  0  0  0  0  0  0  0  0  0  0  0
    6.7015  -11.2732   27.0072 C   0  0  0  0  0  0  0  0  0  0  0  0
    7.5872  -11.1656   25.9744 C   0  0  0  0  0  0  0  0  0  0  0  0
    7.6973  -12.1074   24.9965 C   0  0  0  0  0  0  0  0  0  0  0  0
    8.5679  -15.5803   25.3526 C   0  0  0  0  0  0  0  0  0  0  0  0
    8.4851  -14.8177   26.3550 O   0  0  0  0  0  0  0  0  0  0  0  0
    8.8608  -16.9401   25.6002 N   0  0  0  0  0  0  0  0  0  0  0  0
    9.0262  -17.4552   26.9690 C   0  0  0  0  0  0  0  0  0  0  0  0
   10.4594  -17.4501   27.3500 C   0  0  0  0  0  0  0  0  0  0  0  0
   11.2994  -16.9045   26.6029 O   0  0  0  0  0  0  0  0  0  0  0  0
   10.8756  -18.0439   28.5255 O   0  0  0  0  0  0  0  0  0  0  0  0
  2  1  1  6
  2  7  1  0
  3  2  1  0
  4  3  1  0
  5  4  1  0
  6  5  2  0
  7 10  1  0
  7  8  2  0
  9  5  1  0
 10 11  1  0
 11 12  1  1
 13 12  1  0
 14 13  2  0
 15 14  1  0
 16 17  1  0
 16 15  2  0
 17 18  2  0
 18 13  1  0
 19 21  1  0
 19 11  1  0
 20 19  2  0
 22 21  1  0
 23 22  1  0
 24 23  2  0
 25 23  1  0
M  END
$$$$
