EFG.pdb
     RDKit          3D

 25 25  0  0  1  0  0  0  0  0999 V2000
    8.8180  -17.1328   20.2272 N   0  0  0  0  0  0  0  0  0  0  0  0
    9.9234  -17.2838   21.1536 C   0  0  1  0  0  0  0  0  0  0  0  0
   11.2373  -17.1122   20.4247 C   0  0  0  0  0  0  0  0  0  0  0  0
   11.5783  -18.3037   19.5831 C   0  0  0  0  0  0  0  0  0  0  0  0
   13.0454  -18.4577   19.4733 C   0  0  0  0  0  0  0  0  0  0  0  0
   13.5337  -19.3045   18.6766 O   0  0  0  0  0  0  0  0  0  0  0  0
    9.7757  -16.2669   22.2413 C   0  0  0  0  0  0  0  0  0  0  0  0
   10.7176  -15.4738   22.4872 O   0  0  0  0  0  0  0  0  0  0  0  0
   13.9168  -17.6909   20.2282 O   0  0  0  0  0  0  0  0  0  0  0  0
    8.5910  -16.1644   23.0174 N   0  0  0  0  0  0  0  0  0  0  0  0
    8.3716  -15.2425   24.1017 C   0  0  1  0  0  0  0  0  0  0  0  0
    7.0634  -14.4585   23.9951 C   0  0  0  0  0  0  0  0  0  0  0  0
    6.9492  -13.4082   25.0425 C   0  0  0  0  0  0  0  0  0  0  0  0
    7.7518  -12.3022   25.1432 C   0  0  0  0  0  0  0  0  0  0  0  0
    7.5948  -11.3658   26.1577 C   0  0  0  0  0  0  0  0  0  0  0  0
    6.6153  -11.5172   27.1088 C   0  0  0  0  0  0  0  0  0  0  0  0
    5.8139  -12.6177   27.0111 C   0  0  0  0  0  0  0  0  0  0  0  0
    5.9533  -13.5458   26.0240 C   0  0  0  0  0  0  0  0  0  0  0  0
    8.5420  -15.8515   25.4350 C   0  0  0  0  0  0  0  0  0  0  0  0
    7.6058  -16.5502   25.9131 O   0  0  0  0  0  0  0  0  0  0  0  0
    9.7030  -15.7023   26.2261 N   0  0  0  0  0  0  0  0  0  0  0  0
    9.6535  -15.8061   27.6934 C   0  0  0  0  0  0  0  0  0  0  0  0
   10.4266  -16.9859   28.1512 C   0  0  0  0  0  0  0  0  0  0  0  0
   10.5675  -17.2005   29.3741 O   0  0  0  0  0  0  0  0  0  0  0  0
   10.9939  -17.8517   27.2367 O   0  0  0  0  0  0  0  0  0  0  0  0
  2  1  1  6
  2  7  1  0
  3  2  1  0
  4  3  1  0
  5  4  1  0
  6  5  2  0
  7 10  1  0
  7  8  2  0
  9  5  1  0
 10 11  1  0
 11 12  1  1
 13 12  1  0
 14 13  2  0
 15 14  1  0
 16 17  1  0
 16 15  2  0
 17 18  2  0
 18 13  1  0
 19 21  1  0
 19 11  1  0
 20 19  2  0
 22 21  1  0
 23 22  1  0
 24 23  2  0
 25 23  1  0
M  END
$$$$
