EFG.pdb
     RDKit          3D

 25 25  0  0  1  0  0  0  0  0999 V2000
    9.6829  -16.1095   19.0091 N   0  0  0  0  0  0  0  0  0  0  0  0
    8.9138  -16.7194   20.0766 C   0  0  1  0  0  0  0  0  0  0  0  0
    9.3974  -18.1311   20.3222 C   0  0  0  0  0  0  0  0  0  0  0  0
    9.6771  -18.8643   19.0460 C   0  0  0  0  0  0  0  0  0  0  0  0
   10.0593  -20.2654   19.3267 C   0  0  0  0  0  0  0  0  0  0  0  0
    9.1695  -21.1515   19.4436 O   0  0  0  0  0  0  0  0  0  0  0  0
    9.0583  -15.8803   21.3072 C   0  0  0  0  0  0  0  0  0  0  0  0
   10.1660  -15.3551   21.5787 O   0  0  0  0  0  0  0  0  0  0  0  0
   11.3833  -20.6450   19.4680 O   0  0  0  0  0  0  0  0  0  0  0  0
    7.9717  -15.6529   22.1926 N   0  0  0  0  0  0  0  0  0  0  0  0
    8.0230  -14.8826   23.4083 C   0  0  1  0  0  0  0  0  0  0  0  0
    6.8277  -13.9496   23.6030 C   0  0  0  0  0  0  0  0  0  0  0  0
    6.9257  -13.1638   24.8624 C   0  0  0  0  0  0  0  0  0  0  0  0
    6.0773  -13.2770   25.9324 C   0  0  0  0  0  0  0  0  0  0  0  0
    6.2223  -12.5000   27.0752 C   0  0  0  0  0  0  0  0  0  0  0  0
    7.2357  -11.5780   27.1746 C   0  0  0  0  0  0  0  0  0  0  0  0
    8.0828  -11.4631   26.1106 C   0  0  0  0  0  0  0  0  0  0  0  0
    7.9559  -12.2160   24.9826 C   0  0  0  0  0  0  0  0  0  0  0  0
    8.2875  -15.6973   24.6100 C   0  0  0  0  0  0  0  0  0  0  0  0
    7.3150  -16.2200   25.2216 O   0  0  0  0  0  0  0  0  0  0  0  0
    9.5791  -15.9354   25.1309 N   0  0  0  0  0  0  0  0  0  0  0  0
    9.7903  -16.8102   26.2955 C   0  0  0  0  0  0  0  0  0  0  0  0
   11.2388  -16.9367   26.5869 C   0  0  0  0  0  0  0  0  0  0  0  0
   11.6189  -17.6062   27.5711 O   0  0  0  0  0  0  0  0  0  0  0  0
   12.1741  -16.3202   25.7789 O   0  0  0  0  0  0  0  0  0  0  0  0
  2  1  1  6
  2  7  1  0
  3  2  1  0
  4  3  1  0
  5  4  1  0
  6  5  2  0
  7 10  1  0
  7  8  2  0
  9  5  1  0
 10 11  1  0
 11 12  1  1
 13 12  1  0
 14 13  2  0
 15 14  1  0
 16 17  1  0
 16 15  2  0
 17 18  2  0
 18 13  1  0
 19 21  1  0
 19 11  1  0
 20 19  2  0
 22 21  1  0
 23 22  1  0
 24 23  2  0
 25 23  1  0
M  END
$$$$
