RGN.pdb
     RDKit          3D

 24 23  0  0  1  0  0  0  0  0999 V2000
   28.9057  -20.1702  -21.4750 N   0  0  0  0  0  0  0  0  0  0  0  0
   27.9676  -19.1375  -21.8156 C   0  0  0  0  0  0  0  0  0  0  0  0
   27.2417  -19.3037  -22.8454 N   0  0  0  0  0  0  0  0  0  0  0  0
   27.8807  -17.9743  -21.0012 N   0  0  0  0  0  0  0  0  0  0  0  0
   27.5447  -18.0349  -19.5990 C   0  0  0  0  0  0  0  0  0  0  0  0
   28.6324  -18.7232  -18.8576 C   0  0  0  0  0  0  0  0  0  0  0  0
   28.5004  -18.8032  -17.3839 C   0  0  0  0  0  0  0  0  0  0  0  0
   27.1183  -18.7789  -16.8314 C   0  0  2  0  0  0  0  0  0  0  0  0
   26.5543  -17.4497  -16.8198 N   0  0  0  0  0  0  0  0  0  0  0  0
   27.2231  -19.2202  -15.3952 C   0  0  0  0  0  0  0  0  0  0  0  0
   27.6140  -20.3622  -15.1100 O   0  0  0  0  0  0  0  0  0  0  0  0
   26.5869  -18.5811  -23.1555 N   0  0  0  0  0  0  0  0  0  0  0  0
   26.8751  -18.3347  -14.3347 C   0  0  0  0  0  0  0  0  0  0  0  0
   27.0502  -18.6919  -12.9725 C   0  0  0  0  0  0  0  0  0  0  0  0
   25.9850  -19.5513  -12.3995 O   0  0  0  0  0  0  0  0  0  0  0  0
   25.9504  -19.7691  -11.1369 N   0  0  0  0  0  0  0  0  0  0  0  0
   20.8007  -22.2583  -12.7644 C   0  0  0  0  0  0  0  0  0  0  0  0
   21.5339  -21.3086  -12.0358 O   0  0  0  0  0  0  0  0  0  0  0  0
   21.1795  -21.1654  -10.8097 C   0  0  0  0  0  0  0  0  0  0  0  0
   22.6338  -20.4755  -12.4858 C   0  0  2  0  0  0  0  0  0  0  0  0
   23.9947  -21.0926  -12.4957 N   0  0  0  0  0  0  0  0  0  0  0  0
   24.9569  -20.1789  -13.1474 C   0  0  0  0  0  0  0  0  0  0  0  0
   24.0542  -22.3780  -13.1981 O   0  0  0  0  0  0  0  0  0  0  0  0
   23.4381  -23.3735  -12.7768 O   0  0  0  0  0  0  0  0  0  0  0  0
  1  2  1  0
  2  3  2  0
  4  5  1  0
  4  2  1  0
  6  5  1  0
  7  6  1  0
  7  8  1  0
  8  9  1  1
 10  8  1  0
 10 12  1  0
 11 10  2  0
 13 12  1  0
 13 14  1  0
 14 21  1  0
 15 14  2  0
 17 16  1  0
 18 17  2  0
 19 17  1  0
 20 19  1  1
 20 22  1  0
 21 20  1  0
 22 23  2  0
 22 24  1  0
M  END
$$$$
