RGN.pdb
     RDKit          3D

 24 23  0  0  1  0  0  0  0  0999 V2000
   30.8210  -23.9430  -17.8603 N   0  0  0  0  0  0  0  0  0  0  0  0
   29.8219  -24.2512  -16.8758 C   0  0  0  0  0  0  0  0  0  0  0  0
   29.9813  -25.2936  -16.1666 N   0  0  0  0  0  0  0  0  0  0  0  0
   28.6978  -23.3921  -16.7265 N   0  0  0  0  0  0  0  0  0  0  0  0
   28.5208  -22.2035  -17.5257 C   0  0  0  0  0  0  0  0  0  0  0  0
   28.7013  -21.0008  -16.6727 C   0  0  0  0  0  0  0  0  0  0  0  0
   27.5123  -20.5085  -15.9381 C   0  0  0  0  0  0  0  0  0  0  0  0
   26.2487  -20.3812  -16.7147 C   0  0  2  0  0  0  0  0  0  0  0  0
   26.4232  -19.6163  -17.9269 N   0  0  0  0  0  0  0  0  0  0  0  0
   25.2886  -19.6101  -15.8474 C   0  0  0  0  0  0  0  0  0  0  0  0
   25.0456  -19.9785  -14.6882 O   0  0  0  0  0  0  0  0  0  0  0  0
   29.2794  -25.5807  -15.4796 N   0  0  0  0  0  0  0  0  0  0  0  0
   24.6397  -18.4417  -16.3410 C   0  0  0  0  0  0  0  0  0  0  0  0
   23.7267  -17.6998  -15.5473 C   0  0  0  0  0  0  0  0  0  0  0  0
   22.2917  -17.9687  -15.8115 O   0  0  0  0  0  0  0  0  0  0  0  0
   21.9562  -18.8177  -16.7113 N   0  0  0  0  0  0  0  0  0  0  0  0
   19.0095  -20.0356  -13.7780 C   0  0  0  0  0  0  0  0  0  0  0  0
   18.6378  -18.7085  -13.5115 O   0  0  0  0  0  0  0  0  0  0  0  0
   17.9424  -18.5374  -12.4455 C   0  0  0  0  0  0  0  0  0  0  0  0
   18.9376  -17.5137  -14.2790 C   0  0  2  0  0  0  0  0  0  0  0  0
   19.8114  -17.6782  -15.4800 N   0  0  0  0  0  0  0  0  0  0  0  0
   21.2107  -17.3516  -15.1328 C   0  0  0  0  0  0  0  0  0  0  0  0
   19.4233  -16.8315  -16.6121 O   0  0  0  0  0  0  0  0  0  0  0  0
   19.9309  -15.7085  -16.7827 O   0  0  0  0  0  0  0  0  0  0  0  0
  1  2  1  0
  2  3  2  0
  4  5  1  0
  4  2  1  0
  6  5  1  0
  7  6  1  0
  7  8  1  0
  8  9  1  6
 10  8  1  0
 10 12  1  0
 11 10  2  0
 13 12  1  0
 13 14  1  0
 14 21  1  0
 15 14  2  0
 17 16  1  0
 18 17  2  0
 19 17  1  0
 20 19  1  1
 20 22  1  0
 21 20  1  0
 22 23  2  0
 22 24  1  0
M  END
$$$$
