RGN.pdb
     RDKit          3D

 24 23  0  0  1  0  0  0  0  0999 V2000
   30.3894  -21.4030   -9.1476 N   0  0  0  0  0  0  0  0  0  0  0  0
   30.7940  -21.7828  -10.4721 C   0  0  0  0  0  0  0  0  0  0  0  0
   31.8080  -22.5390  -10.5949 N   0  0  0  0  0  0  0  0  0  0  0  0
   30.0578  -21.3068  -11.5925 N   0  0  0  0  0  0  0  0  0  0  0  0
   28.7380  -20.7369  -11.4656 C   0  0  0  0  0  0  0  0  0  0  0  0
   27.7518  -21.8198  -11.2181 C   0  0  0  0  0  0  0  0  0  0  0  0
   26.3252  -21.4283  -11.1332 C   0  0  0  0  0  0  0  0  0  0  0  0
   25.4052  -22.0211  -12.1422 C   0  0  2  0  0  0  0  0  0  0  0  0
   26.1138  -22.5980  -13.2603 N   0  0  0  0  0  0  0  0  0  0  0  0
   24.5796  -20.8860  -12.6885 C   0  0  0  0  0  0  0  0  0  0  0  0
   24.9664  -20.2372  -13.6723 O   0  0  0  0  0  0  0  0  0  0  0  0
   32.1412  -22.8347  -11.5161 N   0  0  0  0  0  0  0  0  0  0  0  0
   23.3373  -20.5343  -12.0863 C   0  0  0  0  0  0  0  0  0  0  0  0
   22.4812  -19.5542  -12.6522 C   0  0  0  0  0  0  0  0  0  0  0  0
   21.5215  -20.0582  -13.6653 O   0  0  0  0  0  0  0  0  0  0  0  0
   20.9045  -21.1638  -13.4660 N   0  0  0  0  0  0  0  0  0  0  0  0
   17.8244  -17.6324  -14.0059 C   0  0  0  0  0  0  0  0  0  0  0  0
   18.4453  -18.2617  -15.0963 O   0  0  0  0  0  0  0  0  0  0  0  0
   18.7216  -17.4937  -16.0880 C   0  0  0  0  0  0  0  0  0  0  0  0
   18.8138  -19.6575  -15.2454 C   0  0  1  0  0  0  0  0  0  0  0  0
   20.1745  -19.9471  -15.7912 N   0  0  0  0  0  0  0  0  0  0  0  0
   21.2069  -19.4040  -14.8832 C   0  0  0  0  0  0  0  0  0  0  0  0
   20.4086  -19.3804  -17.1228 O   0  0  0  0  0  0  0  0  0  0  0  0
   21.2315  -18.4640  -17.2993 O   0  0  0  0  0  0  0  0  0  0  0  0
  1  2  1  0
  2  3  2  0
  4  5  1  0
  4  2  1  0
  6  5  1  0
  7  6  1  0
  7  8  1  0
  8  9  1  6
 10  8  1  0
 10 12  1  0
 11 10  2  0
 13 12  1  0
 13 14  1  0
 14 21  1  0
 15 14  2  0
 17 16  1  0
 18 17  2  0
 19 17  1  0
 20 19  1  1
 20 22  1  0
 21 20  1  0
 22 23  2  0
 22 24  1  0
M  END
$$$$
