RGN.pdb
     RDKit          3D

 24 23  0  0  1  0  0  0  0  0999 V2000
   29.6514  -28.3657  -17.9993 N   0  0  0  0  0  0  0  0  0  0  0  0
   29.4339  -27.8288  -16.6852 C   0  0  0  0  0  0  0  0  0  0  0  0
   29.2668  -28.6445  -15.7251 N   0  0  0  0  0  0  0  0  0  0  0  0
   29.4115  -26.4185  -16.5002 N   0  0  0  0  0  0  0  0  0  0  0  0
   29.1446  -25.5004  -17.5812 C   0  0  0  0  0  0  0  0  0  0  0  0
   29.1988  -24.1059  -17.0725 C   0  0  0  0  0  0  0  0  0  0  0  0
   28.0238  -23.2432  -17.3383 C   0  0  0  0  0  0  0  0  0  0  0  0
   26.9491  -23.2366  -16.3083 C   0  0  2  0  0  0  0  0  0  0  0  0
   25.7478  -23.8961  -16.7631 N   0  0  0  0  0  0  0  0  0  0  0  0
   26.5906  -21.7928  -16.0722 C   0  0  0  0  0  0  0  0  0  0  0  0
   27.4101  -21.0109  -15.5666 O   0  0  0  0  0  0  0  0  0  0  0  0
   29.0984  -28.3143  -14.7713 N   0  0  0  0  0  0  0  0  0  0  0  0
   25.3028  -21.2958  -16.4247 C   0  0  0  0  0  0  0  0  0  0  0  0
   24.8932  -19.9772  -16.0972 C   0  0  0  0  0  0  0  0  0  0  0  0
   23.7499  -19.8828  -15.1562 O   0  0  0  0  0  0  0  0  0  0  0  0
   23.9539  -19.5524  -13.9347 N   0  0  0  0  0  0  0  0  0  0  0  0
   19.1479  -18.9066  -12.6701 C   0  0  0  0  0  0  0  0  0  0  0  0
   19.8121  -18.1146  -13.6199 O   0  0  0  0  0  0  0  0  0  0  0  0
   19.3979  -16.9022  -13.7087 C   0  0  0  0  0  0  0  0  0  0  0  0
   20.8995  -18.4862  -14.5063 C   0  0  1  0  0  0  0  0  0  0  0  0
   21.3161  -19.9213  -14.5071 N   0  0  0  0  0  0  0  0  0  0  0  0
   22.3958  -20.1313  -15.4948 C   0  0  0  0  0  0  0  0  0  0  0  0
   20.2292  -20.8507  -14.8298 O   0  0  0  0  0  0  0  0  0  0  0  0
   19.7290  -21.5866  -13.9601 O   0  0  0  0  0  0  0  0  0  0  0  0
  1  2  1  0
  2  3  2  0
  4  5  1  0
  4  2  1  0
  6  5  1  0
  7  6  1  0
  7  8  1  0
  8  9  1  6
 10  8  1  0
 10 12  1  0
 11 10  2  0
 13 12  1  0
 13 14  1  0
 14 21  1  0
 15 14  2  0
 17 16  1  0
 18 17  2  0
 19 17  1  0
 20 19  1  1
 20 22  1  0
 21 20  1  0
 22 23  2  0
 22 24  1  0
M  END
$$$$
