RGN.pdb
     RDKit          3D

 24 23  0  0  1  0  0  0  0  0999 V2000
   24.5142  -20.9353   -9.4119 N   0  0  0  0  0  0  0  0  0  0  0  0
   25.6774  -20.9845   -8.5712 C   0  0  0  0  0  0  0  0  0  0  0  0
   25.5060  -21.1116   -7.3184 N   0  0  0  0  0  0  0  0  0  0  0  0
   26.9698  -20.8898   -9.1581 N   0  0  0  0  0  0  0  0  0  0  0  0
   27.1884  -20.3005  -10.4572 C   0  0  0  0  0  0  0  0  0  0  0  0
   27.1800  -21.3654  -11.4927 C   0  0  0  0  0  0  0  0  0  0  0  0
   26.9583  -20.9426  -12.8954 C   0  0  0  0  0  0  0  0  0  0  0  0
   25.5930  -20.4623  -13.2439 C   0  0  2  0  0  0  0  0  0  0  0  0
   24.5606  -21.3635  -12.7890 N   0  0  0  0  0  0  0  0  0  0  0  0
   25.5183  -20.4380  -14.7481 C   0  0  0  0  0  0  0  0  0  0  0  0
   26.3229  -19.7668  -15.4118 O   0  0  0  0  0  0  0  0  0  0  0  0
   26.3006  -21.1463   -6.6747 N   0  0  0  0  0  0  0  0  0  0  0  0
   24.5215  -21.1854  -15.4392 C   0  0  0  0  0  0  0  0  0  0  0  0
   23.8310  -20.6560  -16.5603 C   0  0  0  0  0  0  0  0  0  0  0  0
   22.5163  -20.0364  -16.2615 O   0  0  0  0  0  0  0  0  0  0  0  0
   22.2958  -19.5338  -15.1033 N   0  0  0  0  0  0  0  0  0  0  0  0
   17.4326  -18.0373  -16.5760 C   0  0  0  0  0  0  0  0  0  0  0  0
   18.0747  -18.3357  -17.7881 O   0  0  0  0  0  0  0  0  0  0  0  0
   17.4014  -18.0623  -18.8471 C   0  0  0  0  0  0  0  0  0  0  0  0
   19.3922  -18.9075  -17.9970 C   0  0  1  0  0  0  0  0  0  0  0  0
   20.1620  -19.3048  -16.7793 N   0  0  0  0  0  0  0  0  0  0  0  0
   21.4363  -19.9413  -17.1751 C   0  0  0  0  0  0  0  0  0  0  0  0
   19.4462  -20.2427  -15.9092 O   0  0  0  0  0  0  0  0  0  0  0  0
   18.7358  -19.8394  -14.9706 O   0  0  0  0  0  0  0  0  0  0  0  0
  1  2  1  0
  2  3  2  0
  4  5  1  0
  4  2  1  0
  6  5  1  0
  7  6  1  0
  7  8  1  0
  8  9  1  1
 10  8  1  0
 10 12  1  0
 11 10  2  0
 13 12  1  0
 13 14  1  0
 14 21  1  0
 15 14  2  0
 17 16  1  0
 18 17  2  0
 19 17  1  0
 20 19  1  1
 20 22  1  0
 21 20  1  0
 22 23  2  0
 22 24  1  0
M  END
$$$$
