RGN.pdb
     RDKit          3D

 24 23  0  0  1  0  0  0  0  0999 V2000
   24.1107  -21.0929   -8.7557 N   0  0  0  0  0  0  0  0  0  0  0  0
   25.4936  -20.7157   -8.8423 C   0  0  0  0  0  0  0  0  0  0  0  0
   26.2024  -20.7925   -7.7903 N   0  0  0  0  0  0  0  0  0  0  0  0
   26.0217  -20.2724  -10.0867 N   0  0  0  0  0  0  0  0  0  0  0  0
   26.0176  -21.1010  -11.2682 C   0  0  0  0  0  0  0  0  0  0  0  0
   26.9152  -20.5086  -12.2927 C   0  0  0  0  0  0  0  0  0  0  0  0
   26.2762  -19.7546  -13.3967 C   0  0  0  0  0  0  0  0  0  0  0  0
   25.8169  -20.5450  -14.5716 C   0  0  2  0  0  0  0  0  0  0  0  0
   26.4869  -21.8201  -14.6722 N   0  0  0  0  0  0  0  0  0  0  0  0
   26.1986  -19.7546  -15.7955 C   0  0  0  0  0  0  0  0  0  0  0  0
   25.6480  -18.6722  -16.0482 O   0  0  0  0  0  0  0  0  0  0  0  0
   27.1670  -20.4513   -7.7739 N   0  0  0  0  0  0  0  0  0  0  0  0
   27.2000  -20.2341  -16.6883 C   0  0  0  0  0  0  0  0  0  0  0  0
   27.5307  -19.5443  -17.8835 C   0  0  0  0  0  0  0  0  0  0  0  0
   26.5229  -19.6355  -18.9687 O   0  0  0  0  0  0  0  0  0  0  0  0
   26.6118  -18.8648  -19.9890 N   0  0  0  0  0  0  0  0  0  0  0  0
   22.5003  -23.2577  -21.9634 C   0  0  0  0  0  0  0  0  0  0  0  0
   22.8801  -22.0742  -21.3109 O   0  0  0  0  0  0  0  0  0  0  0  0
   22.2738  -21.0126  -21.7041 C   0  0  0  0  0  0  0  0  0  0  0  0
   23.8610  -21.8977  -20.2559 C   0  0  1  0  0  0  0  0  0  0  0  0
   24.4688  -20.5401  -20.1125 N   0  0  0  0  0  0  0  0  0  0  0  0
   25.4263  -20.5339  -18.9862 C   0  0  0  0  0  0  0  0  0  0  0  0
   23.4881  -19.4776  -19.8704 O   0  0  0  0  0  0  0  0  0  0  0  0
   23.0752  -19.2288  -18.7234 O   0  0  0  0  0  0  0  0  0  0  0  0
  1  2  1  0
  2  3  2  0
  4  5  1  0
  4  2  1  0
  6  5  1  0
  7  6  1  0
  7  8  1  0
  8  9  1  6
 10  8  1  0
 10 12  1  0
 11 10  2  0
 13 12  1  0
 13 14  1  0
 14 21  1  0
 15 14  2  0
 17 16  1  0
 18 17  2  0
 19 17  1  0
 20 19  1  6
 20 22  1  0
 21 20  1  0
 22 23  2  0
 22 24  1  0
M  END
$$$$
