RGN.pdb
     RDKit          3D

 24 23  0  0  1  0  0  0  0  0999 V2000
   29.0322  -23.7472  -16.1039 N   0  0  0  0  0  0  0  0  0  0  0  0
   28.9180  -22.7789  -17.1582 C   0  0  0  0  0  0  0  0  0  0  0  0
   29.0985  -23.1709  -18.3536 N   0  0  0  0  0  0  0  0  0  0  0  0
   28.6110  -21.4274  -16.8373 N   0  0  0  0  0  0  0  0  0  0  0  0
   27.5044  -21.0670  -15.9839 C   0  0  0  0  0  0  0  0  0  0  0  0
   28.0210  -20.6069  -14.6694 C   0  0  0  0  0  0  0  0  0  0  0  0
   27.0207  -20.2921  -13.6226 C   0  0  0  0  0  0  0  0  0  0  0  0
   26.4785  -21.4400  -12.8453 C   0  0  2  0  0  0  0  0  0  0  0  0
   25.6379  -22.2983  -13.6464 N   0  0  0  0  0  0  0  0  0  0  0  0
   25.6026  -20.8535  -11.7694 C   0  0  0  0  0  0  0  0  0  0  0  0
   26.0927  -20.1800  -10.8504 O   0  0  0  0  0  0  0  0  0  0  0  0
   29.0939  -22.5106  -19.1352 N   0  0  0  0  0  0  0  0  0  0  0  0
   24.1931  -21.0606  -11.7853 C   0  0  0  0  0  0  0  0  0  0  0  0
   23.3310  -20.4185  -10.8589 C   0  0  0  0  0  0  0  0  0  0  0  0
   21.8945  -20.7696  -10.9800 O   0  0  0  0  0  0  0  0  0  0  0  0
   21.0511  -20.3100  -10.1312 N   0  0  0  0  0  0  0  0  0  0  0  0
   17.2797  -21.2754  -13.8286 C   0  0  0  0  0  0  0  0  0  0  0  0
   18.5259  -21.1731  -14.4665 O   0  0  0  0  0  0  0  0  0  0  0  0
   18.4783  -21.0019  -15.7384 C   0  0  0  0  0  0  0  0  0  0  0  0
   19.8511  -21.2337  -13.8778 C   0  0  1  0  0  0  0  0  0  0  0  0
   19.9302  -21.4527  -12.4017 N   0  0  0  0  0  0  0  0  0  0  0  0
   21.3424  -21.5980  -11.9895 C   0  0  0  0  0  0  0  0  0  0  0  0
   19.2067  -22.6421  -11.9424 O   0  0  0  0  0  0  0  0  0  0  0  0
   19.8086  -23.6898  -11.6453 O   0  0  0  0  0  0  0  0  0  0  0  0
  1  2  1  0
  2  3  2  0
  4  5  1  0
  4  2  1  0
  6  5  1  0
  7  6  1  0
  7  8  1  0
  8  9  1  6
 10  8  1  0
 10 12  1  0
 11 10  2  0
 13 12  1  0
 13 14  1  0
 14 21  1  0
 15 14  2  0
 17 16  1  0
 18 17  2  0
 19 17  1  0
 20 19  1  1
 20 22  1  0
 21 20  1  0
 22 23  2  0
 22 24  1  0
M  END
$$$$
