RGN.pdb
     RDKit          3D

 24 23  0  0  1  0  0  0  0  0999 V2000
   20.1061  -22.8063  -15.3942 N   0  0  0  0  0  0  0  0  0  0  0  0
   19.9178  -23.3677  -14.0858 C   0  0  0  0  0  0  0  0  0  0  0  0
   18.8112  -23.9392  -13.8329 N   0  0  0  0  0  0  0  0  0  0  0  0
   20.9616  -23.2679  -13.1244 N   0  0  0  0  0  0  0  0  0  0  0  0
   22.1675  -22.5131  -13.3671 C   0  0  0  0  0  0  0  0  0  0  0  0
   23.0355  -22.5643  -12.1628 C   0  0  0  0  0  0  0  0  0  0  0  0
   24.3104  -21.8111  -12.2159 C   0  0  0  0  0  0  0  0  0  0  0  0
   25.1402  -21.9814  -13.4401 C   0  0  2  0  0  0  0  0  0  0  0  0
   26.3191  -22.7793  -13.1984 N   0  0  0  0  0  0  0  0  0  0  0  0
   25.6169  -20.6066  -13.8293 C   0  0  0  0  0  0  0  0  0  0  0  0
   26.5386  -20.0560  -13.2083 O   0  0  0  0  0  0  0  0  0  0  0  0
   18.6417  -24.3923  -12.9312 N   0  0  0  0  0  0  0  0  0  0  0  0
   25.0186  -19.9105  -14.9189 C   0  0  0  0  0  0  0  0  0  0  0  0
   25.4796  -18.6352  -15.3370 C   0  0  0  0  0  0  0  0  0  0  0  0
   24.4185  -17.6351  -15.6114 O   0  0  0  0  0  0  0  0  0  0  0  0
   23.1862  -17.9541  -15.4612 N   0  0  0  0  0  0  0  0  0  0  0  0
   21.7110  -13.1320  -17.1686 C   0  0  0  0  0  0  0  0  0  0  0  0
   23.0587  -12.9702  -16.8106 O   0  0  0  0  0  0  0  0  0  0  0  0
   23.5024  -11.7668  -16.8753 C   0  0  0  0  0  0  0  0  0  0  0  0
   24.0072  -13.9800  -16.3782 C   0  0  1  0  0  0  0  0  0  0  0  0
   23.5187  -15.3910  -16.3188 N   0  0  0  0  0  0  0  0  0  0  0  0
   24.6480  -16.3031  -16.0394 C   0  0  0  0  0  0  0  0  0  0  0  0
   22.8742  -15.8444  -17.5550 O   0  0  0  0  0  0  0  0  0  0  0  0
   21.6928  -15.5511  -17.8127 O   0  0  0  0  0  0  0  0  0  0  0  0
  1  2  1  0
  2  3  2  0
  4  5  1  0
  4  2  1  0
  6  5  1  0
  7  6  1  0
  7  8  1  0
  8  9  1  1
 10  8  1  0
 10 12  1  0
 11 10  2  0
 13 12  1  0
 13 14  1  0
 14 21  1  0
 15 14  2  0
 17 16  1  0
 18 17  2  0
 19 17  1  0
 20 19  1  1
 20 22  1  0
 21 20  1  0
 22 23  2  0
 22 24  1  0
M  END
$$$$
