RGN.pdb
     RDKit          3D

 24 23  0  0  1  0  0  0  0  0999 V2000
   30.3227  -21.2874   -9.0216 N   0  0  0  0  0  0  0  0  0  0  0  0
   31.1263  -21.9757   -9.9926 C   0  0  0  0  0  0  0  0  0  0  0  0
   31.8760  -22.9192   -9.5891 N   0  0  0  0  0  0  0  0  0  0  0  0
   31.0606  -21.5854  -11.3590 N   0  0  0  0  0  0  0  0  0  0  0  0
   29.9942  -20.7635  -11.8785 C   0  0  0  0  0  0  0  0  0  0  0  0
   28.7908  -21.6021  -12.1132 C   0  0  0  0  0  0  0  0  0  0  0  0
   27.5845  -20.9213  -12.6393 C   0  0  0  0  0  0  0  0  0  0  0  0
   26.3720  -20.9415  -11.7759 C   0  0  2  0  0  0  0  0  0  0  0  0
   26.3253  -22.1041  -10.9209 N   0  0  0  0  0  0  0  0  0  0  0  0
   25.1879  -21.0341  -12.7022 C   0  0  0  0  0  0  0  0  0  0  0  0
   24.9491  -20.1307  -13.5178 O   0  0  0  0  0  0  0  0  0  0  0  0
   32.4794  -23.4320  -10.2372 N   0  0  0  0  0  0  0  0  0  0  0  0
   24.3177  -22.1614  -12.6602 C   0  0  0  0  0  0  0  0  0  0  0  0
   23.3624  -22.4089  -13.6799 C   0  0  0  0  0  0  0  0  0  0  0  0
   21.9812  -21.9582  -13.3788 O   0  0  0  0  0  0  0  0  0  0  0  0
   21.0714  -22.8212  -13.1140 N   0  0  0  0  0  0  0  0  0  0  0  0
   21.4981  -19.0447   -9.8854 C   0  0  0  0  0  0  0  0  0  0  0  0
   20.4421  -19.5282  -10.6739 O   0  0  0  0  0  0  0  0  0  0  0  0
   19.6884  -20.3994  -10.1062 C   0  0  0  0  0  0  0  0  0  0  0  0
   20.0942  -19.1717  -12.0370 C   0  0  2  0  0  0  0  0  0  0  0  0
   20.1479  -20.2601  -13.0596 N   0  0  0  0  0  0  0  0  0  0  0  0
   21.5550  -20.6062  -13.3526 C   0  0  0  0  0  0  0  0  0  0  0  0
   19.5011  -19.9102  -14.3278 O   0  0  0  0  0  0  0  0  0  0  0  0
   18.2627  -19.9266  -14.4474 O   0  0  0  0  0  0  0  0  0  0  0  0
  1  2  1  0
  2  3  2  0
  4  5  1  0
  4  2  1  0
  6  5  1  0
  7  6  1  0
  7  8  1  0
  8  9  1  1
 10  8  1  0
 10 12  1  0
 11 10  2  0
 13 12  1  0
 13 14  1  0
 14 21  1  0
 15 14  2  0
 17 16  1  0
 18 17  2  0
 19 17  1  0
 20 19  1  1
 20 22  1  0
 21 20  1  0
 22 23  2  0
 22 24  1  0
M  END
$$$$
