VNK.pdb
     RDKit          3D

 25 24  0  0  1  0  0  0  0  0999 V2000
   19.3491  -14.5523  -16.0671 C   0  0  0  0  0  0  0  0  0  0  0  0
   19.9357  -14.3770  -17.4392 C   0  0  1  0  0  0  0  0  0  0  0  0
   19.1460  -15.1525  -18.4479 C   0  0  0  0  0  0  0  0  0  0  0  0
   19.9905  -12.8971  -17.7488 C   0  0  2  0  0  0  0  0  0  0  0  0
   20.6190  -12.7612  -19.0495 N   0  0  0  0  0  0  0  0  0  0  0  0
   20.7941  -12.1658  -16.7472 C   0  0  0  0  0  0  0  0  0  0  0  0
   20.4204  -12.1149  -15.5629 O   0  0  0  0  0  0  0  0  0  0  0  0
   24.0699  -12.9650  -15.2971 N   0  0  0  0  0  0  0  0  0  0  0  0
   24.8583  -11.9704  -15.9545 C   0  0  0  0  0  0  0  0  0  0  0  0
   26.0845  -12.2159  -16.0552 O   0  0  0  0  0  0  0  0  0  0  0  0
   24.2482  -10.7436  -16.4725 C   0  0  0  0  0  0  0  0  0  0  0  0
   22.7741  -10.6996  -16.2344 C   0  0  2  0  0  0  0  0  0  0  0  0
   22.0018  -11.5131  -17.1255 N   0  0  0  0  0  0  0  0  0  0  0  0
   22.3403   -9.2704  -16.4267 C   0  0  0  0  0  0  0  0  0  0  0  0
   22.4157   -8.7097  -17.5632 O   0  0  0  0  0  0  0  0  0  0  0  0
   21.8312   -8.4887  -15.3582 N   0  0  0  0  0  0  0  0  0  0  0  0
   21.3647   -7.1082  -15.5807 C   0  0  1  0  0  0  0  0  0  0  0  0
   20.0890   -7.2221  -16.3602 C   0  0  0  0  0  0  0  0  0  0  0  0
   19.4303   -5.9217  -16.6804 C   0  0  0  0  0  0  0  0  0  0  0  0
   18.1884   -6.1846  -17.4987 C   0  0  0  0  0  0  0  0  0  0  0  0
   17.5929   -4.8265  -17.8205 C   0  0  0  0  0  0  0  0  0  0  0  0
   16.4905   -4.9990  -18.7468 N   0  0  0  0  0  0  0  0  0  0  0  0
   21.0539   -6.5572  -14.2368 C   0  0  0  0  0  0  0  0  0  0  0  0
   20.9752   -5.1791  -13.9810 O   0  0  0  0  0  0  0  0  0  0  0  0
   20.8387   -7.2948  -13.2297 O   0  0  0  0  0  0  0  0  0  0  0  0
  2  1  1  1
  2  4  1  0
  2  3  1  0
  4  5  1  6
  4  6  1  0
  6  7  2  0
  9  8  1  0
 10  9  2  0
 12 11  1  6
 11  9  1  0
 13  6  1  0
 13 12  1  0
 14 12  1  0
 14 15  2  0
 16 14  1  0
 17 23  1  0
 17 16  1  0
 17 18  1  6
 19 18  1  0
 20 19  1  0
 21 20  1  0
 21 22  1  0
 23 24  1  0
 25 23  2  0
M  END
$$$$
