VNK.pdb
     RDKit          3D

 25 24  0  0  1  0  0  0  0  0999 V2000
   11.3549   -9.5787   -9.8290 C   0  0  0  0  0  0  0  0  0  0  0  0
   12.5779  -10.2542   -9.2760 C   0  0  1  0  0  0  0  0  0  0  0  0
   12.4311  -11.7426   -9.3505 C   0  0  0  0  0  0  0  0  0  0  0  0
   13.7861   -9.7452  -10.0311 C   0  0  2  0  0  0  0  0  0  0  0  0
   14.9573  -10.2846   -9.3657 N   0  0  0  0  0  0  0  0  0  0  0  0
   13.8554   -8.2693  -10.0062 C   0  0  0  0  0  0  0  0  0  0  0  0
   13.0434   -7.5946  -10.6622 O   0  0  0  0  0  0  0  0  0  0  0  0
   15.3153   -3.4259   -9.2652 N   0  0  0  0  0  0  0  0  0  0  0  0
   15.1822   -4.0789   -8.0007 C   0  0  0  0  0  0  0  0  0  0  0  0
   15.2187   -3.3367   -6.9899 O   0  0  0  0  0  0  0  0  0  0  0  0
   15.0140   -5.5314   -7.9146 C   0  0  0  0  0  0  0  0  0  0  0  0
   15.0532   -6.1869   -9.2564 C   0  0  2  0  0  0  0  0  0  0  0  0
   14.8498   -7.6048   -9.2333 N   0  0  0  0  0  0  0  0  0  0  0  0
   16.4210   -5.9298   -9.8314 C   0  0  0  0  0  0  0  0  0  0  0  0
   17.4527   -6.4844   -9.3420 O   0  0  0  0  0  0  0  0  0  0  0  0
   16.6215   -5.0640  -10.9370 N   0  0  0  0  0  0  0  0  0  0  0  0
   17.7094   -5.3028  -11.9026 C   0  0  1  0  0  0  0  0  0  0  0  0
   17.4269   -6.6378  -12.5240 C   0  0  0  0  0  0  0  0  0  0  0  0
   18.3359   -7.0131  -13.6466 C   0  0  0  0  0  0  0  0  0  0  0  0
   17.9061   -8.3485  -14.2057 C   0  0  0  0  0  0  0  0  0  0  0  0
   18.9023   -8.6963  -15.2963 C   0  0  0  0  0  0  0  0  0  0  0  0
   18.5087   -9.9459  -15.9180 N   0  0  0  0  0  0  0  0  0  0  0  0
   17.5720   -4.2537  -12.9450 C   0  0  0  0  0  0  0  0  0  0  0  0
   18.6746   -3.6998  -13.6145 O   0  0  0  0  0  0  0  0  0  0  0  0
   16.4491   -3.7876  -13.3006 O   0  0  0  0  0  0  0  0  0  0  0  0
  2  1  1  6
  2  4  1  0
  2  3  1  0
  4  5  1  1
  4  6  1  0
  6  7  2  0
  9  8  1  0
 10  9  2  0
 12 11  1  1
 11  9  1  0
 13  6  1  0
 13 12  1  0
 14 12  1  0
 14 15  2  0
 16 14  1  0
 17 23  1  0
 17 16  1  0
 17 18  1  6
 19 18  1  0
 20 19  1  0
 21 20  1  0
 21 22  1  0
 23 24  1  0
 25 23  2  0
M  END
$$$$
