VNK.pdb
     RDKit          3D

 25 24  0  0  1  0  0  0  0  0999 V2000
   22.6735  -11.6915    9.5630 C   0  0  0  0  0  0  0  0  0  0  0  0
   21.4690  -11.3599    8.7282 C   0  0  1  0  0  0  0  0  0  0  0  0
   21.7236  -10.1329    7.9083 C   0  0  0  0  0  0  0  0  0  0  0  0
   21.1260  -12.5683    7.8850 C   0  0  2  0  0  0  0  0  0  0  0  0
   19.9147  -12.2434    7.1553 N   0  0  0  0  0  0  0  0  0  0  0  0
   20.8776  -13.7589    8.7243 C   0  0  0  0  0  0  0  0  0  0  0  0
   21.0212  -13.6951    9.9572 O   0  0  0  0  0  0  0  0  0  0  0  0
   16.9597  -17.3091    8.5071 N   0  0  0  0  0  0  0  0  0  0  0  0
   18.0926  -16.8010    7.7990 C   0  0  0  0  0  0  0  0  0  0  0  0
   17.8478  -15.9785    6.8839 O   0  0  0  0  0  0  0  0  0  0  0  0
   19.4510  -17.2301    8.1396 C   0  0  0  0  0  0  0  0  0  0  0  0
   20.2072  -16.1793    8.8849 C   0  0  2  0  0  0  0  0  0  0  0  0
   20.4721  -14.9891    8.1328 N   0  0  0  0  0  0  0  0  0  0  0  0
   21.5323  -16.7817    9.2708 C   0  0  0  0  0  0  0  0  0  0  0  0
   22.5001  -16.8173    8.4501 O   0  0  0  0  0  0  0  0  0  0  0  0
   21.7615  -17.3332   10.5575 N   0  0  0  0  0  0  0  0  0  0  0  0
   23.0683  -17.9145   10.9140 C   0  0  1  0  0  0  0  0  0  0  0  0
   23.7057  -16.9486   11.8674 C   0  0  0  0  0  0  0  0  0  0  0  0
   25.0610  -16.4706   11.4649 C   0  0  0  0  0  0  0  0  0  0  0  0
   25.6045  -15.5610   12.5411 C   0  0  0  0  0  0  0  0  0  0  0  0
   26.9431  -15.0543   12.0370 C   0  0  0  0  0  0  0  0  0  0  0  0
   27.5370  -14.1981   13.0456 N   0  0  0  0  0  0  0  0  0  0  0  0
   22.7731  -19.1759   11.6405 C   0  0  0  0  0  0  0  0  0  0  0  0
   23.7691  -20.1015   11.9902 O   0  0  0  0  0  0  0  0  0  0  0  0
   21.6011  -19.5019   11.9940 O   0  0  0  0  0  0  0  0  0  0  0  0
  2  1  1  6
  2  4  1  0
  2  3  1  0
  4  5  1  1
  4  6  1  0
  6  7  2  0
  9  8  1  0
 10  9  2  0
 12 11  1  6
 11  9  1  0
 13  6  1  0
 13 12  1  0
 14 12  1  0
 14 15  2  0
 16 14  1  0
 17 23  1  0
 17 16  1  0
 17 18  1  1
 19 18  1  0
 20 19  1  0
 21 20  1  0
 21 22  1  0
 23 24  1  0
 25 23  2  0
M  END
$$$$
