VNK.pdb
     RDKit          3D

 25 24  0  0  1  0  0  0  0  0999 V2000
   23.0043  -11.6267  -18.8218 C   0  0  0  0  0  0  0  0  0  0  0  0
   23.0980  -10.4181  -17.9340 C   0  0  1  0  0  0  0  0  0  0  0  0
   22.7133   -9.1838  -18.6895 C   0  0  0  0  0  0  0  0  0  0  0  0
   22.2329  -10.6537  -16.7153 C   0  0  2  0  0  0  0  0  0  0  0  0
   20.8967  -10.9497  -17.1974 N   0  0  0  0  0  0  0  0  0  0  0  0
   22.1786   -9.4552  -15.8524 C   0  0  0  0  0  0  0  0  0  0  0  0
   23.0269   -9.2897  -14.9592 O   0  0  0  0  0  0  0  0  0  0  0  0
   22.0834   -5.3895  -13.0017 N   0  0  0  0  0  0  0  0  0  0  0  0
   22.0917   -5.2254  -14.4216 C   0  0  0  0  0  0  0  0  0  0  0  0
   21.9802   -4.0486  -14.8417 O   0  0  0  0  0  0  0  0  0  0  0  0
   22.2239   -6.3790  -15.3145 C   0  0  0  0  0  0  0  0  0  0  0  0
   21.0458   -7.2942  -15.2362 C   0  0  2  0  0  0  0  0  0  0  0  0
   21.1576   -8.4793  -16.0333 N   0  0  0  0  0  0  0  0  0  0  0  0
   19.8536   -6.5194  -15.7322 C   0  0  0  0  0  0  0  0  0  0  0  0
   19.8105   -6.0715  -16.9193 O   0  0  0  0  0  0  0  0  0  0  0  0
   18.7316   -6.2549  -14.9055 N   0  0  0  0  0  0  0  0  0  0  0  0
   17.5202   -5.6149  -15.4494 C   0  0  1  0  0  0  0  0  0  0  0  0
   16.3593   -6.3785  -14.8861 C   0  0  0  0  0  0  0  0  0  0  0  0
   15.1958   -6.5242  -15.8094 C   0  0  0  0  0  0  0  0  0  0  0  0
   14.0846   -7.2544  -15.0934 C   0  0  0  0  0  0  0  0  0  0  0  0
   12.9203   -7.3193  -16.0646 C   0  0  0  0  0  0  0  0  0  0  0  0
   11.8878   -8.1742  -15.5114 N   0  0  0  0  0  0  0  0  0  0  0  0
   17.4982   -4.2373  -14.8945 C   0  0  0  0  0  0  0  0  0  0  0  0
   16.5672   -3.2692  -15.3029 O   0  0  0  0  0  0  0  0  0  0  0  0
   18.3192   -3.8427  -14.0142 O   0  0  0  0  0  0  0  0  0  0  0  0
  2  1  1  6
  2  4  1  0
  2  3  1  0
  4  5  1  6
  4  6  1  0
  6  7  2  0
  9  8  1  0
 10  9  2  0
 12 11  1  6
 11  9  1  0
 13  6  1  0
 13 12  1  0
 14 12  1  0
 14 15  2  0
 16 14  1  0
 17 23  1  0
 17 16  1  0
 17 18  1  1
 19 18  1  0
 20 19  1  0
 21 20  1  0
 21 22  1  0
 23 24  1  0
 25 23  2  0
M  END
$$$$
