VNK.pdb
     RDKit          3D

 25 24  0  0  1  0  0  0  0  0999 V2000
   17.1154  -11.9264  -16.7606 C   0  0  0  0  0  0  0  0  0  0  0  0
   16.7917  -10.7880  -15.8348 C   0  0  1  0  0  0  0  0  0  0  0  0
   16.3301  -11.3083  -14.5086 C   0  0  0  0  0  0  0  0  0  0  0  0
   18.0125   -9.9013  -15.7246 C   0  0  2  0  0  0  0  0  0  0  0  0
   19.1032  -10.7404  -15.2644 N   0  0  0  0  0  0  0  0  0  0  0  0
   17.8007   -8.8103  -14.7506 C   0  0  0  0  0  0  0  0  0  0  0  0
   16.9743   -7.9128  -14.9878 O   0  0  0  0  0  0  0  0  0  0  0  0
   17.7695   -6.3591   -9.5597 N   0  0  0  0  0  0  0  0  0  0  0  0
   18.8653   -6.7764  -10.3772 C   0  0  0  0  0  0  0  0  0  0  0  0
   19.8944   -6.0606  -10.3278 O   0  0  0  0  0  0  0  0  0  0  0  0
   18.7692   -7.9735  -11.2156 C   0  0  0  0  0  0  0  0  0  0  0  0
   18.5653   -7.6407  -12.6576 C   0  0  2  0  0  0  0  0  0  0  0  0
   18.5383   -8.7744  -13.5330 N   0  0  0  0  0  0  0  0  0  0  0  0
   19.7191   -6.7674  -13.0745 C   0  0  0  0  0  0  0  0  0  0  0  0
   20.7907   -7.2713  -13.5320 O   0  0  0  0  0  0  0  0  0  0  0  0
   19.6655   -5.3533  -12.9775 N   0  0  0  0  0  0  0  0  0  0  0  0
   20.6416   -4.5048  -13.6847 C   0  0  1  0  0  0  0  0  0  0  0  0
   20.3754   -4.6974  -15.1476 C   0  0  0  0  0  0  0  0  0  0  0  0
   21.2114   -3.8568  -16.0542 C   0  0  0  0  0  0  0  0  0  0  0  0
   20.9027   -4.2177  -17.4878 C   0  0  0  0  0  0  0  0  0  0  0  0
   21.7889   -3.3384  -18.3505 C   0  0  0  0  0  0  0  0  0  0  0  0
   21.6024   -3.6975  -19.7431 N   0  0  0  0  0  0  0  0  0  0  0  0
   20.3089   -3.1037  -13.3206 C   0  0  0  0  0  0  0  0  0  0  0  0
   21.2565   -2.0682  -13.3428 O   0  0  0  0  0  0  0  0  0  0  0  0
   19.1461   -2.7485  -12.9650 O   0  0  0  0  0  0  0  0  0  0  0  0
  2  1  1  6
  2  4  1  0
  2  3  1  0
  4  5  1  1
  4  6  1  0
  6  7  2  0
  9  8  1  0
 10  9  2  0
 12 11  1  1
 11  9  1  0
 13  6  1  0
 13 12  1  0
 14 12  1  0
 14 15  2  0
 16 14  1  0
 17 23  1  0
 17 16  1  0
 17 18  1  6
 19 18  1  0
 20 19  1  0
 21 20  1  0
 21 22  1  0
 23 24  1  0
 25 23  2  0
M  END
$$$$
