VNK.pdb
     RDKit          3D

 25 24  0  0  1  0  0  0  0  0999 V2000
   24.5686  -19.1451  -16.9474 C   0  0  0  0  0  0  0  0  0  0  0  0
   23.2614  -18.8931  -16.2508 C   0  0  1  0  0  0  0  0  0  0  0  0
   22.1150  -19.2189  -17.1575 C   0  0  0  0  0  0  0  0  0  0  0  0
   23.2419  -19.6960  -14.9687 C   0  0  2  0  0  0  0  0  0  0  0  0
   23.4158  -21.0879  -15.3399 N   0  0  0  0  0  0  0  0  0  0  0  0
   21.9557  -19.5448  -14.2568 C   0  0  0  0  0  0  0  0  0  0  0  0
   21.6131  -18.4349  -13.8148 O   0  0  0  0  0  0  0  0  0  0  0  0
   16.1679  -20.2201  -14.0050 N   0  0  0  0  0  0  0  0  0  0  0  0
   17.4654  -19.9878  -13.4523 C   0  0  0  0  0  0  0  0  0  0  0  0
   17.4944  -19.5616  -12.2727 O   0  0  0  0  0  0  0  0  0  0  0  0
   18.6766  -20.2398  -14.2364 C   0  0  0  0  0  0  0  0  0  0  0  0
   19.8451  -20.5948  -13.3760 C   0  0  2  0  0  0  0  0  0  0  0  0
   21.0966  -20.6649  -14.0696 N   0  0  0  0  0  0  0  0  0  0  0  0
   19.5662  -21.9562  -12.7957 C   0  0  0  0  0  0  0  0  0  0  0  0
   19.6609  -23.0037  -13.5065 O   0  0  0  0  0  0  0  0  0  0  0  0
   19.1877  -22.1327  -11.4401 N   0  0  0  0  0  0  0  0  0  0  0  0
   18.9883  -23.4797  -10.8754 C   0  0  1  0  0  0  0  0  0  0  0  0
   18.7946  -23.2868   -9.4012 C   0  0  0  0  0  0  0  0  0  0  0  0
   18.6006  -24.5456   -8.6231 C   0  0  0  0  0  0  0  0  0  0  0  0
   18.4415  -24.2036   -7.1608 C   0  0  0  0  0  0  0  0  0  0  0  0
   18.3617  -25.5249   -6.4188 C   0  0  0  0  0  0  0  0  0  0  0  0
   18.3712  -25.2692   -4.9914 N   0  0  0  0  0  0  0  0  0  0  0  0
   17.7205  -23.9872  -11.4598 C   0  0  0  0  0  0  0  0  0  0  0  0
   16.6440  -23.1464  -11.7841 O   0  0  0  0  0  0  0  0  0  0  0  0
   17.5250  -25.2145  -11.7051 O   0  0  0  0  0  0  0  0  0  0  0  0
  2  1  1  6
  2  4  1  0
  2  3  1  0
  4  5  1  6
  4  6  1  0
  6  7  2  0
  9  8  1  0
 10  9  2  0
 12 11  1  6
 11  9  1  0
 13  6  1  0
 13 12  1  0
 14 12  1  0
 14 15  2  0
 16 14  1  0
 17 23  1  0
 17 16  1  0
 17 18  1  1
 19 18  1  0
 20 19  1  0
 21 20  1  0
 21 22  1  0
 23 24  1  0
 25 23  2  0
M  END
$$$$
