VNK.pdb
     RDKit          3D

 25 24  0  0  1  0  0  0  0  0999 V2000
   23.5936  -11.8067  -15.5047 C   0  0  0  0  0  0  0  0  0  0  0  0
   23.1448  -10.6018  -14.7271 C   0  0  1  0  0  0  0  0  0  0  0  0
   24.1773   -9.5196  -14.7989 C   0  0  0  0  0  0  0  0  0  0  0  0
   21.7983  -10.1646  -15.2606 C   0  0  2  0  0  0  0  0  0  0  0  0
   21.9680   -9.9142  -16.6797 N   0  0  0  0  0  0  0  0  0  0  0  0
   21.3353   -8.9238  -14.6049 C   0  0  0  0  0  0  0  0  0  0  0  0
   21.0262   -8.9312  -13.4011 O   0  0  0  0  0  0  0  0  0  0  0  0
   19.9760   -4.1094  -13.5723 N   0  0  0  0  0  0  0  0  0  0  0  0
   21.3095   -4.1790  -14.0822 C   0  0  0  0  0  0  0  0  0  0  0  0
   22.0189   -3.1582  -13.9128 O   0  0  0  0  0  0  0  0  0  0  0  0
   21.7974   -5.3827  -14.7594 C   0  0  0  0  0  0  0  0  0  0  0  0
   20.7791   -6.4754  -14.7766 C   0  0  2  0  0  0  0  0  0  0  0  0
   21.2381   -7.7092  -15.3419 N   0  0  0  0  0  0  0  0  0  0  0  0
   19.6262   -5.9887  -15.6143 C   0  0  0  0  0  0  0  0  0  0  0  0
   19.7771   -5.7241  -16.8467 O   0  0  0  0  0  0  0  0  0  0  0  0
   18.3282   -5.8040  -15.0727 N   0  0  0  0  0  0  0  0  0  0  0  0
   17.1829   -5.4714  -15.9390 C   0  0  1  0  0  0  0  0  0  0  0  0
   15.9915   -6.1471  -15.3288 C   0  0  0  0  0  0  0  0  0  0  0  0
   14.6867   -5.8274  -15.9791 C   0  0  0  0  0  0  0  0  0  0  0  0
   13.5769   -6.5280  -15.2319 C   0  0  0  0  0  0  0  0  0  0  0  0
   12.2853   -6.1542  -15.9354 C   0  0  0  0  0  0  0  0  0  0  0  0
   11.1623   -6.6190  -15.1444 N   0  0  0  0  0  0  0  0  0  0  0  0
   17.0015   -4.0009  -15.8347 C   0  0  0  0  0  0  0  0  0  0  0  0
   16.5541   -3.2133  -16.9073 O   0  0  0  0  0  0  0  0  0  0  0  0
   17.2387   -3.3576  -14.7695 O   0  0  0  0  0  0  0  0  0  0  0  0
  2  1  1  6
  2  4  1  0
  2  3  1  0
  4  5  1  6
  4  6  1  0
  6  7  2  0
  9  8  1  0
 10  9  2  0
 12 11  1  6
 11  9  1  0
 13  6  1  0
 13 12  1  0
 14 12  1  0
 14 15  2  0
 16 14  1  0
 17 23  1  0
 17 16  1  0
 17 18  1  1
 19 18  1  0
 20 19  1  0
 21 20  1  0
 21 22  1  0
 23 24  1  0
 25 23  2  0
M  END
$$$$
