VNK.pdb
     RDKit          3D

 25 24  0  0  1  0  0  0  0  0999 V2000
   29.0098  -20.5589   -9.5208 C   0  0  0  0  0  0  0  0  0  0  0  0
   28.3047  -20.2387  -10.8084 C   0  0  1  0  0  0  0  0  0  0  0  0
   28.7414  -21.1772  -11.8906 C   0  0  0  0  0  0  0  0  0  0  0  0
   26.8131  -20.2840  -10.5592 C   0  0  2  0  0  0  0  0  0  0  0  0
   26.4768  -21.6640  -10.2627 N   0  0  0  0  0  0  0  0  0  0  0  0
   26.0537  -19.8486  -11.7497 C   0  0  0  0  0  0  0  0  0  0  0  0
   26.1670  -18.6851  -12.1719 O   0  0  0  0  0  0  0  0  0  0  0  0
   27.8587  -20.1720  -15.6266 N   0  0  0  0  0  0  0  0  0  0  0  0
   26.4509  -20.0162  -15.4347 C   0  0  0  0  0  0  0  0  0  0  0  0
   25.9585  -18.9286  -15.8198 O   0  0  0  0  0  0  0  0  0  0  0  0
   25.6500  -21.0785  -14.8217 C   0  0  0  0  0  0  0  0  0  0  0  0
   24.7282  -20.5571  -13.7682 C   0  0  2  0  0  0  0  0  0  0  0  0
   25.1861  -20.7535  -12.4250 N   0  0  0  0  0  0  0  0  0  0  0  0
   23.4245  -21.2954  -13.9202 C   0  0  0  0  0  0  0  0  0  0  0  0
   23.3702  -22.5590  -13.8113 O   0  0  0  0  0  0  0  0  0  0  0  0
   22.2057  -20.6217  -14.1899 N   0  0  0  0  0  0  0  0  0  0  0  0
   20.9198  -21.3423  -14.1791 C   0  0  1  0  0  0  0  0  0  0  0  0
   19.8536  -20.2881  -14.1709 C   0  0  0  0  0  0  0  0  0  0  0  0
   18.4621  -20.8008  -14.3387 C   0  0  0  0  0  0  0  0  0  0  0  0
   17.5184  -19.6310  -14.4863 C   0  0  0  0  0  0  0  0  0  0  0  0
   16.1221  -20.2174  -14.5821 C   0  0  0  0  0  0  0  0  0  0  0  0
   15.1635  -19.1392  -14.7296 N   0  0  0  0  0  0  0  0  0  0  0  0
   20.8505  -22.0796  -15.4666 C   0  0  0  0  0  0  0  0  0  0  0  0
   20.1305  -23.2751  -15.6190 O   0  0  0  0  0  0  0  0  0  0  0  0
   21.4373  -21.6787  -16.5153 O   0  0  0  0  0  0  0  0  0  0  0  0
  2  1  1  1
  2  4  1  0
  2  3  1  0
  4  5  1  6
  4  6  1  0
  6  7  2  0
  9  8  1  0
 10  9  2  0
 12 11  1  6
 11  9  1  0
 13  6  1  0
 13 12  1  0
 14 12  1  0
 14 15  2  0
 16 14  1  0
 17 23  1  0
 17 16  1  0
 17 18  1  6
 19 18  1  0
 20 19  1  0
 21 20  1  0
 21 22  1  0
 23 24  1  0
 25 23  2  0
M  END
$$$$
