VNK.pdb
     RDKit          3D

 25 24  0  0  1  0  0  0  0  0999 V2000
   18.8010  -10.3924  -19.0596 C   0  0  0  0  0  0  0  0  0  0  0  0
   19.1674  -11.7306  -18.4829 C   0  0  1  0  0  0  0  0  0  0  0  0
   19.4478  -12.7124  -19.5784 C   0  0  0  0  0  0  0  0  0  0  0  0
   20.3429  -11.5417  -17.5493 C   0  0  2  0  0  0  0  0  0  0  0  0
   20.5724  -12.8171  -16.8967 N   0  0  0  0  0  0  0  0  0  0  0  0
   20.0564  -10.5195  -16.5212 C   0  0  0  0  0  0  0  0  0  0  0  0
   19.2813  -10.7762  -15.5842 O   0  0  0  0  0  0  0  0  0  0  0  0
   22.7754   -9.8804  -13.7612 N   0  0  0  0  0  0  0  0  0  0  0  0
   21.7668   -8.8705  -13.6836 C   0  0  0  0  0  0  0  0  0  0  0  0
   21.0489   -8.8855  -12.6549 O   0  0  0  0  0  0  0  0  0  0  0  0
   21.5997   -7.8859  -14.7552 C   0  0  0  0  0  0  0  0  0  0  0  0
   20.4304   -8.1953  -15.6318 C   0  0  2  0  0  0  0  0  0  0  0  0
   20.6629   -9.2331  -16.5916 N   0  0  0  0  0  0  0  0  0  0  0  0
   20.1036   -6.9356  -16.3895 C   0  0  0  0  0  0  0  0  0  0  0  0
   20.8133   -6.5589  -17.3723 O   0  0  0  0  0  0  0  0  0  0  0  0
   18.9978   -6.1164  -16.0454 N   0  0  0  0  0  0  0  0  0  0  0  0
   18.6205   -4.9594  -16.8772 C   0  0  1  0  0  0  0  0  0  0  0  0
   17.1880   -4.6620  -16.5487 C   0  0  0  0  0  0  0  0  0  0  0  0
   16.1993   -5.6187  -17.1271 C   0  0  0  0  0  0  0  0  0  0  0  0
   14.8056   -5.1828  -16.7418 C   0  0  0  0  0  0  0  0  0  0  0  0
   13.8555   -6.1903  -17.3625 C   0  0  0  0  0  0  0  0  0  0  0  0
   12.5087   -5.9224  -16.8964 N   0  0  0  0  0  0  0  0  0  0  0  0
   19.4608   -3.8265  -16.4116 C   0  0  0  0  0  0  0  0  0  0  0  0
   19.6139   -2.6418  -17.1491 O   0  0  0  0  0  0  0  0  0  0  0  0
   20.0967   -3.8532  -15.3163 O   0  0  0  0  0  0  0  0  0  0  0  0
  2  1  1  6
  2  4  1  0
  2  3  1  0
  4  5  1  1
  4  6  1  0
  6  7  2  0
  9  8  1  0
 10  9  2  0
 12 11  1  6
 11  9  1  0
 13  6  1  0
 13 12  1  0
 14 12  1  0
 14 15  2  0
 16 14  1  0
 17 23  1  0
 17 16  1  0
 17 18  1  1
 19 18  1  0
 20 19  1  0
 21 20  1  0
 21 22  1  0
 23 24  1  0
 25 23  2  0
M  END
$$$$
