VNK.pdb
     RDKit          3D

 25 24  0  0  1  0  0  0  0  0999 V2000
   15.4470  -17.0398  -16.9539 C   0  0  0  0  0  0  0  0  0  0  0  0
   15.8218  -16.7647  -15.5251 C   0  0  1  0  0  0  0  0  0  0  0  0
   15.9143  -18.0448  -14.7535 C   0  0  0  0  0  0  0  0  0  0  0  0
   17.1144  -15.9784  -15.5142 C   0  0  2  0  0  0  0  0  0  0  0  0
   17.4181  -15.6852  -14.1260 N   0  0  0  0  0  0  0  0  0  0  0  0
   16.9790  -14.7075  -16.2561 C   0  0  0  0  0  0  0  0  0  0  0  0
   17.0569  -14.6969  -17.4965 O   0  0  0  0  0  0  0  0  0  0  0  0
   14.3165   -9.8766  -17.2488 N   0  0  0  0  0  0  0  0  0  0  0  0
   15.3343  -10.0883  -16.2679 C   0  0  0  0  0  0  0  0  0  0  0  0
   16.0817   -9.1096  -16.0281 O   0  0  0  0  0  0  0  0  0  0  0  0
   15.4774  -11.3814  -15.5947 C   0  0  0  0  0  0  0  0  0  0  0  0
   16.5370  -12.2303  -16.2176 C   0  0  2  0  0  0  0  0  0  0  0  0
   16.7585  -13.4843  -15.5612 N   0  0  0  0  0  0  0  0  0  0  0  0
   17.8215  -11.4470  -16.1542 C   0  0  0  0  0  0  0  0  0  0  0  0
   18.4682  -11.3351  -15.0675 O   0  0  0  0  0  0  0  0  0  0  0  0
   18.3663  -10.8024  -17.2943 N   0  0  0  0  0  0  0  0  0  0  0  0
   19.6579  -10.0955  -17.2237 C   0  0  1  0  0  0  0  0  0  0  0  0
   20.3232  -10.3137  -18.5496 C   0  0  0  0  0  0  0  0  0  0  0  0
   21.5888   -9.5487  -18.7508 C   0  0  0  0  0  0  0  0  0  0  0  0
   22.1155   -9.8206  -20.1398 C   0  0  0  0  0  0  0  0  0  0  0  0
   23.3340   -8.9335  -20.3164 C   0  0  0  0  0  0  0  0  0  0  0  0
   23.8424   -9.0882  -21.6657 N   0  0  0  0  0  0  0  0  0  0  0  0
   19.3306   -8.6532  -17.0869 C   0  0  0  0  0  0  0  0  0  0  0  0
   20.1245   -7.7613  -16.3485 O   0  0  0  0  0  0  0  0  0  0  0  0
   18.3117   -8.1300  -17.6280 O   0  0  0  0  0  0  0  0  0  0  0  0
  2  1  1  6
  2  4  1  0
  2  3  1  0
  4  5  1  1
  4  6  1  0
  6  7  2  0
  9  8  1  0
 10  9  2  0
 12 11  1  1
 11  9  1  0
 13  6  1  0
 13 12  1  0
 14 12  1  0
 14 15  2  0
 16 14  1  0
 17 23  1  0
 17 16  1  0
 17 18  1  6
 19 18  1  0
 20 19  1  0
 21 20  1  0
 21 22  1  0
 23 24  1  0
 25 23  2  0
M  END
$$$$
