VNK.pdb
     RDKit          3D

 25 24  0  0  1  0  0  0  0  0999 V2000
   23.0717  -14.5863  -18.2588 C   0  0  0  0  0  0  0  0  0  0  0  0
   22.3204  -13.7440  -17.2670 C   0  0  1  0  0  0  0  0  0  0  0  0
   23.1524  -13.5097  -16.0442 C   0  0  0  0  0  0  0  0  0  0  0  0
   21.9063  -12.4590  -17.9499 C   0  0  2  0  0  0  0  0  0  0  0  0
   23.1239  -11.8029  -18.3881 N   0  0  0  0  0  0  0  0  0  0  0  0
   21.1841  -11.5635  -17.0223 C   0  0  0  0  0  0  0  0  0  0  0  0
   20.0466  -11.8647  -16.6219 O   0  0  0  0  0  0  0  0  0  0  0  0
   20.0029   -7.7378  -13.7948 N   0  0  0  0  0  0  0  0  0  0  0  0
   21.4190   -7.9247  -13.7412 C   0  0  0  0  0  0  0  0  0  0  0  0
   22.0167   -7.3462  -12.8022 O   0  0  0  0  0  0  0  0  0  0  0  0
   22.1104   -8.7482  -14.7359 C   0  0  0  0  0  0  0  0  0  0  0  0
   21.1597   -9.4587  -15.6430 C   0  0  2  0  0  0  0  0  0  0  0  0
   21.7806  -10.3493  -16.5777 N   0  0  0  0  0  0  0  0  0  0  0  0
   20.4316   -8.4023  -16.4313 C   0  0  0  0  0  0  0  0  0  0  0  0
   20.9994   -7.7899  -17.3874 O   0  0  0  0  0  0  0  0  0  0  0  0
   19.0890   -8.0434  -16.1469 N   0  0  0  0  0  0  0  0  0  0  0  0
   18.4110   -6.9748  -16.9027 C   0  0  1  0  0  0  0  0  0  0  0  0
   16.9736   -7.0140  -16.4777 C   0  0  0  0  0  0  0  0  0  0  0  0
   16.1026   -5.9816  -17.1123 C   0  0  0  0  0  0  0  0  0  0  0  0
   14.6783   -6.1863  -16.6536 C   0  0  0  0  0  0  0  0  0  0  0  0
   14.6061   -5.6568  -15.2333 C   0  0  0  0  0  0  0  0  0  0  0  0
   13.2242   -5.6637  -14.7938 N   0  0  0  0  0  0  0  0  0  0  0  0
   19.0104   -5.6979  -16.4375 C   0  0  0  0  0  0  0  0  0  0  0  0
   19.1462   -4.5754  -17.2697 O   0  0  0  0  0  0  0  0  0  0  0  0
   19.4399   -5.5355  -15.2569 O   0  0  0  0  0  0  0  0  0  0  0  0
  2  1  1  6
  2  4  1  0
  2  3  1  0
  4  5  1  1
  4  6  1  0
  6  7  2  0
  9  8  1  0
 10  9  2  0
 12 11  1  1
 11  9  1  0
 13  6  1  0
 13 12  1  0
 14 12  1  0
 14 15  2  0
 16 14  1  0
 17 23  1  0
 17 16  1  0
 17 18  1  1
 19 18  1  0
 20 19  1  0
 21 20  1  0
 21 22  1  0
 23 24  1  0
 25 23  2  0
M  END
$$$$
