VNK.pdb
     RDKit          3D

 25 24  0  0  1  0  0  0  0  0999 V2000
   31.6678   -9.4977  -19.5971 C   0  0  0  0  0  0  0  0  0  0  0  0
   30.2935  -10.0657  -19.3821 C   0  0  1  0  0  0  0  0  0  0  0  0
   30.3387  -11.1775  -18.3799 C   0  0  0  0  0  0  0  0  0  0  0  0
   29.3718   -8.9397  -18.9680 C   0  0  2  0  0  0  0  0  0  0  0  0
   29.8943   -8.4020  -17.7258 N   0  0  0  0  0  0  0  0  0  0  0  0
   27.9948   -9.4255  -18.7407 C   0  0  0  0  0  0  0  0  0  0  0  0
   27.3353   -9.8973  -19.6826 O   0  0  0  0  0  0  0  0  0  0  0  0
   26.6128  -12.3978  -17.6658 N   0  0  0  0  0  0  0  0  0  0  0  0
   26.2073  -12.0365  -16.3437 C   0  0  0  0  0  0  0  0  0  0  0  0
   26.1504  -12.9716  -15.5092 O   0  0  0  0  0  0  0  0  0  0  0  0
   25.8819  -10.6489  -16.0060 C   0  0  0  0  0  0  0  0  0  0  0  0
   26.0523   -9.7276  -17.1695 C   0  0  2  0  0  0  0  0  0  0  0  0
   27.4092   -9.3592  -17.4444 N   0  0  0  0  0  0  0  0  0  0  0  0
   25.2920   -8.4682  -16.8479 C   0  0  0  0  0  0  0  0  0  0  0  0
   25.7696   -7.5980  -16.0566 O   0  0  0  0  0  0  0  0  0  0  0  0
   24.0175   -8.1954  -17.4079 N   0  0  0  0  0  0  0  0  0  0  0  0
   23.3277   -6.9199  -17.1431 C   0  0  1  0  0  0  0  0  0  0  0  0
   22.1452   -6.8889  -18.0644 C   0  0  0  0  0  0  0  0  0  0  0  0
   21.2460   -5.7102  -17.8928 C   0  0  0  0  0  0  0  0  0  0  0  0
   20.1216   -5.7954  -18.8975 C   0  0  0  0  0  0  0  0  0  0  0  0
   19.2315   -4.5923  -18.6462 C   0  0  0  0  0  0  0  0  0  0  0  0
   19.7186   -3.4704  -19.4254 N   0  0  0  0  0  0  0  0  0  0  0  0
   22.8383   -6.9998  -15.7430 C   0  0  0  0  0  0  0  0  0  0  0  0
   22.6622   -5.8657  -14.9345 O   0  0  0  0  0  0  0  0  0  0  0  0
   22.5466   -8.0982  -15.1834 O   0  0  0  0  0  0  0  0  0  0  0  0
  2  1  1  1
  2  4  1  0
  2  3  1  0
  4  5  1  1
  4  6  1  0
  6  7  2  0
  9  8  1  0
 10  9  2  0
 12 11  1  1
 11  9  1  0
 13  6  1  0
 13 12  1  0
 14 12  1  0
 14 15  2  0
 16 14  1  0
 17 23  1  0
 17 16  1  0
 17 18  1  6
 19 18  1  0
 20 19  1  0
 21 20  1  0
 21 22  1  0
 23 24  1  0
 25 23  2  0
M  END
$$$$
