VNK.pdb
     RDKit          3D

 25 24  0  0  1  0  0  0  0  0999 V2000
   18.7278  -11.0837    6.2938 C   0  0  0  0  0  0  0  0  0  0  0  0
   17.8988  -12.3109    6.5479 C   0  0  1  0  0  0  0  0  0  0  0  0
   16.5693  -12.1931    5.8689 C   0  0  0  0  0  0  0  0  0  0  0  0
   18.6853  -13.5203    6.0921 C   0  0  2  0  0  0  0  0  0  0  0  0
   18.8579  -13.3948    4.6570 N   0  0  0  0  0  0  0  0  0  0  0  0
   17.9611  -14.7754    6.3820 C   0  0  0  0  0  0  0  0  0  0  0  0
   17.3368  -14.9044    7.4489 O   0  0  0  0  0  0  0  0  0  0  0  0
   15.4782  -16.2189    3.7294 N   0  0  0  0  0  0  0  0  0  0  0  0
   16.2157  -17.4138    3.4623 C   0  0  0  0  0  0  0  0  0  0  0  0
   15.9952  -17.9626    2.3559 O   0  0  0  0  0  0  0  0  0  0  0  0
   17.1681  -17.9478    4.4386 C   0  0  0  0  0  0  0  0  0  0  0  0
   17.2779  -17.0853    5.6534 C   0  0  2  0  0  0  0  0  0  0  0  0
   17.9699  -15.8482    5.4457 N   0  0  0  0  0  0  0  0  0  0  0  0
   18.0452  -17.8720    6.6831 C   0  0  0  0  0  0  0  0  0  0  0  0
   19.3137  -17.8422    6.7193 O   0  0  0  0  0  0  0  0  0  0  0  0
   17.3943  -18.6766    7.6532 N   0  0  0  0  0  0  0  0  0  0  0  0
   18.1639  -19.4008    8.6809 C   0  0  1  0  0  0  0  0  0  0  0  0
   17.8336  -18.7427    9.9870 C   0  0  0  0  0  0  0  0  0  0  0  0
   18.3540  -19.4478   11.1950 C   0  0  0  0  0  0  0  0  0  0  0  0
   18.9699  -18.4357   12.1315 C   0  0  0  0  0  0  0  0  0  0  0  0
   19.5097  -19.2196   13.3134 C   0  0  0  0  0  0  0  0  0  0  0  0
   20.1146  -18.2994   14.2570 N   0  0  0  0  0  0  0  0  0  0  0  0
   17.6276  -20.7859    8.6966 C   0  0  0  0  0  0  0  0  0  0  0  0
   18.3767  -21.8849    9.1457 O   0  0  0  0  0  0  0  0  0  0  0  0
   16.4565  -21.0690    8.3053 O   0  0  0  0  0  0  0  0  0  0  0  0
  2  1  1  6
  2  4  1  0
  2  3  1  0
  4  5  1  6
  4  6  1  0
  6  7  2  0
  9  8  1  0
 10  9  2  0
 12 11  1  6
 11  9  1  0
 13  6  1  0
 13 12  1  0
 14 12  1  0
 14 15  2  0
 16 14  1  0
 17 23  1  0
 17 16  1  0
 17 18  1  1
 19 18  1  0
 20 19  1  0
 21 20  1  0
 21 22  1  0
 23 24  1  0
 25 23  2  0
M  END
$$$$
