PGT.pdb
     RDKit          3D

 19 19  0  0  1  0  0  0  0  0999 V2000
   16.2831   -9.4045  -16.1392 N   0  0  0  0  0  0  0  0  0  0  0  0
   17.2193  -10.4623  -16.3685 C   0  0  0  0  0  0  0  0  0  0  0  0
   16.8086  -11.6309  -15.4963 C   0  0  0  0  0  0  0  0  0  0  0  0
   15.3347  -11.2893  -15.2453 C   0  0  0  0  0  0  0  0  0  0  0  0
   15.4825   -9.7822  -15.0058 C   0  0  1  0  0  0  0  0  0  0  0  0
   16.1340   -9.6075  -13.6998 C   0  0  0  0  0  0  0  0  0  0  0  0
   15.5608  -10.0271  -12.6336 O   0  0  0  0  0  0  0  0  0  0  0  0
   17.3939   -8.9939  -13.4701 N   0  0  0  0  0  0  0  0  0  0  0  0
   17.9562   -8.8659  -12.1286 C   0  0  0  0  0  0  0  0  0  0  0  0
   19.2579   -8.1908  -12.1378 C   0  0  0  0  0  0  0  0  0  0  0  0
   19.8772   -7.9775  -11.0736 O   0  0  0  0  0  0  0  0  0  0  0  0
   21.0475   -7.7165  -15.7992 C   0  0  0  0  0  0  0  0  0  0  0  0
   21.9064   -7.7833  -14.5476 C   0  0  1  0  0  0  0  0  0  0  0  0
   23.0826   -7.0752  -14.7342 O   0  0  0  0  0  0  0  0  0  0  0  0
   21.1117   -7.1128  -13.4431 C   0  0  2  0  0  0  0  0  0  0  0  0
   19.8362   -7.7681  -13.3559 N   0  0  0  0  0  0  0  0  0  0  0  0
   20.9556   -5.6603  -13.6895 C   0  0  0  0  0  0  0  0  0  0  0  0
   22.1137   -4.8803  -13.7562 O   0  0  0  0  0  0  0  0  0  0  0  0
   19.8333   -5.1148  -13.8383 O   0  0  0  0  0  0  0  0  0  0  0  0
  1  2  1  0
  3  2  1  0
  4  5  1  0
  4  3  1  0
  5  6  1  1
  5  1  1  0
  6  8  1  0
  7  6  2  0
  8  9  1  0
 10  9  1  0
 10 11  2  0
 13 12  1  6
 13 15  1  0
 14 13  1  0
 15 16  1  6
 15 17  1  0
 16 10  1  0
 17 19  2  0
 17 18  1  0
M  END
$$$$
