PGT.pdb
     RDKit          3D

 19 19  0  0  1  0  0  0  0  0999 V2000
   18.2416  -12.5719  -15.8309 N   0  0  0  0  0  0  0  0  0  0  0  0
   17.2403  -11.8013  -15.1589 C   0  0  0  0  0  0  0  0  0  0  0  0
   16.5618  -10.9317  -16.1973 C   0  0  0  0  0  0  0  0  0  0  0  0
   16.9051  -11.7035  -17.4773 C   0  0  0  0  0  0  0  0  0  0  0  0
   18.3671  -12.0401  -17.1611 C   0  0  1  0  0  0  0  0  0  0  0  0
   19.1360  -10.7912  -17.2605 C   0  0  0  0  0  0  0  0  0  0  0  0
   19.2085  -10.1674  -18.3771 O   0  0  0  0  0  0  0  0  0  0  0  0
   19.8467  -10.1616  -16.2046 N   0  0  0  0  0  0  0  0  0  0  0  0
   20.6018   -8.9288  -16.4108 C   0  0  0  0  0  0  0  0  0  0  0  0
   20.3033   -7.9212  -15.3881 C   0  0  0  0  0  0  0  0  0  0  0  0
   19.7071   -8.2333  -14.3352 O   0  0  0  0  0  0  0  0  0  0  0  0
   22.6833   -5.8390  -13.7026 C   0  0  0  0  0  0  0  0  0  0  0  0
   21.7603   -4.8243  -14.3561 C   0  0  1  0  0  0  0  0  0  0  0  0
   22.2813   -4.4152  -15.5729 O   0  0  0  0  0  0  0  0  0  0  0  0
   20.4464   -5.5383  -14.6113 C   0  0  2  0  0  0  0  0  0  0  0  0
   20.6867   -6.5744  -15.5772 N   0  0  0  0  0  0  0  0  0  0  0  0
   19.3985   -4.6001  -15.0768 C   0  0  0  0  0  0  0  0  0  0  0  0
   18.7732   -3.7926  -14.1224 O   0  0  0  0  0  0  0  0  0  0  0  0
   19.0586   -4.5079  -16.2831 O   0  0  0  0  0  0  0  0  0  0  0  0
  1  2  1  0
  3  2  1  0
  4  5  1  0
  4  3  1  0
  5  6  1  1
  5  1  1  0
  6  8  1  0
  7  6  2  0
  8  9  1  0
 10  9  1  0
 10 11  2  0
 13 12  1  6
 13 15  1  0
 14 13  1  0
 15 16  1  6
 15 17  1  0
 16 10  1  0
 17 19  2  0
 17 18  1  0
M  END
$$$$
