PGT.pdb
     RDKit          3D

 19 19  0  0  1  0  0  0  0  0999 V2000
   27.5316  -11.7848  -17.4382 N   0  0  0  0  0  0  0  0  0  0  0  0
   28.0504  -11.6938  -16.1075 C   0  0  0  0  0  0  0  0  0  0  0  0
   27.2197  -12.6087  -15.2313 C   0  0  0  0  0  0  0  0  0  0  0  0
   26.6293  -13.5499  -16.2886 C   0  0  0  0  0  0  0  0  0  0  0  0
   26.2920  -12.5100  -17.3636 C   0  0  1  0  0  0  0  0  0  0  0  0
   25.1453  -11.7307  -16.8753 C   0  0  0  0  0  0  0  0  0  0  0  0
   24.0203  -12.3056  -16.6628 O   0  0  0  0  0  0  0  0  0  0  0  0
   25.1394  -10.3382  -16.5966 N   0  0  0  0  0  0  0  0  0  0  0  0
   23.8968   -9.5794  -16.4847 C   0  0  0  0  0  0  0  0  0  0  0  0
   24.1176   -8.2362  -15.9393 C   0  0  0  0  0  0  0  0  0  0  0  0
   25.2537   -7.8751  -15.5646 O   0  0  0  0  0  0  0  0  0  0  0  0
   24.2947   -5.2998  -17.3602 C   0  0  0  0  0  0  0  0  0  0  0  0
   23.0932   -5.0239  -16.4719 C   0  0  1  0  0  0  0  0  0  0  0  0
   21.9184   -5.2777  -17.1610 O   0  0  0  0  0  0  0  0  0  0  0  0
   23.1864   -5.9921  -15.3078 C   0  0  2  0  0  0  0  0  0  0  0  0
   23.0445   -7.3238  -15.8279 N   0  0  0  0  0  0  0  0  0  0  0  0
   22.1620   -5.7041  -14.2769 C   0  0  0  0  0  0  0  0  0  0  0  0
   22.3033   -4.5353  -13.5234 O   0  0  0  0  0  0  0  0  0  0  0  0
   21.1851   -6.4646  -14.0610 O   0  0  0  0  0  0  0  0  0  0  0  0
  1  2  1  0
  3  2  1  0
  4  5  1  0
  4  3  1  0
  5  6  1  1
  5  1  1  0
  6  8  1  0
  7  6  2  0
  8  9  1  0
 10  9  1  0
 10 11  2  0
 13 12  1  6
 13 15  1  0
 14 13  1  0
 15 16  1  6
 15 17  1  0
 16 10  1  0
 17 19  2  0
 17 18  1  0
M  END
$$$$
