PGT.pdb
     RDKit          3D

 19 19  0  0  1  0  0  0  0  0999 V2000
   17.6463  -12.6037  -15.8196 N   0  0  0  0  0  0  0  0  0  0  0  0
   16.7863  -12.7583  -16.9531 C   0  0  0  0  0  0  0  0  0  0  0  0
   17.6551  -12.7130  -18.1933 C   0  0  0  0  0  0  0  0  0  0  0  0
   19.0201  -13.0715  -17.5930 C   0  0  0  0  0  0  0  0  0  0  0  0
   18.9420  -12.2264  -16.3162 C   0  0  1  0  0  0  0  0  0  0  0  0
   19.0678  -10.8171  -16.7147 C   0  0  0  0  0  0  0  0  0  0  0  0
   20.1286  -10.4076  -17.3050 O   0  0  0  0  0  0  0  0  0  0  0  0
   18.0969   -9.8012  -16.5101 N   0  0  0  0  0  0  0  0  0  0  0  0
   18.3603   -8.4042  -16.8437 C   0  0  0  0  0  0  0  0  0  0  0  0
   18.8752   -7.6503  -15.6962 C   0  0  0  0  0  0  0  0  0  0  0  0
   18.4389   -7.8589  -14.5440 O   0  0  0  0  0  0  0  0  0  0  0  0
   21.8510   -7.6943  -14.0876 C   0  0  0  0  0  0  0  0  0  0  0  0
   21.8579   -6.2646  -14.6019 C   0  0  1  0  0  0  0  0  0  0  0  0
   22.5055   -6.1974  -15.8249 O   0  0  0  0  0  0  0  0  0  0  0  0
   20.4066   -5.8722  -14.8043 C   0  0  2  0  0  0  0  0  0  0  0  0
   19.8780   -6.6709  -15.8751 N   0  0  0  0  0  0  0  0  0  0  0  0
   20.2688   -4.4255  -15.0923 C   0  0  0  0  0  0  0  0  0  0  0  0
   20.5665   -3.5235  -14.0668 O   0  0  0  0  0  0  0  0  0  0  0  0
   19.8988   -3.9894  -16.2113 O   0  0  0  0  0  0  0  0  0  0  0  0
  1  2  1  0
  3  2  1  0
  4  5  1  0
  4  3  1  0
  5  6  1  6
  5  1  1  0
  6  8  1  0
  7  6  2  0
  8  9  1  0
 10  9  1  0
 10 11  2  0
 13 12  1  6
 13 15  1  0
 14 13  1  0
 15 16  1  6
 15 17  1  0
 16 10  1  0
 17 19  2  0
 17 18  1  0
M  END
$$$$
