PGT.pdb
     RDKit          3D

 19 19  0  0  1  0  0  0  0  0999 V2000
   19.0685   -9.0411  -15.3072 N   0  0  0  0  0  0  0  0  0  0  0  0
   18.4741   -7.9661  -16.0414 C   0  0  0  0  0  0  0  0  0  0  0  0
   19.4035   -7.6303  -17.1896 C   0  0  0  0  0  0  0  0  0  0  0  0
   20.2001   -8.9365  -17.2970 C   0  0  0  0  0  0  0  0  0  0  0  0
   20.4086   -9.2055  -15.8021 C   0  0  1  0  0  0  0  0  0  0  0  0
   21.3780   -8.2163  -15.3095 C   0  0  0  0  0  0  0  0  0  0  0  0
   22.5600   -8.1734  -15.8018 O   0  0  0  0  0  0  0  0  0  0  0  0
   21.1435   -7.2499  -14.2957 N   0  0  0  0  0  0  0  0  0  0  0  0
   22.1998   -6.3628  -13.8168 C   0  0  0  0  0  0  0  0  0  0  0  0
   22.0835   -5.0130  -14.3777 C   0  0  0  0  0  0  0  0  0  0  0  0
   22.8094   -4.0828  -13.9661 O   0  0  0  0  0  0  0  0  0  0  0  0
   22.1136   -4.2703  -18.0348 C   0  0  0  0  0  0  0  0  0  0  0  0
   20.8126   -3.6831  -17.5140 C   0  0  1  0  0  0  0  0  0  0  0  0
   19.7751   -4.5847  -17.6886 O   0  0  0  0  0  0  0  0  0  0  0  0
   21.0069   -3.4560  -16.0268 C   0  0  2  0  0  0  0  0  0  0  0  0
   21.1444   -4.7404  -15.3978 N   0  0  0  0  0  0  0  0  0  0  0  0
   19.8836   -2.6871  -15.4422 C   0  0  0  0  0  0  0  0  0  0  0  0
   19.7213   -1.3584  -15.8447 O   0  0  0  0  0  0  0  0  0  0  0  0
   19.0840   -3.1827  -14.6089 O   0  0  0  0  0  0  0  0  0  0  0  0
  1  2  1  0
  3  2  1  0
  4  5  1  0
  4  3  1  0
  5  6  1  1
  5  1  1  0
  6  8  1  0
  7  6  2  0
  8  9  1  0
 10  9  1  0
 10 11  2  0
 13 12  1  1
 13 15  1  0
 14 13  1  0
 15 16  1  1
 15 17  1  0
 16 10  1  0
 17 19  2  0
 17 18  1  0
M  END
$$$$
