PGT.pdb
     RDKit          3D

 19 19  0  0  1  0  0  0  0  0999 V2000
   19.4010  -12.5700  -16.8588 N   0  0  0  0  0  0  0  0  0  0  0  0
   18.8740  -13.2480  -15.7139 C   0  0  0  0  0  0  0  0  0  0  0  0
   17.4041  -12.8957  -15.6127 C   0  0  0  0  0  0  0  0  0  0  0  0
   17.1207  -12.4575  -17.0549 C   0  0  0  0  0  0  0  0  0  0  0  0
   18.3958  -11.6439  -17.3058 C   0  0  1  0  0  0  0  0  0  0  0  0
   18.2919  -10.4103  -16.5133 C   0  0  0  0  0  0  0  0  0  0  0  0
   17.3198   -9.5992  -16.7099 O   0  0  0  0  0  0  0  0  0  0  0  0
   19.1934   -9.9901  -15.4997 N   0  0  0  0  0  0  0  0  0  0  0  0
   19.0295   -8.7186  -14.8006 C   0  0  0  0  0  0  0  0  0  0  0  0
   20.3164   -8.0784  -14.5105 C   0  0  0  0  0  0  0  0  0  0  0  0
   21.1382   -8.6128  -13.7356 O   0  0  0  0  0  0  0  0  0  0  0  0
   23.5894   -4.7356  -15.8638 C   0  0  0  0  0  0  0  0  0  0  0  0
   22.1871   -5.2845  -16.0656 C   0  0  1  0  0  0  0  0  0  0  0  0
   22.1422   -6.0827  -17.1971 O   0  0  0  0  0  0  0  0  0  0  0  0
   21.8839   -6.1480  -14.8558 C   0  0  2  0  0  0  0  0  0  0  0  0
   20.6502   -6.8407  -15.1052 N   0  0  0  0  0  0  0  0  0  0  0  0
   21.8075   -5.3407  -13.6160 C   0  0  0  0  0  0  0  0  0  0  0  0
   22.8290   -5.4913  -12.6738 O   0  0  0  0  0  0  0  0  0  0  0  0
   20.8688   -4.5370  -13.3871 O   0  0  0  0  0  0  0  0  0  0  0  0
  1  2  1  0
  3  2  1  0
  4  5  1  0
  4  3  1  0
  5  6  1  1
  5  1  1  0
  6  8  1  0
  7  6  2  0
  8  9  1  0
 10  9  1  0
 10 11  2  0
 13 12  1  1
 13 15  1  0
 14 13  1  0
 15 16  1  6
 15 17  1  0
 16 10  1  0
 17 19  2  0
 17 18  1  0
M  END
$$$$
