PGT.pdb
     RDKit          3D

 19 19  0  0  1  0  0  0  0  0999 V2000
   25.0912  -18.4861  -16.1356 N   0  0  0  0  0  0  0  0  0  0  0  0
   24.5225  -17.5294  -15.2360 C   0  0  0  0  0  0  0  0  0  0  0  0
   25.5742  -16.4715  -14.9719 C   0  0  0  0  0  0  0  0  0  0  0  0
   26.4788  -16.6634  -16.1954 C   0  0  0  0  0  0  0  0  0  0  0  0
   26.4963  -18.1961  -16.2337 C   0  0  1  0  0  0  0  0  0  0  0  0
   27.3057  -18.6540  -15.0953 C   0  0  0  0  0  0  0  0  0  0  0  0
   28.1364  -17.8562  -14.5343 O   0  0  0  0  0  0  0  0  0  0  0  0
   27.2719  -19.9490  -14.5135 N   0  0  0  0  0  0  0  0  0  0  0  0
   28.0507  -20.2803  -13.3236 C   0  0  0  0  0  0  0  0  0  0  0  0
   27.2189  -20.8568  -12.2624 C   0  0  0  0  0  0  0  0  0  0  0  0
   27.5952  -21.8667  -11.6300 O   0  0  0  0  0  0  0  0  0  0  0  0
   26.2667  -20.9731   -9.3007 C   0  0  0  0  0  0  0  0  0  0  0  0
   24.8856  -20.6407   -9.8398 C   0  0  1  0  0  0  0  0  0  0  0  0
   24.6388  -19.2824   -9.7231 O   0  0  0  0  0  0  0  0  0  0  0  0
   24.8994  -21.0019  -11.3131 C   0  0  2  0  0  0  0  0  0  0  0  0
   25.9723  -20.2772  -11.9358 N   0  0  0  0  0  0  0  0  0  0  0  0
   23.6003  -20.7024  -11.9593 C   0  0  0  0  0  0  0  0  0  0  0  0
   22.4710  -21.3909  -11.5071 O   0  0  0  0  0  0  0  0  0  0  0  0
   23.4822  -19.8623  -12.8865 O   0  0  0  0  0  0  0  0  0  0  0  0
  1  2  1  0
  3  2  1  0
  4  5  1  0
  4  3  1  0
  5  6  1  1
  5  1  1  0
  6  8  1  0
  7  6  2  0
  8  9  1  0
 10  9  1  0
 10 11  2  0
 13 12  1  6
 13 15  1  0
 14 13  1  0
 15 16  1  6
 15 17  1  0
 16 10  1  0
 17 19  2  0
 17 18  1  0
M  END
$$$$
