PGT.pdb
     RDKit          3D

 19 19  0  0  1  0  0  0  0  0999 V2000
   17.9916  -10.0393  -16.7251 N   0  0  0  0  0  0  0  0  0  0  0  0
   18.1726  -10.6008  -18.0289 C   0  0  0  0  0  0  0  0  0  0  0  0
   18.5593  -12.0544  -17.8491 C   0  0  0  0  0  0  0  0  0  0  0  0
   18.0326  -12.3117  -16.4319 C   0  0  0  0  0  0  0  0  0  0  0  0
   18.4820  -11.0012  -15.7751 C   0  0  1  0  0  0  0  0  0  0  0  0
   19.9452  -11.0550  -15.6452 C   0  0  0  0  0  0  0  0  0  0  0  0
   20.5073  -12.0801  -15.1212 O   0  0  0  0  0  0  0  0  0  0  0  0
   20.8579  -10.0474  -16.0556 N   0  0  0  0  0  0  0  0  0  0  0  0
   21.6103   -9.2494  -15.0914 C   0  0  0  0  0  0  0  0  0  0  0  0
   21.3875   -7.8114  -15.2719 C   0  0  0  0  0  0  0  0  0  0  0  0
   21.9495   -6.9774  -14.5302 O   0  0  0  0  0  0  0  0  0  0  0  0
   19.4535   -4.3517  -18.1853 C   0  0  0  0  0  0  0  0  0  0  0  0
   19.6372   -5.8359  -17.9170 C   0  0  1  0  0  0  0  0  0  0  0  0
   20.4811   -6.3940  -18.8636 O   0  0  0  0  0  0  0  0  0  0  0  0
   20.2989   -5.9495  -16.5567 C   0  0  2  0  0  0  0  0  0  0  0  0
   20.5297   -7.3426  -16.2923 N   0  0  0  0  0  0  0  0  0  0  0  0
   19.4717   -5.3294  -15.4955 C   0  0  0  0  0  0  0  0  0  0  0  0
   18.3548   -6.0360  -15.0404 O   0  0  0  0  0  0  0  0  0  0  0  0
   19.7373   -4.2061  -14.9986 O   0  0  0  0  0  0  0  0  0  0  0  0
  1  2  1  0
  3  2  1  0
  4  5  1  0
  4  3  1  0
  5  6  1  6
  5  1  1  0
  6  8  1  0
  7  6  2  0
  8  9  1  0
 10  9  1  0
 10 11  2  0
 13 12  1  6
 13 15  1  0
 14 13  1  0
 15 16  1  1
 15 17  1  0
 16 10  1  0
 17 19  2  0
 17 18  1  0
M  END
$$$$
