PGT.pdb
     RDKit          3D

 19 19  0  0  1  0  0  0  0  0999 V2000
   19.8004  -12.3844  -15.8741 N   0  0  0  0  0  0  0  0  0  0  0  0
   18.9403  -11.8547  -14.8604 C   0  0  0  0  0  0  0  0  0  0  0  0
   18.0087  -10.8629  -15.5262 C   0  0  0  0  0  0  0  0  0  0  0  0
   18.0926  -11.3337  -16.9834 C   0  0  0  0  0  0  0  0  0  0  0  0
   19.6020  -11.5924  -17.0579 C   0  0  1  0  0  0  0  0  0  0  0  0
   20.2721  -10.2841  -17.0490 C   0  0  0  0  0  0  0  0  0  0  0  0
   20.0799   -9.4563  -18.0077 O   0  0  0  0  0  0  0  0  0  0  0  0
   21.1562   -9.8052  -16.0462 N   0  0  0  0  0  0  0  0  0  0  0  0
   21.7906   -8.4932  -16.1400 C   0  0  0  0  0  0  0  0  0  0  0  0
   21.3556   -7.5920  -15.0681 C   0  0  0  0  0  0  0  0  0  0  0  0
   21.2401   -8.0018  -13.8933 O   0  0  0  0  0  0  0  0  0  0  0  0
   22.8588   -4.4934  -14.0875 C   0  0  0  0  0  0  0  0  0  0  0  0
   21.4438   -4.0642  -14.4372 C   0  0  1  0  0  0  0  0  0  0  0  0
   21.3960   -3.5788  -15.7340 O   0  0  0  0  0  0  0  0  0  0  0  0
   20.5833   -5.3111  -14.3587 C   0  0  2  0  0  0  0  0  0  0  0  0
   21.0585   -6.2391  -15.3472 N   0  0  0  0  0  0  0  0  0  0  0  0
   19.1496   -4.9967  -14.5599 C   0  0  0  0  0  0  0  0  0  0  0  0
   18.4678   -4.3592  -13.5194 O   0  0  0  0  0  0  0  0  0  0  0  0
   18.5356   -5.2800  -15.6192 O   0  0  0  0  0  0  0  0  0  0  0  0
  1  2  1  0
  3  2  1  0
  4  5  1  0
  4  3  1  0
  5  6  1  1
  5  1  1  0
  6  8  1  0
  7  6  2  0
  8  9  1  0
 10  9  1  0
 10 11  2  0
 13 12  1  6
 13 15  1  0
 14 13  1  0
 15 16  1  6
 15 17  1  0
 16 10  1  0
 17 19  2  0
 17 18  1  0
M  END
$$$$
