PGT.pdb
     RDKit          3D

 19 19  0  0  1  0  0  0  0  0999 V2000
   17.1403   -9.2526  -16.3789 N   0  0  0  0  0  0  0  0  0  0  0  0
   17.2119   -8.0498  -17.1511 C   0  0  0  0  0  0  0  0  0  0  0  0
   18.2825   -8.2480  -18.2044 C   0  0  0  0  0  0  0  0  0  0  0  0
   18.3468   -9.7795  -18.2545 C   0  0  0  0  0  0  0  0  0  0  0  0
   18.2672  -10.0651  -16.7502 C   0  0  1  0  0  0  0  0  0  0  0  0
   19.5490   -9.6566  -16.1579 C   0  0  0  0  0  0  0  0  0  0  0  0
   20.6093  -10.3390  -16.3852 O   0  0  0  0  0  0  0  0  0  0  0  0
   19.7600   -8.5321  -15.3168 N   0  0  0  0  0  0  0  0  0  0  0  0
   20.7510   -8.5463  -14.2443 C   0  0  0  0  0  0  0  0  0  0  0  0
   21.3732   -7.2327  -14.0505 C   0  0  0  0  0  0  0  0  0  0  0  0
   22.2106   -7.0478  -13.1416 O   0  0  0  0  0  0  0  0  0  0  0  0
   23.7637   -5.5668  -15.4895 C   0  0  0  0  0  0  0  0  0  0  0  0
   22.6212   -4.6185  -15.8120 C   0  0  1  0  0  0  0  0  0  0  0  0
   22.0621   -4.9400  -17.0383 O   0  0  0  0  0  0  0  0  0  0  0  0
   21.5719   -4.8259  -14.7362 C   0  0  2  0  0  0  0  0  0  0  0  0
   21.0347   -6.1492  -14.8920 N   0  0  0  0  0  0  0  0  0  0  0  0
   20.5062   -3.7995  -14.8101 C   0  0  0  0  0  0  0  0  0  0  0  0
   20.8587   -2.4714  -14.5531 O   0  0  0  0  0  0  0  0  0  0  0  0
   19.3139   -4.0793  -15.0918 O   0  0  0  0  0  0  0  0  0  0  0  0
  1  2  1  0
  3  2  1  0
  4  5  1  0
  4  3  1  0
  5  6  1  1
  5  1  1  0
  6  8  1  0
  7  6  2  0
  8  9  1  0
 10  9  1  0
 10 11  2  0
 13 12  1  1
 13 15  1  0
 14 13  1  0
 15 16  1  6
 15 17  1  0
 16 10  1  0
 17 19  2  0
 17 18  1  0
M  END
$$$$
