PGT.pdb
     RDKit          3D

 19 19  0  0  1  0  0  0  0  0999 V2000
   22.8928  -20.0481  -18.5979 N   0  0  0  0  0  0  0  0  0  0  0  0
   21.5524  -19.5729  -18.7582 C   0  0  0  0  0  0  0  0  0  0  0  0
   21.5422  -18.1046  -18.3857 C   0  0  0  0  0  0  0  0  0  0  0  0
   23.0268  -17.7609  -18.5588 C   0  0  0  0  0  0  0  0  0  0  0  0
   23.6324  -19.0169  -17.9215 C   0  0  1  0  0  0  0  0  0  0  0  0
   23.3957  -18.9315  -16.4732 C   0  0  0  0  0  0  0  0  0  0  0  0
   24.0147  -18.0571  -15.7707 O   0  0  0  0  0  0  0  0  0  0  0  0
   22.5124  -19.7506  -15.7214 N   0  0  0  0  0  0  0  0  0  0  0  0
   22.3559  -19.5940  -14.2780 C   0  0  0  0  0  0  0  0  0  0  0  0
   23.1958  -20.5324  -13.5268 C   0  0  0  0  0  0  0  0  0  0  0  0
   22.8289  -21.7120  -13.3385 O   0  0  0  0  0  0  0  0  0  0  0  0
   26.7034  -19.0742  -11.6582 C   0  0  0  0  0  0  0  0  0  0  0  0
   26.7221  -20.4194  -12.3643 C   0  0  1  0  0  0  0  0  0  0  0  0
   27.5898  -21.2871  -11.7211 O   0  0  0  0  0  0  0  0  0  0  0  0
   25.3165  -20.9805  -12.2603 C   0  0  2  0  0  0  0  0  0  0  0  0
   24.4397  -20.1165  -13.0010 N   0  0  0  0  0  0  0  0  0  0  0  0
   24.8835  -21.1060  -10.8490 C   0  0  0  0  0  0  0  0  0  0  0  0
   25.5234  -22.0588  -10.0511 O   0  0  0  0  0  0  0  0  0  0  0  0
   23.9737  -20.3948  -10.3533 O   0  0  0  0  0  0  0  0  0  0  0  0
  1  2  1  0
  3  2  1  0
  4  5  1  0
  4  3  1  0
  5  6  1  1
  5  1  1  0
  6  8  1  0
  7  6  2  0
  8  9  1  0
 10  9  1  0
 10 11  2  0
 13 12  1  1
 13 15  1  0
 14 13  1  0
 15 16  1  6
 15 17  1  0
 16 10  1  0
 17 19  2  0
 17 18  1  0
M  END
$$$$
