EGY.pdb
     RDKit          3D

 26 26  0  0  1  0  0  0  0  0999 V2000
    8.0758  -18.3582   21.8482 N   0  0  0  0  0  0  0  0  0  0  0  0
    9.2156  -18.4110   20.9451 C   0  0  1  0  0  0  0  0  0  0  0  0
    8.8268  -18.1619   19.5248 C   0  0  0  0  0  0  0  0  0  0  0  0
    8.2892  -16.7953   19.3234 C   0  0  0  0  0  0  0  0  0  0  0  0
    8.0065  -16.3980   17.9437 C   0  0  0  0  0  0  0  0  0  0  0  0
    8.6287  -15.5769   17.2468 O   0  0  0  0  0  0  0  0  0  0  0  0
   10.2129  -17.4122   21.4360 C   0  0  0  0  0  0  0  0  0  0  0  0
   11.0873  -16.9665   20.6801 O   0  0  0  0  0  0  0  0  0  0  0  0
    6.9092  -17.0089   17.3296 O   0  0  0  0  0  0  0  0  0  0  0  0
   10.1670  -16.9668   22.7688 N   0  0  0  0  0  0  0  0  0  0  0  0
   11.0464  -15.9711   23.3272 C   0  0  0  0  0  0  0  0  0  0  0  0
   10.7902  -15.8100   24.7755 C   0  0  0  0  0  0  0  0  0  0  0  0
   11.5027  -15.0019   25.4482 O   0  0  0  0  0  0  0  0  0  0  0  0
    6.3322  -11.3292   24.8069 O   0  0  0  0  0  0  0  0  0  0  0  0
    6.7731  -12.5078   25.3898 C   0  0  0  0  0  0  0  0  0  0  0  0
    7.6918  -12.4445   26.4132 C   0  0  0  0  0  0  0  0  0  0  0  0
    8.1055  -13.6360   26.9667 C   0  0  0  0  0  0  0  0  0  0  0  0
    7.6411  -14.8571   26.5396 C   0  0  0  0  0  0  0  0  0  0  0  0
    8.1453  -16.0751   27.1970 C   0  0  0  0  0  0  0  0  0  0  0  0
    9.5817  -16.3927   26.8401 C   0  0  2  0  0  0  0  0  0  0  0  0
    9.7640  -16.5418   25.4241 N   0  0  0  0  0  0  0  0  0  0  0  0
   10.0863  -17.5458   27.6041 C   0  0  0  0  0  0  0  0  0  0  0  0
   10.5277  -18.5363   26.9894 O   0  0  0  0  0  0  0  0  0  0  0  0
    6.7233  -14.8910   25.5150 C   0  0  0  0  0  0  0  0  0  0  0  0
    6.2857  -13.7086   24.9355 C   0  0  0  0  0  0  0  0  0  0  0  0
   10.0785  -17.5477   28.9765 O   0  0  0  0  0  0  0  0  0  0  0  0
  2  1  1  1
  2  3  1  0
  4  3  1  0
  4  5  1  0
  5  9  1  0
  5  6  2  0
  7  8  2  0
  7  2  1  0
 10  7  1  0
 11 12  1  0
 11 10  1  0
 12 21  1  0
 13 12  2  0
 15 14  1  0
 16 15  2  0
 17 16  1  0
 18 24  1  0
 18 17  2  0
 19 18  1  0
 20 19  1  6
 21 20  1  0
 22 26  1  0
 22 20  1  0
 23 22  2  0
 24 25  2  0
 25 15  1  0
M  END
$$$$
