EGY.pdb
     RDKit          3D

 26 26  0  0  1  0  0  0  0  0999 V2000
   10.9927  -17.4804   17.8829 N   0  0  0  0  0  0  0  0  0  0  0  0
    9.5405  -17.4464   17.7951 C   0  0  1  0  0  0  0  0  0  0  0  0
    9.0030  -18.4882   16.8698 C   0  0  0  0  0  0  0  0  0  0  0  0
    9.5915  -18.3887   15.5129 C   0  0  0  0  0  0  0  0  0  0  0  0
    9.2386  -19.4464   14.5653 C   0  0  0  0  0  0  0  0  0  0  0  0
    8.5839  -20.4799   14.7893 O   0  0  0  0  0  0  0  0  0  0  0  0
    9.0117  -17.6045   19.1838 C   0  0  0  0  0  0  0  0  0  0  0  0
    7.8008  -17.4870   19.4174 O   0  0  0  0  0  0  0  0  0  0  0  0
    9.6865  -19.2832   13.2511 O   0  0  0  0  0  0  0  0  0  0  0  0
    9.8897  -17.8899   20.2442 N   0  0  0  0  0  0  0  0  0  0  0  0
    9.4763  -18.1346   21.6028 C   0  0  0  0  0  0  0  0  0  0  0  0
    9.7050  -16.9338   22.4363 C   0  0  0  0  0  0  0  0  0  0  0  0
   10.0072  -15.8347   21.8760 O   0  0  0  0  0  0  0  0  0  0  0  0
    6.1338  -10.7570   26.9456 O   0  0  0  0  0  0  0  0  0  0  0  0
    6.5822  -11.8525   26.2230 C   0  0  0  0  0  0  0  0  0  0  0  0
    5.9820  -13.0755   26.4216 C   0  0  0  0  0  0  0  0  0  0  0  0
    6.4548  -14.1395   25.6856 C   0  0  0  0  0  0  0  0  0  0  0  0
    7.4826  -14.0214   24.7807 C   0  0  0  0  0  0  0  0  0  0  0  0
    7.9158  -15.2199   24.0419 C   0  0  0  0  0  0  0  0  0  0  0  0
    9.2058  -15.8103   24.5697 C   0  0  2  0  0  0  0  0  0  0  0  0
    9.5928  -16.9895   23.8483 N   0  0  0  0  0  0  0  0  0  0  0  0
    9.1459  -16.0267   26.0249 C   0  0  0  0  0  0  0  0  0  0  0  0
    8.5523  -17.0298   26.4666 O   0  0  0  0  0  0  0  0  0  0  0  0
    8.0644  -12.7874   24.6021 C   0  0  0  0  0  0  0  0  0  0  0  0
    7.6117  -11.6948   25.3278 C   0  0  0  0  0  0  0  0  0  0  0  0
    9.7308  -15.1452   26.8993 O   0  0  0  0  0  0  0  0  0  0  0  0
  2  1  1  1
  2  3  1  0
  4  3  1  0
  4  5  1  0
  5  9  1  0
  5  6  2  0
  7  8  2  0
  7  2  1  0
 10  7  1  0
 11 12  1  0
 11 10  1  0
 12 21  1  0
 13 12  2  0
 15 14  1  0
 16 15  2  0
 17 16  1  0
 18 24  1  0
 18 17  2  0
 19 18  1  0
 20 19  1  6
 21 20  1  0
 22 26  1  0
 22 20  1  0
 23 22  2  0
 24 25  2  0
 25 15  1  0
M  END
$$$$
