EGY.pdb
     RDKit          3D

 26 26  0  0  1  0  0  0  0  0999 V2000
    8.4630  -16.4825   19.2702 N   0  0  0  0  0  0  0  0  0  0  0  0
    8.6432  -17.8510   19.7311 C   0  0  1  0  0  0  0  0  0  0  0  0
   10.0462  -18.3304   19.5517 C   0  0  0  0  0  0  0  0  0  0  0  0
   10.8029  -17.4980   18.5864 C   0  0  0  0  0  0  0  0  0  0  0  0
   11.6622  -18.2089   17.6391 C   0  0  0  0  0  0  0  0  0  0  0  0
   11.6893  -19.4305   17.4065 O   0  0  0  0  0  0  0  0  0  0  0  0
    8.2158  -17.8934   21.1624 C   0  0  0  0  0  0  0  0  0  0  0  0
    8.4216  -18.8996   21.8550 O   0  0  0  0  0  0  0  0  0  0  0  0
   12.5618  -17.4301   16.9051 O   0  0  0  0  0  0  0  0  0  0  0  0
    7.5722  -16.7843   21.7390 N   0  0  0  0  0  0  0  0  0  0  0  0
    7.1006  -16.7308   23.0996 C   0  0  0  0  0  0  0  0  0  0  0  0
    8.2206  -16.4458   24.0234 C   0  0  0  0  0  0  0  0  0  0  0  0
    9.3710  -16.1925   23.5484 O   0  0  0  0  0  0  0  0  0  0  0  0
    5.7935  -10.7593   25.1672 O   0  0  0  0  0  0  0  0  0  0  0  0
    6.5226  -11.8146   25.6945 C   0  0  0  0  0  0  0  0  0  0  0  0
    5.8570  -12.8240   26.3528 C   0  0  0  0  0  0  0  0  0  0  0  0
    6.6154  -13.8547   26.8626 C   0  0  0  0  0  0  0  0  0  0  0  0
    7.9832  -13.9058   26.7378 C   0  0  0  0  0  0  0  0  0  0  0  0
    8.7042  -15.0518   27.3181 C   0  0  0  0  0  0  0  0  0  0  0  0
    9.1205  -16.0775   26.2856 C   0  0  2  0  0  0  0  0  0  0  0  0
    8.0313  -16.4508   25.4282 N   0  0  0  0  0  0  0  0  0  0  0  0
    9.7772  -17.2378   26.9103 C   0  0  0  0  0  0  0  0  0  0  0  0
    9.2746  -18.3697   26.7695 O   0  0  0  0  0  0  0  0  0  0  0  0
    8.6227  -12.8835   26.0751 C   0  0  0  0  0  0  0  0  0  0  0  0
    7.8881  -11.8302   25.5495 C   0  0  0  0  0  0  0  0  0  0  0  0
   10.9292  -17.0937   27.6424 O   0  0  0  0  0  0  0  0  0  0  0  0
  2  1  1  1
  2  3  1  0
  4  3  1  0
  4  5  1  0
  5  9  1  0
  5  6  2  0
  7  8  2  0
  7  2  1  0
 10  7  1  0
 11 12  1  0
 11 10  1  0
 12 21  1  0
 13 12  2  0
 15 14  1  0
 16 15  2  0
 17 16  1  0
 18 24  1  0
 18 17  2  0
 19 18  1  0
 20 19  1  1
 21 20  1  0
 22 26  1  0
 22 20  1  0
 23 22  2  0
 24 25  2  0
 25 15  1  0
M  END
$$$$
