EGY.pdb
     RDKit          3D

 26 26  0  0  1  0  0  0  0  0999 V2000
    8.9853  -13.5512   19.2646 N   0  0  0  0  0  0  0  0  0  0  0  0
    7.6747  -14.1178   18.9833 C   0  0  1  0  0  0  0  0  0  0  0  0
    7.5878  -14.6920   17.6074 C   0  0  0  0  0  0  0  0  0  0  0  0
    8.3057  -13.8642   16.6092 C   0  0  0  0  0  0  0  0  0  0  0  0
    9.3432  -14.5346   15.8247 C   0  0  0  0  0  0  0  0  0  0  0  0
    9.1880  -15.3122   14.8665 O   0  0  0  0  0  0  0  0  0  0  0  0
    7.4031  -15.1430   20.0360 C   0  0  0  0  0  0  0  0  0  0  0  0
    6.4116  -15.8815   19.9597 O   0  0  0  0  0  0  0  0  0  0  0  0
   10.6678  -14.2757   16.1893 O   0  0  0  0  0  0  0  0  0  0  0  0
    8.2765  -15.2790   21.1294 N   0  0  0  0  0  0  0  0  0  0  0  0
    8.1747  -16.3091   22.1320 C   0  0  0  0  0  0  0  0  0  0  0  0
    9.1976  -16.1102   23.1822 C   0  0  0  0  0  0  0  0  0  0  0  0
   10.3546  -15.7005   22.8555 O   0  0  0  0  0  0  0  0  0  0  0  0
    5.4011  -11.8215   26.9389 O   0  0  0  0  0  0  0  0  0  0  0  0
    6.5733  -12.4998   26.6404 C   0  0  0  0  0  0  0  0  0  0  0  0
    6.6480  -13.2229   25.4713 C   0  0  0  0  0  0  0  0  0  0  0  0
    7.8284  -13.8829   25.2097 C   0  0  0  0  0  0  0  0  0  0  0  0
    8.9083  -13.8433   26.0591 C   0  0  0  0  0  0  0  0  0  0  0  0
   10.1269  -14.5834   25.6890 C   0  0  0  0  0  0  0  0  0  0  0  0
    9.8974  -16.0724   25.5427 C   0  0  2  0  0  0  0  0  0  0  0  0
    8.9083  -16.3691   24.5456 N   0  0  0  0  0  0  0  0  0  0  0  0
    9.6058  -16.7046   26.8402 C   0  0  0  0  0  0  0  0  0  0  0  0
   10.3994  -16.5425   27.7876 O   0  0  0  0  0  0  0  0  0  0  0  0
    8.8061  -13.1130   27.2207 C   0  0  0  0  0  0  0  0  0  0  0  0
    7.6308  -12.4362   27.5143 C   0  0  0  0  0  0  0  0  0  0  0  0
    8.4788  -17.4663   27.0224 O   0  0  0  0  0  0  0  0  0  0  0  0
  2  1  1  1
  2  3  1  0
  4  3  1  0
  4  5  1  0
  5  9  1  0
  5  6  2  0
  7  8  2  0
  7  2  1  0
 10  7  1  0
 11 12  1  0
 11 10  1  0
 12 21  1  0
 13 12  2  0
 15 14  1  0
 16 15  2  0
 17 16  1  0
 18 24  1  0
 18 17  2  0
 19 18  1  0
 20 19  1  1
 21 20  1  0
 22 26  1  0
 22 20  1  0
 23 22  2  0
 24 25  2  0
 25 15  1  0
M  END
$$$$
