EGY.pdb
     RDKit          3D

 26 26  0  0  1  0  0  0  0  0999 V2000
    7.8987  -18.8588   19.3108 N   0  0  0  0  0  0  0  0  0  0  0  0
    8.8108  -19.8673   19.8291 C   0  0  1  0  0  0  0  0  0  0  0  0
   10.1247  -19.8632   19.1191 C   0  0  0  0  0  0  0  0  0  0  0  0
   10.3074  -18.6500   18.2872 C   0  0  0  0  0  0  0  0  0  0  0  0
   11.5816  -18.5258   17.5786 C   0  0  0  0  0  0  0  0  0  0  0  0
   11.9662  -19.1719   16.5877 O   0  0  0  0  0  0  0  0  0  0  0  0
    8.9649  -19.6108   21.2932 C   0  0  0  0  0  0  0  0  0  0  0  0
    9.7322  -20.2999   21.9794 O   0  0  0  0  0  0  0  0  0  0  0  0
   12.4780  -17.5705   18.0668 O   0  0  0  0  0  0  0  0  0  0  0  0
    8.2354  -18.5783   21.9085 N   0  0  0  0  0  0  0  0  0  0  0  0
    8.3399  -18.2230   23.3012 C   0  0  0  0  0  0  0  0  0  0  0  0
    9.3749  -17.1832   23.4924 C   0  0  0  0  0  0  0  0  0  0  0  0
   10.1640  -16.9062   22.5364 O   0  0  0  0  0  0  0  0  0  0  0  0
   10.6855  -16.3760   31.1082 O   0  0  0  0  0  0  0  0  0  0  0  0
   10.5019  -15.8977   29.8194 C   0  0  0  0  0  0  0  0  0  0  0  0
   11.0613  -14.6897   29.4688 C   0  0  0  0  0  0  0  0  0  0  0  0
   10.8571  -14.2480   28.1801 C   0  0  0  0  0  0  0  0  0  0  0  0
   10.1297  -14.9586   27.2554 C   0  0  0  0  0  0  0  0  0  0  0  0
    9.9688  -14.4005   25.9017 C   0  0  0  0  0  0  0  0  0  0  0  0
   10.3824  -15.3623   24.8085 C   0  0  2  0  0  0  0  0  0  0  0  0
    9.5005  -16.4918   24.7235 N   0  0  0  0  0  0  0  0  0  0  0  0
   11.7964  -15.7522   24.9378 C   0  0  0  0  0  0  0  0  0  0  0  0
   12.6811  -14.8841   24.8055 O   0  0  0  0  0  0  0  0  0  0  0  0
    9.5818  -16.1629   27.6329 C   0  0  0  0  0  0  0  0  0  0  0  0
    9.7687  -16.6366   28.9237 C   0  0  0  0  0  0  0  0  0  0  0  0
   12.1546  -17.0508   25.2006 O   0  0  0  0  0  0  0  0  0  0  0  0
  2  1  1  6
  2  3  1  0
  4  3  1  0
  4  5  1  0
  5  9  1  0
  5  6  2  0
  7  8  2  0
  7  2  1  0
 10  7  1  0
 11 12  1  0
 11 10  1  0
 12 21  1  0
 13 12  2  0
 15 14  1  0
 16 15  2  0
 17 16  1  0
 18 24  1  0
 18 17  2  0
 19 18  1  0
 20 19  1  1
 21 20  1  0
 22 26  1  0
 22 20  1  0
 23 22  2  0
 24 25  2  0
 25 15  1  0
M  END
$$$$
