EGY.pdb
     RDKit          3D

 26 26  0  0  1  0  0  0  0  0999 V2000
   11.5168  -19.2090   20.6043 N   0  0  0  0  0  0  0  0  0  0  0  0
   12.1068  -17.8831   20.4965 C   0  0  1  0  0  0  0  0  0  0  0  0
   12.3355  -17.4770   19.0776 C   0  0  0  0  0  0  0  0  0  0  0  0
   13.5583  -18.0929   18.5095 C   0  0  0  0  0  0  0  0  0  0  0  0
   13.8285  -17.8317   17.0953 C   0  0  0  0  0  0  0  0  0  0  0  0
   14.8538  -18.1180   16.4521 O   0  0  0  0  0  0  0  0  0  0  0  0
   11.1963  -16.9368   21.2098 C   0  0  0  0  0  0  0  0  0  0  0  0
   11.4561  -15.7267   21.2625 O   0  0  0  0  0  0  0  0  0  0  0  0
   12.8201  -17.1843   16.3754 O   0  0  0  0  0  0  0  0  0  0  0  0
   10.0293  -17.4149   21.8312 N   0  0  0  0  0  0  0  0  0  0  0  0
    9.0660  -16.5839   22.5080 C   0  0  0  0  0  0  0  0  0  0  0  0
    9.3800  -16.5001   23.9513 C   0  0  0  0  0  0  0  0  0  0  0  0
   10.5714  -16.2549   24.3167 O   0  0  0  0  0  0  0  0  0  0  0  0
    6.4897  -10.6522   25.3655 O   0  0  0  0  0  0  0  0  0  0  0  0
    6.7551  -11.9464   25.7871 C   0  0  0  0  0  0  0  0  0  0  0  0
    7.7071  -12.1503   26.7604 C   0  0  0  0  0  0  0  0  0  0  0  0
    7.9427  -13.4495   27.1528 C   0  0  0  0  0  0  0  0  0  0  0  0
    7.2732  -14.5231   26.6160 C   0  0  0  0  0  0  0  0  0  0  0  0
    7.5973  -15.8748   27.1037 C   0  0  0  0  0  0  0  0  0  0  0  0
    8.7091  -16.5393   26.3202 C   0  0  2  0  0  0  0  0  0  0  0  0
    8.3742  -16.6890   24.9323 N   0  0  0  0  0  0  0  0  0  0  0  0
    9.1288  -17.8049   26.9447 C   0  0  0  0  0  0  0  0  0  0  0  0
    8.9479  -18.8749   26.3315 O   0  0  0  0  0  0  0  0  0  0  0  0
    6.3267  -14.2904   25.6447 C   0  0  0  0  0  0  0  0  0  0  0  0
    6.0653  -12.9934   25.2268 C   0  0  0  0  0  0  0  0  0  0  0  0
    9.7139  -17.8253   28.1861 O   0  0  0  0  0  0  0  0  0  0  0  0
  2  1  1  6
  2  3  1  0
  4  3  1  0
  4  5  1  0
  5  9  1  0
  5  6  2  0
  7  8  2  0
  7  2  1  0
 10  7  1  0
 11 12  1  0
 11 10  1  0
 12 21  1  0
 13 12  2  0
 15 14  1  0
 16 15  2  0
 17 16  1  0
 18 24  1  0
 18 17  2  0
 19 18  1  0
 20 19  1  1
 21 20  1  0
 22 26  1  0
 22 20  1  0
 23 22  2  0
 24 25  2  0
 25 15  1  0
M  END
$$$$
