EGY.pdb
     RDKit          3D

 26 26  0  0  1  0  0  0  0  0999 V2000
    9.6036  -14.7714   21.2220 N   0  0  0  0  0  0  0  0  0  0  0  0
    8.2372  -14.3279   20.9900 C   0  0  1  0  0  0  0  0  0  0  0  0
    7.7575  -14.6615   19.6155 C   0  0  0  0  0  0  0  0  0  0  0  0
    8.6380  -14.0995   18.5638 C   0  0  0  0  0  0  0  0  0  0  0  0
    8.2454  -14.3493   17.1765 C   0  0  0  0  0  0  0  0  0  0  0  0
    7.2964  -15.0419   16.7683 O   0  0  0  0  0  0  0  0  0  0  0  0
    7.3859  -14.9531   22.0471 C   0  0  0  0  0  0  0  0  0  0  0  0
    6.1773  -14.6922   22.1232 O   0  0  0  0  0  0  0  0  0  0  0  0
    9.0239  -13.7411   16.1873 O   0  0  0  0  0  0  0  0  0  0  0  0
    7.9532  -15.8488   22.9706 N   0  0  0  0  0  0  0  0  0  0  0  0
    7.2088  -16.5662   23.9745 C   0  0  0  0  0  0  0  0  0  0  0  0
    6.9729  -15.7062   25.1551 C   0  0  0  0  0  0  0  0  0  0  0  0
    6.2805  -16.1518   26.1222 O   0  0  0  0  0  0  0  0  0  0  0  0
   11.3051  -16.8620   29.8230 O   0  0  0  0  0  0  0  0  0  0  0  0
   10.5802  -15.9083   29.1242 C   0  0  0  0  0  0  0  0  0  0  0  0
    9.7490  -15.0588   29.8192 C   0  0  0  0  0  0  0  0  0  0  0  0
    9.0457  -14.1252   29.0904 C   0  0  0  0  0  0  0  0  0  0  0  0
    9.1452  -14.0176   27.7238 C   0  0  0  0  0  0  0  0  0  0  0  0
    8.3512  -12.9851   27.0359 C   0  0  0  0  0  0  0  0  0  0  0  0
    7.1394  -13.5440   26.3215 C   0  0  2  0  0  0  0  0  0  0  0  0
    7.5060  -14.3946   25.2247 N   0  0  0  0  0  0  0  0  0  0  0  0
    6.2043  -12.4772   25.9271 C   0  0  0  0  0  0  0  0  0  0  0  0
    5.6360  -11.8087   26.8125 O   0  0  0  0  0  0  0  0  0  0  0  0
    9.9834  -14.8795   27.0546 C   0  0  0  0  0  0  0  0  0  0  0  0
   10.7063  -15.8317   27.7589 C   0  0  0  0  0  0  0  0  0  0  0  0
    5.9495  -12.2079   24.6056 O   0  0  0  0  0  0  0  0  0  0  0  0
  2  1  1  6
  2  3  1  0
  4  3  1  0
  4  5  1  0
  5  9  1  0
  5  6  2  0
  7  8  2  0
  7  2  1  0
 10  7  1  0
 11 12  1  0
 11 10  1  0
 12 21  1  0
 13 12  2  0
 15 14  1  0
 16 15  2  0
 17 16  1  0
 18 24  1  0
 18 17  2  0
 19 18  1  0
 20 19  1  6
 21 20  1  0
 22 26  1  0
 22 20  1  0
 23 22  2  0
 24 25  2  0
 25 15  1  0
M  END
$$$$
