EGY.pdb
     RDKit          3D

 26 26  0  0  1  0  0  0  0  0999 V2000
    7.1945  -18.2679   20.8702 N   0  0  0  0  0  0  0  0  0  0  0  0
    8.2593  -17.9657   19.9255 C   0  0  1  0  0  0  0  0  0  0  0  0
    7.7653  -17.8906   18.5181 C   0  0  0  0  0  0  0  0  0  0  0  0
    7.2602  -19.1966   18.0319 C   0  0  0  0  0  0  0  0  0  0  0  0
    7.9140  -19.7534   16.8471 C   0  0  0  0  0  0  0  0  0  0  0  0
    8.8694  -19.2746   16.2108 O   0  0  0  0  0  0  0  0  0  0  0  0
    8.8890  -16.6845   20.3670 C   0  0  0  0  0  0  0  0  0  0  0  0
    9.9427  -16.2863   19.8515 O   0  0  0  0  0  0  0  0  0  0  0  0
    7.4112  -20.9666   16.3677 O   0  0  0  0  0  0  0  0  0  0  0  0
    8.2868  -15.9147   21.3778 N   0  0  0  0  0  0  0  0  0  0  0  0
    8.7987  -14.6569   21.8601 C   0  0  0  0  0  0  0  0  0  0  0  0
    9.4097  -14.8267   23.1968 C   0  0  0  0  0  0  0  0  0  0  0  0
   10.3535  -14.0550   23.5532 O   0  0  0  0  0  0  0  0  0  0  0  0
    5.8313  -11.0378   26.5407 O   0  0  0  0  0  0  0  0  0  0  0  0
    6.5180  -12.2426   26.5289 C   0  0  0  0  0  0  0  0  0  0  0  0
    7.8260  -12.2708   26.9574 C   0  0  0  0  0  0  0  0  0  0  0  0
    8.4745  -13.4857   26.9309 C   0  0  0  0  0  0  0  0  0  0  0  0
    7.8712  -14.6432   26.5004 C   0  0  0  0  0  0  0  0  0  0  0  0
    8.6505  -15.8932   26.5108 C   0  0  0  0  0  0  0  0  0  0  0  0
    9.6170  -16.0015   25.3509 C   0  0  2  0  0  0  0  0  0  0  0  0
    8.9598  -15.8354   24.0855 N   0  0  0  0  0  0  0  0  0  0  0  0
   10.4108  -17.2395   25.4223 C   0  0  0  0  0  0  0  0  0  0  0  0
   11.0358  -17.5017   26.4684 O   0  0  0  0  0  0  0  0  0  0  0  0
    6.5631  -14.5862   26.0777 C   0  0  0  0  0  0  0  0  0  0  0  0
    5.8809  -13.3779   26.0917 C   0  0  0  0  0  0  0  0  0  0  0  0
   10.4734  -18.1061   24.3598 O   0  0  0  0  0  0  0  0  0  0  0  0
  2  1  1  1
  2  3  1  0
  4  3  1  0
  4  5  1  0
  5  9  1  0
  5  6  2  0
  7  8  2  0
  7  2  1  0
 10  7  1  0
 11 12  1  0
 11 10  1  0
 12 21  1  0
 13 12  2  0
 15 14  1  0
 16 15  2  0
 17 16  1  0
 18 24  1  0
 18 17  2  0
 19 18  1  0
 20 19  1  1
 21 20  1  0
 22 26  1  0
 22 20  1  0
 23 22  2  0
 24 25  2  0
 25 15  1  0
M  END
$$$$
