EGY.pdb
     RDKit          3D

 26 26  0  0  1  0  0  0  0  0999 V2000
   10.5224  -18.1512   19.6139 N   0  0  0  0  0  0  0  0  0  0  0  0
    9.3338  -17.5673   19.0106 C   0  0  1  0  0  0  0  0  0  0  0  0
    8.7154  -18.4655   17.9901 C   0  0  0  0  0  0  0  0  0  0  0  0
    9.7313  -19.1205   17.1321 C   0  0  0  0  0  0  0  0  0  0  0  0
    9.4164  -19.2278   15.7071 C   0  0  0  0  0  0  0  0  0  0  0  0
    9.0852  -18.3140   14.9312 O   0  0  0  0  0  0  0  0  0  0  0  0
    8.3875  -17.2480   20.1222 C   0  0  0  0  0  0  0  0  0  0  0  0
    7.1967  -17.5829   20.0559 O   0  0  0  0  0  0  0  0  0  0  0  0
    9.4947  -20.5051   15.1441 O   0  0  0  0  0  0  0  0  0  0  0  0
    8.8436  -16.5601   21.2604 N   0  0  0  0  0  0  0  0  0  0  0  0
    8.0286  -16.2500   22.4077 C   0  0  0  0  0  0  0  0  0  0  0  0
    8.7584  -15.3552   23.3328 C   0  0  0  0  0  0  0  0  0  0  0  0
    8.1451  -14.8482   24.3227 O   0  0  0  0  0  0  0  0  0  0  0  0
   10.1642  -14.0732   30.3262 O   0  0  0  0  0  0  0  0  0  0  0  0
   10.2393  -14.6189   29.0534 C   0  0  0  0  0  0  0  0  0  0  0  0
   10.5441  -15.9543   28.9156 C   0  0  0  0  0  0  0  0  0  0  0  0
   10.6096  -16.4596   27.6359 C   0  0  0  0  0  0  0  0  0  0  0  0
   10.3854  -15.6908   26.5188 C   0  0  0  0  0  0  0  0  0  0  0  0
   10.4786  -16.3257   25.1929 C   0  0  0  0  0  0  0  0  0  0  0  0
   11.0834  -15.4206   24.1410 C   0  0  2  0  0  0  0  0  0  0  0  0
   10.1292  -15.0548   23.1328 N   0  0  0  0  0  0  0  0  0  0  0  0
   12.3160  -15.9954   23.5770 C   0  0  0  0  0  0  0  0  0  0  0  0
   12.2946  -16.4675   22.4236 O   0  0  0  0  0  0  0  0  0  0  0  0
   10.0826  -14.3591   26.6858 C   0  0  0  0  0  0  0  0  0  0  0  0
   10.0088  -13.8185   27.9616 C   0  0  0  0  0  0  0  0  0  0  0  0
   13.4837  -16.0197   24.2979 O   0  0  0  0  0  0  0  0  0  0  0  0
  2  1  1  1
  2  3  1  0
  4  3  1  0
  4  5  1  0
  5  9  1  0
  5  6  2  0
  7  8  2  0
  7  2  1  0
 10  7  1  0
 11 12  1  0
 11 10  1  0
 12 21  1  0
 13 12  2  0
 15 14  1  0
 16 15  2  0
 17 16  1  0
 18 24  1  0
 18 17  2  0
 19 18  1  0
 20 19  1  1
 21 20  1  0
 22 26  1  0
 22 20  1  0
 23 22  2  0
 24 25  2  0
 25 15  1  0
M  END
$$$$
