EGY.pdb
     RDKit          3D

 26 26  0  0  1  0  0  0  0  0999 V2000
    7.0358  -19.3421   21.6782 N   0  0  0  0  0  0  0  0  0  0  0  0
    5.6665  -18.9971   22.0298 C   0  0  1  0  0  0  0  0  0  0  0  0
    5.1440  -19.8251   23.1576 C   0  0  0  0  0  0  0  0  0  0  0  0
    5.9285  -21.0681   23.3494 C   0  0  0  0  0  0  0  0  0  0  0  0
    5.5170  -21.9408   24.4495 C   0  0  0  0  0  0  0  0  0  0  0  0
    4.5622  -22.7377   24.4710 O   0  0  0  0  0  0  0  0  0  0  0  0
    5.6488  -17.5379   22.3515 C   0  0  0  0  0  0  0  0  0  0  0  0
    4.6097  -16.9884   22.7425 O   0  0  0  0  0  0  0  0  0  0  0  0
    6.2822  -21.8771   25.6178 O   0  0  0  0  0  0  0  0  0  0  0  0
    6.8190  -16.7712   22.2123 N   0  0  0  0  0  0  0  0  0  0  0  0
    6.8922  -15.3478   22.4251 C   0  0  0  0  0  0  0  0  0  0  0  0
    8.2849  -14.8734   22.2690 C   0  0  0  0  0  0  0  0  0  0  0  0
    9.0079  -15.3572   21.3435 O   0  0  0  0  0  0  0  0  0  0  0  0
   10.3473  -16.0992   30.4273 O   0  0  0  0  0  0  0  0  0  0  0  0
    9.8505  -15.6730   29.2046 C   0  0  0  0  0  0  0  0  0  0  0  0
    9.2506  -16.5896   28.3707 C   0  0  0  0  0  0  0  0  0  0  0  0
    8.7696  -16.1285   27.1652 C   0  0  0  0  0  0  0  0  0  0  0  0
    8.8673  -14.8133   26.7778 C   0  0  0  0  0  0  0  0  0  0  0  0
    8.3210  -14.4193   25.4678 C   0  0  0  0  0  0  0  0  0  0  0  0
    9.3813  -14.2905   24.3953 C   0  0  2  0  0  0  0  0  0  0  0  0
    8.8252  -13.8891   23.1342 N   0  0  0  0  0  0  0  0  0  0  0  0
   10.1995  -15.5106   24.2946 C   0  0  0  0  0  0  0  0  0  0  0  0
   11.4230  -15.4429   24.5228 O   0  0  0  0  0  0  0  0  0  0  0  0
    9.4716  -13.9187   27.6308 C   0  0  0  0  0  0  0  0  0  0  0  0
    9.9669  -14.3507   28.8529 C   0  0  0  0  0  0  0  0  0  0  0  0
    9.6388  -16.7164   23.9547 O   0  0  0  0  0  0  0  0  0  0  0  0
  2  1  1  1
  2  3  1  0
  4  3  1  0
  4  5  1  0
  5  9  1  0
  5  6  2  0
  7  8  2  0
  7  2  1  0
 10  7  1  0
 11 12  1  0
 11 10  1  0
 12 21  1  0
 13 12  2  0
 15 14  1  0
 16 15  2  0
 17 16  1  0
 18 24  1  0
 18 17  2  0
 19 18  1  0
 20 19  1  1
 21 20  1  0
 22 26  1  0
 22 20  1  0
 23 22  2  0
 24 25  2  0
 25 15  1  0
M  END
$$$$
