EGY.pdb
     RDKit          3D

 26 26  0  0  1  0  0  0  0  0999 V2000
    4.1519  -17.7060   22.6056 N   0  0  0  0  0  0  0  0  0  0  0  0
    4.7278  -18.4207   21.4764 C   0  0  1  0  0  0  0  0  0  0  0  0
    3.7149  -18.7287   20.4230 C   0  0  0  0  0  0  0  0  0  0  0  0
    3.0324  -20.0222   20.6640 C   0  0  0  0  0  0  0  0  0  0  0  0
    2.7512  -20.8453   19.4873 C   0  0  0  0  0  0  0  0  0  0  0  0
    3.4870  -21.7015   18.9654 O   0  0  0  0  0  0  0  0  0  0  0  0
    5.8468  -17.5823   20.9491 C   0  0  0  0  0  0  0  0  0  0  0  0
    6.6702  -18.0538   20.1527 O   0  0  0  0  0  0  0  0  0  0  0  0
    1.5111  -20.6522   18.8713 O   0  0  0  0  0  0  0  0  0  0  0  0
    5.9754  -16.2423   21.3549 N   0  0  0  0  0  0  0  0  0  0  0  0
    7.0722  -15.3812   20.9914 C   0  0  0  0  0  0  0  0  0  0  0  0
    7.9327  -15.1176   22.1657 C   0  0  0  0  0  0  0  0  0  0  0  0
    9.1184  -14.6984   21.9878 O   0  0  0  0  0  0  0  0  0  0  0  0
   10.8746  -14.7865   30.4206 O   0  0  0  0  0  0  0  0  0  0  0  0
   10.0696  -14.7642   29.2916 C   0  0  0  0  0  0  0  0  0  0  0  0
    9.4632  -15.9295   28.8797 C   0  0  0  0  0  0  0  0  0  0  0  0
    8.6714  -15.8674   27.7543 C   0  0  0  0  0  0  0  0  0  0  0  0
    8.4724  -14.7061   27.0464 C   0  0  0  0  0  0  0  0  0  0  0  0
    7.6065  -14.7434   25.8554 C   0  0  0  0  0  0  0  0  0  0  0  0
    8.3474  -15.1283   24.5928 C   0  0  2  0  0  0  0  0  0  0  0  0
    7.4564  -15.3249   23.4847 N   0  0  0  0  0  0  0  0  0  0  0  0
    9.2386  -16.2785   24.8183 C   0  0  0  0  0  0  0  0  0  0  0  0
    8.7797  -17.4328   24.7148 O   0  0  0  0  0  0  0  0  0  0  0  0
    9.0906  -13.5561   27.4804 C   0  0  0  0  0  0  0  0  0  0  0  0
    9.8950  -13.5844   28.6108 C   0  0  0  0  0  0  0  0  0  0  0  0
   10.5612  -16.1009   25.1392 O   0  0  0  0  0  0  0  0  0  0  0  0
  2  1  1  1
  2  3  1  0
  4  3  1  0
  4  5  1  0
  5  9  1  0
  5  6  2  0
  7  8  2  0
  7  2  1  0
 10  7  1  0
 11 12  1  0
 11 10  1  0
 12 21  1  0
 13 12  2  0
 15 14  1  0
 16 15  2  0
 17 16  1  0
 18 24  1  0
 18 17  2  0
 19 18  1  0
 20 19  1  1
 21 20  1  0
 22 26  1  0
 22 20  1  0
 23 22  2  0
 24 25  2  0
 25 15  1  0
M  END
$$$$
