EGY.pdb
     RDKit          3D

 26 26  0  0  1  0  0  0  0  0999 V2000
    9.6717  -13.0123   18.3637 N   0  0  0  0  0  0  0  0  0  0  0  0
    8.2653  -13.3695   18.2530 C   0  0  1  0  0  0  0  0  0  0  0  0
    7.9021  -13.8266   16.8784 C   0  0  0  0  0  0  0  0  0  0  0  0
    8.8230  -14.8735   16.3752 C   0  0  0  0  0  0  0  0  0  0  0  0
    8.5115  -15.4476   15.0657 C   0  0  0  0  0  0  0  0  0  0  0  0
    8.3999  -16.6506   14.7705 O   0  0  0  0  0  0  0  0  0  0  0  0
    7.9954  -14.4193   19.2816 C   0  0  0  0  0  0  0  0  0  0  0  0
    6.8580  -14.8890   19.4235 O   0  0  0  0  0  0  0  0  0  0  0  0
    8.3147  -14.5435   14.0177 O   0  0  0  0  0  0  0  0  0  0  0  0
    9.0371  -14.8860   20.1026 N   0  0  0  0  0  0  0  0  0  0  0  0
    8.8794  -15.8768   21.1370 C   0  0  0  0  0  0  0  0  0  0  0  0
    9.1492  -15.2838   22.4654 C   0  0  0  0  0  0  0  0  0  0  0  0
    8.9503  -14.0424   22.6456 O   0  0  0  0  0  0  0  0  0  0  0  0
    6.4266  -10.7322   27.4831 O   0  0  0  0  0  0  0  0  0  0  0  0
    6.7270  -11.9334   26.8583 C   0  0  0  0  0  0  0  0  0  0  0  0
    7.9901  -12.1219   26.3444 C   0  0  0  0  0  0  0  0  0  0  0  0
    8.2504  -13.3277   25.7313 C   0  0  0  0  0  0  0  0  0  0  0  0
    7.3110  -14.3248   25.6193 C   0  0  0  0  0  0  0  0  0  0  0  0
    7.6880  -15.5793   24.9456 C   0  0  0  0  0  0  0  0  0  0  0  0
    9.1853  -15.7900   24.8748 C   0  0  2  0  0  0  0  0  0  0  0  0
    9.6257  -16.0773   23.5391 N   0  0  0  0  0  0  0  0  0  0  0  0
    9.6366  -16.7948   25.8520 C   0  0  0  0  0  0  0  0  0  0  0  0
    9.6297  -17.9996   25.5327 O   0  0  0  0  0  0  0  0  0  0  0  0
    6.0565  -14.1094   26.1419 C   0  0  0  0  0  0  0  0  0  0  0  0
    5.7616  -12.9057   26.7659 C   0  0  0  0  0  0  0  0  0  0  0  0
   10.0632  -16.4275   27.1037 O   0  0  0  0  0  0  0  0  0  0  0  0
  2  1  1  6
  2  3  1  0
  4  3  1  0
  4  5  1  0
  5  9  1  0
  5  6  2  0
  7  8  2  0
  7  2  1  0
 10  7  1  0
 11 12  1  0
 11 10  1  0
 12 21  1  0
 13 12  2  0
 15 14  1  0
 16 15  2  0
 17 16  1  0
 18 24  1  0
 18 17  2  0
 19 18  1  0
 20 19  1  6
 21 20  1  0
 22 26  1  0
 22 20  1  0
 23 22  2  0
 24 25  2  0
 25 15  1  0
M  END
$$$$
