EGY.pdb
     RDKit          3D

 26 26  0  0  1  0  0  0  0  0999 V2000
    8.4197  -17.9588   19.1520 N   0  0  0  0  0  0  0  0  0  0  0  0
    9.3339  -16.8645   18.8617 C   0  0  1  0  0  0  0  0  0  0  0  0
    9.5162  -16.6508   17.3949 C   0  0  0  0  0  0  0  0  0  0  0  0
    9.5213  -17.9265   16.6400 C   0  0  0  0  0  0  0  0  0  0  0  0
   10.2734  -17.9434   15.3849 C   0  0  0  0  0  0  0  0  0  0  0  0
   10.9465  -17.0221   14.8898 O   0  0  0  0  0  0  0  0  0  0  0  0
    8.7947  -15.6480   19.5419 C   0  0  0  0  0  0  0  0  0  0  0  0
    8.8862  -14.5327   19.0107 O   0  0  0  0  0  0  0  0  0  0  0  0
   10.2359  -19.1319   14.6496 O   0  0  0  0  0  0  0  0  0  0  0  0
    8.1747  -15.7598   20.7989 N   0  0  0  0  0  0  0  0  0  0  0  0
    7.5982  -14.6569   21.5254 C   0  0  0  0  0  0  0  0  0  0  0  0
    7.1278  -15.1041   22.8550 C   0  0  0  0  0  0  0  0  0  0  0  0
    7.0849  -16.3465   23.1153 O   0  0  0  0  0  0  0  0  0  0  0  0
   10.6766  -14.9517   30.4849 O   0  0  0  0  0  0  0  0  0  0  0  0
   10.1890  -14.8178   29.1936 C   0  0  0  0  0  0  0  0  0  0  0  0
   10.0781  -13.5587   28.6481 C   0  0  0  0  0  0  0  0  0  0  0  0
    9.5898  -13.4663   27.3634 C   0  0  0  0  0  0  0  0  0  0  0  0
    9.2186  -14.5656   26.6265 C   0  0  0  0  0  0  0  0  0  0  0  0
    8.7080  -14.3616   25.2600 C   0  0  0  0  0  0  0  0  0  0  0  0
    7.1964  -14.3231   25.1891 C   0  0  2  0  0  0  0  0  0  0  0  0
    6.7246  -14.1700   23.8421 N   0  0  0  0  0  0  0  0  0  0  0  0
    6.6376  -13.3159   26.1064 C   0  0  0  0  0  0  0  0  0  0  0  0
    6.0423  -13.6934   27.1343 O   0  0  0  0  0  0  0  0  0  0  0  0
    9.3399  -15.8121   27.1964 C   0  0  0  0  0  0  0  0  0  0  0  0
    9.8284  -15.9400   28.4888 C   0  0  0  0  0  0  0  0  0  0  0  0
    6.7612  -11.9735   25.8488 O   0  0  0  0  0  0  0  0  0  0  0  0
  2  1  1  6
  2  3  1  0
  4  3  1  0
  4  5  1  0
  5  9  1  0
  5  6  2  0
  7  8  2  0
  7  2  1  0
 10  7  1  0
 11 12  1  0
 11 10  1  0
 12 21  1  0
 13 12  2  0
 15 14  1  0
 16 15  2  0
 17 16  1  0
 18 24  1  0
 18 17  2  0
 19 18  1  0
 20 19  1  6
 21 20  1  0
 22 26  1  0
 22 20  1  0
 23 22  2  0
 24 25  2  0
 25 15  1  0
M  END
$$$$
