EGY.pdb
     RDKit          3D

 26 26  0  0  1  0  0  0  0  0999 V2000
   10.4419  -18.4232   17.9827 N   0  0  0  0  0  0  0  0  0  0  0  0
   10.1251  -17.0107   17.8337 C   0  0  1  0  0  0  0  0  0  0  0  0
    9.2605  -16.7451   16.6452 C   0  0  0  0  0  0  0  0  0  0  0  0
    9.7087  -17.4958   15.4482 C   0  0  0  0  0  0  0  0  0  0  0  0
    8.8639  -17.3974   14.2574 C   0  0  0  0  0  0  0  0  0  0  0  0
    9.0981  -16.7700   13.2094 O   0  0  0  0  0  0  0  0  0  0  0  0
    9.4790  -16.5677   19.1062 C   0  0  0  0  0  0  0  0  0  0  0  0
    9.1064  -15.3954   19.2524 O   0  0  0  0  0  0  0  0  0  0  0  0
    7.6485  -18.0873   14.2944 O   0  0  0  0  0  0  0  0  0  0  0  0
    9.2873  -17.4838   20.1555 N   0  0  0  0  0  0  0  0  0  0  0  0
    8.5769  -17.1912   21.3747 C   0  0  0  0  0  0  0  0  0  0  0  0
    9.5235  -17.0532   22.5033 C   0  0  0  0  0  0  0  0  0  0  0  0
    9.9003  -18.0911   23.1310 O   0  0  0  0  0  0  0  0  0  0  0  0
   10.4391  -14.8092   30.5843 O   0  0  0  0  0  0  0  0  0  0  0  0
   10.1292  -14.9085   29.2362 C   0  0  0  0  0  0  0  0  0  0  0  0
    9.8114  -16.1413   28.7123 C   0  0  0  0  0  0  0  0  0  0  0  0
    9.5094  -16.1996   27.3697 C   0  0  0  0  0  0  0  0  0  0  0  0
    9.5153  -15.0920   26.5558 C   0  0  0  0  0  0  0  0  0  0  0  0
    9.1773  -15.2587   25.1318 C   0  0  0  0  0  0  0  0  0  0  0  0
   10.3812  -15.5634   24.2662 C   0  0  2  0  0  0  0  0  0  0  0  0
   10.0165  -15.7833   22.8954 N   0  0  0  0  0  0  0  0  0  0  0  0
   11.1846  -16.6633   24.8254 C   0  0  0  0  0  0  0  0  0  0  0  0
   12.3208  -16.4185   25.2758 O   0  0  0  0  0  0  0  0  0  0  0  0
    9.8367  -13.8723   27.1057 C   0  0  0  0  0  0  0  0  0  0  0  0
   10.1459  -13.7790   28.4552 C   0  0  0  0  0  0  0  0  0  0  0  0
   10.7046  -17.9487   24.8586 O   0  0  0  0  0  0  0  0  0  0  0  0
  2  1  1  1
  2  3  1  0
  4  3  1  0
  4  5  1  0
  5  9  1  0
  5  6  2  0
  7  8  2  0
  7  2  1  0
 10  7  1  0
 11 12  1  0
 11 10  1  0
 12 21  1  0
 13 12  2  0
 15 14  1  0
 16 15  2  0
 17 16  1  0
 18 24  1  0
 18 17  2  0
 19 18  1  0
 20 19  1  1
 21 20  1  0
 22 26  1  0
 22 20  1  0
 23 22  2  0
 24 25  2  0
 25 15  1  0
M  END
$$$$
