EGY.pdb
     RDKit          3D

 26 26  0  0  1  0  0  0  0  0999 V2000
    8.7702  -20.2658   19.3478 N   0  0  0  0  0  0  0  0  0  0  0  0
    9.8951  -19.3508   19.4706 C   0  0  1  0  0  0  0  0  0  0  0  0
   10.2756  -18.7399   18.1620 C   0  0  0  0  0  0  0  0  0  0  0  0
    9.4021  -19.1980   17.0555 C   0  0  0  0  0  0  0  0  0  0  0  0
    9.6748  -18.6407   15.7303 C   0  0  0  0  0  0  0  0  0  0  0  0
    8.9004  -17.9918   15.0048 O   0  0  0  0  0  0  0  0  0  0  0  0
    9.5140  -18.3178   20.4810 C   0  0  0  0  0  0  0  0  0  0  0  0
   10.2805  -17.3827   20.7504 O   0  0  0  0  0  0  0  0  0  0  0  0
   10.9544  -18.8593   15.2114 O   0  0  0  0  0  0  0  0  0  0  0  0
    8.2740  -18.3989   21.1388 N   0  0  0  0  0  0  0  0  0  0  0  0
    7.7651  -17.4023   22.0466 C   0  0  0  0  0  0  0  0  0  0  0  0
    8.7330  -17.1557   23.1380 C   0  0  0  0  0  0  0  0  0  0  0  0
    9.7560  -17.9011   23.2439 O   0  0  0  0  0  0  0  0  0  0  0  0
    5.1201  -11.8442   27.2849 O   0  0  0  0  0  0  0  0  0  0  0  0
    6.2529  -12.4546   26.7678 C   0  0  0  0  0  0  0  0  0  0  0  0
    7.3244  -12.6894   27.5997 C   0  0  0  0  0  0  0  0  0  0  0  0
    8.4312  -13.2975   27.0497 C   0  0  0  0  0  0  0  0  0  0  0  0
    8.4980  -13.6684   25.7279 C   0  0  0  0  0  0  0  0  0  0  0  0
    9.7273  -14.3135   25.2354 C   0  0  0  0  0  0  0  0  0  0  0  0
    9.5711  -15.8032   25.0173 C   0  0  2  0  0  0  0  0  0  0  0  0
    8.5380  -16.1025   24.0666 N   0  0  0  0  0  0  0  0  0  0  0  0
    9.3984  -16.5211   26.2912 C   0  0  0  0  0  0  0  0  0  0  0  0
    8.3328  -17.1311   26.5059 O   0  0  0  0  0  0  0  0  0  0  0  0
    7.4126  -13.4218   24.9191 C   0  0  0  0  0  0  0  0  0  0  0  0
    6.2818  -12.8107   25.4418 C   0  0  0  0  0  0  0  0  0  0  0  0
   10.3879  -16.5294   27.2423 O   0  0  0  0  0  0  0  0  0  0  0  0
  2  1  1  6
  2  3  1  0
  4  3  1  0
  4  5  1  0
  5  9  1  0
  5  6  2  0
  7  8  2  0
  7  2  1  0
 10  7  1  0
 11 12  1  0
 11 10  1  0
 12 21  1  0
 13 12  2  0
 15 14  1  0
 16 15  2  0
 17 16  1  0
 18 24  1  0
 18 17  2  0
 19 18  1  0
 20 19  1  1
 21 20  1  0
 22 26  1  0
 22 20  1  0
 23 22  2  0
 24 25  2  0
 25 15  1  0
M  END
$$$$
