CGG.pdb
     RDKit          3D

 15 14  0  0  1  0  0  0  0  0999 V2000
    8.1883  -13.3341   19.0546 N   0  0  0  0  0  0  0  0  0  0  0  0
    8.3305  -13.4277   20.4731 C   0  0  1  0  0  0  0  0  0  0  0  0
    7.1161  -12.8373   21.1586 C   0  0  0  0  0  0  0  0  0  0  0  0
    7.1976  -13.0554   22.9348 S   0  0  0  0  0  0  0  0  0  0  0  0
    8.4010  -14.8597   20.8985 C   0  0  0  0  0  0  0  0  0  0  0  0
    7.8650  -15.7358   20.1724 O   0  0  0  0  0  0  0  0  0  0  0  0
    9.0618  -15.2277   22.1024 N   0  0  0  0  0  0  0  0  0  0  0  0
    9.2788  -16.6229   22.4314 C   0  0  0  0  0  0  0  0  0  0  0  0
   10.7123  -16.9125   22.5409 C   0  0  0  0  0  0  0  0  0  0  0  0
   11.0923  -18.0858   22.7377 O   0  0  0  0  0  0  0  0  0  0  0  0
   11.6832  -15.8889   22.4284 N   0  0  0  0  0  0  0  0  0  0  0  0
   13.0821  -16.2489   22.4624 C   0  0  0  0  0  0  0  0  0  0  0  0
   13.5890  -16.1413   23.8571 C   0  0  0  0  0  0  0  0  0  0  0  0
   14.9390  -16.0422   24.0613 O   0  0  0  0  0  0  0  0  0  0  0  0
   12.7979  -16.1418   24.8149 O   0  0  0  0  0  0  0  0  0  0  0  0
  2  1  1  6
  2  3  1  0
  3  4  1  0
  5  2  1  0
  6  5  2  0
  7  5  1  0
  8  7  1  0
  9 11  1  0
  9  8  1  0
 10  9  2  0
 12 13  1  0
 12 11  1  0
 13 14  1  0
 15 13  2  0
M  END
$$$$
