CGG.pdb
     RDKit          3D

 15 14  0  0  1  0  0  0  0  0999 V2000
   -0.1210  -24.9163   35.3125 N   0  0  0  0  0  0  0  0  0  0  0  0
   -1.5477  -24.9620   35.3742 C   0  0  1  0  0  0  0  0  0  0  0  0
   -2.0664  -23.8526   36.2649 C   0  0  0  0  0  0  0  0  0  0  0  0
   -1.2192  -23.8313   37.8431 S   0  0  0  0  0  0  0  0  0  0  0  0
   -2.1377  -24.7274   34.0203 C   0  0  0  0  0  0  0  0  0  0  0  0
   -1.4609  -24.1040   33.1628 O   0  0  0  0  0  0  0  0  0  0  0  0
   -3.4412  -25.1997   33.7046 N   0  0  0  0  0  0  0  0  0  0  0  0
   -3.6428  -26.5539   33.2276 C   0  0  0  0  0  0  0  0  0  0  0  0
   -5.0711  -26.8315   33.0447 C   0  0  0  0  0  0  0  0  0  0  0  0
   -5.4367  -27.9631   32.6633 O   0  0  0  0  0  0  0  0  0  0  0  0
   -6.0532  -25.8425   33.2912 N   0  0  0  0  0  0  0  0  0  0  0  0
   -7.4481  -26.2061   33.1924 C   0  0  0  0  0  0  0  0  0  0  0  0
   -7.9086  -26.0317   31.7884 C   0  0  0  0  0  0  0  0  0  0  0  0
   -9.2296  -26.2426   31.4977 O   0  0  0  0  0  0  0  0  0  0  0  0
   -7.1056  -25.7007   30.9003 O   0  0  0  0  0  0  0  0  0  0  0  0
  2  1  1  6
  2  3  1  0
  3  4  1  0
  5  2  1  0
  6  5  2  0
  7  5  1  0
  8  7  1  0
  9 11  1  0
  9  8  1  0
 10  9  2  0
 12 13  1  0
 12 11  1  0
 13 14  1  0
 15 13  2  0
M  END
$$$$
