CGG.pdb
     RDKit          3D

 15 14  0  0  1  0  0  0  0  0999 V2000
   -3.9343  -21.3590   21.8034 N   0  0  0  0  0  0  0  0  0  0  0  0
   -4.1309  -20.1782   22.5834 C   0  0  1  0  0  0  0  0  0  0  0  0
   -5.4378  -19.5143   22.2033 C   0  0  0  0  0  0  0  0  0  0  0  0
   -5.4006  -18.9165   20.5151 S   0  0  0  0  0  0  0  0  0  0  0  0
   -4.2382  -20.5218   24.0348 C   0  0  0  0  0  0  0  0  0  0  0  0
   -4.2704  -19.5897   24.8787 O   0  0  0  0  0  0  0  0  0  0  0  0
   -4.3029  -21.8781   24.4569 N   0  0  0  0  0  0  0  0  0  0  0  0
   -4.3231  -22.2146   25.8670 C   0  0  0  0  0  0  0  0  0  0  0  0
   -5.5485  -21.7174   26.5008 C   0  0  0  0  0  0  0  0  0  0  0  0
   -5.7611  -20.4879   26.5550 O   0  0  0  0  0  0  0  0  0  0  0  0
   -6.5036  -22.6017   27.0569 N   0  0  0  0  0  0  0  0  0  0  0  0
   -7.7393  -22.0582   27.5719 C   0  0  0  0  0  0  0  0  0  0  0  0
   -7.7488  -22.1653   29.0559 C   0  0  0  0  0  0  0  0  0  0  0  0
   -8.8146  -21.6538   29.7462 O   0  0  0  0  0  0  0  0  0  0  0  0
   -6.8050  -22.7096   29.6526 O   0  0  0  0  0  0  0  0  0  0  0  0
  2  1  1  6
  2  3  1  0
  3  4  1  0
  5  2  1  0
  6  5  2  0
  7  5  1  0
  8  7  1  0
  9 11  1  0
  9  8  1  0
 10  9  2  0
 12 13  1  0
 12 11  1  0
 13 14  1  0
 15 13  2  0
M  END
$$$$
