CGG.pdb
     RDKit          3D

 15 14  0  0  1  0  0  0  0  0999 V2000
    9.3078  -14.2688   17.4968 N   0  0  0  0  0  0  0  0  0  0  0  0
    9.3946  -13.8723   18.8667 C   0  0  1  0  0  0  0  0  0  0  0  0
    8.0070  -13.6957   19.4469 C   0  0  0  0  0  0  0  0  0  0  0  0
    7.0932  -12.4222   18.5795 S   0  0  0  0  0  0  0  0  0  0  0  0
   10.0593  -14.9378   19.6785 C   0  0  0  0  0  0  0  0  0  0  0  0
   10.5983  -15.9065   19.0843 O   0  0  0  0  0  0  0  0  0  0  0  0
   10.0833  -14.8602   21.0981 N   0  0  0  0  0  0  0  0  0  0  0  0
   11.2906  -14.4666   21.7978 C   0  0  0  0  0  0  0  0  0  0  0  0
   12.2632  -15.5641   21.8107 C   0  0  0  0  0  0  0  0  0  0  0  0
   12.0158  -16.6012   22.4610 O   0  0  0  0  0  0  0  0  0  0  0  0
   13.4840  -15.4774   21.0997 N   0  0  0  0  0  0  0  0  0  0  0  0
   14.4088  -14.4177   21.4303 C   0  0  0  0  0  0  0  0  0  0  0  0
   15.2811  -14.8523   22.5546 C   0  0  0  0  0  0  0  0  0  0  0  0
   16.5584  -14.3648   22.6236 O   0  0  0  0  0  0  0  0  0  0  0  0
   14.8535  -15.6430   23.4121 O   0  0  0  0  0  0  0  0  0  0  0  0
  2  1  1  6
  2  3  1  0
  3  4  1  0
  5  2  1  0
  6  5  2  0
  7  5  1  0
  8  7  1  0
  9 11  1  0
  9  8  1  0
 10  9  2  0
 12 13  1  0
 12 11  1  0
 13 14  1  0
 15 13  2  0
M  END
$$$$
