CGG.pdb
     RDKit          3D

 15 14  0  0  1  0  0  0  0  0999 V2000
    7.8457  -13.9851   26.9202 N   0  0  0  0  0  0  0  0  0  0  0  0
    6.9633  -13.4021   25.9596 C   0  0  1  0  0  0  0  0  0  0  0  0
    6.7415  -11.9381   26.2769 C   0  0  0  0  0  0  0  0  0  0  0  0
    5.4213  -11.7201   27.4678 S   0  0  0  0  0  0  0  0  0  0  0  0
    7.5707  -13.4509   24.5940 C   0  0  0  0  0  0  0  0  0  0  0  0
    8.7291  -12.9900   24.4279 O   0  0  0  0  0  0  0  0  0  0  0  0
    6.8536  -14.0083   23.4999 N   0  0  0  0  0  0  0  0  0  0  0  0
    7.3802  -13.9281   22.1515 C   0  0  0  0  0  0  0  0  0  0  0  0
    8.3189  -15.0254   21.8958 C   0  0  0  0  0  0  0  0  0  0  0  0
    8.6949  -15.2572   20.7276 O   0  0  0  0  0  0  0  0  0  0  0  0
    8.8134  -15.8343   22.9467 N   0  0  0  0  0  0  0  0  0  0  0  0
    9.6500  -16.9662   22.6200 C   0  0  0  0  0  0  0  0  0  0  0  0
   11.0759  -16.5416   22.6032 C   0  0  0  0  0  0  0  0  0  0  0  0
   11.6248  -16.1242   21.4206 O   0  0  0  0  0  0  0  0  0  0  0  0
   11.7514  -16.5671   23.6455 O   0  0  0  0  0  0  0  0  0  0  0  0
  2  1  1  1
  2  3  1  0
  3  4  1  0
  5  2  1  0
  6  5  2  0
  7  5  1  0
  8  7  1  0
  9 11  1  0
  9  8  1  0
 10  9  2  0
 12 13  1  0
 12 11  1  0
 13 14  1  0
 15 13  2  0
M  END
$$$$
