CGG.pdb
     RDKit          3D

 15 14  0  0  1  0  0  0  0  0999 V2000
    5.5050  -13.7822   26.5174 N   0  0  0  0  0  0  0  0  0  0  0  0
    6.4336  -13.2167   25.5904 C   0  0  1  0  0  0  0  0  0  0  0  0
    7.4904  -12.4233   26.3301 C   0  0  0  0  0  0  0  0  0  0  0  0
    6.8039  -10.9347   27.0523 S   0  0  0  0  0  0  0  0  0  0  0  0
    7.1570  -14.2962   24.8502 C   0  0  0  0  0  0  0  0  0  0  0  0
    7.4282  -15.3675   25.4509 O   0  0  0  0  0  0  0  0  0  0  0  0
    7.5330  -14.1176   23.4907 N   0  0  0  0  0  0  0  0  0  0  0  0
    8.1593  -15.1940   22.7481 C   0  0  0  0  0  0  0  0  0  0  0  0
    9.5999  -15.2401   23.0184 C   0  0  0  0  0  0  0  0  0  0  0  0
   10.3980  -14.7306   22.2041 O   0  0  0  0  0  0  0  0  0  0  0  0
   10.1128  -15.8519   24.1872 N   0  0  0  0  0  0  0  0  0  0  0  0
   11.5072  -15.6652   24.5166 C   0  0  0  0  0  0  0  0  0  0  0  0
   12.3020  -16.7999   23.9738 C   0  0  0  0  0  0  0  0  0  0  0  0
   11.9413  -17.3395   22.7685 O   0  0  0  0  0  0  0  0  0  0  0  0
   13.2739  -17.2456   24.6063 O   0  0  0  0  0  0  0  0  0  0  0  0
  2  1  1  1
  2  3  1  0
  3  4  1  0
  5  2  1  0
  6  5  2  0
  7  5  1  0
  8  7  1  0
  9 11  1  0
  9  8  1  0
 10  9  2  0
 12 13  1  0
 12 11  1  0
 13 14  1  0
 15 13  2  0
M  END
$$$$
