CGG.pdb
     RDKit          3D

 15 14  0  0  1  0  0  0  0  0999 V2000
    6.6457  -14.3775   26.9981 N   0  0  0  0  0  0  0  0  0  0  0  0
    6.6355  -13.7680   25.7059 C   0  0  1  0  0  0  0  0  0  0  0  0
    7.3727  -12.4459   25.7476 C   0  0  0  0  0  0  0  0  0  0  0  0
    6.5302  -11.2605   26.7935 S   0  0  0  0  0  0  0  0  0  0  0  0
    7.3606  -14.6248   24.7176 C   0  0  0  0  0  0  0  0  0  0  0  0
    8.2024  -15.4587   25.1395 O   0  0  0  0  0  0  0  0  0  0  0  0
    7.1049  -14.5013   23.3244 N   0  0  0  0  0  0  0  0  0  0  0  0
    7.6604  -15.4532   22.3824 C   0  0  0  0  0  0  0  0  0  0  0  0
    9.0853  -15.1888   22.1581 C   0  0  0  0  0  0  0  0  0  0  0  0
    9.4415  -14.5276   21.1602 O   0  0  0  0  0  0  0  0  0  0  0  0
   10.0746  -15.6672   23.0502 N   0  0  0  0  0  0  0  0  0  0  0  0
   11.4648  -15.5596   22.6714 C   0  0  0  0  0  0  0  0  0  0  0  0
   12.3214  -16.0712   23.7752 C   0  0  0  0  0  0  0  0  0  0  0  0
   13.6814  -15.9759   23.6515 O   0  0  0  0  0  0  0  0  0  0  0  0
   11.8072  -16.5745   24.7879 O   0  0  0  0  0  0  0  0  0  0  0  0
  2  1  1  1
  2  3  1  0
  3  4  1  0
  5  2  1  0
  6  5  2  0
  7  5  1  0
  8  7  1  0
  9 11  1  0
  9  8  1  0
 10  9  2  0
 12 13  1  0
 12 11  1  0
 13 14  1  0
 15 13  2  0
M  END
$$$$
