CGG.pdb
     RDKit          3D

 15 14  0  0  1  0  0  0  0  0999 V2000
    0.9508  -19.6294   19.2337 N   0  0  0  0  0  0  0  0  0  0  0  0
    0.8850  -19.2670   20.6142 C   0  0  1  0  0  0  0  0  0  0  0  0
   -0.3706  -19.8342   21.2425 C   0  0  0  0  0  0  0  0  0  0  0  0
   -1.8320  -19.3704   20.3160 S   0  0  0  0  0  0  0  0  0  0  0  0
    2.0362  -19.8561   21.3652 C   0  0  0  0  0  0  0  0  0  0  0  0
    2.4532  -20.9973   21.0399 O   0  0  0  0  0  0  0  0  0  0  0  0
    2.6512  -19.1409   22.4292 N   0  0  0  0  0  0  0  0  0  0  0  0
    3.7916  -19.6952   23.1322 C   0  0  0  0  0  0  0  0  0  0  0  0
    4.9924  -18.8894   22.8880 C   0  0  0  0  0  0  0  0  0  0  0  0
    5.9650  -18.9784   23.6663 O   0  0  0  0  0  0  0  0  0  0  0  0
    5.0778  -18.0070   21.7847 N   0  0  0  0  0  0  0  0  0  0  0  0
    6.3156  -17.2984   21.5537 C   0  0  0  0  0  0  0  0  0  0  0  0
    6.8909  -17.7164   20.2468 C   0  0  0  0  0  0  0  0  0  0  0  0
    7.9898  -17.0543   19.7691 O   0  0  0  0  0  0  0  0  0  0  0  0
    6.3801  -18.6493   19.6050 O   0  0  0  0  0  0  0  0  0  0  0  0
  2  1  1  6
  2  3  1  0
  3  4  1  0
  5  2  1  0
  6  5  2  0
  7  5  1  0
  8  7  1  0
  9 11  1  0
  9  8  1  0
 10  9  2  0
 12 13  1  0
 12 11  1  0
 13 14  1  0
 15 13  2  0
M  END
$$$$
