CGG.pdb
     RDKit          3D

 15 14  0  0  1  0  0  0  0  0999 V2000
    6.8701  -15.4367   19.4188 N   0  0  0  0  0  0  0  0  0  0  0  0
    7.6840  -14.6978   20.3315 C   0  0  1  0  0  0  0  0  0  0  0  0
    7.3367  -13.2253   20.2648 C   0  0  0  0  0  0  0  0  0  0  0  0
    8.3554  -12.2623   21.3800 S   0  0  0  0  0  0  0  0  0  0  0  0
    7.4185  -15.1310   21.7380 C   0  0  0  0  0  0  0  0  0  0  0  0
    6.2353  -15.1169   22.1645 O   0  0  0  0  0  0  0  0  0  0  0  0
    8.4831  -15.5521   22.5812 N   0  0  0  0  0  0  0  0  0  0  0  0
    8.2245  -15.9828   23.9412 C   0  0  0  0  0  0  0  0  0  0  0  0
    9.4821  -16.2148   24.6591 C   0  0  0  0  0  0  0  0  0  0  0  0
    9.4536  -16.5995   25.8469 O   0  0  0  0  0  0  0  0  0  0  0  0
   10.7366  -16.0125   24.0356 N   0  0  0  0  0  0  0  0  0  0  0  0
   11.9324  -16.4500   24.7184 C   0  0  0  0  0  0  0  0  0  0  0  0
   13.1270  -16.0917   23.9070 C   0  0  0  0  0  0  0  0  0  0  0  0
   14.3712  -16.3248   24.4283 O   0  0  0  0  0  0  0  0  0  0  0  0
   12.9926  -15.5906   22.7783 O   0  0  0  0  0  0  0  0  0  0  0  0
  2  1  1  6
  2  3  1  0
  3  4  1  0
  5  2  1  0
  6  5  2  0
  7  5  1  0
  8  7  1  0
  9 11  1  0
  9  8  1  0
 10  9  2  0
 12 13  1  0
 12 11  1  0
 13 14  1  0
 15 13  2  0
M  END
$$$$
