PAT.pdb
     RDKit          3D

 20 20  0  0  1  0  0  0  0  0999 V2000
    9.4716  -17.3783   18.4077 N   0  0  0  0  0  0  0  0  0  0  0  0
    9.0199  -18.6505   17.8451 C   0  0  0  0  0  0  0  0  0  0  0  0
    8.5787  -19.3728   19.1187 C   0  0  0  0  0  0  0  0  0  0  0  0
    8.0888  -18.2707   20.0497 C   0  0  0  0  0  0  0  0  0  0  0  0
    8.3763  -17.0317   19.2653 C   0  0  1  0  0  0  0  0  0  0  0  0
    8.6395  -15.8478   20.0995 C   0  0  0  0  0  0  0  0  0  0  0  0
    9.8337  -15.4989   20.2672 O   0  0  0  0  0  0  0  0  0  0  0  0
    6.8197  -12.9031   21.5347 C   0  0  0  0  0  0  0  0  0  0  0  0
    7.9807  -13.8828   21.5079 C   0  0  2  0  0  0  0  0  0  0  0  0
    7.6291  -15.0717   20.7291 N   0  0  0  0  0  0  0  0  0  0  0  0
    8.3019  -14.2967   22.8788 C   0  0  0  0  0  0  0  0  0  0  0  0
    8.5847  -13.4934   23.8173 O   0  0  0  0  0  0  0  0  0  0  0  0
    6.1251  -16.6743   24.7849 C   0  0  0  0  0  0  0  0  0  0  0  0
    7.5040  -17.2282   24.9445 C   0  0  1  0  0  0  0  0  0  0  0  0
    7.6431  -18.2609   23.9891 O   0  0  0  0  0  0  0  0  0  0  0  0
    8.5225  -16.1726   24.5541 C   0  0  2  0  0  0  0  0  0  0  0  0
    8.3084  -15.6807   23.2222 N   0  0  0  0  0  0  0  0  0  0  0  0
    9.9005  -16.5971   24.8141 C   0  0  0  0  0  0  0  0  0  0  0  0
   10.2834  -16.9640   26.0835 O   0  0  0  0  0  0  0  0  0  0  0  0
   10.7344  -16.6289   23.8894 O   0  0  0  0  0  0  0  0  0  0  0  0
  2  1  1  0
  3  2  1  0
  4  3  1  0
  4  5  1  0
  5  1  1  0
  5  6  1  1
  7  6  2  0
  9  8  1  1
  9 10  1  0
  9 11  1  0
 10  6  1  0
 11 17  1  0
 12 11  2  0
 14 13  1  6
 14 15  1  0
 16 14  1  0
 16 18  1  0
 16 17  1  6
 18 20  2  0
 18 19  1  0
M  END
$$$$
