PAT.pdb
     RDKit          3D

 20 20  0  0  1  0  0  0  0  0999 V2000
    9.2156  -14.6680   19.6062 N   0  0  0  0  0  0  0  0  0  0  0  0
    9.1147  -13.7693   18.4567 C   0  0  0  0  0  0  0  0  0  0  0  0
    7.6862  -13.2537   18.6360 C   0  0  0  0  0  0  0  0  0  0  0  0
    7.4520  -13.2510   20.1414 C   0  0  0  0  0  0  0  0  0  0  0  0
    8.7192  -13.8425   20.6681 C   0  0  1  0  0  0  0  0  0  0  0  0
    8.5547  -14.5639   21.9406 C   0  0  0  0  0  0  0  0  0  0  0  0
    8.0187  -13.9545   22.8983 O   0  0  0  0  0  0  0  0  0  0  0  0
    8.9386  -18.0691   23.3126 C   0  0  0  0  0  0  0  0  0  0  0  0
    8.6776  -16.5768   23.4280 C   0  0  2  0  0  0  0  0  0  0  0  0
    8.9633  -15.9077   22.1573 N   0  0  0  0  0  0  0  0  0  0  0  0
    9.5465  -16.0079   24.4649 C   0  0  0  0  0  0  0  0  0  0  0  0
   10.7173  -15.5719   24.2523 O   0  0  0  0  0  0  0  0  0  0  0  0
    9.9169  -13.5506   28.5862 C   0  0  0  0  0  0  0  0  0  0  0  0
    9.0275  -14.2797   27.6318 C   0  0  1  0  0  0  0  0  0  0  0  0
    8.6130  -13.3404   26.6600 O   0  0  0  0  0  0  0  0  0  0  0  0
    9.8375  -15.3172   26.8758 C   0  0  2  0  0  0  0  0  0  0  0  0
    9.0856  -15.9201   25.8115 N   0  0  0  0  0  0  0  0  0  0  0  0
   10.4835  -16.2848   27.7663 C   0  0  0  0  0  0  0  0  0  0  0  0
   11.5198  -15.8907   28.5808 O   0  0  0  0  0  0  0  0  0  0  0  0
   10.1000  -17.4695   27.7927 O   0  0  0  0  0  0  0  0  0  0  0  0
  2  1  1  0
  3  2  1  0
  4  3  1  0
  4  5  1  0
  5  1  1  0
  5  6  1  1
  7  6  2  0
  9  8  1  6
  9 10  1  0
  9 11  1  0
 10  6  1  0
 11 17  1  0
 12 11  2  0
 14 13  1  1
 14 15  1  0
 16 14  1  0
 16 18  1  0
 16 17  1  6
 18 20  2  0
 18 19  1  0
M  END
$$$$
