PAT.pdb
     RDKit          3D

 20 20  0  0  1  0  0  0  0  0999 V2000
    7.5106  -14.8812   18.7239 N   0  0  0  0  0  0  0  0  0  0  0  0
    7.9596  -14.0345   17.6191 C   0  0  0  0  0  0  0  0  0  0  0  0
    7.8534  -12.6548   18.2700 C   0  0  0  0  0  0  0  0  0  0  0  0
    8.1388  -12.8908   19.7478 C   0  0  0  0  0  0  0  0  0  0  0  0
    8.2901  -14.3759   19.8159 C   0  0  1  0  0  0  0  0  0  0  0  0
    7.9150  -14.9526   21.1173 C   0  0  0  0  0  0  0  0  0  0  0  0
    6.6931  -15.0798   21.3752 O   0  0  0  0  0  0  0  0  0  0  0  0
    9.0712  -17.1958   23.7297 C   0  0  0  0  0  0  0  0  0  0  0  0
    8.3831  -15.8827   23.3965 C   0  0  2  0  0  0  0  0  0  0  0  0
    8.8467  -15.3758   22.1034 N   0  0  0  0  0  0  0  0  0  0  0  0
    8.6978  -14.8904   24.4309 C   0  0  0  0  0  0  0  0  0  0  0  0
    9.7809  -14.2344   24.4822 O   0  0  0  0  0  0  0  0  0  0  0  0
    6.4949  -11.9085   25.5087 C   0  0  0  0  0  0  0  0  0  0  0  0
    6.7232  -12.7710   26.7077 C   0  0  1  0  0  0  0  0  0  0  0  0
    5.6392  -13.6759   26.7731 O   0  0  0  0  0  0  0  0  0  0  0  0
    7.9565  -13.6282   26.4880 C   0  0  2  0  0  0  0  0  0  0  0  0
    7.7544  -14.6142   25.4640 N   0  0  0  0  0  0  0  0  0  0  0  0
    8.4924  -14.1738   27.7377 C   0  0  0  0  0  0  0  0  0  0  0  0
    8.5861  -15.5349   27.9142 O   0  0  0  0  0  0  0  0  0  0  0  0
    8.8665  -13.4108   28.6483 O   0  0  0  0  0  0  0  0  0  0  0  0
  2  1  1  0
  3  2  1  0
  4  3  1  0
  4  5  1  0
  5  1  1  0
  5  6  1  1
  7  6  2  0
  9  8  1  1
  9 10  1  0
  9 11  1  0
 10  6  1  0
 11 17  1  0
 12 11  2  0
 14 13  1  6
 14 15  1  0
 16 14  1  0
 16 18  1  0
 16 17  1  6
 18 20  2  0
 18 19  1  0
M  END
$$$$
