PAT.pdb
     RDKit          3D

 20 20  0  0  1  0  0  0  0  0999 V2000
    4.8368  -19.2164   20.1387 N   0  0  0  0  0  0  0  0  0  0  0  0
    3.4696  -19.5468   19.7378 C   0  0  0  0  0  0  0  0  0  0  0  0
    2.7259  -19.2713   21.0453 C   0  0  0  0  0  0  0  0  0  0  0  0
    3.5044  -18.1453   21.7141 C   0  0  0  0  0  0  0  0  0  0  0  0
    4.6553  -17.9480   20.7816 C   0  0  1  0  0  0  0  0  0  0  0  0
    5.8734  -17.4465   21.4385 C   0  0  0  0  0  0  0  0  0  0  0  0
    6.7813  -18.2714   21.7050 O   0  0  0  0  0  0  0  0  0  0  0  0
    7.3938  -14.1812   22.6136 C   0  0  0  0  0  0  0  0  0  0  0  0
    7.2833  -15.6950   22.5446 C   0  0  2  0  0  0  0  0  0  0  0  0
    6.0902  -16.0871   21.7919 N   0  0  0  0  0  0  0  0  0  0  0  0
    7.1821  -16.2396   23.9036 C   0  0  0  0  0  0  0  0  0  0  0  0
    6.2141  -16.0153   24.6903 O   0  0  0  0  0  0  0  0  0  0  0  0
    6.4582  -19.2199   25.0653 C   0  0  0  0  0  0  0  0  0  0  0  0
    7.7807  -19.0883   25.7490 C   0  0  1  0  0  0  0  0  0  0  0  0
    8.7247  -19.7713   24.9486 O   0  0  0  0  0  0  0  0  0  0  0  0
    8.2143  -17.6337   25.7382 C   0  0  2  0  0  0  0  0  0  0  0  0
    8.2156  -17.0795   24.4135 N   0  0  0  0  0  0  0  0  0  0  0  0
    9.4622  -17.4131   26.4734 C   0  0  0  0  0  0  0  0  0  0  0  0
   10.5617  -16.8940   25.8298 O   0  0  0  0  0  0  0  0  0  0  0  0
    9.5371  -17.6934   27.6847 O   0  0  0  0  0  0  0  0  0  0  0  0
  2  1  1  0
  3  2  1  0
  4  3  1  0
  4  5  1  0
  5  1  1  0
  5  6  1  1
  7  6  2  0
  9  8  1  1
  9 10  1  0
  9 11  1  0
 10  6  1  0
 11 17  1  0
 12 11  2  0
 14 13  1  6
 14 15  1  0
 16 14  1  0
 16 18  1  0
 16 17  1  6
 18 20  2  0
 18 19  1  0
M  END
$$$$
