PAT.pdb
     RDKit          3D

 20 20  0  0  1  0  0  0  0  0999 V2000
    8.8813  -14.8284   19.3560 N   0  0  0  0  0  0  0  0  0  0  0  0
    9.0947  -14.1462   18.0799 C   0  0  0  0  0  0  0  0  0  0  0  0
    7.7879  -13.3600   17.9671 C   0  0  0  0  0  0  0  0  0  0  0  0
    7.3888  -13.0466   19.4036 C   0  0  0  0  0  0  0  0  0  0  0  0
    8.4430  -13.7512   20.1944 C   0  0  1  0  0  0  0  0  0  0  0  0
    7.9929  -14.1925   21.5246 C   0  0  0  0  0  0  0  0  0  0  0  0
    7.4718  -13.3389   22.2834 O   0  0  0  0  0  0  0  0  0  0  0  0
    7.7506  -17.3762   23.5724 C   0  0  0  0  0  0  0  0  0  0  0  0
    7.5791  -15.8871   23.3236 C   0  0  2  0  0  0  0  0  0  0  0  0
    8.1094  -15.5238   22.0080 N   0  0  0  0  0  0  0  0  0  0  0  0
    8.3093  -15.1334   24.3495 C   0  0  0  0  0  0  0  0  0  0  0  0
    9.5376  -14.8310   24.2717 O   0  0  0  0  0  0  0  0  0  0  0  0
    7.1776  -11.7744   25.7794 C   0  0  0  0  0  0  0  0  0  0  0  0
    7.3392  -12.7089   26.9345 C   0  0  1  0  0  0  0  0  0  0  0  0
    6.0702  -13.2828   27.1769 O   0  0  0  0  0  0  0  0  0  0  0  0
    8.2378  -13.8635   26.5305 C   0  0  2  0  0  0  0  0  0  0  0  0
    7.6341  -14.6928   25.5257 N   0  0  0  0  0  0  0  0  0  0  0  0
    8.7497  -14.6082   27.6837 C   0  0  0  0  0  0  0  0  0  0  0  0
    9.4264  -13.9522   28.6857 O   0  0  0  0  0  0  0  0  0  0  0  0
    8.5764  -15.8390   27.7654 O   0  0  0  0  0  0  0  0  0  0  0  0
  2  1  1  0
  3  2  1  0
  4  3  1  0
  4  5  1  0
  5  1  1  0
  5  6  1  1
  7  6  2  0
  9  8  1  1
  9 10  1  0
  9 11  1  0
 10  6  1  0
 11 17  1  0
 12 11  2  0
 14 13  1  6
 14 15  1  0
 16 14  1  0
 16 18  1  0
 16 17  1  6
 18 20  2  0
 18 19  1  0
M  END
$$$$
