PAT.pdb
     RDKit          3D

 20 20  0  0  1  0  0  0  0  0999 V2000
    7.4294  -15.0156   18.7356 N   0  0  0  0  0  0  0  0  0  0  0  0
    7.9160  -14.2002   17.6232 C   0  0  0  0  0  0  0  0  0  0  0  0
    7.8293  -12.8063   18.2462 C   0  0  0  0  0  0  0  0  0  0  0  0
    8.0839  -13.0203   19.7330 C   0  0  0  0  0  0  0  0  0  0  0  0
    8.2010  -14.5068   19.8316 C   0  0  1  0  0  0  0  0  0  0  0  0
    7.7908  -15.0502   21.1367 C   0  0  0  0  0  0  0  0  0  0  0  0
    6.5888  -14.9241   21.4759 O   0  0  0  0  0  0  0  0  0  0  0  0
    8.7713  -17.4737   23.7385 C   0  0  0  0  0  0  0  0  0  0  0  0
    8.2010  -16.1152   23.3675 C   0  0  2  0  0  0  0  0  0  0  0  0
    8.6675  -15.7096   22.0402 N   0  0  0  0  0  0  0  0  0  0  0  0
    8.6433  -15.1159   24.3471 C   0  0  0  0  0  0  0  0  0  0  0  0
    9.7364  -14.4792   24.2707 O   0  0  0  0  0  0  0  0  0  0  0  0
    5.8087  -13.1715   26.9320 C   0  0  0  0  0  0  0  0  0  0  0  0
    7.1221  -12.6650   26.4300 C   0  0  1  0  0  0  0  0  0  0  0  0
    7.5896  -11.7284   27.3801 O   0  0  0  0  0  0  0  0  0  0  0  0
    8.1369  -13.7937   26.4375 C   0  0  2  0  0  0  0  0  0  0  0  0
    7.8230  -14.8098   25.4727 N   0  0  0  0  0  0  0  0  0  0  0  0
    8.3902  -14.3136   27.7837 C   0  0  0  0  0  0  0  0  0  0  0  0
    9.0426  -13.5375   28.7135 O   0  0  0  0  0  0  0  0  0  0  0  0
    8.0174  -15.4603   28.0960 O   0  0  0  0  0  0  0  0  0  0  0  0
  2  1  1  0
  3  2  1  0
  4  3  1  0
  4  5  1  0
  5  1  1  0
  5  6  1  1
  7  6  2  0
  9  8  1  1
  9 10  1  0
  9 11  1  0
 10  6  1  0
 11 17  1  0
 12 11  2  0
 14 13  1  1
 14 15  1  0
 16 14  1  0
 16 18  1  0
 16 17  1  6
 18 20  2  0
 18 19  1  0
M  END
$$$$
