PAT.pdb
     RDKit          3D

 20 20  0  0  1  0  0  0  0  0999 V2000
    8.7331  -15.1139   19.1995 N   0  0  0  0  0  0  0  0  0  0  0  0
    9.1130  -14.4229   17.9677 C   0  0  0  0  0  0  0  0  0  0  0  0
    8.0285  -13.3463   17.9111 C   0  0  0  0  0  0  0  0  0  0  0  0
    7.7001  -13.0379   19.3665 C   0  0  0  0  0  0  0  0  0  0  0  0
    8.5516  -14.0182   20.1061 C   0  0  1  0  0  0  0  0  0  0  0  0
    7.9975  -14.4233   21.4083 C   0  0  0  0  0  0  0  0  0  0  0  0
    7.1890  -13.6459   21.9721 O   0  0  0  0  0  0  0  0  0  0  0  0
    8.0470  -17.3905   23.7639 C   0  0  0  0  0  0  0  0  0  0  0  0
    7.7137  -15.9628   23.3649 C   0  0  2  0  0  0  0  0  0  0  0  0
    8.3179  -15.6389   22.0711 N   0  0  0  0  0  0  0  0  0  0  0  0
    8.2409  -15.0378   24.3750 C   0  0  0  0  0  0  0  0  0  0  0  0
    9.4487  -14.6583   24.4314 O   0  0  0  0  0  0  0  0  0  0  0  0
    6.3699  -11.7310   25.6819 C   0  0  0  0  0  0  0  0  0  0  0  0
    6.6961  -12.6453   26.8184 C   0  0  1  0  0  0  0  0  0  0  0  0
    5.5579  -13.4564   27.0305 O   0  0  0  0  0  0  0  0  0  0  0  0
    7.8025  -13.5972   26.4015 C   0  0  2  0  0  0  0  0  0  0  0  0
    7.3752  -14.5072   25.3762 N   0  0  0  0  0  0  0  0  0  0  0  0
    8.4419  -14.2522   27.5454 C   0  0  0  0  0  0  0  0  0  0  0  0
    9.0368  -13.4982   28.5304 O   0  0  0  0  0  0  0  0  0  0  0  0
    8.4518  -15.4945   27.6348 O   0  0  0  0  0  0  0  0  0  0  0  0
  2  1  1  0
  3  2  1  0
  4  3  1  0
  4  5  1  0
  5  1  1  0
  5  6  1  1
  7  6  2  0
  9  8  1  1
  9 10  1  0
  9 11  1  0
 10  6  1  0
 11 17  1  0
 12 11  2  0
 14 13  1  6
 14 15  1  0
 16 14  1  0
 16 18  1  0
 16 17  1  6
 18 20  2  0
 18 19  1  0
M  END
$$$$
