PAT.pdb
     RDKit          3D

 20 20  0  0  1  0  0  0  0  0999 V2000
    8.1974  -15.1921   18.6653 N   0  0  0  0  0  0  0  0  0  0  0  0
    8.1032  -14.9011   17.2351 C   0  0  0  0  0  0  0  0  0  0  0  0
    7.8690  -13.3905   17.2772 C   0  0  0  0  0  0  0  0  0  0  0  0
    8.6102  -12.9091   18.5181 C   0  0  0  0  0  0  0  0  0  0  0  0
    9.1158  -14.1849   19.1096 C   0  0  1  0  0  0  0  0  0  0  0  0
    9.2718  -14.1411   20.5726 C   0  0  0  0  0  0  0  0  0  0  0  0
   10.2859  -13.5677   21.0401 O   0  0  0  0  0  0  0  0  0  0  0  0
    7.2238  -14.4621   23.6572 C   0  0  0  0  0  0  0  0  0  0  0  0
    8.5569  -14.5687   22.9359 C   0  0  2  0  0  0  0  0  0  0  0  0
    8.3483  -14.7064   21.4932 N   0  0  0  0  0  0  0  0  0  0  0  0
    9.2814  -15.7492   23.4211 C   0  0  0  0  0  0  0  0  0  0  0  0
    9.5483  -15.9695   24.6402 O   0  0  0  0  0  0  0  0  0  0  0  0
    9.1101  -19.2957   21.3523 C   0  0  0  0  0  0  0  0  0  0  0  0
   10.5032  -18.9463   21.7657 C   0  0  1  0  0  0  0  0  0  0  0  0
   11.1034  -18.2899   20.6668 O   0  0  0  0  0  0  0  0  0  0  0  0
   10.4580  -17.9164   22.8798 C   0  0  2  0  0  0  0  0  0  0  0  0
    9.7329  -16.7375   22.4976 N   0  0  0  0  0  0  0  0  0  0  0  0
   11.7813  -17.6405   23.4449 C   0  0  0  0  0  0  0  0  0  0  0  0
   12.5038  -18.6492   24.0389 O   0  0  0  0  0  0  0  0  0  0  0  0
   12.2613  -16.4924   23.3919 O   0  0  0  0  0  0  0  0  0  0  0  0
  2  1  1  0
  3  2  1  0
  4  3  1  0
  4  5  1  0
  5  1  1  0
  5  6  1  1
  7  6  2  0
  9  8  1  1
  9 10  1  0
  9 11  1  0
 10  6  1  0
 11 17  1  0
 12 11  2  0
 14 13  1  6
 14 15  1  0
 16 14  1  0
 16 18  1  0
 16 17  1  6
 18 20  2  0
 18 19  1  0
M  END
$$$$
