PAT.pdb
     RDKit          3D

 20 20  0  0  1  0  0  0  0  0999 V2000
    8.8165  -15.0136   19.4047 N   0  0  0  0  0  0  0  0  0  0  0  0
    8.9236  -14.3132   18.1252 C   0  0  0  0  0  0  0  0  0  0  0  0
    7.6747  -13.4329   18.1887 C   0  0  0  0  0  0  0  0  0  0  0  0
    7.4770  -13.1320   19.6691 C   0  0  0  0  0  0  0  0  0  0  0  0
    8.5641  -13.9317   20.3108 C   0  0  1  0  0  0  0  0  0  0  0  0
    8.2471  -14.3766   21.6778 C   0  0  0  0  0  0  0  0  0  0  0  0
    7.9007  -13.5075   22.5147 O   0  0  0  0  0  0  0  0  0  0  0  0
    7.9514  -17.6021   23.6525 C   0  0  0  0  0  0  0  0  0  0  0  0
    7.8369  -16.1007   23.4492 C   0  0  2  0  0  0  0  0  0  0  0  0
    8.3072  -15.7279   22.1137 N   0  0  0  0  0  0  0  0  0  0  0  0
    8.6601  -15.4086   24.4479 C   0  0  0  0  0  0  0  0  0  0  0  0
    9.9049  -15.2040   24.3265 O   0  0  0  0  0  0  0  0  0  0  0  0
    7.5495  -12.0490   25.9287 C   0  0  0  0  0  0  0  0  0  0  0  0
    7.8845  -12.9391   27.0817 C   0  0  1  0  0  0  0  0  0  0  0  0
    6.6726  -13.5280   27.5093 O   0  0  0  0  0  0  0  0  0  0  0  0
    8.7485  -14.0900   26.5991 C   0  0  2  0  0  0  0  0  0  0  0  0
    8.0637  -14.9181   25.6467 N   0  0  0  0  0  0  0  0  0  0  0  0
    9.3583  -14.8367   27.7023 C   0  0  0  0  0  0  0  0  0  0  0  0
   10.1268  -14.1837   28.6381 O   0  0  0  0  0  0  0  0  0  0  0  0
    9.1860  -16.0663   27.8013 O   0  0  0  0  0  0  0  0  0  0  0  0
  2  1  1  0
  3  2  1  0
  4  3  1  0
  4  5  1  0
  5  1  1  0
  5  6  1  1
  7  6  2  0
  9  8  1  1
  9 10  1  0
  9 11  1  0
 10  6  1  0
 11 17  1  0
 12 11  2  0
 14 13  1  6
 14 15  1  0
 16 14  1  0
 16 18  1  0
 16 17  1  1
 18 20  2  0
 18 19  1  0
M  END
$$$$
