PAT.pdb
     RDKit          3D

 20 20  0  0  1  0  0  0  0  0999 V2000
    7.6939  -15.1078   18.5966 N   0  0  0  0  0  0  0  0  0  0  0  0
    8.2658  -14.3546   17.4809 C   0  0  0  0  0  0  0  0  0  0  0  0
    8.1723  -12.9318   18.0337 C   0  0  0  0  0  0  0  0  0  0  0  0
    8.3307  -13.0814   19.5416 C   0  0  0  0  0  0  0  0  0  0  0  0
    8.4082  -14.5637   19.7142 C   0  0  1  0  0  0  0  0  0  0  0  0
    7.9070  -15.0378   21.0146 C   0  0  0  0  0  0  0  0  0  0  0  0
    6.6844  -15.3051   21.1128 O   0  0  0  0  0  0  0  0  0  0  0  0
    8.6760  -17.0888   23.7461 C   0  0  0  0  0  0  0  0  0  0  0  0
    8.1356  -15.7070   23.4185 C   0  0  2  0  0  0  0  0  0  0  0  0
    8.7173  -15.2133   22.1688 N   0  0  0  0  0  0  0  0  0  0  0  0
    8.4845  -14.7775   24.4992 C   0  0  0  0  0  0  0  0  0  0  0  0
    9.6064  -14.1977   24.6052 O   0  0  0  0  0  0  0  0  0  0  0  0
    6.3481  -11.7698   25.8857 C   0  0  0  0  0  0  0  0  0  0  0  0
    6.5993  -12.7506   26.9850 C   0  0  1  0  0  0  0  0  0  0  0  0
    5.4932  -13.6306   27.0088 O   0  0  0  0  0  0  0  0  0  0  0  0
    7.7977  -13.6124   26.6312 C   0  0  2  0  0  0  0  0  0  0  0  0
    7.5314  -14.4778   25.5168 N   0  0  0  0  0  0  0  0  0  0  0  0
    8.3580  -14.3024   27.7959 C   0  0  0  0  0  0  0  0  0  0  0  0
    8.7776  -13.5826   28.8906 O   0  0  0  0  0  0  0  0  0  0  0  0
    8.4586  -15.5439   27.8039 O   0  0  0  0  0  0  0  0  0  0  0  0
  2  1  1  0
  3  2  1  0
  4  3  1  0
  4  5  1  0
  5  1  1  0
  5  6  1  1
  7  6  2  0
  9  8  1  1
  9 10  1  0
  9 11  1  0
 10  6  1  0
 11 17  1  0
 12 11  2  0
 14 13  1  6
 14 15  1  0
 16 14  1  0
 16 18  1  0
 16 17  1  6
 18 20  2  0
 18 19  1  0
M  END
$$$$
