PAT.pdb
     RDKit          3D

 20 20  0  0  1  0  0  0  0  0999 V2000
    9.2622  -14.2771   19.0583 N   0  0  0  0  0  0  0  0  0  0  0  0
    8.9527  -13.4623   17.8839 C   0  0  0  0  0  0  0  0  0  0  0  0
    7.4328  -13.3570   18.0155 C   0  0  0  0  0  0  0  0  0  0  0  0
    7.1617  -13.3914   19.5144 C   0  0  0  0  0  0  0  0  0  0  0  0
    8.5262  -13.6010   20.0863 C   0  0  1  0  0  0  0  0  0  0  0  0
    8.5282  -14.3164   21.3728 C   0  0  0  0  0  0  0  0  0  0  0  0
    7.8147  -13.8624   22.3005 O   0  0  0  0  0  0  0  0  0  0  0  0
    7.8437  -16.4951   23.3425 C   0  0  0  0  0  0  0  0  0  0  0  0
    9.2631  -16.1098   22.9610 C   0  0  2  0  0  0  0  0  0  0  0  0
    9.2861  -15.4897   21.6348 N   0  0  0  0  0  0  0  0  0  0  0  0
   10.1044  -17.3120   22.9327 C   0  0  0  0  0  0  0  0  0  0  0  0
    9.7153  -18.4620   23.2960 O   0  0  0  0  0  0  0  0  0  0  0  0
   13.2499  -18.6780   19.5240 C   0  0  0  0  0  0  0  0  0  0  0  0
   12.5818  -17.6146   20.3342 C   0  0  1  0  0  0  0  0  0  0  0  0
   11.4267  -17.2215   19.6203 O   0  0  0  0  0  0  0  0  0  0  0  0
   12.0736  -18.2118   21.6338 C   0  0  2  0  0  0  0  0  0  0  0  0
   11.4523  -17.2277   22.4749 N   0  0  0  0  0  0  0  0  0  0  0  0
   13.0879  -19.0189   22.3167 C   0  0  0  0  0  0  0  0  0  0  0  0
   13.5388  -20.1882   21.7492 O   0  0  0  0  0  0  0  0  0  0  0  0
   13.5490  -18.6531   23.4144 O   0  0  0  0  0  0  0  0  0  0  0  0
  2  1  1  0
  3  2  1  0
  4  3  1  0
  4  5  1  0
  5  1  1  0
  5  6  1  1
  7  6  2  0
  9  8  1  6
  9 10  1  0
  9 11  1  0
 10  6  1  0
 11 17  1  0
 12 11  2  0
 14 13  1  6
 14 15  1  0
 16 14  1  0
 16 18  1  0
 16 17  1  1
 18 20  2  0
 18 19  1  0
M  END
$$$$
