PAT.pdb
     RDKit          3D

 20 20  0  0  1  0  0  0  0  0999 V2000
    7.4109  -14.8587   18.8505 N   0  0  0  0  0  0  0  0  0  0  0  0
    7.8456  -13.9987   17.7503 C   0  0  0  0  0  0  0  0  0  0  0  0
    7.7895  -12.6311   18.4323 C   0  0  0  0  0  0  0  0  0  0  0  0
    8.1133  -12.9045   19.8957 C   0  0  0  0  0  0  0  0  0  0  0  0
    8.2334  -14.3937   19.9287 C   0  0  1  0  0  0  0  0  0  0  0  0
    7.8844  -14.9896   21.2287 C   0  0  0  0  0  0  0  0  0  0  0  0
    6.6686  -15.1562   21.4930 O   0  0  0  0  0  0  0  0  0  0  0  0
    9.1325  -17.1784   23.8556 C   0  0  0  0  0  0  0  0  0  0  0  0
    8.3953  -15.8960   23.5082 C   0  0  2  0  0  0  0  0  0  0  0  0
    8.8348  -15.3897   22.2066 N   0  0  0  0  0  0  0  0  0  0  0  0
    8.6774  -14.8791   24.5281 C   0  0  0  0  0  0  0  0  0  0  0  0
    9.7386  -14.1875   24.5695 O   0  0  0  0  0  0  0  0  0  0  0  0
    6.6096  -11.8587   25.6471 C   0  0  0  0  0  0  0  0  0  0  0  0
    6.7473  -12.7649   26.8276 C   0  0  1  0  0  0  0  0  0  0  0  0
    5.6137  -13.6095   26.8294 O   0  0  0  0  0  0  0  0  0  0  0  0
    7.9389  -13.6832   26.6254 C   0  0  2  0  0  0  0  0  0  0  0  0
    7.7254  -14.6190   25.5574 N   0  0  0  0  0  0  0  0  0  0  0  0
    8.3900  -14.3027   27.8741 C   0  0  0  0  0  0  0  0  0  0  0  0
    8.7586  -13.5177   28.9420 O   0  0  0  0  0  0  0  0  0  0  0  0
    8.4432  -15.5428   27.9781 O   0  0  0  0  0  0  0  0  0  0  0  0
  2  1  1  0
  3  2  1  0
  4  3  1  0
  4  5  1  0
  5  1  1  0
  5  6  1  1
  7  6  2  0
  9  8  1  1
  9 10  1  0
  9 11  1  0
 10  6  1  0
 11 17  1  0
 12 11  2  0
 14 13  1  6
 14 15  1  0
 16 14  1  0
 16 18  1  0
 16 17  1  6
 18 20  2  0
 18 19  1  0
M  END
$$$$
