PAT.pdb
     RDKit          3D

 20 20  0  0  1  0  0  0  0  0999 V2000
    7.7163  -14.8901   19.4301 N   0  0  0  0  0  0  0  0  0  0  0  0
    7.6003  -14.4385   18.0439 C   0  0  0  0  0  0  0  0  0  0  0  0
    7.4939  -12.9277   18.2553 C   0  0  0  0  0  0  0  0  0  0  0  0
    8.3126  -12.6445   19.5086 C   0  0  0  0  0  0  0  0  0  0  0  0
    8.7292  -14.0132   19.9403 C   0  0  1  0  0  0  0  0  0  0  0  0
    8.9358  -14.1415   21.3921 C   0  0  0  0  0  0  0  0  0  0  0  0
    9.9461  -13.5911   21.8943 O   0  0  0  0  0  0  0  0  0  0  0  0
    6.8765  -14.7565   24.4062 C   0  0  0  0  0  0  0  0  0  0  0  0
    8.2305  -14.7559   23.7167 C   0  0  2  0  0  0  0  0  0  0  0  0
    8.0654  -14.8488   22.2648 N   0  0  0  0  0  0  0  0  0  0  0  0
    9.0127  -15.9097   24.1758 C   0  0  0  0  0  0  0  0  0  0  0  0
    9.1997  -16.2037   25.3943 O   0  0  0  0  0  0  0  0  0  0  0  0
    9.0932  -19.3346   22.0242 C   0  0  0  0  0  0  0  0  0  0  0  0
   10.4727  -18.9447   22.4469 C   0  0  1  0  0  0  0  0  0  0  0  0
   11.0501  -18.2446   21.3630 O   0  0  0  0  0  0  0  0  0  0  0  0
   10.3901  -17.9407   23.5823 C   0  0  2  0  0  0  0  0  0  0  0  0
    9.6193  -16.7829   23.2256 N   0  0  0  0  0  0  0  0  0  0  0  0
   11.7029  -17.6255   24.1513 C   0  0  0  0  0  0  0  0  0  0  0  0
   12.4506  -18.6110   24.7532 O   0  0  0  0  0  0  0  0  0  0  0  0
   12.1514  -16.4648   24.0944 O   0  0  0  0  0  0  0  0  0  0  0  0
  2  1  1  0
  3  2  1  0
  4  3  1  0
  4  5  1  0
  5  1  1  0
  5  6  1  1
  7  6  2  0
  9  8  1  1
  9 10  1  0
  9 11  1  0
 10  6  1  0
 11 17  1  0
 12 11  2  0
 14 13  1  6
 14 15  1  0
 16 14  1  0
 16 18  1  0
 16 17  1  6
 18 20  2  0
 18 19  1  0
M  END
$$$$
