PAT.pdb
     RDKit          3D

 20 20  0  0  1  0  0  0  0  0999 V2000
   10.5350  -16.1587   16.5320 N   0  0  0  0  0  0  0  0  0  0  0  0
   10.1337  -16.9903   15.3977 C   0  0  0  0  0  0  0  0  0  0  0  0
    8.7563  -17.4553   15.8721 C   0  0  0  0  0  0  0  0  0  0  0  0
    8.2231  -16.3102   16.7238 C   0  0  0  0  0  0  0  0  0  0  0  0
    9.3680  -15.3498   16.7297 C   0  0  1  0  0  0  0  0  0  0  0  0
    9.4355  -14.5128   17.9387 C   0  0  0  0  0  0  0  0  0  0  0  0
   10.5680  -14.1532   18.3439 O   0  0  0  0  0  0  0  0  0  0  0  0
    7.1432  -12.4979   20.1464 C   0  0  0  0  0  0  0  0  0  0  0  0
    8.4573  -13.1921   19.8303 C   0  0  2  0  0  0  0  0  0  0  0  0
    8.3011  -14.0837   18.6794 N   0  0  0  0  0  0  0  0  0  0  0  0
    8.8796  -13.9886   20.9883 C   0  0  0  0  0  0  0  0  0  0  0  0
    9.1604  -13.5008   22.1237 O   0  0  0  0  0  0  0  0  0  0  0  0
    7.5622  -17.7904   21.4359 C   0  0  0  0  0  0  0  0  0  0  0  0
    9.0287  -17.7086   21.7123 C   0  0  1  0  0  0  0  0  0  0  0  0
    9.6910  -18.0931   20.5240 O   0  0  0  0  0  0  0  0  0  0  0  0
    9.4204  -16.2610   21.9466 C   0  0  2  0  0  0  0  0  0  0  0  0
    8.9952  -15.4054   20.8747 N   0  0  0  0  0  0  0  0  0  0  0  0
   10.8346  -16.1107   22.2987 C   0  0  0  0  0  0  0  0  0  0  0  0
   11.3313  -16.7050   23.4356 O   0  0  0  0  0  0  0  0  0  0  0  0
   11.5967  -15.4448   21.5726 O   0  0  0  0  0  0  0  0  0  0  0  0
  2  1  1  0
  3  2  1  0
  4  3  1  0
  4  5  1  0
  5  1  1  0
  5  6  1  1
  7  6  2  0
  9  8  1  1
  9 10  1  0
  9 11  1  0
 10  6  1  0
 11 17  1  0
 12 11  2  0
 14 13  1  6
 14 15  1  0
 16 14  1  0
 16 18  1  0
 16 17  1  6
 18 20  2  0
 18 19  1  0
M  END
$$$$
