VDV.pdb
     RDKit          3D

 23 22  0  0  1  0  0  0  0  0999 V2000
    6.8458  -14.2584   20.1404 C   0  0  0  0  0  0  0  0  0  0  0  0
    7.9074  -13.1772   20.3321 C   0  0  2  0  0  0  0  0  0  0  0  0
    8.1857  -12.5009   19.0089 C   0  0  0  0  0  0  0  0  0  0  0  0
    9.1630  -13.7859   20.9239 C   0  0  2  0  0  0  0  0  0  0  0  0
    9.7840  -14.6347   19.9322 N   0  0  0  0  0  0  0  0  0  0  0  0
    8.9058  -14.5009   22.1905 C   0  0  0  0  0  0  0  0  0  0  0  0
    8.2149  -14.0370   23.1211 O   0  0  0  0  0  0  0  0  0  0  0  0
    9.4662  -15.8078   22.4007 N   0  0  0  0  0  0  0  0  0  0  0  0
    9.2099  -16.5421   23.6324 C   0  0  1  0  0  0  0  0  0  0  0  0
    9.5876  -18.0031   23.5197 C   0  0  0  0  0  0  0  0  0  0  0  0
    9.0273  -18.6502   22.3099 C   0  0  0  0  0  0  0  0  0  0  0  0
    9.8086  -19.0462   21.4105 O   0  0  0  0  0  0  0  0  0  0  0  0
    9.9483  -15.8995   24.7355 C   0  0  0  0  0  0  0  0  0  0  0  0
   11.1444  -15.6201   24.6026 O   0  0  0  0  0  0  0  0  0  0  0  0
    7.6800  -18.8458   22.1105 O   0  0  0  0  0  0  0  0  0  0  0  0
    8.0046  -13.8051   28.0298 C   0  0  0  0  0  0  0  0  0  0  0  0
    9.4050  -13.6665   27.5370 C   0  0  2  0  0  0  0  0  0  0  0  0
    9.4329  -12.7044   26.3835 C   0  0  0  0  0  0  0  0  0  0  0  0
   10.0288  -14.9612   27.0811 C   0  0  2  0  0  0  0  0  0  0  0  0
    9.3369  -15.5728   25.9872 N   0  0  0  0  0  0  0  0  0  0  0  0
   10.2976  -15.8822   28.2038 C   0  0  0  0  0  0  0  0  0  0  0  0
    9.7452  -17.0089   28.1903 O   0  0  0  0  0  0  0  0  0  0  0  0
   11.1174  -15.6098   29.2872 O   0  0  0  0  0  0  0  0  0  0  0  0
  2  1  1  6
  2  3  1  0
  4  6  1  0
  4  2  1  0
  4  5  1  6
  6  7  2  0
  6  8  1  0
  8  9  1  0
  9 13  1  0
  9 10  1  6
 11 10  1  0
 12 11  2  0
 13 14  2  0
 13 20  1  0
 15 11  1  0
 17 16  1  6
 17 18  1  0
 19 21  1  0
 19 17  1  0
 19 20  1  6
 21 23  1  0
 22 21  2  0
M  END
$$$$
