VDV.pdb
     RDKit          3D

 23 22  0  0  1  0  0  0  0  0999 V2000
    6.8864  -12.9369   20.6801 C   0  0  0  0  0  0  0  0  0  0  0  0
    8.2086  -13.2377   19.9772 C   0  0  2  0  0  0  0  0  0  0  0  0
    8.2538  -12.5118   18.6518 C   0  0  0  0  0  0  0  0  0  0  0  0
    8.3705  -14.7344   19.8008 C   0  0  2  0  0  0  0  0  0  0  0  0
    7.4436  -15.1895   18.7891 N   0  0  0  0  0  0  0  0  0  0  0  0
    8.2223  -15.4759   21.0696 C   0  0  0  0  0  0  0  0  0  0  0  0
    7.1727  -16.0570   21.4151 O   0  0  0  0  0  0  0  0  0  0  0  0
    9.3277  -15.5553   21.9850 N   0  0  0  0  0  0  0  0  0  0  0  0
    9.1967  -16.2530   23.2570 C   0  0  1  0  0  0  0  0  0  0  0  0
   10.1551  -17.4181   23.3748 C   0  0  0  0  0  0  0  0  0  0  0  0
   10.1101  -18.0672   24.7063 C   0  0  0  0  0  0  0  0  0  0  0  0
    9.0025  -18.2106   25.2798 O   0  0  0  0  0  0  0  0  0  0  0  0
    9.4116  -15.2919   24.3548 C   0  0  0  0  0  0  0  0  0  0  0  0
   10.5031  -14.7269   24.4808 O   0  0  0  0  0  0  0  0  0  0  0  0
   11.2280  -18.5296   25.3619 O   0  0  0  0  0  0  0  0  0  0  0  0
    6.2777  -13.2003   26.4890 C   0  0  0  0  0  0  0  0  0  0  0  0
    7.7408  -12.9135   26.4864 C   0  0  2  0  0  0  0  0  0  0  0  0
    8.0813  -12.0772   25.2858 C   0  0  0  0  0  0  0  0  0  0  0  0
    8.6101  -14.1452   26.4599 C   0  0  2  0  0  0  0  0  0  0  0  0
    8.3955  -14.9693   25.3091 N   0  0  0  0  0  0  0  0  0  0  0  0
    8.5747  -14.8865   27.7366 C   0  0  0  0  0  0  0  0  0  0  0  0
    8.1913  -16.0812   27.7169 O   0  0  0  0  0  0  0  0  0  0  0  0
    8.9323  -14.3735   28.9731 O   0  0  0  0  0  0  0  0  0  0  0  0
  2  1  1  6
  2  3  1  0
  4  6  1  0
  4  2  1  0
  4  5  1  6
  6  7  2  0
  6  8  1  0
  8  9  1  0
  9 13  1  0
  9 10  1  6
 11 10  1  0
 12 11  2  0
 13 14  2  0
 13 20  1  0
 15 11  1  0
 17 16  1  6
 17 18  1  0
 19 21  1  0
 19 17  1  0
 19 20  1  6
 21 23  1  0
 22 21  2  0
M  END
$$$$
