VDV.pdb
     RDKit          3D

 23 22  0  0  1  0  0  0  0  0999 V2000
    8.1041  -12.6602   18.2762 C   0  0  0  0  0  0  0  0  0  0  0  0
    7.7339  -13.3292   19.5984 C   0  0  2  0  0  0  0  0  0  0  0  0
    8.2631  -12.5035   20.7490 C   0  0  0  0  0  0  0  0  0  0  0  0
    8.2755  -14.7445   19.6301 C   0  0  2  0  0  0  0  0  0  0  0  0
    7.7262  -15.4811   18.5141 N   0  0  0  0  0  0  0  0  0  0  0  0
    8.0296  -15.4188   20.9210 C   0  0  0  0  0  0  0  0  0  0  0  0
    6.9524  -15.9753   21.2189 O   0  0  0  0  0  0  0  0  0  0  0  0
    9.0656  -15.4572   21.9168 N   0  0  0  0  0  0  0  0  0  0  0  0
    8.8526  -16.1285   23.1919 C   0  0  1  0  0  0  0  0  0  0  0  0
    9.6883  -17.3828   23.3277 C   0  0  0  0  0  0  0  0  0  0  0  0
    9.5955  -17.9924   24.6753 C   0  0  0  0  0  0  0  0  0  0  0  0
    8.4700  -18.1037   25.2202 O   0  0  0  0  0  0  0  0  0  0  0  0
    9.1520  -15.1854   24.2855 C   0  0  0  0  0  0  0  0  0  0  0  0
   10.2742  -14.6768   24.3774 O   0  0  0  0  0  0  0  0  0  0  0  0
   10.6872  -18.4510   25.3761 O   0  0  0  0  0  0  0  0  0  0  0  0
    6.0324  -13.3246   26.7542 C   0  0  0  0  0  0  0  0  0  0  0  0
    7.4104  -12.8232   26.4844 C   0  0  2  0  0  0  0  0  0  0  0  0
    7.4080  -12.0230   25.2129 C   0  0  0  0  0  0  0  0  0  0  0  0
    8.4465  -13.9103   26.3508 C   0  0  2  0  0  0  0  0  0  0  0  0
    8.1854  -14.8170   25.2741 N   0  0  0  0  0  0  0  0  0  0  0  0
    8.7286  -14.5799   27.6365 C   0  0  0  0  0  0  0  0  0  0  0  0
    8.5386  -15.8179   27.7131 O   0  0  0  0  0  0  0  0  0  0  0  0
    9.1912  -13.9544   28.7830 O   0  0  0  0  0  0  0  0  0  0  0  0
  2  1  1  6
  2  3  1  0
  4  6  1  0
  4  2  1  0
  4  5  1  6
  6  7  2  0
  6  8  1  0
  8  9  1  0
  9 13  1  0
  9 10  1  6
 11 10  1  0
 12 11  2  0
 13 14  2  0
 13 20  1  0
 15 11  1  0
 17 16  1  6
 17 18  1  0
 19 21  1  0
 19 17  1  0
 19 20  1  6
 21 23  1  0
 22 21  2  0
M  END
$$$$
