VDV.pdb
     RDKit          3D

 23 22  0  0  1  0  0  0  0  0999 V2000
    6.8754  -13.0529   20.6083 C   0  0  0  0  0  0  0  0  0  0  0  0
    8.2625  -13.1526   19.9766 C   0  0  2  0  0  0  0  0  0  0  0  0
    8.3214  -12.2785   18.7444 C   0  0  0  0  0  0  0  0  0  0  0  0
    8.5789  -14.5989   19.6519 C   0  0  2  0  0  0  0  0  0  0  0  0
    7.7012  -15.0438   18.5930 N   0  0  0  0  0  0  0  0  0  0  0  0
    8.5132  -15.4757   20.8387 C   0  0  0  0  0  0  0  0  0  0  0  0
    7.5615  -16.2470   21.0796 O   0  0  0  0  0  0  0  0  0  0  0  0
    9.5874  -15.4684   21.7938 N   0  0  0  0  0  0  0  0  0  0  0  0
    9.5409  -16.3153   22.9781 C   0  0  1  0  0  0  0  0  0  0  0  0
   10.5829  -17.4120   22.9418 C   0  0  0  0  0  0  0  0  0  0  0  0
   10.6567  -18.1772   24.2088 C   0  0  0  0  0  0  0  0  0  0  0  0
    9.5923  -18.5367   24.7691 O   0  0  0  0  0  0  0  0  0  0  0  0
    9.7161  -15.4733   24.1762 C   0  0  0  0  0  0  0  0  0  0  0  0
   10.7943  -14.9074   24.3854 O   0  0  0  0  0  0  0  0  0  0  0  0
   11.8414  -18.5227   24.8173 O   0  0  0  0  0  0  0  0  0  0  0  0
    6.4254  -13.8676   26.5179 C   0  0  0  0  0  0  0  0  0  0  0  0
    7.8493  -13.4259   26.5353 C   0  0  2  0  0  0  0  0  0  0  0  0
    8.0731  -12.4268   25.4359 C   0  0  0  0  0  0  0  0  0  0  0  0
    8.8439  -14.5453   26.3595 C   0  0  2  0  0  0  0  0  0  0  0  0
    8.6752  -15.2705   25.1368 N   0  0  0  0  0  0  0  0  0  0  0  0
    8.9369  -15.4082   27.5543 C   0  0  0  0  0  0  0  0  0  0  0  0
    8.6121  -16.6148   27.4396 O   0  0  0  0  0  0  0  0  0  0  0  0
    9.3570  -14.9988   28.8097 O   0  0  0  0  0  0  0  0  0  0  0  0
  2  1  1  6
  2  3  1  0
  4  6  1  0
  4  2  1  0
  4  5  1  6
  6  7  2  0
  6  8  1  0
  8  9  1  0
  9 13  1  0
  9 10  1  6
 11 10  1  0
 12 11  2  0
 13 14  2  0
 13 20  1  0
 15 11  1  0
 17 16  1  6
 17 18  1  0
 19 21  1  0
 19 17  1  0
 19 20  1  6
 21 23  1  0
 22 21  2  0
M  END
$$$$
