VDV.pdb
     RDKit          3D

 23 22  0  0  1  0  0  0  0  0999 V2000
    8.0202  -12.6809   18.8768 C   0  0  0  0  0  0  0  0  0  0  0  0
    7.6005  -13.3932   20.1611 C   0  0  2  0  0  0  0  0  0  0  0  0
    8.0655  -12.5946   21.3577 C   0  0  0  0  0  0  0  0  0  0  0  0
    8.1605  -14.8015   20.1769 C   0  0  2  0  0  0  0  0  0  0  0  0
    7.7457  -15.4837   18.9718 N   0  0  0  0  0  0  0  0  0  0  0  0
    7.7910  -15.5468   21.3973 C   0  0  0  0  0  0  0  0  0  0  0  0
    6.9933  -16.5071   21.4090 O   0  0  0  0  0  0  0  0  0  0  0  0
    8.3618  -15.1748   22.6630 N   0  0  0  0  0  0  0  0  0  0  0  0
    8.8978  -16.1835   23.5671 C   0  0  1  0  0  0  0  0  0  0  0  0
   10.0063  -16.9941   22.9314 C   0  0  0  0  0  0  0  0  0  0  0  0
   10.5627  -18.0215   23.8430 C   0  0  0  0  0  0  0  0  0  0  0  0
    9.8597  -18.4391   24.7958 O   0  0  0  0  0  0  0  0  0  0  0  0
    9.3785  -15.5204   24.7936 C   0  0  0  0  0  0  0  0  0  0  0  0
   10.0532  -16.1490   25.6158 O   0  0  0  0  0  0  0  0  0  0  0  0
   11.8241  -18.5535   23.7052 O   0  0  0  0  0  0  0  0  0  0  0  0
    6.3936  -13.9469   26.6000 C   0  0  0  0  0  0  0  0  0  0  0  0
    7.5383  -12.9917   26.5976 C   0  0  2  0  0  0  0  0  0  0  0  0
    7.3499  -11.9929   25.4913 C   0  0  0  0  0  0  0  0  0  0  0  0
    8.8851  -13.6443   26.4138 C   0  0  2  0  0  0  0  0  0  0  0  0
    9.0977  -14.1494   25.0914 N   0  0  0  0  0  0  0  0  0  0  0  0
    9.1866  -14.6218   27.4790 C   0  0  0  0  0  0  0  0  0  0  0  0
    9.1735  -15.8414   27.1839 O   0  0  0  0  0  0  0  0  0  0  0  0
    9.4873  -14.3084   28.7947 O   0  0  0  0  0  0  0  0  0  0  0  0
  2  1  1  6
  2  3  1  0
  4  6  1  0
  4  2  1  0
  4  5  1  6
  6  7  2  0
  6  8  1  0
  8  9  1  0
  9 13  1  0
  9 10  1  6
 11 10  1  0
 12 11  2  0
 13 14  2  0
 13 20  1  0
 15 11  1  0
 17 16  1  6
 17 18  1  0
 19 21  1  0
 19 17  1  0
 19 20  1  6
 21 23  1  0
 22 21  2  0
M  END
$$$$
