VDV.pdb
     RDKit          3D

 23 22  0  0  1  0  0  0  0  0999 V2000
    6.6926  -13.4957   19.9189 C   0  0  0  0  0  0  0  0  0  0  0  0
    8.1612  -13.2226   19.6001 C   0  0  2  0  0  0  0  0  0  0  0  0
    8.2562  -12.2557   18.4417 C   0  0  0  0  0  0  0  0  0  0  0  0
    8.8753  -14.5256   19.3009 C   0  0  2  0  0  0  0  0  0  0  0  0
    8.3842  -15.0514   18.0470 N   0  0  0  0  0  0  0  0  0  0  0  0
    8.7591  -15.5035   20.4016 C   0  0  0  0  0  0  0  0  0  0  0  0
    8.4489  -16.7014   20.2356 O   0  0  0  0  0  0  0  0  0  0  0  0
    9.0100  -15.0901   21.7553 N   0  0  0  0  0  0  0  0  0  0  0  0
    9.1195  -16.0693   22.8282 C   0  0  1  0  0  0  0  0  0  0  0  0
   10.1339  -17.1490   22.5196 C   0  0  0  0  0  0  0  0  0  0  0  0
   10.3245  -18.0968   23.6428 C   0  0  0  0  0  0  0  0  0  0  0  0
    9.3833  -18.2827   24.4526 O   0  0  0  0  0  0  0  0  0  0  0  0
    9.4694  -15.3716   24.0795 C   0  0  0  0  0  0  0  0  0  0  0  0
   10.5898  -14.8698   24.2184 O   0  0  0  0  0  0  0  0  0  0  0  0
   11.4903  -18.7963   23.8543 O   0  0  0  0  0  0  0  0  0  0  0  0
    7.9828  -12.1862   27.3380 C   0  0  0  0  0  0  0  0  0  0  0  0
    7.7190  -13.2231   26.2996 C   0  0  2  0  0  0  0  0  0  0  0  0
    6.3692  -13.8366   26.5416 C   0  0  0  0  0  0  0  0  0  0  0  0
    8.7380  -14.3339   26.2651 C   0  0  2  0  0  0  0  0  0  0  0  0
    8.5554  -15.2407   25.1726 N   0  0  0  0  0  0  0  0  0  0  0  0
    8.8865  -15.0021   27.5737 C   0  0  0  0  0  0  0  0  0  0  0  0
    9.2307  -14.3048   28.5585 O   0  0  0  0  0  0  0  0  0  0  0  0
    8.6767  -16.3502   27.8152 O   0  0  0  0  0  0  0  0  0  0  0  0
  2  1  1  6
  2  3  1  0
  4  6  1  0
  4  2  1  0
  4  5  1  6
  6  7  2  0
  6  8  1  0
  8  9  1  0
  9 13  1  0
  9 10  1  6
 11 10  1  0
 12 11  2  0
 13 14  2  0
 13 20  1  0
 15 11  1  0
 17 16  1  1
 17 18  1  0
 19 21  1  0
 19 17  1  0
 19 20  1  6
 21 23  1  0
 22 21  2  0
M  END
$$$$
