VDV.pdb
     RDKit          3D

 23 22  0  0  1  0  0  0  0  0999 V2000
   -2.9132  -27.9406   25.2719 C   0  0  0  0  0  0  0  0  0  0  0  0
   -1.7320  -27.4619   26.1136 C   0  0  2  0  0  0  0  0  0  0  0  0
   -0.8111  -28.6258   26.4016 C   0  0  0  0  0  0  0  0  0  0  0  0
   -2.2352  -26.8179   27.3901 C   0  0  2  0  0  0  0  0  0  0  0  0
   -2.5259  -27.8548   28.3545 N   0  0  0  0  0  0  0  0  0  0  0  0
   -3.3910  -25.9274   27.1604 C   0  0  0  0  0  0  0  0  0  0  0  0
   -3.3391  -24.8866   26.4729 O   0  0  0  0  0  0  0  0  0  0  0  0
   -4.6653  -26.2440   27.7455 N   0  0  0  0  0  0  0  0  0  0  0  0
   -5.8371  -25.4218   27.4754 C   0  0  1  0  0  0  0  0  0  0  0  0
   -7.0734  -26.2530   27.2094 C   0  0  0  0  0  0  0  0  0  0  0  0
   -8.2507  -25.4312   26.8425 C   0  0  0  0  0  0  0  0  0  0  0  0
   -8.0962  -24.2047   26.6231 O   0  0  0  0  0  0  0  0  0  0  0  0
   -6.0585  -24.5139   28.6164 C   0  0  0  0  0  0  0  0  0  0  0  0
   -6.0490  -24.9536   29.7709 O   0  0  0  0  0  0  0  0  0  0  0  0
   -9.5236  -25.9405   26.7262 O   0  0  0  0  0  0  0  0  0  0  0  0
   -3.9479  -21.3998   29.1085 C   0  0  0  0  0  0  0  0  0  0  0  0
   -5.3693  -21.0074   29.3291 C   0  0  2  0  0  0  0  0  0  0  0  0
   -5.4581  -20.1202   30.5382 C   0  0  0  0  0  0  0  0  0  0  0  0
   -6.3053  -22.1717   29.5337 C   0  0  2  0  0  0  0  0  0  0  0  0
   -6.2903  -23.1114   28.4539 N   0  0  0  0  0  0  0  0  0  0  0  0
   -7.6617  -21.7406   29.9276 C   0  0  0  0  0  0  0  0  0  0  0  0
   -8.5417  -21.6676   29.0361 O   0  0  0  0  0  0  0  0  0  0  0  0
   -8.0559  -21.4045   31.2128 O   0  0  0  0  0  0  0  0  0  0  0  0
  2  1  1  1
  2  3  1  0
  4  6  1  0
  4  2  1  0
  4  5  1  1
  6  7  2  0
  6  8  1  0
  8  9  1  0
  9 13  1  0
  9 10  1  1
 11 10  1  0
 12 11  2  0
 13 14  2  0
 13 20  1  0
 15 11  1  0
 17 16  1  1
 17 18  1  0
 19 21  1  0
 19 17  1  0
 19 20  1  6
 21 23  1  0
 22 21  2  0
M  END
$$$$
