VDV.pdb
     RDKit          3D

 23 22  0  0  1  0  0  0  0  0999 V2000
    7.0796  -12.6500   20.9083 C   0  0  0  0  0  0  0  0  0  0  0  0
    8.2302  -13.2550   20.1065 C   0  0  2  0  0  0  0  0  0  0  0  0
    8.2616  -12.6420   18.7248 C   0  0  0  0  0  0  0  0  0  0  0  0
    8.0809  -14.7621   20.0463 C   0  0  2  0  0  0  0  0  0  0  0  0
    6.8961  -15.0851   19.2837 N   0  0  0  0  0  0  0  0  0  0  0  0
    8.0724  -15.3866   21.3848 C   0  0  0  0  0  0  0  0  0  0  0  0
    7.0338  -15.6008   22.0438 O   0  0  0  0  0  0  0  0  0  0  0  0
    9.3109  -15.7842   21.9965 N   0  0  0  0  0  0  0  0  0  0  0  0
    9.3330  -16.3610   23.3340 C   0  0  1  0  0  0  0  0  0  0  0  0
   10.4414  -17.3772   23.5033 C   0  0  0  0  0  0  0  0  0  0  0  0
   10.4110  -18.4390   22.4699 C   0  0  0  0  0  0  0  0  0  0  0  0
    9.4343  -19.2269   22.4312 O   0  0  0  0  0  0  0  0  0  0  0  0
    9.4703  -15.2747   24.3219 C   0  0  0  0  0  0  0  0  0  0  0  0
   10.4307  -14.4996   24.2632 O   0  0  0  0  0  0  0  0  0  0  0  0
   11.4053  -18.6154   21.5354 O   0  0  0  0  0  0  0  0  0  0  0  0
    6.2455  -13.8860   26.8988 C   0  0  0  0  0  0  0  0  0  0  0  0
    7.5382  -13.1940   26.6283 C   0  0  2  0  0  0  0  0  0  0  0  0
    7.4043  -12.3583   25.3871 C   0  0  0  0  0  0  0  0  0  0  0  0
    8.7085  -14.1259   26.4405 C   0  0  2  0  0  0  0  0  0  0  0  0
    8.5246  -15.0638   25.3747 N   0  0  0  0  0  0  0  0  0  0  0  0
    9.1437  -14.7452   27.7086 C   0  0  0  0  0  0  0  0  0  0  0  0
    9.5153  -13.9898   28.6391 O   0  0  0  0  0  0  0  0  0  0  0  0
    9.1792  -16.1060   27.9669 O   0  0  0  0  0  0  0  0  0  0  0  0
  2  1  1  1
  2  3  1  0
  4  6  1  0
  4  2  1  0
  4  5  1  1
  6  7  2  0
  6  8  1  0
  8  9  1  0
  9 13  1  0
  9 10  1  6
 11 10  1  0
 12 11  2  0
 13 14  2  0
 13 20  1  0
 15 11  1  0
 17 16  1  6
 17 18  1  0
 19 21  1  0
 19 17  1  0
 19 20  1  6
 21 23  1  0
 22 21  2  0
M  END
$$$$
