VDV.pdb
     RDKit          3D

 23 22  0  0  1  0  0  0  0  0999 V2000
    7.7625  -12.7412   18.2506 C   0  0  0  0  0  0  0  0  0  0  0  0
    7.5101  -13.4304   19.5900 C   0  0  2  0  0  0  0  0  0  0  0  0
    8.0922  -12.5942   20.7071 C   0  0  0  0  0  0  0  0  0  0  0  0
    8.0997  -14.8266   19.5712 C   0  0  2  0  0  0  0  0  0  0  0  0
    7.3940  -15.6196   18.5899 N   0  0  0  0  0  0  0  0  0  0  0  0
    8.1033  -15.4605   20.9052 C   0  0  0  0  0  0  0  0  0  0  0  0
    7.0902  -15.9563   21.4405 O   0  0  0  0  0  0  0  0  0  0  0  0
    9.3240  -15.5296   21.6611 N   0  0  0  0  0  0  0  0  0  0  0  0
    9.3453  -16.1139   22.9953 C   0  0  1  0  0  0  0  0  0  0  0  0
   10.4859  -17.0918   23.1764 C   0  0  0  0  0  0  0  0  0  0  0  0
   10.5870  -17.6070   24.5622 C   0  0  0  0  0  0  0  0  0  0  0  0
    9.5393  -17.9382   25.1696 O   0  0  0  0  0  0  0  0  0  0  0  0
    9.4291  -15.0297   23.9916 C   0  0  0  0  0  0  0  0  0  0  0  0
   10.3448  -14.2023   23.9337 O   0  0  0  0  0  0  0  0  0  0  0  0
   11.7799  -17.7464   25.2335 O   0  0  0  0  0  0  0  0  0  0  0  0
    7.5679  -11.7347   26.9540 C   0  0  0  0  0  0  0  0  0  0  0  0
    7.4158  -12.8877   26.0210 C   0  0  2  0  0  0  0  0  0  0  0  0
    6.1531  -13.6314   26.3518 C   0  0  0  0  0  0  0  0  0  0  0  0
    8.5604  -13.8684   26.0617 C   0  0  2  0  0  0  0  0  0  0  0  0
    8.4801  -14.8799   25.0520 N   0  0  0  0  0  0  0  0  0  0  0  0
    8.7972  -14.4008   27.4187 C   0  0  0  0  0  0  0  0  0  0  0  0
    9.0183  -13.5834   28.3449 O   0  0  0  0  0  0  0  0  0  0  0  0
    8.7971  -15.7421   27.7663 O   0  0  0  0  0  0  0  0  0  0  0  0
  2  1  1  6
  2  3  1  0
  4  6  1  0
  4  2  1  0
  4  5  1  6
  6  7  2  0
  6  8  1  0
  8  9  1  0
  9 13  1  0
  9 10  1  6
 11 10  1  0
 12 11  2  0
 13 14  2  0
 13 20  1  0
 15 11  1  0
 17 16  1  1
 17 18  1  0
 19 21  1  0
 19 17  1  0
 19 20  1  6
 21 23  1  0
 22 21  2  0
M  END
$$$$
