VDV.pdb
     RDKit          3D

 23 22  0  0  1  0  0  0  0  0999 V2000
    5.6839  -13.1488   25.7612 C   0  0  0  0  0  0  0  0  0  0  0  0
    6.9860  -13.9461   25.8011 C   0  0  2  0  0  0  0  0  0  0  0  0
    8.1493  -13.0312   25.4924 C   0  0  0  0  0  0  0  0  0  0  0  0
    6.9118  -15.1047   24.8267 C   0  0  2  0  0  0  0  0  0  0  0  0
    5.7246  -15.8793   25.1099 N   0  0  0  0  0  0  0  0  0  0  0  0
    8.1349  -15.9327   24.8334 C   0  0  0  0  0  0  0  0  0  0  0  0
    8.2422  -17.0067   25.4608 O   0  0  0  0  0  0  0  0  0  0  0  0
    9.2885  -15.5106   24.0869 N   0  0  0  0  0  0  0  0  0  0  0  0
   10.5051  -16.3118   24.0740 C   0  0  1  0  0  0  0  0  0  0  0  0
   11.4283  -15.9365   22.9352 C   0  0  0  0  0  0  0  0  0  0  0  0
   11.0218  -16.5381   21.6433 C   0  0  0  0  0  0  0  0  0  0  0  0
   10.2830  -17.5532   21.6469 O   0  0  0  0  0  0  0  0  0  0  0  0
   11.1923  -16.1598   25.3700 C   0  0  0  0  0  0  0  0  0  0  0  0
   12.4242  -16.2311   25.4319 O   0  0  0  0  0  0  0  0  0  0  0  0
   11.4122  -16.0425   20.4206 O   0  0  0  0  0  0  0  0  0  0  0  0
    9.2516  -14.6725   29.0845 C   0  0  0  0  0  0  0  0  0  0  0  0
   10.6883  -14.6529   28.6864 C   0  0  2  0  0  0  0  0  0  0  0  0
   10.9622  -13.4187   27.8746 C   0  0  0  0  0  0  0  0  0  0  0  0
   11.1200  -15.8498   27.8775 C   0  0  2  0  0  0  0  0  0  0  0  0
   10.4895  -15.9279   26.5946 N   0  0  0  0  0  0  0  0  0  0  0  0
   11.0512  -17.1060   28.6509 C   0  0  0  0  0  0  0  0  0  0  0  0
   10.3235  -18.0305   28.2145 O   0  0  0  0  0  0  0  0  0  0  0  0
   11.7283  -17.3592   29.8330 O   0  0  0  0  0  0  0  0  0  0  0  0
  2  1  1  6
  2  3  1  0
  4  6  1  0
  4  2  1  0
  4  5  1  1
  6  7  2  0
  6  8  1  0
  8  9  1  0
  9 13  1  0
  9 10  1  6
 11 10  1  0
 12 11  2  0
 13 14  2  0
 13 20  1  0
 15 11  1  0
 17 16  1  6
 17 18  1  0
 19 21  1  0
 19 17  1  0
 19 20  1  6
 21 23  1  0
 22 21  2  0
M  END
$$$$
