VDV.pdb
     RDKit          3D

 23 22  0  0  1  0  0  0  0  0999 V2000
    7.1809  -12.7517   20.8462 C   0  0  0  0  0  0  0  0  0  0  0  0
    8.3366  -13.3474   20.0447 C   0  0  2  0  0  0  0  0  0  0  0  0
    8.3808  -12.7134   18.6729 C   0  0  0  0  0  0  0  0  0  0  0  0
    8.1841  -14.8530   19.9602 C   0  0  2  0  0  0  0  0  0  0  0  0
    7.1055  -15.1639   19.0494 N   0  0  0  0  0  0  0  0  0  0  0  0
    7.9971  -15.4808   21.2841 C   0  0  0  0  0  0  0  0  0  0  0  0
    6.8963  -15.8885   21.7093 O   0  0  0  0  0  0  0  0  0  0  0  0
    9.1232  -15.6494   22.1613 N   0  0  0  0  0  0  0  0  0  0  0  0
    8.9753  -16.3149   23.4486 C   0  0  1  0  0  0  0  0  0  0  0  0
    9.8485  -17.5455   23.5632 C   0  0  0  0  0  0  0  0  0  0  0  0
    9.8081  -18.1556   24.9131 C   0  0  0  0  0  0  0  0  0  0  0  0
    8.7026  -18.2816   25.4946 O   0  0  0  0  0  0  0  0  0  0  0  0
    9.2893  -15.3547   24.5231 C   0  0  0  0  0  0  0  0  0  0  0  0
   10.4074  -14.8323   24.5821 O   0  0  0  0  0  0  0  0  0  0  0  0
   10.9282  -18.5992   25.5779 O   0  0  0  0  0  0  0  0  0  0  0  0
    6.2028  -13.5873   27.0325 C   0  0  0  0  0  0  0  0  0  0  0  0
    7.5749  -13.0420   26.8251 C   0  0  2  0  0  0  0  0  0  0  0  0
    7.5740  -12.1373   25.6257 C   0  0  0  0  0  0  0  0  0  0  0  0
    8.6317  -14.0966   26.6144 C   0  0  2  0  0  0  0  0  0  0  0  0
    8.3420  -14.9848   25.5297 N   0  0  0  0  0  0  0  0  0  0  0  0
    8.9945  -14.7880   27.8679 C   0  0  0  0  0  0  0  0  0  0  0  0
    8.8144  -16.0281   27.9333 O   0  0  0  0  0  0  0  0  0  0  0  0
    9.5237  -14.1810   28.9955 O   0  0  0  0  0  0  0  0  0  0  0  0
  2  1  1  1
  2  3  1  0
  4  6  1  0
  4  2  1  0
  4  5  1  6
  6  7  2  0
  6  8  1  0
  8  9  1  0
  9 13  1  0
  9 10  1  6
 11 10  1  0
 12 11  2  0
 13 14  2  0
 13 20  1  0
 15 11  1  0
 17 16  1  6
 17 18  1  0
 19 21  1  0
 19 17  1  0
 19 20  1  6
 21 23  1  0
 22 21  2  0
M  END
$$$$
