YNR.pdb
     RDKit          3D

 32 32  0  0  1  0  0  0  0  0999 V2000
   28.9025  -19.8280   -3.7898 O   0  0  0  0  0  0  0  0  0  0  0  0
   28.6245  -19.7866   -5.1502 C   0  0  0  0  0  0  0  0  0  0  0  0
   27.3702  -20.0594   -5.6621 C   0  0  0  0  0  0  0  0  0  0  0  0
   27.1050  -20.0158   -7.0128 C   0  0  0  0  0  0  0  0  0  0  0  0
   28.1327  -19.6870   -7.8830 C   0  0  0  0  0  0  0  0  0  0  0  0
   27.8180  -19.6487   -9.3305 C   0  0  0  0  0  0  0  0  0  0  0  0
   27.8925  -21.1000   -9.8199 C   0  0  2  0  0  0  0  0  0  0  0  0
   29.2768  -21.5228   -9.9103 N   0  0  0  0  0  0  0  0  0  0  0  0
   27.2116  -21.1937  -11.1262 C   0  0  0  0  0  0  0  0  0  0  0  0
   27.8847  -21.1061  -12.1771 O   0  0  0  0  0  0  0  0  0  0  0  0
   29.3819  -19.4143   -7.3860 C   0  0  0  0  0  0  0  0  0  0  0  0
   29.6503  -19.4590   -6.0130 C   0  0  0  0  0  0  0  0  0  0  0  0
   25.0620  -24.2675  -14.9542 N   0  0  0  0  0  0  0  0  0  0  0  0
   24.3943  -23.5035  -13.9709 C   0  0  0  0  0  0  0  0  0  0  0  0
   23.2417  -23.0656  -14.3013 O   0  0  0  0  0  0  0  0  0  0  0  0
   24.9114  -23.1887  -12.6458 C   0  0  0  0  0  0  0  0  0  0  0  0
   25.1108  -21.7108  -12.4320 C   0  0  2  0  0  0  0  0  0  0  0  0
   25.8026  -21.3852  -11.2306 N   0  0  0  0  0  0  0  0  0  0  0  0
   23.8739  -20.9342  -12.5388 C   0  0  0  0  0  0  0  0  0  0  0  0
   23.0116  -21.0642  -11.6233 O   0  0  0  0  0  0  0  0  0  0  0  0
   20.5875  -13.7899  -15.5624 N   0  0  0  0  0  0  0  0  0  0  0  0
   19.4874  -14.7006  -15.7238 C   0  0  0  0  0  0  0  0  0  0  0  0
   18.3022  -14.2092  -15.8181 N   0  0  0  0  0  0  0  0  0  0  0  0
   19.7414  -16.0944  -15.7735 N   0  0  0  0  0  0  0  0  0  0  0  0
   21.0712  -16.6249  -15.4661 C   0  0  0  0  0  0  0  0  0  0  0  0
   20.9825  -18.1161  -15.5320 C   0  0  0  0  0  0  0  0  0  0  0  0
   22.2389  -18.8378  -15.1984 C   0  0  0  0  0  0  0  0  0  0  0  0
   22.3335  -19.4106  -13.8433 C   0  0  2  0  0  0  0  0  0  0  0  0
   23.6057  -20.0472  -13.6216 N   0  0  0  0  0  0  0  0  0  0  0  0
   21.1702  -20.2189  -13.4013 C   0  0  0  0  0  0  0  0  0  0  0  0
   20.4948  -19.9841  -12.3935 O   0  0  0  0  0  0  0  0  0  0  0  0
   20.8060  -21.3171  -14.1581 O   0  0  0  0  0  0  0  0  0  0  0  0
  2  3  2  0
  2  1  1  0
  4  3  1  0
  5  4  2  0
  6  7  1  0
  6  5  1  0
  7  8  1  6
  9  7  1  0
  9 10  2  0
 11 12  2  0
 11  5  1  0
 12  2  1  0
 13 14  1  0
 14 15  2  0
 17 16  1  1
 16 14  1  0
 17 18  1  0
 18  9  1  0
 19 17  1  0
 20 19  2  0
 22 23  2  0
 22 21  1  0
 24 22  1  0
 25 24  1  0
 26 25  1  0
 26 27  1  0
 28 27  1  6
 28 29  1  0
 29 19  1  0
 30 28  1  0
 31 30  2  0
 32 30  1  0
M  END
$$$$
