YNR.pdb
     RDKit          3D

 32 32  0  0  1  0  0  0  0  0999 V2000
   22.7041  -10.6030  -18.7468 O   0  0  0  0  0  0  0  0  0  0  0  0
   22.5248  -11.9176  -18.3353 C   0  0  0  0  0  0  0  0  0  0  0  0
   23.2354  -12.4733  -17.2884 C   0  0  0  0  0  0  0  0  0  0  0  0
   23.0503  -13.7781  -16.8884 C   0  0  0  0  0  0  0  0  0  0  0  0
   22.1197  -14.5550  -17.5606 C   0  0  0  0  0  0  0  0  0  0  0  0
   21.9424  -15.9550  -17.1086 C   0  0  0  0  0  0  0  0  0  0  0  0
   23.1761  -16.7202  -17.6025 C   0  0  2  0  0  0  0  0  0  0  0  0
   23.2254  -16.6999  -19.0518 N   0  0  0  0  0  0  0  0  0  0  0  0
   23.1157  -18.1002  -17.0824 C   0  0  0  0  0  0  0  0  0  0  0  0
   22.4722  -18.9670  -17.7146 O   0  0  0  0  0  0  0  0  0  0  0  0
   21.4084  -14.0138  -18.6014 C   0  0  0  0  0  0  0  0  0  0  0  0
   21.5976  -12.6876  -19.0072 C   0  0  0  0  0  0  0  0  0  0  0  0
   26.1199  -20.1456  -16.8202 N   0  0  0  0  0  0  0  0  0  0  0  0
   26.1249  -20.2959  -15.4153 C   0  0  0  0  0  0  0  0  0  0  0  0
   27.2591  -20.5607  -14.8930 O   0  0  0  0  0  0  0  0  0  0  0  0
   24.9627  -20.1739  -14.5453 C   0  0  0  0  0  0  0  0  0  0  0  0
   23.7143  -19.7778  -15.2897 C   0  0  2  0  0  0  0  0  0  0  0  0
   23.7739  -18.4815  -15.8764 N   0  0  0  0  0  0  0  0  0  0  0  0
   22.4914  -19.9273  -14.4983 C   0  0  0  0  0  0  0  0  0  0  0  0
   21.8695  -18.8784  -14.1643 O   0  0  0  0  0  0  0  0  0  0  0  0
   15.3224  -18.3338  -15.5064 N   0  0  0  0  0  0  0  0  0  0  0  0
   15.0336  -19.0758  -14.3099 C   0  0  0  0  0  0  0  0  0  0  0  0
   13.8007  -19.2967  -14.0162 N   0  0  0  0  0  0  0  0  0  0  0  0
   16.1043  -19.5348  -13.5022 N   0  0  0  0  0  0  0  0  0  0  0  0
   17.4891  -19.1844  -13.8240 C   0  0  0  0  0  0  0  0  0  0  0  0
   18.3271  -20.3958  -13.5661 C   0  0  0  0  0  0  0  0  0  0  0  0
   19.7621  -20.2590  -13.9304 C   0  0  0  0  0  0  0  0  0  0  0  0
   20.6363  -21.4043  -13.6187 C   0  0  2  0  0  0  0  0  0  0  0  0
   21.9792  -21.1942  -14.0934 N   0  0  0  0  0  0  0  0  0  0  0  0
   20.0857  -22.7438  -13.9421 C   0  0  0  0  0  0  0  0  0  0  0  0
   19.1705  -23.2949  -13.3210 O   0  0  0  0  0  0  0  0  0  0  0  0
   20.6263  -23.4379  -15.0085 O   0  0  0  0  0  0  0  0  0  0  0  0
  2  3  2  0
  2  1  1  0
  4  3  1  0
  5  4  2  0
  6  7  1  0
  6  5  1  0
  7  8  1  6
  9  7  1  0
  9 10  2  0
 11 12  2  0
 11  5  1  0
 12  2  1  0
 13 14  1  0
 14 15  2  0
 17 16  1  1
 16 14  1  0
 17 18  1  0
 18  9  1  0
 19 17  1  0
 20 19  2  0
 22 23  2  0
 22 21  1  0
 24 22  1  0
 25 24  1  0
 26 25  1  0
 26 27  1  0
 28 27  1  6
 28 29  1  0
 29 19  1  0
 30 28  1  0
 31 30  2  0
 32 30  1  0
M  END
$$$$
