YNR.pdb
     RDKit          3D

 32 32  0  0  1  0  0  0  0  0999 V2000
   34.0349  -17.0273  -19.6406 O   0  0  0  0  0  0  0  0  0  0  0  0
   32.7033  -16.8382  -19.2934 C   0  0  0  0  0  0  0  0  0  0  0  0
   31.7156  -16.6041  -20.2311 C   0  0  0  0  0  0  0  0  0  0  0  0
   30.3981  -16.4176  -19.8763 C   0  0  0  0  0  0  0  0  0  0  0  0
   30.0564  -16.4674  -18.5338 C   0  0  0  0  0  0  0  0  0  0  0  0
   28.6317  -16.2626  -18.1820 C   0  0  0  0  0  0  0  0  0  0  0  0
   28.1560  -17.5780  -17.5537 C   0  0  2  0  0  0  0  0  0  0  0  0
   28.5287  -18.6954  -18.3998 N   0  0  0  0  0  0  0  0  0  0  0  0
   26.6941  -17.5086  -17.3618 C   0  0  0  0  0  0  0  0  0  0  0  0
   26.2032  -16.5494  -16.7262 O   0  0  0  0  0  0  0  0  0  0  0  0
   31.0287  -16.6991  -17.5940 C   0  0  0  0  0  0  0  0  0  0  0  0
   32.3675  -16.8884  -17.9558 C   0  0  0  0  0  0  0  0  0  0  0  0
   21.1171  -18.0651  -19.2263 N   0  0  0  0  0  0  0  0  0  0  0  0
   22.1542  -18.7955  -18.6039 C   0  0  0  0  0  0  0  0  0  0  0  0
   21.7816  -19.6404  -17.7226 O   0  0  0  0  0  0  0  0  0  0  0  0
   23.5766  -18.6578  -18.8873 C   0  0  0  0  0  0  0  0  0  0  0  0
   24.4148  -18.5641  -17.6391 C   0  0  2  0  0  0  0  0  0  0  0  0
   25.8165  -18.5041  -17.8832 N   0  0  0  0  0  0  0  0  0  0  0  0
   24.1096  -19.6023  -16.6525 C   0  0  0  0  0  0  0  0  0  0  0  0
   24.8164  -20.6506  -16.6573 O   0  0  0  0  0  0  0  0  0  0  0  0
   21.2287  -19.6153  -10.0985 N   0  0  0  0  0  0  0  0  0  0  0  0
   21.8967  -20.6719   -9.3895 C   0  0  0  0  0  0  0  0  0  0  0  0
   21.3019  -21.1913   -8.3738 N   0  0  0  0  0  0  0  0  0  0  0  0
   23.1743  -21.1025   -9.8277 N   0  0  0  0  0  0  0  0  0  0  0  0
   23.8363  -20.4520  -10.9603 C   0  0  0  0  0  0  0  0  0  0  0  0
   23.0118  -20.7277  -12.1770 C   0  0  0  0  0  0  0  0  0  0  0  0
   23.5642  -20.1894  -13.4482 C   0  0  0  0  0  0  0  0  0  0  0  0
   22.7867  -20.4540  -14.6724 C   0  0  2  0  0  0  0  0  0  0  0  0
   23.0589  -19.4801  -15.6973 N   0  0  0  0  0  0  0  0  0  0  0  0
   21.3425  -20.7309  -14.4729 C   0  0  0  0  0  0  0  0  0  0  0  0
   20.4313  -19.9482  -14.7628 O   0  0  0  0  0  0  0  0  0  0  0  0
   20.9749  -21.9445  -13.9221 O   0  0  0  0  0  0  0  0  0  0  0  0
  2  3  2  0
  2  1  1  0
  4  3  1  0
  5  4  2  0
  6  7  1  0
  6  5  1  0
  7  8  1  6
  9  7  1  0
  9 10  2  0
 11 12  2  0
 11  5  1  0
 12  2  1  0
 13 14  1  0
 14 15  2  0
 17 16  1  6
 16 14  1  0
 17 18  1  0
 18  9  1  0
 19 17  1  0
 20 19  2  0
 22 23  2  0
 22 21  1  0
 24 22  1  0
 25 24  1  0
 26 25  1  0
 26 27  1  0
 28 27  1  1
 28 29  1  0
 29 19  1  0
 30 28  1  0
 31 30  2  0
 32 30  1  0
M  END
$$$$
