YNR.pdb
     RDKit          3D

 32 32  0  0  1  0  0  0  0  0999 V2000
   29.1303  -16.4315  -18.5994 O   0  0  0  0  0  0  0  0  0  0  0  0
   28.1624  -16.6854  -17.6358 C   0  0  0  0  0  0  0  0  0  0  0  0
   28.3225  -17.6457  -16.6550 C   0  0  0  0  0  0  0  0  0  0  0  0
   27.3565  -17.8898  -15.7043 C   0  0  0  0  0  0  0  0  0  0  0  0
   26.1875  -17.1455  -15.7363 C   0  0  0  0  0  0  0  0  0  0  0  0
   25.1660  -17.4307  -14.7014 C   0  0  0  0  0  0  0  0  0  0  0  0
   24.8151  -18.9161  -14.8490 C   0  0  2  0  0  0  0  0  0  0  0  0
   24.4375  -19.2031  -16.2196 N   0  0  0  0  0  0  0  0  0  0  0  0
   23.7247  -19.2398  -13.9083 C   0  0  0  0  0  0  0  0  0  0  0  0
   23.6875  -18.6737  -12.7932 O   0  0  0  0  0  0  0  0  0  0  0  0
   26.0177  -16.1896  -16.7055 C   0  0  0  0  0  0  0  0  0  0  0  0
   27.0002  -15.9424  -17.6713 C   0  0  0  0  0  0  0  0  0  0  0  0
   21.1261  -20.3801  -10.5821 N   0  0  0  0  0  0  0  0  0  0  0  0
   20.7676  -19.2864  -11.4017 C   0  0  0  0  0  0  0  0  0  0  0  0
   20.2886  -18.2731  -10.7908 O   0  0  0  0  0  0  0  0  0  0  0  0
   20.9015  -19.2334  -12.8515 C   0  0  0  0  0  0  0  0  0  0  0  0
   21.5653  -20.4593  -13.4223 C   0  0  2  0  0  0  0  0  0  0  0  0
   22.7034  -20.1806  -14.2318 N   0  0  0  0  0  0  0  0  0  0  0  0
   20.6398  -21.3490  -14.1268 C   0  0  0  0  0  0  0  0  0  0  0  0
   20.3619  -21.0820  -15.3310 O   0  0  0  0  0  0  0  0  0  0  0  0
   19.4863  -29.0077  -10.9590 N   0  0  0  0  0  0  0  0  0  0  0  0
   20.4743  -28.1423  -11.5424 C   0  0  0  0  0  0  0  0  0  0  0  0
   21.6713  -28.5936  -11.6786 N   0  0  0  0  0  0  0  0  0  0  0  0
   20.1017  -26.8349  -11.9443 N   0  0  0  0  0  0  0  0  0  0  0  0
   18.7203  -26.3714  -11.7983 C   0  0  0  0  0  0  0  0  0  0  0  0
   18.6725  -24.9549  -12.2751 C   0  0  0  0  0  0  0  0  0  0  0  0
   19.1772  -24.7372  -13.6565 C   0  0  0  0  0  0  0  0  0  0  0  0
   19.1070  -23.3600  -14.1776 C   0  0  2  0  0  0  0  0  0  0  0  0
   20.0457  -22.4915  -13.5161 N   0  0  0  0  0  0  0  0  0  0  0  0
   17.7442  -22.7872  -14.3068 C   0  0  0  0  0  0  0  0  0  0  0  0
   17.3281  -21.8151  -13.6674 O   0  0  0  0  0  0  0  0  0  0  0  0
   16.8656  -23.3732  -15.1989 O   0  0  0  0  0  0  0  0  0  0  0  0
  2  3  2  0
  2  1  1  0
  4  3  1  0
  5  4  2  0
  6  7  1  0
  6  5  1  0
  7  8  1  6
  9  7  1  0
  9 10  2  0
 11 12  2  0
 11  5  1  0
 12  2  1  0
 13 14  1  0
 14 15  2  0
 17 16  1  6
 16 14  1  0
 17 18  1  0
 18  9  1  0
 19 17  1  0
 20 19  2  0
 22 23  2  0
 22 21  1  0
 24 22  1  0
 25 24  1  0
 26 25  1  0
 26 27  1  0
 28 27  1  1
 28 29  1  0
 29 19  1  0
 30 28  1  0
 31 30  2  0
 32 30  1  0
M  END
$$$$
