YNR.pdb
     RDKit          3D

 32 32  0  0  1  0  0  0  0  0999 V2000
   25.1369   -4.7964  -17.5194 O   0  0  0  0  0  0  0  0  0  0  0  0
   23.8264   -5.0502  -17.1348 C   0  0  0  0  0  0  0  0  0  0  0  0
   22.7971   -5.1899  -18.0463 C   0  0  0  0  0  0  0  0  0  0  0  0
   21.5009   -5.4411  -17.6545 C   0  0  0  0  0  0  0  0  0  0  0  0
   21.2248   -5.5571  -16.3011 C   0  0  0  0  0  0  0  0  0  0  0  0
   19.8214   -5.8269  -15.9094 C   0  0  0  0  0  0  0  0  0  0  0  0
   19.7289   -7.3397  -15.6766 C   0  0  2  0  0  0  0  0  0  0  0  0
   20.2086   -8.0520  -16.8453 N   0  0  0  0  0  0  0  0  0  0  0  0
   18.3272   -7.6857  -15.3696 C   0  0  0  0  0  0  0  0  0  0  0  0
   17.6110   -8.1941  -16.2605 O   0  0  0  0  0  0  0  0  0  0  0  0
   22.2388   -5.4203  -15.3872 C   0  0  0  0  0  0  0  0  0  0  0  0
   23.5558   -5.1647  -15.7866 C   0  0  0  0  0  0  0  0  0  0  0  0
   16.7141  -10.9314  -14.6289 N   0  0  0  0  0  0  0  0  0  0  0  0
   17.8298  -10.8146  -13.7699 C   0  0  0  0  0  0  0  0  0  0  0  0
   18.5669  -11.8527  -13.6791 O   0  0  0  0  0  0  0  0  0  0  0  0
   18.1891   -9.6292  -13.0029 C   0  0  0  0  0  0  0  0  0  0  0  0
   17.2436   -8.4783  -13.2286 C   0  0  2  0  0  0  0  0  0  0  0  0
   17.7593   -7.4609  -14.0812 N   0  0  0  0  0  0  0  0  0  0  0  0
   16.7277   -7.8957  -11.9882 C   0  0  0  0  0  0  0  0  0  0  0  0
   16.1330   -8.6611  -11.1763 O   0  0  0  0  0  0  0  0  0  0  0  0
   11.1245   -7.9471   -7.8677 N   0  0  0  0  0  0  0  0  0  0  0  0
   11.9610   -8.6092   -8.8307 C   0  0  0  0  0  0  0  0  0  0  0  0
   11.7390   -9.8530   -9.0734 N   0  0  0  0  0  0  0  0  0  0  0  0
   12.9912   -7.8784   -9.4744 N   0  0  0  0  0  0  0  0  0  0  0  0
   13.1279   -6.4354   -9.2671 C   0  0  0  0  0  0  0  0  0  0  0  0
   14.3043   -5.9791  -10.0696 C   0  0  0  0  0  0  0  0  0  0  0  0
   15.6222   -6.4794   -9.5971 C   0  0  0  0  0  0  0  0  0  0  0  0
   16.8120   -5.9960  -10.3208 C   0  0  2  0  0  0  0  0  0  0  0  0
   16.8671   -6.5152  -11.6625 N   0  0  0  0  0  0  0  0  0  0  0  0
   18.0975   -6.0898   -9.5853 C   0  0  0  0  0  0  0  0  0  0  0  0
   19.1401   -6.5614  -10.0518 O   0  0  0  0  0  0  0  0  0  0  0  0
   18.1473   -5.6238   -8.2846 O   0  0  0  0  0  0  0  0  0  0  0  0
  2  3  2  0
  2  1  1  0
  4  3  1  0
  5  4  2  0
  6  7  1  0
  6  5  1  0
  7  8  1  6
  9  7  1  0
  9 10  2  0
 11 12  2  0
 11  5  1  0
 12  2  1  0
 13 14  1  0
 14 15  2  0
 17 16  1  1
 16 14  1  0
 17 18  1  0
 18  9  1  0
 19 17  1  0
 20 19  2  0
 22 23  2  0
 22 21  1  0
 24 22  1  0
 25 24  1  0
 26 25  1  0
 26 27  1  0
 28 27  1  1
 28 29  1  0
 29 19  1  0
 30 28  1  0
 31 30  2  0
 32 30  1  0
M  END
$$$$
