YNR.pdb
     RDKit          3D

 32 32  0  0  1  0  0  0  0  0999 V2000
   17.0760  -15.1758  -12.6229 O   0  0  0  0  0  0  0  0  0  0  0  0
   16.8393  -13.8490  -12.2864 C   0  0  0  0  0  0  0  0  0  0  0  0
   17.4465  -13.2351  -11.2074 C   0  0  0  0  0  0  0  0  0  0  0  0
   17.2046  -11.9189  -10.8822 C   0  0  0  0  0  0  0  0  0  0  0  0
   16.3230  -11.1904  -11.6654 C   0  0  0  0  0  0  0  0  0  0  0  0
   16.0819   -9.7771  -11.2911 C   0  0  0  0  0  0  0  0  0  0  0  0
   14.9175   -9.7947  -10.2935 C   0  0  2  0  0  0  0  0  0  0  0  0
   13.7734  -10.4676  -10.8780 N   0  0  0  0  0  0  0  0  0  0  0  0
   14.5944   -8.4038   -9.9198 C   0  0  0  0  0  0  0  0  0  0  0  0
   13.8875   -7.7109  -10.6848 O   0  0  0  0  0  0  0  0  0  0  0  0
   15.7144  -11.7896  -12.7390 C   0  0  0  0  0  0  0  0  0  0  0  0
   15.9608  -13.1275  -13.0686 C   0  0  0  0  0  0  0  0  0  0  0  0
   14.4195   -3.7657   -7.4470 N   0  0  0  0  0  0  0  0  0  0  0  0
   14.6327   -4.8112   -6.5208 C   0  0  0  0  0  0  0  0  0  0  0  0
   14.5950   -4.4740   -5.2902 O   0  0  0  0  0  0  0  0  0  0  0  0
   14.8849   -6.2056   -6.8592 C   0  0  0  0  0  0  0  0  0  0  0  0
   14.9059   -6.4519   -8.3452 C   0  0  2  0  0  0  0  0  0  0  0  0
   15.0621   -7.8207   -8.7056 N   0  0  0  0  0  0  0  0  0  0  0  0
   15.8746   -5.6189   -9.0607 C   0  0  0  0  0  0  0  0  0  0  0  0
   17.0093   -6.1152   -9.3152 O   0  0  0  0  0  0  0  0  0  0  0  0
   17.2737   -5.9231  -16.7929 N   0  0  0  0  0  0  0  0  0  0  0  0
   17.6443   -4.5499  -16.5870 C   0  0  0  0  0  0  0  0  0  0  0  0
   18.1082   -3.8901  -17.5894 N   0  0  0  0  0  0  0  0  0  0  0  0
   17.4880   -3.9739  -15.3012 N   0  0  0  0  0  0  0  0  0  0  0  0
   16.9427   -4.7572  -14.1907 C   0  0  0  0  0  0  0  0  0  0  0  0
   16.9131   -3.8672  -12.9894 C   0  0  0  0  0  0  0  0  0  0  0  0
   16.3214   -4.4753  -11.7685 C   0  0  0  0  0  0  0  0  0  0  0  0
   16.2641   -3.6243  -10.5662 C   0  0  2  0  0  0  0  0  0  0  0  0
   15.5932   -4.2852   -9.4771 N   0  0  0  0  0  0  0  0  0  0  0  0
   15.8217   -2.2250  -10.7859 C   0  0  0  0  0  0  0  0  0  0  0  0
   14.7673   -1.7464  -10.3544 O   0  0  0  0  0  0  0  0  0  0  0  0
   16.6340   -1.3863  -11.5262 O   0  0  0  0  0  0  0  0  0  0  0  0
  2  3  2  0
  2  1  1  0
  4  3  1  0
  5  4  2  0
  6  7  1  0
  6  5  1  0
  7  8  1  6
  9  7  1  0
  9 10  2  0
 11 12  2  0
 11  5  1  0
 12  2  1  0
 13 14  1  0
 14 15  2  0
 17 16  1  1
 16 14  1  0
 17 18  1  0
 18  9  1  0
 19 17  1  0
 20 19  2  0
 22 23  2  0
 22 21  1  0
 24 22  1  0
 25 24  1  0
 26 25  1  0
 26 27  1  0
 28 27  1  6
 28 29  1  0
 29 19  1  0
 30 28  1  0
 31 30  2  0
 32 30  1  0
M  END
$$$$
