YNR.pdb
     RDKit          3D

 32 32  0  0  1  0  0  0  0  0999 V2000
   22.4094  -17.0313  -24.3784 O   0  0  0  0  0  0  0  0  0  0  0  0
   22.7378  -16.1445  -23.3609 C   0  0  0  0  0  0  0  0  0  0  0  0
   22.1194  -16.1674  -22.1252 C   0  0  0  0  0  0  0  0  0  0  0  0
   22.4523  -15.2833  -21.1231 C   0  0  0  0  0  0  0  0  0  0  0  0
   23.4403  -14.3420  -21.3665 C   0  0  0  0  0  0  0  0  0  0  0  0
   23.7768  -13.4038  -20.2701 C   0  0  0  0  0  0  0  0  0  0  0  0
   24.8413  -14.1080  -19.4202 C   0  0  2  0  0  0  0  0  0  0  0  0
   24.2352  -15.1792  -18.6531 N   0  0  0  0  0  0  0  0  0  0  0  0
   25.4819  -13.1091  -18.5423 C   0  0  0  0  0  0  0  0  0  0  0  0
   24.9624  -12.8408  -17.4363 O   0  0  0  0  0  0  0  0  0  0  0  0
   24.0610  -14.3100  -22.5895 C   0  0  0  0  0  0  0  0  0  0  0  0
   23.7218  -15.2090  -23.6073 C   0  0  0  0  0  0  0  0  0  0  0  0
   28.8351   -9.5920  -16.5186 N   0  0  0  0  0  0  0  0  0  0  0  0
   29.4570  -10.3179  -17.5591 C   0  0  0  0  0  0  0  0  0  0  0  0
   30.6869  -10.0445  -17.7636 O   0  0  0  0  0  0  0  0  0  0  0  0
   28.8143  -11.3266  -18.3911 C   0  0  0  0  0  0  0  0  0  0  0  0
   27.3340  -11.4388  -18.1351 C   0  0  2  0  0  0  0  0  0  0  0  0
   26.6833  -12.4375  -18.9143 N   0  0  0  0  0  0  0  0  0  0  0  0
   26.6254  -10.1619  -18.2419 C   0  0  0  0  0  0  0  0  0  0  0  0
   26.4084   -9.6993  -19.3984 O   0  0  0  0  0  0  0  0  0  0  0  0
   19.7962   -7.6555  -13.5649 N   0  0  0  0  0  0  0  0  0  0  0  0
   19.6150   -8.1963  -14.8840 C   0  0  0  0  0  0  0  0  0  0  0  0
   18.4251   -8.5252  -15.2464 N   0  0  0  0  0  0  0  0  0  0  0  0
   20.7401   -8.3477  -15.7330 N   0  0  0  0  0  0  0  0  0  0  0  0
   22.0903   -8.0579  -15.2460 C   0  0  0  0  0  0  0  0  0  0  0  0
   23.0258   -8.2226  -16.4009 C   0  0  0  0  0  0  0  0  0  0  0  0
   24.4678   -8.0752  -16.0703 C   0  0  0  0  0  0  0  0  0  0  0  0
   25.4199   -8.2040  -17.1884 C   0  0  2  0  0  0  0  0  0  0  0  0
   26.1753   -9.4269  -17.1067 N   0  0  0  0  0  0  0  0  0  0  0  0
   26.2449   -7.0044  -17.4754 C   0  0  0  0  0  0  0  0  0  0  0  0
   27.4800   -6.9950  -17.5142 O   0  0  0  0  0  0  0  0  0  0  0  0
   25.6011   -5.8047  -17.7154 O   0  0  0  0  0  0  0  0  0  0  0  0
  2  3  2  0
  2  1  1  0
  4  3  1  0
  5  4  2  0
  6  7  1  0
  6  5  1  0
  7  8  1  1
  9  7  1  0
  9 10  2  0
 11 12  2  0
 11  5  1  0
 12  2  1  0
 13 14  1  0
 14 15  2  0
 17 16  1  6
 16 14  1  0
 17 18  1  0
 18  9  1  0
 19 17  1  0
 20 19  2  0
 22 23  2  0
 22 21  1  0
 24 22  1  0
 25 24  1  0
 26 25  1  0
 26 27  1  0
 28 27  1  1
 28 29  1  0
 29 19  1  0
 30 28  1  0
 31 30  2  0
 32 30  1  0
M  END
$$$$
