YNR.pdb
     RDKit          3D

 32 32  0  0  1  0  0  0  0  0999 V2000
   28.1831  -11.6929  -16.6240 O   0  0  0  0  0  0  0  0  0  0  0  0
   27.6179  -12.9577  -16.5223 C   0  0  0  0  0  0  0  0  0  0  0  0
   27.1166  -13.6390  -17.6151 C   0  0  0  0  0  0  0  0  0  0  0  0
   26.5579  -14.8928  -17.5033 C   0  0  0  0  0  0  0  0  0  0  0  0
   26.4989  -15.4865  -16.2521 C   0  0  0  0  0  0  0  0  0  0  0  0
   25.8919  -16.8353  -16.1624 C   0  0  0  0  0  0  0  0  0  0  0  0
   27.0568  -17.8131  -15.9665 C   0  0  2  0  0  0  0  0  0  0  0  0
   27.6279  -18.1686  -17.2514 N   0  0  0  0  0  0  0  0  0  0  0  0
   26.5596  -19.0025  -15.2476 C   0  0  0  0  0  0  0  0  0  0  0  0
   26.2805  -20.0376  -15.8925 O   0  0  0  0  0  0  0  0  0  0  0  0
   26.9935  -14.8195  -15.1602 C   0  0  0  0  0  0  0  0  0  0  0  0
   27.5610  -13.5451  -15.2749 C   0  0  0  0  0  0  0  0  0  0  0  0
   25.5948  -21.3260   -9.5333 N   0  0  0  0  0  0  0  0  0  0  0  0
   25.9845  -21.2936  -10.8911 C   0  0  0  0  0  0  0  0  0  0  0  0
   25.9695  -22.4175  -11.4961 O   0  0  0  0  0  0  0  0  0  0  0  0
   26.3903  -20.1046  -11.6287 C   0  0  0  0  0  0  0  0  0  0  0  0
   25.9549  -20.1344  -13.0706 C   0  0  2  0  0  0  0  0  0  0  0  0
   26.3885  -19.0119  -13.8321 N   0  0  0  0  0  0  0  0  0  0  0  0
   24.5159  -20.3453  -13.2409 C   0  0  0  0  0  0  0  0  0  0  0  0
   23.7303  -19.4607  -12.7947 O   0  0  0  0  0  0  0  0  0  0  0  0
   17.3446  -21.9001  -10.9262 N   0  0  0  0  0  0  0  0  0  0  0  0
   18.0665  -22.4666  -12.0322 C   0  0  0  0  0  0  0  0  0  0  0  0
   17.4372  -23.2624  -12.8234 N   0  0  0  0  0  0  0  0  0  0  0  0
   19.4324  -22.1336  -12.2133 N   0  0  0  0  0  0  0  0  0  0  0  0
   20.0844  -21.1483  -11.3483 C   0  0  0  0  0  0  0  0  0  0  0  0
   21.4993  -21.0138  -11.8129 C   0  0  0  0  0  0  0  0  0  0  0  0
   21.9959  -22.1345  -12.6543 C   0  0  0  0  0  0  0  0  0  0  0  0
   22.5613  -21.7762  -13.9677 C   0  0  2  0  0  0  0  0  0  0  0  0
   23.9708  -21.4954  -13.8823 N   0  0  0  0  0  0  0  0  0  0  0  0
   21.7939  -20.7754  -14.7497 C   0  0  0  0  0  0  0  0  0  0  0  0
   20.5665  -20.7871  -14.8920 O   0  0  0  0  0  0  0  0  0  0  0  0
   22.4872  -19.7535  -15.3714 O   0  0  0  0  0  0  0  0  0  0  0  0
  2  3  2  0
  2  1  1  0
  4  3  1  0
  5  4  2  0
  6  7  1  0
  6  5  1  0
  7  8  1  6
  9  7  1  0
  9 10  2  0
 11 12  2  0
 11  5  1  0
 12  2  1  0
 13 14  1  0
 14 15  2  0
 17 16  1  1
 16 14  1  0
 17 18  1  0
 18  9  1  0
 19 17  1  0
 20 19  2  0
 22 23  2  0
 22 21  1  0
 24 22  1  0
 25 24  1  0
 26 25  1  0
 26 27  1  0
 28 27  1  1
 28 29  1  0
 29 19  1  0
 30 28  1  0
 31 30  2  0
 32 30  1  0
M  END
$$$$
