YNR.pdb
     RDKit          3D

 32 32  0  0  1  0  0  0  0  0999 V2000
   25.0155  -15.6128  -21.6903 O   0  0  0  0  0  0  0  0  0  0  0  0
   24.5504  -16.5579  -20.7848 C   0  0  0  0  0  0  0  0  0  0  0  0
   23.6556  -16.2474  -19.7785 C   0  0  0  0  0  0  0  0  0  0  0  0
   23.2008  -17.1921  -18.8856 C   0  0  0  0  0  0  0  0  0  0  0  0
   23.6580  -18.4953  -19.0042 C   0  0  0  0  0  0  0  0  0  0  0  0
   23.1519  -19.4897  -18.0292 C   0  0  0  0  0  0  0  0  0  0  0  0
   23.9552  -19.2691  -16.7418 C   0  0  2  0  0  0  0  0  0  0  0  0
   25.2806  -19.8415  -16.8795 N   0  0  0  0  0  0  0  0  0  0  0  0
   23.2184  -19.8750  -15.6154 C   0  0  0  0  0  0  0  0  0  0  0  0
   23.6117  -20.9628  -15.1388 O   0  0  0  0  0  0  0  0  0  0  0  0
   24.5464  -18.8151  -19.9995 C   0  0  0  0  0  0  0  0  0  0  0  0
   25.0081  -17.8540  -20.9064 C   0  0  0  0  0  0  0  0  0  0  0  0
   20.1517  -20.5348  -11.4171 N   0  0  0  0  0  0  0  0  0  0  0  0
   20.5001  -19.1847  -11.6462 C   0  0  0  0  0  0  0  0  0  0  0  0
   20.1631  -18.3648  -10.7277 O   0  0  0  0  0  0  0  0  0  0  0  0
   21.1959  -18.6760  -12.8207 C   0  0  0  0  0  0  0  0  0  0  0  0
   21.3781  -19.7210  -13.8904 C   0  0  2  0  0  0  0  0  0  0  0  0
   22.0670  -19.2556  -15.0465 N   0  0  0  0  0  0  0  0  0  0  0  0
   20.1322  -20.3902  -14.2699 C   0  0  0  0  0  0  0  0  0  0  0  0
   19.3369  -19.7728  -15.0346 O   0  0  0  0  0  0  0  0  0  0  0  0
   19.8287  -28.4118  -13.9133 N   0  0  0  0  0  0  0  0  0  0  0  0
   20.1848  -27.4453  -12.9110 C   0  0  0  0  0  0  0  0  0  0  0  0
   21.2620  -27.6411  -12.2353 N   0  0  0  0  0  0  0  0  0  0  0  0
   19.3474  -26.3207  -12.7024 N   0  0  0  0  0  0  0  0  0  0  0  0
   18.1587  -26.1080  -13.5306 C   0  0  0  0  0  0  0  0  0  0  0  0
   18.3346  -24.8011  -14.2358 C   0  0  0  0  0  0  0  0  0  0  0  0
   18.3911  -23.6089  -13.3494 C   0  0  0  0  0  0  0  0  0  0  0  0
   18.4891  -22.2955  -14.0117 C   0  0  2  0  0  0  0  0  0  0  0  0
   19.7834  -21.6957  -13.8167 N   0  0  0  0  0  0  0  0  0  0  0  0
   17.3542  -21.3684  -13.7783 C   0  0  0  0  0  0  0  0  0  0  0  0
   17.1929  -20.7012  -12.7508 O   0  0  0  0  0  0  0  0  0  0  0  0
   16.4002  -21.2330  -14.7697 O   0  0  0  0  0  0  0  0  0  0  0  0
  2  3  2  0
  2  1  1  0
  4  3  1  0
  5  4  2  0
  6  7  1  0
  6  5  1  0
  7  8  1  6
  9  7  1  0
  9 10  2  0
 11 12  2  0
 11  5  1  0
 12  2  1  0
 13 14  1  0
 14 15  2  0
 17 16  1  1
 16 14  1  0
 17 18  1  0
 18  9  1  0
 19 17  1  0
 20 19  2  0
 22 23  2  0
 22 21  1  0
 24 22  1  0
 25 24  1  0
 26 25  1  0
 26 27  1  0
 28 27  1  1
 28 29  1  0
 29 19  1  0
 30 28  1  0
 31 30  2  0
 32 30  1  0
M  END
$$$$
