YNR.pdb
     RDKit          3D

 32 32  0  0  1  0  0  0  0  0999 V2000
   30.4580  -25.2151  -17.5693 O   0  0  0  0  0  0  0  0  0  0  0  0
   29.4387  -24.5313  -16.9188 C   0  0  0  0  0  0  0  0  0  0  0  0
   29.6001  -23.2523  -16.4210 C   0  0  0  0  0  0  0  0  0  0  0  0
   28.5830  -22.5832  -15.7773 C   0  0  0  0  0  0  0  0  0  0  0  0
   27.3596  -23.2172  -15.6263 C   0  0  0  0  0  0  0  0  0  0  0  0
   26.2844  -22.4731  -14.9292 C   0  0  0  0  0  0  0  0  0  0  0  0
   25.5364  -21.6906  -16.0153 C   0  0  2  0  0  0  0  0  0  0  0  0
   26.2665  -20.4827  -16.3486 N   0  0  0  0  0  0  0  0  0  0  0  0
   24.1779  -21.3842  -15.5261 C   0  0  0  0  0  0  0  0  0  0  0  0
   24.0327  -20.5726  -14.5852 O   0  0  0  0  0  0  0  0  0  0  0  0
   27.1880  -24.4869  -16.1165 C   0  0  0  0  0  0  0  0  0  0  0  0
   28.2225  -25.1662  -16.7705 C   0  0  0  0  0  0  0  0  0  0  0  0
   18.9372  -20.3821  -15.3826 N   0  0  0  0  0  0  0  0  0  0  0  0
   19.3369  -21.3391  -16.3422 C   0  0  0  0  0  0  0  0  0  0  0  0
   18.4004  -22.0584  -16.8270 O   0  0  0  0  0  0  0  0  0  0  0  0
   20.7010  -21.5575  -16.8048 C   0  0  0  0  0  0  0  0  0  0  0  0
   21.6800  -21.7373  -15.6740 C   0  0  2  0  0  0  0  0  0  0  0  0
   23.0173  -21.9846  -16.0965 N   0  0  0  0  0  0  0  0  0  0  0  0
   21.2586  -22.7381  -14.6916 C   0  0  0  0  0  0  0  0  0  0  0  0
   21.7198  -23.9099  -14.8041 O   0  0  0  0  0  0  0  0  0  0  0  0
   18.1531  -26.5264  -10.2582 N   0  0  0  0  0  0  0  0  0  0  0  0
   18.0449  -26.1081   -8.8875 C   0  0  0  0  0  0  0  0  0  0  0  0
   17.9557  -27.0170   -7.9813 N   0  0  0  0  0  0  0  0  0  0  0  0
   18.0404  -24.7237   -8.5825 N   0  0  0  0  0  0  0  0  0  0  0  0
   18.1447  -23.7221   -9.6454 C   0  0  0  0  0  0  0  0  0  0  0  0
   19.5280  -23.8097  -10.2066 C   0  0  0  0  0  0  0  0  0  0  0  0
   19.8225  -22.8573  -11.3096 C   0  0  0  0  0  0  0  0  0  0  0  0
   19.9042  -23.4229  -12.6685 C   0  0  2  0  0  0  0  0  0  0  0  0
   20.3589  -22.4476  -13.6251 N   0  0  0  0  0  0  0  0  0  0  0  0
   18.7223  -24.2004  -13.1164 C   0  0  0  0  0  0  0  0  0  0  0  0
   17.6835  -23.7028  -13.5642 O   0  0  0  0  0  0  0  0  0  0  0  0
   18.7701  -25.5794  -13.0300 O   0  0  0  0  0  0  0  0  0  0  0  0
  2  3  2  0
  2  1  1  0
  4  3  1  0
  5  4  2  0
  6  7  1  0
  6  5  1  0
  7  8  1  1
  9  7  1  0
  9 10  2  0
 11 12  2  0
 11  5  1  0
 12  2  1  0
 13 14  1  0
 14 15  2  0
 17 16  1  6
 16 14  1  0
 17 18  1  0
 18  9  1  0
 19 17  1  0
 20 19  2  0
 22 23  2  0
 22 21  1  0
 24 22  1  0
 25 24  1  0
 26 25  1  0
 26 27  1  0
 28 27  1  1
 28 29  1  0
 29 19  1  0
 30 28  1  0
 31 30  2  0
 32 30  1  0
M  END
$$$$
