YNR.pdb
     RDKit          3D

 32 32  0  0  1  0  0  0  0  0999 V2000
   31.6591  -21.4174   -9.9823 O   0  0  0  0  0  0  0  0  0  0  0  0
   30.3859  -21.0957  -10.4351 C   0  0  0  0  0  0  0  0  0  0  0  0
   30.1660  -20.4212  -11.6211 C   0  0  0  0  0  0  0  0  0  0  0  0
   28.8994  -20.1068  -12.0608 C   0  0  0  0  0  0  0  0  0  0  0  0
   27.8131  -20.4812  -11.2855 C   0  0  0  0  0  0  0  0  0  0  0  0
   26.4627  -20.1289  -11.7836 C   0  0  0  0  0  0  0  0  0  0  0  0
   25.7333  -21.4586  -12.0100 C   0  0  2  0  0  0  0  0  0  0  0  0
   26.4560  -22.2628  -12.9766 N   0  0  0  0  0  0  0  0  0  0  0  0
   24.3585  -21.1720  -12.4644 C   0  0  0  0  0  0  0  0  0  0  0  0
   24.0664  -21.3245  -13.6712 O   0  0  0  0  0  0  0  0  0  0  0  0
   28.0194  -21.1512  -10.1063 C   0  0  0  0  0  0  0  0  0  0  0  0
   29.3073  -21.4702   -9.6602 C   0  0  0  0  0  0  0  0  0  0  0  0
   19.1676  -20.6099  -12.4632 N   0  0  0  0  0  0  0  0  0  0  0  0
   19.6467  -20.4801  -11.1403 C   0  0  0  0  0  0  0  0  0  0  0  0
   18.7516  -20.4359  -10.2314 O   0  0  0  0  0  0  0  0  0  0  0  0
   21.0479  -20.3958  -10.7503 C   0  0  0  0  0  0  0  0  0  0  0  0
   21.9877  -20.4834  -11.9244 C   0  0  2  0  0  0  0  0  0  0  0  0
   23.3444  -20.7270  -11.5664 N   0  0  0  0  0  0  0  0  0  0  0  0
   21.8942  -19.3387  -12.8328 C   0  0  0  0  0  0  0  0  0  0  0  0
   22.4448  -18.2563  -12.4810 O   0  0  0  0  0  0  0  0  0  0  0  0
   27.1228  -20.2845  -17.5048 N   0  0  0  0  0  0  0  0  0  0  0  0
   26.7104  -19.2521  -18.4156 C   0  0  0  0  0  0  0  0  0  0  0  0
   27.2007  -19.2614  -19.6050 N   0  0  0  0  0  0  0  0  0  0  0  0
   25.7873  -18.2689  -17.9787 N   0  0  0  0  0  0  0  0  0  0  0  0
   25.2150  -18.3245  -16.6321 C   0  0  0  0  0  0  0  0  0  0  0  0
   23.8147  -18.8325  -16.7633 C   0  0  0  0  0  0  0  0  0  0  0  0
   23.1702  -19.2416  -15.4875 C   0  0  0  0  0  0  0  0  0  0  0  0
   21.7523  -18.8768  -15.3153 C   0  0  2  0  0  0  0  0  0  0  0  0
   21.2145  -19.3947  -14.0843 N   0  0  0  0  0  0  0  0  0  0  0  0
   20.8801  -19.1005  -16.4949 C   0  0  0  0  0  0  0  0  0  0  0  0
   20.4572  -20.2042  -16.8557 O   0  0  0  0  0  0  0  0  0  0  0  0
   20.5085  -18.0076  -17.2557 O   0  0  0  0  0  0  0  0  0  0  0  0
  2  3  2  0
  2  1  1  0
  4  3  1  0
  5  4  2  0
  6  7  1  0
  6  5  1  0
  7  8  1  6
  9  7  1  0
  9 10  2  0
 11 12  2  0
 11  5  1  0
 12  2  1  0
 13 14  1  0
 14 15  2  0
 17 16  1  1
 16 14  1  0
 17 18  1  0
 18  9  1  0
 19 17  1  0
 20 19  2  0
 22 23  2  0
 22 21  1  0
 24 22  1  0
 25 24  1  0
 26 25  1  0
 26 27  1  0
 28 27  1  6
 28 29  1  0
 29 19  1  0
 30 28  1  0
 31 30  2  0
 32 30  1  0
M  END
$$$$
