YNR.pdb
     RDKit          3D

 32 32  0  0  1  0  0  0  0  0999 V2000
   24.1502  -18.4658  -19.9492 O   0  0  0  0  0  0  0  0  0  0  0  0
   24.8404  -18.1257  -18.7927 C   0  0  0  0  0  0  0  0  0  0  0  0
   25.8251  -17.1563  -18.7713 C   0  0  0  0  0  0  0  0  0  0  0  0
   26.5037  -16.8268  -17.6192 C   0  0  0  0  0  0  0  0  0  0  0  0
   26.1852  -17.4917  -16.4453 C   0  0  0  0  0  0  0  0  0  0  0  0
   26.9322  -17.1166  -15.2218 C   0  0  0  0  0  0  0  0  0  0  0  0
   28.0032  -18.1971  -15.0301 C   0  0  2  0  0  0  0  0  0  0  0  0
   28.6461  -18.4890  -16.2969 N   0  0  0  0  0  0  0  0  0  0  0  0
   27.3650  -19.3987  -14.4577 C   0  0  0  0  0  0  0  0  0  0  0  0
   28.0317  -20.4506  -14.3391 O   0  0  0  0  0  0  0  0  0  0  0  0
   25.2094  -18.4559  -16.4546 C   0  0  0  0  0  0  0  0  0  0  0  0
   24.5203  -18.7901  -17.6263 C   0  0  0  0  0  0  0  0  0  0  0  0
   25.3406  -20.8348   -9.4221 N   0  0  0  0  0  0  0  0  0  0  0  0
   25.7246  -21.1666  -10.7407 C   0  0  0  0  0  0  0  0  0  0  0  0
   25.5857  -22.3938  -11.0633 O   0  0  0  0  0  0  0  0  0  0  0  0
   26.2522  -20.2362  -11.7299 C   0  0  0  0  0  0  0  0  0  0  0  0
   25.4693  -20.2454  -13.0170 C   0  0  2  0  0  0  0  0  0  0  0  0
   26.0050  -19.3993  -14.0294 N   0  0  0  0  0  0  0  0  0  0  0  0
   24.0405  -19.9836  -12.8322 C   0  0  0  0  0  0  0  0  0  0  0  0
   23.7015  -18.8756  -12.3262 O   0  0  0  0  0  0  0  0  0  0  0  0
   17.9904  -17.1853  -16.6061 N   0  0  0  0  0  0  0  0  0  0  0  0
   18.1207  -18.5431  -17.0586 C   0  0  0  0  0  0  0  0  0  0  0  0
   17.2656  -18.9821  -17.9138 N   0  0  0  0  0  0  0  0  0  0  0  0
   19.1751  -19.3450  -16.5538 N   0  0  0  0  0  0  0  0  0  0  0  0
   20.1465  -18.7953  -15.6059 C   0  0  0  0  0  0  0  0  0  0  0  0
   21.2015  -19.8340  -15.3959 C   0  0  0  0  0  0  0  0  0  0  0  0
   20.9026  -20.8307  -14.3340 C   0  0  0  0  0  0  0  0  0  0  0  0
   21.6161  -20.6688  -13.0542 C   0  0  2  0  0  0  0  0  0  0  0  0
   23.0271  -20.9176  -13.1956 N   0  0  0  0  0  0  0  0  0  0  0  0
   21.0006  -21.3396  -11.8824 C   0  0  0  0  0  0  0  0  0  0  0  0
   21.1946  -22.5185  -11.5668 O   0  0  0  0  0  0  0  0  0  0  0  0
   20.1452  -20.6084  -11.0794 O   0  0  0  0  0  0  0  0  0  0  0  0
  2  3  2  0
  2  1  1  0
  4  3  1  0
  5  4  2  0
  6  7  1  0
  6  5  1  0
  7  8  1  6
  9  7  1  0
  9 10  2  0
 11 12  2  0
 11  5  1  0
 12  2  1  0
 13 14  1  0
 14 15  2  0
 17 16  1  1
 16 14  1  0
 17 18  1  0
 18  9  1  0
 19 17  1  0
 20 19  2  0
 22 23  2  0
 22 21  1  0
 24 22  1  0
 25 24  1  0
 26 25  1  0
 26 27  1  0
 28 27  1  6
 28 29  1  0
 29 19  1  0
 30 28  1  0
 31 30  2  0
 32 30  1  0
M  END
$$$$
