YNR.pdb
     RDKit          3D

 32 32  0  0  1  0  0  0  0  0999 V2000
   21.3780  -21.2723   -7.1819 O   0  0  0  0  0  0  0  0  0  0  0  0
   22.1789  -20.9296   -8.2639 C   0  0  0  0  0  0  0  0  0  0  0  0
   23.4084  -20.3162   -8.1151 C   0  0  0  0  0  0  0  0  0  0  0  0
   24.1946  -19.9803   -9.1947 C   0  0  0  0  0  0  0  0  0  0  0  0
   23.7339  -20.2689  -10.4698 C   0  0  0  0  0  0  0  0  0  0  0  0
   24.6010  -19.8954  -11.6118 C   0  0  0  0  0  0  0  0  0  0  0  0
   25.4764  -21.1212  -11.8990 C   0  0  2  0  0  0  0  0  0  0  0  0
   26.3638  -21.3707  -10.7794 N   0  0  0  0  0  0  0  0  0  0  0  0
   26.2311  -20.8815  -13.1447 C   0  0  0  0  0  0  0  0  0  0  0  0
   27.4692  -20.7110  -13.0892 O   0  0  0  0  0  0  0  0  0  0  0  0
   22.5149  -20.8776  -10.6294 C   0  0  0  0  0  0  0  0  0  0  0  0
   21.7164  -21.2185   -9.5315 C   0  0  0  0  0  0  0  0  0  0  0  0
   27.8918  -20.6480  -18.0387 N   0  0  0  0  0  0  0  0  0  0  0  0
   28.0795  -21.6742  -17.0858 C   0  0  0  0  0  0  0  0  0  0  0  0
   29.0236  -22.4953  -17.3383 O   0  0  0  0  0  0  0  0  0  0  0  0
   27.2960  -21.8572  -15.8712 C   0  0  0  0  0  0  0  0  0  0  0  0
   26.2691  -20.7737  -15.6692 C   0  0  2  0  0  0  0  0  0  0  0  0
   25.5916  -20.8406  -14.4184 N   0  0  0  0  0  0  0  0  0  0  0  0
   25.3077  -20.6692  -16.7688 C   0  0  0  0  0  0  0  0  0  0  0  0
   24.6606  -21.7065  -17.0909 O   0  0  0  0  0  0  0  0  0  0  0  0
   18.9558  -17.8100  -13.1150 N   0  0  0  0  0  0  0  0  0  0  0  0
   18.5205  -17.7534  -14.4835 C   0  0  0  0  0  0  0  0  0  0  0  0
   17.2696  -17.5605  -14.7144 N   0  0  0  0  0  0  0  0  0  0  0  0
   19.4727  -17.9099  -15.5219 N   0  0  0  0  0  0  0  0  0  0  0  0
   20.8222  -18.3994  -15.2334 C   0  0  0  0  0  0  0  0  0  0  0  0
   21.5898  -18.3733  -16.5164 C   0  0  0  0  0  0  0  0  0  0  0  0
   22.9841  -18.8819  -16.4275 C   0  0  0  0  0  0  0  0  0  0  0  0
   23.7722  -18.8746  -17.6732 C   0  0  2  0  0  0  0  0  0  0  0  0
   25.0746  -19.4582  -17.4832 N   0  0  0  0  0  0  0  0  0  0  0  0
   23.7899  -17.5916  -18.4186 C   0  0  0  0  0  0  0  0  0  0  0  0
   22.9088  -17.2234  -19.2029 O   0  0  0  0  0  0  0  0  0  0  0  0
   24.8626  -16.7388  -18.2359 O   0  0  0  0  0  0  0  0  0  0  0  0
  2  3  2  0
  2  1  1  0
  4  3  1  0
  5  4  2  0
  6  7  1  0
  6  5  1  0
  7  8  1  1
  9  7  1  0
  9 10  2  0
 11 12  2  0
 11  5  1  0
 12  2  1  0
 13 14  1  0
 14 15  2  0
 17 16  1  6
 16 14  1  0
 17 18  1  0
 18  9  1  0
 19 17  1  0
 20 19  2  0
 22 23  2  0
 22 21  1  0
 24 22  1  0
 25 24  1  0
 26 25  1  0
 26 27  1  0
 28 27  1  1
 28 29  1  0
 29 19  1  0
 30 28  1  0
 31 30  2  0
 32 30  1  0
M  END
$$$$
