YNR.pdb
     RDKit          3D

 32 32  0  0  1  0  0  0  0  0999 V2000
   31.2567  -21.4986   -9.1155 O   0  0  0  0  0  0  0  0  0  0  0  0
   30.1312  -21.1813   -9.8653 C   0  0  0  0  0  0  0  0  0  0  0  0
   30.1344  -21.1772  -11.2472 C   0  0  0  0  0  0  0  0  0  0  0  0
   29.0130  -20.8607  -11.9813 C   0  0  0  0  0  0  0  0  0  0  0  0
   27.8456  -20.5366  -11.3077 C   0  0  0  0  0  0  0  0  0  0  0  0
   26.6555  -20.2000  -12.1237 C   0  0  0  0  0  0  0  0  0  0  0  0
   25.7464  -21.4341  -12.0782 C   0  0  2  0  0  0  0  0  0  0  0  0
   26.3651  -22.5330  -12.7943 N   0  0  0  0  0  0  0  0  0  0  0  0
   24.4371  -21.0782  -12.6595 C   0  0  0  0  0  0  0  0  0  0  0  0
   24.0919  -21.5838  -13.7505 O   0  0  0  0  0  0  0  0  0  0  0  0
   27.8308  -20.5374   -9.9360 C   0  0  0  0  0  0  0  0  0  0  0  0
   28.9713  -20.8591   -9.1909 C   0  0  0  0  0  0  0  0  0  0  0  0
   21.9920  -19.8006   -9.0186 N   0  0  0  0  0  0  0  0  0  0  0  0
   21.2719  -20.0384  -10.2108 C   0  0  0  0  0  0  0  0  0  0  0  0
   20.4951  -21.0512  -10.1932 O   0  0  0  0  0  0  0  0  0  0  0  0
   21.3496  -19.2344  -11.4232 C   0  0  0  0  0  0  0  0  0  0  0  0
   22.2383  -19.8465  -12.4745 C   0  0  2  0  0  0  0  0  0  0  0  0
   23.5451  -20.1734  -12.0126 N   0  0  0  0  0  0  0  0  0  0  0  0
   22.3115  -19.0588  -13.7067 C   0  0  0  0  0  0  0  0  0  0  0  0
   23.2790  -18.2559  -13.8404 O   0  0  0  0  0  0  0  0  0  0  0  0
   27.4245  -19.4250  -15.3080 N   0  0  0  0  0  0  0  0  0  0  0  0
   27.3859  -18.3149  -16.2200 C   0  0  0  0  0  0  0  0  0  0  0  0
   28.2851  -17.4022  -16.1027 N   0  0  0  0  0  0  0  0  0  0  0  0
   26.3703  -18.2627  -17.2076 N   0  0  0  0  0  0  0  0  0  0  0  0
   25.3100  -19.2718  -17.2458 C   0  0  0  0  0  0  0  0  0  0  0  0
   24.1102  -18.6836  -16.5745 C   0  0  0  0  0  0  0  0  0  0  0  0
   22.9124  -19.5637  -16.5396 C   0  0  0  0  0  0  0  0  0  0  0  0
   21.6399  -18.9345  -16.1419 C   0  0  2  0  0  0  0  0  0  0  0  0
   21.3462  -19.1596  -14.7505 N   0  0  0  0  0  0  0  0  0  0  0  0
   20.4893  -19.1764  -17.0472 C   0  0  0  0  0  0  0  0  0  0  0  0
   20.4209  -18.7813  -18.2161 O   0  0  0  0  0  0  0  0  0  0  0  0
   19.4088  -19.8898  -16.5624 O   0  0  0  0  0  0  0  0  0  0  0  0
  2  3  2  0
  2  1  1  0
  4  3  1  0
  5  4  2  0
  6  7  1  0
  6  5  1  0
  7  8  1  6
  9  7  1  0
  9 10  2  0
 11 12  2  0
 11  5  1  0
 12  2  1  0
 13 14  1  0
 14 15  2  0
 17 16  1  1
 16 14  1  0
 17 18  1  0
 18  9  1  0
 19 17  1  0
 20 19  2  0
 22 23  2  0
 22 21  1  0
 24 22  1  0
 25 24  1  0
 26 25  1  0
 26 27  1  0
 28 27  1  6
 28 29  1  0
 29 19  1  0
 30 28  1  0
 31 30  2  0
 32 30  1  0
M  END
$$$$
