YNR.pdb
     RDKit          3D

 32 32  0  0  1  0  0  0  0  0999 V2000
   29.6151  -15.9925  -19.0148 O   0  0  0  0  0  0  0  0  0  0  0  0
   29.0459  -16.5598  -17.8817 C   0  0  0  0  0  0  0  0  0  0  0  0
   28.1485  -15.8805  -17.0800 C   0  0  0  0  0  0  0  0  0  0  0  0
   27.5901  -16.4520  -15.9584 C   0  0  0  0  0  0  0  0  0  0  0  0
   27.9425  -17.7511  -15.6271 C   0  0  0  0  0  0  0  0  0  0  0  0
   27.3263  -18.3395  -14.4148 C   0  0  0  0  0  0  0  0  0  0  0  0
   26.5259  -19.5568  -14.8934 C   0  0  2  0  0  0  0  0  0  0  0  0
   25.5727  -19.1555  -15.9101 N   0  0  0  0  0  0  0  0  0  0  0  0
   25.8520  -20.1663  -13.7302 C   0  0  0  0  0  0  0  0  0  0  0  0
   26.5250  -20.4694  -12.7200 O   0  0  0  0  0  0  0  0  0  0  0  0
   28.8325  -18.4351  -16.4157 C   0  0  0  0  0  0  0  0  0  0  0  0
   29.3997  -17.8531  -17.5554 C   0  0  0  0  0  0  0  0  0  0  0  0
   23.6581  -21.5331   -9.1844 N   0  0  0  0  0  0  0  0  0  0  0  0
   23.1895  -20.6709  -10.2010 C   0  0  0  0  0  0  0  0  0  0  0  0
   21.9659  -20.3199  -10.1058 O   0  0  0  0  0  0  0  0  0  0  0  0
   23.9792  -20.1683  -11.3174 C   0  0  0  0  0  0  0  0  0  0  0  0
   23.7191  -20.9143  -12.6000 C   0  0  2  0  0  0  0  0  0  0  0  0
   24.4490  -20.4200  -13.7184 N   0  0  0  0  0  0  0  0  0  0  0  0
   22.2967  -21.0331  -12.9272 C   0  0  0  0  0  0  0  0  0  0  0  0
   21.6215  -19.9692  -13.0310 O   0  0  0  0  0  0  0  0  0  0  0  0
   18.4771  -24.6063   -6.4328 N   0  0  0  0  0  0  0  0  0  0  0  0
   17.7105  -25.0775   -7.5534 C   0  0  0  0  0  0  0  0  0  0  0  0
   16.8546  -26.0164   -7.3507 N   0  0  0  0  0  0  0  0  0  0  0  0
   17.9199  -24.4989   -8.8304 N   0  0  0  0  0  0  0  0  0  0  0  0
   19.1993  -23.8717   -9.1679 C   0  0  0  0  0  0  0  0  0  0  0  0
   19.0970  -23.3797  -10.5763 C   0  0  0  0  0  0  0  0  0  0  0  0
   20.3972  -23.1539  -11.2613 C   0  0  0  0  0  0  0  0  0  0  0  0
   20.3386  -22.6057  -12.6285 C   0  0  2  0  0  0  0  0  0  0  0  0
   21.6495  -22.2865  -13.1311 N   0  0  0  0  0  0  0  0  0  0  0  0
   19.3309  -21.5401  -12.8544 C   0  0  0  0  0  0  0  0  0  0  0  0
   19.3126  -20.4550  -12.2634 O   0  0  0  0  0  0  0  0  0  0  0  0
   18.3343  -21.7633  -13.7862 O   0  0  0  0  0  0  0  0  0  0  0  0
  2  3  2  0
  2  1  1  0
  4  3  1  0
  5  4  2  0
  6  7  1  0
  6  5  1  0
  7  8  1  6
  9  7  1  0
  9 10  2  0
 11 12  2  0
 11  5  1  0
 12  2  1  0
 13 14  1  0
 14 15  2  0
 17 16  1  1
 16 14  1  0
 17 18  1  0
 18  9  1  0
 19 17  1  0
 20 19  2  0
 22 23  2  0
 22 21  1  0
 24 22  1  0
 25 24  1  0
 26 25  1  0
 26 27  1  0
 28 27  1  1
 28 29  1  0
 29 19  1  0
 30 28  1  0
 31 30  2  0
 32 30  1  0
M  END
$$$$
