ACI.pdb
     RDKit          3D

 20 19  0  0  1  0  0  0  0  0999 V2000
   20.6353  -12.6950  -18.7080 C   0  0  0  0  0  0  0  0  0  0  0  0
   21.1836  -11.3153  -18.9283 C   0  0  2  0  0  0  0  0  0  0  0  0
   22.3705  -11.3764  -19.7555 N   0  0  0  0  0  0  0  0  0  0  0  0
   21.4962  -10.6632  -17.6072 C   0  0  0  0  0  0  0  0  0  0  0  0
   20.6359  -10.5794  -16.7173 O   0  0  0  0  0  0  0  0  0  0  0  0
   22.7762  -10.1366  -17.3621 N   0  0  0  0  0  0  0  0  0  0  0  0
   23.1156   -9.4921  -16.0888 C   0  0  1  0  0  0  0  0  0  0  0  0
   24.6219   -9.5838  -15.9534 C   0  0  0  0  0  0  0  0  0  0  0  0
   25.1270  -11.1457  -15.2331 S   0  0  0  0  0  0  0  0  0  0  0  0
   22.6804   -8.0663  -16.1130 C   0  0  0  0  0  0  0  0  0  0  0  0
   22.8028   -7.4428  -17.2166 O   0  0  0  0  0  0  0  0  0  0  0  0
   18.0100   -6.6823  -16.3626 C   0  0  0  0  0  0  0  0  0  0  0  0
   19.4763   -6.5193  -16.4013 C   0  0  0  0  0  0  0  0  0  0  0  0
   20.2028   -5.9931  -15.2415 C   0  0  2  0  0  0  0  0  0  0  0  0
   19.6837   -4.5596  -14.9175 C   0  0  0  0  0  0  0  0  0  0  0  0
   21.6825   -5.9799  -15.2052 C   0  0  2  0  0  0  0  0  0  0  0  0
   22.1527   -7.3848  -15.0141 N   0  0  0  0  0  0  0  0  0  0  0  0
   22.3421   -5.1574  -14.2016 C   0  0  0  0  0  0  0  0  0  0  0  0
   22.5950   -5.4999  -13.0279 O   0  0  0  0  0  0  0  0  0  0  0  0
   22.7462   -3.8570  -14.5428 O   0  0  0  0  0  0  0  0  0  0  0  0
  2  1  1  1
  2  3  1  0
  4  2  1  0
  5  4  2  0
  6  4  1  0
  7  6  1  0
  7  8  1  6
  9  8  1  0
 10  7  1  0
 10 11  2  0
 12 13  1  0
 14 13  1  0
 14 16  1  0
 14 15  1  6
 16 17  1  1
 17 10  1  0
 18 16  1  0
 19 18  2  0
 20 18  1  0
M  END
$$$$
