ACI.pdb
     RDKit          3D

 20 19  0  0  1  0  0  0  0  0999 V2000
   15.5554   -9.3031  -16.1796 C   0  0  0  0  0  0  0  0  0  0  0  0
   16.5875  -10.3898  -16.0981 C   0  0  2  0  0  0  0  0  0  0  0  0
   16.0300  -11.5598  -15.4523 N   0  0  0  0  0  0  0  0  0  0  0  0
   17.7983   -9.9013  -15.3474 C   0  0  0  0  0  0  0  0  0  0  0  0
   17.8001   -9.8422  -14.1082 O   0  0  0  0  0  0  0  0  0  0  0  0
   18.9516   -9.5026  -16.0451 N   0  0  0  0  0  0  0  0  0  0  0  0
   20.1797   -9.1085  -15.3463 C   0  0  1  0  0  0  0  0  0  0  0  0
   21.3299   -9.6688  -16.1580 C   0  0  0  0  0  0  0  0  0  0  0  0
   22.9109   -9.0614  -15.5709 S   0  0  0  0  0  0  0  0  0  0  0  0
   20.2661   -7.6217  -15.2773 C   0  0  0  0  0  0  0  0  0  0  0  0
   19.9295   -6.9736  -16.3204 O   0  0  0  0  0  0  0  0  0  0  0  0
   18.0460   -2.7617  -13.5742 C   0  0  0  0  0  0  0  0  0  0  0  0
   19.3641   -3.3557  -13.8706 C   0  0  0  0  0  0  0  0  0  0  0  0
   19.5608   -4.8077  -13.8190 C   0  0  2  0  0  0  0  0  0  0  0  0
   19.2313   -5.3198  -12.3841 C   0  0  0  0  0  0  0  0  0  0  0  0
   20.8309   -5.4256  -14.2619 C   0  0  2  0  0  0  0  0  0  0  0  0
   20.6863   -6.9083  -14.1525 N   0  0  0  0  0  0  0  0  0  0  0  0
   22.0578   -5.0536  -13.5727 C   0  0  0  0  0  0  0  0  0  0  0  0
   22.6608   -5.7484  -12.7286 O   0  0  0  0  0  0  0  0  0  0  0  0
   22.6487   -3.8114  -13.8534 O   0  0  0  0  0  0  0  0  0  0  0  0
  2  1  1  1
  2  3  1  0
  4  2  1  0
  5  4  2  0
  6  4  1  0
  7  6  1  0
  7  8  1  6
  9  8  1  0
 10  7  1  0
 10 11  2  0
 12 13  1  0
 14 13  1  0
 14 16  1  0
 14 15  1  1
 16 17  1  1
 17 10  1  0
 18 16  1  0
 19 18  2  0
 20 18  1  0
M  END
$$$$
