ACI.pdb
     RDKit          3D

 20 19  0  0  1  0  0  0  0  0999 V2000
   18.4159  -13.8723  -17.2817 C   0  0  0  0  0  0  0  0  0  0  0  0
   18.4221  -12.4717  -17.8211 C   0  0  2  0  0  0  0  0  0  0  0  0
   19.4112  -12.3459  -18.8712 N   0  0  0  0  0  0  0  0  0  0  0  0
   18.7024  -11.4897  -16.7141 C   0  0  0  0  0  0  0  0  0  0  0  0
   17.9597  -11.4159  -15.7231 O   0  0  0  0  0  0  0  0  0  0  0  0
   19.8173  -10.6369  -16.7887 N   0  0  0  0  0  0  0  0  0  0  0  0
   20.0848   -9.6235  -15.7624 C   0  0  1  0  0  0  0  0  0  0  0  0
   21.5920   -9.5019  -15.6667 C   0  0  0  0  0  0  0  0  0  0  0  0
   22.0796   -8.1770  -14.5621 S   0  0  0  0  0  0  0  0  0  0  0  0
   19.4817   -8.3220  -16.1690 C   0  0  0  0  0  0  0  0  0  0  0  0
   19.5908   -7.9914  -17.3939 O   0  0  0  0  0  0  0  0  0  0  0  0
   14.5818   -6.8811  -16.3711 C   0  0  0  0  0  0  0  0  0  0  0  0
   16.0364   -6.8056  -16.6090 C   0  0  0  0  0  0  0  0  0  0  0  0
   16.9056   -6.0472  -15.7039 C   0  0  2  0  0  0  0  0  0  0  0  0
   16.4819   -4.5473  -15.7221 C   0  0  0  0  0  0  0  0  0  0  0  0
   18.3798   -6.1238  -15.8135 C   0  0  2  0  0  0  0  0  0  0  0  0
   18.8127   -7.4578  -15.2994 N   0  0  0  0  0  0  0  0  0  0  0  0
   19.1769   -5.1132  -15.1337 C   0  0  0  0  0  0  0  0  0  0  0  0
   19.4012   -3.9578  -15.5505 O   0  0  0  0  0  0  0  0  0  0  0  0
   19.7634   -5.4246  -13.8968 O   0  0  0  0  0  0  0  0  0  0  0  0
  2  1  1  1
  2  3  1  0
  4  2  1  0
  5  4  2  0
  6  4  1  0
  7  6  1  0
  7  8  1  6
  9  8  1  0
 10  7  1  0
 10 11  2  0
 12 13  1  0
 14 13  1  0
 14 16  1  0
 14 15  1  6
 16 17  1  1
 17 10  1  0
 18 16  1  0
 19 18  2  0
 20 18  1  0
M  END
$$$$
