ACI.pdb
     RDKit          3D

 20 19  0  0  1  0  0  0  0  0999 V2000
   23.3214    1.3096  -12.8437 C   0  0  0  0  0  0  0  0  0  0  0  0
   23.6494    2.2977  -11.7626 C   0  0  2  0  0  0  0  0  0  0  0  0
   24.0033    3.5753  -12.3452 N   0  0  0  0  0  0  0  0  0  0  0  0
   24.7762    1.7788  -10.9086 C   0  0  0  0  0  0  0  0  0  0  0  0
   24.6661    0.7112  -10.2864 O   0  0  0  0  0  0  0  0  0  0  0  0
   25.9771    2.5018  -10.8040 N   0  0  0  0  0  0  0  0  0  0  0  0
   27.1231    1.9904  -10.0443 C   0  0  1  0  0  0  0  0  0  0  0  0
   28.3634    2.4827  -10.7619 C   0  0  0  0  0  0  0  0  0  0  0  0
   29.8600    2.0069   -9.8975 S   0  0  0  0  0  0  0  0  0  0  0  0
   27.0822    2.5201   -8.6513 C   0  0  0  0  0  0  0  0  0  0  0  0
   26.6359    3.7024   -8.4949 O   0  0  0  0  0  0  0  0  0  0  0  0
   24.2375    0.7899   -4.6743 C   0  0  0  0  0  0  0  0  0  0  0  0
   25.0938    1.7143   -5.4426 C   0  0  0  0  0  0  0  0  0  0  0  0
   26.5537    1.6647   -5.3151 C   0  0  2  0  0  0  0  0  0  0  0  0
   26.9489    1.9323   -3.8313 C   0  0  0  0  0  0  0  0  0  0  0  0
   27.4278    2.4766   -6.1913 C   0  0  2  0  0  0  0  0  0  0  0  0
   27.4964    1.8064   -7.5245 N   0  0  0  0  0  0  0  0  0  0  0  0
   28.7941    2.7323   -5.7593 C   0  0  0  0  0  0  0  0  0  0  0  0
   29.1413    3.5455   -4.8778 O   0  0  0  0  0  0  0  0  0  0  0  0
   29.8447    2.0221   -6.3616 O   0  0  0  0  0  0  0  0  0  0  0  0
  2  1  1  6
  2  3  1  0
  4  2  1  0
  5  4  2  0
  6  4  1  0
  7  6  1  0
  7  8  1  6
  9  8  1  0
 10  7  1  0
 10 11  2  0
 12 13  1  0
 14 13  1  0
 14 16  1  0
 14 15  1  1
 16 17  1  6
 17 10  1  0
 18 16  1  0
 19 18  2  0
 20 18  1  0
M  END
$$$$
