ACI.pdb
     RDKit          3D

 20 19  0  0  1  0  0  0  0  0999 V2000
   21.0015  -13.5778  -19.6658 C   0  0  0  0  0  0  0  0  0  0  0  0
   22.4729  -13.3194  -19.5212 C   0  0  2  0  0  0  0  0  0  0  0  0
   23.1658  -14.5488  -19.1966 N   0  0  0  0  0  0  0  0  0  0  0  0
   22.7162  -12.2817  -18.4571 C   0  0  0  0  0  0  0  0  0  0  0  0
   22.5899  -12.5590  -17.2545 O   0  0  0  0  0  0  0  0  0  0  0  0
   23.0925  -10.9753  -18.8140 N   0  0  0  0  0  0  0  0  0  0  0  0
   23.3793   -9.9507  -17.8041 C   0  0  1  0  0  0  0  0  0  0  0  0
   24.2336   -8.9042  -18.4900 C   0  0  0  0  0  0  0  0  0  0  0  0
   24.4837   -7.4678  -17.4471 S   0  0  0  0  0  0  0  0  0  0  0  0
   22.1043   -9.3477  -17.3209 C   0  0  0  0  0  0  0  0  0  0  0  0
   21.2355   -9.0479  -18.2023 O   0  0  0  0  0  0  0  0  0  0  0  0
   18.4465  -11.5518  -14.7516 C   0  0  0  0  0  0  0  0  0  0  0  0
   19.0838  -10.4877  -15.5515 C   0  0  0  0  0  0  0  0  0  0  0  0
   19.6683   -9.3101  -14.9022 C   0  0  2  0  0  0  0  0  0  0  0  0
   18.5366   -8.4881  -14.2145 C   0  0  0  0  0  0  0  0  0  0  0  0
   20.5431   -8.3782  -15.6488 C   0  0  2  0  0  0  0  0  0  0  0  0
   21.8100   -9.0975  -15.9787 N   0  0  0  0  0  0  0  0  0  0  0  0
   20.9071   -7.1173  -15.0190 C   0  0  0  0  0  0  0  0  0  0  0  0
   20.3327   -6.0222  -15.1914 O   0  0  0  0  0  0  0  0  0  0  0  0
   21.9948   -7.0864  -14.1319 O   0  0  0  0  0  0  0  0  0  0  0  0
  2  1  1  1
  2  3  1  0
  4  2  1  0
  5  4  2  0
  6  4  1  0
  7  6  1  0
  7  8  1  6
  9  8  1  0
 10  7  1  0
 10 11  2  0
 12 13  1  0
 14 13  1  0
 14 16  1  0
 14 15  1  6
 16 17  1  1
 17 10  1  0
 18 16  1  0
 19 18  2  0
 20 18  1  0
M  END
$$$$
