ACI.pdb
     RDKit          3D

 20 19  0  0  1  0  0  0  0  0999 V2000
   17.6231  -13.3308  -18.4998 C   0  0  0  0  0  0  0  0  0  0  0  0
   19.0021  -13.9216  -18.4529 C   0  0  2  0  0  0  0  0  0  0  0  0
   18.9422  -15.2919  -17.9888 N   0  0  0  0  0  0  0  0  0  0  0  0
   19.8890  -13.1002  -17.5546 C   0  0  0  0  0  0  0  0  0  0  0  0
   19.9317  -13.3120  -16.3330 O   0  0  0  0  0  0  0  0  0  0  0  0
   20.6867  -12.0749  -18.0916 N   0  0  0  0  0  0  0  0  0  0  0  0
   21.5775  -11.2683  -17.2503 C   0  0  1  0  0  0  0  0  0  0  0  0
   22.8310  -11.0272  -18.0665 C   0  0  0  0  0  0  0  0  0  0  0  0
   23.9398   -9.8783  -17.2516 S   0  0  0  0  0  0  0  0  0  0  0  0
   20.9184   -9.9743  -16.9129 C   0  0  0  0  0  0  0  0  0  0  0  0
   20.3319   -9.3593  -17.8612 O   0  0  0  0  0  0  0  0  0  0  0  0
   16.4630   -7.4564  -14.6330 C   0  0  0  0  0  0  0  0  0  0  0  0
   17.8873   -7.2055  -14.9276 C   0  0  0  0  0  0  0  0  0  0  0  0
   18.8199   -8.3198  -15.1232 C   0  0  2  0  0  0  0  0  0  0  0  0
   18.7491   -9.2710  -13.8904 C   0  0  0  0  0  0  0  0  0  0  0  0
   20.2425   -8.0798  -15.4545 C   0  0  2  0  0  0  0  0  0  0  0  0
   20.9047   -9.4062  -15.6371 N   0  0  0  0  0  0  0  0  0  0  0  0
   21.0505   -7.3126  -14.5179 C   0  0  0  0  0  0  0  0  0  0  0  0
   21.8897   -7.7826  -13.7218 O   0  0  0  0  0  0  0  0  0  0  0  0
   20.9042   -5.9170  -14.4739 O   0  0  0  0  0  0  0  0  0  0  0  0
  2  1  1  1
  2  3  1  0
  4  2  1  0
  5  4  2  0
  6  4  1  0
  7  6  1  0
  7  8  1  6
  9  8  1  0
 10  7  1  0
 10 11  2  0
 12 13  1  0
 14 13  1  0
 14 16  1  0
 14 15  1  1
 16 17  1  1
 17 10  1  0
 18 16  1  0
 19 18  2  0
 20 18  1  0
M  END
$$$$
