ACI.pdb
     RDKit          3D

 20 19  0  0  1  0  0  0  0  0999 V2000
   20.1887  -13.9793  -16.5067 C   0  0  0  0  0  0  0  0  0  0  0  0
   19.3412  -12.8485  -17.0125 C   0  0  2  0  0  0  0  0  0  0  0  0
   19.7895  -12.4383  -18.3269 N   0  0  0  0  0  0  0  0  0  0  0  0
   19.3950  -11.6890  -16.0527 C   0  0  0  0  0  0  0  0  0  0  0  0
   18.7138  -11.6866  -15.0159 O   0  0  0  0  0  0  0  0  0  0  0  0
   20.2237  -10.5856  -16.3202 N   0  0  0  0  0  0  0  0  0  0  0  0
   20.3491   -9.4676  -15.3788 C   0  0  1  0  0  0  0  0  0  0  0  0
   21.7390   -8.8978  -15.5772 C   0  0  0  0  0  0  0  0  0  0  0  0
   21.9633   -7.3700  -14.6668 S   0  0  0  0  0  0  0  0  0  0  0  0
   19.3153   -8.4363  -15.6794 C   0  0  0  0  0  0  0  0  0  0  0  0
   19.0923   -8.1814  -16.9070 O   0  0  0  0  0  0  0  0  0  0  0  0
   14.2125   -8.4374  -15.4804 C   0  0  0  0  0  0  0  0  0  0  0  0
   15.5335   -7.8821  -15.8335 C   0  0  0  0  0  0  0  0  0  0  0  0
   16.2841   -7.0655  -14.8746 C   0  0  2  0  0  0  0  0  0  0  0  0
   15.4461   -5.8032  -14.5086 C   0  0  0  0  0  0  0  0  0  0  0  0
   17.6765   -6.6454  -15.1499 C   0  0  2  0  0  0  0  0  0  0  0  0
   18.5866   -7.7448  -14.7091 N   0  0  0  0  0  0  0  0  0  0  0  0
   18.1580   -5.4109  -14.5477 C   0  0  0  0  0  0  0  0  0  0  0  0
   18.7199   -5.3106  -13.4373 O   0  0  0  0  0  0  0  0  0  0  0  0
   17.9961   -4.2029  -15.2446 O   0  0  0  0  0  0  0  0  0  0  0  0
  2  1  1  1
  2  3  1  0
  4  2  1  0
  5  4  2  0
  6  4  1  0
  7  6  1  0
  7  8  1  6
  9  8  1  0
 10  7  1  0
 10 11  2  0
 12 13  1  0
 14 13  1  0
 14 16  1  0
 14 15  1  6
 16 17  1  1
 17 10  1  0
 18 16  1  0
 19 18  2  0
 20 18  1  0
M  END
$$$$
