ACI.pdb
     RDKit          3D

 20 19  0  0  1  0  0  0  0  0999 V2000
   19.7166  -12.1323  -18.3827 C   0  0  0  0  0  0  0  0  0  0  0  0
   20.4632  -10.8351  -18.4938 C   0  0  2  0  0  0  0  0  0  0  0  0
   21.7320  -11.0452  -19.1592 N   0  0  0  0  0  0  0  0  0  0  0  0
   20.6781  -10.2404  -17.1269 C   0  0  0  0  0  0  0  0  0  0  0  0
   19.7177   -9.9785  -16.3866 O   0  0  0  0  0  0  0  0  0  0  0  0
   21.9792   -9.9718  -16.6675 N   0  0  0  0  0  0  0  0  0  0  0  0
   22.2249   -9.3632  -15.3557 C   0  0  1  0  0  0  0  0  0  0  0  0
   23.6161   -9.7957  -14.9395 C   0  0  0  0  0  0  0  0  0  0  0  0
   23.6081  -11.4312  -14.2056 S   0  0  0  0  0  0  0  0  0  0  0  0
   22.1523   -7.8782  -15.4667 C   0  0  0  0  0  0  0  0  0  0  0  0
   22.6689   -7.3497  -16.5037 O   0  0  0  0  0  0  0  0  0  0  0  0
   17.7286   -5.5681  -15.8141 C   0  0  0  0  0  0  0  0  0  0  0  0
   19.1975   -5.6286  -15.9441 C   0  0  0  0  0  0  0  0  0  0  0  0
   20.0658   -5.1872  -14.8482 C   0  0  2  0  0  0  0  0  0  0  0  0
   19.9693   -3.6377  -14.7090 C   0  0  0  0  0  0  0  0  0  0  0  0
   21.4922   -5.5791  -14.7948 C   0  0  2  0  0  0  0  0  0  0  0  0
   21.5585   -7.0451  -14.5159 N   0  0  0  0  0  0  0  0  0  0  0  0
   22.3571   -4.9112  -13.8333 C   0  0  0  0  0  0  0  0  0  0  0  0
   22.9895   -3.8531  -14.0315 O   0  0  0  0  0  0  0  0  0  0  0  0
   22.5221   -5.4737  -12.5576 O   0  0  0  0  0  0  0  0  0  0  0  0
  2  1  1  1
  2  3  1  0
  4  2  1  0
  5  4  2  0
  6  4  1  0
  7  6  1  0
  7  8  1  6
  9  8  1  0
 10  7  1  0
 10 11  2  0
 12 13  1  0
 14 13  1  0
 14 16  1  0
 14 15  1  6
 16 17  1  1
 17 10  1  0
 18 16  1  0
 19 18  2  0
 20 18  1  0
M  END
$$$$
