ACI.pdb
     RDKit          3D

 20 19  0  0  1  0  0  0  0  0999 V2000
   17.7959  -16.0153  -17.9404 C   0  0  0  0  0  0  0  0  0  0  0  0
   18.0787  -15.1540  -16.7442 C   0  0  2  0  0  0  0  0  0  0  0  0
   16.9014  -15.0622  -15.9061 N   0  0  0  0  0  0  0  0  0  0  0  0
   18.5196  -13.7826  -17.1838 C   0  0  0  0  0  0  0  0  0  0  0  0
   19.5200  -13.6336  -17.9021 O   0  0  0  0  0  0  0  0  0  0  0  0
   17.7988  -12.6442  -16.7834 N   0  0  0  0  0  0  0  0  0  0  0  0
   18.2173  -11.2911  -17.1653 C   0  0  1  0  0  0  0  0  0  0  0  0
   16.9534  -10.5448  -17.5414 C   0  0  0  0  0  0  0  0  0  0  0  0
   15.7934  -10.4793  -16.1763 S   0  0  0  0  0  0  0  0  0  0  0  0
   18.8911  -10.6272  -16.0129 C   0  0  0  0  0  0  0  0  0  0  0  0
   18.5136  -10.9702  -14.8461 O   0  0  0  0  0  0  0  0  0  0  0  0
   23.7721  -11.3124  -14.8201 C   0  0  0  0  0  0  0  0  0  0  0  0
   22.3506  -10.9226  -14.7456 C   0  0  0  0  0  0  0  0  0  0  0  0
   21.9497   -9.5193  -14.8868 C   0  0  2  0  0  0  0  0  0  0  0  0
   22.6996   -8.6615  -13.8233 C   0  0  0  0  0  0  0  0  0  0  0  0
   20.5226   -9.1264  -14.8909 C   0  0  2  0  0  0  0  0  0  0  0  0
   19.8980   -9.6671  -16.1354 N   0  0  0  0  0  0  0  0  0  0  0  0
   20.1954   -7.7100  -14.8169 C   0  0  0  0  0  0  0  0  0  0  0  0
   20.0302   -7.0524  -13.7685 O   0  0  0  0  0  0  0  0  0  0  0  0
   20.0434   -6.9813  -16.0073 O   0  0  0  0  0  0  0  0  0  0  0  0
  2  1  1  6
  2  3  1  0
  4  2  1  0
  5  4  2  0
  6  4  1  0
  7  6  1  0
  7  8  1  1
  9  8  1  0
 10  7  1  0
 10 11  2  0
 12 13  1  0
 14 13  1  0
 14 16  1  0
 14 15  1  1
 16 17  1  6
 17 10  1  0
 18 16  1  0
 19 18  2  0
 20 18  1  0
M  END
$$$$
