ACI.pdb
     RDKit          3D

 20 19  0  0  1  0  0  0  0  0999 V2000
   19.6736  -13.5830  -19.4054 C   0  0  0  0  0  0  0  0  0  0  0  0
   20.2432  -12.7855  -20.5422 C   0  0  2  0  0  0  0  0  0  0  0  0
   21.2002  -13.5828  -21.2806 N   0  0  0  0  0  0  0  0  0  0  0  0
   20.8939  -11.5307  -20.0221 C   0  0  0  0  0  0  0  0  0  0  0  0
   22.1149  -11.4871  -19.8067 O   0  0  0  0  0  0  0  0  0  0  0  0
   20.1215  -10.3833  -19.7716 N   0  0  0  0  0  0  0  0  0  0  0  0
   20.7146   -9.1561  -19.2294 C   0  0  1  0  0  0  0  0  0  0  0  0
   20.0084   -8.0035  -19.9140 C   0  0  0  0  0  0  0  0  0  0  0  0
   20.4718   -6.4261  -19.1995 S   0  0  0  0  0  0  0  0  0  0  0  0
   20.4972   -9.0990  -17.7556 C   0  0  0  0  0  0  0  0  0  0  0  0
   19.4047   -9.5805  -17.3128 O   0  0  0  0  0  0  0  0  0  0  0  0
   23.6579  -11.1530  -14.2524 C   0  0  0  0  0  0  0  0  0  0  0  0
   22.4922  -10.5470  -14.9249 C   0  0  0  0  0  0  0  0  0  0  0  0
   22.0800   -9.1738  -14.6180 C   0  0  2  0  0  0  0  0  0  0  0  0
   21.7191   -9.0719  -13.1051 C   0  0  0  0  0  0  0  0  0  0  0  0
   21.0233   -8.4970  -15.4031 C   0  0  2  0  0  0  0  0  0  0  0  0
   21.4080   -8.5583  -16.8452 N   0  0  0  0  0  0  0  0  0  0  0  0
   20.7123   -7.1095  -15.0918 C   0  0  0  0  0  0  0  0  0  0  0  0
   19.7136   -6.7092  -14.4585 O   0  0  0  0  0  0  0  0  0  0  0  0
   21.5876   -6.1003  -15.5237 O   0  0  0  0  0  0  0  0  0  0  0  0
  2  1  1  1
  2  3  1  0
  4  2  1  0
  5  4  2  0
  6  4  1  0
  7  6  1  0
  7  8  1  6
  9  8  1  0
 10  7  1  0
 10 11  2  0
 12 13  1  0
 14 13  1  0
 14 16  1  0
 14 15  1  1
 16 17  1  6
 17 10  1  0
 18 16  1  0
 19 18  2  0
 20 18  1  0
M  END
$$$$
