ACI.pdb
     RDKit          3D

 20 19  0  0  1  0  0  0  0  0999 V2000
   18.3124  -13.9536  -15.8680 C   0  0  0  0  0  0  0  0  0  0  0  0
   17.9545  -12.6566  -16.5331 C   0  0  2  0  0  0  0  0  0  0  0  0
   18.5956  -12.5666  -17.8284 N   0  0  0  0  0  0  0  0  0  0  0  0
   18.3617  -11.4966  -15.6630 C   0  0  0  0  0  0  0  0  0  0  0  0
   17.9131  -11.3730  -14.5130 O   0  0  0  0  0  0  0  0  0  0  0  0
   19.2622  -10.5309  -16.1451 N   0  0  0  0  0  0  0  0  0  0  0  0
   19.6952   -9.3982  -15.3197 C   0  0  1  0  0  0  0  0  0  0  0  0
   21.2102   -9.4140  -15.3362 C   0  0  0  0  0  0  0  0  0  0  0  0
   21.8952   -7.9639  -14.5352 S   0  0  0  0  0  0  0  0  0  0  0  0
   19.1810   -8.1249  -15.9004 C   0  0  0  0  0  0  0  0  0  0  0  0
   19.3002   -7.9734  -17.1591 O   0  0  0  0  0  0  0  0  0  0  0  0
   14.3660   -6.5269  -15.6800 C   0  0  0  0  0  0  0  0  0  0  0  0
   15.7203   -6.4212  -16.2570 C   0  0  0  0  0  0  0  0  0  0  0  0
   16.7520   -5.6093  -15.6041 C   0  0  2  0  0  0  0  0  0  0  0  0
   16.4457   -4.1000  -15.8441 C   0  0  0  0  0  0  0  0  0  0  0  0
   18.1904   -5.8467  -15.8602 C   0  0  2  0  0  0  0  0  0  0  0  0
   18.5836   -7.1046  -15.1570 N   0  0  0  0  0  0  0  0  0  0  0  0
   19.1409   -4.8142  -15.4740 C   0  0  0  0  0  0  0  0  0  0  0  0
   19.5108   -3.8584  -16.1871 O   0  0  0  0  0  0  0  0  0  0  0  0
   19.7162   -4.8600  -14.1942 O   0  0  0  0  0  0  0  0  0  0  0  0
  2  1  1  1
  2  3  1  0
  4  2  1  0
  5  4  2  0
  6  4  1  0
  7  6  1  0
  7  8  1  6
  9  8  1  0
 10  7  1  0
 10 11  2  0
 12 13  1  0
 14 13  1  0
 14 16  1  0
 14 15  1  6
 16 17  1  1
 17 10  1  0
 18 16  1  0
 19 18  2  0
 20 18  1  0
M  END
$$$$
