NYT.pdb
     RDKit          3D

 28 28  0  0  1  0  0  0  0  0999 V2000
    8.2461  -18.6219   17.4312 N   0  0  0  0  0  0  0  0  0  0  0  0
    8.8805  -19.2265   18.5453 C   0  0  0  0  0  0  0  0  0  0  0  0
    9.3703  -20.3803   18.3481 O   0  0  0  0  0  0  0  0  0  0  0  0
    8.9491  -18.5252   19.8458 C   0  0  0  0  0  0  0  0  0  0  0  0
    9.0246  -17.0378   19.7033 C   0  0  2  0  0  0  0  0  0  0  0  0
   10.0181  -16.6404   18.7543 N   0  0  0  0  0  0  0  0  0  0  0  0
    9.1748  -16.3461   21.0102 C   0  0  0  0  0  0  0  0  0  0  0  0
   10.2844  -16.3533   21.5796 O   0  0  0  0  0  0  0  0  0  0  0  0
    6.9983  -11.8216   28.4131 O   0  0  0  0  0  0  0  0  0  0  0  0
    7.0656  -12.3512   27.1263 C   0  0  0  0  0  0  0  0  0  0  0  0
    6.2676  -13.4132   26.8225 C   0  0  0  0  0  0  0  0  0  0  0  0
    6.3190  -13.9539   25.5511 C   0  0  0  0  0  0  0  0  0  0  0  0
    7.1508  -13.4589   24.5705 C   0  0  0  0  0  0  0  0  0  0  0  0
    7.1500  -14.0751   23.2551 C   0  0  0  0  0  0  0  0  0  0  0  0
    8.2575  -15.0673   22.9937 C   0  0  2  0  0  0  0  0  0  0  0  0
    8.1101  -15.6643   21.6622 N   0  0  0  0  0  0  0  0  0  0  0  0
    8.4098  -16.1008   24.0271 C   0  0  0  0  0  0  0  0  0  0  0  0
    7.4942  -16.9662   24.2637 O   0  0  0  0  0  0  0  0  0  0  0  0
    7.9556  -12.3902   24.8716 C   0  0  0  0  0  0  0  0  0  0  0  0
    7.9055  -11.8410   26.1579 C   0  0  0  0  0  0  0  0  0  0  0  0
   10.4098  -18.9677   24.0955 C   0  0  0  0  0  0  0  0  0  0  0  0
   10.8423  -18.1895   25.3063 C   0  0  1  0  0  0  0  0  0  0  0  0
   11.8910  -17.3274   24.9807 O   0  0  0  0  0  0  0  0  0  0  0  0
    9.6876  -17.3072   25.8302 C   0  0  2  0  0  0  0  0  0  0  0  0
    9.5658  -16.2486   24.8533 N   0  0  0  0  0  0  0  0  0  0  0  0
   10.2001  -16.7356   27.0919 C   0  0  0  0  0  0  0  0  0  0  0  0
   10.5956  -15.4071   27.2101 O   0  0  0  0  0  0  0  0  0  0  0  0
   10.2926  -17.4571   28.1150 O   0  0  0  0  0  0  0  0  0  0  0  0
  1  2  1  0
  2  3  2  0
  4  5  1  0
  4  2  1  0
  5  6  1  6
  5  7  1  0
  7  8  2  0
  9 10  1  0
 10 11  2  0
 10 20  1  0
 11 12  1  0
 12 13  2  0
 13 14  1  0
 15 14  1  1
 15 17  1  0
 16  7  1  0
 16 15  1  0
 17 18  2  0
 19 13  1  0
 20 19  2  0
 22 21  1  6
 22 23  1  0
 22 24  1  0
 24 26  1  0
 24 25  1  6
 25 17  1  0
 26 28  2  0
 26 27  1  0
M  END
$$$$
