NYT.pdb
     RDKit          3D

 28 28  0  0  1  0  0  0  0  0999 V2000
    8.3632  -16.4691   16.8116 N   0  0  0  0  0  0  0  0  0  0  0  0
    7.9460  -16.9003   18.0959 C   0  0  0  0  0  0  0  0  0  0  0  0
    6.8700  -17.5716   18.1351 O   0  0  0  0  0  0  0  0  0  0  0  0
    8.7423  -16.5692   19.2976 C   0  0  0  0  0  0  0  0  0  0  0  0
    7.9309  -15.9221   20.3751 C   0  0  2  0  0  0  0  0  0  0  0  0
    7.2608  -14.7477   19.9088 N   0  0  0  0  0  0  0  0  0  0  0  0
    8.7169  -15.6771   21.6125 C   0  0  0  0  0  0  0  0  0  0  0  0
    9.9563  -15.5611   21.5343 O   0  0  0  0  0  0  0  0  0  0  0  0
   10.5867  -14.4810   30.2602 O   0  0  0  0  0  0  0  0  0  0  0  0
    9.9960  -14.4935   28.9986 C   0  0  0  0  0  0  0  0  0  0  0  0
    9.3813  -15.6370   28.5846 C   0  0  0  0  0  0  0  0  0  0  0  0
    8.7889  -15.6706   27.3359 C   0  0  0  0  0  0  0  0  0  0  0  0
    8.7944  -14.5863   26.4857 C   0  0  0  0  0  0  0  0  0  0  0  0
    8.1490  -14.6922   25.1887 C   0  0  0  0  0  0  0  0  0  0  0  0
    8.9334  -15.4172   24.1219 C   0  0  2  0  0  0  0  0  0  0  0  0
    8.1303  -15.5652   22.9036 N   0  0  0  0  0  0  0  0  0  0  0  0
    9.4989  -16.7052   24.5468 C   0  0  0  0  0  0  0  0  0  0  0  0
    8.7582  -17.7080   24.8450 O   0  0  0  0  0  0  0  0  0  0  0  0
    9.4118  -13.4333   26.8980 C   0  0  0  0  0  0  0  0  0  0  0  0
   10.0123  -13.3967   28.1617 C   0  0  0  0  0  0  0  0  0  0  0  0
   11.8451  -18.9992   22.7339 C   0  0  0  0  0  0  0  0  0  0  0  0
   12.4834  -18.6109   24.0379 C   0  0  1  0  0  0  0  0  0  0  0  0
   13.2751  -17.4731   23.8716 O   0  0  0  0  0  0  0  0  0  0  0  0
   11.4081  -18.2548   25.0882 C   0  0  2  0  0  0  0  0  0  0  0  0
   10.8977  -16.9699   24.6660 N   0  0  0  0  0  0  0  0  0  0  0  0
   12.1616  -18.0791   26.3462 C   0  0  0  0  0  0  0  0  0  0  0  0
   12.6181  -19.1514   27.1058 O   0  0  0  0  0  0  0  0  0  0  0  0
   12.4139  -16.9246   26.7698 O   0  0  0  0  0  0  0  0  0  0  0  0
  1  2  1  0
  2  3  2  0
  4  5  1  0
  4  2  1  0
  5  6  1  6
  5  7  1  0
  7  8  2  0
  9 10  1  0
 10 11  2  0
 10 20  1  0
 11 12  1  0
 12 13  2  0
 13 14  1  0
 15 14  1  1
 15 17  1  0
 16  7  1  0
 16 15  1  0
 17 18  2  0
 19 13  1  0
 20 19  2  0
 22 21  1  6
 22 23  1  0
 22 24  1  0
 24 26  1  0
 24 25  1  6
 25 17  1  0
 26 28  2  0
 26 27  1  0
M  END
$$$$
