NYT.pdb
     RDKit          3D

 28 28  0  0  1  0  0  0  0  0999 V2000
    8.3838  -20.4986   18.6734 N   0  0  0  0  0  0  0  0  0  0  0  0
    8.9922  -19.2369   18.4565 C   0  0  0  0  0  0  0  0  0  0  0  0
    9.4349  -19.0264   17.2862 O   0  0  0  0  0  0  0  0  0  0  0  0
    9.0881  -18.2481   19.5523 C   0  0  0  0  0  0  0  0  0  0  0  0
    8.4500  -18.7192   20.8208 C   0  0  2  0  0  0  0  0  0  0  0  0
    7.0440  -18.9312   20.6665 N   0  0  0  0  0  0  0  0  0  0  0  0
    8.7715  -17.8463   21.9800 C   0  0  0  0  0  0  0  0  0  0  0  0
    9.9558  -17.7473   22.3584 O   0  0  0  0  0  0  0  0  0  0  0  0
    8.2959  -12.0866   18.8807 O   0  0  0  0  0  0  0  0  0  0  0  0
    8.1261  -12.8084   20.0601 C   0  0  0  0  0  0  0  0  0  0  0  0
    7.2265  -12.3489   20.9747 C   0  0  0  0  0  0  0  0  0  0  0  0
    7.0427  -13.0503   22.1518 C   0  0  0  0  0  0  0  0  0  0  0  0
    7.7377  -14.2045   22.4406 C   0  0  0  0  0  0  0  0  0  0  0  0
    7.4910  -14.8916   23.6964 C   0  0  0  0  0  0  0  0  0  0  0  0
    8.1337  -16.2501   23.8393 C   0  0  2  0  0  0  0  0  0  0  0  0
    7.7923  -17.1038   22.6966 N   0  0  0  0  0  0  0  0  0  0  0  0
    7.8551  -16.9282   25.1128 C   0  0  0  0  0  0  0  0  0  0  0  0
    6.7173  -16.8387   25.6963 O   0  0  0  0  0  0  0  0  0  0  0  0
    8.6441  -14.6708   21.5232 C   0  0  0  0  0  0  0  0  0  0  0  0
    8.8320  -13.9625   20.3308 C   0  0  0  0  0  0  0  0  0  0  0  0
    7.3345  -20.2745   25.8288 C   0  0  0  0  0  0  0  0  0  0  0  0
    8.4971  -19.9112   26.7091 C   0  0  1  0  0  0  0  0  0  0  0  0
    9.7021  -20.1498   26.0458 O   0  0  0  0  0  0  0  0  0  0  0  0
    8.4708  -18.4061   27.0560 C   0  0  2  0  0  0  0  0  0  0  0  0
    8.7975  -17.7404   25.8151 N   0  0  0  0  0  0  0  0  0  0  0  0
    9.5886  -18.2239   28.0039 C   0  0  0  0  0  0  0  0  0  0  0  0
    9.5587  -18.7138   29.3055 O   0  0  0  0  0  0  0  0  0  0  0  0
   10.6201  -17.6049   27.6452 O   0  0  0  0  0  0  0  0  0  0  0  0
  1  2  1  0
  2  3  2  0
  4  5  1  0
  4  2  1  0
  5  6  1  6
  5  7  1  0
  7  8  2  0
  9 10  1  0
 10 11  2  0
 10 20  1  0
 11 12  1  0
 12 13  2  0
 13 14  1  0
 15 14  1  6
 15 17  1  0
 16  7  1  0
 16 15  1  0
 17 18  2  0
 19 13  1  0
 20 19  2  0
 22 21  1  6
 22 23  1  0
 22 24  1  0
 24 26  1  0
 24 25  1  6
 25 17  1  0
 26 28  2  0
 26 27  1  0
M  END
$$$$
