NYT.pdb
     RDKit          3D

 28 28  0  0  1  0  0  0  0  0999 V2000
   11.7651  -17.2940   16.7278 N   0  0  0  0  0  0  0  0  0  0  0  0
   10.4499  -17.0736   17.2085 C   0  0  0  0  0  0  0  0  0  0  0  0
    9.5145  -17.5986   16.5306 O   0  0  0  0  0  0  0  0  0  0  0  0
   10.2184  -16.2742   18.4312 C   0  0  0  0  0  0  0  0  0  0  0  0
    9.6140  -17.0712   19.5437 C   0  0  2  0  0  0  0  0  0  0  0  0
    8.3064  -17.5469   19.2128 N   0  0  0  0  0  0  0  0  0  0  0  0
    9.6476  -16.3526   20.8443 C   0  0  0  0  0  0  0  0  0  0  0  0
   10.7447  -16.1561   21.4039 O   0  0  0  0  0  0  0  0  0  0  0  0
    6.9410  -11.8137   28.0456 O   0  0  0  0  0  0  0  0  0  0  0  0
    7.0756  -12.4015   26.7898 C   0  0  0  0  0  0  0  0  0  0  0  0
    6.3048  -13.4869   26.4988 C   0  0  0  0  0  0  0  0  0  0  0  0
    6.4230  -14.0853   25.2580 C   0  0  0  0  0  0  0  0  0  0  0  0
    7.2953  -13.6254   24.2957 C   0  0  0  0  0  0  0  0  0  0  0  0
    7.3642  -14.3020   23.0122 C   0  0  0  0  0  0  0  0  0  0  0  0
    8.5307  -15.2423   22.8270 C   0  0  2  0  0  0  0  0  0  0  0  0
    8.4828  -15.8671   21.5010 N   0  0  0  0  0  0  0  0  0  0  0  0
    8.6782  -16.2505   23.8858 C   0  0  0  0  0  0  0  0  0  0  0  0
    7.7575  -17.1036   24.1457 O   0  0  0  0  0  0  0  0  0  0  0  0
    8.0730  -12.5333   24.5840 C   0  0  0  0  0  0  0  0  0  0  0  0
    7.9553  -11.9258   25.8393 C   0  0  0  0  0  0  0  0  0  0  0  0
   10.7253  -19.0906   24.0309 C   0  0  0  0  0  0  0  0  0  0  0  0
   11.1177  -18.3008   25.2479 C   0  0  1  0  0  0  0  0  0  0  0  0
   12.1776  -17.4428   24.9494 O   0  0  0  0  0  0  0  0  0  0  0  0
    9.9470  -17.4126   25.7241 C   0  0  2  0  0  0  0  0  0  0  0  0
    9.8348  -16.3850   24.7136 N   0  0  0  0  0  0  0  0  0  0  0  0
   10.4321  -16.7990   26.9769 C   0  0  0  0  0  0  0  0  0  0  0  0
   10.7967  -15.4596   27.0665 O   0  0  0  0  0  0  0  0  0  0  0  0
   10.5288  -17.4931   28.0184 O   0  0  0  0  0  0  0  0  0  0  0  0
  1  2  1  0
  2  3  2  0
  4  5  1  0
  4  2  1  0
  5  6  1  6
  5  7  1  0
  7  8  2  0
  9 10  1  0
 10 11  2  0
 10 20  1  0
 11 12  1  0
 12 13  2  0
 13 14  1  0
 15 14  1  1
 15 17  1  0
 16  7  1  0
 16 15  1  0
 17 18  2  0
 19 13  1  0
 20 19  2  0
 22 21  1  6
 22 23  1  0
 22 24  1  0
 24 26  1  0
 24 25  1  6
 25 17  1  0
 26 28  2  0
 26 27  1  0
M  END
$$$$
