NYT.pdb
     RDKit          3D

 28 28  0  0  1  0  0  0  0  0999 V2000
    7.7041  -18.5833   17.6570 N   0  0  0  0  0  0  0  0  0  0  0  0
    8.2836  -19.3103   18.7271 C   0  0  0  0  0  0  0  0  0  0  0  0
    8.0830  -20.5632   18.7214 O   0  0  0  0  0  0  0  0  0  0  0  0
    9.0693  -18.6171   19.7710 C   0  0  0  0  0  0  0  0  0  0  0  0
    9.0633  -17.1293   19.6142 C   0  0  2  0  0  0  0  0  0  0  0  0
   10.0082  -16.6902   18.6343 N   0  0  0  0  0  0  0  0  0  0  0  0
    9.2135  -16.4181   20.9106 C   0  0  0  0  0  0  0  0  0  0  0  0
   10.3271  -16.4030   21.4721 O   0  0  0  0  0  0  0  0  0  0  0  0
    6.9725  -11.8821   28.2931 O   0  0  0  0  0  0  0  0  0  0  0  0
    7.0627  -12.4099   27.0071 C   0  0  0  0  0  0  0  0  0  0  0  0
    6.1865  -13.3900   26.6483 C   0  0  0  0  0  0  0  0  0  0  0  0
    6.2589  -13.9274   25.3766 C   0  0  0  0  0  0  0  0  0  0  0  0
    7.1885  -13.5094   24.4493 C   0  0  0  0  0  0  0  0  0  0  0  0
    7.2045  -14.1170   23.1300 C   0  0  0  0  0  0  0  0  0  0  0  0
    8.2880  -15.1408   22.8913 C   0  0  2  0  0  0  0  0  0  0  0  0
    8.1446  -15.7415   21.5610 N   0  0  0  0  0  0  0  0  0  0  0  0
    8.3960  -16.1720   23.9326 C   0  0  0  0  0  0  0  0  0  0  0  0
    7.4602  -17.0210   24.1486 O   0  0  0  0  0  0  0  0  0  0  0  0
    8.0724  -12.5234   24.8058 C   0  0  0  0  0  0  0  0  0  0  0  0
    8.0011  -11.9777   26.0927 C   0  0  0  0  0  0  0  0  0  0  0  0
   10.3445  -19.0528   23.9001 C   0  0  0  0  0  0  0  0  0  0  0  0
   10.8030  -18.3013   25.1181 C   0  0  1  0  0  0  0  0  0  0  0  0
   11.8293  -17.4155   24.7849 O   0  0  0  0  0  0  0  0  0  0  0  0
    9.6527  -17.4503   25.7005 C   0  0  2  0  0  0  0  0  0  0  0  0
    9.5273  -16.3349   24.7896 N   0  0  0  0  0  0  0  0  0  0  0  0
   10.1731  -16.9562   26.9913 C   0  0  0  0  0  0  0  0  0  0  0  0
   10.2882  -17.7668   28.1160 O   0  0  0  0  0  0  0  0  0  0  0  0
   10.5334  -15.7591   27.1050 O   0  0  0  0  0  0  0  0  0  0  0  0
  1  2  1  0
  2  3  2  0
  4  5  1  0
  4  2  1  0
  5  6  1  6
  5  7  1  0
  7  8  2  0
  9 10  1  0
 10 11  2  0
 10 20  1  0
 11 12  1  0
 12 13  2  0
 13 14  1  0
 15 14  1  1
 15 17  1  0
 16  7  1  0
 16 15  1  0
 17 18  2  0
 19 13  1  0
 20 19  2  0
 22 21  1  6
 22 23  1  0
 22 24  1  0
 24 26  1  0
 24 25  1  6
 25 17  1  0
 26 28  2  0
 26 27  1  0
M  END
$$$$
