NYT.pdb
     RDKit          3D

 28 28  0  0  1  0  0  0  0  0999 V2000
    8.2593  -15.7489   18.4070 N   0  0  0  0  0  0  0  0  0  0  0  0
    8.3324  -14.5020   19.0770 C   0  0  0  0  0  0  0  0  0  0  0  0
    8.3416  -13.4719   18.3361 O   0  0  0  0  0  0  0  0  0  0  0  0
    8.3932  -14.4422   20.5537 C   0  0  0  0  0  0  0  0  0  0  0  0
    8.3749  -15.7944   21.1936 C   0  0  2  0  0  0  0  0  0  0  0  0
    7.1628  -16.5014   20.9171 N   0  0  0  0  0  0  0  0  0  0  0  0
    8.6869  -15.7429   22.6458 C   0  0  0  0  0  0  0  0  0  0  0  0
    9.7378  -15.1879   23.0242 O   0  0  0  0  0  0  0  0  0  0  0  0
    6.8610  -10.1949   26.6070 O   0  0  0  0  0  0  0  0  0  0  0  0
    6.8761  -11.5731   26.4042 C   0  0  0  0  0  0  0  0  0  0  0  0
    7.7821  -12.3181   27.0979 C   0  0  0  0  0  0  0  0  0  0  0  0
    7.8139  -13.6876   26.9112 C   0  0  0  0  0  0  0  0  0  0  0  0
    6.9600  -14.3355   26.0454 C   0  0  0  0  0  0  0  0  0  0  0  0
    7.0478  -15.7783   25.9019 C   0  0  0  0  0  0  0  0  0  0  0  0
    8.2007  -16.2868   25.0705 C   0  0  2  0  0  0  0  0  0  0  0  0
    7.8439  -16.2985   23.6480 N   0  0  0  0  0  0  0  0  0  0  0  0
    8.7355  -17.5877   25.4963 C   0  0  0  0  0  0  0  0  0  0  0  0
    8.0073  -18.6418   25.5375 O   0  0  0  0  0  0  0  0  0  0  0  0
    6.0464  -13.5900   25.3453 C   0  0  0  0  0  0  0  0  0  0  0  0
    6.0123  -12.2034   25.5324 C   0  0  0  0  0  0  0  0  0  0  0  0
   11.5728  -19.4284   23.9764 C   0  0  0  0  0  0  0  0  0  0  0  0
   11.8818  -19.2864   25.4403 C   0  0  1  0  0  0  0  0  0  0  0  0
   12.6499  -18.1428   25.6662 O   0  0  0  0  0  0  0  0  0  0  0  0
   10.5829  -19.1187   26.2594 C   0  0  2  0  0  0  0  0  0  0  0  0
   10.0891  -17.8097   25.8955 N   0  0  0  0  0  0  0  0  0  0  0  0
   11.0325  -19.0851   27.6659 C   0  0  0  0  0  0  0  0  0  0  0  0
   11.4522  -20.2220   28.3488 O   0  0  0  0  0  0  0  0  0  0  0  0
   11.0461  -17.9982   28.2938 O   0  0  0  0  0  0  0  0  0  0  0  0
  1  2  1  0
  2  3  2  0
  4  5  1  0
  4  2  1  0
  5  6  1  1
  5  7  1  0
  7  8  2  0
  9 10  1  0
 10 11  2  0
 10 20  1  0
 11 12  1  0
 12 13  2  0
 13 14  1  0
 15 14  1  1
 15 17  1  0
 16  7  1  0
 16 15  1  0
 17 18  2  0
 19 13  1  0
 20 19  2  0
 22 21  1  6
 22 23  1  0
 22 24  1  0
 24 26  1  0
 24 25  1  6
 25 17  1  0
 26 28  2  0
 26 27  1  0
M  END
$$$$
