NYT.pdb
     RDKit          3D

 28 28  0  0  1  0  0  0  0  0999 V2000
    8.2722  -15.4158   18.3136 N   0  0  0  0  0  0  0  0  0  0  0  0
    8.1844  -14.2119   19.0566 C   0  0  0  0  0  0  0  0  0  0  0  0
    8.0018  -13.1533   18.3813 O   0  0  0  0  0  0  0  0  0  0  0  0
    8.3031  -14.2258   20.5309 C   0  0  0  0  0  0  0  0  0  0  0  0
    8.4435  -15.6055   21.0920 C   0  0  2  0  0  0  0  0  0  0  0  0
    7.2652  -16.3897   20.8866 N   0  0  0  0  0  0  0  0  0  0  0  0
    8.8868  -15.6024   22.5106 C   0  0  0  0  0  0  0  0  0  0  0  0
   10.0228  -15.1720   22.7932 O   0  0  0  0  0  0  0  0  0  0  0  0
    6.3487  -10.1779   26.4084 O   0  0  0  0  0  0  0  0  0  0  0  0
    6.6534  -11.5330   26.3020 C   0  0  0  0  0  0  0  0  0  0  0  0
    5.7066  -12.3697   25.7914 C   0  0  0  0  0  0  0  0  0  0  0  0
    5.9886  -13.7183   25.6772 C   0  0  0  0  0  0  0  0  0  0  0  0
    7.1977  -14.2557   26.0617 C   0  0  0  0  0  0  0  0  0  0  0  0
    7.4259  -15.6822   25.9099 C   0  0  0  0  0  0  0  0  0  0  0  0
    8.5452  -16.0726   24.9751 C   0  0  2  0  0  0  0  0  0  0  0  0
    8.0791  -16.0693   23.5844 N   0  0  0  0  0  0  0  0  0  0  0  0
    9.2097  -17.3393   25.3111 C   0  0  0  0  0  0  0  0  0  0  0  0
    8.5912  -18.4616   25.2779 O   0  0  0  0  0  0  0  0  0  0  0  0
    8.1536  -13.4177   26.5761 C   0  0  0  0  0  0  0  0  0  0  0  0
    7.8705  -12.0520   26.6927 C   0  0  0  0  0  0  0  0  0  0  0  0
   13.4613  -19.7648   26.1139 C   0  0  0  0  0  0  0  0  0  0  0  0
   12.6922  -18.5173   25.7810 C   0  0  1  0  0  0  0  0  0  0  0  0
   12.8231  -18.2131   24.4248 O   0  0  0  0  0  0  0  0  0  0  0  0
   11.1839  -18.7172   26.0483 C   0  0  2  0  0  0  0  0  0  0  0  0
   10.5806  -17.4513   25.6971 N   0  0  0  0  0  0  0  0  0  0  0  0
   11.0873  -18.9026   27.5103 C   0  0  0  0  0  0  0  0  0  0  0  0
   11.0409  -20.1579   28.1080 O   0  0  0  0  0  0  0  0  0  0  0  0
   11.0437  -17.9024   28.2675 O   0  0  0  0  0  0  0  0  0  0  0  0
  1  2  1  0
  2  3  2  0
  4  5  1  0
  4  2  1  0
  5  6  1  1
  5  7  1  0
  7  8  2  0
  9 10  1  0
 10 11  2  0
 10 20  1  0
 11 12  1  0
 12 13  2  0
 13 14  1  0
 15 14  1  1
 15 17  1  0
 16  7  1  0
 16 15  1  0
 17 18  2  0
 19 13  1  0
 20 19  2  0
 22 21  1  6
 22 23  1  0
 22 24  1  0
 24 26  1  0
 24 25  1  1
 25 17  1  0
 26 28  2  0
 26 27  1  0
M  END
$$$$
