NYT.pdb
     RDKit          3D

 28 28  0  0  1  0  0  0  0  0999 V2000
    8.5289  -18.4054   16.6419 N   0  0  0  0  0  0  0  0  0  0  0  0
    9.5455  -17.4201   16.7123 C   0  0  0  0  0  0  0  0  0  0  0  0
   10.2189  -17.2386   15.6523 O   0  0  0  0  0  0  0  0  0  0  0  0
    9.7799  -16.6671   17.9637 C   0  0  0  0  0  0  0  0  0  0  0  0
    8.9886  -17.1942   19.1187 C   0  0  2  0  0  0  0  0  0  0  0  0
    7.6106  -17.3802   18.7836 N   0  0  0  0  0  0  0  0  0  0  0  0
    9.1717  -16.3859   20.3524 C   0  0  0  0  0  0  0  0  0  0  0  0
   10.3263  -16.1517   20.7619 O   0  0  0  0  0  0  0  0  0  0  0  0
    7.2174  -12.0674   27.9332 O   0  0  0  0  0  0  0  0  0  0  0  0
    7.1740  -12.6989   26.6923 C   0  0  0  0  0  0  0  0  0  0  0  0
    7.2738  -11.9293   25.5721 C   0  0  0  0  0  0  0  0  0  0  0  0
    7.2329  -12.5362   24.3306 C   0  0  0  0  0  0  0  0  0  0  0  0
    7.0943  -13.8986   24.1781 C   0  0  0  0  0  0  0  0  0  0  0  0
    7.0624  -14.4682   22.8422 C   0  0  0  0  0  0  0  0  0  0  0  0
    8.2724  -15.2786   22.4445 C   0  0  2  0  0  0  0  0  0  0  0  0
    8.0900  -15.8538   21.1077 N   0  0  0  0  0  0  0  0  0  0  0  0
    8.6674  -16.3067   23.4173 C   0  0  0  0  0  0  0  0  0  0  0  0
    7.9753  -17.3696   23.6024 O   0  0  0  0  0  0  0  0  0  0  0  0
    6.9937  -14.6772   25.3025 C   0  0  0  0  0  0  0  0  0  0  0  0
    7.0347  -14.0652   26.5605 C   0  0  0  0  0  0  0  0  0  0  0  0
   12.3407  -18.5806   25.6589 C   0  0  0  0  0  0  0  0  0  0  0  0
   11.7348  -17.5502   24.7479 C   0  0  1  0  0  0  0  0  0  0  0  0
   11.7752  -17.9888   23.4232 O   0  0  0  0  0  0  0  0  0  0  0  0
   10.2471  -17.3207   25.0952 C   0  0  2  0  0  0  0  0  0  0  0  0
    9.8359  -16.2334   24.2359 N   0  0  0  0  0  0  0  0  0  0  0  0
   10.2614  -16.8448   26.4933 C   0  0  0  0  0  0  0  0  0  0  0  0
   10.4121  -15.5035   26.8300 O   0  0  0  0  0  0  0  0  0  0  0  0
   10.1340  -17.6642   27.4357 O   0  0  0  0  0  0  0  0  0  0  0  0
  1  2  1  0
  2  3  2  0
  4  5  1  0
  4  2  1  0
  5  6  1  6
  5  7  1  0
  7  8  2  0
  9 10  1  0
 10 11  2  0
 10 20  1  0
 11 12  1  0
 12 13  2  0
 13 14  1  0
 15 14  1  1
 15 17  1  0
 16  7  1  0
 16 15  1  0
 17 18  2  0
 19 13  1  0
 20 19  2  0
 22 21  1  1
 22 23  1  0
 22 24  1  0
 24 26  1  0
 24 25  1  6
 25 17  1  0
 26 28  2  0
 26 27  1  0
M  END
$$$$
