NYT.pdb
     RDKit          3D

 28 28  0  0  1  0  0  0  0  0999 V2000
    8.3593  -19.9220   17.7685 N   0  0  0  0  0  0  0  0  0  0  0  0
    9.5840  -20.4427   18.2567 C   0  0  0  0  0  0  0  0  0  0  0  0
    9.6591  -21.7069   18.3354 O   0  0  0  0  0  0  0  0  0  0  0  0
   10.6878  -19.5368   18.6423 C   0  0  0  0  0  0  0  0  0  0  0  0
   10.3296  -18.0905   18.5078 C   0  0  2  0  0  0  0  0  0  0  0  0
   10.8496  -17.5196   17.3039 N   0  0  0  0  0  0  0  0  0  0  0  0
   10.6860  -17.2996   19.7146 C   0  0  0  0  0  0  0  0  0  0  0  0
   11.8656  -16.9263   19.8723 O   0  0  0  0  0  0  0  0  0  0  0  0
    7.7071  -11.8249   17.6974 O   0  0  0  0  0  0  0  0  0  0  0  0
    7.9919  -12.6422   18.7890 C   0  0  0  0  0  0  0  0  0  0  0  0
    9.2449  -12.5939   19.3224 C   0  0  0  0  0  0  0  0  0  0  0  0
    9.5484  -13.3970   20.4061 C   0  0  0  0  0  0  0  0  0  0  0  0
    8.6283  -14.2513   20.9736 C   0  0  0  0  0  0  0  0  0  0  0  0
    9.0161  -15.0639   22.1134 C   0  0  0  0  0  0  0  0  0  0  0  0
   10.1013  -16.0813   21.8560 C   0  0  2  0  0  0  0  0  0  0  0  0
    9.7459  -16.9364   20.7186 N   0  0  0  0  0  0  0  0  0  0  0  0
   10.4788  -16.8835   23.0279 C   0  0  0  0  0  0  0  0  0  0  0  0
    9.6045  -17.4514   23.7737 O   0  0  0  0  0  0  0  0  0  0  0  0
    7.3660  -14.3033   20.4402 C   0  0  0  0  0  0  0  0  0  0  0  0
    7.0563  -13.4913   19.3431 C   0  0  0  0  0  0  0  0  0  0  0  0
   12.2533  -19.9690   22.8929 C   0  0  0  0  0  0  0  0  0  0  0  0
   13.0599  -19.0976   23.8141 C   0  0  1  0  0  0  0  0  0  0  0  0
   14.0260  -18.3926   23.0940 O   0  0  0  0  0  0  0  0  0  0  0  0
   12.1597  -18.0454   24.4989 C   0  0  2  0  0  0  0  0  0  0  0  0
   11.8253  -17.1119   23.4469 N   0  0  0  0  0  0  0  0  0  0  0  0
   13.0469  -17.3728   25.4694 C   0  0  0  0  0  0  0  0  0  0  0  0
   13.3796  -17.9332   26.6984 O   0  0  0  0  0  0  0  0  0  0  0  0
   13.5341  -16.2481   25.1986 O   0  0  0  0  0  0  0  0  0  0  0  0
  1  2  1  0
  2  3  2  0
  4  5  1  0
  4  2  1  0
  5  6  1  6
  5  7  1  0
  7  8  2  0
  9 10  1  0
 10 11  2  0
 10 20  1  0
 11 12  1  0
 12 13  2  0
 13 14  1  0
 15 14  1  1
 15 17  1  0
 16  7  1  0
 16 15  1  0
 17 18  2  0
 19 13  1  0
 20 19  2  0
 22 21  1  6
 22 23  1  0
 22 24  1  0
 24 26  1  0
 24 25  1  6
 25 17  1  0
 26 28  2  0
 26 27  1  0
M  END
$$$$
