NYT.pdb
     RDKit          3D

 28 28  0  0  1  0  0  0  0  0999 V2000
    8.1964  -17.8928   17.1551 N   0  0  0  0  0  0  0  0  0  0  0  0
    7.7761  -18.5874   18.3170 C   0  0  0  0  0  0  0  0  0  0  0  0
    7.1490  -19.6728   18.1201 O   0  0  0  0  0  0  0  0  0  0  0  0
    8.0683  -18.0498   19.6636 C   0  0  0  0  0  0  0  0  0  0  0  0
    8.7363  -16.7118   19.6253 C   0  0  2  0  0  0  0  0  0  0  0  0
    9.9387  -16.7353   18.8510 N   0  0  0  0  0  0  0  0  0  0  0  0
    8.9416  -16.1372   20.9806 C   0  0  0  0  0  0  0  0  0  0  0  0
   10.0212  -16.3400   21.5714 O   0  0  0  0  0  0  0  0  0  0  0  0
    7.1115  -11.8278   28.6178 O   0  0  0  0  0  0  0  0  0  0  0  0
    7.1743  -12.2810   27.3020 C   0  0  0  0  0  0  0  0  0  0  0  0
    6.1166  -12.9857   26.8105 C   0  0  0  0  0  0  0  0  0  0  0  0
    6.1587  -13.4447   25.5070 C   0  0  0  0  0  0  0  0  0  0  0  0
    7.2352  -13.2168   24.6776 C   0  0  0  0  0  0  0  0  0  0  0  0
    7.2094  -13.7263   23.3176 C   0  0  0  0  0  0  0  0  0  0  0  0
    8.1589  -14.8626   23.0236 C   0  0  2  0  0  0  0  0  0  0  0  0
    7.9635  -15.3561   21.6564 N   0  0  0  0  0  0  0  0  0  0  0  0
    8.1180  -15.9621   23.9977 C   0  0  0  0  0  0  0  0  0  0  0  0
    7.0808  -16.7003   24.1469 O   0  0  0  0  0  0  0  0  0  0  0  0
    8.3019  -12.5080   25.1678 C   0  0  0  0  0  0  0  0  0  0  0  0
    8.2617  -12.0424   26.4871 C   0  0  0  0  0  0  0  0  0  0  0  0
    9.4109  -19.1603   24.0303 C   0  0  0  0  0  0  0  0  0  0  0  0
   10.0454  -18.4986   25.2212 C   0  0  1  0  0  0  0  0  0  0  0  0
   11.2301  -17.8609   24.8490 O   0  0  0  0  0  0  0  0  0  0  0  0
    9.1164  -17.4087   25.8004 C   0  0  2  0  0  0  0  0  0  0  0  0
    9.2030  -16.3171   24.8566 N   0  0  0  0  0  0  0  0  0  0  0  0
    9.7650  -17.0005   27.0629 C   0  0  0  0  0  0  0  0  0  0  0  0
    9.7410  -17.7876   28.2097 O   0  0  0  0  0  0  0  0  0  0  0  0
   10.3696  -15.9025   27.1307 O   0  0  0  0  0  0  0  0  0  0  0  0
  1  2  1  0
  2  3  2  0
  4  5  1  0
  4  2  1  0
  5  6  1  1
  5  7  1  0
  7  8  2  0
  9 10  1  0
 10 11  2  0
 10 20  1  0
 11 12  1  0
 12 13  2  0
 13 14  1  0
 15 14  1  1
 15 17  1  0
 16  7  1  0
 16 15  1  0
 17 18  2  0
 19 13  1  0
 20 19  2  0
 22 21  1  6
 22 23  1  0
 22 24  1  0
 24 26  1  0
 24 25  1  6
 25 17  1  0
 26 28  2  0
 26 27  1  0
M  END
$$$$
