NYT.pdb
     RDKit          3D

 28 28  0  0  1  0  0  0  0  0999 V2000
    9.6258  -18.2503   17.1279 N   0  0  0  0  0  0  0  0  0  0  0  0
   10.7308  -17.4560   17.5245 C   0  0  0  0  0  0  0  0  0  0  0  0
   11.7542  -17.5134   16.7766 O   0  0  0  0  0  0  0  0  0  0  0  0
   10.6603  -16.6216   18.7438 C   0  0  0  0  0  0  0  0  0  0  0  0
    9.9477  -17.2970   19.8726 C   0  0  2  0  0  0  0  0  0  0  0  0
    8.6552  -17.7700   19.4836 N   0  0  0  0  0  0  0  0  0  0  0  0
    9.9037  -16.4617   21.1011 C   0  0  0  0  0  0  0  0  0  0  0  0
   10.9732  -16.1176   21.6429 O   0  0  0  0  0  0  0  0  0  0  0  0
    6.8031  -11.6853   27.9586 O   0  0  0  0  0  0  0  0  0  0  0  0
    6.9473  -12.3817   26.7607 C   0  0  0  0  0  0  0  0  0  0  0  0
    7.7460  -11.8468   25.7948 C   0  0  0  0  0  0  0  0  0  0  0  0
    7.9027  -12.5219   24.5985 C   0  0  0  0  0  0  0  0  0  0  0  0
    7.2792  -13.7233   24.3406 C   0  0  0  0  0  0  0  0  0  0  0  0
    7.4922  -14.3785   23.0618 C   0  0  0  0  0  0  0  0  0  0  0  0
    8.6683  -15.3227   22.9953 C   0  0  2  0  0  0  0  0  0  0  0  0
    8.6936  -16.0234   21.7071 N   0  0  0  0  0  0  0  0  0  0  0  0
    8.7593  -16.2672   24.1173 C   0  0  0  0  0  0  0  0  0  0  0  0
    7.8574  -17.1513   24.3370 O   0  0  0  0  0  0  0  0  0  0  0  0
    6.4746  -14.2655   25.3097 C   0  0  0  0  0  0  0  0  0  0  0  0
    6.3143  -13.5841   26.5216 C   0  0  0  0  0  0  0  0  0  0  0  0
   12.4784  -17.0487   25.4557 C   0  0  0  0  0  0  0  0  0  0  0  0
   11.3664  -18.0596   25.4650 C   0  0  1  0  0  0  0  0  0  0  0  0
   11.6590  -19.0957   26.3538 O   0  0  0  0  0  0  0  0  0  0  0  0
   10.0477  -17.4172   25.9494 C   0  0  2  0  0  0  0  0  0  0  0  0
    9.8362  -16.3011   25.0555 N   0  0  0  0  0  0  0  0  0  0  0  0
   10.3605  -16.8974   27.2960 C   0  0  0  0  0  0  0  0  0  0  0  0
   10.5043  -17.7230   28.4064 O   0  0  0  0  0  0  0  0  0  0  0  0
   10.5078  -15.6635   27.4730 O   0  0  0  0  0  0  0  0  0  0  0  0
  1  2  1  0
  2  3  2  0
  4  5  1  0
  4  2  1  0
  5  6  1  6
  5  7  1  0
  7  8  2  0
  9 10  1  0
 10 11  2  0
 10 20  1  0
 11 12  1  0
 12 13  2  0
 13 14  1  0
 15 14  1  1
 15 17  1  0
 16  7  1  0
 16 15  1  0
 17 18  2  0
 19 13  1  0
 20 19  2  0
 22 21  1  1
 22 23  1  0
 22 24  1  0
 24 26  1  0
 24 25  1  6
 25 17  1  0
 26 28  2  0
 26 27  1  0
M  END
$$$$
