NYT.pdb
     RDKit          3D

 28 28  0  0  1  0  0  0  0  0999 V2000
   11.9249  -17.4608   16.8324 N   0  0  0  0  0  0  0  0  0  0  0  0
   10.7279  -17.7209   17.5459 C   0  0  0  0  0  0  0  0  0  0  0  0
    9.9603  -18.5978   17.0438 O   0  0  0  0  0  0  0  0  0  0  0  0
   10.4238  -16.9947   18.7980 C   0  0  0  0  0  0  0  0  0  0  0  0
   10.3791  -17.8900   19.9957 C   0  0  2  0  0  0  0  0  0  0  0  0
    9.3220  -18.8495   19.9080 N   0  0  0  0  0  0  0  0  0  0  0  0
   10.3574  -17.1325   21.2742 C   0  0  0  0  0  0  0  0  0  0  0  0
   11.3825  -16.5226   21.6387 O   0  0  0  0  0  0  0  0  0  0  0  0
    7.2993  -11.9955   18.9817 O   0  0  0  0  0  0  0  0  0  0  0  0
    7.4489  -12.8602   20.0636 C   0  0  0  0  0  0  0  0  0  0  0  0
    8.2877  -12.4929   21.0728 C   0  0  0  0  0  0  0  0  0  0  0  0
    8.4504  -13.3368   22.1558 C   0  0  0  0  0  0  0  0  0  0  0  0
    7.7939  -14.5439   22.2574 C   0  0  0  0  0  0  0  0  0  0  0  0
    8.0106  -15.3786   23.4263 C   0  0  0  0  0  0  0  0  0  0  0  0
    9.2137  -16.2888   23.3698 C   0  0  2  0  0  0  0  0  0  0  0  0
    9.2176  -17.0599   22.1222 N   0  0  0  0  0  0  0  0  0  0  0  0
    9.3737  -17.1653   24.5383 C   0  0  0  0  0  0  0  0  0  0  0  0
    8.4684  -18.0019   24.8900 O   0  0  0  0  0  0  0  0  0  0  0  0
    6.9488  -14.9178   21.2443 C   0  0  0  0  0  0  0  0  0  0  0  0
    6.7823  -14.0653   20.1468 C   0  0  0  0  0  0  0  0  0  0  0  0
   12.5801  -19.4795   27.4594 C   0  0  0  0  0  0  0  0  0  0  0  0
   12.2327  -18.4421   26.4290 C   0  0  1  0  0  0  0  0  0  0  0  0
   12.5669  -18.8951   25.1515 O   0  0  0  0  0  0  0  0  0  0  0  0
   10.7125  -18.1679   26.4202 C   0  0  2  0  0  0  0  0  0  0  0  0
   10.5266  -17.1795   25.3818 N   0  0  0  0  0  0  0  0  0  0  0  0
   10.4406  -17.5414   27.7297 C   0  0  0  0  0  0  0  0  0  0  0  0
   10.0204  -18.2685   28.8387 O   0  0  0  0  0  0  0  0  0  0  0  0
   10.5869  -16.3031   27.8746 O   0  0  0  0  0  0  0  0  0  0  0  0
  1  2  1  0
  2  3  2  0
  4  5  1  0
  4  2  1  0
  5  6  1  6
  5  7  1  0
  7  8  2  0
  9 10  1  0
 10 11  2  0
 10 20  1  0
 11 12  1  0
 12 13  2  0
 13 14  1  0
 15 14  1  1
 15 17  1  0
 16  7  1  0
 16 15  1  0
 17 18  2  0
 19 13  1  0
 20 19  2  0
 22 21  1  1
 22 23  1  0
 22 24  1  0
 24 26  1  0
 24 25  1  6
 25 17  1  0
 26 28  2  0
 26 27  1  0
M  END
$$$$
