QRQ.pdb
     RDKit          3D

 30 29  0  0  1  0  0  0  0  0999 V2000
   13.8917  -13.9454   18.9587 N   0  0  0  0  0  0  0  0  0  0  0  0
   12.9557  -14.7595   18.2412 C   0  0  0  0  0  0  0  0  0  0  0  0
   13.3194  -15.8631   17.7640 O   0  0  0  0  0  0  0  0  0  0  0  0
   11.5544  -14.3347   18.0424 C   0  0  0  0  0  0  0  0  0  0  0  0
   10.8550  -14.1448   19.3510 C   0  0  0  0  0  0  0  0  0  0  0  0
    9.3429  -14.1764   19.1193 C   0  0  2  0  0  0  0  0  0  0  0  0
    8.8913  -12.9848   18.4718 N   0  0  0  0  0  0  0  0  0  0  0  0
    8.6210  -14.4548   20.3872 C   0  0  0  0  0  0  0  0  0  0  0  0
    8.6497  -13.6145   21.3226 O   0  0  0  0  0  0  0  0  0  0  0  0
    6.5711  -20.8668   20.9619 N   0  0  0  0  0  0  0  0  0  0  0  0
    6.9541  -21.1371   22.2922 C   0  0  0  0  0  0  0  0  0  0  0  0
    7.6870  -22.1675   22.5334 N   0  0  0  0  0  0  0  0  0  0  0  0
    6.5297  -20.2713   23.3636 N   0  0  0  0  0  0  0  0  0  0  0  0
    5.5951  -19.2178   23.1544 C   0  0  0  0  0  0  0  0  0  0  0  0
    6.2265  -17.8545   23.1881 C   0  0  0  0  0  0  0  0  0  0  0  0
    6.7482  -17.4351   21.8447 C   0  0  0  0  0  0  0  0  0  0  0  0
    7.3943  -16.0752   21.9013 C   0  0  2  0  0  0  0  0  0  0  0  0
    7.8813  -15.6446   20.6103 N   0  0  0  0  0  0  0  0  0  0  0  0
    8.5961  -16.1560   22.8084 C   0  0  0  0  0  0  0  0  0  0  0  0
    9.7226  -15.7726   22.4103 O   0  0  0  0  0  0  0  0  0  0  0  0
    7.9634  -22.3923   23.5061 N   0  0  0  0  0  0  0  0  0  0  0  0
    6.0058  -12.9046   25.9929 C   0  0  0  0  0  0  0  0  0  0  0  0
    7.1718  -12.8667   26.8409 O   0  0  0  0  0  0  0  0  0  0  0  0
    7.1162  -12.0856   27.7999 C   0  0  0  0  0  0  0  0  0  0  0  0
    8.2744  -13.7490   26.4705 C   0  0  0  0  0  0  0  0  0  0  0  0
    8.0188  -14.6284   25.2924 C   0  0  1  0  0  0  0  0  0  0  0  0
    8.7730  -15.9192   25.3068 N   0  0  0  0  0  0  0  0  0  0  0  0
    8.4118  -16.6808   24.1297 C   0  0  0  0  0  0  0  0  0  0  0  0
    8.5187  -16.7407   26.4950 O   0  0  0  0  0  0  0  0  0  0  0  0
    9.4269  -16.7652   27.5271 O   0  0  0  0  0  0  0  0  0  0  0  0
  1  2  1  0
  2  3  2  0
  4  2  1  0
  4  5  1  0
  6  5  1  0
  6  8  1  0
  6  7  1  1
  8  9  2  0
 10 11  1  0
 11 12  2  0
 11 13  1  0
 13 14  1  0
 14 15  1  0
 16 15  1  0
 17 19  1  0
 17 16  1  6
 18  8  1  0
 18 17  1  0
 19 20  2  0
 21 22  1  0
 22 23  2  0
 24 22  1  0
 24 25  1  0
 26 25  1  6
 27 26  1  0
 27 19  1  0
 28 26  1  0
 29 28  1  0
 30 28  2  0
M  END
$$$$
