QRQ.pdb
     RDKit          3D

 30 29  0  0  1  0  0  0  0  0999 V2000
   13.1026  -13.2677   19.7063 N   0  0  0  0  0  0  0  0  0  0  0  0
   12.6186  -13.8269   18.4788 C   0  0  0  0  0  0  0  0  0  0  0  0
   13.4294  -14.1840   17.5882 O   0  0  0  0  0  0  0  0  0  0  0  0
   11.1733  -13.9992   18.2243 C   0  0  0  0  0  0  0  0  0  0  0  0
   10.3852  -13.9079   19.4926 C   0  0  0  0  0  0  0  0  0  0  0  0
    8.9045  -14.1314   19.1787 C   0  0  2  0  0  0  0  0  0  0  0  0
    8.2977  -12.9446   18.6623 N   0  0  0  0  0  0  0  0  0  0  0  0
    8.1915  -14.6778   20.3616 C   0  0  0  0  0  0  0  0  0  0  0  0
    7.2823  -14.0050   20.9116 O   0  0  0  0  0  0  0  0  0  0  0  0
    5.7021  -22.5111   25.8145 N   0  0  0  0  0  0  0  0  0  0  0  0
    6.3831  -22.0160   24.6828 C   0  0  0  0  0  0  0  0  0  0  0  0
    6.8337  -22.8496   23.8115 N   0  0  0  0  0  0  0  0  0  0  0  0
    6.5704  -20.5977   24.5070 N   0  0  0  0  0  0  0  0  0  0  0  0
    7.0694  -20.0495   23.2915 C   0  0  0  0  0  0  0  0  0  0  0  0
    7.2413  -18.5574   23.3447 C   0  0  0  0  0  0  0  0  0  0  0  0
    7.7154  -17.9918   22.0378 C   0  0  0  0  0  0  0  0  0  0  0  0
    7.8411  -16.4915   22.0967 C   0  0  2  0  0  0  0  0  0  0  0  0
    8.4839  -15.9480   20.9216 N   0  0  0  0  0  0  0  0  0  0  0  0
    8.7173  -16.1325   23.2702 C   0  0  0  0  0  0  0  0  0  0  0  0
    9.9668  -16.2013   23.1778 O   0  0  0  0  0  0  0  0  0  0  0  0
    7.3224  -22.5042   22.9661 N   0  0  0  0  0  0  0  0  0  0  0  0
    6.9255  -11.4881   26.7117 C   0  0  0  0  0  0  0  0  0  0  0  0
    6.2122  -12.7043   27.0155 O   0  0  0  0  0  0  0  0  0  0  0  0
    5.1153  -12.5618   27.5716 C   0  0  0  0  0  0  0  0  0  0  0  0
    6.8644  -13.9535   26.6339 C   0  0  0  0  0  0  0  0  0  0  0  0
    8.1647  -13.8008   25.9181 C   0  0  1  0  0  0  0  0  0  0  0  0
    8.8292  -15.0904   25.5572 N   0  0  0  0  0  0  0  0  0  0  0  0
    8.0820  -15.7134   24.4850 C   0  0  0  0  0  0  0  0  0  0  0  0
    8.9296  -16.0375   26.6728 O   0  0  0  0  0  0  0  0  0  0  0  0
    8.2438  -17.2287   26.6335 O   0  0  0  0  0  0  0  0  0  0  0  0
  1  2  1  0
  2  3  2  0
  4  2  1  0
  4  5  1  0
  6  5  1  0
  6  8  1  0
  6  7  1  1
  8  9  2  0
 10 11  1  0
 11 12  2  0
 11 13  1  0
 13 14  1  0
 14 15  1  0
 16 15  1  0
 17 19  1  0
 17 16  1  6
 18  8  1  0
 18 17  1  0
 19 20  2  0
 21 22  1  0
 22 23  2  0
 24 22  1  0
 24 25  1  0
 26 25  1  6
 27 26  1  0
 27 19  1  0
 28 26  1  0
 29 28  1  0
 30 28  2  0
M  END
$$$$
