QRQ.pdb
     RDKit          3D

 30 29  0  0  1  0  0  0  0  0999 V2000
    9.0379  -12.3213   20.0899 N   0  0  0  0  0  0  0  0  0  0  0  0
    9.8246  -12.4868   18.9036 C   0  0  0  0  0  0  0  0  0  0  0  0
   10.9054  -11.8599   18.7739 O   0  0  0  0  0  0  0  0  0  0  0  0
    9.3974  -13.3859   17.8115 C   0  0  0  0  0  0  0  0  0  0  0  0
    8.2126  -14.2047   18.2160 C   0  0  0  0  0  0  0  0  0  0  0  0
    8.6862  -15.5991   18.6311 C   0  0  2  0  0  0  0  0  0  0  0  0
    8.6047  -16.5214   17.5420 N   0  0  0  0  0  0  0  0  0  0  0  0
    7.9586  -16.0651   19.8392 C   0  0  0  0  0  0  0  0  0  0  0  0
    6.7805  -16.4932   19.7353 O   0  0  0  0  0  0  0  0  0  0  0  0
    8.7318  -23.0736   21.6788 N   0  0  0  0  0  0  0  0  0  0  0  0
    8.1212  -22.1741   20.7801 C   0  0  0  0  0  0  0  0  0  0  0  0
    7.4200  -22.6430   19.8078 N   0  0  0  0  0  0  0  0  0  0  0  0
    8.2818  -20.7518   20.9500 N   0  0  0  0  0  0  0  0  0  0  0  0
    9.1870  -20.2053   21.9034 C   0  0  0  0  0  0  0  0  0  0  0  0
    9.1991  -18.7025   21.9105 C   0  0  0  0  0  0  0  0  0  0  0  0
    7.8625  -18.1239   22.2730 C   0  0  0  0  0  0  0  0  0  0  0  0
    7.9027  -16.6183   22.3118 C   0  0  2  0  0  0  0  0  0  0  0  0
    8.5301  -16.0555   21.1375 N   0  0  0  0  0  0  0  0  0  0  0  0
    8.7408  -16.1942   23.4914 C   0  0  0  0  0  0  0  0  0  0  0  0
    9.9934  -16.2406   23.4333 O   0  0  0  0  0  0  0  0  0  0  0  0
    6.9952  -21.9996   19.1160 N   0  0  0  0  0  0  0  0  0  0  0  0
    5.9002  -12.7266   27.7711 C   0  0  0  0  0  0  0  0  0  0  0  0
    6.0798  -12.4373   26.3695 O   0  0  0  0  0  0  0  0  0  0  0  0
    5.3406  -11.5618   25.9004 C   0  0  0  0  0  0  0  0  0  0  0  0
    7.1063  -13.2068   25.6728 C   0  0  0  0  0  0  0  0  0  0  0  0
    7.8142  -14.2240   26.5039 C   0  0  2  0  0  0  0  0  0  0  0  0
    8.7770  -15.0818   25.7475 N   0  0  0  0  0  0  0  0  0  0  0  0
    8.0660  -15.7402   24.6719 C   0  0  0  0  0  0  0  0  0  0  0  0
    9.4344  -16.1023   26.5708 O   0  0  0  0  0  0  0  0  0  0  0  0
   10.4297  -15.7466   27.4504 O   0  0  0  0  0  0  0  0  0  0  0  0
  1  2  1  0
  2  3  2  0
  4  2  1  0
  4  5  1  0
  6  5  1  0
  6  8  1  0
  6  7  1  6
  8  9  2  0
 10 11  1  0
 11 12  2  0
 11 13  1  0
 13 14  1  0
 14 15  1  0
 16 15  1  0
 17 19  1  0
 17 16  1  6
 18  8  1  0
 18 17  1  0
 19 20  2  0
 21 22  1  0
 22 23  2  0
 24 22  1  0
 24 25  1  0
 26 25  1  6
 27 26  1  0
 27 19  1  0
 28 26  1  0
 29 28  1  0
 30 28  2  0
M  END
$$$$
