QRQ.pdb
     RDKit          3D

 30 29  0  0  1  0  0  0  0  0999 V2000
   10.4031  -20.3013   13.3978 N   0  0  0  0  0  0  0  0  0  0  0  0
   11.7759  -20.3798   13.8015 C   0  0  0  0  0  0  0  0  0  0  0  0
   12.4703  -21.3751   13.4772 O   0  0  0  0  0  0  0  0  0  0  0  0
   12.4097  -19.3098   14.5995 C   0  0  0  0  0  0  0  0  0  0  0  0
   11.4304  -18.2286   14.9309 C   0  0  0  0  0  0  0  0  0  0  0  0
   12.1163  -16.8691   14.7809 C   0  0  2  0  0  0  0  0  0  0  0  0
   13.2933  -16.9668   13.9755 N   0  0  0  0  0  0  0  0  0  0  0  0
   12.3743  -16.2593   16.1104 C   0  0  0  0  0  0  0  0  0  0  0  0
   13.4888  -16.4231   16.6697 O   0  0  0  0  0  0  0  0  0  0  0  0
    7.1015  -14.4131   19.8253 N   0  0  0  0  0  0  0  0  0  0  0  0
    7.3709  -13.0301   19.8916 C   0  0  0  0  0  0  0  0  0  0  0  0
    6.5426  -12.2065   19.3505 N   0  0  0  0  0  0  0  0  0  0  0  0
    8.5564  -12.5490   20.5554 N   0  0  0  0  0  0  0  0  0  0  0  0
    9.6614  -13.4023   20.8342 C   0  0  0  0  0  0  0  0  0  0  0  0
   10.7567  -13.3018   19.8100 C   0  0  0  0  0  0  0  0  0  0  0  0
   10.4418  -14.0733   18.5618 C   0  0  0  0  0  0  0  0  0  0  0  0
   11.6156  -14.9050   18.1137 C   0  0  2  0  0  0  0  0  0  0  0  0
   11.4114  -15.4822   16.8043 N   0  0  0  0  0  0  0  0  0  0  0  0
   11.7754  -16.0587   19.0713 C   0  0  0  0  0  0  0  0  0  0  0  0
   11.3851  -17.2085   18.7553 O   0  0  0  0  0  0  0  0  0  0  0  0
    6.7443  -11.1905   19.3523 N   0  0  0  0  0  0  0  0  0  0  0  0
   14.5093  -20.5472   19.6002 C   0  0  0  0  0  0  0  0  0  0  0  0
   14.9849  -19.9090   20.8030 O   0  0  0  0  0  0  0  0  0  0  0  0
   16.1242  -20.2274   21.1682 C   0  0  0  0  0  0  0  0  0  0  0  0
   14.0717  -18.9680   21.4448 C   0  0  0  0  0  0  0  0  0  0  0  0
   13.6136  -17.8376   20.5853 C   0  0  1  0  0  0  0  0  0  0  0  0
   12.6968  -16.8727   21.2662 N   0  0  0  0  0  0  0  0  0  0  0  0
   12.3826  -15.8016   20.3442 C   0  0  0  0  0  0  0  0  0  0  0  0
   13.2539  -16.2903   22.4917 O   0  0  0  0  0  0  0  0  0  0  0  0
   13.1752  -16.9751   23.6815 O   0  0  0  0  0  0  0  0  0  0  0  0
  1  2  1  0
  2  3  2  0
  4  2  1  0
  4  5  1  0
  6  5  1  0
  6  8  1  0
  6  7  1  1
  8  9  2  0
 10 11  1  0
 11 12  2  0
 11 13  1  0
 13 14  1  0
 14 15  1  0
 16 15  1  0
 17 19  1  0
 17 16  1  1
 18  8  1  0
 18 17  1  0
 19 20  2  0
 21 22  1  0
 22 23  2  0
 24 22  1  0
 24 25  1  0
 26 25  1  6
 27 26  1  0
 27 19  1  0
 28 26  1  0
 29 28  1  0
 30 28  2  0
M  END
$$$$
