QRQ.pdb
     RDKit          3D

 30 29  0  0  1  0  0  0  0  0999 V2000
   17.0359  -14.5987   17.3120 N   0  0  0  0  0  0  0  0  0  0  0  0
   16.3039  -15.3498   16.3356 C   0  0  0  0  0  0  0  0  0  0  0  0
   16.9025  -15.8561   15.3541 O   0  0  0  0  0  0  0  0  0  0  0  0
   14.8443  -15.5506   16.4492 C   0  0  0  0  0  0  0  0  0  0  0  0
   14.2870  -14.8184   17.6286 C   0  0  0  0  0  0  0  0  0  0  0  0
   12.7817  -15.0790   17.7136 C   0  0  2  0  0  0  0  0  0  0  0  0
   12.0665  -14.3179   16.7377 N   0  0  0  0  0  0  0  0  0  0  0  0
   12.2857  -14.8583   19.0962 C   0  0  0  0  0  0  0  0  0  0  0  0
   12.9058  -14.0830   19.8684 O   0  0  0  0  0  0  0  0  0  0  0  0
    7.8105  -12.1179   18.3572 N   0  0  0  0  0  0  0  0  0  0  0  0
    7.5059  -13.3398   17.7217 C   0  0  0  0  0  0  0  0  0  0  0  0
    7.5828  -13.4121   16.4387 N   0  0  0  0  0  0  0  0  0  0  0  0
    7.1145  -14.4885   18.4994 N   0  0  0  0  0  0  0  0  0  0  0  0
    7.1617  -14.4855   19.9223 C   0  0  0  0  0  0  0  0  0  0  0  0
    8.5336  -14.2008   20.4658 C   0  0  0  0  0  0  0  0  0  0  0  0
    9.1643  -15.4142   21.0842 C   0  0  0  0  0  0  0  0  0  0  0  0
   10.6666  -15.3731   20.9767 C   0  0  2  0  0  0  0  0  0  0  0  0
   11.1225  -15.4873   19.6098 N   0  0  0  0  0  0  0  0  0  0  0  0
   11.2299  -16.5595   21.7177 C   0  0  0  0  0  0  0  0  0  0  0  0
   11.2807  -17.6876   21.1707 O   0  0  0  0  0  0  0  0  0  0  0  0
    7.4114  -14.3134   15.9579 N   0  0  0  0  0  0  0  0  0  0  0  0
   15.8274  -15.1737   20.6129 C   0  0  0  0  0  0  0  0  0  0  0  0
   16.3816  -15.6359   21.8617 O   0  0  0  0  0  0  0  0  0  0  0  0
   17.6015  -15.4774   22.0020 C   0  0  0  0  0  0  0  0  0  0  0  0
   15.4441  -16.2333   22.8080 C   0  0  0  0  0  0  0  0  0  0  0  0
   14.0009  -16.0595   22.4709 C   0  0  1  0  0  0  0  0  0  0  0  0
   13.0566  -16.6919   23.4423 N   0  0  0  0  0  0  0  0  0  0  0  0
   11.7017  -16.3586   23.0564 C   0  0  0  0  0  0  0  0  0  0  0  0
   13.2668  -16.2717   24.8319 O   0  0  0  0  0  0  0  0  0  0  0  0
   12.7368  -15.0863   25.2845 O   0  0  0  0  0  0  0  0  0  0  0  0
  1  2  1  0
  2  3  2  0
  4  2  1  0
  4  5  1  0
  6  5  1  0
  6  8  1  0
  6  7  1  6
  8  9  2  0
 10 11  1  0
 11 12  2  0
 11 13  1  0
 13 14  1  0
 14 15  1  0
 16 15  1  0
 17 19  1  0
 17 16  1  6
 18  8  1  0
 18 17  1  0
 19 20  2  0
 21 22  1  0
 22 23  2  0
 24 22  1  0
 24 25  1  0
 26 25  1  6
 27 26  1  0
 27 19  1  0
 28 26  1  0
 29 28  1  0
 30 28  2  0
M  END
$$$$
