QRQ.pdb
     RDKit          3D

 30 29  0  0  1  0  0  0  0  0999 V2000
    6.1276  -12.6151   17.7268 N   0  0  0  0  0  0  0  0  0  0  0  0
    7.2185  -13.4564   17.3322 C   0  0  0  0  0  0  0  0  0  0  0  0
    7.1835  -14.0539   16.2278 O   0  0  0  0  0  0  0  0  0  0  0  0
    8.4014  -13.6457   18.1973 C   0  0  0  0  0  0  0  0  0  0  0  0
    8.0734  -13.3720   19.6310 C   0  0  0  0  0  0  0  0  0  0  0  0
    9.3492  -13.4899   20.4673 C   0  0  2  0  0  0  0  0  0  0  0  0
   10.5080  -13.5907   19.6365 N   0  0  0  0  0  0  0  0  0  0  0  0
    9.2386  -14.6042   21.4432 C   0  0  0  0  0  0  0  0  0  0  0  0
    8.1679  -14.7755   22.0805 O   0  0  0  0  0  0  0  0  0  0  0  0
   10.4970  -19.7193   17.4692 N   0  0  0  0  0  0  0  0  0  0  0  0
   10.9390  -20.1696   18.7308 C   0  0  0  0  0  0  0  0  0  0  0  0
   10.2527  -21.0663   19.3489 N   0  0  0  0  0  0  0  0  0  0  0  0
   12.1412  -19.6321   19.3167 N   0  0  0  0  0  0  0  0  0  0  0  0
   12.1867  -19.1907   20.6695 C   0  0  0  0  0  0  0  0  0  0  0  0
   11.1700  -18.1274   20.9769 C   0  0  0  0  0  0  0  0  0  0  0  0
   11.2453  -17.6624   22.4019 C   0  0  0  0  0  0  0  0  0  0  0  0
   10.2427  -16.5734   22.6830 C   0  0  2  0  0  0  0  0  0  0  0  0
   10.2982  -15.5104   21.7050 N   0  0  0  0  0  0  0  0  0  0  0  0
   10.5772  -15.9498   24.0144 C   0  0  0  0  0  0  0  0  0  0  0  0
   11.1269  -14.8232   24.0709 O   0  0  0  0  0  0  0  0  0  0  0  0
   10.4961  -21.3282   20.3211 N   0  0  0  0  0  0  0  0  0  0  0  0
    6.4349  -13.5504   25.8159 C   0  0  0  0  0  0  0  0  0  0  0  0
    7.5453  -12.9355   26.5008 O   0  0  0  0  0  0  0  0  0  0  0  0
    7.3635  -11.7739   26.8886 C   0  0  0  0  0  0  0  0  0  0  0  0
    8.7465  -13.7508   26.6549 C   0  0  0  0  0  0  0  0  0  0  0  0
    8.6588  -15.1284   26.0883 C   0  0  2  0  0  0  0  0  0  0  0  0
    9.8229  -16.0082   26.4137 N   0  0  0  0  0  0  0  0  0  0  0  0
   10.2497  -16.6795   25.2041 C   0  0  0  0  0  0  0  0  0  0  0  0
    9.5336  -17.0195   27.4360 O   0  0  0  0  0  0  0  0  0  0  0  0
    9.3710  -18.3375   27.0794 O   0  0  0  0  0  0  0  0  0  0  0  0
  1  2  1  0
  2  3  2  0
  4  2  1  0
  4  5  1  0
  6  5  1  0
  6  8  1  0
  6  7  1  6
  8  9  2  0
 10 11  1  0
 11 12  2  0
 11 13  1  0
 13 14  1  0
 14 15  1  0
 16 15  1  0
 17 19  1  0
 17 16  1  6
 18  8  1  0
 18 17  1  0
 19 20  2  0
 21 22  1  0
 22 23  2  0
 24 22  1  0
 24 25  1  0
 26 25  1  6
 27 26  1  0
 27 19  1  0
 28 26  1  0
 29 28  1  0
 30 28  2  0
M  END
$$$$
