QRQ.pdb
     RDKit          3D

 30 29  0  0  1  0  0  0  0  0999 V2000
   10.4999  -17.4930   16.9323 N   0  0  0  0  0  0  0  0  0  0  0  0
   11.9117  -17.2992   17.0833 C   0  0  0  0  0  0  0  0  0  0  0  0
   12.4158  -16.1668   16.8792 O   0  0  0  0  0  0  0  0  0  0  0  0
   12.8066  -18.4069   17.4778 C   0  0  0  0  0  0  0  0  0  0  0  0
   13.8128  -17.9566   18.4890 C   0  0  0  0  0  0  0  0  0  0  0  0
   13.4399  -18.5324   19.8566 C   0  0  2  0  0  0  0  0  0  0  0  0
   12.7126  -19.7560   19.7247 N   0  0  0  0  0  0  0  0  0  0  0  0
   12.7262  -17.5211   20.6775 C   0  0  0  0  0  0  0  0  0  0  0  0
   13.3804  -16.7127   21.3849 O   0  0  0  0  0  0  0  0  0  0  0  0
    8.2625  -13.8764   18.4069 N   0  0  0  0  0  0  0  0  0  0  0  0
    8.0898  -12.8553   19.3646 C   0  0  0  0  0  0  0  0  0  0  0  0
    8.4671  -11.6589   19.0760 N   0  0  0  0  0  0  0  0  0  0  0  0
    7.4997  -13.1498   20.6462 N   0  0  0  0  0  0  0  0  0  0  0  0
    7.3439  -14.4855   21.1139 C   0  0  0  0  0  0  0  0  0  0  0  0
    8.5813  -15.0273   21.7727 C   0  0  0  0  0  0  0  0  0  0  0  0
    9.3454  -15.9550   20.8738 C   0  0  0  0  0  0  0  0  0  0  0  0
   10.5834  -16.4857   21.5490 C   0  0  2  0  0  0  0  0  0  0  0  0
   11.3122  -17.4106   20.7107 N   0  0  0  0  0  0  0  0  0  0  0  0
   10.1640  -17.2566   22.7752 C   0  0  0  0  0  0  0  0  0  0  0  0
    9.1918  -18.0486   22.7290 O   0  0  0  0  0  0  0  0  0  0  0  0
    8.4140  -10.9109   19.7906 N   0  0  0  0  0  0  0  0  0  0  0  0
   11.3216  -21.9596   23.9522 C   0  0  0  0  0  0  0  0  0  0  0  0
   12.1972  -21.4723   24.9896 O   0  0  0  0  0  0  0  0  0  0  0  0
   13.0432  -22.2761   25.4030 C   0  0  0  0  0  0  0  0  0  0  0  0
   11.9838  -20.0962   25.4277 C   0  0  0  0  0  0  0  0  0  0  0  0
   10.9330  -19.3452   24.6804 C   0  0  1  0  0  0  0  0  0  0  0  0
   10.7442  -17.9314   25.1283 N   0  0  0  0  0  0  0  0  0  0  0  0
   10.9056  -17.0571   23.9857 C   0  0  0  0  0  0  0  0  0  0  0  0
   11.6800  -17.5123   26.1772 O   0  0  0  0  0  0  0  0  0  0  0  0
   12.5740  -16.4945   25.9412 O   0  0  0  0  0  0  0  0  0  0  0  0
  1  2  1  0
  2  3  2  0
  4  2  1  0
  4  5  1  0
  6  5  1  0
  6  8  1  0
  6  7  1  6
  8  9  2  0
 10 11  1  0
 11 12  2  0
 11 13  1  0
 13 14  1  0
 14 15  1  0
 16 15  1  0
 17 19  1  0
 17 16  1  6
 18  8  1  0
 18 17  1  0
 19 20  2  0
 21 22  1  0
 22 23  2  0
 24 22  1  0
 24 25  1  0
 26 25  1  6
 27 26  1  0
 27 19  1  0
 28 26  1  0
 29 28  1  0
 30 28  2  0
M  END
$$$$
