QRQ.pdb
     RDKit          3D

 30 29  0  0  1  0  0  0  0  0999 V2000
   15.5159  -15.0645   13.1756 N   0  0  0  0  0  0  0  0  0  0  0  0
   14.4133  -15.8133   12.6490 C   0  0  0  0  0  0  0  0  0  0  0  0
   14.5456  -16.4580   11.5791 O   0  0  0  0  0  0  0  0  0  0  0  0
   13.1057  -15.8512   13.3361 C   0  0  0  0  0  0  0  0  0  0  0  0
   13.1275  -16.8026   14.4903 C   0  0  0  0  0  0  0  0  0  0  0  0
   11.7478  -16.8188   15.1515 C   0  0  2  0  0  0  0  0  0  0  0  0
   10.9092  -15.7853   14.6298 N   0  0  0  0  0  0  0  0  0  0  0  0
   11.8716  -16.7714   16.6309 C   0  0  0  0  0  0  0  0  0  0  0  0
   12.0388  -15.6681   17.2111 O   0  0  0  0  0  0  0  0  0  0  0  0
    9.8150  -19.7197   23.6369 N   0  0  0  0  0  0  0  0  0  0  0  0
   10.5378  -20.9211   23.4829 C   0  0  0  0  0  0  0  0  0  0  0  0
   10.6272  -21.7279   24.4820 N   0  0  0  0  0  0  0  0  0  0  0  0
   11.1661  -21.2381   22.2250 N   0  0  0  0  0  0  0  0  0  0  0  0
   12.1320  -20.3789   21.6286 C   0  0  0  0  0  0  0  0  0  0  0  0
   11.5259  -19.1509   21.0096 C   0  0  0  0  0  0  0  0  0  0  0  0
   11.5030  -19.2209   19.5105 C   0  0  0  0  0  0  0  0  0  0  0  0
   11.9424  -17.9208   18.8885 C   0  0  2  0  0  0  0  0  0  0  0  0
   11.8105  -17.9287   17.4491 N   0  0  0  0  0  0  0  0  0  0  0  0
   13.4076  -17.7223   19.1843 C   0  0  0  0  0  0  0  0  0  0  0  0
   14.2743  -17.9779   18.3137 O   0  0  0  0  0  0  0  0  0  0  0  0
   11.1448  -22.6198   24.3849 N   0  0  0  0  0  0  0  0  0  0  0  0
   14.9128  -13.0619   18.1379 C   0  0  0  0  0  0  0  0  0  0  0  0
   16.0382  -13.1566   19.0348 O   0  0  0  0  0  0  0  0  0  0  0  0
   16.8782  -12.2516   18.9439 C   0  0  0  0  0  0  0  0  0  0  0  0
   16.0546  -14.3025   19.9392 C   0  0  0  0  0  0  0  0  0  0  0  0
   14.8892  -15.2265   19.8183 C   0  0  1  0  0  0  0  0  0  0  0  0
   14.9690  -16.4421   20.6850 N   0  0  0  0  0  0  0  0  0  0  0  0
   13.7756  -17.2361   20.4817 C   0  0  0  0  0  0  0  0  0  0  0  0
   15.0968  -16.1426   22.1152 O   0  0  0  0  0  0  0  0  0  0  0  0
   16.3304  -15.8696   22.6578 O   0  0  0  0  0  0  0  0  0  0  0  0
  1  2  1  0
  2  3  2  0
  4  2  1  0
  4  5  1  0
  6  5  1  0
  6  8  1  0
  6  7  1  6
  8  9  2  0
 10 11  1  0
 11 12  2  0
 11 13  1  0
 13 14  1  0
 14 15  1  0
 16 15  1  0
 17 19  1  0
 17 16  1  6
 18  8  1  0
 18 17  1  0
 19 20  2  0
 21 22  1  0
 22 23  2  0
 24 22  1  0
 24 25  1  0
 26 25  1  6
 27 26  1  0
 27 19  1  0
 28 26  1  0
 29 28  1  0
 30 28  2  0
M  END
$$$$
