QRQ.pdb
     RDKit          3D

 30 29  0  0  1  0  0  0  0  0999 V2000
   15.3261  -13.4116   18.7338 N   0  0  0  0  0  0  0  0  0  0  0  0
   15.4028  -14.7156   18.1446 C   0  0  0  0  0  0  0  0  0  0  0  0
   16.4640  -15.0920   17.5876 O   0  0  0  0  0  0  0  0  0  0  0  0
   14.2549  -15.6456   18.1724 C   0  0  0  0  0  0  0  0  0  0  0  0
   13.0944  -15.0521   18.9064 C   0  0  0  0  0  0  0  0  0  0  0  0
   12.3132  -16.1721   19.5966 C   0  0  2  0  0  0  0  0  0  0  0  0
   11.2632  -16.6647   18.7611 N   0  0  0  0  0  0  0  0  0  0  0  0
   11.8324  -15.7339   20.9319 C   0  0  0  0  0  0  0  0  0  0  0  0
   12.5235  -14.9368   21.6166 O   0  0  0  0  0  0  0  0  0  0  0  0
    8.0194  -14.3334   18.5923 N   0  0  0  0  0  0  0  0  0  0  0  0
    8.1276  -13.0319   19.1253 C   0  0  0  0  0  0  0  0  0  0  0  0
    8.7229  -12.1226   18.4355 N   0  0  0  0  0  0  0  0  0  0  0  0
    7.5794  -12.7275   20.4232 N   0  0  0  0  0  0  0  0  0  0  0  0
    8.0156  -13.3986   21.6006 C   0  0  0  0  0  0  0  0  0  0  0  0
    8.0772  -14.8915   21.4394 C   0  0  0  0  0  0  0  0  0  0  0  0
    8.5476  -15.5801   22.6873 C   0  0  0  0  0  0  0  0  0  0  0  0
   10.0505  -15.6775   22.7332 C   0  0  2  0  0  0  0  0  0  0  0  0
   10.6065  -16.1735   21.4946 N   0  0  0  0  0  0  0  0  0  0  0  0
   10.4311  -16.6700   23.8026 C   0  0  0  0  0  0  0  0  0  0  0  0
    9.8915  -17.8021   23.8432 O   0  0  0  0  0  0  0  0  0  0  0  0
    8.8400  -11.1694   18.8235 N   0  0  0  0  0  0  0  0  0  0  0  0
    8.1707  -14.1145   28.1913 C   0  0  0  0  0  0  0  0  0  0  0  0
    9.4192  -14.4678   28.8211 O   0  0  0  0  0  0  0  0  0  0  0  0
    9.7346  -13.7926   29.8098 C   0  0  0  0  0  0  0  0  0  0  0  0
   10.1600  -15.5737   28.2217 C   0  0  0  0  0  0  0  0  0  0  0  0
   10.5871  -15.3625   26.8076 C   0  0  1  0  0  0  0  0  0  0  0  0
   11.2518  -16.5440   26.1774 N   0  0  0  0  0  0  0  0  0  0  0  0
   11.4214  -16.2817   24.7637 C   0  0  0  0  0  0  0  0  0  0  0  0
   10.5073  -17.7977   26.3373 O   0  0  0  0  0  0  0  0  0  0  0  0
    9.5163  -18.1330   25.4449 O   0  0  0  0  0  0  0  0  0  0  0  0
  1  2  1  0
  2  3  2  0
  4  2  1  0
  4  5  1  0
  6  5  1  0
  6  8  1  0
  6  7  1  6
  8  9  2  0
 10 11  1  0
 11 12  2  0
 11 13  1  0
 13 14  1  0
 14 15  1  0
 16 15  1  0
 17 19  1  0
 17 16  1  6
 18  8  1  0
 18 17  1  0
 19 20  2  0
 21 22  1  0
 22 23  2  0
 24 22  1  0
 24 25  1  0
 26 25  1  1
 27 26  1  0
 27 19  1  0
 28 26  1  0
 29 28  1  0
 30 28  2  0
M  END
$$$$
