QRQ.pdb
     RDKit          3D

 30 29  0  0  1  0  0  0  0  0999 V2000
    7.5120  -12.4194   17.9464 N   0  0  0  0  0  0  0  0  0  0  0  0
    7.6319  -13.6814   17.2782 C   0  0  0  0  0  0  0  0  0  0  0  0
    7.3277  -13.7806   16.0634 O   0  0  0  0  0  0  0  0  0  0  0  0
    8.1096  -14.8882   17.9846 C   0  0  0  0  0  0  0  0  0  0  0  0
    8.3476  -14.6086   19.4348 C   0  0  0  0  0  0  0  0  0  0  0  0
    9.0787  -15.7982   20.0603 C   0  0  2  0  0  0  0  0  0  0  0  0
    8.7836  -17.0128   19.3668 N   0  0  0  0  0  0  0  0  0  0  0  0
    8.8001  -15.8815   21.5168 C   0  0  0  0  0  0  0  0  0  0  0  0
    8.8891  -14.8509   22.2322 O   0  0  0  0  0  0  0  0  0  0  0  0
    8.2479  -22.8718   25.9249 N   0  0  0  0  0  0  0  0  0  0  0  0
    7.0441  -22.1756   26.1611 C   0  0  0  0  0  0  0  0  0  0  0  0
    5.9292  -22.8149   26.0895 N   0  0  0  0  0  0  0  0  0  0  0  0
    7.0649  -20.7695   26.4774 N   0  0  0  0  0  0  0  0  0  0  0  0
    6.3303  -19.8161   25.7168 C   0  0  0  0  0  0  0  0  0  0  0  0
    7.1304  -18.5898   25.3781 C   0  0  0  0  0  0  0  0  0  0  0  0
    7.4031  -18.4762   23.9066 C   0  0  0  0  0  0  0  0  0  0  0  0
    8.1343  -17.2011   23.5756 C   0  0  2  0  0  0  0  0  0  0  0  0
    8.4292  -17.0877   22.1651 N   0  0  0  0  0  0  0  0  0  0  0  0
    9.4611  -17.2129   24.2920 C   0  0  0  0  0  0  0  0  0  0  0  0
   10.3808  -17.9803   23.9183 O   0  0  0  0  0  0  0  0  0  0  0  0
    5.0320  -22.2973   26.0988 N   0  0  0  0  0  0  0  0  0  0  0  0
    9.9283  -12.5691   28.3411 C   0  0  0  0  0  0  0  0  0  0  0  0
    9.9688  -13.8564   28.9902 O   0  0  0  0  0  0  0  0  0  0  0  0
   10.0942  -13.8359   30.2217 C   0  0  0  0  0  0  0  0  0  0  0  0
    9.8580  -15.0258   28.1232 C   0  0  0  0  0  0  0  0  0  0  0  0
   10.8884  -15.1220   27.0482 C   0  0  1  0  0  0  0  0  0  0  0  0
   10.8214  -16.3749   26.2353 N   0  0  0  0  0  0  0  0  0  0  0  0
    9.6364  -16.3265   25.4050 C   0  0  0  0  0  0  0  0  0  0  0  0
   10.7828  -17.6012   27.0391 O   0  0  0  0  0  0  0  0  0  0  0  0
    9.6212  -18.3310   27.1334 O   0  0  0  0  0  0  0  0  0  0  0  0
  1  2  1  0
  2  3  2  0
  4  2  1  0
  4  5  1  0
  6  5  1  0
  6  8  1  0
  6  7  1  6
  8  9  2  0
 10 11  1  0
 11 12  2  0
 11 13  1  0
 13 14  1  0
 14 15  1  0
 16 15  1  0
 17 19  1  0
 17 16  1  6
 18  8  1  0
 18 17  1  0
 19 20  2  0
 21 22  1  0
 22 23  2  0
 24 22  1  0
 24 25  1  0
 26 25  1  6
 27 26  1  0
 27 19  1  0
 28 26  1  0
 29 28  1  0
 30 28  2  0
M  END
$$$$
