QRQ.pdb
     RDKit          3D

 30 29  0  0  1  0  0  0  0  0999 V2000
    7.4298  -12.6586   15.3003 N   0  0  0  0  0  0  0  0  0  0  0  0
    8.1116  -13.9078   15.4687 C   0  0  0  0  0  0  0  0  0  0  0  0
    8.0350  -14.7903   14.5781 O   0  0  0  0  0  0  0  0  0  0  0  0
    8.9144  -14.1941   16.6758 C   0  0  0  0  0  0  0  0  0  0  0  0
    8.0387  -14.4268   17.8661 C   0  0  0  0  0  0  0  0  0  0  0  0
    8.9181  -14.6896   19.0903 C   0  0  2  0  0  0  0  0  0  0  0  0
   10.0088  -15.5564   18.7705 N   0  0  0  0  0  0  0  0  0  0  0  0
    8.1022  -15.1827   20.2293 C   0  0  0  0  0  0  0  0  0  0  0  0
    7.0605  -14.5649   20.5682 O   0  0  0  0  0  0  0  0  0  0  0  0
    7.0273  -22.9665   25.4740 N   0  0  0  0  0  0  0  0  0  0  0  0
    6.7740  -21.5848   25.6019 C   0  0  0  0  0  0  0  0  0  0  0  0
    7.1046  -20.9883   26.6936 N   0  0  0  0  0  0  0  0  0  0  0  0
    6.1540  -20.8543   24.5251 N   0  0  0  0  0  0  0  0  0  0  0  0
    6.9053  -20.3567   23.4229 C   0  0  0  0  0  0  0  0  0  0  0  0
    6.9284  -18.8555   23.3552 C   0  0  0  0  0  0  0  0  0  0  0  0
    7.6607  -18.3511   22.1461 C   0  0  0  0  0  0  0  0  0  0  0  0
    7.6708  -16.8454   22.0928 C   0  0  2  0  0  0  0  0  0  0  0  0
    8.4383  -16.3407   20.9767 N   0  0  0  0  0  0  0  0  0  0  0  0
    8.3390  -16.3288   23.3419 C   0  0  0  0  0  0  0  0  0  0  0  0
    9.5625  -16.5257   23.5386 O   0  0  0  0  0  0  0  0  0  0  0  0
    6.9641  -19.9666   26.7905 N   0  0  0  0  0  0  0  0  0  0  0  0
    5.5203  -11.7865   26.4148 C   0  0  0  0  0  0  0  0  0  0  0  0
    6.7870  -11.4141   25.8342 O   0  0  0  0  0  0  0  0  0  0  0  0
    6.9523  -10.2041   25.6310 C   0  0  0  0  0  0  0  0  0  0  0  0
    7.7199  -12.5020   25.5557 C   0  0  0  0  0  0  0  0  0  0  0  0
    7.2259  -13.8681   25.8968 C   0  0  2  0  0  0  0  0  0  0  0  0
    8.1220  -14.9800   25.4544 N   0  0  0  0  0  0  0  0  0  0  0  0
    7.5379  -15.6114   24.2899 C   0  0  0  0  0  0  0  0  0  0  0  0
    8.3475  -16.0032   26.4809 O   0  0  0  0  0  0  0  0  0  0  0  0
    9.3393  -15.8363   27.4187 O   0  0  0  0  0  0  0  0  0  0  0  0
  1  2  1  0
  2  3  2  0
  4  2  1  0
  4  5  1  0
  6  5  1  0
  6  8  1  0
  6  7  1  6
  8  9  2  0
 10 11  1  0
 11 12  2  0
 11 13  1  0
 13 14  1  0
 14 15  1  0
 16 15  1  0
 17 19  1  0
 17 16  1  1
 18  8  1  0
 18 17  1  0
 19 20  2  0
 21 22  1  0
 22 23  2  0
 24 22  1  0
 24 25  1  0
 26 25  1  6
 27 26  1  0
 27 19  1  0
 28 26  1  0
 29 28  1  0
 30 28  2  0
M  END
$$$$
