QRQ.pdb
     RDKit          3D

 30 29  0  0  1  0  0  0  0  0999 V2000
    5.8915  -14.8695   15.7094 N   0  0  0  0  0  0  0  0  0  0  0  0
    7.0067  -13.9747   15.6127 C   0  0  0  0  0  0  0  0  0  0  0  0
    7.3483  -13.5150   14.4947 O   0  0  0  0  0  0  0  0  0  0  0  0
    7.7789  -13.5697   16.8056 C   0  0  0  0  0  0  0  0  0  0  0  0
    7.3307  -14.3180   18.0209 C   0  0  0  0  0  0  0  0  0  0  0  0
    8.1460  -13.8474   19.2272 C   0  0  2  0  0  0  0  0  0  0  0  0
    9.2347  -13.0129   18.8251 N   0  0  0  0  0  0  0  0  0  0  0  0
    8.5779  -15.0028   20.0546 C   0  0  0  0  0  0  0  0  0  0  0  0
    7.7232  -15.8158   20.4910 O   0  0  0  0  0  0  0  0  0  0  0  0
   14.4184  -15.5137   17.3472 N   0  0  0  0  0  0  0  0  0  0  0  0
   15.1121  -14.8463   18.3782 C   0  0  0  0  0  0  0  0  0  0  0  0
   15.8800  -13.8584   18.0758 N   0  0  0  0  0  0  0  0  0  0  0  0
   14.9620  -15.2664   19.7489 N   0  0  0  0  0  0  0  0  0  0  0  0
   14.0521  -16.2947   20.1254 C   0  0  0  0  0  0  0  0  0  0  0  0
   12.6870  -15.7739   20.4774 C   0  0  0  0  0  0  0  0  0  0  0  0
   11.7219  -16.8775   20.7986 C   0  0  0  0  0  0  0  0  0  0  0  0
   10.3844  -16.3351   21.2313 C   0  0  2  0  0  0  0  0  0  0  0  0
    9.9341  -15.2494   20.3899 N   0  0  0  0  0  0  0  0  0  0  0  0
   10.5266  -15.7700   22.6220 C   0  0  0  0  0  0  0  0  0  0  0  0
   11.3033  -14.8099   22.8439 O   0  0  0  0  0  0  0  0  0  0  0  0
   16.2928  -13.2732   18.8242 N   0  0  0  0  0  0  0  0  0  0  0  0
    6.3551  -12.5237   25.8198 C   0  0  0  0  0  0  0  0  0  0  0  0
    6.7159  -13.9198   25.7870 O   0  0  0  0  0  0  0  0  0  0  0  0
    5.8480  -14.7106   26.1796 C   0  0  0  0  0  0  0  0  0  0  0  0
    8.0549  -14.2342   25.2977 C   0  0  0  0  0  0  0  0  0  0  0  0
    8.5326  -15.6169   25.5920 C   0  0  2  0  0  0  0  0  0  0  0  0
    9.8898  -15.9326   25.0503 N   0  0  0  0  0  0  0  0  0  0  0  0
    9.7522  -16.3603   23.6741 C   0  0  0  0  0  0  0  0  0  0  0  0
   10.5982  -16.9765   25.7987 O   0  0  0  0  0  0  0  0  0  0  0  0
   11.0512  -16.7283   27.0731 O   0  0  0  0  0  0  0  0  0  0  0  0
  1  2  1  0
  2  3  2  0
  4  2  1  0
  4  5  1  0
  6  5  1  0
  6  8  1  0
  6  7  1  6
  8  9  2  0
 10 11  1  0
 11 12  2  0
 11 13  1  0
 13 14  1  0
 14 15  1  0
 16 15  1  0
 17 19  1  0
 17 16  1  6
 18  8  1  0
 18 17  1  0
 19 20  2  0
 21 22  1  0
 22 23  2  0
 24 22  1  0
 24 25  1  0
 26 25  1  6
 27 26  1  0
 27 19  1  0
 28 26  1  0
 29 28  1  0
 30 28  2  0
M  END
$$$$
