QRQ.pdb
     RDKit          3D

 30 29  0  0  1  0  0  0  0  0999 V2000
    2.2666  -17.9576   19.7399 N   0  0  0  0  0  0  0  0  0  0  0  0
    1.4509  -18.9728   20.3378 C   0  0  0  0  0  0  0  0  0  0  0  0
    0.2920  -19.1851   19.9022 O   0  0  0  0  0  0  0  0  0  0  0  0
    1.9382  -19.7903   21.4682 C   0  0  0  0  0  0  0  0  0  0  0  0
    3.2920  -19.3402   21.9183 C   0  0  0  0  0  0  0  0  0  0  0  0
    4.3595  -20.0755   21.1054 C   0  0  2  0  0  0  0  0  0  0  0  0
    4.0050  -21.4449   20.9001 N   0  0  0  0  0  0  0  0  0  0  0  0
    5.6995  -19.9115   21.7248 C   0  0  0  0  0  0  0  0  0  0  0  0
    6.0926  -20.7304   22.5947 O   0  0  0  0  0  0  0  0  0  0  0  0
    8.3041  -13.2250   20.6949 N   0  0  0  0  0  0  0  0  0  0  0  0
    7.5860  -13.6872   19.5722 C   0  0  0  0  0  0  0  0  0  0  0  0
    6.5260  -13.0552   19.2060 N   0  0  0  0  0  0  0  0  0  0  0  0
    8.0344  -14.8499   18.8479 N   0  0  0  0  0  0  0  0  0  0  0  0
    8.7896  -15.8816   19.4741 C   0  0  0  0  0  0  0  0  0  0  0  0
    7.9689  -16.7326   20.4019 C   0  0  0  0  0  0  0  0  0  0  0  0
    8.7807  -17.8173   21.0476 C   0  0  0  0  0  0  0  0  0  0  0  0
    7.9253  -18.7132   21.9055 C   0  0  2  0  0  0  0  0  0  0  0  0
    6.5854  -18.8575   21.3830 N   0  0  0  0  0  0  0  0  0  0  0  0
    7.7892  -18.0803   23.2674 C   0  0  0  0  0  0  0  0  0  0  0  0
    6.9672  -17.1520   23.4600 O   0  0  0  0  0  0  0  0  0  0  0  0
    6.0280  -13.3333   18.3414 N   0  0  0  0  0  0  0  0  0  0  0  0
    8.4314  -20.8611   28.9992 C   0  0  0  0  0  0  0  0  0  0  0  0
    9.2487  -19.6735   29.0434 O   0  0  0  0  0  0  0  0  0  0  0  0
   10.1330  -19.6592   29.9098 C   0  0  0  0  0  0  0  0  0  0  0  0
    8.9385  -18.6338   28.0666 C   0  0  0  0  0  0  0  0  0  0  0  0
    8.9226  -19.0810   26.6431 C   0  0  1  0  0  0  0  0  0  0  0  0
    8.5582  -18.0136   25.6618 N   0  0  0  0  0  0  0  0  0  0  0  0
    8.6224  -18.5693   24.3265 C   0  0  0  0  0  0  0  0  0  0  0  0
    9.4257  -16.8324   25.7220 O   0  0  0  0  0  0  0  0  0  0  0  0
    9.1752  -15.8352   26.6351 O   0  0  0  0  0  0  0  0  0  0  0  0
  1  2  1  0
  2  3  2  0
  4  2  1  0
  4  5  1  0
  6  5  1  0
  6  8  1  0
  6  7  1  1
  8  9  2  0
 10 11  1  0
 11 12  2  0
 11 13  1  0
 13 14  1  0
 14 15  1  0
 16 15  1  0
 17 19  1  0
 17 16  1  6
 18  8  1  0
 18 17  1  0
 19 20  2  0
 21 22  1  0
 22 23  2  0
 24 22  1  0
 24 25  1  0
 26 25  1  1
 27 26  1  0
 27 19  1  0
 28 26  1  0
 29 28  1  0
 30 28  2  0
M  END
$$$$
