QRQ.pdb
     RDKit          3D

 30 29  0  0  1  0  0  0  0  0999 V2000
   14.7623  -13.2639   18.0180 N   0  0  0  0  0  0  0  0  0  0  0  0
   15.6612  -14.0482   18.8120 C   0  0  0  0  0  0  0  0  0  0  0  0
   16.7915  -13.5925   19.1166 O   0  0  0  0  0  0  0  0  0  0  0  0
   15.2940  -15.3970   19.2911 C   0  0  0  0  0  0  0  0  0  0  0  0
   13.8746  -15.7249   18.9513 C   0  0  0  0  0  0  0  0  0  0  0  0
   13.3159  -16.6821   20.0062 C   0  0  2  0  0  0  0  0  0  0  0  0
   12.4059  -17.6200   19.4270 N   0  0  0  0  0  0  0  0  0  0  0  0
   12.7250  -15.9285   21.1416 C   0  0  0  0  0  0  0  0  0  0  0  0
   13.4707  -15.2800   21.9195 O   0  0  0  0  0  0  0  0  0  0  0  0
    7.2776  -11.9685   18.5637 N   0  0  0  0  0  0  0  0  0  0  0  0
    7.3981  -13.3341   18.8955 C   0  0  0  0  0  0  0  0  0  0  0  0
    7.6524  -14.1830   17.9618 N   0  0  0  0  0  0  0  0  0  0  0  0
    7.2381  -13.7700   20.2600 N   0  0  0  0  0  0  0  0  0  0  0  0
    7.3731  -15.1370   20.6341 C   0  0  0  0  0  0  0  0  0  0  0  0
    8.7873  -15.5195   20.9694 C   0  0  0  0  0  0  0  0  0  0  0  0
    9.2594  -14.8908   22.2478 C   0  0  0  0  0  0  0  0  0  0  0  0
   10.7217  -15.1606   22.4907 C   0  0  2  0  0  0  0  0  0  0  0  0
   11.3317  -15.8966   21.4064 N   0  0  0  0  0  0  0  0  0  0  0  0
   10.8491  -16.0238   23.7206 C   0  0  0  0  0  0  0  0  0  0  0  0
   11.1208  -17.2444   23.6177 O   0  0  0  0  0  0  0  0  0  0  0  0
    7.7382  -15.1908   18.1851 N   0  0  0  0  0  0  0  0  0  0  0  0
    9.9685  -13.6603   29.5481 C   0  0  0  0  0  0  0  0  0  0  0  0
   10.4049  -14.9989   29.8611 O   0  0  0  0  0  0  0  0  0  0  0  0
   10.4902  -15.2706   31.0659 C   0  0  0  0  0  0  0  0  0  0  0  0
   10.6934  -15.8710   28.7264 C   0  0  0  0  0  0  0  0  0  0  0  0
   10.5839  -15.2280   27.3844 C   0  0  1  0  0  0  0  0  0  0  0  0
   10.8059  -16.1549   26.2325 N   0  0  0  0  0  0  0  0  0  0  0  0
   10.6512  -15.4099   25.0008 C   0  0  0  0  0  0  0  0  0  0  0  0
    9.8893  -17.2997   26.2082 O   0  0  0  0  0  0  0  0  0  0  0  0
    8.7061  -17.2247   25.5115 O   0  0  0  0  0  0  0  0  0  0  0  0
  1  2  1  0
  2  3  2  0
  4  2  1  0
  4  5  1  0
  6  5  1  0
  6  8  1  0
  6  7  1  6
  8  9  2  0
 10 11  1  0
 11 12  2  0
 11 13  1  0
 13 14  1  0
 14 15  1  0
 16 15  1  0
 17 19  1  0
 17 16  1  6
 18  8  1  0
 18 17  1  0
 19 20  2  0
 21 22  1  0
 22 23  2  0
 24 22  1  0
 24 25  1  0
 26 25  1  1
 27 26  1  0
 27 19  1  0
 28 26  1  0
 29 28  1  0
 30 28  2  0
M  END
$$$$
