LKL.pdb
     RDKit          3D

 26 25  0  0  1  0  0  0  0  0999 V2000
   16.3286  -16.2875  -15.5015 C   0  0  0  0  0  0  0  0  0  0  0  0
   16.9362  -15.3349  -16.4972 C   0  0  1  0  0  0  0  0  0  0  0  0
   15.9015  -14.5940  -17.3121 C   0  0  0  0  0  0  0  0  0  0  0  0
   18.0045  -14.4715  -15.9566 C   0  0  0  0  0  0  0  0  0  0  0  0
   18.6257  -13.4785  -16.8658 C   0  0  2  0  0  0  0  0  0  0  0  0
   19.2597  -13.9996  -18.0270 N   0  0  0  0  0  0  0  0  0  0  0  0
   19.6001  -12.6677  -16.1169 C   0  0  0  0  0  0  0  0  0  0  0  0
   19.3245  -12.2829  -14.9531 O   0  0  0  0  0  0  0  0  0  0  0  0
   20.8657  -12.2768  -16.6277 N   0  0  0  0  0  0  0  0  0  0  0  0
   21.7092  -11.3524  -15.9107 C   0  0  1  0  0  0  0  0  0  0  0  0
   23.1683  -11.4857  -16.3203 C   0  0  0  0  0  0  0  0  0  0  0  0
   23.7885  -12.7739  -15.8921 C   0  0  0  0  0  0  0  0  0  0  0  0
   25.2218  -12.7964  -16.3025 C   0  0  0  0  0  0  0  0  0  0  0  0
   25.9294  -14.0770  -15.9558 C   0  0  0  0  0  0  0  0  0  0  0  0
   27.3023  -14.0002  -16.4519 N   0  0  0  0  0  0  0  0  0  0  0  0
   21.3374   -9.9399  -16.1735 C   0  0  0  0  0  0  0  0  0  0  0  0
   21.0121   -9.6087  -17.3413 O   0  0  0  0  0  0  0  0  0  0  0  0
   19.2962   -5.5751  -17.5264 C   0  0  0  0  0  0  0  0  0  0  0  0
   18.8025   -6.4499  -16.4286 C   0  0  1  0  0  0  0  0  0  0  0  0
   17.3424   -6.7651  -16.7539 C   0  0  0  0  0  0  0  0  0  0  0  0
   19.5731   -7.6273  -16.0367 C   0  0  0  0  0  0  0  0  0  0  0  0
   20.9429   -7.5255  -15.4969 C   0  0  2  0  0  0  0  0  0  0  0  0
   21.3291   -8.9387  -15.1720 N   0  0  0  0  0  0  0  0  0  0  0  0
   21.0196   -6.8263  -14.2257 C   0  0  0  0  0  0  0  0  0  0  0  0
   20.9405   -5.5424  -14.2276 O   0  0  0  0  0  0  0  0  0  0  0  0
   21.1654   -7.3641  -12.9622 O   0  0  0  0  0  0  0  0  0  0  0  0
  2  4  1  0
  2  1  1  1
  3  2  1  0
  4  5  1  0
  5  6  1  6
  7  5  1  0
  7  8  2  0
  9  7  1  0
 10  9  1  0
 10 11  1  6
 12 11  1  0
 13 14  1  0
 13 12  1  0
 15 14  1  0
 16 23  1  0
 16 10  1  0
 17 16  2  0
 19 18  1  6
 19 21  1  0
 20 19  1  0
 22 21  1  1
 22 23  1  0
 24 26  1  0
 24 22  1  0
 25 24  2  0
M  END
$$$$
