LKL.pdb
     RDKit          3D

 26 25  0  0  1  0  0  0  0  0999 V2000
   27.8510  -16.9899  -16.7782 C   0  0  0  0  0  0  0  0  0  0  0  0
   27.7450  -18.3540  -16.1487 C   0  0  1  0  0  0  0  0  0  0  0  0
   28.8957  -19.2631  -16.5134 C   0  0  0  0  0  0  0  0  0  0  0  0
   27.4181  -18.3485  -14.7092 C   0  0  0  0  0  0  0  0  0  0  0  0
   27.4626  -19.6382  -13.9789 C   0  0  2  0  0  0  0  0  0  0  0  0
   26.8772  -20.7541  -14.6376 N   0  0  0  0  0  0  0  0  0  0  0  0
   26.8274  -19.4791  -12.6602 C   0  0  0  0  0  0  0  0  0  0  0  0
   26.9993  -18.4168  -12.0118 O   0  0  0  0  0  0  0  0  0  0  0  0
   26.0109  -20.4666  -12.0490 N   0  0  0  0  0  0  0  0  0  0  0  0
   25.3133  -20.2019  -10.8148 C   0  0  1  0  0  0  0  0  0  0  0  0
   23.9541  -20.8843  -10.7772 C   0  0  0  0  0  0  0  0  0  0  0  0
   22.9618  -20.2802  -11.7140 C   0  0  0  0  0  0  0  0  0  0  0  0
   21.6294  -20.9163  -11.5050 C   0  0  0  0  0  0  0  0  0  0  0  0
   20.5606  -20.3964  -12.4261 C   0  0  0  0  0  0  0  0  0  0  0  0
   19.3044  -21.0751  -12.1129 N   0  0  0  0  0  0  0  0  0  0  0  0
   26.0579  -20.7066   -9.6344 C   0  0  0  0  0  0  0  0  0  0  0  0
   26.5661  -21.8547   -9.6872 O   0  0  0  0  0  0  0  0  0  0  0  0
   29.3188  -20.4761   -5.0829 C   0  0  0  0  0  0  0  0  0  0  0  0
   28.1253  -19.5976   -5.2164 C   0  0  1  0  0  0  0  0  0  0  0  0
   28.4956  -18.2671   -4.5609 C   0  0  0  0  0  0  0  0  0  0  0  0
   27.4826  -19.4396   -6.5185 C   0  0  0  0  0  0  0  0  0  0  0  0
   26.8608  -20.5733   -7.2301 C   0  0  2  0  0  0  0  0  0  0  0  0
   26.2278  -19.9587   -8.4439 N   0  0  0  0  0  0  0  0  0  0  0  0
   25.7539  -21.1790   -6.5101 C   0  0  0  0  0  0  0  0  0  0  0  0
   26.0159  -22.0809   -5.6312 O   0  0  0  0  0  0  0  0  0  0  0  0
   24.4049  -20.9108   -6.6343 O   0  0  0  0  0  0  0  0  0  0  0  0
  2  4  1  0
  2  1  1  1
  3  2  1  0
  4  5  1  0
  5  6  1  6
  7  5  1  0
  7  8  2  0
  9  7  1  0
 10  9  1  0
 10 11  1  6
 12 11  1  0
 13 14  1  0
 13 12  1  0
 15 14  1  0
 16 23  1  0
 16 10  1  0
 17 16  2  0
 19 18  1  6
 19 21  1  0
 20 19  1  0
 22 21  1  1
 22 23  1  0
 24 26  1  0
 24 22  1  0
 25 24  2  0
M  END
$$$$
