LKL.pdb
     RDKit          3D

 26 25  0  0  1  0  0  0  0  0999 V2000
   23.9247  -13.0259  -14.3973 C   0  0  0  0  0  0  0  0  0  0  0  0
   22.8305  -13.2315  -15.4114 C   0  0  1  0  0  0  0  0  0  0  0  0
   21.8656  -14.3281  -15.0242 C   0  0  0  0  0  0  0  0  0  0  0  0
   22.1754  -11.9929  -15.8760 C   0  0  0  0  0  0  0  0  0  0  0  0
   21.0646  -12.1147  -16.8506 C   0  0  2  0  0  0  0  0  0  0  0  0
   21.4108  -12.6017  -18.1408 N   0  0  0  0  0  0  0  0  0  0  0  0
   20.3954  -10.8117  -16.9993 C   0  0  0  0  0  0  0  0  0  0  0  0
   20.8777   -9.9507  -17.7769 O   0  0  0  0  0  0  0  0  0  0  0  0
   19.2106  -10.4452  -16.3086 N   0  0  0  0  0  0  0  0  0  0  0  0
   18.5801   -9.1671  -16.5298 C   0  0  1  0  0  0  0  0  0  0  0  0
   17.0800   -9.2277  -16.2836 C   0  0  0  0  0  0  0  0  0  0  0  0
   16.3552  -10.1002  -17.2535 C   0  0  0  0  0  0  0  0  0  0  0  0
   14.8968  -10.0838  -16.9434 C   0  0  0  0  0  0  0  0  0  0  0  0
   14.0669  -10.8953  -17.8993 C   0  0  0  0  0  0  0  0  0  0  0  0
   13.4865  -12.0227  -17.1719 N   0  0  0  0  0  0  0  0  0  0  0  0
   19.1034   -8.1219  -15.6155 C   0  0  0  0  0  0  0  0  0  0  0  0
   19.3743   -8.4378  -14.4297 O   0  0  0  0  0  0  0  0  0  0  0  0
   23.8412   -5.7178  -14.9036 C   0  0  0  0  0  0  0  0  0  0  0  0
   22.4216   -5.7158  -14.4578 C   0  0  1  0  0  0  0  0  0  0  0  0
   22.2912   -4.5791  -13.4440 C   0  0  0  0  0  0  0  0  0  0  0  0
   21.3495   -5.7294  -15.4498 C   0  0  0  0  0  0  0  0  0  0  0  0
   19.9254   -5.7839  -15.0664 C   0  0  2  0  0  0  0  0  0  0  0  0
   19.3157   -6.7785  -16.0103 N   0  0  0  0  0  0  0  0  0  0  0  0
   19.2035   -4.5495  -15.3229 C   0  0  0  0  0  0  0  0  0  0  0  0
   18.5951   -4.4190  -16.4487 O   0  0  0  0  0  0  0  0  0  0  0  0
   19.0656   -3.4526  -14.4955 O   0  0  0  0  0  0  0  0  0  0  0  0
  2  4  1  0
  2  1  1  1
  3  2  1  0
  4  5  1  0
  5  6  1  6
  7  5  1  0
  7  8  2  0
  9  7  1  0
 10  9  1  0
 10 11  1  1
 12 11  1  0
 13 14  1  0
 13 12  1  0
 15 14  1  0
 16 23  1  0
 16 10  1  0
 17 16  2  0
 19 18  1  6
 19 21  1  0
 20 19  1  0
 22 21  1  6
 22 23  1  0
 24 26  1  0
 24 22  1  0
 25 24  2  0
M  END
$$$$
