LKL.pdb
     RDKit          3D

 26 25  0  0  1  0  0  0  0  0999 V2000
   20.2836  -18.8567  -16.9815 C   0  0  0  0  0  0  0  0  0  0  0  0
   21.6496  -18.5537  -16.4245 C   0  0  1  0  0  0  0  0  0  0  0  0
   22.2729  -17.3176  -17.0303 C   0  0  0  0  0  0  0  0  0  0  0  0
   21.7460  -18.6141  -14.9527 C   0  0  0  0  0  0  0  0  0  0  0  0
   23.0761  -18.4042  -14.3318 C   0  0  2  0  0  0  0  0  0  0  0  0
   24.1420  -18.0914  -15.2194 N   0  0  0  0  0  0  0  0  0  0  0  0
   23.4460  -19.5937  -13.5470 C   0  0  0  0  0  0  0  0  0  0  0  0
   22.5862  -20.1499  -12.8190 O   0  0  0  0  0  0  0  0  0  0  0  0
   24.7407  -20.1760  -13.5520 N   0  0  0  0  0  0  0  0  0  0  0  0
   25.0305  -21.3630  -12.7859 C   0  0  1  0  0  0  0  0  0  0  0  0
   25.8327  -22.3733  -13.5923 C   0  0  0  0  0  0  0  0  0  0  0  0
   25.0374  -23.0416  -14.6638 C   0  0  0  0  0  0  0  0  0  0  0  0
   25.9078  -23.9981  -15.4059 C   0  0  0  0  0  0  0  0  0  0  0  0
   25.2407  -24.6190  -16.6019 C   0  0  0  0  0  0  0  0  0  0  0  0
   26.1714  -25.5637  -17.2168 N   0  0  0  0  0  0  0  0  0  0  0  0
   25.8426  -21.0637  -11.5803 C   0  0  0  0  0  0  0  0  0  0  0  0
   27.0062  -20.6140  -11.7327 O   0  0  0  0  0  0  0  0  0  0  0  0
   27.3313  -18.0036   -7.3005 C   0  0  0  0  0  0  0  0  0  0  0  0
   27.6956  -19.1032   -8.2345 C   0  0  1  0  0  0  0  0  0  0  0  0
   28.4048  -20.1643   -7.3931 C   0  0  0  0  0  0  0  0  0  0  0  0
   26.6849  -19.6587   -9.1308 C   0  0  0  0  0  0  0  0  0  0  0  0
   26.2864  -21.0789   -9.0811 C   0  0  2  0  0  0  0  0  0  0  0  0
   25.3734  -21.2586  -10.2584 N   0  0  0  0  0  0  0  0  0  0  0  0
   25.4662  -21.4158   -7.9303 C   0  0  0  0  0  0  0  0  0  0  0  0
   24.1972  -21.2190   -8.0045 O   0  0  0  0  0  0  0  0  0  0  0  0
   25.8686  -21.9444   -6.7196 O   0  0  0  0  0  0  0  0  0  0  0  0
  2  4  1  0
  2  1  1  1
  3  2  1  0
  4  5  1  0
  5  6  1  6
  7  5  1  0
  7  8  2  0
  9  7  1  0
 10  9  1  0
 10 11  1  6
 12 11  1  0
 13 14  1  0
 13 12  1  0
 15 14  1  0
 16 23  1  0
 16 10  1  0
 17 16  2  0
 19 18  1  1
 19 21  1  0
 20 19  1  0
 22 21  1  1
 22 23  1  0
 24 26  1  0
 24 22  1  0
 25 24  2  0
M  END
$$$$
