LKL.pdb
     RDKit          3D

 26 25  0  0  1  0  0  0  0  0999 V2000
   29.5311  -20.8492   -4.3103 C   0  0  0  0  0  0  0  0  0  0  0  0
   28.6355  -19.9185   -5.0846 C   0  0  1  0  0  0  0  0  0  0  0  0
   29.0225  -18.4656   -4.9334 C   0  0  0  0  0  0  0  0  0  0  0  0
   28.3738  -20.3274   -6.4786 C   0  0  0  0  0  0  0  0  0  0  0  0
   27.5083  -19.4566   -7.3101 C   0  0  2  0  0  0  0  0  0  0  0  0
   26.5060  -18.7223   -6.6188 N   0  0  0  0  0  0  0  0  0  0  0  0
   26.8657  -20.2619   -8.3619 C   0  0  0  0  0  0  0  0  0  0  0  0
   27.5330  -21.1350   -8.9710 O   0  0  0  0  0  0  0  0  0  0  0  0
   25.5076  -20.1205   -8.7505 N   0  0  0  0  0  0  0  0  0  0  0  0
   25.0216  -20.6774   -9.9889 C   0  0  1  0  0  0  0  0  0  0  0  0
   23.5048  -20.7951   -9.9979 C   0  0  0  0  0  0  0  0  0  0  0  0
   22.9642  -21.3905  -11.2551 C   0  0  0  0  0  0  0  0  0  0  0  0
   21.4754  -21.4341  -11.1846 C   0  0  0  0  0  0  0  0  0  0  0  0
   20.8325  -22.0773  -12.3821 C   0  0  0  0  0  0  0  0  0  0  0  0
   21.2144  -21.3258  -13.5763 N   0  0  0  0  0  0  0  0  0  0  0  0
   25.3737  -19.8317  -11.1564 C   0  0  0  0  0  0  0  0  0  0  0  0
   25.3292  -18.5819  -11.0318 O   0  0  0  0  0  0  0  0  0  0  0  0
   29.6005  -19.6307  -15.3437 C   0  0  0  0  0  0  0  0  0  0  0  0
   28.1788  -19.2793  -15.0802 C   0  0  1  0  0  0  0  0  0  0  0  0
   27.4281  -19.5139  -16.3910 C   0  0  0  0  0  0  0  0  0  0  0  0
   27.4964  -19.8398  -13.9166 C   0  0  0  0  0  0  0  0  0  0  0  0
   26.1185  -19.4555  -13.5537 C   0  0  2  0  0  0  0  0  0  0  0  0
   25.7600  -20.3609  -12.4119 N   0  0  0  0  0  0  0  0  0  0  0  0
   25.1372  -19.7598  -14.5808 C   0  0  0  0  0  0  0  0  0  0  0  0
   24.7780  -18.8196  -15.3818 O   0  0  0  0  0  0  0  0  0  0  0  0
   24.5125  -20.9648  -14.8357 O   0  0  0  0  0  0  0  0  0  0  0  0
  2  4  1  0
  2  1  1  6
  3  2  1  0
  4  5  1  0
  5  6  1  1
  7  5  1  0
  7  8  2  0
  9  7  1  0
 10  9  1  0
 10 11  1  1
 12 11  1  0
 13 14  1  0
 13 12  1  0
 15 14  1  0
 16 23  1  0
 16 10  1  0
 17 16  2  0
 19 18  1  6
 19 21  1  0
 20 19  1  0
 22 21  1  6
 22 23  1  0
 24 26  1  0
 24 22  1  0
 25 24  2  0
M  END
$$$$
