LKL.pdb
     RDKit          3D

 26 25  0  0  1  0  0  0  0  0999 V2000
   27.8688  -17.1386  -17.7058 C   0  0  0  0  0  0  0  0  0  0  0  0
   28.0611  -18.3786  -16.8730 C   0  0  1  0  0  0  0  0  0  0  0  0
   29.4777  -18.9032  -16.9144 C   0  0  0  0  0  0  0  0  0  0  0  0
   27.4873  -18.3082  -15.5148 C   0  0  0  0  0  0  0  0  0  0  0  0
   27.7860  -19.4140  -14.5732 C   0  0  2  0  0  0  0  0  0  0  0  0
   27.7485  -20.7282  -15.1148 N   0  0  0  0  0  0  0  0  0  0  0  0
   26.8643  -19.3469  -13.4271 C   0  0  0  0  0  0  0  0  0  0  0  0
   26.7710  -18.2824  -12.7662 O   0  0  0  0  0  0  0  0  0  0  0  0
   26.0489  -20.4279  -13.0007 N   0  0  0  0  0  0  0  0  0  0  0  0
   25.1823  -20.3052  -11.8545 C   0  0  1  0  0  0  0  0  0  0  0  0
   23.8396  -20.9817  -12.0871 C   0  0  0  0  0  0  0  0  0  0  0  0
   23.1274  -20.4833  -13.3002 C   0  0  0  0  0  0  0  0  0  0  0  0
   21.8665  -21.2564  -13.4893 C   0  0  0  0  0  0  0  0  0  0  0  0
   21.7032  -21.8161  -14.8753 C   0  0  0  0  0  0  0  0  0  0  0  0
   20.4834  -22.6208  -14.9125 N   0  0  0  0  0  0  0  0  0  0  0  0
   25.7605  -20.9465  -10.6475 C   0  0  0  0  0  0  0  0  0  0  0  0
   26.9306  -21.4008  -10.7073 O   0  0  0  0  0  0  0  0  0  0  0  0
   28.2869  -18.5886   -6.7173 C   0  0  0  0  0  0  0  0  0  0  0  0
   27.8634  -19.7343   -7.5671 C   0  0  1  0  0  0  0  0  0  0  0  0
   28.3963  -20.9948   -6.8857 C   0  0  0  0  0  0  0  0  0  0  0  0
   26.4688  -19.8509   -7.9855 C   0  0  0  0  0  0  0  0  0  0  0  0
   25.7952  -21.1573   -8.1182 C   0  0  2  0  0  0  0  0  0  0  0  0
   25.0597  -21.0746   -9.4236 N   0  0  0  0  0  0  0  0  0  0  0  0
   24.7554  -21.3819   -7.1287 C   0  0  0  0  0  0  0  0  0  0  0  0
   25.0648  -22.0041   -6.0462 O   0  0  0  0  0  0  0  0  0  0  0  0
   23.4286  -21.0027   -7.1823 O   0  0  0  0  0  0  0  0  0  0  0  0
  2  4  1  0
  2  1  1  1
  3  2  1  0
  4  5  1  0
  5  6  1  6
  7  5  1  0
  7  8  2  0
  9  7  1  0
 10  9  1  0
 10 11  1  6
 12 11  1  0
 13 14  1  0
 13 12  1  0
 15 14  1  0
 16 23  1  0
 16 10  1  0
 17 16  2  0
 19 18  1  1
 19 21  1  0
 20 19  1  0
 22 21  1  1
 22 23  1  0
 24 26  1  0
 24 22  1  0
 25 24  2  0
M  END
$$$$
