LKL.pdb
     RDKit          3D

 26 25  0  0  1  0  0  0  0  0999 V2000
   27.3875  -18.6212   -7.2786 C   0  0  0  0  0  0  0  0  0  0  0  0
   27.5839  -19.8675   -8.1008 C   0  0  1  0  0  0  0  0  0  0  0  0
   27.6625  -21.1218   -7.2616 C   0  0  0  0  0  0  0  0  0  0  0  0
   26.6926  -19.9844   -9.2717 C   0  0  0  0  0  0  0  0  0  0  0  0
   26.6704  -21.2726  -10.0055 C   0  0  2  0  0  0  0  0  0  0  0  0
   27.8396  -21.5930  -10.7486 N   0  0  0  0  0  0  0  0  0  0  0  0
   25.5098  -21.3031  -10.9110 C   0  0  0  0  0  0  0  0  0  0  0  0
   25.6907  -21.2794  -12.1541 O   0  0  0  0  0  0  0  0  0  0  0  0
   24.1614  -21.3587  -10.4704 N   0  0  0  0  0  0  0  0  0  0  0  0
   23.0841  -21.6299  -11.3901 C   0  0  1  0  0  0  0  0  0  0  0  0
   21.7996  -21.9969  -10.6621 C   0  0  0  0  0  0  0  0  0  0  0  0
   20.6846  -22.3718  -11.5805 C   0  0  0  0  0  0  0  0  0  0  0  0
   19.4896  -22.7618  -10.7785 C   0  0  0  0  0  0  0  0  0  0  0  0
   18.3004  -23.1468  -11.6144 C   0  0  0  0  0  0  0  0  0  0  0  0
   17.2654  -23.6843  -10.7332 N   0  0  0  0  0  0  0  0  0  0  0  0
   22.7569  -20.4500  -12.2286 C   0  0  0  0  0  0  0  0  0  0  0  0
   22.7655  -19.3110  -11.6975 O   0  0  0  0  0  0  0  0  0  0  0  0
   24.7845  -18.1162  -17.0700 C   0  0  0  0  0  0  0  0  0  0  0  0
   23.7966  -18.0648  -15.9584 C   0  0  1  0  0  0  0  0  0  0  0  0
   22.7567  -17.0171  -16.3558 C   0  0  0  0  0  0  0  0  0  0  0  0
   23.2054  -19.3020  -15.4552 C   0  0  0  0  0  0  0  0  0  0  0  0
   22.1592  -19.3059  -14.4142 C   0  0  2  0  0  0  0  0  0  0  0  0
   22.4337  -20.5391  -13.6045 N   0  0  0  0  0  0  0  0  0  0  0  0
   20.8175  -19.5041  -14.9350 C   0  0  0  0  0  0  0  0  0  0  0  0
   20.4150  -20.7072  -15.1474 O   0  0  0  0  0  0  0  0  0  0  0  0
   19.8701  -18.5475  -15.2421 O   0  0  0  0  0  0  0  0  0  0  0  0
  2  4  1  0
  2  1  1  1
  3  2  1  0
  4  5  1  0
  5  6  1  6
  7  5  1  0
  7  8  2  0
  9  7  1  0
 10  9  1  0
 10 11  1  1
 12 11  1  0
 13 14  1  0
 13 12  1  0
 15 14  1  0
 16 23  1  0
 16 10  1  0
 17 16  2  0
 19 18  1  6
 19 21  1  0
 20 19  1  0
 22 21  1  6
 22 23  1  0
 24 26  1  0
 24 22  1  0
 25 24  2  0
M  END
$$$$
