LKL.pdb
     RDKit          3D

 26 25  0  0  1  0  0  0  0  0999 V2000
   28.6447  -20.5163   -6.8159 C   0  0  0  0  0  0  0  0  0  0  0  0
   27.2663  -20.3105   -7.3866 C   0  0  1  0  0  0  0  0  0  0  0  0
   26.6250  -19.0207   -6.9295 C   0  0  0  0  0  0  0  0  0  0  0  0
   27.1537  -20.5547   -8.8380 C   0  0  0  0  0  0  0  0  0  0  0  0
   25.8438  -20.3073   -9.4874 C   0  0  2  0  0  0  0  0  0  0  0  0
   24.7609  -21.1165   -9.0466 N   0  0  0  0  0  0  0  0  0  0  0  0
   25.9822  -20.4536  -10.9459 C   0  0  0  0  0  0  0  0  0  0  0  0
   26.9282  -19.8796  -11.5410 O   0  0  0  0  0  0  0  0  0  0  0  0
   25.0996  -21.2180  -11.7535 N   0  0  0  0  0  0  0  0  0  0  0  0
   25.0975  -21.0880  -13.1898 C   0  0  1  0  0  0  0  0  0  0  0  0
   24.3551  -22.2350  -13.8591 C   0  0  0  0  0  0  0  0  0  0  0  0
   25.0296  -22.7379  -15.0918 C   0  0  0  0  0  0  0  0  0  0  0  0
   25.3700  -24.1794  -14.9194 C   0  0  0  0  0  0  0  0  0  0  0  0
   26.0415  -24.7891  -16.1187 C   0  0  0  0  0  0  0  0  0  0  0  0
   26.6126  -26.0770  -15.7288 N   0  0  0  0  0  0  0  0  0  0  0  0
   24.4197  -19.8455  -13.6360 C   0  0  0  0  0  0  0  0  0  0  0  0
   23.9548  -19.0661  -12.7667 O   0  0  0  0  0  0  0  0  0  0  0  0
   27.3370  -15.9030  -15.7626 C   0  0  0  0  0  0  0  0  0  0  0  0
   26.0047  -16.3554  -15.2785 C   0  0  1  0  0  0  0  0  0  0  0  0
   25.0670  -15.1561  -15.4175 C   0  0  0  0  0  0  0  0  0  0  0  0
   25.4309  -17.5982  -15.7884 C   0  0  0  0  0  0  0  0  0  0  0  0
   24.0815  -18.0559  -15.4041 C   0  0  2  0  0  0  0  0  0  0  0  0
   24.2678  -19.4885  -14.9980 N   0  0  0  0  0  0  0  0  0  0  0  0
   23.1452  -18.1114  -16.5135 C   0  0  0  0  0  0  0  0  0  0  0  0
   23.1181  -19.1733  -17.2390 O   0  0  0  0  0  0  0  0  0  0  0  0
   22.2380  -17.1507  -16.9148 O   0  0  0  0  0  0  0  0  0  0  0  0
  2  4  1  0
  2  1  1  6
  3  2  1  0
  4  5  1  0
  5  6  1  1
  7  5  1  0
  7  8  2  0
  9  7  1  0
 10  9  1  0
 10 11  1  6
 12 11  1  0
 13 14  1  0
 13 12  1  0
 15 14  1  0
 16 23  1  0
 16 10  1  0
 17 16  2  0
 19 18  1  6
 19 21  1  0
 20 19  1  0
 22 21  1  6
 22 23  1  0
 24 26  1  0
 24 22  1  0
 25 24  2  0
M  END
$$$$
