LKL.pdb
     RDKit          3D

 26 25  0  0  1  0  0  0  0  0999 V2000
   28.9949  -21.3955   -7.5899 C   0  0  0  0  0  0  0  0  0  0  0  0
   27.6037  -20.8522   -7.7835 C   0  0  1  0  0  0  0  0  0  0  0  0
   27.3428  -19.5987   -6.9809 C   0  0  0  0  0  0  0  0  0  0  0  0
   27.1619  -20.7668   -9.1894 C   0  0  0  0  0  0  0  0  0  0  0  0
   25.8111  -20.2206   -9.4641 C   0  0  2  0  0  0  0  0  0  0  0  0
   24.7479  -20.7509   -8.6829 N   0  0  0  0  0  0  0  0  0  0  0  0
   25.4879  -20.4006  -10.8892 C   0  0  0  0  0  0  0  0  0  0  0  0
   26.3424  -20.1065  -11.7620 O   0  0  0  0  0  0  0  0  0  0  0  0
   24.2454  -20.8964  -11.3641 N   0  0  0  0  0  0  0  0  0  0  0  0
   23.9851  -21.0349  -12.7759 C   0  0  1  0  0  0  0  0  0  0  0  0
   22.7018  -21.8081  -13.0400 C   0  0  0  0  0  0  0  0  0  0  0  0
   22.4532  -22.0662  -14.4888 C   0  0  0  0  0  0  0  0  0  0  0  0
   22.1316  -23.5084  -14.6889 C   0  0  0  0  0  0  0  0  0  0  0  0
   21.8512  -23.8718  -16.1208 C   0  0  0  0  0  0  0  0  0  0  0  0
   21.7058  -25.3234  -16.2136 N   0  0  0  0  0  0  0  0  0  0  0  0
   23.8158  -19.7201  -13.4429 C   0  0  0  0  0  0  0  0  0  0  0  0
   23.0788  -18.8586  -12.9006 O   0  0  0  0  0  0  0  0  0  0  0  0
   27.3316  -15.5636  -15.6459 C   0  0  0  0  0  0  0  0  0  0  0  0
   25.9412  -16.0902  -15.7080 C   0  0  1  0  0  0  0  0  0  0  0  0
   25.4520  -15.8443  -17.1353 C   0  0  0  0  0  0  0  0  0  0  0  0
   25.6534  -17.4379  -15.2239 C   0  0  0  0  0  0  0  0  0  0  0  0
   24.2938  -18.0109  -15.2577 C   0  0  2  0  0  0  0  0  0  0  0  0
   24.4445  -19.3817  -14.6659 N   0  0  0  0  0  0  0  0  0  0  0  0
   23.7926  -18.2478  -16.6006 C   0  0  0  0  0  0  0  0  0  0  0  0
   22.8275  -17.5149  -17.0318 O   0  0  0  0  0  0  0  0  0  0  0  0
   24.2249  -19.1816  -17.5216 O   0  0  0  0  0  0  0  0  0  0  0  0
  2  4  1  0
  2  1  1  6
  3  2  1  0
  4  5  1  0
  5  6  1  1
  7  5  1  0
  7  8  2  0
  9  7  1  0
 10  9  1  0
 10 11  1  1
 12 11  1  0
 13 14  1  0
 13 12  1  0
 15 14  1  0
 16 23  1  0
 16 10  1  0
 17 16  2  0
 19 18  1  6
 19 21  1  0
 20 19  1  0
 22 21  1  6
 22 23  1  0
 24 26  1  0
 24 22  1  0
 25 24  2  0
M  END
$$$$
