LKL.pdb
     RDKit          3D

 26 25  0  0  1  0  0  0  0  0999 V2000
   17.7854  -12.5403  -19.4142 C   0  0  0  0  0  0  0  0  0  0  0  0
   18.6975  -12.4178  -18.2221 C   0  0  1  0  0  0  0  0  0  0  0  0
   20.1195  -12.8319  -18.5222 C   0  0  0  0  0  0  0  0  0  0  0  0
   18.5869  -11.1434  -17.4855 C   0  0  0  0  0  0  0  0  0  0  0  0
   19.4396  -10.9539  -16.2874 C   0  0  2  0  0  0  0  0  0  0  0  0
   19.3484  -11.9589  -15.2856 N   0  0  0  0  0  0  0  0  0  0  0  0
   19.1460   -9.6471  -15.6761 C   0  0  0  0  0  0  0  0  0  0  0  0
   19.0154   -8.6341  -16.4078 O   0  0  0  0  0  0  0  0  0  0  0  0
   18.9952   -9.4406  -14.2797 N   0  0  0  0  0  0  0  0  0  0  0  0
   18.6373   -8.1485  -13.7484 C   0  0  1  0  0  0  0  0  0  0  0  0
   18.1076   -8.2502  -12.3259 C   0  0  0  0  0  0  0  0  0  0  0  0
   17.5954   -6.9547  -11.7905 C   0  0  0  0  0  0  0  0  0  0  0  0
   17.0867   -7.1564  -10.4034 C   0  0  0  0  0  0  0  0  0  0  0  0
   16.4129   -5.9430   -9.8247 C   0  0  0  0  0  0  0  0  0  0  0  0
   15.9255   -6.2738   -8.4869 N   0  0  0  0  0  0  0  0  0  0  0  0
   19.8008   -7.2293  -13.6875 C   0  0  0  0  0  0  0  0  0  0  0  0
   20.7918   -7.5557  -12.9870 O   0  0  0  0  0  0  0  0  0  0  0  0
   23.9325   -4.4428  -15.6826 C   0  0  0  0  0  0  0  0  0  0  0  0
   22.5675   -4.0806  -16.1513 C   0  0  1  0  0  0  0  0  0  0  0  0
   22.6709   -3.8828  -17.6637 C   0  0  0  0  0  0  0  0  0  0  0  0
   21.4232   -4.8968  -15.7535 C   0  0  0  0  0  0  0  0  0  0  0  0
   21.0858   -5.1389  -14.3373 C   0  0  2  0  0  0  0  0  0  0  0  0
   19.8548   -5.9959  -14.3813 N   0  0  0  0  0  0  0  0  0  0  0  0
   20.6714   -3.9438  -13.6227 C   0  0  0  0  0  0  0  0  0  0  0  0
   21.5811   -3.1589  -13.1635 O   0  0  0  0  0  0  0  0  0  0  0  0
   19.3878   -3.5077  -13.3593 O   0  0  0  0  0  0  0  0  0  0  0  0
  2  4  1  0
  2  1  1  6
  3  2  1  0
  4  5  1  0
  5  6  1  1
  7  5  1  0
  7  8  2  0
  9  7  1  0
 10  9  1  0
 10 11  1  1
 12 11  1  0
 13 14  1  0
 13 12  1  0
 15 14  1  0
 16 23  1  0
 16 10  1  0
 17 16  2  0
 19 18  1  6
 19 21  1  0
 20 19  1  0
 22 21  1  6
 22 23  1  0
 24 26  1  0
 24 22  1  0
 25 24  2  0
M  END
$$$$
