LKL.pdb
     RDKit          3D

 26 25  0  0  1  0  0  0  0  0999 V2000
   17.0760  -10.2211  -19.4842 C   0  0  0  0  0  0  0  0  0  0  0  0
   18.1803  -11.1800  -19.1249 C   0  0  1  0  0  0  0  0  0  0  0  0
   18.9438  -11.6788  -20.3299 C   0  0  0  0  0  0  0  0  0  0  0  0
   19.0412  -10.7435  -18.0081 C   0  0  0  0  0  0  0  0  0  0  0  0
   20.1751  -11.6162  -17.6192 C   0  0  2  0  0  0  0  0  0  0  0  0
   19.8340  -12.8761  -17.0553 N   0  0  0  0  0  0  0  0  0  0  0  0
   21.0496  -10.8966  -16.6782 C   0  0  0  0  0  0  0  0  0  0  0  0
   20.7804  -10.9028  -15.4510 O   0  0  0  0  0  0  0  0  0  0  0  0
   22.2087  -10.1749  -17.0665 N   0  0  0  0  0  0  0  0  0  0  0  0
   23.0132   -9.4730  -16.0969 C   0  0  1  0  0  0  0  0  0  0  0  0
   24.5005   -9.6729  -16.3467 C   0  0  0  0  0  0  0  0  0  0  0  0
   24.9701  -11.0580  -16.0495 C   0  0  0  0  0  0  0  0  0  0  0  0
   26.4581  -11.1073  -16.1334 C   0  0  0  0  0  0  0  0  0  0  0  0
   27.0231  -12.4971  -16.0333 C   0  0  0  0  0  0  0  0  0  0  0  0
   28.4750  -12.4224  -16.1858 N   0  0  0  0  0  0  0  0  0  0  0  0
   22.7842   -8.0073  -16.1389 C   0  0  0  0  0  0  0  0  0  0  0  0
   22.5364   -7.4667  -17.2460 O   0  0  0  0  0  0  0  0  0  0  0  0
   20.8415   -3.3932  -16.6211 C   0  0  0  0  0  0  0  0  0  0  0  0
   20.3689   -4.4093  -15.6421 C   0  0  1  0  0  0  0  0  0  0  0  0
   18.8756   -4.6001  -15.9078 C   0  0  0  0  0  0  0  0  0  0  0  0
   21.0942   -5.6688  -15.4963 C   0  0  0  0  0  0  0  0  0  0  0  0
   22.5096   -5.7164  -15.0808 C   0  0  2  0  0  0  0  0  0  0  0  0
   22.8299   -7.1797  -14.9907 N   0  0  0  0  0  0  0  0  0  0  0  0
   22.7422   -5.2101  -13.7391 C   0  0  0  0  0  0  0  0  0  0  0  0
   22.4904   -5.9820  -12.7414 O   0  0  0  0  0  0  0  0  0  0  0  0
   23.2201   -3.9697  -13.3648 O   0  0  0  0  0  0  0  0  0  0  0  0
  2  4  1  0
  2  1  1  6
  3  2  1  0
  4  5  1  0
  5  6  1  1
  7  5  1  0
  7  8  2  0
  9  7  1  0
 10  9  1  0
 10 11  1  6
 12 11  1  0
 13 14  1  0
 13 12  1  0
 15 14  1  0
 16 23  1  0
 16 10  1  0
 17 16  2  0
 19 18  1  6
 19 21  1  0
 20 19  1  0
 22 21  1  1
 22 23  1  0
 24 26  1  0
 24 22  1  0
 25 24  2  0
M  END
$$$$
