LKL.pdb
     RDKit          3D

 26 25  0  0  1  0  0  0  0  0999 V2000
   20.7762  -18.7300   -9.8120 C   0  0  0  0  0  0  0  0  0  0  0  0
   20.7084  -19.8768  -10.7858 C   0  0  1  0  0  0  0  0  0  0  0  0
   19.3113  -20.4284  -10.9514 C   0  0  0  0  0  0  0  0  0  0  0  0
   21.4188  -19.6508  -12.0598 C   0  0  0  0  0  0  0  0  0  0  0  0
   21.3597  -20.7158  -13.0898 C   0  0  2  0  0  0  0  0  0  0  0  0
   21.4810  -22.0523  -12.6198 N   0  0  0  0  0  0  0  0  0  0  0  0
   22.3966  -20.4748  -14.1069 C   0  0  0  0  0  0  0  0  0  0  0  0
   22.5695  -19.3138  -14.5551 O   0  0  0  0  0  0  0  0  0  0  0  0
   23.2407  -21.4871  -14.6343 N   0  0  0  0  0  0  0  0  0  0  0  0
   24.2061  -21.1948  -15.6650 C   0  0  1  0  0  0  0  0  0  0  0  0
   25.3062  -22.2442  -15.7218 C   0  0  0  0  0  0  0  0  0  0  0  0
   26.4452  -21.8611  -16.6067 C   0  0  0  0  0  0  0  0  0  0  0  0
   27.4377  -22.9731  -16.6493 C   0  0  0  0  0  0  0  0  0  0  0  0
   28.6424  -22.6754  -17.4984 C   0  0  0  0  0  0  0  0  0  0  0  0
   29.5415  -23.8271  -17.4523 N   0  0  0  0  0  0  0  0  0  0  0  0
   23.5906  -21.1732  -17.0152 C   0  0  0  0  0  0  0  0  0  0  0  0
   22.5471  -21.8448  -17.2136 O   0  0  0  0  0  0  0  0  0  0  0  0
   20.2466  -17.7470  -19.4286 C   0  0  0  0  0  0  0  0  0  0  0  0
   20.9427  -19.0445  -19.2137 C   0  0  1  0  0  0  0  0  0  0  0  0
   20.6323  -19.9065  -20.4375 C   0  0  0  0  0  0  0  0  0  0  0  0
   22.3554  -19.0574  -18.8427 C   0  0  0  0  0  0  0  0  0  0  0  0
   23.2781  -20.1142  -19.3008 C   0  0  2  0  0  0  0  0  0  0  0  0
   24.1193  -20.4310  -18.0992 N   0  0  0  0  0  0  0  0  0  0  0  0
   24.2297  -19.6653  -20.3026 C   0  0  0  0  0  0  0  0  0  0  0  0
   25.3182  -19.1066  -19.9058 O   0  0  0  0  0  0  0  0  0  0  0  0
   24.1327  -19.7610  -21.6768 O   0  0  0  0  0  0  0  0  0  0  0  0
  2  4  1  0
  2  1  1  6
  3  2  1  0
  4  5  1  0
  5  6  1  1
  7  5  1  0
  7  8  2  0
  9  7  1  0
 10  9  1  0
 10 11  1  6
 12 11  1  0
 13 14  1  0
 13 12  1  0
 15 14  1  0
 16 23  1  0
 16 10  1  0
 17 16  2  0
 19 18  1  6
 19 21  1  0
 20 19  1  0
 22 21  1  1
 22 23  1  0
 24 26  1  0
 24 22  1  0
 25 24  2  0
M  END
$$$$
