LKL.pdb
     RDKit          3D

 26 25  0  0  1  0  0  0  0  0999 V2000
   28.3449  -18.5788   -6.1924 C   0  0  0  0  0  0  0  0  0  0  0  0
   27.8102  -19.8618   -6.7722 C   0  0  1  0  0  0  0  0  0  0  0  0
   26.9967  -20.6628   -5.7822 C   0  0  0  0  0  0  0  0  0  0  0  0
   27.1763  -19.7257   -8.0983 C   0  0  0  0  0  0  0  0  0  0  0  0
   26.5976  -20.9398   -8.7226 C   0  0  2  0  0  0  0  0  0  0  0  0
   27.4975  -22.0152   -8.9583 N   0  0  0  0  0  0  0  0  0  0  0  0
   25.9482  -20.5778   -9.9934 C   0  0  0  0  0  0  0  0  0  0  0  0
   25.2870  -19.5123  -10.0719 O   0  0  0  0  0  0  0  0  0  0  0  0
   26.0156  -21.3669  -11.1716 N   0  0  0  0  0  0  0  0  0  0  0  0
   25.4746  -20.8933  -12.4217 C   0  0  1  0  0  0  0  0  0  0  0  0
   26.1500  -21.5527  -13.6149 C   0  0  0  0  0  0  0  0  0  0  0  0
   25.6722  -21.0310  -14.9290 C   0  0  0  0  0  0  0  0  0  0  0  0
   26.4123  -21.7088  -16.0318 C   0  0  0  0  0  0  0  0  0  0  0  0
   26.0869  -21.1708  -17.3977 C   0  0  0  0  0  0  0  0  0  0  0  0
   26.7796  -21.9832  -18.3961 N   0  0  0  0  0  0  0  0  0  0  0  0
   24.0273  -21.1943  -12.5523 C   0  0  0  0  0  0  0  0  0  0  0  0
   23.5929  -22.2804  -12.0931 O   0  0  0  0  0  0  0  0  0  0  0  0
   19.8252  -17.5610  -11.7103 C   0  0  0  0  0  0  0  0  0  0  0  0
   20.5484  -18.8583  -11.8009 C   0  0  1  0  0  0  0  0  0  0  0  0
   19.7436  -19.8578  -10.9701 C   0  0  0  0  0  0  0  0  0  0  0  0
   20.9427  -19.3796  -13.1071 C   0  0  0  0  0  0  0  0  0  0  0  0
   21.6468  -20.6678  -13.2587 C   0  0  2  0  0  0  0  0  0  0  0  0
   23.1032  -20.3172  -13.1707 N   0  0  0  0  0  0  0  0  0  0  0  0
   21.4955  -21.2652  -14.5743 C   0  0  0  0  0  0  0  0  0  0  0  0
   20.3718  -21.8169  -14.8704 O   0  0  0  0  0  0  0  0  0  0  0  0
   22.4208  -21.3237  -15.5977 O   0  0  0  0  0  0  0  0  0  0  0  0
  2  4  1  0
  2  1  1  1
  3  2  1  0
  4  5  1  0
  5  6  1  6
  7  5  1  0
  7  8  2  0
  9  7  1  0
 10  9  1  0
 10 11  1  6
 12 11  1  0
 13 14  1  0
 13 12  1  0
 15 14  1  0
 16 23  1  0
 16 10  1  0
 17 16  2  0
 19 18  1  6
 19 21  1  0
 20 19  1  0
 22 21  1  6
 22 23  1  0
 24 26  1  0
 24 22  1  0
 25 24  2  0
M  END
$$$$
