GYK.pdb
     RDKit          3D

 26 26  0  0  1  0  0  0  0  0999 V2000
    6.8986  -19.5275   20.0842 N   0  0  0  0  0  0  0  0  0  0  0  0
    6.5432  -18.7727   21.2600 C   0  0  0  0  0  0  0  0  0  0  0  0
    7.6618  -17.8562   21.5996 C   0  0  0  0  0  0  0  0  0  0  0  0
    8.8482  -18.1713   21.2882 O   0  0  0  0  0  0  0  0  0  0  0  0
    7.6824  -12.0302   17.5308 O   0  0  0  0  0  0  0  0  0  0  0  0
    7.8158  -12.6013   18.8121 C   0  0  0  0  0  0  0  0  0  0  0  0
    9.0428  -12.6414   19.4177 C   0  0  0  0  0  0  0  0  0  0  0  0
    9.1698  -13.2084   20.6873 C   0  0  0  0  0  0  0  0  0  0  0  0
    8.0859  -13.7296   21.3462 C   0  0  0  0  0  0  0  0  0  0  0  0
    8.1872  -14.3230   22.6693 C   0  0  0  0  0  0  0  0  0  0  0  0
    8.5935  -15.7773   22.6984 C   0  0  2  0  0  0  0  0  0  0  0  0
    7.4915  -16.6299   22.2607 N   0  0  0  0  0  0  0  0  0  0  0  0
    9.0522  -16.2450   24.0253 C   0  0  0  0  0  0  0  0  0  0  0  0
    8.2170  -16.4359   24.9630 O   0  0  0  0  0  0  0  0  0  0  0  0
    6.8715  -13.6700   20.7039 C   0  0  0  0  0  0  0  0  0  0  0  0
    6.7246  -13.1182   19.4584 C   0  0  0  0  0  0  0  0  0  0  0  0
   10.4095  -16.5149   24.3558 N   0  0  0  0  0  0  0  0  0  0  0  0
   10.7736  -17.1378   25.6430 C   0  0  1  0  0  0  0  0  0  0  0  0
   10.9887  -18.6276   25.4219 C   0  0  0  0  0  0  0  0  0  0  0  0
   11.3124  -19.3785   26.6829 C   0  0  0  0  0  0  0  0  0  0  0  0
   11.4770  -20.8643   26.4136 C   0  0  0  0  0  0  0  0  0  0  0  0
   11.8317  -21.6171   27.6644 C   0  0  0  0  0  0  0  0  0  0  0  0
   11.7955  -23.0398   27.4872 N   0  0  0  0  0  0  0  0  0  0  0  0
   11.9225  -16.4633   26.2534 C   0  0  0  0  0  0  0  0  0  0  0  0
   12.1510  -16.4248   27.6175 O   0  0  0  0  0  0  0  0  0  0  0  0
   12.7684  -15.8747   25.5340 O   0  0  0  0  0  0  0  0  0  0  0  0
  1  2  1  0
  2  3  1  0
  3 12  1  0
  3  4  2  0
  6 16  2  0
  6  5  1  0
  7  6  1  0
  8  9  1  0
  8  7  2  0
  9 15  2  0
 10  9  1  0
 11 10  1  1
 11 13  1  0
 12 11  1  0
 13 14  2  0
 13 17  1  0
 15 16  1  0
 17 18  1  0
 18 24  1  0
 18 19  1  6
 20 19  1  0
 21 20  1  0
 22 21  1  0
 23 22  1  0
 24 25  1  0
 26 24  2  0
M  END
$$$$
