GYK.pdb
     RDKit          3D

 26 26  0  0  1  0  0  0  0  0999 V2000
    8.1914  -13.1899   17.5269 N   0  0  0  0  0  0  0  0  0  0  0  0
    7.4735  -14.1173   18.3653 C   0  0  0  0  0  0  0  0  0  0  0  0
    7.9409  -13.9603   19.7665 C   0  0  0  0  0  0  0  0  0  0  0  0
    9.0871  -13.4729   19.9951 O   0  0  0  0  0  0  0  0  0  0  0  0
    7.7748  -13.4323   28.6677 O   0  0  0  0  0  0  0  0  0  0  0  0
    7.4535  -13.5368   27.2996 C   0  0  0  0  0  0  0  0  0  0  0  0
    7.6880  -12.4810   26.4604 C   0  0  0  0  0  0  0  0  0  0  0  0
    7.3679  -12.5895   25.1056 C   0  0  0  0  0  0  0  0  0  0  0  0
    6.8202  -13.7374   24.5928 C   0  0  0  0  0  0  0  0  0  0  0  0
    6.4799  -13.8802   23.1869 C   0  0  0  0  0  0  0  0  0  0  0  0
    7.6382  -14.1869   22.2673 C   0  0  2  0  0  0  0  0  0  0  0  0
    7.1794  -14.3248   20.8877 N   0  0  0  0  0  0  0  0  0  0  0  0
    8.3905  -15.4063   22.6374 C   0  0  0  0  0  0  0  0  0  0  0  0
    7.8649  -16.5536   22.4935 O   0  0  0  0  0  0  0  0  0  0  0  0
    6.6003  -14.7745   25.4685 C   0  0  0  0  0  0  0  0  0  0  0  0
    6.9068  -14.6894   26.8013 C   0  0  0  0  0  0  0  0  0  0  0  0
    9.7134  -15.4049   23.1612 N   0  0  0  0  0  0  0  0  0  0  0  0
   10.3594  -16.6535   23.6095 C   0  0  1  0  0  0  0  0  0  0  0  0
   11.6426  -16.8523   22.8168 C   0  0  0  0  0  0  0  0  0  0  0  0
   11.4093  -17.0913   21.3515 C   0  0  0  0  0  0  0  0  0  0  0  0
   12.7164  -17.3344   20.6169 C   0  0  0  0  0  0  0  0  0  0  0  0
   12.4875  -17.6161   19.1592 C   0  0  0  0  0  0  0  0  0  0  0  0
   13.7038  -17.8729   18.4439 N   0  0  0  0  0  0  0  0  0  0  0  0
   10.5600  -16.6562   25.0612 C   0  0  0  0  0  0  0  0  0  0  0  0
   10.2698  -15.5760   25.8757 O   0  0  0  0  0  0  0  0  0  0  0  0
   11.0202  -17.6747   25.6362 O   0  0  0  0  0  0  0  0  0  0  0  0
  1  2  1  0
  2  3  1  0
  3 12  1  0
  3  4  2  0
  6 16  2  0
  6  5  1  0
  7  6  1  0
  8  9  1  0
  8  7  2  0
  9 15  2  0
 10  9  1  0
 11 10  1  1
 11 13  1  0
 12 11  1  0
 13 14  2  0
 13 17  1  0
 15 16  1  0
 17 18  1  0
 18 24  1  0
 18 19  1  6
 20 19  1  0
 21 20  1  0
 22 21  1  0
 23 22  1  0
 24 25  1  0
 26 24  2  0
M  END
$$$$
