GYK.pdb
     RDKit          3D

 26 26  0  0  1  0  0  0  0  0999 V2000
    5.0841  -20.8741   22.7003 N   0  0  0  0  0  0  0  0  0  0  0  0
    5.7739  -20.6085   23.9380 C   0  0  0  0  0  0  0  0  0  0  0  0
    6.3015  -19.2203   23.9065 C   0  0  0  0  0  0  0  0  0  0  0  0
    6.4159  -18.6171   22.7989 O   0  0  0  0  0  0  0  0  0  0  0  0
    7.8428  -10.8834   26.4322 O   0  0  0  0  0  0  0  0  0  0  0  0
    7.6079  -12.2726   26.4138 C   0  0  0  0  0  0  0  0  0  0  0  0
    6.3338  -12.7479   26.2564 C   0  0  0  0  0  0  0  0  0  0  0  0
    6.1062  -14.1254   26.2388 C   0  0  0  0  0  0  0  0  0  0  0  0
    7.1369  -15.0194   26.3766 C   0  0  0  0  0  0  0  0  0  0  0  0
    6.9306  -16.4582   26.3590 C   0  0  0  0  0  0  0  0  0  0  0  0
    7.1819  -17.1330   25.0314 C   0  0  2  0  0  0  0  0  0  0  0  0
    6.6935  -18.5092   25.0513 N   0  0  0  0  0  0  0  0  0  0  0  0
    8.6047  -17.1443   24.6247 C   0  0  0  0  0  0  0  0  0  0  0  0
    9.4055  -18.0007   25.1132 O   0  0  0  0  0  0  0  0  0  0  0  0
    8.4012  -14.5018   26.5326 C   0  0  0  0  0  0  0  0  0  0  0  0
    8.6469  -13.1540   26.5527 C   0  0  0  0  0  0  0  0  0  0  0  0
    9.1788  -16.2397   23.6886 N   0  0  0  0  0  0  0  0  0  0  0  0
   10.5485  -16.4368   23.1762 C   0  0  1  0  0  0  0  0  0  0  0  0
   10.6893  -15.6922   21.8571 C   0  0  0  0  0  0  0  0  0  0  0  0
   12.0327  -15.8737   21.2083 C   0  0  0  0  0  0  0  0  0  0  0  0
   12.1575  -15.0295   19.9518 C   0  0  0  0  0  0  0  0  0  0  0  0
   13.4111  -15.3535   19.1900 C   0  0  0  0  0  0  0  0  0  0  0  0
   13.4344  -14.7678   17.8811 N   0  0  0  0  0  0  0  0  0  0  0  0
   11.5497  -16.0543   24.1757 C   0  0  0  0  0  0  0  0  0  0  0  0
   12.7839  -16.6680   24.2960 O   0  0  0  0  0  0  0  0  0  0  0  0
   11.3129  -15.1243   24.9872 O   0  0  0  0  0  0  0  0  0  0  0  0
  1  2  1  0
  2  3  1  0
  3 12  1  0
  3  4  2  0
  6 16  2  0
  6  5  1  0
  7  6  1  0
  8  9  1  0
  8  7  2  0
  9 15  2  0
 10  9  1  0
 11 10  1  1
 11 13  1  0
 12 11  1  0
 13 14  2  0
 13 17  1  0
 15 16  1  0
 17 18  1  0
 18 24  1  0
 18 19  1  6
 20 19  1  0
 21 20  1  0
 22 21  1  0
 23 22  1  0
 24 25  1  0
 26 24  2  0
M  END
$$$$
