GYK.pdb
     RDKit          3D

 26 26  0  0  1  0  0  0  0  0999 V2000
    8.9459  -19.8953   19.5440 N   0  0  0  0  0  0  0  0  0  0  0  0
    8.7270  -19.3044   20.8407 C   0  0  0  0  0  0  0  0  0  0  0  0
    9.6075  -18.1167   20.9832 C   0  0  0  0  0  0  0  0  0  0  0  0
   10.5266  -17.9114   20.1365 O   0  0  0  0  0  0  0  0  0  0  0  0
    6.2199  -12.5495   18.8051 O   0  0  0  0  0  0  0  0  0  0  0  0
    7.0853  -13.1153   19.7624 C   0  0  0  0  0  0  0  0  0  0  0  0
    8.4390  -12.9528   19.6400 C   0  0  0  0  0  0  0  0  0  0  0  0
    9.2924  -13.5154   20.5912 C   0  0  0  0  0  0  0  0  0  0  0  0
    8.8022  -14.2320   21.6527 C   0  0  0  0  0  0  0  0  0  0  0  0
    9.6659  -14.8262   22.6596 C   0  0  0  0  0  0  0  0  0  0  0  0
   10.4121  -16.0651   22.2245 C   0  0  2  0  0  0  0  0  0  0  0  0
    9.4892  -17.1784   22.0202 N   0  0  0  0  0  0  0  0  0  0  0  0
   11.4649  -16.4942   23.1718 C   0  0  0  0  0  0  0  0  0  0  0  0
   11.1658  -16.8063   24.3662 O   0  0  0  0  0  0  0  0  0  0  0  0
    7.4371  -14.3723   21.7395 C   0  0  0  0  0  0  0  0  0  0  0  0
    6.5817  -13.8287   20.8175 C   0  0  0  0  0  0  0  0  0  0  0  0
   12.8459  -16.5952   22.8446 N   0  0  0  0  0  0  0  0  0  0  0  0
   13.8327  -17.0717   23.8328 C   0  0  1  0  0  0  0  0  0  0  0  0
   14.5861  -18.2535   23.2410 C   0  0  0  0  0  0  0  0  0  0  0  0
   13.7108  -19.4440   22.9670 C   0  0  0  0  0  0  0  0  0  0  0  0
   14.4839  -20.5480   22.2664 C   0  0  0  0  0  0  0  0  0  0  0  0
   13.6235  -21.7543   22.0185 C   0  0  0  0  0  0  0  0  0  0  0  0
   14.2976  -22.7747   21.2694 N   0  0  0  0  0  0  0  0  0  0  0  0
   14.7062  -15.9828   24.2787 C   0  0  0  0  0  0  0  0  0  0  0  0
   14.7090  -14.7219   23.7089 O   0  0  0  0  0  0  0  0  0  0  0  0
   15.5122  -16.1635   25.2261 O   0  0  0  0  0  0  0  0  0  0  0  0
  1  2  1  0
  2  3  1  0
  3 12  1  0
  3  4  2  0
  6 16  2  0
  6  5  1  0
  7  6  1  0
  8  9  1  0
  8  7  2  0
  9 15  2  0
 10  9  1  0
 11 10  1  1
 11 13  1  0
 12 11  1  0
 13 14  2  0
 13 17  1  0
 15 16  1  0
 17 18  1  0
 18 24  1  0
 18 19  1  6
 20 19  1  0
 21 20  1  0
 22 21  1  0
 23 22  1  0
 24 25  1  0
 26 24  2  0
M  END
$$$$
