GYK.pdb
     RDKit          3D

 26 26  0  0  1  0  0  0  0  0999 V2000
    9.3504  -16.4534   18.4890 N   0  0  0  0  0  0  0  0  0  0  0  0
    8.1293  -16.2248   19.2205 C   0  0  0  0  0  0  0  0  0  0  0  0
    8.4655  -15.6690   20.5563 C   0  0  0  0  0  0  0  0  0  0  0  0
    9.6556  -15.7382   20.9837 O   0  0  0  0  0  0  0  0  0  0  0  0
    7.4347  -11.7703   28.5293 O   0  0  0  0  0  0  0  0  0  0  0  0
    7.2469  -12.2640   27.2229 C   0  0  0  0  0  0  0  0  0  0  0  0
    6.3137  -13.2377   26.9884 C   0  0  0  0  0  0  0  0  0  0  0  0
    6.1314  -13.7237   25.6921 C   0  0  0  0  0  0  0  0  0  0  0  0
    6.8708  -13.2446   24.6412 C   0  0  0  0  0  0  0  0  0  0  0  0
    6.7007  -13.7289   23.2813 C   0  0  0  0  0  0  0  0  0  0  0  0
    7.8391  -14.5626   22.7428 C   0  0  2  0  0  0  0  0  0  0  0  0
    7.5299  -15.0544   21.4029 N   0  0  0  0  0  0  0  0  0  0  0  0
    8.1931  -15.7172   23.5980 C   0  0  0  0  0  0  0  0  0  0  0  0
    7.3756  -16.6771   23.7517 O   0  0  0  0  0  0  0  0  0  0  0  0
    7.7974  -12.2673   24.9186 C   0  0  0  0  0  0  0  0  0  0  0  0
    7.9926  -11.7763   26.1828 C   0  0  0  0  0  0  0  0  0  0  0  0
    9.4277  -15.8531   24.2920 N   0  0  0  0  0  0  0  0  0  0  0  0
    9.6601  -16.9706   25.2272 C   0  0  1  0  0  0  0  0  0  0  0  0
   10.6890  -17.9117   24.6188 C   0  0  0  0  0  0  0  0  0  0  0  0
   10.1678  -18.6868   23.4413 C   0  0  0  0  0  0  0  0  0  0  0  0
   11.2384  -19.5941   22.8602 C   0  0  0  0  0  0  0  0  0  0  0  0
   10.7410  -20.3317   21.6497 C   0  0  0  0  0  0  0  0  0  0  0  0
   11.7695  -21.0889   20.9972 N   0  0  0  0  0  0  0  0  0  0  0  0
   10.0276  -16.4812   26.5587 C   0  0  0  0  0  0  0  0  0  0  0  0
   10.3933  -15.1723   26.8188 O   0  0  0  0  0  0  0  0  0  0  0  0
   10.0246  -17.2610   27.5444 O   0  0  0  0  0  0  0  0  0  0  0  0
  1  2  1  0
  2  3  1  0
  3 12  1  0
  3  4  2  0
  6 16  2  0
  6  5  1  0
  7  6  1  0
  8  9  1  0
  8  7  2  0
  9 15  2  0
 10  9  1  0
 11 10  1  1
 11 13  1  0
 12 11  1  0
 13 14  2  0
 13 17  1  0
 15 16  1  0
 17 18  1  0
 18 24  1  0
 18 19  1  6
 20 19  1  0
 21 20  1  0
 22 21  1  0
 23 22  1  0
 24 25  1  0
 26 24  2  0
M  END
$$$$
