GYK.pdb
     RDKit          3D

 26 26  0  0  1  0  0  0  0  0999 V2000
    5.3387  -20.7873   22.2152 N   0  0  0  0  0  0  0  0  0  0  0  0
    5.5701  -20.4110   23.5875 C   0  0  0  0  0  0  0  0  0  0  0  0
    6.1742  -19.0543   23.6191 C   0  0  0  0  0  0  0  0  0  0  0  0
    6.4293  -18.4552   22.5329 O   0  0  0  0  0  0  0  0  0  0  0  0
    7.9435  -10.8187   26.3250 O   0  0  0  0  0  0  0  0  0  0  0  0
    7.6257  -12.1906   26.2728 C   0  0  0  0  0  0  0  0  0  0  0  0
    6.4441  -12.5972   25.7139 C   0  0  0  0  0  0  0  0  0  0  0  0
    6.1338  -13.9577   25.6646 C   0  0  0  0  0  0  0  0  0  0  0  0
    6.9917  -14.9025   26.1664 C   0  0  0  0  0  0  0  0  0  0  0  0
    6.6970  -16.3254   26.1260 C   0  0  0  0  0  0  0  0  0  0  0  0
    7.0671  -17.0279   24.8412 C   0  0  2  0  0  0  0  0  0  0  0  0
    6.4916  -18.3696   24.8024 N   0  0  0  0  0  0  0  0  0  0  0  0
    8.5256  -17.1346   24.6152 C   0  0  0  0  0  0  0  0  0  0  0  0
    9.2020  -18.0364   25.2006 O   0  0  0  0  0  0  0  0  0  0  0  0
    8.1678  -14.4532   26.7192 C   0  0  0  0  0  0  0  0  0  0  0  0
    8.4921  -13.1233   26.7780 C   0  0  0  0  0  0  0  0  0  0  0  0
    9.2694  -16.2773   23.7572 N   0  0  0  0  0  0  0  0  0  0  0  0
   10.6638  -16.5881   23.3878 C   0  0  1  0  0  0  0  0  0  0  0  0
   10.9259  -16.0658   21.9832 C   0  0  0  0  0  0  0  0  0  0  0  0
   11.4282  -17.1200   21.0372 C   0  0  0  0  0  0  0  0  0  0  0  0
   11.0470  -16.8007   19.6020 C   0  0  0  0  0  0  0  0  0  0  0  0
   11.7128  -17.7348   18.6319 C   0  0  0  0  0  0  0  0  0  0  0  0
   11.3517  -17.4723   17.2690 N   0  0  0  0  0  0  0  0  0  0  0  0
   11.6048  -16.0777   24.3887 C   0  0  0  0  0  0  0  0  0  0  0  0
   11.2231  -15.3182   25.4805 O   0  0  0  0  0  0  0  0  0  0  0  0
   12.8338  -16.3193   24.2854 O   0  0  0  0  0  0  0  0  0  0  0  0
  1  2  1  0
  2  3  1  0
  3 12  1  0
  3  4  2  0
  6 16  2  0
  6  5  1  0
  7  6  1  0
  8  9  1  0
  8  7  2  0
  9 15  2  0
 10  9  1  0
 11 10  1  1
 11 13  1  0
 12 11  1  0
 13 14  2  0
 13 17  1  0
 15 16  1  0
 17 18  1  0
 18 24  1  0
 18 19  1  6
 20 19  1  0
 21 20  1  0
 22 21  1  0
 23 22  1  0
 24 25  1  0
 26 24  2  0
M  END
$$$$
