GYK.pdb
     RDKit          3D

 26 26  0  0  1  0  0  0  0  0999 V2000
    4.7878  -19.4744   24.4058 N   0  0  0  0  0  0  0  0  0  0  0  0
    5.7626  -18.9399   25.3236 C   0  0  0  0  0  0  0  0  0  0  0  0
    6.5806  -17.9210   24.6171 C   0  0  0  0  0  0  0  0  0  0  0  0
    6.3767  -17.6943   23.3880 O   0  0  0  0  0  0  0  0  0  0  0  0
    5.4458  -10.8326   26.4198 O   0  0  0  0  0  0  0  0  0  0  0  0
    6.3225  -11.9128   26.1956 C   0  0  0  0  0  0  0  0  0  0  0  0
    6.7294  -12.6914   27.2455 C   0  0  0  0  0  0  0  0  0  0  0  0
    7.5982  -13.7606   27.0181 C   0  0  0  0  0  0  0  0  0  0  0  0
    8.0562  -14.0509   25.7585 C   0  0  0  0  0  0  0  0  0  0  0  0
    8.9582  -15.1590   25.4914 C   0  0  0  0  0  0  0  0  0  0  0  0
    8.4359  -16.2039   24.5341 C   0  0  2  0  0  0  0  0  0  0  0  0
    7.5932  -17.1698   25.2338 N   0  0  0  0  0  0  0  0  0  0  0  0
    9.4979  -16.9407   23.8135 C   0  0  0  0  0  0  0  0  0  0  0  0
   10.1477  -17.8636   24.3959 O   0  0  0  0  0  0  0  0  0  0  0  0
    7.6241  -13.2451   24.7315 C   0  0  0  0  0  0  0  0  0  0  0  0
    6.7720  -12.1910   24.9322 C   0  0  0  0  0  0  0  0  0  0  0  0
    9.8687  -16.6958   22.4618 N   0  0  0  0  0  0  0  0  0  0  0  0
   10.9600  -17.4531   21.8193 C   0  0  1  0  0  0  0  0  0  0  0  0
   10.8374  -17.3029   20.3104 C   0  0  0  0  0  0  0  0  0  0  0  0
   11.9851  -17.9103   19.5537 C   0  0  0  0  0  0  0  0  0  0  0  0
   11.8479  -17.6739   18.0596 C   0  0  0  0  0  0  0  0  0  0  0  0
   13.0253  -18.2197   17.3028 C   0  0  0  0  0  0  0  0  0  0  0  0
   13.0670  -17.7738   15.9404 N   0  0  0  0  0  0  0  0  0  0  0  0
   12.2673  -17.0500   22.3448 C   0  0  0  0  0  0  0  0  0  0  0  0
   13.3421  -17.9128   22.4666 O   0  0  0  0  0  0  0  0  0  0  0  0
   12.4636  -15.8658   22.7174 O   0  0  0  0  0  0  0  0  0  0  0  0
  1  2  1  0
  2  3  1  0
  3 12  1  0
  3  4  2  0
  6 16  2  0
  6  5  1  0
  7  6  1  0
  8  9  1  0
  8  7  2  0
  9 15  2  0
 10  9  1  0
 11 10  1  1
 11 13  1  0
 12 11  1  0
 13 14  2  0
 13 17  1  0
 15 16  1  0
 17 18  1  0
 18 24  1  0
 18 19  1  6
 20 19  1  0
 21 20  1  0
 22 21  1  0
 23 22  1  0
 24 25  1  0
 26 24  2  0
M  END
$$$$
