GYK.pdb
     RDKit          3D

 26 26  0  0  1  0  0  0  0  0999 V2000
    9.9256  -17.3437   18.0788 N   0  0  0  0  0  0  0  0  0  0  0  0
    9.1350  -17.7492   19.2141 C   0  0  0  0  0  0  0  0  0  0  0  0
    9.2063  -16.6900   20.2530 C   0  0  0  0  0  0  0  0  0  0  0  0
   10.2321  -15.9510   20.3269 O   0  0  0  0  0  0  0  0  0  0  0  0
    6.8304  -11.4632   27.1096 O   0  0  0  0  0  0  0  0  0  0  0  0
    6.8544  -12.3739   26.0346 C   0  0  0  0  0  0  0  0  0  0  0  0
    7.1808  -11.9390   24.7783 C   0  0  0  0  0  0  0  0  0  0  0  0
    7.2032  -12.8453   23.7163 C   0  0  0  0  0  0  0  0  0  0  0  0
    6.9037  -14.1704   23.9043 C   0  0  0  0  0  0  0  0  0  0  0  0
    6.9220  -15.1369   22.8188 C   0  0  0  0  0  0  0  0  0  0  0  0
    8.2891  -15.4692   22.2694 C   0  0  2  0  0  0  0  0  0  0  0  0
    8.1871  -16.4431   21.1859 N   0  0  0  0  0  0  0  0  0  0  0  0
    9.2320  -15.9906   23.2838 C   0  0  0  0  0  0  0  0  0  0  0  0
    9.1676  -17.2028   23.6575 O   0  0  0  0  0  0  0  0  0  0  0  0
    6.5811  -14.5668   25.1807 C   0  0  0  0  0  0  0  0  0  0  0  0
    6.5530  -13.6945   26.2369 C   0  0  0  0  0  0  0  0  0  0  0  0
   10.2534  -15.2169   23.9024 N   0  0  0  0  0  0  0  0  0  0  0  0
   11.1595  -15.8092   24.9052 C   0  0  1  0  0  0  0  0  0  0  0  0
   10.4504  -15.8341   26.2510 C   0  0  0  0  0  0  0  0  0  0  0  0
   11.2260  -16.5478   27.3223 C   0  0  0  0  0  0  0  0  0  0  0  0
   10.6505  -16.2677   28.6998 C   0  0  0  0  0  0  0  0  0  0  0  0
   11.3954  -17.0109   29.7721 C   0  0  0  0  0  0  0  0  0  0  0  0
   10.8043  -16.8570   31.0697 N   0  0  0  0  0  0  0  0  0  0  0  0
   11.6442  -17.1229   24.4729 C   0  0  0  0  0  0  0  0  0  0  0  0
   12.8889  -17.3304   23.9055 O   0  0  0  0  0  0  0  0  0  0  0  0
   10.9201  -18.1416   24.6059 O   0  0  0  0  0  0  0  0  0  0  0  0
  1  2  1  0
  2  3  1  0
  3 12  1  0
  3  4  2  0
  6 16  2  0
  6  5  1  0
  7  6  1  0
  8  9  1  0
  8  7  2  0
  9 15  2  0
 10  9  1  0
 11 10  1  1
 11 13  1  0
 12 11  1  0
 13 14  2  0
 13 17  1  0
 15 16  1  0
 17 18  1  0
 18 24  1  0
 18 19  1  1
 20 19  1  0
 21 20  1  0
 22 21  1  0
 23 22  1  0
 24 25  1  0
 26 24  2  0
M  END
$$$$
