GYK.pdb
     RDKit          3D

 26 26  0  0  1  0  0  0  0  0999 V2000
   11.1570  -17.4561   19.6073 N   0  0  0  0  0  0  0  0  0  0  0  0
    9.8733  -17.5706   20.2534 C   0  0  0  0  0  0  0  0  0  0  0  0
    9.8094  -16.5963   21.3728 C   0  0  0  0  0  0  0  0  0  0  0  0
   10.8802  -16.1189   21.8515 O   0  0  0  0  0  0  0  0  0  0  0  0
    6.4378  -11.1142   27.5640 O   0  0  0  0  0  0  0  0  0  0  0  0
    6.6087  -12.0179   26.4965 C   0  0  0  0  0  0  0  0  0  0  0  0
    6.1004  -13.2858   26.5869 C   0  0  0  0  0  0  0  0  0  0  0  0
    6.2724  -14.1776   25.5263 C   0  0  0  0  0  0  0  0  0  0  0  0
    6.9435  -13.8099   24.3883 C   0  0  0  0  0  0  0  0  0  0  0  0
    7.1351  -14.7154   23.2674 C   0  0  0  0  0  0  0  0  0  0  0  0
    8.5420  -15.2340   23.0859 C   0  0  2  0  0  0  0  0  0  0  0  0
    8.6109  -16.1545   21.9543 N   0  0  0  0  0  0  0  0  0  0  0  0
    9.0884  -15.9150   24.2807 C   0  0  0  0  0  0  0  0  0  0  0  0
    9.3411  -15.2556   25.3365 O   0  0  0  0  0  0  0  0  0  0  0  0
    7.4387  -12.5282   24.3370 C   0  0  0  0  0  0  0  0  0  0  0  0
    7.2813  -11.6371   25.3659 C   0  0  0  0  0  0  0  0  0  0  0  0
    9.3647  -17.3088   24.3537 N   0  0  0  0  0  0  0  0  0  0  0  0
   10.0224  -17.8969   25.5365 C   0  0  1  0  0  0  0  0  0  0  0  0
    9.9800  -19.4129   25.4165 C   0  0  0  0  0  0  0  0  0  0  0  0
   10.6931  -20.1213   26.5339 C   0  0  0  0  0  0  0  0  0  0  0  0
   10.5940  -21.6295   26.3834 C   0  0  0  0  0  0  0  0  0  0  0  0
   11.2623  -22.3442   27.5233 C   0  0  0  0  0  0  0  0  0  0  0  0
   11.0850  -23.7664   27.4695 N   0  0  0  0  0  0  0  0  0  0  0  0
   11.3742  -17.3599   25.7144 C   0  0  0  0  0  0  0  0  0  0  0  0
   12.1593  -16.9026   24.6709 O   0  0  0  0  0  0  0  0  0  0  0  0
   11.8855  -17.2956   26.8608 O   0  0  0  0  0  0  0  0  0  0  0  0
  1  2  1  0
  2  3  1  0
  3 12  1  0
  3  4  2  0
  6 16  2  0
  6  5  1  0
  7  6  1  0
  8  9  1  0
  8  7  2  0
  9 15  2  0
 10  9  1  0
 11 10  1  1
 11 13  1  0
 12 11  1  0
 13 14  2  0
 13 17  1  0
 15 16  1  0
 17 18  1  0
 18 24  1  0
 18 19  1  6
 20 19  1  0
 21 20  1  0
 22 21  1  0
 23 22  1  0
 24 25  1  0
 26 24  2  0
M  END
$$$$
