GYK.pdb
     RDKit          3D

 26 26  0  0  1  0  0  0  0  0999 V2000
    9.6922  -17.3847   19.1062 N   0  0  0  0  0  0  0  0  0  0  0  0
    8.4362  -16.9043   19.6259 C   0  0  0  0  0  0  0  0  0  0  0  0
    8.6791  -16.2361   20.9301 C   0  0  0  0  0  0  0  0  0  0  0  0
    9.7993  -16.3705   21.5054 O   0  0  0  0  0  0  0  0  0  0  0  0
    7.1024  -11.4444   28.3064 O   0  0  0  0  0  0  0  0  0  0  0  0
    7.0414  -12.0300   27.0262 C   0  0  0  0  0  0  0  0  0  0  0  0
    5.9551  -12.7835   26.6709 C   0  0  0  0  0  0  0  0  0  0  0  0
    5.8993  -13.3616   25.4011 C   0  0  0  0  0  0  0  0  0  0  0  0
    6.9148  -13.1908   24.4955 C   0  0  0  0  0  0  0  0  0  0  0  0
    6.8828  -13.7776   23.1660 C   0  0  0  0  0  0  0  0  0  0  0  0
    7.9449  -14.8153   22.8895 C   0  0  2  0  0  0  0  0  0  0  0  0
    7.7269  -15.4431   21.5891 N   0  0  0  0  0  0  0  0  0  0  0  0
    8.0271  -15.8770   23.9170 C   0  0  0  0  0  0  0  0  0  0  0  0
    7.0894  -16.7247   24.0410 O   0  0  0  0  0  0  0  0  0  0  0  0
    7.9879  -12.4274   24.8910 C   0  0  0  0  0  0  0  0  0  0  0  0
    8.0630  -11.8511   26.1318 C   0  0  0  0  0  0  0  0  0  0  0  0
    9.1170  -16.0400   24.8169 N   0  0  0  0  0  0  0  0  0  0  0  0
    9.1694  -17.1769   25.7561 C   0  0  1  0  0  0  0  0  0  0  0  0
    9.7006  -18.3968   25.0184 C   0  0  0  0  0  0  0  0  0  0  0  0
    9.8329  -19.6129   25.8915 C   0  0  0  0  0  0  0  0  0  0  0  0
   10.3950  -20.7912   25.1152 C   0  0  0  0  0  0  0  0  0  0  0  0
   10.5277  -22.0115   25.9813 C   0  0  0  0  0  0  0  0  0  0  0  0
   11.0260  -23.1504   25.2662 N   0  0  0  0  0  0  0  0  0  0  0  0
    9.9364  -16.8380   26.9580 C   0  0  0  0  0  0  0  0  0  0  0  0
   11.1048  -16.0971   26.9364 O   0  0  0  0  0  0  0  0  0  0  0  0
    9.5466  -17.2235   28.0890 O   0  0  0  0  0  0  0  0  0  0  0  0
  1  2  1  0
  2  3  1  0
  3 12  1  0
  3  4  2  0
  6 16  2  0
  6  5  1  0
  7  6  1  0
  8  9  1  0
  8  7  2  0
  9 15  2  0
 10  9  1  0
 11 10  1  1
 11 13  1  0
 12 11  1  0
 13 14  2  0
 13 17  1  0
 15 16  1  0
 17 18  1  0
 18 24  1  0
 18 19  1  6
 20 19  1  0
 21 20  1  0
 22 21  1  0
 23 22  1  0
 24 25  1  0
 26 24  2  0
M  END
$$$$
