GYK.pdb
     RDKit          3D

 26 26  0  0  1  0  0  0  0  0999 V2000
    8.7407  -17.0822   17.9112 N   0  0  0  0  0  0  0  0  0  0  0  0
    7.7464  -17.1762   18.9509 C   0  0  0  0  0  0  0  0  0  0  0  0
    8.1593  -16.3178   20.0906 C   0  0  0  0  0  0  0  0  0  0  0  0
    9.3461  -15.8798   20.1490 O   0  0  0  0  0  0  0  0  0  0  0  0
    7.6693  -11.8646   27.8365 O   0  0  0  0  0  0  0  0  0  0  0  0
    7.3926  -12.5249   26.6228 C   0  0  0  0  0  0  0  0  0  0  0  0
    7.7875  -11.9675   25.4365 C   0  0  0  0  0  0  0  0  0  0  0  0
    7.5109  -12.6257   24.2366 C   0  0  0  0  0  0  0  0  0  0  0  0
    6.8482  -13.8262   24.2190 C   0  0  0  0  0  0  0  0  0  0  0  0
    6.5495  -14.5356   22.9860 C   0  0  0  0  0  0  0  0  0  0  0  0
    7.7291  -15.2037   22.3202 C   0  0  2  0  0  0  0  0  0  0  0  0
    7.3017  -15.9470   21.1380 N   0  0  0  0  0  0  0  0  0  0  0  0
    8.4779  -16.1209   23.2078 C   0  0  0  0  0  0  0  0  0  0  0  0
    7.9509  -17.2081   23.5996 O   0  0  0  0  0  0  0  0  0  0  0  0
    6.4686  -14.3523   25.4314 C   0  0  0  0  0  0  0  0  0  0  0  0
    6.7298  -13.7234   26.6203 C   0  0  0  0  0  0  0  0  0  0  0  0
    9.7987  -15.8809   23.6792 N   0  0  0  0  0  0  0  0  0  0  0  0
   10.5002  -16.8675   24.5230 C   0  0  1  0  0  0  0  0  0  0  0  0
   12.0000  -16.6592   24.3752 C   0  0  0  0  0  0  0  0  0  0  0  0
   12.8020  -17.9114   24.5932 C   0  0  0  0  0  0  0  0  0  0  0  0
   13.8865  -18.0626   23.5406 C   0  0  0  0  0  0  0  0  0  0  0  0
   14.5662  -19.3990   23.6347 C   0  0  0  0  0  0  0  0  0  0  0  0
   15.4508  -19.6526   22.5347 N   0  0  0  0  0  0  0  0  0  0  0  0
   10.0335  -16.8068   25.9109 C   0  0  0  0  0  0  0  0  0  0  0  0
    9.5894  -15.6458   26.5187 O   0  0  0  0  0  0  0  0  0  0  0  0
   10.0215  -17.8429   26.6221 O   0  0  0  0  0  0  0  0  0  0  0  0
  1  2  1  0
  2  3  1  0
  3 12  1  0
  3  4  2  0
  6 16  2  0
  6  5  1  0
  7  6  1  0
  8  9  1  0
  8  7  2  0
  9 15  2  0
 10  9  1  0
 11 10  1  1
 11 13  1  0
 12 11  1  0
 13 14  2  0
 13 17  1  0
 15 16  1  0
 17 18  1  0
 18 24  1  0
 18 19  1  1
 20 19  1  0
 21 20  1  0
 22 21  1  0
 23 22  1  0
 24 25  1  0
 26 24  2  0
M  END
$$$$
