GLC.pdb
     RDKit          3D

 19 18  0  0  1  0  0  0  0  0999 V2000
    6.4299  -18.9337   23.7967 N   0  0  0  0  0  0  0  0  0  0  0  0
    6.2962  -18.0810   24.9651 C   0  0  0  0  0  0  0  0  0  0  0  0
    7.1490  -16.8627   24.7593 C   0  0  0  0  0  0  0  0  0  0  0  0
    7.8669  -16.7502   23.7332 O   0  0  0  0  0  0  0  0  0  0  0  0
    6.2917  -12.2687   24.3631 C   0  0  0  0  0  0  0  0  0  0  0  0
    6.2087  -12.9366   25.6760 C   0  0  2  0  0  0  0  0  0  0  0  0
    5.4922  -12.0672   26.7181 C   0  0  0  0  0  0  0  0  0  0  0  0
    7.4745  -13.4767   26.2048 C   0  0  0  0  0  0  0  0  0  0  0  0
    8.1109  -14.6432   25.5533 C   0  0  2  0  0  0  0  0  0  0  0  0
    7.1716  -15.8110   25.7061 N   0  0  0  0  0  0  0  0  0  0  0  0
    9.4347  -15.0452   25.9880 C   0  0  0  0  0  0  0  0  0  0  0  0
   10.5296  -14.4649   25.7878 O   0  0  0  0  0  0  0  0  0  0  0  0
    9.6146  -16.2667   26.7621 N   0  0  0  0  0  0  0  0  0  0  0  0
   10.8364  -16.5908   27.4425 C   0  0  1  0  0  0  0  0  0  0  0  0
   10.8763  -16.0597   28.8557 C   0  0  0  0  0  0  0  0  0  0  0  0
   10.7435  -14.2755   28.9398 S   0  0  0  0  0  0  0  0  0  0  0  0
   11.1696  -18.0247   27.3723 C   0  0  0  0  0  0  0  0  0  0  0  0
   10.3511  -18.8978   26.6865 O   0  0  0  0  0  0  0  0  0  0  0  0
   12.1919  -18.4765   27.9276 O   0  0  0  0  0  0  0  0  0  0  0  0
  1  2  1  0
  2  3  1  0
  3  4  2  0
  6  7  1  1
  6  5  1  0
  9  8  1  1
  8  6  1  0
  9 11  1  0
 10  3  1  0
 10  9  1  0
 11 12  2  0
 13 14  1  0
 13 11  1  0
 14 17  1  0
 14 15  1  1
 16 15  1  0
 17 19  2  0
 17 18  1  0
M  END
$$$$
