GLC.pdb
     RDKit          3D

 19 18  0  0  1  0  0  0  0  0999 V2000
    5.3446  -19.6961   23.4293 N   0  0  0  0  0  0  0  0  0  0  0  0
    5.6973  -19.0588   24.6862 C   0  0  0  0  0  0  0  0  0  0  0  0
    6.3316  -17.7329   24.3804 C   0  0  0  0  0  0  0  0  0  0  0  0
    6.9757  -17.5626   23.3141 O   0  0  0  0  0  0  0  0  0  0  0  0
    6.6224  -12.0727   26.9767 C   0  0  0  0  0  0  0  0  0  0  0  0
    7.1358  -13.0128   25.9621 C   0  0  2  0  0  0  0  0  0  0  0  0
    7.1380  -12.3958   24.5568 C   0  0  0  0  0  0  0  0  0  0  0  0
    6.5246  -14.3545   25.9595 C   0  0  0  0  0  0  0  0  0  0  0  0
    7.1233  -15.4388   25.1498 C   0  0  2  0  0  0  0  0  0  0  0  0
    6.2253  -16.6418   25.2755 N   0  0  0  0  0  0  0  0  0  0  0  0
    8.4886  -15.8408   25.4281 C   0  0  0  0  0  0  0  0  0  0  0  0
    9.0288  -16.0434   26.5428 O   0  0  0  0  0  0  0  0  0  0  0  0
    9.4272  -16.0609   24.3352 N   0  0  0  0  0  0  0  0  0  0  0  0
   10.7802  -16.4950   24.5392 C   0  0  1  0  0  0  0  0  0  0  0  0
   10.9737  -17.9629   24.2413 C   0  0  0  0  0  0  0  0  0  0  0  0
   10.0410  -19.0309   25.3356 S   0  0  0  0  0  0  0  0  0  0  0  0
   11.7660  -15.6469   23.8456 C   0  0  0  0  0  0  0  0  0  0  0  0
   13.1164  -15.8334   24.0557 O   0  0  0  0  0  0  0  0  0  0  0  0
   11.4029  -14.7486   23.0590 O   0  0  0  0  0  0  0  0  0  0  0  0
  1  2  1  0
  2  3  1  0
  3  4  2  0
  6  7  1  6
  6  5  1  0
  9  8  1  1
  8  6  1  0
  9 11  1  0
 10  3  1  0
 10  9  1  0
 11 12  2  0
 13 14  1  0
 13 11  1  0
 14 17  1  0
 14 15  1  6
 16 15  1  0
 17 19  2  0
 17 18  1  0
M  END
$$$$
