GLC.pdb
     RDKit          3D

 19 18  0  0  1  0  0  0  0  0999 V2000
    9.1195  -19.2381   18.1534 N   0  0  0  0  0  0  0  0  0  0  0  0
    8.5553  -18.8878   19.4453 C   0  0  0  0  0  0  0  0  0  0  0  0
    9.2121  -17.6238   19.9192 C   0  0  0  0  0  0  0  0  0  0  0  0
   10.4407  -17.4325   19.7328 O   0  0  0  0  0  0  0  0  0  0  0  0
    8.3677  -13.1780   19.2266 C   0  0  0  0  0  0  0  0  0  0  0  0
    7.4847  -13.8023   20.2301 C   0  0  2  0  0  0  0  0  0  0  0  0
    6.3334  -12.8734   20.6389 C   0  0  0  0  0  0  0  0  0  0  0  0
    8.1562  -14.3779   21.4097 C   0  0  0  0  0  0  0  0  0  0  0  0
    9.1651  -15.4469   21.2386 C   0  0  2  0  0  0  0  0  0  0  0  0
    8.4749  -16.6157   20.5852 N   0  0  0  0  0  0  0  0  0  0  0  0
    9.8825  -15.9186   22.4074 C   0  0  0  0  0  0  0  0  0  0  0  0
    9.4188  -16.4676   23.4366 O   0  0  0  0  0  0  0  0  0  0  0  0
   11.3309  -15.7791   22.4865 N   0  0  0  0  0  0  0  0  0  0  0  0
   12.1204  -16.3764   23.5260 C   0  0  1  0  0  0  0  0  0  0  0  0
   11.7878  -17.8328   23.7481 C   0  0  0  0  0  0  0  0  0  0  0  0
   12.0587  -18.3658   25.4365 S   0  0  0  0  0  0  0  0  0  0  0  0
   13.5662  -16.1516   23.3500 C   0  0  0  0  0  0  0  0  0  0  0  0
   14.4202  -16.2281   24.4305 O   0  0  0  0  0  0  0  0  0  0  0  0
   14.0455  -15.8890   22.2280 O   0  0  0  0  0  0  0  0  0  0  0  0
  1  2  1  0
  2  3  1  0
  3  4  2  0
  6  7  1  1
  6  5  1  0
  9  8  1  1
  8  6  1  0
  9 11  1  0
 10  3  1  0
 10  9  1  0
 11 12  2  0
 13 14  1  0
 13 11  1  0
 14 17  1  0
 14 15  1  6
 16 15  1  0
 17 19  2  0
 17 18  1  0
M  END
$$$$
