GLC.pdb
     RDKit          3D

 19 18  0  0  1  0  0  0  0  0999 V2000
    5.1266  -19.5557   23.1492 N   0  0  0  0  0  0  0  0  0  0  0  0
    5.3299  -18.9095   24.4343 C   0  0  0  0  0  0  0  0  0  0  0  0
    6.1436  -17.6674   24.2135 C   0  0  0  0  0  0  0  0  0  0  0  0
    6.7967  -17.5110   23.1505 O   0  0  0  0  0  0  0  0  0  0  0  0
    7.1175  -12.2727   27.1514 C   0  0  0  0  0  0  0  0  0  0  0  0
    7.4516  -13.1431   26.0080 C   0  0  2  0  0  0  0  0  0  0  0  0
    7.4456  -12.3738   24.6800 C   0  0  0  0  0  0  0  0  0  0  0  0
    6.6826  -14.3969   25.9068 C   0  0  0  0  0  0  0  0  0  0  0  0
    7.1866  -15.5086   25.0700 C   0  0  2  0  0  0  0  0  0  0  0  0
    6.2009  -16.6418   25.1871 N   0  0  0  0  0  0  0  0  0  0  0  0
    8.5205  -16.0185   25.3221 C   0  0  0  0  0  0  0  0  0  0  0  0
    8.9276  -16.6807   26.3077 O   0  0  0  0  0  0  0  0  0  0  0  0
    9.5919  -15.7799   24.3634 N   0  0  0  0  0  0  0  0  0  0  0  0
   10.8360  -16.4958   24.3839 C   0  0  1  0  0  0  0  0  0  0  0  0
   10.8944  -17.5949   23.3496 C   0  0  0  0  0  0  0  0  0  0  0  0
   10.2508  -17.0938   21.7549 S   0  0  0  0  0  0  0  0  0  0  0  0
   12.0105  -15.6075   24.3257 C   0  0  0  0  0  0  0  0  0  0  0  0
   13.2812  -16.1211   24.4811 O   0  0  0  0  0  0  0  0  0  0  0  0
   11.8817  -14.3808   24.1359 O   0  0  0  0  0  0  0  0  0  0  0  0
  1  2  1  0
  2  3  1  0
  3  4  2  0
  6  7  1  6
  6  5  1  0
  9  8  1  1
  8  6  1  0
  9 11  1  0
 10  3  1  0
 10  9  1  0
 11 12  2  0
 13 14  1  0
 13 11  1  0
 14 17  1  0
 14 15  1  6
 16 15  1  0
 17 19  2  0
 17 18  1  0
M  END
$$$$
