GLC.pdb
     RDKit          3D

 19 18  0  0  1  0  0  0  0  0999 V2000
    6.5128  -19.0610   23.5464 N   0  0  0  0  0  0  0  0  0  0  0  0
    6.4270  -18.2790   24.7676 C   0  0  0  0  0  0  0  0  0  0  0  0
    7.1801  -16.9970   24.5599 C   0  0  0  0  0  0  0  0  0  0  0  0
    7.9560  -16.8623   23.5798 O   0  0  0  0  0  0  0  0  0  0  0  0
    6.4308  -12.0902   24.3240 C   0  0  0  0  0  0  0  0  0  0  0  0
    6.1428  -12.8864   25.5322 C   0  0  2  0  0  0  0  0  0  0  0  0
    5.3964  -12.0681   26.5946 C   0  0  0  0  0  0  0  0  0  0  0  0
    7.2881  -13.6084   26.1159 C   0  0  0  0  0  0  0  0  0  0  0  0
    7.9377  -14.7013   25.3586 C   0  0  2  0  0  0  0  0  0  0  0  0
    7.0414  -15.9084   25.4537 N   0  0  0  0  0  0  0  0  0  0  0  0
    9.2878  -15.0892   25.7190 C   0  0  0  0  0  0  0  0  0  0  0  0
   10.3664  -14.7555   25.1706 O   0  0  0  0  0  0  0  0  0  0  0  0
    9.5197  -15.9789   26.8496 N   0  0  0  0  0  0  0  0  0  0  0  0
   10.8298  -16.2860   27.3497 C   0  0  1  0  0  0  0  0  0  0  0  0
   11.3963  -15.1866   28.2166 C   0  0  0  0  0  0  0  0  0  0  0  0
   10.2347  -14.5891   29.4420 S   0  0  0  0  0  0  0  0  0  0  0  0
   10.9011  -17.6065   28.0001 C   0  0  0  0  0  0  0  0  0  0  0  0
    9.7737  -18.3944   28.1034 O   0  0  0  0  0  0  0  0  0  0  0  0
   11.9751  -18.0371   28.4679 O   0  0  0  0  0  0  0  0  0  0  0  0
  1  2  1  0
  2  3  1  0
  3  4  2  0
  6  7  1  1
  6  5  1  0
  9  8  1  1
  8  6  1  0
  9 11  1  0
 10  3  1  0
 10  9  1  0
 11 12  2  0
 13 14  1  0
 13 11  1  0
 14 17  1  0
 14 15  1  1
 16 15  1  0
 17 19  2  0
 17 18  1  0
M  END
$$$$
