GLC.pdb
     RDKit          3D

 19 18  0  0  1  0  0  0  0  0999 V2000
   10.7407  -18.8639   18.3956 N   0  0  0  0  0  0  0  0  0  0  0  0
    9.5928  -18.3817   19.1439 C   0  0  0  0  0  0  0  0  0  0  0  0
    9.9611  -17.0727   19.7800 C   0  0  0  0  0  0  0  0  0  0  0  0
   11.1290  -16.6183   19.6786 O   0  0  0  0  0  0  0  0  0  0  0  0
    8.5842  -12.8192   19.1578 C   0  0  0  0  0  0  0  0  0  0  0  0
    7.6650  -13.6392   19.9698 C   0  0  2  0  0  0  0  0  0  0  0  0
    6.3175  -12.9396   20.1938 C   0  0  0  0  0  0  0  0  0  0  0  0
    8.2153  -14.1638   21.2330 C   0  0  0  0  0  0  0  0  0  0  0  0
    9.4056  -15.0430   21.2130 C   0  0  2  0  0  0  0  0  0  0  0  0
    9.0129  -16.3150   20.5080 N   0  0  0  0  0  0  0  0  0  0  0  0
   10.0408  -15.3808   22.4721 C   0  0  0  0  0  0  0  0  0  0  0  0
   10.4794  -14.6047   23.3559 O   0  0  0  0  0  0  0  0  0  0  0  0
   10.2387  -16.7758   22.8445 N   0  0  0  0  0  0  0  0  0  0  0  0
   10.9204  -17.1784   24.0420 C   0  0  1  0  0  0  0  0  0  0  0  0
    9.9804  -17.3962   25.2039 C   0  0  0  0  0  0  0  0  0  0  0  0
   10.8323  -17.6508   26.7587 S   0  0  0  0  0  0  0  0  0  0  0  0
   11.8254  -18.3222   23.8304 C   0  0  0  0  0  0  0  0  0  0  0  0
   11.8441  -18.9814   22.6190 O   0  0  0  0  0  0  0  0  0  0  0  0
   12.5885  -18.7160   24.7360 O   0  0  0  0  0  0  0  0  0  0  0  0
  1  2  1  0
  2  3  1  0
  3  4  2  0
  6  7  1  1
  6  5  1  0
  9  8  1  1
  8  6  1  0
  9 11  1  0
 10  3  1  0
 10  9  1  0
 11 12  2  0
 13 14  1  0
 13 11  1  0
 14 17  1  0
 14 15  1  1
 16 15  1  0
 17 19  2  0
 17 18  1  0
M  END
$$$$
