GLC.pdb
     RDKit          3D

 19 18  0  0  1  0  0  0  0  0999 V2000
    6.3422  -19.3137   23.9461 N   0  0  0  0  0  0  0  0  0  0  0  0
    6.0989  -18.1397   24.7663 C   0  0  0  0  0  0  0  0  0  0  0  0
    7.0969  -17.0845   24.3864 C   0  0  0  0  0  0  0  0  0  0  0  0
    8.0315  -17.3460   23.5871 O   0  0  0  0  0  0  0  0  0  0  0  0
    5.4683  -12.9263   26.2670 C   0  0  0  0  0  0  0  0  0  0  0  0
    6.9266  -12.9740   26.0486 C   0  0  2  0  0  0  0  0  0  0  0  0
    7.6135  -11.6687   26.4726 C   0  0  0  0  0  0  0  0  0  0  0  0
    7.3632  -13.4003   24.7065 C   0  0  0  0  0  0  0  0  0  0  0  0
    8.0178  -14.7149   24.5241 C   0  0  2  0  0  0  0  0  0  0  0  0
    7.0176  -15.7726   24.9116 N   0  0  0  0  0  0  0  0  0  0  0  0
    9.2654  -14.9718   25.2173 C   0  0  0  0  0  0  0  0  0  0  0  0
   10.3792  -14.4187   25.0467 O   0  0  0  0  0  0  0  0  0  0  0  0
    9.3303  -15.9857   26.2621 N   0  0  0  0  0  0  0  0  0  0  0  0
   10.2573  -15.9253   27.3566 C   0  0  1  0  0  0  0  0  0  0  0  0
   10.0392  -14.7204   28.2407 C   0  0  0  0  0  0  0  0  0  0  0  0
   11.1109  -14.6986   29.6757 S   0  0  0  0  0  0  0  0  0  0  0  0
   10.3206  -17.1812   28.1252 C   0  0  0  0  0  0  0  0  0  0  0  0
   11.4667  -17.5198   28.8140 O   0  0  0  0  0  0  0  0  0  0  0  0
    9.3460  -17.9595   28.1691 O   0  0  0  0  0  0  0  0  0  0  0  0
  1  2  1  0
  2  3  1  0
  3  4  2  0
  6  7  1  6
  6  5  1  0
  9  8  1  1
  8  6  1  0
  9 11  1  0
 10  3  1  0
 10  9  1  0
 11 12  2  0
 13 14  1  0
 13 11  1  0
 14 17  1  0
 14 15  1  1
 16 15  1  0
 17 19  2  0
 17 18  1  0
M  END
$$$$
