GLC.pdb
     RDKit          3D

 19 18  0  0  1  0  0  0  0  0999 V2000
    6.4780  -19.0966   23.6782 N   0  0  0  0  0  0  0  0  0  0  0  0
    6.2208  -18.2448   24.8264 C   0  0  0  0  0  0  0  0  0  0  0  0
    7.1050  -17.0360   24.7238 C   0  0  0  0  0  0  0  0  0  0  0  0
    8.0331  -16.9922   23.8768 O   0  0  0  0  0  0  0  0  0  0  0  0
    6.7243  -12.1523   24.1177 C   0  0  0  0  0  0  0  0  0  0  0  0
    6.1834  -12.7578   25.3496 C   0  0  2  0  0  0  0  0  0  0  0  0
    5.4815  -11.7217   26.2381 C   0  0  0  0  0  0  0  0  0  0  0  0
    7.1242  -13.5844   26.1276 C   0  0  0  0  0  0  0  0  0  0  0  0
    7.8266  -14.7144   25.4798 C   0  0  2  0  0  0  0  0  0  0  0  0
    6.9232  -15.9165   25.5705 N   0  0  0  0  0  0  0  0  0  0  0  0
    9.1449  -15.0803   25.9608 C   0  0  0  0  0  0  0  0  0  0  0  0
   10.2598  -14.6407   25.5873 O   0  0  0  0  0  0  0  0  0  0  0  0
    9.2928  -16.0792   27.0116 N   0  0  0  0  0  0  0  0  0  0  0  0
   10.5417  -16.3504   27.6653 C   0  0  1  0  0  0  0  0  0  0  0  0
   10.6549  -15.6747   29.0113 C   0  0  0  0  0  0  0  0  0  0  0  0
   10.0647  -13.9836   29.0005 S   0  0  0  0  0  0  0  0  0  0  0  0
   10.8545  -17.7890   27.7316 C   0  0  0  0  0  0  0  0  0  0  0  0
   12.0508  -18.2182   28.2675 O   0  0  0  0  0  0  0  0  0  0  0  0
   10.0499  -18.6435   27.3074 O   0  0  0  0  0  0  0  0  0  0  0  0
  1  2  1  0
  2  3  1  0
  3  4  2  0
  6  7  1  1
  6  5  1  0
  9  8  1  1
  8  6  1  0
  9 11  1  0
 10  3  1  0
 10  9  1  0
 11 12  2  0
 13 14  1  0
 13 11  1  0
 14 17  1  0
 14 15  1  1
 16 15  1  0
 17 19  2  0
 17 18  1  0
M  END
$$$$
