GLC.pdb
     RDKit          3D

 19 18  0  0  1  0  0  0  0  0999 V2000
    7.1866  -19.0209   19.1115 N   0  0  0  0  0  0  0  0  0  0  0  0
    6.6717  -18.4559   20.3467 C   0  0  0  0  0  0  0  0  0  0  0  0
    7.5944  -17.3543   20.7814 C   0  0  0  0  0  0  0  0  0  0  0  0
    8.8183  -17.5785   20.9616 O   0  0  0  0  0  0  0  0  0  0  0  0
    8.7970  -13.4602   19.0478 C   0  0  0  0  0  0  0  0  0  0  0  0
    7.4983  -13.3560   19.7400 C   0  0  2  0  0  0  0  0  0  0  0  0
    6.8081  -12.0128   19.4664 C   0  0  0  0  0  0  0  0  0  0  0  0
    7.5091  -13.6716   21.1802 C   0  0  0  0  0  0  0  0  0  0  0  0
    7.9896  -14.9920   21.6447 C   0  0  2  0  0  0  0  0  0  0  0  0
    7.1193  -16.0391   21.0002 N   0  0  0  0  0  0  0  0  0  0  0  0
    8.0520  -15.2460   23.0711 C   0  0  0  0  0  0  0  0  0  0  0  0
    7.1514  -15.0858   23.9306 O   0  0  0  0  0  0  0  0  0  0  0  0
    9.2778  -15.7533   23.6743 N   0  0  0  0  0  0  0  0  0  0  0  0
    9.3530  -16.2063   25.0344 C   0  0  1  0  0  0  0  0  0  0  0  0
    8.2643  -17.1937   25.3820 C   0  0  0  0  0  0  0  0  0  0  0  0
    6.7663  -16.4090   25.9721 S   0  0  0  0  0  0  0  0  0  0  0  0
   10.6932  -16.6960   25.4032 C   0  0  0  0  0  0  0  0  0  0  0  0
   10.9783  -17.0289   26.7110 O   0  0  0  0  0  0  0  0  0  0  0  0
   11.5924  -16.8191   24.5464 O   0  0  0  0  0  0  0  0  0  0  0  0
  1  2  1  0
  2  3  1  0
  3  4  2  0
  6  7  1  1
  6  5  1  0
  9  8  1  1
  8  6  1  0
  9 11  1  0
 10  3  1  0
 10  9  1  0
 11 12  2  0
 13 14  1  0
 13 11  1  0
 14 17  1  0
 14 15  1  6
 16 15  1  0
 17 19  2  0
 17 18  1  0
M  END
$$$$
