GLC.pdb
     RDKit          3D

 19 18  0  0  1  0  0  0  0  0999 V2000
    5.6800  -18.7156   23.3548 N   0  0  0  0  0  0  0  0  0  0  0  0
    5.7554  -18.0938   24.6655 C   0  0  0  0  0  0  0  0  0  0  0  0
    6.7057  -16.9346   24.5831 C   0  0  0  0  0  0  0  0  0  0  0  0
    7.4623  -16.7970   23.5883 O   0  0  0  0  0  0  0  0  0  0  0  0
    6.7780  -12.1816   24.5536 C   0  0  0  0  0  0  0  0  0  0  0  0
    6.3614  -12.8457   25.8034 C   0  0  2  0  0  0  0  0  0  0  0  0
    5.8309  -11.8430   26.8370 C   0  0  0  0  0  0  0  0  0  0  0  0
    7.3451  -13.7661   26.4024 C   0  0  0  0  0  0  0  0  0  0  0  0
    7.8559  -14.9142   25.6208 C   0  0  2  0  0  0  0  0  0  0  0  0
    6.7793  -15.9679   25.6142 N   0  0  0  0  0  0  0  0  0  0  0  0
    9.1086  -15.5252   26.0216 C   0  0  0  0  0  0  0  0  0  0  0  0
    9.4608  -15.8999   27.1667 O   0  0  0  0  0  0  0  0  0  0  0  0
   10.1529  -15.7747   25.0364 N   0  0  0  0  0  0  0  0  0  0  0  0
   11.2013  -16.7356   25.2315 C   0  0  1  0  0  0  0  0  0  0  0  0
   10.6764  -18.1264   25.4987 C   0  0  0  0  0  0  0  0  0  0  0  0
   10.9701  -18.6777   27.1774 S   0  0  0  0  0  0  0  0  0  0  0  0
   12.2084  -16.7131   24.1557 C   0  0  0  0  0  0  0  0  0  0  0  0
   13.4994  -17.1325   24.4005 O   0  0  0  0  0  0  0  0  0  0  0  0
   11.9169  -16.3170   23.0087 O   0  0  0  0  0  0  0  0  0  0  0  0
  1  2  1  0
  2  3  1  0
  3  4  2  0
  6  7  1  1
  6  5  1  0
  9  8  1  1
  8  6  1  0
  9 11  1  0
 10  3  1  0
 10  9  1  0
 11 12  2  0
 13 14  1  0
 13 11  1  0
 14 17  1  0
 14 15  1  6
 16 15  1  0
 17 19  2  0
 17 18  1  0
M  END
$$$$
