VSA.pdb
     RDKit          3D

 19 18  0  0  1  0  0  0  0  0999 V2000
   11.7144  -20.9617   16.8999 C   0  0  0  0  0  0  0  0  0  0  0  0
   12.2125  -19.9856   17.9254 C   0  0  2  0  0  0  0  0  0  0  0  0
   12.3884  -20.6994   19.2429 C   0  0  0  0  0  0  0  0  0  0  0  0
   11.2228  -18.8452   18.1288 C   0  0  2  0  0  0  0  0  0  0  0  0
   10.8622  -18.2165   16.8974 N   0  0  0  0  0  0  0  0  0  0  0  0
   11.7603  -17.8461   19.0903 C   0  0  0  0  0  0  0  0  0  0  0  0
   12.8428  -17.2450   18.8743 O   0  0  0  0  0  0  0  0  0  0  0  0
    9.6824  -17.0784   22.5910 O   0  0  0  0  0  0  0  0  0  0  0  0
   10.3007  -15.9991   21.9722 C   0  0  0  0  0  0  0  0  0  0  0  0
   11.4864  -16.5214   21.2076 C   0  0  2  0  0  0  0  0  0  0  0  0
   11.0575  -17.5472   20.2816 N   0  0  0  0  0  0  0  0  0  0  0  0
   12.4718  -17.0597   22.1790 C   0  0  0  0  0  0  0  0  0  0  0  0
   12.4302  -18.2633   22.4915 O   0  0  0  0  0  0  0  0  0  0  0  0
   15.6657  -15.6884   23.5413 C   0  0  0  0  0  0  0  0  0  0  0  0
   14.5171  -16.6682   23.5692 C   0  0  2  0  0  0  0  0  0  0  0  0
   13.4426  -16.1898   22.7327 N   0  0  0  0  0  0  0  0  0  0  0  0
   14.0563  -16.8573   24.9639 C   0  0  0  0  0  0  0  0  0  0  0  0
   14.8870  -17.5108   25.8623 O   0  0  0  0  0  0  0  0  0  0  0  0
   12.9423  -16.4452   25.3527 O   0  0  0  0  0  0  0  0  0  0  0  0
  2  3  1  1
  2  1  1  0
  4  2  1  0
  4  5  1  6
  6  4  1  0
  6 11  1  0
  7  6  2  0
  9  8  1  0
 10 11  1  0
 10  9  1  1
 12 10  1  0
 12 16  1  0
 13 12  2  0
 15 16  1  0
 15 14  1  1
 17 15  1  0
 18 17  1  0
 19 17  2  0
M  END
$$$$
