VSA.pdb
     RDKit          3D

 19 18  0  0  1  0  0  0  0  0999 V2000
    7.9065  -13.1920   19.0142 C   0  0  0  0  0  0  0  0  0  0  0  0
    7.6108  -13.4688   20.4593 C   0  0  2  0  0  0  0  0  0  0  0  0
    8.5444  -12.6539   21.3198 C   0  0  0  0  0  0  0  0  0  0  0  0
    7.8169  -14.9411   20.7931 C   0  0  2  0  0  0  0  0  0  0  0  0
    7.1222  -15.8025   19.8892 N   0  0  0  0  0  0  0  0  0  0  0  0
    7.4189  -15.2238   22.1978 C   0  0  0  0  0  0  0  0  0  0  0  0
    6.2215  -15.1377   22.5697 O   0  0  0  0  0  0  0  0  0  0  0  0
    9.0599  -18.0176   24.3457 O   0  0  0  0  0  0  0  0  0  0  0  0
    7.8635  -17.3959   24.6807 C   0  0  0  0  0  0  0  0  0  0  0  0
    8.0553  -15.9115   24.5291 C   0  0  2  0  0  0  0  0  0  0  0  0
    8.3898  -15.5997   23.1562 N   0  0  0  0  0  0  0  0  0  0  0  0
    9.1364  -15.4809   25.4512 C   0  0  0  0  0  0  0  0  0  0  0  0
   10.3188  -15.5076   25.0648 O   0  0  0  0  0  0  0  0  0  0  0  0
    9.1366  -13.7230   28.7518 C   0  0  0  0  0  0  0  0  0  0  0  0
    9.7926  -14.5739   27.6907 C   0  0  2  0  0  0  0  0  0  0  0  0
    8.7994  -15.0469   26.7565 N   0  0  0  0  0  0  0  0  0  0  0  0
   10.5007  -15.7079   28.3279 C   0  0  0  0  0  0  0  0  0  0  0  0
   11.6281  -15.4499   29.0940 O   0  0  0  0  0  0  0  0  0  0  0  0
   10.1114  -16.8880   28.1945 O   0  0  0  0  0  0  0  0  0  0  0  0
  2  3  1  1
  2  1  1  0
  4  2  1  0
  4  5  1  6
  6  4  1  0
  6 11  1  0
  7  6  2  0
  9  8  1  0
 10 11  1  0
 10  9  1  6
 12 10  1  0
 12 16  1  0
 13 12  2  0
 15 16  1  0
 15 14  1  1
 17 15  1  0
 18 17  1  0
 19 17  2  0
M  END
$$$$
