VSA.pdb
     RDKit          3D

 19 18  0  0  1  0  0  0  0  0999 V2000
    8.2968  -19.5437   16.3027 C   0  0  0  0  0  0  0  0  0  0  0  0
    8.8389  -18.8181   17.4994 C   0  0  2  0  0  0  0  0  0  0  0  0
    8.3632  -19.5087   18.7536 C   0  0  0  0  0  0  0  0  0  0  0  0
    8.3538  -17.3743   17.5363 C   0  0  2  0  0  0  0  0  0  0  0  0
    8.6502  -16.6735   16.3268 N   0  0  0  0  0  0  0  0  0  0  0  0
    8.9201  -16.6578   18.7100 C   0  0  0  0  0  0  0  0  0  0  0  0
   10.1499  -16.4141   18.7983 O   0  0  0  0  0  0  0  0  0  0  0  0
    6.5125  -15.8765   21.9489 O   0  0  0  0  0  0  0  0  0  0  0  0
    7.4051  -14.8598   21.6336 C   0  0  0  0  0  0  0  0  0  0  0  0
    8.5645  -15.4740   20.8974 C   0  0  2  0  0  0  0  0  0  0  0  0
    8.0780  -16.2306   19.7639 N   0  0  0  0  0  0  0  0  0  0  0  0
    9.3098  -16.3467   21.8393 C   0  0  0  0  0  0  0  0  0  0  0  0
    8.9942  -17.5456   21.9449 O   0  0  0  0  0  0  0  0  0  0  0  0
   12.6438  -16.1822   23.3241 C   0  0  0  0  0  0  0  0  0  0  0  0
   11.2003  -16.6038   23.4608 C   0  0  2  0  0  0  0  0  0  0  0  0
   10.3686  -15.7956   22.6015 N   0  0  0  0  0  0  0  0  0  0  0  0
   10.7761  -16.4802   24.8744 C   0  0  0  0  0  0  0  0  0  0  0  0
   11.3785  -17.2870   25.8287 O   0  0  0  0  0  0  0  0  0  0  0  0
    9.8926  -15.6711   25.2302 O   0  0  0  0  0  0  0  0  0  0  0  0
  2  3  1  1
  2  1  1  0
  4  2  1  0
  4  5  1  6
  6  4  1  0
  6 11  1  0
  7  6  2  0
  9  8  1  0
 10 11  1  0
 10  9  1  1
 12 10  1  0
 12 16  1  0
 13 12  2  0
 15 16  1  0
 15 14  1  1
 17 15  1  0
 18 17  1  0
 19 17  2  0
M  END
$$$$
