VSA.pdb
     RDKit          3D

 19 18  0  0  1  0  0  0  0  0999 V2000
    7.6004  -17.8706   13.7848 C   0  0  0  0  0  0  0  0  0  0  0  0
    8.5200  -17.0514   14.6425 C   0  0  2  0  0  0  0  0  0  0  0  0
    8.6024  -17.6742   16.0141 C   0  0  0  0  0  0  0  0  0  0  0  0
    8.0072  -15.6249   14.7961 C   0  0  2  0  0  0  0  0  0  0  0  0
    7.8652  -14.9632   13.5376 N   0  0  0  0  0  0  0  0  0  0  0  0
    8.8885  -14.8429   15.7035 C   0  0  0  0  0  0  0  0  0  0  0  0
   10.0458  -14.4973   15.3559 O   0  0  0  0  0  0  0  0  0  0  0  0
    7.6293  -14.1438   19.5562 O   0  0  0  0  0  0  0  0  0  0  0  0
    8.4154  -13.1387   19.0071 C   0  0  0  0  0  0  0  0  0  0  0  0
    9.2728  -13.7553   17.9356 C   0  0  2  0  0  0  0  0  0  0  0  0
    8.4386  -14.4669   16.9914 N   0  0  0  0  0  0  0  0  0  0  0  0
   10.2458  -14.6717   18.5820 C   0  0  0  0  0  0  0  0  0  0  0  0
    9.9597  -15.8753   18.7150 O   0  0  0  0  0  0  0  0  0  0  0  0
   13.8248  -14.3271   19.6199 C   0  0  0  0  0  0  0  0  0  0  0  0
   12.4666  -14.9827   19.6957 C   0  0  2  0  0  0  0  0  0  0  0  0
   11.4843  -14.1563   19.0361 N   0  0  0  0  0  0  0  0  0  0  0  0
   12.1003  -15.2094   21.1127 C   0  0  0  0  0  0  0  0  0  0  0  0
   12.8718  -16.0742   21.8751 O   0  0  0  0  0  0  0  0  0  0  0  0
   11.1177  -14.6443   21.6390 O   0  0  0  0  0  0  0  0  0  0  0  0
  2  3  1  1
  2  1  1  0
  4  2  1  0
  4  5  1  6
  6  4  1  0
  6 11  1  0
  7  6  2  0
  9  8  1  0
 10 11  1  0
 10  9  1  1
 12 10  1  0
 12 16  1  0
 13 12  2  0
 15 16  1  0
 15 14  1  1
 17 15  1  0
 18 17  1  0
 19 17  2  0
M  END
$$$$
