VSA.pdb
     RDKit          3D

 19 18  0  0  1  0  0  0  0  0999 V2000
   13.3265  -18.7131   20.8986 C   0  0  0  0  0  0  0  0  0  0  0  0
   12.7387  -17.8002   21.9347 C   0  0  2  0  0  0  0  0  0  0  0  0
   12.6212  -18.5456   23.2410 C   0  0  0  0  0  0  0  0  0  0  0  0
   11.3486  -17.3266   21.5287 C   0  0  2  0  0  0  0  0  0  0  0  0
   11.3306  -16.7682   20.2135 N   0  0  0  0  0  0  0  0  0  0  0  0
   10.8129  -16.3547   22.5187 C   0  0  0  0  0  0  0  0  0  0  0  0
   11.2634  -15.1842   22.5980 O   0  0  0  0  0  0  0  0  0  0  0  0
    7.6758  -17.5114   24.9048 O   0  0  0  0  0  0  0  0  0  0  0  0
    7.7645  -16.1565   24.6115 C   0  0  0  0  0  0  0  0  0  0  0  0
    9.2146  -15.8264   24.3840 C   0  0  2  0  0  0  0  0  0  0  0  0
    9.7733  -16.7307   23.4022 N   0  0  0  0  0  0  0  0  0  0  0  0
    9.9309  -15.9391   25.6796 C   0  0  0  0  0  0  0  0  0  0  0  0
   10.5370  -16.9900   25.9559 O   0  0  0  0  0  0  0  0  0  0  0  0
   10.3676  -13.5824   28.5895 C   0  0  0  0  0  0  0  0  0  0  0  0
   10.5744  -14.8876   27.8589 C   0  0  2  0  0  0  0  0  0  0  0  0
    9.9101  -14.8447   26.5782 N   0  0  0  0  0  0  0  0  0  0  0  0
   10.0619  -16.0069   28.6823 C   0  0  0  0  0  0  0  0  0  0  0  0
   10.8108  -16.4399   29.7667 O   0  0  0  0  0  0  0  0  0  0  0  0
    8.9760  -16.5706   28.4275 O   0  0  0  0  0  0  0  0  0  0  0  0
  2  3  1  1
  2  1  1  0
  4  2  1  0
  4  5  1  6
  6  4  1  0
  6 11  1  0
  7  6  2  0
  9  8  1  0
 10 11  1  0
 10  9  1  1
 12 10  1  0
 12 16  1  0
 13 12  2  0
 15 16  1  0
 15 14  1  1
 17 15  1  0
 18 17  1  0
 19 17  2  0
M  END
$$$$
