VSA.pdb
     RDKit          3D

 19 18  0  0  1  0  0  0  0  0999 V2000
    7.9045  -12.9510   18.9502 C   0  0  0  0  0  0  0  0  0  0  0  0
    7.5263  -13.3922   20.3339 C   0  0  2  0  0  0  0  0  0  0  0  0
    8.3115  -12.5888   21.3409 C   0  0  0  0  0  0  0  0  0  0  0  0
    7.8423  -14.8671   20.5490 C   0  0  2  0  0  0  0  0  0  0  0  0
    7.2728  -15.6955   19.5336 N   0  0  0  0  0  0  0  0  0  0  0  0
    7.3986  -15.3100   21.8975 C   0  0  0  0  0  0  0  0  0  0  0  0
    6.1798  -15.3837   22.1951 O   0  0  0  0  0  0  0  0  0  0  0  0
    7.3157  -17.6567   25.7140 O   0  0  0  0  0  0  0  0  0  0  0  0
    7.7677  -17.4324   24.4197 C   0  0  0  0  0  0  0  0  0  0  0  0
    7.9838  -15.9527   24.2550 C   0  0  2  0  0  0  0  0  0  0  0  0
    8.3489  -15.6617   22.8854 N   0  0  0  0  0  0  0  0  0  0  0  0
    9.0532  -15.5269   25.1927 C   0  0  0  0  0  0  0  0  0  0  0  0
   10.2361  -15.8280   24.9515 O   0  0  0  0  0  0  0  0  0  0  0  0
    9.1384  -13.1612   28.0865 C   0  0  0  0  0  0  0  0  0  0  0  0
    9.6931  -14.3177   27.2897 C   0  0  2  0  0  0  0  0  0  0  0  0
    8.7047  -14.7841   26.3471 N   0  0  0  0  0  0  0  0  0  0  0  0
   10.1020  -15.4056   28.2078 C   0  0  0  0  0  0  0  0  0  0  0  0
   11.1855  -15.2014   29.0496 O   0  0  0  0  0  0  0  0  0  0  0  0
    9.4991  -16.4996   28.2447 O   0  0  0  0  0  0  0  0  0  0  0  0
  2  3  1  1
  2  1  1  0
  4  2  1  0
  4  5  1  6
  6  4  1  0
  6 11  1  0
  7  6  2  0
  9  8  1  0
 10 11  1  0
 10  9  1  6
 12 10  1  0
 12 16  1  0
 13 12  2  0
 15 16  1  0
 15 14  1  1
 17 15  1  0
 18 17  1  0
 19 17  2  0
M  END
$$$$
