VSA.pdb
     RDKit          3D

 19 18  0  0  1  0  0  0  0  0999 V2000
   11.5570  -13.8395   17.3190 C   0  0  0  0  0  0  0  0  0  0  0  0
   10.8128  -14.0360   18.6075 C   0  0  2  0  0  0  0  0  0  0  0  0
   11.4212  -15.1949   19.3579 C   0  0  0  0  0  0  0  0  0  0  0  0
    9.3436  -14.3499   18.3544 C   0  0  2  0  0  0  0  0  0  0  0  0
    8.7050  -13.3458   17.5632 N   0  0  0  0  0  0  0  0  0  0  0  0
    8.6181  -14.5470   19.6375 C   0  0  0  0  0  0  0  0  0  0  0  0
    8.2677  -13.5719   20.3488 O   0  0  0  0  0  0  0  0  0  0  0  0
    8.0180  -18.3853   21.0748 O   0  0  0  0  0  0  0  0  0  0  0  0
    6.9851  -17.4808   21.2865 C   0  0  0  0  0  0  0  0  0  0  0  0
    7.5794  -16.0991   21.3182 C   0  0  2  0  0  0  0  0  0  0  0  0
    8.3031  -15.8502   20.0902 N   0  0  0  0  0  0  0  0  0  0  0  0
    8.4791  -16.0016   22.4952 C   0  0  0  0  0  0  0  0  0  0  0  0
    9.6852  -16.2800   22.3699 O   0  0  0  0  0  0  0  0  0  0  0  0
    8.0678  -14.6240   25.9539 C   0  0  0  0  0  0  0  0  0  0  0  0
    8.7546  -15.4987   24.9325 C   0  0  2  0  0  0  0  0  0  0  0  0
    7.9449  -15.5922   23.7414 N   0  0  0  0  0  0  0  0  0  0  0  0
    9.0016  -16.8401   25.5097 C   0  0  0  0  0  0  0  0  0  0  0  0
    9.9472  -16.9739   26.5158 O   0  0  0  0  0  0  0  0  0  0  0  0
    8.3830  -17.8522   25.1162 O   0  0  0  0  0  0  0  0  0  0  0  0
  2  3  1  6
  2  1  1  0
  4  2  1  0
  4  5  1  1
  6  4  1  0
  6 11  1  0
  7  6  2  0
  9  8  1  0
 10 11  1  0
 10  9  1  6
 12 10  1  0
 12 16  1  0
 13 12  2  0
 15 16  1  0
 15 14  1  1
 17 15  1  0
 18 17  1  0
 19 17  2  0
M  END
$$$$
