VSA.pdb
     RDKit          3D

 19 18  0  0  1  0  0  0  0  0999 V2000
    6.6226  -14.4430   18.2867 C   0  0  0  0  0  0  0  0  0  0  0  0
    7.4088  -14.6910   19.5408 C   0  0  2  0  0  0  0  0  0  0  0  0
    6.6901  -15.7184   20.3799 C   0  0  0  0  0  0  0  0  0  0  0  0
    7.5512  -13.4171   20.3644 C   0  0  2  0  0  0  0  0  0  0  0  0
    8.1313  -12.3495   19.6125 N   0  0  0  0  0  0  0  0  0  0  0  0
    8.3354  -13.6742   21.6016 C   0  0  0  0  0  0  0  0  0  0  0  0
    9.5889  -13.7620   21.5766 O   0  0  0  0  0  0  0  0  0  0  0  0
    6.2670  -14.2082   25.0493 O   0  0  0  0  0  0  0  0  0  0  0  0
    7.5331  -13.6733   25.2513 C   0  0  0  0  0  0  0  0  0  0  0  0
    8.3940  -14.0682   24.0823 C   0  0  2  0  0  0  0  0  0  0  0  0
    7.6805  -13.8273   22.8467 N   0  0  0  0  0  0  0  0  0  0  0  0
    8.7463  -15.5036   24.2222 C   0  0  0  0  0  0  0  0  0  0  0  0
    7.9256  -16.3730   23.8775 O   0  0  0  0  0  0  0  0  0  0  0  0
   11.8819  -17.3840   24.5940 C   0  0  0  0  0  0  0  0  0  0  0  0
   10.4170  -17.2303   24.9266 C   0  0  2  0  0  0  0  0  0  0  0  0
   10.0137  -15.8563   24.7467 N   0  0  0  0  0  0  0  0  0  0  0  0
   10.1720  -17.6748   26.3180 C   0  0  0  0  0  0  0  0  0  0  0  0
   10.5042  -18.9732   26.6759 O   0  0  0  0  0  0  0  0  0  0  0  0
    9.6755  -16.9140   27.1762 O   0  0  0  0  0  0  0  0  0  0  0  0
  2  3  1  1
  2  1  1  0
  4  2  1  0
  4  5  1  6
  6  4  1  0
  6 11  1  0
  7  6  2  0
  9  8  1  0
 10 11  1  0
 10  9  1  1
 12 10  1  0
 12 16  1  0
 13 12  2  0
 15 16  1  0
 15 14  1  1
 17 15  1  0
 18 17  1  0
 19 17  2  0
M  END
$$$$
