VSA.pdb
     RDKit          3D

 19 18  0  0  1  0  0  0  0  0999 V2000
   12.8906  -17.9934   20.4168 C   0  0  0  0  0  0  0  0  0  0  0  0
   12.2033  -17.1922   21.4837 C   0  0  2  0  0  0  0  0  0  0  0  0
   12.7435  -17.5987   22.8324 C   0  0  0  0  0  0  0  0  0  0  0  0
   10.6998  -17.4391   21.4775 C   0  0  2  0  0  0  0  0  0  0  0  0
   10.1334  -17.2927   20.1739 N   0  0  0  0  0  0  0  0  0  0  0  0
   10.0151  -16.5468   22.4503 C   0  0  0  0  0  0  0  0  0  0  0  0
    9.8572  -15.3218   22.2175 O   0  0  0  0  0  0  0  0  0  0  0  0
    8.0065  -18.2191   25.5643 O   0  0  0  0  0  0  0  0  0  0  0  0
    7.6360  -16.9382   25.1746 C   0  0  0  0  0  0  0  0  0  0  0  0
    8.8646  -16.2370   24.6624 C   0  0  2  0  0  0  0  0  0  0  0  0
    9.5214  -17.0627   23.6721 N   0  0  0  0  0  0  0  0  0  0  0  0
    9.7648  -15.9670   25.8118 C   0  0  0  0  0  0  0  0  0  0  0  0
   10.7347  -16.7178   26.0207 O   0  0  0  0  0  0  0  0  0  0  0  0
    9.8673  -13.2699   28.4381 C   0  0  0  0  0  0  0  0  0  0  0  0
   10.2445  -14.6144   27.8634 C   0  0  2  0  0  0  0  0  0  0  0  0
    9.5010  -14.8566   26.6503 N   0  0  0  0  0  0  0  0  0  0  0  0
    9.9836  -15.6753   28.8634 C   0  0  0  0  0  0  0  0  0  0  0  0
   10.7781  -15.7371   29.9989 O   0  0  0  0  0  0  0  0  0  0  0  0
    9.0697  -16.5142   28.7126 O   0  0  0  0  0  0  0  0  0  0  0  0
  2  3  1  1
  2  1  1  0
  4  2  1  0
  4  5  1  6
  6  4  1  0
  6 11  1  0
  7  6  2  0
  9  8  1  0
 10 11  1  0
 10  9  1  1
 12 10  1  0
 12 16  1  0
 13 12  2  0
 15 16  1  0
 15 14  1  1
 17 15  1  0
 18 17  1  0
 19 17  2  0
M  END
$$$$
