VSA.pdb
     RDKit          3D

 19 18  0  0  1  0  0  0  0  0999 V2000
   10.7727  -21.0838   18.0117 C   0  0  0  0  0  0  0  0  0  0  0  0
   11.3812  -19.9479   18.7811 C   0  0  2  0  0  0  0  0  0  0  0  0
   11.9887  -20.4825   20.0544 C   0  0  0  0  0  0  0  0  0  0  0  0
   10.3318  -18.9078   19.1530 C   0  0  2  0  0  0  0  0  0  0  0  0
    9.5818  -18.4675   18.0192 N   0  0  0  0  0  0  0  0  0  0  0  0
   10.9583  -17.7522   19.8485 C   0  0  0  0  0  0  0  0  0  0  0  0
   11.7190  -16.9563   19.2424 O   0  0  0  0  0  0  0  0  0  0  0  0
    9.9649  -17.0120   23.7712 O   0  0  0  0  0  0  0  0  0  0  0  0
   10.4031  -15.9329   23.0141 C   0  0  0  0  0  0  0  0  0  0  0  0
   11.3466  -16.4561   21.9656 C   0  0  2  0  0  0  0  0  0  0  0  0
   10.7090  -17.5213   21.2222 N   0  0  0  0  0  0  0  0  0  0  0  0
   12.5770  -16.9408   22.6406 C   0  0  0  0  0  0  0  0  0  0  0  0
   12.6224  -18.1083   23.0684 O   0  0  0  0  0  0  0  0  0  0  0  0
   16.0072  -15.4658   23.0456 C   0  0  0  0  0  0  0  0  0  0  0  0
   14.9396  -16.4929   23.3381 C   0  0  2  0  0  0  0  0  0  0  0  0
   13.6781  -16.0619   22.7848 N   0  0  0  0  0  0  0  0  0  0  0  0
   14.8320  -16.6980   24.8009 C   0  0  0  0  0  0  0  0  0  0  0  0
   13.6400  -16.3831   25.4367 O   0  0  0  0  0  0  0  0  0  0  0  0
   15.7833  -17.1459   25.4764 O   0  0  0  0  0  0  0  0  0  0  0  0
  2  3  1  1
  2  1  1  0
  4  2  1  0
  4  5  1  6
  6  4  1  0
  6 11  1  0
  7  6  2  0
  9  8  1  0
 10 11  1  0
 10  9  1  1
 12 10  1  0
 12 16  1  0
 13 12  2  0
 15 16  1  0
 15 14  1  1
 17 15  1  0
 18 17  1  0
 19 17  2  0
M  END
$$$$
