VSA.pdb
     RDKit          3D

 19 18  0  0  1  0  0  0  0  0999 V2000
    9.2327  -15.7591   18.2164 C   0  0  0  0  0  0  0  0  0  0  0  0
    7.8289  -15.3741   18.5819 C   0  0  2  0  0  0  0  0  0  0  0  0
    6.9660  -15.4190   17.3451 C   0  0  0  0  0  0  0  0  0  0  0  0
    7.7739  -13.9619   19.1511 C   0  0  2  0  0  0  0  0  0  0  0  0
    8.2340  -12.9841   18.2163 N   0  0  0  0  0  0  0  0  0  0  0  0
    8.5421  -13.8755   20.4215 C   0  0  0  0  0  0  0  0  0  0  0  0
    9.6920  -13.3697   20.4590 O   0  0  0  0  0  0  0  0  0  0  0  0
    6.7360  -14.9976   23.9368 O   0  0  0  0  0  0  0  0  0  0  0  0
    7.8193  -14.1324   24.0251 C   0  0  0  0  0  0  0  0  0  0  0  0
    8.7358  -14.4190   22.8669 C   0  0  2  0  0  0  0  0  0  0  0  0
    7.9894  -14.3659   21.6284 N   0  0  0  0  0  0  0  0  0  0  0  0
    9.3402  -15.7603   23.0669 C   0  0  0  0  0  0  0  0  0  0  0  0
    8.7245  -16.7730   22.6882 O   0  0  0  0  0  0  0  0  0  0  0  0
   12.7681  -16.9078   23.9912 C   0  0  0  0  0  0  0  0  0  0  0  0
   11.2790  -17.1265   23.8690 C   0  0  2  0  0  0  0  0  0  0  0  0
   10.6096  -15.8609   23.6867 N   0  0  0  0  0  0  0  0  0  0  0  0
   10.7759  -17.8209   25.0766 C   0  0  0  0  0  0  0  0  0  0  0  0
    9.9464  -17.1325   25.9497 O   0  0  0  0  0  0  0  0  0  0  0  0
   11.0775  -19.0069   25.3299 O   0  0  0  0  0  0  0  0  0  0  0  0
  2  3  1  6
  2  1  1  0
  4  2  1  0
  4  5  1  6
  6  4  1  0
  6 11  1  0
  7  6  2  0
  9  8  1  0
 10 11  1  0
 10  9  1  1
 12 10  1  0
 12 16  1  0
 13 12  2  0
 15 16  1  0
 15 14  1  1
 17 15  1  0
 18 17  1  0
 19 17  2  0
M  END
$$$$
