VSA.pdb
     RDKit          3D

 19 18  0  0  1  0  0  0  0  0999 V2000
    8.7939  -18.7743   19.2694 C   0  0  0  0  0  0  0  0  0  0  0  0
    7.6377  -17.8175   19.2581 C   0  0  2  0  0  0  0  0  0  0  0  0
    6.7029  -18.1849   18.1324 C   0  0  0  0  0  0  0  0  0  0  0  0
    8.1083  -16.3850   19.0394 C   0  0  2  0  0  0  0  0  0  0  0  0
    8.8391  -16.2364   17.8205 N   0  0  0  0  0  0  0  0  0  0  0  0
    8.9154  -15.9129   20.1958 C   0  0  0  0  0  0  0  0  0  0  0  0
   10.1611  -15.7691   20.1107 O   0  0  0  0  0  0  0  0  0  0  0  0
    7.0189  -15.3029   23.7862 O   0  0  0  0  0  0  0  0  0  0  0  0
    8.1116  -14.4773   23.5530 C   0  0  0  0  0  0  0  0  0  0  0  0
    9.0325  -15.1873   22.5984 C   0  0  2  0  0  0  0  0  0  0  0  0
    8.2920  -15.6123   21.4302 N   0  0  0  0  0  0  0  0  0  0  0  0
    9.6315  -16.3501   23.3009 C   0  0  0  0  0  0  0  0  0  0  0  0
    9.0286  -17.4384   23.3096 O   0  0  0  0  0  0  0  0  0  0  0  0
   13.0553  -17.0403   24.5896 C   0  0  0  0  0  0  0  0  0  0  0  0
   11.5690  -17.3057   24.5666 C   0  0  2  0  0  0  0  0  0  0  0  0
   10.8812  -16.1971   23.9492 N   0  0  0  0  0  0  0  0  0  0  0  0
   11.0803  -17.5276   25.9470 C   0  0  0  0  0  0  0  0  0  0  0  0
   11.5505  -18.6224   26.6574 O   0  0  0  0  0  0  0  0  0  0  0  0
   10.2580  -16.7574   26.4879 O   0  0  0  0  0  0  0  0  0  0  0  0
  2  3  1  6
  2  1  1  0
  4  2  1  0
  4  5  1  6
  6  4  1  0
  6 11  1  0
  7  6  2  0
  9  8  1  0
 10 11  1  0
 10  9  1  1
 12 10  1  0
 12 16  1  0
 13 12  2  0
 15 16  1  0
 15 14  1  1
 17 15  1  0
 18 17  1  0
 19 17  2  0
M  END
$$$$
