VSA.pdb
     RDKit          3D

 19 18  0  0  1  0  0  0  0  0999 V2000
    9.9889  -19.7224   17.0069 C   0  0  0  0  0  0  0  0  0  0  0  0
   10.1091  -18.8624   18.2310 C   0  0  2  0  0  0  0  0  0  0  0  0
    9.2825  -19.4635   19.3407 C   0  0  0  0  0  0  0  0  0  0  0  0
    9.5990  -17.4512   17.9667 C   0  0  2  0  0  0  0  0  0  0  0  0
   10.2631  -16.8346   16.8619 N   0  0  0  0  0  0  0  0  0  0  0  0
    9.7194  -16.6100   19.1871 C   0  0  0  0  0  0  0  0  0  0  0  0
   10.8413  -16.2805   19.6480 O   0  0  0  0  0  0  0  0  0  0  0  0
    6.3216  -15.6489   21.3439 O   0  0  0  0  0  0  0  0  0  0  0  0
    7.2889  -14.6554   21.2601 C   0  0  0  0  0  0  0  0  0  0  0  0
    8.6198  -15.3227   21.0436 C   0  0  2  0  0  0  0  0  0  0  0  0
    8.5615  -16.1576   19.8632 N   0  0  0  0  0  0  0  0  0  0  0  0
    8.9436  -16.1270   22.2488 C   0  0  0  0  0  0  0  0  0  0  0  0
    8.5702  -17.3121   22.3137 O   0  0  0  0  0  0  0  0  0  0  0  0
   10.9763  -15.4304   25.3390 C   0  0  0  0  0  0  0  0  0  0  0  0
   10.0114  -16.2444   24.5104 C   0  0  2  0  0  0  0  0  0  0  0  0
    9.6734  -15.5276   23.3041 N   0  0  0  0  0  0  0  0  0  0  0  0
    8.7979  -16.5412   25.3058 C   0  0  0  0  0  0  0  0  0  0  0  0
    7.5980  -15.9444   24.9472 O   0  0  0  0  0  0  0  0  0  0  0  0
    8.8251  -17.3126   26.2887 O   0  0  0  0  0  0  0  0  0  0  0  0
  2  3  1  1
  2  1  1  0
  4  2  1  0
  4  5  1  6
  6  4  1  0
  6 11  1  0
  7  6  2  0
  9  8  1  0
 10 11  1  0
 10  9  1  1
 12 10  1  0
 12 16  1  0
 13 12  2  0
 15 16  1  0
 15 14  1  1
 17 15  1  0
 18 17  1  0
 19 17  2  0
M  END
$$$$
