RVR.pdb
     RDKit          3D

 30 29  0  0  1  0  0  0  0  0999 V2000
    7.1426  -13.1320   16.6303 N   0  0  0  0  0  0  0  0  0  0  0  0
    8.0334  -12.9815   17.7407 C   0  0  0  0  0  0  0  0  0  0  0  0
    8.8162  -11.9573   17.8297 N   0  0  0  0  0  0  0  0  0  0  0  0
    8.0963  -13.9421   18.7847 N   0  0  0  0  0  0  0  0  0  0  0  0
    6.9105  -14.6240   19.2593 C   0  0  0  0  0  0  0  0  0  0  0  0
    6.5519  -14.2688   20.6567 C   0  0  0  0  0  0  0  0  0  0  0  0
    5.7664  -15.2739   21.4086 C   0  0  0  0  0  0  0  0  0  0  0  0
    6.4924  -16.0828   22.4215 C   0  0  2  0  0  0  0  0  0  0  0  0
    5.6202  -17.0137   23.0982 N   0  0  0  0  0  0  0  0  0  0  0  0
    7.0138  -15.1422   23.4576 C   0  0  0  0  0  0  0  0  0  0  0  0
    6.5596  -13.9579   23.4729 O   0  0  0  0  0  0  0  0  0  0  0  0
    9.4220  -11.8273   18.6565 C   0  0  0  0  0  0  0  0  0  0  0  0
    6.7515  -12.9511   25.0194 C   0  0  1  0  0  0  0  0  0  0  0  0
    7.4961  -13.7991   26.0263 C   0  0  0  0  0  0  0  0  0  0  0  0
    8.0088  -12.9933   27.1941 C   0  0  2  0  0  0  0  0  0  0  0  0
    8.6189  -14.4998   25.2902 N   0  0  0  0  0  0  0  0  0  0  0  0
    7.9757  -15.4912   24.4144 C   0  0  0  0  0  0  0  0  0  0  0  0
    9.3957  -15.2827   26.2817 O   0  0  0  0  0  0  0  0  0  0  0  0
    8.9042  -15.7907   27.3171 N   0  0  0  0  0  0  0  0  0  0  0  0
   12.1087  -14.4354   19.8266 C   0  0  0  0  0  0  0  0  0  0  0  0
   13.0369  -15.2035   20.5717 N   0  0  0  0  0  0  0  0  0  0  0  0
   14.2227  -14.8047   20.7703 N   0  0  0  0  0  0  0  0  0  0  0  0
   12.5987  -16.4609   21.1037 C   0  0  0  0  0  0  0  0  0  0  0  0
   13.0096  -16.9181   22.4104 C   0  0  0  0  0  0  0  0  0  0  0  0
   11.9324  -16.6379   23.4062 C   0  0  0  0  0  0  0  0  0  0  0  0
   12.2540  -17.0677   24.7724 C   0  0  2  0  0  0  0  0  0  0  0  0
   11.3173  -16.8338   25.8864 N   0  0  0  0  0  0  0  0  0  0  0  0
   10.8187  -15.5064   26.0922 C   0  0  0  0  0  0  0  0  0  0  0  0
   11.8806  -17.3443   27.1646 O   0  0  0  0  0  0  0  0  0  0  0  0
   12.2125  -18.6795   27.3301 O   0  0  0  0  0  0  0  0  0  0  0  0
  2  3  2  0
  2  1  1  0
  4  2  1  0
  5  6  1  0
  5  4  1  0
  7  6  1  0
  8  7  1  0
  8  9  1  1
 10  8  1  0
 10 11  2  0
 13 12  1  1
 13 15  1  0
 14 13  1  0
 15 16  1  6
 16 10  1  0
 17 15  1  0
 18 17  2  0
 19 20  1  0
 20 21  2  0
 22 23  1  0
 22 20  1  0
 23 24  1  0
 24 25  1  0
 26 25  1  6
 26 28  1  0
 26 27  1  0
 27 17  1  0
 28 29  1  0
 30 28  2  0
M  END
$$$$
