RVR.pdb
     RDKit          3D

 30 29  0  0  1  0  0  0  0  0999 V2000
   10.8763  -13.5463   19.9876 N   0  0  0  0  0  0  0  0  0  0  0  0
   10.6042  -13.6575   18.5867 C   0  0  0  0  0  0  0  0  0  0  0  0
   11.1849  -14.5602   17.8672 N   0  0  0  0  0  0  0  0  0  0  0  0
    9.6923  -12.7888   17.9307 N   0  0  0  0  0  0  0  0  0  0  0  0
    8.6225  -12.1299   18.6501 C   0  0  0  0  0  0  0  0  0  0  0  0
    7.4827  -13.0319   18.9579 C   0  0  0  0  0  0  0  0  0  0  0  0
    7.7758  -14.1810   19.8447 C   0  0  0  0  0  0  0  0  0  0  0  0
    7.3274  -15.5218   19.3881 C   0  0  2  0  0  0  0  0  0  0  0  0
    5.8887  -15.6447   19.3986 N   0  0  0  0  0  0  0  0  0  0  0  0
    7.8577  -16.5267   20.3571 C   0  0  0  0  0  0  0  0  0  0  0  0
    7.1106  -16.8825   21.3186 O   0  0  0  0  0  0  0  0  0  0  0  0
   11.0889  -14.5565   16.8385 C   0  0  0  0  0  0  0  0  0  0  0  0
    9.7032  -19.7252   19.3967 C   0  0  2  0  0  0  0  0  0  0  0  0
   10.5405  -19.0184   20.4392 C   0  0  0  0  0  0  0  0  0  0  0  0
   11.2754  -19.9800   21.3398 C   0  0  2  0  0  0  0  0  0  0  0  0
    9.6189  -18.1068   21.2224 N   0  0  0  0  0  0  0  0  0  0  0  0
    9.1327  -17.1000   20.2666 C   0  0  0  0  0  0  0  0  0  0  0  0
   10.4416  -17.3628   22.2068 O   0  0  0  0  0  0  0  0  0  0  0  0
   11.4188  -16.6391   21.9021 N   0  0  0  0  0  0  0  0  0  0  0  0
   10.4787  -17.3350   30.3120 C   0  0  0  0  0  0  0  0  0  0  0  0
   10.4419  -15.9237   30.1957 N   0  0  0  0  0  0  0  0  0  0  0  0
    9.6679  -15.2174   30.9077 N   0  0  0  0  0  0  0  0  0  0  0  0
   11.3124  -15.3027   29.2403 C   0  0  0  0  0  0  0  0  0  0  0  0
   10.9264  -15.1308   27.8594 C   0  0  0  0  0  0  0  0  0  0  0  0
   11.4640  -16.2576   27.0398 C   0  0  0  0  0  0  0  0  0  0  0  0
   10.5568  -16.7120   25.9791 C   0  0  1  0  0  0  0  0  0  0  0  0
   11.0103  -16.8180   24.5805 N   0  0  0  0  0  0  0  0  0  0  0  0
   10.1419  -17.4410   23.6263 C   0  0  0  0  0  0  0  0  0  0  0  0
   12.3504  -17.4589   24.5082 O   0  0  0  0  0  0  0  0  0  0  0  0
   13.5158  -16.7095   24.5270 O   0  0  0  0  0  0  0  0  0  0  0  0
  2  3  2  0
  2  1  1  0
  4  2  1  0
  5  6  1  0
  5  4  1  0
  7  6  1  0
  8  7  1  0
  8  9  1  1
 10  8  1  0
 10 11  2  0
 13 12  1  6
 13 15  1  0
 14 13  1  0
 15 16  1  1
 16 10  1  0
 17 15  1  0
 18 17  2  0
 19 20  1  0
 20 21  2  0
 22 23  1  0
 22 20  1  0
 23 24  1  0
 24 25  1  0
 26 25  1  6
 26 28  1  0
 26 27  1  0
 27 17  1  0
 28 29  1  0
 30 28  2  0
M  END
$$$$
