RVR.pdb
     RDKit          3D

 30 29  0  0  1  0  0  0  0  0999 V2000
    8.1624  -21.7170   17.0949 N   0  0  0  0  0  0  0  0  0  0  0  0
    8.8601  -21.9452   15.8661 C   0  0  0  0  0  0  0  0  0  0  0  0
    8.5114  -22.9039   15.0728 N   0  0  0  0  0  0  0  0  0  0  0  0
    9.9568  -21.1360   15.4672 N   0  0  0  0  0  0  0  0  0  0  0  0
   10.4217  -20.0342   16.2833 C   0  0  0  0  0  0  0  0  0  0  0  0
    9.5458  -18.8368   16.2028 C   0  0  0  0  0  0  0  0  0  0  0  0
    9.9624  -17.6635   17.0044 C   0  0  0  0  0  0  0  0  0  0  0  0
    9.0825  -16.4671   16.9635 C   0  0  2  0  0  0  0  0  0  0  0  0
    9.3103  -15.6669   15.7832 N   0  0  0  0  0  0  0  0  0  0  0  0
    9.4275  -15.6155   18.1407 C   0  0  0  0  0  0  0  0  0  0  0  0
   10.5903  -15.1113   18.1937 O   0  0  0  0  0  0  0  0  0  0  0  0
    9.0592  -23.1086   14.2210 C   0  0  0  0  0  0  0  0  0  0  0  0
    6.5301  -14.3043   20.7290 C   0  0  1  0  0  0  0  0  0  0  0  0
    7.8281  -13.5414   20.5854 C   0  0  0  0  0  0  0  0  0  0  0  0
    7.7804  -12.5234   19.4731 C   0  0  1  0  0  0  0  0  0  0  0  0
    8.9319  -14.5562   20.3722 N   0  0  0  0  0  0  0  0  0  0  0  0
    8.5417  -15.3406   19.1906 C   0  0  0  0  0  0  0  0  0  0  0  0
    8.9056  -15.5051   21.5117 O   0  0  0  0  0  0  0  0  0  0  0  0
    8.0909  -16.4518   21.6194 N   0  0  0  0  0  0  0  0  0  0  0  0
   15.8422  -18.8967   20.9904 C   0  0  0  0  0  0  0  0  0  0  0  0
   14.7439  -19.6954   20.5870 N   0  0  0  0  0  0  0  0  0  0  0  0
   14.9039  -20.7507   19.9048 N   0  0  0  0  0  0  0  0  0  0  0  0
   13.4279  -19.2770   20.9732 C   0  0  0  0  0  0  0  0  0  0  0  0
   13.1999  -18.0341   21.6721 C   0  0  0  0  0  0  0  0  0  0  0  0
   11.7399  -17.8625   21.9358 C   0  0  0  0  0  0  0  0  0  0  0  0
   11.4353  -17.2146   23.2171 C   0  0  2  0  0  0  0  0  0  0  0  0
   10.1607  -16.5052   23.4297 N   0  0  0  0  0  0  0  0  0  0  0  0
    9.8603  -15.3770   22.5993 C   0  0  0  0  0  0  0  0  0  0  0  0
   10.0075  -16.1127   24.8559 O   0  0  0  0  0  0  0  0  0  0  0  0
   10.1084  -17.0413   25.8796 O   0  0  0  0  0  0  0  0  0  0  0  0
  2  3  2  0
  2  1  1  0
  4  2  1  0
  5  6  1  0
  5  4  1  0
  7  6  1  0
  8  7  1  0
  8  9  1  6
 10  8  1  0
 10 11  2  0
 13 12  1  1
 13 15  1  0
 14 13  1  0
 15 16  1  6
 16 10  1  0
 17 15  1  0
 18 17  2  0
 19 20  1  0
 20 21  2  0
 22 23  1  0
 22 20  1  0
 23 24  1  0
 24 25  1  0
 26 25  1  6
 26 28  1  0
 26 27  1  0
 27 17  1  0
 28 29  1  0
 30 28  2  0
M  END
$$$$
