RVR.pdb
     RDKit          3D

 30 29  0  0  1  0  0  0  0  0999 V2000
    4.1664  -21.8789   16.7987 N   0  0  0  0  0  0  0  0  0  0  0  0
    4.9018  -20.8517   16.1256 C   0  0  0  0  0  0  0  0  0  0  0  0
    4.9276  -20.7907   14.8350 N   0  0  0  0  0  0  0  0  0  0  0  0
    5.6294  -19.8627   16.8391 N   0  0  0  0  0  0  0  0  0  0  0  0
    6.5530  -20.2171   17.8963 C   0  0  0  0  0  0  0  0  0  0  0  0
    7.1854  -19.0367   18.5400 C   0  0  0  0  0  0  0  0  0  0  0  0
    8.3535  -18.4547   17.8405 C   0  0  0  0  0  0  0  0  0  0  0  0
    8.2183  -17.0637   17.3363 C   0  0  2  0  0  0  0  0  0  0  0  0
    8.8871  -16.8788   16.0699 N   0  0  0  0  0  0  0  0  0  0  0  0
    8.8899  -16.1624   18.3195 C   0  0  0  0  0  0  0  0  0  0  0  0
   10.1529  -16.0554   18.2670 O   0  0  0  0  0  0  0  0  0  0  0  0
    5.4751  -20.0590   14.3529 C   0  0  0  0  0  0  0  0  0  0  0  0
    6.6902  -14.1840   21.2154 C   0  0  1  0  0  0  0  0  0  0  0  0
    7.8082  -13.4268   20.5340 C   0  0  0  0  0  0  0  0  0  0  0  0
    7.3288  -12.6380   19.3408 C   0  0  1  0  0  0  0  0  0  0  0  0
    8.8734  -14.4333   20.1518 N   0  0  0  0  0  0  0  0  0  0  0  0
    8.2067  -15.4276   19.2972 C   0  0  0  0  0  0  0  0  0  0  0  0
    9.2740  -15.1621   21.3797 O   0  0  0  0  0  0  0  0  0  0  0  0
    8.5979  -16.0772   21.9061 N   0  0  0  0  0  0  0  0  0  0  0  0
    9.8671  -13.9457   29.6769 C   0  0  0  0  0  0  0  0  0  0  0  0
   10.6991  -15.0568   29.3941 N   0  0  0  0  0  0  0  0  0  0  0  0
   11.5512  -15.4798   30.2306 N   0  0  0  0  0  0  0  0  0  0  0  0
   10.5538  -15.7016   28.1216 C   0  0  0  0  0  0  0  0  0  0  0  0
   10.4291  -14.9468   26.8968 C   0  0  0  0  0  0  0  0  0  0  0  0
   10.2001  -15.8766   25.7508 C   0  0  0  0  0  0  0  0  0  0  0  0
    9.9747  -15.2006   24.4676 C   0  0  1  0  0  0  0  0  0  0  0  0
   10.8423  -15.4615   23.3047 N   0  0  0  0  0  0  0  0  0  0  0  0
   10.5177  -14.8370   22.0567 C   0  0  0  0  0  0  0  0  0  0  0  0
   11.0069  -16.9235   23.0875 O   0  0  0  0  0  0  0  0  0  0  0  0
   11.8556  -17.6838   23.8762 O   0  0  0  0  0  0  0  0  0  0  0  0
  2  3  2  0
  2  1  1  0
  4  2  1  0
  5  6  1  0
  5  4  1  0
  7  6  1  0
  8  7  1  0
  8  9  1  6
 10  8  1  0
 10 11  2  0
 13 12  1  1
 13 15  1  0
 14 13  1  0
 15 16  1  6
 16 10  1  0
 17 15  1  0
 18 17  2  0
 19 20  1  0
 20 21  2  0
 22 23  1  0
 22 20  1  0
 23 24  1  0
 24 25  1  0
 26 25  1  1
 26 28  1  0
 26 27  1  0
 27 17  1  0
 28 29  1  0
 30 28  2  0
M  END
$$$$
