RVR.pdb
     RDKit          3D

 30 29  0  0  1  0  0  0  0  0999 V2000
    7.8506  -14.6841   16.5913 N   0  0  0  0  0  0  0  0  0  0  0  0
    7.7308  -13.5523   17.4594 C   0  0  0  0  0  0  0  0  0  0  0  0
    8.3407  -12.4444   17.1939 N   0  0  0  0  0  0  0  0  0  0  0  0
    6.9435  -13.5956   18.6405 N   0  0  0  0  0  0  0  0  0  0  0  0
    7.0849  -14.6647   19.6064 C   0  0  0  0  0  0  0  0  0  0  0  0
    8.3734  -14.6189   20.3448 C   0  0  0  0  0  0  0  0  0  0  0  0
    8.7555  -15.8489   21.0754 C   0  0  0  0  0  0  0  0  0  0  0  0
    8.0474  -16.1275   22.3514 C   0  0  2  0  0  0  0  0  0  0  0  0
    6.6482  -15.7774   22.2824 N   0  0  0  0  0  0  0  0  0  0  0  0
    8.6614  -15.2638   23.4036 C   0  0  0  0  0  0  0  0  0  0  0  0
    9.9150  -15.0732   23.3643 O   0  0  0  0  0  0  0  0  0  0  0  0
    8.3653  -11.6775   17.8858 C   0  0  0  0  0  0  0  0  0  0  0  0
    6.3215  -13.5262   26.3724 C   0  0  1  0  0  0  0  0  0  0  0  0
    7.5645  -12.8063   25.8990 C   0  0  0  0  0  0  0  0  0  0  0  0
    7.2806  -11.8403   24.7756 C   0  0  1  0  0  0  0  0  0  0  0  0
    8.5744  -13.8595   25.4935 N   0  0  0  0  0  0  0  0  0  0  0  0
    7.9339  -14.6511   24.4321 C   0  0  0  0  0  0  0  0  0  0  0  0
    8.7502  -14.7873   26.6370 O   0  0  0  0  0  0  0  0  0  0  0  0
    7.8092  -15.3939   27.2012 N   0  0  0  0  0  0  0  0  0  0  0  0
   14.0693  -17.7007   23.7006 C   0  0  0  0  0  0  0  0  0  0  0  0
   12.8111  -18.3334   23.5484 N   0  0  0  0  0  0  0  0  0  0  0  0
   12.4281  -18.7925   22.4316 N   0  0  0  0  0  0  0  0  0  0  0  0
   11.9679  -18.4443   24.7029 C   0  0  0  0  0  0  0  0  0  0  0  0
   12.0621  -17.5160   25.8050 C   0  0  0  0  0  0  0  0  0  0  0  0
   11.1574  -17.9504   26.9110 C   0  0  0  0  0  0  0  0  0  0  0  0
   11.1975  -17.0814   28.0932 C   0  0  2  0  0  0  0  0  0  0  0  0
   10.2395  -15.9733   28.2588 N   0  0  0  0  0  0  0  0  0  0  0  0
   10.0732  -15.0470   27.1784 C   0  0  0  0  0  0  0  0  0  0  0  0
   10.5196  -15.2167   29.5081 O   0  0  0  0  0  0  0  0  0  0  0  0
   10.6118  -15.8514   30.7365 O   0  0  0  0  0  0  0  0  0  0  0  0
  2  3  2  0
  2  1  1  0
  4  2  1  0
  5  6  1  0
  5  4  1  0
  7  6  1  0
  8  7  1  0
  8  9  1  6
 10  8  1  0
 10 11  2  0
 13 12  1  1
 13 15  1  0
 14 13  1  0
 15 16  1  6
 16 10  1  0
 17 15  1  0
 18 17  2  0
 19 20  1  0
 20 21  2  0
 22 23  1  0
 22 20  1  0
 23 24  1  0
 24 25  1  0
 26 25  1  6
 26 28  1  0
 26 27  1  0
 27 17  1  0
 28 29  1  0
 30 28  2  0
M  END
$$$$
