RVR.pdb
     RDKit          3D

 30 29  0  0  1  0  0  0  0  0999 V2000
    7.1497  -21.2398   14.9099 N   0  0  0  0  0  0  0  0  0  0  0  0
    8.4085  -21.3538   14.2380 C   0  0  0  0  0  0  0  0  0  0  0  0
    8.4760  -21.7936   13.0248 N   0  0  0  0  0  0  0  0  0  0  0  0
    9.6284  -20.9921   14.8685 N   0  0  0  0  0  0  0  0  0  0  0  0
    9.6988  -19.8929   15.8083 C   0  0  0  0  0  0  0  0  0  0  0  0
    8.3629  -19.4072   16.2408 C   0  0  0  0  0  0  0  0  0  0  0  0
    8.3527  -18.3543   17.2820 C   0  0  0  0  0  0  0  0  0  0  0  0
    8.6116  -16.9600   16.8391 C   0  0  2  0  0  0  0  0  0  0  0  0
    9.6474  -16.8937   15.8352 N   0  0  0  0  0  0  0  0  0  0  0  0
    9.1039  -16.1964   18.0243 C   0  0  0  0  0  0  0  0  0  0  0  0
   10.3520  -15.9959   18.1302 O   0  0  0  0  0  0  0  0  0  0  0  0
    9.3910  -21.9604   12.5749 C   0  0  0  0  0  0  0  0  0  0  0  0
    7.4788  -12.9149   19.3040 C   0  0  1  0  0  0  0  0  0  0  0  0
    7.6265  -13.8868   20.4535 C   0  0  0  0  0  0  0  0  0  0  0  0
    7.8521  -13.1915   21.7731 C   0  0  2  0  0  0  0  0  0  0  0  0
    8.7632  -14.8273   20.1117 N   0  0  0  0  0  0  0  0  0  0  0  0
    8.2677  -15.6883   19.0269 C   0  0  0  0  0  0  0  0  0  0  0  0
    8.9770  -15.7254   21.2723 O   0  0  0  0  0  0  0  0  0  0  0  0
    8.1900  -16.6424   21.6060 N   0  0  0  0  0  0  0  0  0  0  0  0
   16.1957  -19.6763   21.7454 C   0  0  0  0  0  0  0  0  0  0  0  0
   15.2797  -19.7628   20.6683 N   0  0  0  0  0  0  0  0  0  0  0  0
   15.5704  -20.3697   19.5950 N   0  0  0  0  0  0  0  0  0  0  0  0
   13.9978  -19.1390   20.8213 C   0  0  0  0  0  0  0  0  0  0  0  0
   13.6275  -18.4505   22.0355 C   0  0  0  0  0  0  0  0  0  0  0  0
   12.2376  -17.9183   21.9116 C   0  0  0  0  0  0  0  0  0  0  0  0
   11.7571  -17.2154   23.1072 C   0  0  2  0  0  0  0  0  0  0  0  0
   10.4421  -16.5495   23.1241 N   0  0  0  0  0  0  0  0  0  0  0  0
   10.1550  -15.5788   22.1101 C   0  0  0  0  0  0  0  0  0  0  0  0
   10.1711  -15.9520   24.4587 O   0  0  0  0  0  0  0  0  0  0  0  0
   10.1850  -16.7176   25.6137 O   0  0  0  0  0  0  0  0  0  0  0  0
  2  3  2  0
  2  1  1  0
  4  2  1  0
  5  6  1  0
  5  4  1  0
  7  6  1  0
  8  7  1  0
  8  9  1  6
 10  8  1  0
 10 11  2  0
 13 12  1  1
 13 15  1  0
 14 13  1  0
 15 16  1  6
 16 10  1  0
 17 15  1  0
 18 17  2  0
 19 20  1  0
 20 21  2  0
 22 23  1  0
 22 20  1  0
 23 24  1  0
 24 25  1  0
 26 25  1  6
 26 28  1  0
 26 27  1  0
 27 17  1  0
 28 29  1  0
 30 28  2  0
M  END
$$$$
