RVR.pdb
     RDKit          3D

 30 29  0  0  1  0  0  0  0  0999 V2000
    8.9434  -15.6930   16.8306 N   0  0  0  0  0  0  0  0  0  0  0  0
    7.9064  -14.7715   16.4778 C   0  0  0  0  0  0  0  0  0  0  0  0
    7.8061  -14.3144   15.2733 N   0  0  0  0  0  0  0  0  0  0  0  0
    6.9502  -14.3225   17.4267 N   0  0  0  0  0  0  0  0  0  0  0  0
    6.6288  -15.1002   18.6048 C   0  0  0  0  0  0  0  0  0  0  0  0
    7.8170  -15.7436   19.2226 C   0  0  0  0  0  0  0  0  0  0  0  0
    8.0623  -15.4358   20.6501 C   0  0  0  0  0  0  0  0  0  0  0  0
    7.2420  -14.3591   21.2625 C   0  0  2  0  0  0  0  0  0  0  0  0
    7.1290  -13.2067   20.3997 N   0  0  0  0  0  0  0  0  0  0  0  0
    7.9441  -13.9090   22.5012 C   0  0  0  0  0  0  0  0  0  0  0  0
    8.9835  -13.1932   22.3729 O   0  0  0  0  0  0  0  0  0  0  0  0
    7.0783  -13.6221   15.0313 C   0  0  0  0  0  0  0  0  0  0  0  0
    6.3064  -12.0388   25.0478 C   0  0  1  0  0  0  0  0  0  0  0  0
    6.9985  -13.1224   25.8442 C   0  0  0  0  0  0  0  0  0  0  0  0
    7.4760  -12.6355   27.1898 C   0  0  2  0  0  0  0  0  0  0  0  0
    8.1395  -13.6502   24.9996 N   0  0  0  0  0  0  0  0  0  0  0  0
    7.5221  -14.2311   23.7976 C   0  0  0  0  0  0  0  0  0  0  0  0
    8.7559  -14.7875   25.7250 O   0  0  0  0  0  0  0  0  0  0  0  0
    8.1072  -15.7355   26.2270 N   0  0  0  0  0  0  0  0  0  0  0  0
   12.8453  -18.3659   29.9430 C   0  0  0  0  0  0  0  0  0  0  0  0
   12.1441  -18.1912   31.1614 N   0  0  0  0  0  0  0  0  0  0  0  0
   11.8843  -19.1678   31.9253 N   0  0  0  0  0  0  0  0  0  0  0  0
   11.7284  -16.8656   31.5163 C   0  0  0  0  0  0  0  0  0  0  0  0
   11.4763  -15.8547   30.5164 C   0  0  0  0  0  0  0  0  0  0  0  0
   10.7981  -16.4688   29.3360 C   0  0  0  0  0  0  0  0  0  0  0  0
   10.4149  -15.5048   28.2976 C   0  0  1  0  0  0  0  0  0  0  0  0
   10.7631  -15.7283   26.8828 N   0  0  0  0  0  0  0  0  0  0  0  0
   10.1971  -14.8590   25.8945 C   0  0  0  0  0  0  0  0  0  0  0  0
   10.5043  -17.1400   26.4930 O   0  0  0  0  0  0  0  0  0  0  0  0
   11.4528  -18.1319   26.6845 O   0  0  0  0  0  0  0  0  0  0  0  0
  2  3  2  0
  2  1  1  0
  4  2  1  0
  5  6  1  0
  5  4  1  0
  7  6  1  0
  8  7  1  0
  8  9  1  6
 10  8  1  0
 10 11  2  0
 13 12  1  1
 13 15  1  0
 14 13  1  0
 15 16  1  6
 16 10  1  0
 17 15  1  0
 18 17  2  0
 19 20  1  0
 20 21  2  0
 22 23  1  0
 22 20  1  0
 23 24  1  0
 24 25  1  0
 26 25  1  1
 26 28  1  0
 26 27  1  0
 27 17  1  0
 28 29  1  0
 30 28  2  0
M  END
$$$$
