RVR.pdb
     RDKit          3D

 30 29  0  0  1  0  0  0  0  0999 V2000
    8.8261  -12.2993   15.1579 N   0  0  0  0  0  0  0  0  0  0  0  0
    8.1151  -13.4237   15.6864 C   0  0  0  0  0  0  0  0  0  0  0  0
    8.3196  -14.6141   15.2270 N   0  0  0  0  0  0  0  0  0  0  0  0
    7.1620  -13.2828   16.7296 N   0  0  0  0  0  0  0  0  0  0  0  0
    7.5587  -12.9248   18.0751 C   0  0  0  0  0  0  0  0  0  0  0  0
    7.6149  -14.0885   18.9972 C   0  0  0  0  0  0  0  0  0  0  0  0
    7.8033  -13.7798   20.4332 C   0  0  0  0  0  0  0  0  0  0  0  0
    7.7797  -14.9232   21.3815 C   0  0  2  0  0  0  0  0  0  0  0  0
    6.4330  -15.3346   21.7010 N   0  0  0  0  0  0  0  0  0  0  0  0
    8.4087  -14.4631   22.6554 C   0  0  0  0  0  0  0  0  0  0  0  0
    9.6387  -14.1534   22.6372 O   0  0  0  0  0  0  0  0  0  0  0  0
    7.7858  -15.4192   15.5934 C   0  0  0  0  0  0  0  0  0  0  0  0
    6.2300  -13.2334   26.0135 C   0  0  1  0  0  0  0  0  0  0  0  0
    7.6218  -12.7668   25.6492 C   0  0  0  0  0  0  0  0  0  0  0  0
    7.6095  -11.6333   24.6538 C   0  0  1  0  0  0  0  0  0  0  0  0
    8.3822  -13.9672   25.1253 N   0  0  0  0  0  0  0  0  0  0  0  0
    7.7197  -14.3534   23.8701 C   0  0  0  0  0  0  0  0  0  0  0  0
    8.1571  -15.0944   26.0624 O   0  0  0  0  0  0  0  0  0  0  0  0
    7.1182  -15.7959   26.0815 N   0  0  0  0  0  0  0  0  0  0  0  0
   13.0401  -21.8905   24.4554 C   0  0  0  0  0  0  0  0  0  0  0  0
   13.2139  -20.7733   25.3089 N   0  0  0  0  0  0  0  0  0  0  0  0
   13.5880  -20.9070   26.5118 N   0  0  0  0  0  0  0  0  0  0  0  0
   12.9532  -19.4688   24.7739 C   0  0  0  0  0  0  0  0  0  0  0  0
   11.6082  -18.9981   24.5396 C   0  0  0  0  0  0  0  0  0  0  0  0
   10.9635  -18.6416   25.8387 C   0  0  0  0  0  0  0  0  0  0  0  0
   10.3516  -17.3076   25.8570 C   0  0  1  0  0  0  0  0  0  0  0  0
    9.7019  -16.7825   27.0716 N   0  0  0  0  0  0  0  0  0  0  0  0
    9.1697  -15.4526   27.0408 C   0  0  0  0  0  0  0  0  0  0  0  0
   10.5987  -16.9193   28.2500 O   0  0  0  0  0  0  0  0  0  0  0  0
   10.9808  -18.1612   28.7317 O   0  0  0  0  0  0  0  0  0  0  0  0
  2  3  2  0
  2  1  1  0
  4  2  1  0
  5  6  1  0
  5  4  1  0
  7  6  1  0
  8  7  1  0
  8  9  1  1
 10  8  1  0
 10 11  2  0
 13 12  1  1
 13 15  1  0
 14 13  1  0
 15 16  1  6
 16 10  1  0
 17 15  1  0
 18 17  2  0
 19 20  1  0
 20 21  2  0
 22 23  1  0
 22 20  1  0
 23 24  1  0
 24 25  1  0
 26 25  1  6
 26 28  1  0
 26 27  1  0
 27 17  1  0
 28 29  1  0
 30 28  2  0
M  END
$$$$
