RVR.pdb
     RDKit          3D

 30 29  0  0  1  0  0  0  0  0999 V2000
    9.4107  -14.3396   16.6032 N   0  0  0  0  0  0  0  0  0  0  0  0
    8.2475  -13.6854   17.1209 C   0  0  0  0  0  0  0  0  0  0  0  0
    8.1902  -12.3969   17.1994 N   0  0  0  0  0  0  0  0  0  0  0  0
    7.1148  -14.4163   17.5672 N   0  0  0  0  0  0  0  0  0  0  0  0
    6.9250  -14.7404   18.9655 C   0  0  0  0  0  0  0  0  0  0  0  0
    8.0775  -15.4663   19.5589 C   0  0  0  0  0  0  0  0  0  0  0  0
    8.5954  -14.9389   20.8421 C   0  0  0  0  0  0  0  0  0  0  0  0
    8.2898  -15.7193   22.0688 C   0  0  2  0  0  0  0  0  0  0  0  0
    6.8843  -16.0325   22.1759 N   0  0  0  0  0  0  0  0  0  0  0  0
    8.6365  -14.8642   23.2430 C   0  0  0  0  0  0  0  0  0  0  0  0
    9.8221  -14.4218   23.3313 O   0  0  0  0  0  0  0  0  0  0  0  0
    7.3314  -11.9267   17.5298 C   0  0  0  0  0  0  0  0  0  0  0  0
    6.4277  -12.1111   24.6810 C   0  0  1  0  0  0  0  0  0  0  0  0
    6.8618  -12.9717   25.8465 C   0  0  0  0  0  0  0  0  0  0  0  0
    7.0864  -12.1704   27.1048 C   0  0  2  0  0  0  0  0  0  0  0  0
    8.1110  -13.7158   25.4230 N   0  0  0  0  0  0  0  0  0  0  0  0
    7.7286  -14.5216   24.2534 C   0  0  0  0  0  0  0  0  0  0  0  0
    8.4460  -14.6895   26.4903 O   0  0  0  0  0  0  0  0  0  0  0  0
    7.7481  -15.6924   26.7712 N   0  0  0  0  0  0  0  0  0  0  0  0
   12.9987  -20.0103   28.5481 C   0  0  0  0  0  0  0  0  0  0  0  0
   12.3258  -20.6438   27.4745 N   0  0  0  0  0  0  0  0  0  0  0  0
   12.1709  -21.9004   27.4354 N   0  0  0  0  0  0  0  0  0  0  0  0
   11.8166  -19.8196   26.4175 C   0  0  0  0  0  0  0  0  0  0  0  0
   11.9578  -18.3826   26.4387 C   0  0  0  0  0  0  0  0  0  0  0  0
   11.2454  -17.8218   27.6256 C   0  0  0  0  0  0  0  0  0  0  0  0
   11.2858  -16.3570   27.7107 C   0  0  2  0  0  0  0  0  0  0  0  0
   10.1042  -15.5843   28.1347 N   0  0  0  0  0  0  0  0  0  0  0  0
    9.6457  -14.5201   27.2920 C   0  0  0  0  0  0  0  0  0  0  0  0
   10.2816  -15.0665   29.5175 O   0  0  0  0  0  0  0  0  0  0  0  0
   10.2844  -15.9124   30.6151 O   0  0  0  0  0  0  0  0  0  0  0  0
  2  3  2  0
  2  1  1  0
  4  2  1  0
  5  6  1  0
  5  4  1  0
  7  6  1  0
  8  7  1  0
  8  9  1  1
 10  8  1  0
 10 11  2  0
 13 12  1  1
 13 15  1  0
 14 13  1  0
 15 16  1  6
 16 10  1  0
 17 15  1  0
 18 17  2  0
 19 20  1  0
 20 21  2  0
 22 23  1  0
 22 20  1  0
 23 24  1  0
 24 25  1  0
 26 25  1  6
 26 28  1  0
 26 27  1  0
 27 17  1  0
 28 29  1  0
 30 28  2  0
M  END
$$$$
