RVR.pdb
     RDKit          3D

 30 29  0  0  1  0  0  0  0  0999 V2000
   14.2979  -16.6049   15.3589 N   0  0  0  0  0  0  0  0  0  0  0  0
   15.0633  -16.5634   16.5678 C   0  0  0  0  0  0  0  0  0  0  0  0
   16.1762  -17.2119   16.6715 N   0  0  0  0  0  0  0  0  0  0  0  0
   14.6381  -15.8147   17.6970 N   0  0  0  0  0  0  0  0  0  0  0  0
   13.8526  -14.6070   17.5532 C   0  0  0  0  0  0  0  0  0  0  0  0
   12.3989  -14.8260   17.7682 C   0  0  0  0  0  0  0  0  0  0  0  0
   11.5195  -13.6542   17.5533 C   0  0  0  0  0  0  0  0  0  0  0  0
   10.0661  -13.8431   17.7968 C   0  0  2  0  0  0  0  0  0  0  0  0
    9.2768  -12.7832   17.2146 N   0  0  0  0  0  0  0  0  0  0  0  0
    9.8474  -13.7889   19.2730 C   0  0  0  0  0  0  0  0  0  0  0  0
   10.3136  -12.7963   19.9106 O   0  0  0  0  0  0  0  0  0  0  0  0
   16.6691  -17.2713   17.5777 C   0  0  0  0  0  0  0  0  0  0  0  0
    6.7555  -13.6518   20.7995 C   0  0  1  0  0  0  0  0  0  0  0  0
    7.3875  -14.7716   21.5958 C   0  0  0  0  0  0  0  0  0  0  0  0
    6.9743  -14.7540   23.0466 C   0  0  2  0  0  0  0  0  0  0  0  0
    8.8889  -14.6524   21.4371 N   0  0  0  0  0  0  0  0  0  0  0  0
    9.1571  -14.7707   19.9957 C   0  0  0  0  0  0  0  0  0  0  0  0
    9.5098  -15.8460   22.0611 O   0  0  0  0  0  0  0  0  0  0  0  0
    9.3157  -17.0226   21.6743 N   0  0  0  0  0  0  0  0  0  0  0  0
   16.7164  -13.8955   22.7287 C   0  0  0  0  0  0  0  0  0  0  0  0
   16.3827  -14.6766   21.5950 N   0  0  0  0  0  0  0  0  0  0  0  0
   17.0424  -14.5992   20.5164 N   0  0  0  0  0  0  0  0  0  0  0  0
   15.2654  -15.5696   21.6965 C   0  0  0  0  0  0  0  0  0  0  0  0
   14.4408  -15.6240   22.8807 C   0  0  0  0  0  0  0  0  0  0  0  0
   13.3934  -16.6763   22.7198 C   0  0  0  0  0  0  0  0  0  0  0  0
   12.5214  -16.8365   23.8896 C   0  0  2  0  0  0  0  0  0  0  0  0
   11.0539  -16.8531   23.7511 N   0  0  0  0  0  0  0  0  0  0  0  0
   10.4074  -15.7020   23.1944 C   0  0  0  0  0  0  0  0  0  0  0  0
   10.4062  -17.1952   25.0453 O   0  0  0  0  0  0  0  0  0  0  0  0
   10.7208  -18.3583   25.7299 O   0  0  0  0  0  0  0  0  0  0  0  0
  2  3  2  0
  2  1  1  0
  4  2  1  0
  5  6  1  0
  5  4  1  0
  7  6  1  0
  8  7  1  0
  8  9  1  6
 10  8  1  0
 10 11  2  0
 13 12  1  6
 13 15  1  0
 14 13  1  0
 15 16  1  1
 16 10  1  0
 17 15  1  0
 18 17  2  0
 19 20  1  0
 20 21  2  0
 22 23  1  0
 22 20  1  0
 23 24  1  0
 24 25  1  0
 26 25  1  6
 26 28  1  0
 26 27  1  0
 27 17  1  0
 28 29  1  0
 30 28  2  0
M  END
$$$$
