RVR.pdb
     RDKit          3D

 30 29  0  0  1  0  0  0  0  0999 V2000
   11.1019  -23.1247   17.9022 N   0  0  0  0  0  0  0  0  0  0  0  0
    9.9366  -23.0299   17.0762 C   0  0  0  0  0  0  0  0  0  0  0  0
    9.9305  -23.5150   15.8785 N   0  0  0  0  0  0  0  0  0  0  0  0
    8.7459  -22.4042   17.5316 N   0  0  0  0  0  0  0  0  0  0  0  0
    8.7829  -21.2265   18.3730 C   0  0  0  0  0  0  0  0  0  0  0  0
    9.6736  -20.1600   17.8469 C   0  0  0  0  0  0  0  0  0  0  0  0
    9.6761  -18.8801   18.5917 C   0  0  0  0  0  0  0  0  0  0  0  0
    9.3698  -17.6469   17.8219 C   0  0  2  0  0  0  0  0  0  0  0  0
   10.2925  -17.4466   16.7294 N   0  0  0  0  0  0  0  0  0  0  0  0
    9.5330  -16.4871   18.7484 C   0  0  0  0  0  0  0  0  0  0  0  0
   10.6917  -15.9892   18.8849 O   0  0  0  0  0  0  0  0  0  0  0  0
    9.1024  -23.4064   15.2702 C   0  0  0  0  0  0  0  0  0  0  0  0
    6.9988  -13.5329   19.0895 C   0  0  1  0  0  0  0  0  0  0  0  0
    7.3234  -14.0779   20.4625 C   0  0  0  0  0  0  0  0  0  0  0  0
    7.3100  -13.0090   21.5269 C   0  0  2  0  0  0  0  0  0  0  0  0
    8.6697  -14.7658   20.3730 N   0  0  0  0  0  0  0  0  0  0  0  0
    8.4808  -15.9162   19.4761 C   0  0  0  0  0  0  0  0  0  0  0  0
    8.9778  -15.3405   21.7050 O   0  0  0  0  0  0  0  0  0  0  0  0
    8.3747  -16.3192   22.2050 N   0  0  0  0  0  0  0  0  0  0  0  0
    9.5102  -13.6583   29.8109 C   0  0  0  0  0  0  0  0  0  0  0  0
    9.9826  -14.9914   29.7304 N   0  0  0  0  0  0  0  0  0  0  0  0
   10.5301  -15.5640   30.7188 N   0  0  0  0  0  0  0  0  0  0  0  0
    9.8254  -15.6887   28.4873 C   0  0  0  0  0  0  0  0  0  0  0  0
    9.6575  -14.9855   27.2373 C   0  0  0  0  0  0  0  0  0  0  0  0
    9.4162  -15.9639   26.1350 C   0  0  0  0  0  0  0  0  0  0  0  0
    9.2240  -15.3457   24.8176 C   0  0  1  0  0  0  0  0  0  0  0  0
   10.3102  -15.3189   23.8214 N   0  0  0  0  0  0  0  0  0  0  0  0
   10.0347  -14.7739   22.5252 C   0  0  0  0  0  0  0  0  0  0  0  0
   10.9128  -16.6691   23.6622 O   0  0  0  0  0  0  0  0  0  0  0  0
   12.2391  -16.9145   23.9799 O   0  0  0  0  0  0  0  0  0  0  0  0
  2  3  2  0
  2  1  1  0
  4  2  1  0
  5  6  1  0
  5  4  1  0
  7  6  1  0
  8  7  1  0
  8  9  1  6
 10  8  1  0
 10 11  2  0
 13 12  1  1
 13 15  1  0
 14 13  1  0
 15 16  1  6
 16 10  1  0
 17 15  1  0
 18 17  2  0
 19 20  1  0
 20 21  2  0
 22 23  1  0
 22 20  1  0
 23 24  1  0
 24 25  1  0
 26 25  1  1
 26 28  1  0
 26 27  1  0
 27 17  1  0
 28 29  1  0
 30 28  2  0
M  END
$$$$
