RVR.pdb
     RDKit          3D

 30 29  0  0  1  0  0  0  0  0999 V2000
    9.2373  -13.2245   17.2377 N   0  0  0  0  0  0  0  0  0  0  0  0
    8.2982  -14.0439   16.5337 C   0  0  0  0  0  0  0  0  0  0  0  0
    8.0003  -13.8021   15.2997 N   0  0  0  0  0  0  0  0  0  0  0  0
    7.6575  -15.1491   17.1539 N   0  0  0  0  0  0  0  0  0  0  0  0
    7.8827  -15.4712   18.5474 C   0  0  0  0  0  0  0  0  0  0  0  0
    7.2998  -14.4721   19.4799 C   0  0  0  0  0  0  0  0  0  0  0  0
    7.4213  -14.7734   20.9246 C   0  0  0  0  0  0  0  0  0  0  0  0
    6.6817  -15.9564   21.4353 C   0  0  2  0  0  0  0  0  0  0  0  0
    5.2603  -15.7143   21.5139 N   0  0  0  0  0  0  0  0  0  0  0  0
    7.1570  -16.2169   22.8268 C   0  0  0  0  0  0  0  0  0  0  0  0
    7.1872  -15.2440   23.6403 O   0  0  0  0  0  0  0  0  0  0  0  0
    7.3618  -14.4261   14.7797 C   0  0  0  0  0  0  0  0  0  0  0  0
    5.7867  -18.4103   25.1580 C   0  0  1  0  0  0  0  0  0  0  0  0
    7.2387  -18.8288   25.2217 C   0  0  0  0  0  0  0  0  0  0  0  0
    7.6739  -19.1955   26.6189 C   0  0  2  0  0  0  0  0  0  0  0  0
    8.0654  -17.6935   24.6549 N   0  0  0  0  0  0  0  0  0  0  0  0
    7.5717  -17.4734   23.2869 C   0  0  0  0  0  0  0  0  0  0  0  0
    9.4604  -18.1746   24.5067 O   0  0  0  0  0  0  0  0  0  0  0  0
    9.8011  -19.1241   23.7624 N   0  0  0  0  0  0  0  0  0  0  0  0
   14.0752  -15.8905   20.1309 C   0  0  0  0  0  0  0  0  0  0  0  0
   13.7281  -14.5814   20.5461 N   0  0  0  0  0  0  0  0  0  0  0  0
   13.8559  -13.5835   19.7763 N   0  0  0  0  0  0  0  0  0  0  0  0
   13.2216  -14.4078   21.8763 C   0  0  0  0  0  0  0  0  0  0  0  0
   13.6561  -15.2442   22.9703 C   0  0  0  0  0  0  0  0  0  0  0  0
   12.5488  -16.1600   23.3776 C   0  0  0  0  0  0  0  0  0  0  0  0
   12.8725  -17.0174   24.5241 C   0  0  2  0  0  0  0  0  0  0  0  0
   11.8918  -17.9794   25.0588 N   0  0  0  0  0  0  0  0  0  0  0  0
   10.5399  -17.5433   25.2463 C   0  0  0  0  0  0  0  0  0  0  0  0
   12.3854  -18.5877   26.3228 O   0  0  0  0  0  0  0  0  0  0  0  0
   13.1231  -19.7608   26.3246 O   0  0  0  0  0  0  0  0  0  0  0  0
  2  3  2  0
  2  1  1  0
  4  2  1  0
  5  6  1  0
  5  4  1  0
  7  6  1  0
  8  7  1  0
  8  9  1  1
 10  8  1  0
 10 11  2  0
 13 12  1  6
 13 15  1  0
 14 13  1  0
 15 16  1  1
 16 10  1  0
 17 15  1  0
 18 17  2  0
 19 20  1  0
 20 21  2  0
 22 23  1  0
 22 20  1  0
 23 24  1  0
 24 25  1  0
 26 25  1  6
 26 28  1  0
 26 27  1  0
 27 17  1  0
 28 29  1  0
 30 28  2  0
M  END
$$$$
