RVR.pdb
     RDKit          3D

 30 29  0  0  1  0  0  0  0  0999 V2000
    7.5292  -13.6053   15.1674 N   0  0  0  0  0  0  0  0  0  0  0  0
    8.2428  -14.7595   15.6229 C   0  0  0  0  0  0  0  0  0  0  0  0
    8.6478  -15.6611   14.7905 N   0  0  0  0  0  0  0  0  0  0  0  0
    8.5351  -14.9638   16.9975 N   0  0  0  0  0  0  0  0  0  0  0  0
    7.7689  -14.3137   18.0398 C   0  0  0  0  0  0  0  0  0  0  0  0
    7.3138  -15.2491   19.1007 C   0  0  0  0  0  0  0  0  0  0  0  0
    7.7477  -14.9369   20.4816 C   0  0  0  0  0  0  0  0  0  0  0  0
    7.6520  -13.5201   20.9186 C   0  0  2  0  0  0  0  0  0  0  0  0
    8.4674  -12.6466   20.1079 N   0  0  0  0  0  0  0  0  0  0  0  0
    8.1833  -13.4432   22.3121 C   0  0  0  0  0  0  0  0  0  0  0  0
    9.4336  -13.2961   22.4682 O   0  0  0  0  0  0  0  0  0  0  0  0
    9.0839  -16.5340   15.1300 C   0  0  0  0  0  0  0  0  0  0  0  0
    7.0681  -11.1808   24.9630 C   0  0  1  0  0  0  0  0  0  0  0  0
    7.0121  -12.5495   25.6041 C   0  0  0  0  0  0  0  0  0  0  0  0
    7.3707  -12.5168   27.0691 C   0  0  2  0  0  0  0  0  0  0  0  0
    7.9349  -13.4584   24.8192 N   0  0  0  0  0  0  0  0  0  0  0  0
    7.3814  -13.5239   23.4580 C   0  0  0  0  0  0  0  0  0  0  0  0
    7.8054  -14.8281   25.3727 O   0  0  0  0  0  0  0  0  0  0  0  0
    6.8844  -15.6237   25.0717 N   0  0  0  0  0  0  0  0  0  0  0  0
   11.9402  -19.1458   20.6183 C   0  0  0  0  0  0  0  0  0  0  0  0
   12.6295  -19.6893   21.7302 N   0  0  0  0  0  0  0  0  0  0  0  0
   13.5604  -20.5365   21.5865 N   0  0  0  0  0  0  0  0  0  0  0  0
   12.2450  -19.2535   23.0410 C   0  0  0  0  0  0  0  0  0  0  0  0
   11.0997  -18.3997   23.2526 C   0  0  0  0  0  0  0  0  0  0  0  0
   11.0384  -17.9814   24.6850 C   0  0  0  0  0  0  0  0  0  0  0  0
   10.2750  -16.7493   24.9165 C   0  0  1  0  0  0  0  0  0  0  0  0
    9.4164  -16.5954   26.1048 N   0  0  0  0  0  0  0  0  0  0  0  0
    8.7780  -15.3321   26.3271 C   0  0  0  0  0  0  0  0  0  0  0  0
   10.1463  -16.9940   27.3376 O   0  0  0  0  0  0  0  0  0  0  0  0
   10.3852  -18.3246   27.6422 O   0  0  0  0  0  0  0  0  0  0  0  0
  2  3  2  0
  2  1  1  0
  4  2  1  0
  5  6  1  0
  5  4  1  0
  7  6  1  0
  8  7  1  0
  8  9  1  6
 10  8  1  0
 10 11  2  0
 13 12  1  1
 13 15  1  0
 14 13  1  0
 15 16  1  6
 16 10  1  0
 17 15  1  0
 18 17  2  0
 19 20  1  0
 20 21  2  0
 22 23  1  0
 22 20  1  0
 23 24  1  0
 24 25  1  0
 26 25  1  6
 26 28  1  0
 26 27  1  0
 27 17  1  0
 28 29  1  0
 30 28  2  0
M  END
$$$$
