RVR.pdb
     RDKit          3D

 30 29  0  0  1  0  0  0  0  0999 V2000
   10.2006  -19.2940   18.1090 N   0  0  0  0  0  0  0  0  0  0  0  0
   10.3535  -18.2743   19.1019 C   0  0  0  0  0  0  0  0  0  0  0  0
   11.5205  -17.9681   19.5649 N   0  0  0  0  0  0  0  0  0  0  0  0
    9.2400  -17.5600   19.6181 N   0  0  0  0  0  0  0  0  0  0  0  0
    8.5487  -16.5617   18.8297 C   0  0  0  0  0  0  0  0  0  0  0  0
    8.5321  -15.2205   19.4690 C   0  0  0  0  0  0  0  0  0  0  0  0
    7.2599  -14.8136   20.1081 C   0  0  0  0  0  0  0  0  0  0  0  0
    7.1847  -13.4325   20.6505 C   0  0  2  0  0  0  0  0  0  0  0  0
    7.8738  -12.4818   19.8099 N   0  0  0  0  0  0  0  0  0  0  0  0
    7.8806  -13.4305   21.9718 C   0  0  0  0  0  0  0  0  0  0  0  0
    9.1136  -13.1335   21.9978 O   0  0  0  0  0  0  0  0  0  0  0  0
   11.6179  -17.3077   20.3535 C   0  0  0  0  0  0  0  0  0  0  0  0
    6.5459  -11.7964   25.1684 C   0  0  1  0  0  0  0  0  0  0  0  0
    6.9132  -13.2277   25.4911 C   0  0  0  0  0  0  0  0  0  0  0  0
    7.4073  -13.3926   26.9069 C   0  0  2  0  0  0  0  0  0  0  0  0
    7.9484  -13.6717   24.4787 N   0  0  0  0  0  0  0  0  0  0  0  0
    7.2513  -13.7376   23.1851 C   0  0  0  0  0  0  0  0  0  0  0  0
    8.3319  -15.0677   24.8006 O   0  0  0  0  0  0  0  0  0  0  0  0
    7.5156  -16.0123   24.9152 N   0  0  0  0  0  0  0  0  0  0  0  0
   15.1921  -15.8026   21.6498 C   0  0  0  0  0  0  0  0  0  0  0  0
   13.9246  -15.3235   21.2368 N   0  0  0  0  0  0  0  0  0  0  0  0
   13.8039  -14.4975   20.2839 N   0  0  0  0  0  0  0  0  0  0  0  0
   12.7643  -15.8006   21.9310 C   0  0  0  0  0  0  0  0  0  0  0  0
   12.7802  -17.0360   22.6785 C   0  0  0  0  0  0  0  0  0  0  0  0
   11.4055  -17.3456   23.1733 C   0  0  0  0  0  0  0  0  0  0  0  0
   11.2805  -17.3399   24.6358 C   0  0  2  0  0  0  0  0  0  0  0  0
   10.0909  -16.7744   25.2979 N   0  0  0  0  0  0  0  0  0  0  0  0
    9.7263  -15.4198   25.0064 C   0  0  0  0  0  0  0  0  0  0  0  0
   10.1763  -16.9476   26.7724 O   0  0  0  0  0  0  0  0  0  0  0  0
   10.2945  -18.2013   27.3509 O   0  0  0  0  0  0  0  0  0  0  0  0
  2  3  2  0
  2  1  1  0
  4  2  1  0
  5  6  1  0
  5  4  1  0
  7  6  1  0
  8  7  1  0
  8  9  1  6
 10  8  1  0
 10 11  2  0
 13 12  1  1
 13 15  1  0
 14 13  1  0
 15 16  1  6
 16 10  1  0
 17 15  1  0
 18 17  2  0
 19 20  1  0
 20 21  2  0
 22 23  1  0
 22 20  1  0
 23 24  1  0
 24 25  1  0
 26 25  1  6
 26 28  1  0
 26 27  1  0
 27 17  1  0
 28 29  1  0
 30 28  2  0
M  END
$$$$
