RVR.pdb
     RDKit          3D

 30 29  0  0  1  0  0  0  0  0999 V2000
    9.2412  -14.9276   15.3267 N   0  0  0  0  0  0  0  0  0  0  0  0
    8.1100  -15.6128   15.8743 C   0  0  0  0  0  0  0  0  0  0  0  0
    6.9097  -15.3223   15.4939 N   0  0  0  0  0  0  0  0  0  0  0  0
    8.2546  -16.6332   16.8513 N   0  0  0  0  0  0  0  0  0  0  0  0
    8.6706  -16.3326   18.2051 C   0  0  0  0  0  0  0  0  0  0  0  0
    8.1088  -15.0570   18.7196 C   0  0  0  0  0  0  0  0  0  0  0  0
    8.3885  -14.7417   20.1391 C   0  0  0  0  0  0  0  0  0  0  0  0
    7.7205  -13.5449   20.7125 C   0  0  2  0  0  0  0  0  0  0  0  0
    8.1266  -12.3280   20.0497 N   0  0  0  0  0  0  0  0  0  0  0  0
    8.1514  -13.4297   22.1377 C   0  0  0  0  0  0  0  0  0  0  0  0
    9.3701  -13.1696   22.3748 O   0  0  0  0  0  0  0  0  0  0  0  0
    6.0964  -15.8243   15.8864 C   0  0  0  0  0  0  0  0  0  0  0  0
    6.2524  -11.7259   25.0570 C   0  0  1  0  0  0  0  0  0  0  0  0
    6.5880  -13.1430   25.4650 C   0  0  0  0  0  0  0  0  0  0  0  0
    6.8779  -13.2666   26.9403 C   0  0  2  0  0  0  0  0  0  0  0  0
    7.7621  -13.5941   24.6214 N   0  0  0  0  0  0  0  0  0  0  0  0
    7.2881  -13.5921   23.2289 C   0  0  0  0  0  0  0  0  0  0  0  0
    8.0411  -15.0132   24.9494 O   0  0  0  0  0  0  0  0  0  0  0  0
    7.2472  -15.9565   24.7219 N   0  0  0  0  0  0  0  0  0  0  0  0
   14.4762  -20.0285   22.7856 C   0  0  0  0  0  0  0  0  0  0  0  0
   13.1392  -19.9529   22.3235 N   0  0  0  0  0  0  0  0  0  0  0  0
   12.8147  -20.3365   21.1606 N   0  0  0  0  0  0  0  0  0  0  0  0
   12.1468  -19.4249   23.2136 C   0  0  0  0  0  0  0  0  0  0  0  0
   12.4493  -19.1137   24.5909 C   0  0  0  0  0  0  0  0  0  0  0  0
   11.1975  -18.7307   25.3097 C   0  0  0  0  0  0  0  0  0  0  0  0
   10.7803  -17.3413   25.0860 C   0  0  1  0  0  0  0  0  0  0  0  0
    9.6099  -16.7747   25.7805 N   0  0  0  0  0  0  0  0  0  0  0  0
    9.2969  -15.3918   25.5743 C   0  0  0  0  0  0  0  0  0  0  0  0
    9.6829  -17.0433   27.2413 O   0  0  0  0  0  0  0  0  0  0  0  0
    9.7944  -18.3321   27.7381 O   0  0  0  0  0  0  0  0  0  0  0  0
  2  3  2  0
  2  1  1  0
  4  2  1  0
  5  6  1  0
  5  4  1  0
  7  6  1  0
  8  7  1  0
  8  9  1  6
 10  8  1  0
 10 11  2  0
 13 12  1  1
 13 15  1  0
 14 13  1  0
 15 16  1  1
 16 10  1  0
 17 15  1  0
 18 17  2  0
 19 20  1  0
 20 21  2  0
 22 23  1  0
 22 20  1  0
 23 24  1  0
 24 25  1  0
 26 25  1  6
 26 28  1  0
 26 27  1  0
 27 17  1  0
 28 29  1  0
 30 28  2  0
M  END
$$$$
