TCT.pdb
     RDKit          3D

 21 20  0  0  1  0  0  0  0  0999 V2000
   -1.4490  -24.3393   22.0195 C   0  0  0  0  0  0  0  0  0  0  0  0
   -2.8894  -24.6520   21.7649 C   0  0  1  0  0  0  0  0  0  0  0  0
   -3.4571  -25.1421   22.9216 O   0  0  0  0  0  0  0  0  0  0  0  0
   -3.6483  -23.4708   21.2031 C   0  0  2  0  0  0  0  0  0  0  0  0
   -5.0250  -23.8940   21.0032 N   0  0  0  0  0  0  0  0  0  0  0  0
   -3.1054  -23.0783   19.8764 C   0  0  0  0  0  0  0  0  0  0  0  0
   -3.0847  -23.8745   18.9024 O   0  0  0  0  0  0  0  0  0  0  0  0
   -2.5727  -21.7720   19.6226 N   0  0  0  0  0  0  0  0  0  0  0  0
   -1.9293  -21.4512   18.3647 C   0  0  1  0  0  0  0  0  0  0  0  0
   -2.5553  -20.1853   17.8423 C   0  0  0  0  0  0  0  0  0  0  0  0
   -1.6926  -19.6135   16.3557 S   0  0  0  0  0  0  0  0  0  0  0  0
   -0.4683  -21.3636   18.5183 C   0  0  0  0  0  0  0  0  0  0  0  0
    0.0097  -20.6068   19.4123 O   0  0  0  0  0  0  0  0  0  0  0  0
    2.0552  -24.0871   19.1238 C   0  0  0  0  0  0  0  0  0  0  0  0
    2.5005  -23.3158   17.8991 C   0  0  1  0  0  0  0  0  0  0  0  0
    1.9550  -23.9626   16.7751 O   0  0  0  0  0  0  0  0  0  0  0  0
    1.9142  -21.9132   17.9162 C   0  0  2  0  0  0  0  0  0  0  0  0
    0.4717  -22.0735   17.7292 N   0  0  0  0  0  0  0  0  0  0  0  0
    2.5024  -21.0426   16.8873 C   0  0  0  0  0  0  0  0  0  0  0  0
    3.7869  -20.5334   16.9900 O   0  0  0  0  0  0  0  0  0  0  0  0
    1.8407  -20.7306   15.8648 O   0  0  0  0  0  0  0  0  0  0  0  0
  2  1  1  1
  2  4  1  0
  2  3  1  0
  4  5  1  6
  6  8  1  0
  6  4  1  0
  7  6  2  0
  9 12  1  0
  9  8  1  0
  9 10  1  1
 11 10  1  0
 12 18  1  0
 13 12  2  0
 15 14  1  1
 16 15  1  0
 17 19  1  0
 17 15  1  0
 17 18  1  6
 19 20  1  0
 21 19  2  0
M  END
$$$$
