TCT.pdb
     RDKit          3D

 21 20  0  0  1  0  0  0  0  0999 V2000
    7.6096  -19.0431   18.0857 C   0  0  0  0  0  0  0  0  0  0  0  0
    8.5861  -18.7094   17.0031 C   0  0  1  0  0  0  0  0  0  0  0  0
    8.2633  -19.4213   15.8676 O   0  0  0  0  0  0  0  0  0  0  0  0
    8.6809  -17.2221   16.7465 C   0  0  2  0  0  0  0  0  0  0  0  0
    9.6943  -17.0214   15.7231 N   0  0  0  0  0  0  0  0  0  0  0  0
    9.1318  -16.5044   17.9673 C   0  0  0  0  0  0  0  0  0  0  0  0
   10.2972  -16.6325   18.4239 O   0  0  0  0  0  0  0  0  0  0  0  0
    8.2707  -15.6232   18.6999 N   0  0  0  0  0  0  0  0  0  0  0  0
    8.7253  -14.9494   19.8993 C   0  0  1  0  0  0  0  0  0  0  0  0
    7.7030  -13.9003   20.2480 C   0  0  0  0  0  0  0  0  0  0  0  0
    7.6179  -12.6372   18.9524 S   0  0  0  0  0  0  0  0  0  0  0  0
    8.9781  -15.9073   20.9876 C   0  0  0  0  0  0  0  0  0  0  0  0
    8.0762  -16.7402   21.2929 O   0  0  0  0  0  0  0  0  0  0  0  0
   12.8308  -16.4601   22.6136 C   0  0  0  0  0  0  0  0  0  0  0  0
   11.8076  -17.5649   22.4537 C   0  0  1  0  0  0  0  0  0  0  0  0
   12.0700  -18.5262   23.4469 O   0  0  0  0  0  0  0  0  0  0  0  0
   10.4095  -17.0336   22.7264 C   0  0  2  0  0  0  0  0  0  0  0  0
   10.1771  -15.9768   21.7412 N   0  0  0  0  0  0  0  0  0  0  0  0
   10.2519  -16.5387   24.1021 C   0  0  0  0  0  0  0  0  0  0  0  0
   10.1705  -17.3886   25.1933 O   0  0  0  0  0  0  0  0  0  0  0  0
   10.1853  -15.3039   24.3295 O   0  0  0  0  0  0  0  0  0  0  0  0
  2  1  1  1
  2  4  1  0
  2  3  1  0
  4  5  1  6
  6  8  1  0
  6  4  1  0
  7  6  2  0
  9 12  1  0
  9  8  1  0
  9 10  1  1
 11 10  1  0
 12 18  1  0
 13 12  2  0
 15 14  1  1
 16 15  1  0
 17 19  1  0
 17 15  1  0
 17 18  1  6
 19 20  1  0
 21 19  2  0
M  END
$$$$
