TCT.pdb
     RDKit          3D

 21 20  0  0  1  0  0  0  0  0999 V2000
    6.9330  -15.8952   18.0092 C   0  0  0  0  0  0  0  0  0  0  0  0
    8.1166  -14.9986   18.1885 C   0  0  1  0  0  0  0  0  0  0  0  0
    8.6695  -14.7273   16.9551 O   0  0  0  0  0  0  0  0  0  0  0  0
    7.7806  -13.7428   18.9610 C   0  0  2  0  0  0  0  0  0  0  0  0
    8.3930  -12.6249   18.2611 N   0  0  0  0  0  0  0  0  0  0  0  0
    8.3681  -13.7902   20.3254 C   0  0  0  0  0  0  0  0  0  0  0  0
    9.5599  -13.4555   20.5501 O   0  0  0  0  0  0  0  0  0  0  0  0
    7.6170  -14.2189   21.4685 N   0  0  0  0  0  0  0  0  0  0  0  0
    8.2390  -14.3626   22.7690 C   0  0  1  0  0  0  0  0  0  0  0  0
    7.2180  -13.9799   23.8075 C   0  0  0  0  0  0  0  0  0  0  0  0
    7.7968  -14.4247   25.4653 S   0  0  0  0  0  0  0  0  0  0  0  0
    8.7853  -15.7165   22.9539 C   0  0  0  0  0  0  0  0  0  0  0  0
    8.0264  -16.7132   22.7774 O   0  0  0  0  0  0  0  0  0  0  0  0
   10.8469  -17.6750   21.1548 C   0  0  0  0  0  0  0  0  0  0  0  0
   11.5378  -17.7409   22.5006 C   0  0  1  0  0  0  0  0  0  0  0  0
   12.5441  -16.7578   22.5038 O   0  0  0  0  0  0  0  0  0  0  0  0
   10.5681  -17.3691   23.6109 C   0  0  2  0  0  0  0  0  0  0  0  0
   10.1238  -16.0050   23.3224 N   0  0  0  0  0  0  0  0  0  0  0  0
   11.1732  -17.4726   24.9472 C   0  0  0  0  0  0  0  0  0  0  0  0
   11.5652  -18.6838   25.4940 O   0  0  0  0  0  0  0  0  0  0  0  0
   11.3546  -16.4420   25.6442 O   0  0  0  0  0  0  0  0  0  0  0  0
  2  1  1  6
  2  4  1  0
  2  3  1  0
  4  5  1  6
  6  8  1  0
  6  4  1  0
  7  6  2  0
  9 12  1  0
  9  8  1  0
  9 10  1  1
 11 10  1  0
 12 18  1  0
 13 12  2  0
 15 14  1  6
 16 15  1  0
 17 19  1  0
 17 15  1  0
 17 18  1  6
 19 20  1  0
 21 19  2  0
M  END
$$$$
