TCT.pdb
     RDKit          3D

 21 20  0  0  1  0  0  0  0  0999 V2000
    6.3392  -14.4793   19.2560 C   0  0  0  0  0  0  0  0  0  0  0  0
    6.9024  -14.5253   20.6409 C   0  0  1  0  0  0  0  0  0  0  0  0
    7.8833  -15.4922   20.6984 O   0  0  0  0  0  0  0  0  0  0  0  0
    7.3926  -13.1746   21.1122 C   0  0  2  0  0  0  0  0  0  0  0  0
    8.4719  -12.7703   20.2256 N   0  0  0  0  0  0  0  0  0  0  0  0
    7.9546  -13.2676   22.4850 C   0  0  0  0  0  0  0  0  0  0  0  0
    9.1795  -13.4670   22.6919 O   0  0  0  0  0  0  0  0  0  0  0  0
    7.1397  -13.1365   23.6569 N   0  0  0  0  0  0  0  0  0  0  0  0
    7.6863  -13.3436   24.9826 C   0  0  1  0  0  0  0  0  0  0  0  0
    6.8138  -12.5977   25.9571 C   0  0  0  0  0  0  0  0  0  0  0  0
    7.3904  -12.8539   27.6550 S   0  0  0  0  0  0  0  0  0  0  0  0
    7.8166  -14.7770   25.2894 C   0  0  0  0  0  0  0  0  0  0  0  0
    6.7734  -15.4910   25.3369 O   0  0  0  0  0  0  0  0  0  0  0  0
    9.0662  -17.4837   23.5815 C   0  0  0  0  0  0  0  0  0  0  0  0
    9.8145  -17.6027   24.8926 C   0  0  1  0  0  0  0  0  0  0  0  0
   11.0610  -16.9729   24.7225 O   0  0  0  0  0  0  0  0  0  0  0  0
    9.0892  -16.8352   25.9863 C   0  0  2  0  0  0  0  0  0  0  0  0
    9.0434  -15.4414   25.5425 N   0  0  0  0  0  0  0  0  0  0  0  0
    9.7425  -16.9672   27.2971 C   0  0  0  0  0  0  0  0  0  0  0  0
   10.3556  -15.8999   27.9331 O   0  0  0  0  0  0  0  0  0  0  0  0
    9.7622  -18.0767   27.8884 O   0  0  0  0  0  0  0  0  0  0  0  0
  2  1  1  6
  2  4  1  0
  2  3  1  0
  4  5  1  6
  6  8  1  0
  6  4  1  0
  7  6  2  0
  9 12  1  0
  9  8  1  0
  9 10  1  1
 11 10  1  0
 12 18  1  0
 13 12  2  0
 15 14  1  6
 16 15  1  0
 17 19  1  0
 17 15  1  0
 17 18  1  6
 19 20  1  0
 21 19  2  0
M  END
$$$$
