TCT.pdb
     RDKit          3D

 21 20  0  0  1  0  0  0  0  0999 V2000
    6.6873  -16.2990   19.8113 C   0  0  0  0  0  0  0  0  0  0  0  0
    7.1657  -16.0034   21.1973 C   0  0  1  0  0  0  0  0  0  0  0  0
    8.0511  -16.9848   21.5890 O   0  0  0  0  0  0  0  0  0  0  0  0
    7.7481  -14.6137   21.3253 C   0  0  2  0  0  0  0  0  0  0  0  0
    8.9353  -14.5612   20.4873 N   0  0  0  0  0  0  0  0  0  0  0  0
    8.1772  -14.3489   22.7234 C   0  0  0  0  0  0  0  0  0  0  0  0
    9.3260  -14.6522   23.1371 O   0  0  0  0  0  0  0  0  0  0  0  0
    7.3124  -13.7330   23.6865 N   0  0  0  0  0  0  0  0  0  0  0  0
    7.7019  -13.6036   25.0760 C   0  0  1  0  0  0  0  0  0  0  0  0
    6.6930  -12.7129   25.7512 C   0  0  0  0  0  0  0  0  0  0  0  0
    7.0250  -12.6063   27.5288 S   0  0  0  0  0  0  0  0  0  0  0  0
    7.8437  -14.9210   25.7165 C   0  0  0  0  0  0  0  0  0  0  0  0
    6.9235  -15.7765   25.5690 O   0  0  0  0  0  0  0  0  0  0  0  0
   10.8031  -17.0066   25.0238 C   0  0  0  0  0  0  0  0  0  0  0  0
    9.4738  -17.4614   25.5888 C   0  0  1  0  0  0  0  0  0  0  0  0
    9.6063  -18.8197   25.9306 O   0  0  0  0  0  0  0  0  0  0  0  0
    9.1672  -16.7198   26.8801 C   0  0  2  0  0  0  0  0  0  0  0  0
    8.9522  -15.3218   26.5045 N   0  0  0  0  0  0  0  0  0  0  0  0
   10.2389  -16.8561   27.8778 C   0  0  0  0  0  0  0  0  0  0  0  0
   10.9166  -15.7639   28.3948 O   0  0  0  0  0  0  0  0  0  0  0  0
   10.5758  -17.9925   28.2972 O   0  0  0  0  0  0  0  0  0  0  0  0
  2  1  1  6
  2  4  1  0
  2  3  1  0
  4  5  1  6
  6  8  1  0
  6  4  1  0
  7  6  2  0
  9 12  1  0
  9  8  1  0
  9 10  1  1
 11 10  1  0
 12 18  1  0
 13 12  2  0
 15 14  1  1
 16 15  1  0
 17 19  1  0
 17 15  1  0
 17 18  1  6
 19 20  1  0
 21 19  2  0
M  END
$$$$
