TCT.pdb
     RDKit          3D

 21 20  0  0  1  0  0  0  0  0999 V2000
    7.2583  -18.4394   20.5419 C   0  0  0  0  0  0  0  0  0  0  0  0
    8.3046  -17.9486   19.5925 C   0  0  1  0  0  0  0  0  0  0  0  0
    8.0066  -18.3927   18.3220 O   0  0  0  0  0  0  0  0  0  0  0  0
    8.4849  -16.4484   19.6539 C   0  0  2  0  0  0  0  0  0  0  0  0
    9.5522  -16.1007   18.7295 N   0  0  0  0  0  0  0  0  0  0  0  0
    8.9155  -16.0244   21.0118 C   0  0  0  0  0  0  0  0  0  0  0  0
   10.0823  -16.2293   21.4355 O   0  0  0  0  0  0  0  0  0  0  0  0
    8.0319  -15.3573   21.9222 N   0  0  0  0  0  0  0  0  0  0  0  0
    8.4457  -15.0304   23.2716 C   0  0  1  0  0  0  0  0  0  0  0  0
    7.4361  -14.0670   23.8373 C   0  0  0  0  0  0  0  0  0  0  0  0
    7.7171  -13.8159   25.6091 S   0  0  0  0  0  0  0  0  0  0  0  0
    8.6199  -16.2436   24.0862 C   0  0  0  0  0  0  0  0  0  0  0  0
    7.6105  -16.9638   24.3369 O   0  0  0  0  0  0  0  0  0  0  0  0
   10.7441  -19.1087   23.4685 C   0  0  0  0  0  0  0  0  0  0  0  0
   11.0639  -18.7218   24.8972 C   0  0  1  0  0  0  0  0  0  0  0  0
   12.2092  -17.9055   24.8641 O   0  0  0  0  0  0  0  0  0  0  0  0
    9.9449  -17.8717   25.4773 C   0  0  2  0  0  0  0  0  0  0  0  0
    9.8544  -16.6841   24.6270 N   0  0  0  0  0  0  0  0  0  0  0  0
   10.1776  -17.5160   26.8850 C   0  0  0  0  0  0  0  0  0  0  0  0
   10.1217  -18.4500   27.9068 O   0  0  0  0  0  0  0  0  0  0  0  0
   10.4393  -16.3287   27.2056 O   0  0  0  0  0  0  0  0  0  0  0  0
  2  1  1  1
  2  4  1  0
  2  3  1  0
  4  5  1  6
  6  8  1  0
  6  4  1  0
  7  6  2  0
  9 12  1  0
  9  8  1  0
  9 10  1  1
 11 10  1  0
 12 18  1  0
 13 12  2  0
 15 14  1  6
 16 15  1  0
 17 19  1  0
 17 15  1  0
 17 18  1  6
 19 20  1  0
 21 19  2  0
M  END
$$$$
