TCT.pdb
     RDKit          3D

 21 20  0  0  1  0  0  0  0  0999 V2000
    6.4659  -14.2799   18.9670 C   0  0  0  0  0  0  0  0  0  0  0  0
    6.9958  -14.4131   20.3593 C   0  0  1  0  0  0  0  0  0  0  0  0
    7.9974  -15.3602   20.3733 O   0  0  0  0  0  0  0  0  0  0  0  0
    7.4426  -13.0895   20.9384 C   0  0  2  0  0  0  0  0  0  0  0  0
    8.5132  -12.5847   20.0936 N   0  0  0  0  0  0  0  0  0  0  0  0
    8.0009  -13.2731   22.3035 C   0  0  0  0  0  0  0  0  0  0  0  0
    9.2186  -13.5233   22.4978 O   0  0  0  0  0  0  0  0  0  0  0  0
    7.1905  -13.1772   23.4819 N   0  0  0  0  0  0  0  0  0  0  0  0
    7.7442  -13.4152   24.7994 C   0  0  1  0  0  0  0  0  0  0  0  0
    6.8784  -12.6903   25.7956 C   0  0  0  0  0  0  0  0  0  0  0  0
    7.4263  -13.0357   27.4873 S   0  0  0  0  0  0  0  0  0  0  0  0
    7.8738  -14.8554   25.0729 C   0  0  0  0  0  0  0  0  0  0  0  0
    6.8433  -15.5866   25.0092 O   0  0  0  0  0  0  0  0  0  0  0  0
    9.0037  -17.5105   23.3905 C   0  0  0  0  0  0  0  0  0  0  0  0
    9.8019  -17.6595   24.6686 C   0  0  1  0  0  0  0  0  0  0  0  0
   11.0416  -17.0264   24.4649 O   0  0  0  0  0  0  0  0  0  0  0  0
    9.1202  -16.9168   25.8066 C   0  0  2  0  0  0  0  0  0  0  0  0
    9.0863  -15.5086   25.4100 N   0  0  0  0  0  0  0  0  0  0  0  0
    9.8068  -17.1027   27.0937 C   0  0  0  0  0  0  0  0  0  0  0  0
   10.4364  -16.0623   27.7576 O   0  0  0  0  0  0  0  0  0  0  0  0
    9.8413  -18.2358   27.6376 O   0  0  0  0  0  0  0  0  0  0  0  0
  2  1  1  6
  2  4  1  0
  2  3  1  0
  4  5  1  6
  6  8  1  0
  6  4  1  0
  7  6  2  0
  9 12  1  0
  9  8  1  0
  9 10  1  1
 11 10  1  0
 12 18  1  0
 13 12  2  0
 15 14  1  6
 16 15  1  0
 17 19  1  0
 17 15  1  0
 17 18  1  6
 19 20  1  0
 21 19  2  0
M  END
$$$$
