TCT.pdb
     RDKit          3D

 21 20  0  0  1  0  0  0  0  0999 V2000
    6.0459  -18.3583   18.6098 C   0  0  0  0  0  0  0  0  0  0  0  0
    6.9473  -17.8778   19.7024 C   0  0  1  0  0  0  0  0  0  0  0  0
    7.9349  -18.8149   19.9188 O   0  0  0  0  0  0  0  0  0  0  0  0
    7.5068  -16.5000   19.4280 C   0  0  2  0  0  0  0  0  0  0  0  0
    8.2956  -16.5859   18.2094 N   0  0  0  0  0  0  0  0  0  0  0  0
    8.4198  -16.0747   20.5210 C   0  0  0  0  0  0  0  0  0  0  0  0
    9.6695  -16.1872   20.4275 O   0  0  0  0  0  0  0  0  0  0  0  0
    7.9366  -15.5112   21.7472 N   0  0  0  0  0  0  0  0  0  0  0  0
    8.8373  -15.1863   22.8344 C   0  0  1  0  0  0  0  0  0  0  0  0
    8.1588  -14.1542   23.6956 C   0  0  0  0  0  0  0  0  0  0  0  0
    6.7424  -14.8781   24.5624 S   0  0  0  0  0  0  0  0  0  0  0  0
    9.2415  -16.3934   23.5730 C   0  0  0  0  0  0  0  0  0  0  0  0
    8.4159  -17.3447   23.6913 O   0  0  0  0  0  0  0  0  0  0  0  0
   11.4878  -18.7381   22.6215 C   0  0  0  0  0  0  0  0  0  0  0  0
   11.9711  -18.4633   24.0300 C   0  0  1  0  0  0  0  0  0  0  0  0
   12.9966  -17.5042   23.9417 O   0  0  0  0  0  0  0  0  0  0  0  0
   10.8611  -17.8329   24.8558 C   0  0  2  0  0  0  0  0  0  0  0  0
   10.5094  -16.5845   24.1781 N   0  0  0  0  0  0  0  0  0  0  0  0
   11.2587  -17.6001   26.2523 C   0  0  0  0  0  0  0  0  0  0  0  0
   11.4370  -18.6343   27.1568 O   0  0  0  0  0  0  0  0  0  0  0  0
   11.4517  -16.4305   26.6715 O   0  0  0  0  0  0  0  0  0  0  0  0
  2  1  1  6
  2  4  1  0
  2  3  1  0
  4  5  1  6
  6  8  1  0
  6  4  1  0
  7  6  2  0
  9 12  1  0
  9  8  1  0
  9 10  1  1
 11 10  1  0
 12 18  1  0
 13 12  2  0
 15 14  1  6
 16 15  1  0
 17 19  1  0
 17 15  1  0
 17 18  1  6
 19 20  1  0
 21 19  2  0
M  END
$$$$
