TCT.pdb
     RDKit          3D

 21 20  0  0  1  0  0  0  0  0999 V2000
    6.3713  -14.5976   19.0449 C   0  0  0  0  0  0  0  0  0  0  0  0
    6.9696  -14.5627   20.4153 C   0  0  1  0  0  0  0  0  0  0  0  0
    7.9849  -15.4923   20.4893 O   0  0  0  0  0  0  0  0  0  0  0  0
    7.4238  -13.1766   20.8142 C   0  0  2  0  0  0  0  0  0  0  0  0
    8.4617  -12.7733   19.8791 N   0  0  0  0  0  0  0  0  0  0  0  0
    8.0280  -13.1904   22.1721 C   0  0  0  0  0  0  0  0  0  0  0  0
    9.2703  -13.2830   22.3481 O   0  0  0  0  0  0  0  0  0  0  0  0
    7.2365  -13.0993   23.3637 N   0  0  0  0  0  0  0  0  0  0  0  0
    7.8113  -13.3425   24.6712 C   0  0  1  0  0  0  0  0  0  0  0  0
    6.9639  -12.6185   25.6836 C   0  0  0  0  0  0  0  0  0  0  0  0
    7.5692  -12.9305   27.3621 S   0  0  0  0  0  0  0  0  0  0  0  0
    7.9419  -14.7839   24.9382 C   0  0  0  0  0  0  0  0  0  0  0  0
    6.9381  -15.5333   24.7619 O   0  0  0  0  0  0  0  0  0  0  0  0
   11.2764  -16.9377   24.3180 C   0  0  0  0  0  0  0  0  0  0  0  0
    9.8723  -17.4864   24.4611 C   0  0  1  0  0  0  0  0  0  0  0  0
    9.9857  -18.8600   24.7433 O   0  0  0  0  0  0  0  0  0  0  0  0
    9.1784  -16.8561   25.6580 C   0  0  2  0  0  0  0  0  0  0  0  0
    9.1273  -15.4188   25.3876 N   0  0  0  0  0  0  0  0  0  0  0  0
    9.8641  -17.1468   26.9260 C   0  0  0  0  0  0  0  0  0  0  0  0
   10.3643  -16.1487   27.7465 O   0  0  0  0  0  0  0  0  0  0  0  0
   10.0178  -18.3350   27.3074 O   0  0  0  0  0  0  0  0  0  0  0  0
  2  1  1  6
  2  4  1  0
  2  3  1  0
  4  5  1  6
  6  8  1  0
  6  4  1  0
  7  6  2  0
  9 12  1  0
  9  8  1  0
  9 10  1  1
 11 10  1  0
 12 18  1  0
 13 12  2  0
 15 14  1  1
 16 15  1  0
 17 19  1  0
 17 15  1  0
 17 18  1  6
 19 20  1  0
 21 19  2  0
M  END
$$$$
