TCT.pdb
     RDKit          3D

 21 20  0  0  1  0  0  0  0  0999 V2000
    6.4729  -14.6434   18.9630 C   0  0  0  0  0  0  0  0  0  0  0  0
    7.1146  -14.6429   20.3140 C   0  0  1  0  0  0  0  0  0  0  0  0
    8.2341  -15.4468   20.2833 O   0  0  0  0  0  0  0  0  0  0  0  0
    7.4176  -13.2473   20.8111 C   0  0  2  0  0  0  0  0  0  0  0  0
    8.3831  -12.6600   19.8960 N   0  0  0  0  0  0  0  0  0  0  0  0
    8.0484  -13.2922   22.1561 C   0  0  0  0  0  0  0  0  0  0  0  0
    9.2974  -13.2840   22.3074 O   0  0  0  0  0  0  0  0  0  0  0  0
    7.2766  -13.3477   23.3627 N   0  0  0  0  0  0  0  0  0  0  0  0
    7.9080  -13.5282   24.6542 C   0  0  1  0  0  0  0  0  0  0  0  0
    7.1006  -12.7611   25.6676 C   0  0  0  0  0  0  0  0  0  0  0  0
    7.8063  -12.9554   27.3246 S   0  0  0  0  0  0  0  0  0  0  0  0
    8.0577  -14.9552   24.9814 C   0  0  0  0  0  0  0  0  0  0  0  0
    7.0364  -15.7012   24.9525 O   0  0  0  0  0  0  0  0  0  0  0  0
    9.6448  -17.5514   23.3053 C   0  0  0  0  0  0  0  0  0  0  0  0
   10.2471  -17.6625   24.6902 C   0  0  1  0  0  0  0  0  0  0  0  0
   11.4517  -16.9358   24.6830 O   0  0  0  0  0  0  0  0  0  0  0  0
    9.3451  -16.9918   25.7138 C   0  0  2  0  0  0  0  0  0  0  0  0
    9.2805  -15.5797   25.3352 N   0  0  0  0  0  0  0  0  0  0  0  0
    9.8291  -17.1636   27.0917 C   0  0  0  0  0  0  0  0  0  0  0  0
    9.8638  -18.3986   27.7189 O   0  0  0  0  0  0  0  0  0  0  0  0
   10.2330  -16.1725   27.7516 O   0  0  0  0  0  0  0  0  0  0  0  0
  2  1  1  6
  2  4  1  0
  2  3  1  0
  4  5  1  6
  6  8  1  0
  6  4  1  0
  7  6  2  0
  9 12  1  0
  9  8  1  0
  9 10  1  1
 11 10  1  0
 12 18  1  0
 13 12  2  0
 15 14  1  6
 16 15  1  0
 17 19  1  0
 17 15  1  0
 17 18  1  6
 19 20  1  0
 21 19  2  0
M  END
$$$$
