DGF.pdb
     RDKit          3D

 24 24  0  0  1  0  0  0  0  0999 V2000
   15.6544  -11.1553  -11.0655 N   0  0  0  0  0  0  0  0  0  0  0  0
   14.9606  -10.1026  -11.8624 C   0  0  1  0  0  0  0  0  0  0  0  0
   13.5238  -10.5514  -11.9986 C   0  0  0  0  0  0  0  0  0  0  0  0
   13.3906  -11.7138  -12.8669 C   0  0  0  0  0  0  0  0  0  0  0  0
   14.3149  -12.0998  -13.6000 O   0  0  0  0  0  0  0  0  0  0  0  0
   15.0703   -8.8593  -11.0585 C   0  0  0  0  0  0  0  0  0  0  0  0
   14.5735   -7.7810  -11.5504 O   0  0  0  0  0  0  0  0  0  0  0  0
   12.2119  -12.4750  -12.9347 O   0  0  0  0  0  0  0  0  0  0  0  0
   15.6803   -8.8258   -9.8062 N   0  0  0  0  0  0  0  0  0  0  0  0
   15.7003   -7.5990   -9.0074 C   0  0  0  0  0  0  0  0  0  0  0  0
   16.9259   -6.8507   -9.3773 C   0  0  0  0  0  0  0  0  0  0  0  0
   17.2878   -5.8389   -8.7657 O   0  0  0  0  0  0  0  0  0  0  0  0
   17.6975   -7.3139  -10.4615 N   0  0  0  0  0  0  0  0  0  0  0  0
   18.7878   -6.5730  -11.0687 C   0  0  1  0  0  0  0  0  0  0  0  0
   19.7872   -7.5967  -11.5350 C   0  0  0  0  0  0  0  0  0  0  0  0
   20.7612   -7.1284  -12.5107 C   0  0  0  0  0  0  0  0  0  0  0  0
   21.1576   -8.0283  -13.5072 C   0  0  0  0  0  0  0  0  0  0  0  0
   22.0718   -7.6753  -14.4731 C   0  0  0  0  0  0  0  0  0  0  0  0
   22.5975   -6.4032  -14.4421 C   0  0  0  0  0  0  0  0  0  0  0  0
   22.2111   -5.5050  -13.4594 C   0  0  0  0  0  0  0  0  0  0  0  0
   21.3044   -5.8498  -12.4984 C   0  0  0  0  0  0  0  0  0  0  0  0
   18.2026   -5.7733  -12.1746 C   0  0  0  0  0  0  0  0  0  0  0  0
   17.2663   -6.2021  -12.8981 O   0  0  0  0  0  0  0  0  0  0  0  0
   18.6595   -4.4846  -12.4820 O   0  0  0  0  0  0  0  0  0  0  0  0
  2  1  1  1
  2  3  1  0
  3  4  1  0
  4  8  1  0
  5  4  2  0
  6  7  2  0
  6  2  1  0
  9  6  1  0
 10 11  1  0
 10  9  1  0
 11 13  1  0
 12 11  2  0
 13 14  1  0
 14 15  1  6
 14 22  1  0
 15 16  1  0
 16 21  2  0
 17 16  1  0
 17 18  2  0
 18 19  1  0
 19 20  2  0
 21 20  1  0
 22 23  2  0
 22 24  1  0
M  END
$$$$
