DGF.pdb
     RDKit          3D

 24 24  0  0  1  0  0  0  0  0999 V2000
   18.7987  -12.1553  -16.7746 N   0  0  0  0  0  0  0  0  0  0  0  0
   20.2718  -11.9319  -16.7058 C   0  0  1  0  0  0  0  0  0  0  0  0
   20.8603  -12.6045  -17.9246 C   0  0  0  0  0  0  0  0  0  0  0  0
   21.2736  -13.9747  -17.6511 C   0  0  0  0  0  0  0  0  0  0  0  0
   20.5783  -14.7522  -16.9782 O   0  0  0  0  0  0  0  0  0  0  0  0
   20.4527  -10.4591  -16.7541 C   0  0  0  0  0  0  0  0  0  0  0  0
   21.6394   -9.9946  -16.5885 O   0  0  0  0  0  0  0  0  0  0  0  0
   22.4825  -14.5085  -18.1276 O   0  0  0  0  0  0  0  0  0  0  0  0
   19.3951   -9.5793  -16.9747 N   0  0  0  0  0  0  0  0  0  0  0  0
   19.6289   -8.1445  -17.1489 C   0  0  0  0  0  0  0  0  0  0  0  0
   19.8624   -7.5682  -15.8027 C   0  0  0  0  0  0  0  0  0  0  0  0
   19.0850   -7.7621  -14.8610 O   0  0  0  0  0  0  0  0  0  0  0  0
   21.0093   -6.7755  -15.5981 N   0  0  0  0  0  0  0  0  0  0  0  0
   21.3692   -6.1643  -14.3319 C   0  0  1  0  0  0  0  0  0  0  0  0
   22.0785   -7.2261  -13.5358 C   0  0  0  0  0  0  0  0  0  0  0  0
   23.2245   -7.8436  -14.1880 C   0  0  0  0  0  0  0  0  0  0  0  0
   23.9826   -7.0427  -15.0504 C   0  0  0  0  0  0  0  0  0  0  0  0
   25.0838   -7.5381  -15.7102 C   0  0  0  0  0  0  0  0  0  0  0  0
   25.4322   -8.8541  -15.5045 C   0  0  0  0  0  0  0  0  0  0  0  0
   24.6876   -9.6550  -14.6523 C   0  0  0  0  0  0  0  0  0  0  0  0
   23.5939   -9.1688  -13.9951 C   0  0  0  0  0  0  0  0  0  0  0  0
   22.2252   -4.9924  -14.6466 C   0  0  0  0  0  0  0  0  0  0  0  0
   22.5511   -4.6888  -15.8237 O   0  0  0  0  0  0  0  0  0  0  0  0
   22.7251   -4.1477  -13.6464 O   0  0  0  0  0  0  0  0  0  0  0  0
  2  1  1  6
  2  3  1  0
  3  4  1  0
  4  8  1  0
  5  4  2  0
  6  7  2  0
  6  2  1  0
  9  6  1  0
 10 11  1  0
 10  9  1  0
 11 13  1  0
 12 11  2  0
 13 14  1  0
 14 15  1  1
 14 22  1  0
 15 16  1  0
 16 21  2  0
 17 16  1  0
 17 18  2  0
 18 19  1  0
 19 20  2  0
 21 20  1  0
 22 23  2  0
 22 24  1  0
M  END
$$$$
