DGF.pdb
     RDKit          3D

 24 24  0  0  1  0  0  0  0  0999 V2000
   24.6152  -19.6369  -12.9374 N   0  0  0  0  0  0  0  0  0  0  0  0
   25.4825  -20.2912  -13.9593 C   0  0  1  0  0  0  0  0  0  0  0  0
   25.5029  -19.3656  -15.1539 C   0  0  0  0  0  0  0  0  0  0  0  0
   24.1878  -19.2282  -15.7659 C   0  0  0  0  0  0  0  0  0  0  0  0
   23.2777  -20.0483  -15.5662 O   0  0  0  0  0  0  0  0  0  0  0  0
   26.8230  -20.4010  -13.3307 C   0  0  0  0  0  0  0  0  0  0  0  0
   27.8484  -20.1133  -14.0500 O   0  0  0  0  0  0  0  0  0  0  0  0
   23.8600  -18.1629  -16.6209 O   0  0  0  0  0  0  0  0  0  0  0  0
   27.0016  -20.7946  -12.0061 N   0  0  0  0  0  0  0  0  0  0  0  0
   28.3374  -20.8604  -11.4103 C   0  0  0  0  0  0  0  0  0  0  0  0
   28.1644  -21.1707   -9.9707 C   0  0  0  0  0  0  0  0  0  0  0  0
   29.0571  -21.7038   -9.3015 O   0  0  0  0  0  0  0  0  0  0  0  0
   26.9409  -20.8445   -9.3527 N   0  0  0  0  0  0  0  0  0  0  0  0
   26.7153  -20.8617   -7.9191 C   0  0  1  0  0  0  0  0  0  0  0  0
   27.3379  -19.6034   -7.3775 C   0  0  0  0  0  0  0  0  0  0  0  0
   28.2091  -19.7769   -6.2238 C   0  0  0  0  0  0  0  0  0  0  0  0
   27.8720  -19.0866   -5.0534 C   0  0  0  0  0  0  0  0  0  0  0  0
   28.6344  -19.1896   -3.9126 C   0  0  0  0  0  0  0  0  0  0  0  0
   29.7505  -19.9951   -3.9425 C   0  0  0  0  0  0  0  0  0  0  0  0
   30.0924  -20.6826   -5.0968 C   0  0  0  0  0  0  0  0  0  0  0  0
   29.3397  -20.5840   -6.2318 C   0  0  0  0  0  0  0  0  0  0  0  0
   25.2460  -20.9282   -7.7145 C   0  0  0  0  0  0  0  0  0  0  0  0
   24.4225  -20.6384   -8.6212 O   0  0  0  0  0  0  0  0  0  0  0  0
   24.6831  -21.3202   -6.4925 O   0  0  0  0  0  0  0  0  0  0  0  0
  2  1  1  1
  2  3  1  0
  3  4  1  0
  4  8  1  0
  5  4  2  0
  6  7  2  0
  6  2  1  0
  9  6  1  0
 10 11  1  0
 10  9  1  0
 11 13  1  0
 12 11  2  0
 13 14  1  0
 14 15  1  1
 14 22  1  0
 15 16  1  0
 16 21  2  0
 17 16  1  0
 17 18  2  0
 18 19  1  0
 19 20  2  0
 21 20  1  0
 22 23  2  0
 22 24  1  0
M  END
$$$$
