DGF.pdb
     RDKit          3D

 24 24  0  0  1  0  0  0  0  0999 V2000
   23.2149  -20.4546  -14.4235 N   0  0  0  0  0  0  0  0  0  0  0  0
   24.5748  -19.8980  -14.6800 C   0  0  1  0  0  0  0  0  0  0  0  0
   24.3671  -18.5835  -15.3963 C   0  0  0  0  0  0  0  0  0  0  0  0
   23.7921  -18.7646  -16.7227 C   0  0  0  0  0  0  0  0  0  0  0  0
   24.2221  -19.6149  -17.5183 O   0  0  0  0  0  0  0  0  0  0  0  0
   25.1818  -19.6996  -13.3398 C   0  0  0  0  0  0  0  0  0  0  0  0
   24.5196  -19.0159  -12.4765 O   0  0  0  0  0  0  0  0  0  0  0  0
   22.7161  -17.9927  -17.1915 O   0  0  0  0  0  0  0  0  0  0  0  0
   26.4240  -20.2266  -12.9923 N   0  0  0  0  0  0  0  0  0  0  0  0
   27.0621  -19.8829  -11.7201 C   0  0  0  0  0  0  0  0  0  0  0  0
   26.5320  -20.8133  -10.6943 C   0  0  0  0  0  0  0  0  0  0  0  0
   25.7704  -21.7439  -10.9819 O   0  0  0  0  0  0  0  0  0  0  0  0
   26.9133  -20.6244   -9.3510 N   0  0  0  0  0  0  0  0  0  0  0  0
   26.4640  -21.4514   -8.2463 C   0  0  1  0  0  0  0  0  0  0  0  0
   27.6850  -21.7558   -7.4213 C   0  0  0  0  0  0  0  0  0  0  0  0
   28.0608  -20.7371   -6.4512 C   0  0  0  0  0  0  0  0  0  0  0  0
   28.1726  -19.4199   -6.9120 C   0  0  0  0  0  0  0  0  0  0  0  0
   28.5210  -18.3899   -6.0687 C   0  0  0  0  0  0  0  0  0  0  0  0
   28.7612  -18.6815   -4.7448 C   0  0  0  0  0  0  0  0  0  0  0  0
   28.6530  -19.9828   -4.2792 C   0  0  0  0  0  0  0  0  0  0  0  0
   28.3077  -21.0088   -5.1114 C   0  0  0  0  0  0  0  0  0  0  0  0
   25.4361  -20.6700   -7.5128 C   0  0  0  0  0  0  0  0  0  0  0  0
   25.1539  -19.4792   -7.8065 O   0  0  0  0  0  0  0  0  0  0  0  0
   24.7130  -21.2140   -6.4426 O   0  0  0  0  0  0  0  0  0  0  0  0
  2  1  1  1
  2  3  1  0
  3  4  1  0
  4  8  1  0
  5  4  2  0
  6  7  2  0
  6  2  1  0
  9  6  1  0
 10 11  1  0
 10  9  1  0
 11 13  1  0
 12 11  2  0
 13 14  1  0
 14 15  1  1
 14 22  1  0
 15 16  1  0
 16 21  2  0
 17 16  1  0
 17 18  2  0
 18 19  1  0
 19 20  2  0
 21 20  1  0
 22 23  2  0
 22 24  1  0
M  END
$$$$
