DGF.pdb
     RDKit          3D

 24 24  0  0  1  0  0  0  0  0999 V2000
   23.1003  -20.3766  -13.4329 N   0  0  0  0  0  0  0  0  0  0  0  0
   23.8909  -21.1640  -14.4227 C   0  0  1  0  0  0  0  0  0  0  0  0
   23.9339  -20.3361  -15.6864 C   0  0  0  0  0  0  0  0  0  0  0  0
   22.6140  -20.1703  -16.2807 C   0  0  0  0  0  0  0  0  0  0  0  0
   21.9189  -21.1391  -16.6261 O   0  0  0  0  0  0  0  0  0  0  0  0
   25.2404  -21.3152  -13.8228 C   0  0  0  0  0  0  0  0  0  0  0  0
   26.0740  -22.0972  -14.4102 O   0  0  0  0  0  0  0  0  0  0  0  0
   22.0388  -18.9082  -16.5034 O   0  0  0  0  0  0  0  0  0  0  0  0
   25.6273  -20.6434  -12.6650 N   0  0  0  0  0  0  0  0  0  0  0  0
   26.9537  -20.8478  -12.0796 C   0  0  0  0  0  0  0  0  0  0  0  0
   26.7593  -21.1634  -10.6439 C   0  0  0  0  0  0  0  0  0  0  0  0
   25.8311  -21.8779  -10.2479 O   0  0  0  0  0  0  0  0  0  0  0  0
   27.6655  -20.6282   -9.7070 N   0  0  0  0  0  0  0  0  0  0  0  0
   27.5930  -20.8518   -8.2749 C   0  0  1  0  0  0  0  0  0  0  0  0
   28.8124  -20.1991   -7.6822 C   0  0  0  0  0  0  0  0  0  0  0  0
   28.8290  -20.0946   -6.2300 C   0  0  0  0  0  0  0  0  0  0  0  0
   28.5006  -18.8541   -5.6704 C   0  0  0  0  0  0  0  0  0  0  0  0
   28.4879  -18.6601   -4.3082 C   0  0  0  0  0  0  0  0  0  0  0  0
   28.8084  -19.7226   -3.4934 C   0  0  0  0  0  0  0  0  0  0  0  0
   29.1349  -20.9548   -4.0383 C   0  0  0  0  0  0  0  0  0  0  0  0
   29.1492  -21.1531   -5.3892 C   0  0  0  0  0  0  0  0  0  0  0  0
   26.3172  -20.2518   -7.8087 C   0  0  0  0  0  0  0  0  0  0  0  0
   25.8595  -19.1802   -8.2845 O   0  0  0  0  0  0  0  0  0  0  0  0
   25.5401  -20.8454   -6.8049 O   0  0  0  0  0  0  0  0  0  0  0  0
  2  1  1  1
  2  3  1  0
  3  4  1  0
  4  8  1  0
  5  4  2  0
  6  7  2  0
  6  2  1  0
  9  6  1  0
 10 11  1  0
 10  9  1  0
 11 13  1  0
 12 11  2  0
 13 14  1  0
 14 15  1  1
 14 22  1  0
 15 16  1  0
 16 21  2  0
 17 16  1  0
 17 18  2  0
 18 19  1  0
 19 20  2  0
 21 20  1  0
 22 23  2  0
 22 24  1  0
M  END
$$$$
