DGF.pdb
     RDKit          3D

 24 24  0  0  1  0  0  0  0  0999 V2000
   25.4931  -33.4784  -12.3831 N   0  0  0  0  0  0  0  0  0  0  0  0
   24.3436  -34.4287  -12.3614 C   0  0  1  0  0  0  0  0  0  0  0  0
   24.7229  -35.5742  -13.2715 C   0  0  0  0  0  0  0  0  0  0  0  0
   24.6876  -35.1946  -14.6777 C   0  0  0  0  0  0  0  0  0  0  0  0
   23.6859  -34.6773  -15.1970 O   0  0  0  0  0  0  0  0  0  0  0  0
   24.2206  -34.8708  -10.9495 C   0  0  0  0  0  0  0  0  0  0  0  0
   23.2609  -35.6725  -10.6533 O   0  0  0  0  0  0  0  0  0  0  0  0
   25.7799  -35.3870  -15.5398 O   0  0  0  0  0  0  0  0  0  0  0  0
   25.1009  -34.4550   -9.9527 N   0  0  0  0  0  0  0  0  0  0  0  0
   24.9646  -34.9335   -8.5758 C   0  0  0  0  0  0  0  0  0  0  0  0
   25.5753  -33.9126   -7.6906 C   0  0  0  0  0  0  0  0  0  0  0  0
   26.3015  -33.0127   -8.1286 O   0  0  0  0  0  0  0  0  0  0  0  0
   25.3150  -33.9766   -6.3073 N   0  0  0  0  0  0  0  0  0  0  0  0
   25.8533  -33.0514   -5.3272 C   0  0  1  0  0  0  0  0  0  0  0  0
   24.6825  -32.2704   -4.7945 C   0  0  0  0  0  0  0  0  0  0  0  0
   23.6271  -33.0596   -4.1754 C   0  0  0  0  0  0  0  0  0  0  0  0
   23.7518  -33.3423   -2.8100 C   0  0  0  0  0  0  0  0  0  0  0  0
   22.8037  -34.0796   -2.1385 C   0  0  0  0  0  0  0  0  0  0  0  0
   21.7146  -34.5411   -2.8430 C   0  0  0  0  0  0  0  0  0  0  0  0
   21.5824  -34.2663   -4.1953 C   0  0  0  0  0  0  0  0  0  0  0  0
   22.5200  -33.5352   -4.8668 C   0  0  0  0  0  0  0  0  0  0  0  0
   26.5372  -33.8684   -4.2929 C   0  0  0  0  0  0  0  0  0  0  0  0
   27.2580  -33.3593   -3.3955 O   0  0  0  0  0  0  0  0  0  0  0  0
   26.4209  -35.2644   -4.2522 O   0  0  0  0  0  0  0  0  0  0  0  0
  2  1  1  1
  2  3  1  0
  3  4  1  0
  4  8  1  0
  5  4  2  0
  6  7  2  0
  6  2  1  0
  9  6  1  0
 10 11  1  0
 10  9  1  0
 11 13  1  0
 12 11  2  0
 13 14  1  0
 14 15  1  1
 14 22  1  0
 15 16  1  0
 16 21  2  0
 17 16  1  0
 17 18  2  0
 18 19  1  0
 19 20  2  0
 21 20  1  0
 22 23  2  0
 22 24  1  0
M  END
$$$$
