DGF.pdb
     RDKit          3D

 24 24  0  0  1  0  0  0  0  0999 V2000
   27.6514  -19.5199  -17.3957 N   0  0  0  0  0  0  0  0  0  0  0  0
   27.4480  -18.0560  -17.1942 C   0  0  1  0  0  0  0  0  0  0  0  0
   26.3277  -17.6513  -18.1243 C   0  0  0  0  0  0  0  0  0  0  0  0
   26.7724  -17.5447  -19.5077 C   0  0  0  0  0  0  0  0  0  0  0  0
   26.1227  -18.0267  -20.4491 O   0  0  0  0  0  0  0  0  0  0  0  0
   27.0581  -17.9017  -15.7700 C   0  0  0  0  0  0  0  0  0  0  0  0
   26.1240  -17.0643  -15.4911 O   0  0  0  0  0  0  0  0  0  0  0  0
   27.9623  -16.8920  -19.8705 O   0  0  0  0  0  0  0  0  0  0  0  0
   27.6591  -18.6276  -14.7437 N   0  0  0  0  0  0  0  0  0  0  0  0
   27.2961  -18.4001  -13.3437 C   0  0  0  0  0  0  0  0  0  0  0  0
   26.4103  -19.5150  -12.9301 C   0  0  0  0  0  0  0  0  0  0  0  0
   25.5640  -19.9988  -13.6907 O   0  0  0  0  0  0  0  0  0  0  0  0
   26.5435  -20.0344  -11.6270 N   0  0  0  0  0  0  0  0  0  0  0  0
   25.8368  -21.2016  -11.1326 C   0  0  1  0  0  0  0  0  0  0  0  0
   26.7100  -21.8049  -10.0659 C   0  0  0  0  0  0  0  0  0  0  0  0
   26.9845  -20.9517   -8.9185 C   0  0  0  0  0  0  0  0  0  0  0  0
   28.3220  -20.6253   -8.6647 C   0  0  0  0  0  0  0  0  0  0  0  0
   28.6783  -19.8240   -7.6043 C   0  0  0  0  0  0  0  0  0  0  0  0
   27.6821  -19.3419   -6.7855 C   0  0  0  0  0  0  0  0  0  0  0  0
   26.3548  -19.6596   -7.0287 C   0  0  0  0  0  0  0  0  0  0  0  0
   25.9954  -20.4543   -8.0793 C   0  0  0  0  0  0  0  0  0  0  0  0
   24.5249  -20.7278  -10.6231 C   0  0  0  0  0  0  0  0  0  0  0  0
   23.5906  -21.5159  -10.3232 O   0  0  0  0  0  0  0  0  0  0  0  0
   24.2455  -19.3664  -10.4435 O   0  0  0  0  0  0  0  0  0  0  0  0
  2  1  1  1
  2  3  1  0
  3  4  1  0
  4  8  1  0
  5  4  2  0
  6  7  2  0
  6  2  1  0
  9  6  1  0
 10 11  1  0
 10  9  1  0
 11 13  1  0
 12 11  2  0
 13 14  1  0
 14 15  1  1
 14 22  1  0
 15 16  1  0
 16 21  2  0
 17 16  1  0
 17 18  2  0
 18 19  1  0
 19 20  2  0
 21 20  1  0
 22 23  2  0
 22 24  1  0
M  END
$$$$
