DGF.pdb
     RDKit          3D

 24 24  0  0  1  0  0  0  0  0999 V2000
   23.0893  -21.1249  -13.3322 N   0  0  0  0  0  0  0  0  0  0  0  0
   24.0191  -21.4975  -14.4374 C   0  0  1  0  0  0  0  0  0  0  0  0
   23.8174  -20.4690  -15.5263 C   0  0  0  0  0  0  0  0  0  0  0  0
   22.4388  -20.4282  -15.9960 C   0  0  0  0  0  0  0  0  0  0  0  0
   21.8017  -21.4593  -16.2637 O   0  0  0  0  0  0  0  0  0  0  0  0
   25.3819  -21.4152  -13.8543 C   0  0  0  0  0  0  0  0  0  0  0  0
   26.3606  -21.8738  -14.5494 O   0  0  0  0  0  0  0  0  0  0  0  0
   21.7381  -19.2244  -16.1780 O   0  0  0  0  0  0  0  0  0  0  0  0
   25.6302  -20.8612  -12.6001 N   0  0  0  0  0  0  0  0  0  0  0  0
   26.9870  -20.8074  -12.0524 C   0  0  0  0  0  0  0  0  0  0  0  0
   26.9111  -21.2506  -10.6395 C   0  0  0  0  0  0  0  0  0  0  0  0
   26.3021  -22.2728  -10.3032 O   0  0  0  0  0  0  0  0  0  0  0  0
   27.5564  -20.4768   -9.6543 N   0  0  0  0  0  0  0  0  0  0  0  0
   27.5374  -20.7747   -8.2341 C   0  0  1  0  0  0  0  0  0  0  0  0
   28.6302  -19.9472   -7.6133 C   0  0  0  0  0  0  0  0  0  0  0  0
   28.6649  -19.9381   -6.1577 C   0  0  0  0  0  0  0  0  0  0  0  0
   29.3299  -20.9941   -5.5233 C   0  0  0  0  0  0  0  0  0  0  0  0
   29.4160  -21.0698   -4.1521 C   0  0  0  0  0  0  0  0  0  0  0  0
   28.8283  -20.0745   -3.4041 C   0  0  0  0  0  0  0  0  0  0  0  0
   28.1677  -19.0247   -4.0232 C   0  0  0  0  0  0  0  0  0  0  0  0
   28.0790  -18.9445   -5.3835 C   0  0  0  0  0  0  0  0  0  0  0  0
   26.1811  -20.4280   -7.7387 C   0  0  0  0  0  0  0  0  0  0  0  0
   25.5262  -19.4509   -8.1865 O   0  0  0  0  0  0  0  0  0  0  0  0
   25.5434  -21.1720   -6.7369 O   0  0  0  0  0  0  0  0  0  0  0  0
  2  1  1  1
  2  3  1  0
  3  4  1  0
  4  8  1  0
  5  4  2  0
  6  7  2  0
  6  2  1  0
  9  6  1  0
 10 11  1  0
 10  9  1  0
 11 13  1  0
 12 11  2  0
 13 14  1  0
 14 15  1  1
 14 22  1  0
 15 16  1  0
 16 21  2  0
 17 16  1  0
 17 18  2  0
 18 19  1  0
 19 20  2  0
 21 20  1  0
 22 23  2  0
 22 24  1  0
M  END
$$$$
