DGF.pdb
     RDKit          3D

 24 24  0  0  1  0  0  0  0  0999 V2000
   25.7379  -18.9341  -15.7832 N   0  0  0  0  0  0  0  0  0  0  0  0
   26.2446  -20.2804  -16.1775 C   0  0  1  0  0  0  0  0  0  0  0  0
   27.1229  -20.0652  -17.3886 C   0  0  0  0  0  0  0  0  0  0  0  0
   26.3931  -19.4653  -18.4978 C   0  0  0  0  0  0  0  0  0  0  0  0
   25.4891  -20.0693  -19.0969 O   0  0  0  0  0  0  0  0  0  0  0  0
   27.0285  -20.7660  -15.0140 C   0  0  0  0  0  0  0  0  0  0  0  0
   27.5325  -21.9462  -15.0806 O   0  0  0  0  0  0  0  0  0  0  0  0
   26.6607  -18.1677  -18.9644 O   0  0  0  0  0  0  0  0  0  0  0  0
   27.2358  -19.9937  -13.8729 N   0  0  0  0  0  0  0  0  0  0  0  0
   28.0029  -20.5117  -12.7384 C   0  0  0  0  0  0  0  0  0  0  0  0
   27.0358  -21.1131  -11.7888 C   0  0  0  0  0  0  0  0  0  0  0  0
   26.6725  -22.2915  -11.8790 O   0  0  0  0  0  0  0  0  0  0  0  0
   26.5190  -20.3096  -10.7531 N   0  0  0  0  0  0  0  0  0  0  0  0
   25.6387  -20.7893   -9.7036 C   0  0  1  0  0  0  0  0  0  0  0  0
   25.7736  -19.8190   -8.5615 C   0  0  0  0  0  0  0  0  0  0  0  0
   27.0482  -19.8459   -7.8582 C   0  0  0  0  0  0  0  0  0  0  0  0
   27.2991  -18.8182   -6.9413 C   0  0  0  0  0  0  0  0  0  0  0  0
   28.4748  -18.7609   -6.2287 C   0  0  0  0  0  0  0  0  0  0  0  0
   29.4138  -19.7463   -6.4361 C   0  0  0  0  0  0  0  0  0  0  0  0
   29.1744  -20.7681   -7.3419 C   0  0  0  0  0  0  0  0  0  0  0  0
   28.0096  -20.8299   -8.0518 C   0  0  0  0  0  0  0  0  0  0  0  0
   24.2700  -20.8382  -10.2777 C   0  0  0  0  0  0  0  0  0  0  0  0
   23.9795  -20.3073  -11.3812 O   0  0  0  0  0  0  0  0  0  0  0  0
   23.2122  -21.4824   -9.6222 O   0  0  0  0  0  0  0  0  0  0  0  0
  2  1  1  1
  2  3  1  0
  3  4  1  0
  4  8  1  0
  5  4  2  0
  6  7  2  0
  6  2  1  0
  9  6  1  0
 10 11  1  0
 10  9  1  0
 11 13  1  0
 12 11  2  0
 13 14  1  0
 14 15  1  1
 14 22  1  0
 15 16  1  0
 16 21  2  0
 17 16  1  0
 17 18  2  0
 18 19  1  0
 19 20  2  0
 21 20  1  0
 22 23  2  0
 22 24  1  0
M  END
$$$$
