DGF.pdb
     RDKit          3D

 24 24  0  0  1  0  0  0  0  0999 V2000
   27.2759  -21.4000  -14.7655 N   0  0  0  0  0  0  0  0  0  0  0  0
   26.6997  -20.0255  -14.8259 C   0  0  1  0  0  0  0  0  0  0  0  0
   25.7700  -20.0071  -16.0174 C   0  0  0  0  0  0  0  0  0  0  0  0
   26.4916  -20.1002  -17.2797 C   0  0  0  0  0  0  0  0  0  0  0  0
   26.7648  -21.1911  -17.8052 O   0  0  0  0  0  0  0  0  0  0  0  0
   25.9580  -19.8497  -13.5519 C   0  0  0  0  0  0  0  0  0  0  0  0
   25.3293  -18.7436  -13.3713 O   0  0  0  0  0  0  0  0  0  0  0  0
   26.9266  -18.9668  -17.9865 O   0  0  0  0  0  0  0  0  0  0  0  0
   25.9185  -20.8316  -12.5640 N   0  0  0  0  0  0  0  0  0  0  0  0
   25.1816  -20.6201  -11.3167 C   0  0  0  0  0  0  0  0  0  0  0  0
   26.1128  -20.9073  -10.1991 C   0  0  0  0  0  0  0  0  0  0  0  0
   27.2174  -21.4317  -10.3825 O   0  0  0  0  0  0  0  0  0  0  0  0
   25.7191  -20.5689   -8.8892 N   0  0  0  0  0  0  0  0  0  0  0  0
   26.5051  -20.8409   -7.6999 C   0  0  1  0  0  0  0  0  0  0  0  0
   27.0744  -19.5201   -7.2575 C   0  0  0  0  0  0  0  0  0  0  0  0
   27.8449  -19.5474   -6.0224 C   0  0  0  0  0  0  0  0  0  0  0  0
   28.5070  -18.3711   -5.6509 C   0  0  0  0  0  0  0  0  0  0  0  0
   29.2579  -18.3010   -4.5000 C   0  0  0  0  0  0  0  0  0  0  0  0
   29.3481  -19.4240   -3.7086 C   0  0  0  0  0  0  0  0  0  0  0  0
   28.6960  -20.5934   -4.0681 C   0  0  0  0  0  0  0  0  0  0  0  0
   27.9496  -20.6688   -5.2090 C   0  0  0  0  0  0  0  0  0  0  0  0
   25.5858  -21.4499   -6.7053 C   0  0  0  0  0  0  0  0  0  0  0  0
   25.9816  -22.2522   -5.8201 O   0  0  0  0  0  0  0  0  0  0  0  0
   24.2134  -21.1667   -6.6912 O   0  0  0  0  0  0  0  0  0  0  0  0
  2  1  1  1
  2  3  1  0
  3  4  1  0
  4  8  1  0
  5  4  2  0
  6  7  2  0
  6  2  1  0
  9  6  1  0
 10 11  1  0
 10  9  1  0
 11 13  1  0
 12 11  2  0
 13 14  1  0
 14 15  1  1
 14 22  1  0
 15 16  1  0
 16 21  2  0
 17 16  1  0
 17 18  2  0
 18 19  1  0
 19 20  2  0
 21 20  1  0
 22 23  2  0
 22 24  1  0
M  END
$$$$
