DGF.pdb
     RDKit          3D

 24 24  0  0  1  0  0  0  0  0999 V2000
   22.5738  -21.6933  -12.6256 N   0  0  0  0  0  0  0  0  0  0  0  0
   22.9988  -20.7328  -13.6846 C   0  0  1  0  0  0  0  0  0  0  0  0
   22.0970  -19.5274  -13.5509 C   0  0  0  0  0  0  0  0  0  0  0  0
   20.6902  -19.8986  -13.4742 C   0  0  0  0  0  0  0  0  0  0  0  0
   20.0916  -20.4189  -14.4292 O   0  0  0  0  0  0  0  0  0  0  0  0
   24.4105  -20.3960  -13.3718 C   0  0  0  0  0  0  0  0  0  0  0  0
   25.0412  -19.6334  -14.1916 O   0  0  0  0  0  0  0  0  0  0  0  0
   19.9168  -19.6943  -12.3195 O   0  0  0  0  0  0  0  0  0  0  0  0
   25.0610  -20.8685  -12.2338 N   0  0  0  0  0  0  0  0  0  0  0  0
   26.4822  -20.5985  -12.0083 C   0  0  0  0  0  0  0  0  0  0  0  0
   26.8249  -21.1268  -10.6658 C   0  0  0  0  0  0  0  0  0  0  0  0
   27.1055  -22.3165  -10.4798 O   0  0  0  0  0  0  0  0  0  0  0  0
   26.8288  -20.2382   -9.5722 N   0  0  0  0  0  0  0  0  0  0  0  0
   27.1494  -20.6168   -8.2084 C   0  0  1  0  0  0  0  0  0  0  0  0
   27.9729  -19.4932   -7.6396 C   0  0  0  0  0  0  0  0  0  0  0  0
   28.3702  -19.6447   -6.2470 C   0  0  0  0  0  0  0  0  0  0  0  0
   28.0304  -18.6119   -5.3650 C   0  0  0  0  0  0  0  0  0  0  0  0
   28.3622  -18.6670   -4.0308 C   0  0  0  0  0  0  0  0  0  0  0  0
   29.0440  -19.7715   -3.5716 C   0  0  0  0  0  0  0  0  0  0  0  0
   29.3848  -20.7992   -4.4373 C   0  0  0  0  0  0  0  0  0  0  0  0
   29.0583  -20.7499   -5.7623 C   0  0  0  0  0  0  0  0  0  0  0  0
   25.8588  -20.8185   -7.5021 C   0  0  0  0  0  0  0  0  0  0  0  0
   24.7888  -20.2730   -7.8784 O   0  0  0  0  0  0  0  0  0  0  0  0
   25.7525  -21.6334   -6.3670 O   0  0  0  0  0  0  0  0  0  0  0  0
  2  1  1  1
  2  3  1  0
  3  4  1  0
  4  8  1  0
  5  4  2  0
  6  7  2  0
  6  2  1  0
  9  6  1  0
 10 11  1  0
 10  9  1  0
 11 13  1  0
 12 11  2  0
 13 14  1  0
 14 15  1  1
 14 22  1  0
 15 16  1  0
 16 21  2  0
 17 16  1  0
 17 18  2  0
 18 19  1  0
 19 20  2  0
 21 20  1  0
 22 23  2  0
 22 24  1  0
M  END
$$$$
