DGF.pdb
     RDKit          3D

 24 24  0  0  1  0  0  0  0  0999 V2000
   29.6094  -27.9243  -21.2866 N   0  0  0  0  0  0  0  0  0  0  0  0
   30.5392  -26.7761  -21.0817 C   0  0  1  0  0  0  0  0  0  0  0  0
   31.0028  -26.3549  -22.4571 C   0  0  0  0  0  0  0  0  0  0  0  0
   31.9257  -27.3168  -23.0451 C   0  0  0  0  0  0  0  0  0  0  0  0
   32.6122  -28.0829  -22.3504 O   0  0  0  0  0  0  0  0  0  0  0  0
   29.7258  -25.7178  -20.4317 C   0  0  0  0  0  0  0  0  0  0  0  0
   30.2984  -24.5980  -20.1680 O   0  0  0  0  0  0  0  0  0  0  0  0
   32.1021  -27.4434  -24.4330 O   0  0  0  0  0  0  0  0  0  0  0  0
   28.3821  -25.8953  -20.1083 N   0  0  0  0  0  0  0  0  0  0  0  0
   27.6122  -24.8293  -19.4646 C   0  0  0  0  0  0  0  0  0  0  0  0
   26.4240  -25.4583  -18.8390 C   0  0  0  0  0  0  0  0  0  0  0  0
   25.9481  -26.5213  -19.2541 O   0  0  0  0  0  0  0  0  0  0  0  0
   25.8238  -24.8181  -17.7365 N   0  0  0  0  0  0  0  0  0  0  0  0
   24.7161  -25.3636  -16.9739 C   0  0  1  0  0  0  0  0  0  0  0  0
   25.3019  -25.8830  -15.6889 C   0  0  0  0  0  0  0  0  0  0  0  0
   26.1573  -27.0546  -15.8138 C   0  0  0  0  0  0  0  0  0  0  0  0
   25.5352  -28.3088  -15.8102 C   0  0  0  0  0  0  0  0  0  0  0  0
   26.2611  -29.4721  -15.9247 C   0  0  0  0  0  0  0  0  0  0  0  0
   27.6295  -29.3799  -16.0447 C   0  0  0  0  0  0  0  0  0  0  0  0
   28.2545  -28.1425  -16.0493 C   0  0  0  0  0  0  0  0  0  0  0  0
   27.5393  -26.9848  -15.9359 C   0  0  0  0  0  0  0  0  0  0  0  0
   23.7439  -24.2588  -16.7750 C   0  0  0  0  0  0  0  0  0  0  0  0
   22.5988  -24.4445  -16.2868 O   0  0  0  0  0  0  0  0  0  0  0  0
   24.0438  -22.9342  -17.1204 O   0  0  0  0  0  0  0  0  0  0  0  0
  2  1  1  6
  2  3  1  0
  3  4  1  0
  4  8  1  0
  5  4  2  0
  6  7  2  0
  6  2  1  0
  9  6  1  0
 10 11  1  0
 10  9  1  0
 11 13  1  0
 12 11  2  0
 13 14  1  0
 14 15  1  1
 14 22  1  0
 15 16  1  0
 16 21  2  0
 17 16  1  0
 17 18  2  0
 18 19  1  0
 19 20  2  0
 21 20  1  0
 22 23  2  0
 22 24  1  0
M  END
$$$$
