DGF.pdb
     RDKit          3D

 24 24  0  0  1  0  0  0  0  0999 V2000
   24.7692  -19.2040  -12.9449 N   0  0  0  0  0  0  0  0  0  0  0  0
   25.2003  -20.4307  -13.6757 C   0  0  1  0  0  0  0  0  0  0  0  0
   25.3453  -20.0315  -15.1262 C   0  0  0  0  0  0  0  0  0  0  0  0
   24.0626  -19.7150  -15.7405 C   0  0  0  0  0  0  0  0  0  0  0  0
   23.8446  -18.6227  -16.2885 O   0  0  0  0  0  0  0  0  0  0  0  0
   26.5067  -20.8089  -13.0803 C   0  0  0  0  0  0  0  0  0  0  0  0
   27.0531  -21.9020  -13.4777 O   0  0  0  0  0  0  0  0  0  0  0  0
   22.9881  -20.6197  -15.7550 O   0  0  0  0  0  0  0  0  0  0  0  0
   27.1509  -20.0268  -12.1238 N   0  0  0  0  0  0  0  0  0  0  0  0
   28.4554  -20.4145  -11.5840 C   0  0  0  0  0  0  0  0  0  0  0  0
   28.2070  -21.2294  -10.3703 C   0  0  0  0  0  0  0  0  0  0  0  0
   29.0601  -21.9952   -9.9070 O   0  0  0  0  0  0  0  0  0  0  0  0
   26.9564  -21.1218   -9.7300 N   0  0  0  0  0  0  0  0  0  0  0  0
   26.7762  -21.0140   -8.2940 C   0  0  1  0  0  0  0  0  0  0  0  0
   27.4967  -19.7630   -7.8696 C   0  0  0  0  0  0  0  0  0  0  0  0
   28.2114  -19.8454   -6.6038 C   0  0  0  0  0  0  0  0  0  0  0  0
   28.1942  -18.7134   -5.7803 C   0  0  0  0  0  0  0  0  0  0  0  0
   28.8399  -18.6977   -4.5653 C   0  0  0  0  0  0  0  0  0  0  0  0
   29.5129  -19.8311   -4.1679 C   0  0  0  0  0  0  0  0  0  0  0  0
   29.5356  -20.9569   -4.9764 C   0  0  0  0  0  0  0  0  0  0  0  0
   28.8968  -20.9782   -6.1830 C   0  0  0  0  0  0  0  0  0  0  0  0
   25.3130  -20.9653   -8.0454 C   0  0  0  0  0  0  0  0  0  0  0  0
   24.8084  -21.2234   -6.9216 O   0  0  0  0  0  0  0  0  0  0  0  0
   24.3992  -20.6268   -9.0525 O   0  0  0  0  0  0  0  0  0  0  0  0
  2  1  1  1
  2  3  1  0
  3  4  1  0
  4  8  1  0
  5  4  2  0
  6  7  2  0
  6  2  1  0
  9  6  1  0
 10 11  1  0
 10  9  1  0
 11 13  1  0
 12 11  2  0
 13 14  1  0
 14 15  1  6
 14 22  1  0
 15 16  1  0
 16 21  2  0
 17 16  1  0
 17 18  2  0
 18 19  1  0
 19 20  2  0
 21 20  1  0
 22 23  2  0
 22 24  1  0
M  END
$$$$
