DGF.pdb
     RDKit          3D

 24 24  0  0  1  0  0  0  0  0999 V2000
   22.6108  -21.3747  -12.6998 N   0  0  0  0  0  0  0  0  0  0  0  0
   23.6100  -20.9006  -13.7007 C   0  0  1  0  0  0  0  0  0  0  0  0
   22.9705  -19.7349  -14.4193 C   0  0  0  0  0  0  0  0  0  0  0  0
   21.7437  -20.1178  -15.1057 C   0  0  0  0  0  0  0  0  0  0  0  0
   21.6954  -21.0863  -15.8807 O   0  0  0  0  0  0  0  0  0  0  0  0
   24.7916  -20.4730  -12.9101 C   0  0  0  0  0  0  0  0  0  0  0  0
   24.6042  -19.6277  -11.9605 O   0  0  0  0  0  0  0  0  0  0  0  0
   20.5357  -19.4204  -14.9392 O   0  0  0  0  0  0  0  0  0  0  0  0
   26.0754  -20.9549  -13.1576 N   0  0  0  0  0  0  0  0  0  0  0  0
   27.2266  -20.4649  -12.3972 C   0  0  0  0  0  0  0  0  0  0  0  0
   27.1735  -21.0987  -11.0577 C   0  0  0  0  0  0  0  0  0  0  0  0
   27.4473  -22.2919  -10.8839 O   0  0  0  0  0  0  0  0  0  0  0  0
   26.7985  -20.3093   -9.9524 N   0  0  0  0  0  0  0  0  0  0  0  0
   27.0212  -20.6787   -8.5667 C   0  0  1  0  0  0  0  0  0  0  0  0
   27.9623  -19.6502   -8.0004 C   0  0  0  0  0  0  0  0  0  0  0  0
   28.3020  -19.8126   -6.5939 C   0  0  0  0  0  0  0  0  0  0  0  0
   27.7868  -18.8714   -5.6947 C   0  0  0  0  0  0  0  0  0  0  0  0
   28.0523  -18.9440   -4.3465 C   0  0  0  0  0  0  0  0  0  0  0  0
   28.8449  -19.9734   -3.8907 C   0  0  0  0  0  0  0  0  0  0  0  0
   29.3596  -20.9102   -4.7734 C   0  0  0  0  0  0  0  0  0  0  0  0
   29.0995  -20.8431   -6.1122 C   0  0  0  0  0  0  0  0  0  0  0  0
   25.6922  -20.6904   -7.9044 C   0  0  0  0  0  0  0  0  0  0  0  0
   24.7132  -20.0298   -8.3397 O   0  0  0  0  0  0  0  0  0  0  0  0
   25.4450  -21.4421   -6.7479 O   0  0  0  0  0  0  0  0  0  0  0  0
  2  1  1  1
  2  3  1  0
  3  4  1  0
  4  8  1  0
  5  4  2  0
  6  7  2  0
  6  2  1  0
  9  6  1  0
 10 11  1  0
 10  9  1  0
 11 13  1  0
 12 11  2  0
 13 14  1  0
 14 15  1  1
 14 22  1  0
 15 16  1  0
 16 21  2  0
 17 16  1  0
 17 18  2  0
 18 19  1  0
 19 20  2  0
 21 20  1  0
 22 23  2  0
 22 24  1  0
M  END
$$$$
