MLA.pdb
     RDKit          3D

 22 21  0  0  1  0  0  0  0  0999 V2000
    8.0545  -11.5782   19.6831 C   0  0  0  0  0  0  0  0  0  0  0  0
    7.6081  -13.0757   18.7793 S   0  0  0  0  0  0  0  0  0  0  0  0
    7.7102  -14.5308   19.8385 C   0  0  0  0  0  0  0  0  0  0  0  0
    8.2842  -14.1143   21.1754 C   0  0  0  0  0  0  0  0  0  0  0  0
    8.5497  -15.3855   21.9833 C   0  0  2  0  0  0  0  0  0  0  0  0
    7.3013  -16.0925   22.0709 N   0  0  0  0  0  0  0  0  0  0  0  0
    9.0336  -15.0290   23.3378 C   0  0  0  0  0  0  0  0  0  0  0  0
   10.1869  -14.5398   23.4730 O   0  0  0  0  0  0  0  0  0  0  0  0
    8.0962  -11.9527   26.1140 C   0  0  0  0  0  0  0  0  0  0  0  0
    6.9763  -12.9914   25.8735 C   0  0  2  0  0  0  0  0  0  0  0  0
    5.7399  -12.4480   26.5378 C   0  0  0  0  0  0  0  0  0  0  0  0
    7.4685  -14.2573   26.4688 C   0  0  0  0  0  0  0  0  0  0  0  0
    8.6340  -14.9175   25.8091 C   0  0  2  0  0  0  0  0  0  0  0  0
    8.1811  -15.2507   24.4389 N   0  0  0  0  0  0  0  0  0  0  0  0
    9.0579  -16.2002   26.3979 C   0  0  0  0  0  0  0  0  0  0  0  0
    9.2978  -16.3222   27.6560 O   0  0  0  0  0  0  0  0  0  0  0  0
    9.2825  -19.7632   25.3452 C   0  0  0  0  0  0  0  0  0  0  0  0
    9.7005  -18.6376   26.3023 C   0  0  2  0  0  0  0  0  0  0  0  0
    9.2420  -17.4127   25.6736 N   0  0  0  0  0  0  0  0  0  0  0  0
   11.1745  -18.6310   26.4929 C   0  0  0  0  0  0  0  0  0  0  0  0
   11.9125  -17.8184   25.8767 O   0  0  0  0  0  0  0  0  0  0  0  0
   11.8123  -19.5125   27.3532 O   0  0  0  0  0  0  0  0  0  0  0  0
  1  2  1  0
  2  3  1  0
  3  4  1  0
  4  5  1  0
  5  6  1  1
  7  5  1  0
  7  8  2  0
 10  9  1  1
 10 12  1  0
 10 11  1  0
 13 12  1  1
 13 14  1  0
 13 15  1  0
 14  7  1  0
 15 16  2  0
 15 19  1  0
 18 17  1  6
 18 20  1  0
 19 18  1  0
 20 21  2  0
 20 22  1  0
M  END
$$$$
