MLA.pdb
     RDKit          3D

 22 21  0  0  1  0  0  0  0  0999 V2000
    8.4904  -11.4951   19.0916 C   0  0  0  0  0  0  0  0  0  0  0  0
    7.3293  -12.8031   18.6447 S   0  0  0  0  0  0  0  0  0  0  0  0
    7.7435  -14.3517   19.4694 C   0  0  0  0  0  0  0  0  0  0  0  0
    7.9958  -14.0653   20.9339 C   0  0  0  0  0  0  0  0  0  0  0  0
    8.3551  -15.3887   21.6109 C   0  0  2  0  0  0  0  0  0  0  0  0
    7.1518  -16.1735   21.6580 N   0  0  0  0  0  0  0  0  0  0  0  0
    8.8549  -15.1330   22.9823 C   0  0  0  0  0  0  0  0  0  0  0  0
   10.0411  -14.7403   23.1444 O   0  0  0  0  0  0  0  0  0  0  0  0
    8.1501  -12.2554   26.3053 C   0  0  0  0  0  0  0  0  0  0  0  0
    6.9680  -13.1316   25.8304 C   0  0  2  0  0  0  0  0  0  0  0  0
    5.7431  -12.6156   26.5365 C   0  0  0  0  0  0  0  0  0  0  0  0
    7.3279  -14.5231   26.1956 C   0  0  0  0  0  0  0  0  0  0  0  0
    8.4616  -15.1544   25.4570 C   0  0  2  0  0  0  0  0  0  0  0  0
    7.9799  -15.3392   24.0687 N   0  0  0  0  0  0  0  0  0  0  0  0
    8.8492  -16.5010   25.9133 C   0  0  0  0  0  0  0  0  0  0  0  0
    7.9752  -17.4170   26.1419 O   0  0  0  0  0  0  0  0  0  0  0  0
   11.9010  -18.5688   25.9907 C   0  0  0  0  0  0  0  0  0  0  0  0
   10.5088  -18.2829   26.5720 C   0  0  2  0  0  0  0  0  0  0  0  0
   10.1863  -16.9345   26.1432 N   0  0  0  0  0  0  0  0  0  0  0  0
   10.5264  -18.3913   28.0542 C   0  0  0  0  0  0  0  0  0  0  0  0
   10.6348  -19.5056   28.6298 O   0  0  0  0  0  0  0  0  0  0  0  0
   10.4253  -17.2797   28.8776 O   0  0  0  0  0  0  0  0  0  0  0  0
  1  2  1  0
  2  3  1  0
  3  4  1  0
  4  5  1  0
  5  6  1  1
  7  5  1  0
  7  8  2  0
 10  9  1  1
 10 12  1  0
 10 11  1  0
 13 12  1  1
 13 14  1  0
 13 15  1  0
 14  7  1  0
 15 16  2  0
 15 19  1  0
 18 17  1  1
 18 20  1  0
 19 18  1  0
 20 21  2  0
 20 22  1  0
M  END
$$$$
