MLA.pdb
     RDKit          3D

 22 21  0  0  1  0  0  0  0  0999 V2000
    7.8601  -11.5091   19.7333 C   0  0  0  0  0  0  0  0  0  0  0  0
    7.7354  -12.9597   18.6662 S   0  0  0  0  0  0  0  0  0  0  0  0
    7.9948  -14.4798   19.6001 C   0  0  0  0  0  0  0  0  0  0  0  0
    8.3912  -14.1148   21.0143 C   0  0  0  0  0  0  0  0  0  0  0  0
    8.6828  -15.4148   21.7652 C   0  0  2  0  0  0  0  0  0  0  0  0
    7.4540  -16.1595   21.8028 N   0  0  0  0  0  0  0  0  0  0  0  0
    9.1400  -15.1093   23.1413 C   0  0  0  0  0  0  0  0  0  0  0  0
   10.2872  -14.6186   23.3166 O   0  0  0  0  0  0  0  0  0  0  0  0
    7.8991  -12.1189   26.0946 C   0  0  0  0  0  0  0  0  0  0  0  0
    6.8654  -13.2029   25.7109 C   0  0  2  0  0  0  0  0  0  0  0  0
    5.5626  -12.7938   26.3438 C   0  0  0  0  0  0  0  0  0  0  0  0
    7.4099  -14.4795   26.2333 C   0  0  0  0  0  0  0  0  0  0  0  0
    8.6543  -15.0054   25.5974 C   0  0  2  0  0  0  0  0  0  0  0  0
    8.2696  -15.3800   24.2172 N   0  0  0  0  0  0  0  0  0  0  0  0
    9.2035  -16.2367   26.1925 C   0  0  0  0  0  0  0  0  0  0  0  0
    9.4124  -16.3435   27.4574 O   0  0  0  0  0  0  0  0  0  0  0  0
    9.6237  -19.7688   25.1937 C   0  0  0  0  0  0  0  0  0  0  0  0
   10.0429  -18.6142   26.1150 C   0  0  2  0  0  0  0  0  0  0  0  0
    9.5515  -17.4120   25.4673 N   0  0  0  0  0  0  0  0  0  0  0  0
   11.5203  -18.5795   26.2743 C   0  0  0  0  0  0  0  0  0  0  0  0
   12.2307  -17.7614   25.6334 O   0  0  0  0  0  0  0  0  0  0  0  0
   12.1915  -19.4396   27.1307 O   0  0  0  0  0  0  0  0  0  0  0  0
  1  2  1  0
  2  3  1  0
  3  4  1  0
  4  5  1  0
  5  6  1  1
  7  5  1  0
  7  8  2  0
 10  9  1  1
 10 12  1  0
 10 11  1  0
 13 12  1  1
 13 14  1  0
 13 15  1  0
 14  7  1  0
 15 16  2  0
 15 19  1  0
 18 17  1  6
 18 20  1  0
 19 18  1  0
 20 21  2  0
 20 22  1  0
M  END
$$$$
