MLA.pdb
     RDKit          3D

 22 21  0  0  1  0  0  0  0  0999 V2000
    7.3876  -19.7891   20.7664 C   0  0  0  0  0  0  0  0  0  0  0  0
    6.8309  -18.8171   19.3508 S   0  0  0  0  0  0  0  0  0  0  0  0
    7.2669  -17.0784   19.5424 C   0  0  0  0  0  0  0  0  0  0  0  0
    7.6164  -16.8263   20.9931 C   0  0  0  0  0  0  0  0  0  0  0  0
    7.7747  -15.3163   21.1772 C   0  0  2  0  0  0  0  0  0  0  0  0
    8.6332  -14.8550   20.1208 N   0  0  0  0  0  0  0  0  0  0  0  0
    8.3862  -15.0317   22.4967 C   0  0  0  0  0  0  0  0  0  0  0  0
    9.6409  -14.9741   22.5967 O   0  0  0  0  0  0  0  0  0  0  0  0
    8.0974  -11.8487   25.9931 C   0  0  0  0  0  0  0  0  0  0  0  0
    6.8047  -12.5648   25.5385 C   0  0  2  0  0  0  0  0  0  0  0  0
    5.6856  -11.9926   26.3666 C   0  0  0  0  0  0  0  0  0  0  0  0
    7.0432  -14.0098   25.7713 C   0  0  0  0  0  0  0  0  0  0  0  0
    8.1106  -14.6677   24.9606 C   0  0  2  0  0  0  0  0  0  0  0  0
    7.5373  -14.8332   23.6050 N   0  0  0  0  0  0  0  0  0  0  0  0
    8.4897  -16.0263   25.3875 C   0  0  0  0  0  0  0  0  0  0  0  0
    7.6253  -16.9751   25.4760 O   0  0  0  0  0  0  0  0  0  0  0  0
   11.4121  -18.1193   25.2541 C   0  0  0  0  0  0  0  0  0  0  0  0
   10.1397  -17.8131   26.0571 C   0  0  2  0  0  0  0  0  0  0  0  0
    9.8082  -16.4372   25.7360 N   0  0  0  0  0  0  0  0  0  0  0  0
   10.3832  -17.9869   27.5131 C   0  0  0  0  0  0  0  0  0  0  0  0
   10.7228  -19.0998   27.9936 O   0  0  0  0  0  0  0  0  0  0  0  0
   10.2508  -16.9411   28.4144 O   0  0  0  0  0  0  0  0  0  0  0  0
  1  2  1  0
  2  3  1  0
  3  4  1  0
  4  5  1  0
  5  6  1  6
  7  5  1  0
  7  8  2  0
 10  9  1  1
 10 12  1  0
 10 11  1  0
 13 12  1  1
 13 14  1  0
 13 15  1  0
 14  7  1  0
 15 16  2  0
 15 19  1  0
 18 17  1  6
 18 20  1  0
 19 18  1  0
 20 21  2  0
 20 22  1  0
M  END
$$$$
