MLA.pdb
     RDKit          3D

 22 21  0  0  1  0  0  0  0  0999 V2000
    8.7326  -20.3242   21.9366 C   0  0  0  0  0  0  0  0  0  0  0  0
    7.3527  -19.5682   21.0516 S   0  0  0  0  0  0  0  0  0  0  0  0
    7.5658  -17.7833   20.9152 C   0  0  0  0  0  0  0  0  0  0  0  0
    8.0229  -17.2487   22.2552 C   0  0  0  0  0  0  0  0  0  0  0  0
    8.0725  -15.7235   22.1544 C   0  0  2  0  0  0  0  0  0  0  0  0
    8.9350  -15.4062   21.0493 N   0  0  0  0  0  0  0  0  0  0  0  0
    8.6160  -15.1537   23.4097 C   0  0  0  0  0  0  0  0  0  0  0  0
    9.8548  -14.9457   23.5083 O   0  0  0  0  0  0  0  0  0  0  0  0
    7.8140  -11.3986   25.7653 C   0  0  0  0  0  0  0  0  0  0  0  0
    6.6508  -12.4135   25.6786 C   0  0  2  0  0  0  0  0  0  0  0  0
    5.4603  -11.7547   26.3220 C   0  0  0  0  0  0  0  0  0  0  0  0
    7.1219  -13.6257   26.3914 C   0  0  0  0  0  0  0  0  0  0  0  0
    8.2386  -14.3966   25.7685 C   0  0  2  0  0  0  0  0  0  0  0  0
    7.7222  -14.8609   24.4603 N   0  0  0  0  0  0  0  0  0  0  0  0
    8.6427  -15.6220   26.4805 C   0  0  0  0  0  0  0  0  0  0  0  0
    9.1722  -15.5817   27.6524 O   0  0  0  0  0  0  0  0  0  0  0  0
    8.2313  -19.3041   26.0591 C   0  0  0  0  0  0  0  0  0  0  0  0
    8.9539  -18.1149   26.7082 C   0  0  2  0  0  0  0  0  0  0  0  0
    8.4975  -16.9468   25.9780 N   0  0  0  0  0  0  0  0  0  0  0  0
   10.4279  -18.2770   26.6062 C   0  0  0  0  0  0  0  0  0  0  0  0
   11.1204  -17.5323   25.8643 O   0  0  0  0  0  0  0  0  0  0  0  0
   11.1152  -19.2496   27.3171 O   0  0  0  0  0  0  0  0  0  0  0  0
  1  2  1  0
  2  3  1  0
  3  4  1  0
  4  5  1  0
  5  6  1  6
  7  5  1  0
  7  8  2  0
 10  9  1  1
 10 12  1  0
 10 11  1  0
 13 12  1  1
 13 14  1  0
 13 15  1  0
 14  7  1  0
 15 16  2  0
 15 19  1  0
 18 17  1  6
 18 20  1  0
 19 18  1  0
 20 21  2  0
 20 22  1  0
M  END
$$$$
