MLA.pdb
     RDKit          3D

 22 21  0  0  1  0  0  0  0  0999 V2000
    9.2083  -11.7507   19.2687 C   0  0  0  0  0  0  0  0  0  0  0  0
    7.7761  -12.6585   18.6494 S   0  0  0  0  0  0  0  0  0  0  0  0
    7.5849  -14.2348   19.5030 C   0  0  0  0  0  0  0  0  0  0  0  0
    8.1884  -14.1106   20.8853 C   0  0  0  0  0  0  0  0  0  0  0  0
    8.1863  -15.5020   21.5199 C   0  0  2  0  0  0  0  0  0  0  0  0
    6.8137  -15.9204   21.6034 N   0  0  0  0  0  0  0  0  0  0  0  0
    8.7867  -15.4388   22.8732 C   0  0  0  0  0  0  0  0  0  0  0  0
   10.0311  -15.2796   22.9902 O   0  0  0  0  0  0  0  0  0  0  0  0
    8.1471  -12.3851   26.1204 C   0  0  0  0  0  0  0  0  0  0  0  0
    6.9487  -13.2750   25.7173 C   0  0  2  0  0  0  0  0  0  0  0  0
    5.7538  -12.7463   26.4643 C   0  0  0  0  0  0  0  0  0  0  0  0
    7.3291  -14.6569   26.0978 C   0  0  0  0  0  0  0  0  0  0  0  0
    8.4598  -15.2864   25.3529 C   0  0  2  0  0  0  0  0  0  0  0  0
    7.9391  -15.5599   23.9937 N   0  0  0  0  0  0  0  0  0  0  0  0
    8.9109  -16.5932   25.8634 C   0  0  0  0  0  0  0  0  0  0  0  0
    8.0792  -17.5284   26.1615 O   0  0  0  0  0  0  0  0  0  0  0  0
   12.0122  -18.5727   25.9696 C   0  0  0  0  0  0  0  0  0  0  0  0
   10.6522  -18.2588   26.6096 C   0  0  2  0  0  0  0  0  0  0  0  0
   10.2694  -16.9647   26.0760 N   0  0  0  0  0  0  0  0  0  0  0  0
   10.7649  -18.2231   28.0912 C   0  0  0  0  0  0  0  0  0  0  0  0
   10.6993  -17.1396   28.7287 O   0  0  0  0  0  0  0  0  0  0  0  0
   10.9472  -19.3723   28.8462 O   0  0  0  0  0  0  0  0  0  0  0  0
  1  2  1  0
  2  3  1  0
  3  4  1  0
  4  5  1  0
  5  6  1  1
  7  5  1  0
  7  8  2  0
 10  9  1  1
 10 12  1  0
 10 11  1  0
 13 12  1  1
 13 14  1  0
 13 15  1  0
 14  7  1  0
 15 16  2  0
 15 19  1  0
 18 17  1  6
 18 20  1  0
 19 18  1  0
 20 21  2  0
 20 22  1  0
M  END
$$$$
