MLA.pdb
     RDKit          3D

 22 21  0  0  1  0  0  0  0  0999 V2000
    6.3015  -21.2157   24.3603 C   0  0  0  0  0  0  0  0  0  0  0  0
    4.8096  -20.9285   23.3854 S   0  0  0  0  0  0  0  0  0  0  0  0
    4.8013  -19.2692   22.6806 C   0  0  0  0  0  0  0  0  0  0  0  0
    6.0602  -18.5530   23.1193 C   0  0  0  0  0  0  0  0  0  0  0  0
    6.0217  -17.1425   22.5296 C   0  0  2  0  0  0  0  0  0  0  0  0
    6.1704  -17.2810   21.1066 N   0  0  0  0  0  0  0  0  0  0  0  0
    7.1325  -16.3342   23.0853 C   0  0  0  0  0  0  0  0  0  0  0  0
    8.1631  -16.1381   22.3875 O   0  0  0  0  0  0  0  0  0  0  0  0
    7.4923  -12.1700   24.9180 C   0  0  0  0  0  0  0  0  0  0  0  0
    6.6182  -13.1770   25.7006 C   0  0  2  0  0  0  0  0  0  0  0  0
    6.0243  -12.4185   26.8570 C   0  0  0  0  0  0  0  0  0  0  0  0
    7.5333  -14.2703   26.1086 C   0  0  0  0  0  0  0  0  0  0  0  0
    8.1340  -15.1023   25.0240 C   0  0  2  0  0  0  0  0  0  0  0  0
    6.9983  -15.8074   24.3864 N   0  0  0  0  0  0  0  0  0  0  0  0
    9.0486  -16.1683   25.4700 C   0  0  0  0  0  0  0  0  0  0  0  0
    8.6498  -17.1327   26.2224 O   0  0  0  0  0  0  0  0  0  0  0  0
   12.4783  -17.3308   24.5989 C   0  0  0  0  0  0  0  0  0  0  0  0
   11.2636  -17.3735   25.5372 C   0  0  2  0  0  0  0  0  0  0  0  0
   10.4291  -16.2576   25.1314 N   0  0  0  0  0  0  0  0  0  0  0  0
   11.6905  -17.2444   26.9550 C   0  0  0  0  0  0  0  0  0  0  0  0
   11.3737  -16.2420   27.6474 O   0  0  0  0  0  0  0  0  0  0  0  0
   12.4551  -18.2135   27.5875 O   0  0  0  0  0  0  0  0  0  0  0  0
  1  2  1  0
  2  3  1  0
  3  4  1  0
  4  5  1  0
  5  6  1  6
  7  5  1  0
  7  8  2  0
 10  9  1  6
 10 12  1  0
 10 11  1  0
 13 12  1  1
 13 14  1  0
 13 15  1  0
 14  7  1  0
 15 16  2  0
 15 19  1  0
 18 17  1  6
 18 20  1  0
 19 18  1  0
 20 21  2  0
 20 22  1  0
M  END
$$$$
