MLA.pdb
     RDKit          3D

 22 21  0  0  1  0  0  0  0  0999 V2000
    6.1830  -21.1722   25.6317 C   0  0  0  0  0  0  0  0  0  0  0  0
    6.3848  -21.6290   23.8970 S   0  0  0  0  0  0  0  0  0  0  0  0
    6.4737  -20.1679   22.8447 C   0  0  0  0  0  0  0  0  0  0  0  0
    5.5566  -19.1073   23.4142 C   0  0  0  0  0  0  0  0  0  0  0  0
    5.6906  -17.8593   22.5405 C   0  0  2  0  0  0  0  0  0  0  0  0
    6.0821  -18.3063   21.2317 N   0  0  0  0  0  0  0  0  0  0  0  0
    6.7227  -16.9582   23.1051 C   0  0  0  0  0  0  0  0  0  0  0  0
    7.8770  -16.9480   22.6001 O   0  0  0  0  0  0  0  0  0  0  0  0
    6.3152  -12.5046   27.2484 C   0  0  0  0  0  0  0  0  0  0  0  0
    7.3639  -13.2444   26.3860 C   0  0  2  0  0  0  0  0  0  0  0  0
    8.0681  -12.1913   25.5734 C   0  0  0  0  0  0  0  0  0  0  0  0
    6.5981  -14.2175   25.5701 C   0  0  0  0  0  0  0  0  0  0  0  0
    7.3795  -15.2188   24.7850 C   0  0  2  0  0  0  0  0  0  0  0  0
    6.3762  -16.1359   24.1970 N   0  0  0  0  0  0  0  0  0  0  0  0
    8.2791  -16.0831   25.5696 C   0  0  0  0  0  0  0  0  0  0  0  0
    7.8300  -16.9114   26.4455 O   0  0  0  0  0  0  0  0  0  0  0  0
   11.7623  -17.2531   25.2053 C   0  0  0  0  0  0  0  0  0  0  0  0
   10.5189  -17.1175   26.0959 C   0  0  2  0  0  0  0  0  0  0  0  0
    9.6985  -16.1071   25.4538 N   0  0  0  0  0  0  0  0  0  0  0  0
   10.9015  -16.7109   27.4734 C   0  0  0  0  0  0  0  0  0  0  0  0
   10.6550  -15.5561   27.9094 O   0  0  0  0  0  0  0  0  0  0  0  0
   11.5458  -17.5748   28.3466 O   0  0  0  0  0  0  0  0  0  0  0  0
  1  2  1  0
  2  3  1  0
  3  4  1  0
  4  5  1  0
  5  6  1  6
  7  5  1  0
  7  8  2  0
 10  9  1  1
 10 12  1  0
 10 11  1  0
 13 12  1  1
 13 14  1  0
 13 15  1  0
 14  7  1  0
 15 16  2  0
 15 19  1  0
 18 17  1  6
 18 20  1  0
 19 18  1  0
 20 21  2  0
 20 22  1  0
M  END
$$$$
