MLA.pdb
     RDKit          3D

 22 21  0  0  1  0  0  0  0  0999 V2000
    8.2136  -11.6329   19.3976 C   0  0  0  0  0  0  0  0  0  0  0  0
    7.3201  -13.0720   18.7736 S   0  0  0  0  0  0  0  0  0  0  0  0
    7.7005  -14.5449   19.7409 C   0  0  0  0  0  0  0  0  0  0  0  0
    8.2878  -14.1122   21.0669 C   0  0  0  0  0  0  0  0  0  0  0  0
    8.6548  -15.3754   21.8469 C   0  0  2  0  0  0  0  0  0  0  0  0
    7.4841  -16.2092   21.8655 N   0  0  0  0  0  0  0  0  0  0  0  0
    9.0511  -15.0163   23.2288 C   0  0  0  0  0  0  0  0  0  0  0  0
   10.1679  -14.4683   23.4287 O   0  0  0  0  0  0  0  0  0  0  0  0
    7.8136  -12.0848   26.2568 C   0  0  0  0  0  0  0  0  0  0  0  0
    6.7699  -13.1362   25.8141 C   0  0  2  0  0  0  0  0  0  0  0  0
    5.4601  -12.7235   26.4302 C   0  0  0  0  0  0  0  0  0  0  0  0
    7.2789  -14.4390   26.3065 C   0  0  0  0  0  0  0  0  0  0  0  0
    8.5252  -14.9699   25.6784 C   0  0  2  0  0  0  0  0  0  0  0  0
    8.1584  -15.3019   24.2825 N   0  0  0  0  0  0  0  0  0  0  0  0
    9.0428  -16.2256   26.2503 C   0  0  0  0  0  0  0  0  0  0  0  0
    9.1855  -16.3846   27.5190 O   0  0  0  0  0  0  0  0  0  0  0  0
    9.5911  -19.7097   25.1251 C   0  0  0  0  0  0  0  0  0  0  0  0
    9.9227  -18.5860   26.1176 C   0  0  2  0  0  0  0  0  0  0  0  0
    9.4286  -17.3709   25.4967 N   0  0  0  0  0  0  0  0  0  0  0  0
   11.3874  -18.5147   26.3598 C   0  0  0  0  0  0  0  0  0  0  0  0
   12.1135  -17.6841   25.7535 O   0  0  0  0  0  0  0  0  0  0  0  0
   12.0291  -19.3526   27.2598 O   0  0  0  0  0  0  0  0  0  0  0  0
  1  2  1  0
  2  3  1  0
  3  4  1  0
  4  5  1  0
  5  6  1  1
  7  5  1  0
  7  8  2  0
 10  9  1  1
 10 12  1  0
 10 11  1  0
 13 12  1  1
 13 14  1  0
 13 15  1  0
 14  7  1  0
 15 16  2  0
 15 19  1  0
 18 17  1  6
 18 20  1  0
 19 18  1  0
 20 21  2  0
 20 22  1  0
M  END
$$$$
