MLA.pdb
     RDKit          3D

 22 21  0  0  1  0  0  0  0  0999 V2000
   10.5513  -13.8442   29.5467 C   0  0  0  0  0  0  0  0  0  0  0  0
   11.6100  -15.3051   29.6084 S   0  0  0  0  0  0  0  0  0  0  0  0
   10.7566  -16.7558   28.9625 C   0  0  0  0  0  0  0  0  0  0  0  0
    9.5371  -16.2950   28.1939 C   0  0  0  0  0  0  0  0  0  0  0  0
    8.7673  -17.5410   27.7536 C   0  0  2  0  0  0  0  0  0  0  0  0
    9.7430  -18.5634   27.4918 N   0  0  0  0  0  0  0  0  0  0  0  0
    7.9915  -17.2456   26.5262 C   0  0  0  0  0  0  0  0  0  0  0  0
    7.6919  -18.1863   25.7432 O   0  0  0  0  0  0  0  0  0  0  0  0
    6.1258  -12.2696   26.7584 C   0  0  0  0  0  0  0  0  0  0  0  0
    7.0128  -13.1820   25.8801 C   0  0  2  0  0  0  0  0  0  0  0  0
    7.5456  -12.3181   24.7688 C   0  0  0  0  0  0  0  0  0  0  0  0
    6.1263  -14.2762   25.4152 C   0  0  0  0  0  0  0  0  0  0  0  0
    6.7646  -15.5891   25.1014 C   0  0  2  0  0  0  0  0  0  0  0  0
    7.6113  -15.9115   26.2730 N   0  0  0  0  0  0  0  0  0  0  0  0
    7.6832  -15.5925   23.9490 C   0  0  0  0  0  0  0  0  0  0  0  0
    7.2553  -15.4826   22.7407 O   0  0  0  0  0  0  0  0  0  0  0  0
   10.0933  -14.5771   22.1969 C   0  0  0  0  0  0  0  0  0  0  0  0
    9.9347  -15.9487   22.8686 C   0  0  2  0  0  0  0  0  0  0  0  0
    9.1003  -15.7093   24.0316 N   0  0  0  0  0  0  0  0  0  0  0  0
   11.2597  -16.5000   23.2556 C   0  0  0  0  0  0  0  0  0  0  0  0
   11.5333  -16.7713   24.4540 O   0  0  0  0  0  0  0  0  0  0  0  0
   12.2588  -16.7438   22.3250 O   0  0  0  0  0  0  0  0  0  0  0  0
  1  2  1  0
  2  3  1  0
  3  4  1  0
  4  5  1  0
  5  6  1  6
  7  5  1  0
  7  8  2  0
 10  9  1  1
 10 12  1  0
 10 11  1  0
 13 12  1  1
 13 14  1  0
 13 15  1  0
 14  7  1  0
 15 16  2  0
 15 19  1  0
 18 17  1  1
 18 20  1  0
 19 18  1  0
 20 21  2  0
 20 22  1  0
M  END
$$$$
