MLA.pdb
     RDKit          3D

 22 21  0  0  1  0  0  0  0  0999 V2000
    6.5013  -12.2987   18.5975 C   0  0  0  0  0  0  0  0  0  0  0  0
    7.5223  -13.4029   19.5961 S   0  0  0  0  0  0  0  0  0  0  0  0
    6.5435  -14.7521   20.2828 C   0  0  0  0  0  0  0  0  0  0  0  0
    7.4430  -15.6083   21.1477 C   0  0  0  0  0  0  0  0  0  0  0  0
    8.6113  -14.7360   21.6092 C   0  0  2  0  0  0  0  0  0  0  0  0
    9.7294  -15.0548   20.7640 N   0  0  0  0  0  0  0  0  0  0  0  0
    8.9353  -15.0359   23.0237 C   0  0  0  0  0  0  0  0  0  0  0  0
   10.0091  -15.6353   23.2979 O   0  0  0  0  0  0  0  0  0  0  0  0
    8.2452  -11.9896   26.7256 C   0  0  0  0  0  0  0  0  0  0  0  0
    7.0452  -12.6787   26.0357 C   0  0  2  0  0  0  0  0  0  0  0  0
    5.8067  -12.1638   26.7185 C   0  0  0  0  0  0  0  0  0  0  0  0
    7.2637  -14.1350   26.2108 C   0  0  0  0  0  0  0  0  0  0  0  0
    8.3914  -14.7549   25.4536 C   0  0  2  0  0  0  0  0  0  0  0  0
    8.0242  -14.6377   24.0236 N   0  0  0  0  0  0  0  0  0  0  0  0
    8.5971  -16.1962   25.6822 C   0  0  0  0  0  0  0  0  0  0  0  0
    7.6641  -17.0562   25.4699 O   0  0  0  0  0  0  0  0  0  0  0  0
   11.1997  -18.6518   25.6729 C   0  0  0  0  0  0  0  0  0  0  0  0
    9.9310  -18.2078   26.4153 C   0  0  2  0  0  0  0  0  0  0  0  0
    9.8079  -16.7875   26.1438 N   0  0  0  0  0  0  0  0  0  0  0  0
   10.0555  -18.4729   27.8725 C   0  0  0  0  0  0  0  0  0  0  0  0
   10.1178  -17.5333   28.7078 O   0  0  0  0  0  0  0  0  0  0  0  0
   10.1094  -19.7597   28.3873 O   0  0  0  0  0  0  0  0  0  0  0  0
  1  2  1  0
  2  3  1  0
  3  4  1  0
  4  5  1  0
  5  6  1  6
  7  5  1  0
  7  8  2  0
 10  9  1  1
 10 12  1  0
 10 11  1  0
 13 12  1  1
 13 14  1  0
 13 15  1  0
 14  7  1  0
 15 16  2  0
 15 19  1  0
 18 17  1  6
 18 20  1  0
 19 18  1  0
 20 21  2  0
 20 22  1  0
M  END
$$$$
