HVG.pdb
     RDKit          3D

 22 22  0  0  1  0  0  0  0  0999 V2000
   10.1734  -14.8552   21.5002 N   0  0  0  0  0  0  0  0  0  0  0  0
    8.8727  -14.3947   21.8918 C   0  0  1  0  0  0  0  0  0  0  0  0
    7.7885  -15.0218   21.0500 C   0  0  0  0  0  0  0  0  0  0  0  0
    7.7181  -14.2699   19.7709 C   0  0  0  0  0  0  0  0  0  0  0  0
    8.5343  -13.1947   19.4186 C   0  0  0  0  0  0  0  0  0  0  0  0
    8.1959  -12.7578   18.1963 N   0  0  0  0  0  0  0  0  0  0  0  0
    7.1917  -13.5270   17.7713 C   0  0  0  0  0  0  0  0  0  0  0  0
    6.8954  -14.4483   18.7224 N   0  0  0  0  0  0  0  0  0  0  0  0
    8.6828  -14.6194   23.3316 C   0  0  0  0  0  0  0  0  0  0  0  0
    9.5761  -15.2215   23.9694 O   0  0  0  0  0  0  0  0  0  0  0  0
    7.0107  -11.8923   25.5629 C   0  0  0  0  0  0  0  0  0  0  0  0
    6.5149  -13.2846   25.9974 C   0  0  2  0  0  0  0  0  0  0  0  0
    6.3226  -13.2020   27.4607 C   0  0  0  0  0  0  0  0  0  0  0  0
    7.4920  -14.3213   25.5040 C   0  0  2  0  0  0  0  0  0  0  0  0
    7.5345  -14.1869   24.0367 N   0  0  0  0  0  0  0  0  0  0  0  0
    7.1562  -15.7070   25.8734 C   0  0  0  0  0  0  0  0  0  0  0  0
    5.9418  -16.0912   25.7615 O   0  0  0  0  0  0  0  0  0  0  0  0
    8.0692  -16.6786   26.3504 N   0  0  0  0  0  0  0  0  0  0  0  0
    7.5745  -17.9964   26.7204 C   0  0  0  0  0  0  0  0  0  0  0  0
    8.3054  -18.5693   27.8624 C   0  0  0  0  0  0  0  0  0  0  0  0
    9.2589  -17.9169   28.3587 O   0  0  0  0  0  0  0  0  0  0  0  0
    8.0104  -19.7932   28.4341 O   0  0  0  0  0  0  0  0  0  0  0  0
  2  1  1  6
  2  3  1  0
  3  4  1  0
  4  5  2  0
  4  8  1  0
  5  6  1  0
  6  7  1  0
  8  7  2  0
  9  2  1  0
  9 15  1  0
 10  9  2  0
 12 11  1  1
 12 14  1  0
 13 12  1  0
 14 15  1  6
 14 16  1  0
 16 18  1  0
 17 16  2  0
 18 19  1  0
 20 22  1  0
 20 19  1  0
 21 20  2  0
M  END
$$$$
