HVG.pdb
     RDKit          3D

 22 22  0  0  1  0  0  0  0  0999 V2000
    9.9857  -14.2608   21.6094 N   0  0  0  0  0  0  0  0  0  0  0  0
    8.6119  -14.1572   22.0082 C   0  0  1  0  0  0  0  0  0  0  0  0
    7.7364  -15.1035   21.2237 C   0  0  0  0  0  0  0  0  0  0  0  0
    7.6918  -14.6190   19.8201 C   0  0  0  0  0  0  0  0  0  0  0  0
    8.3820  -13.5126   19.3240 C   0  0  0  0  0  0  0  0  0  0  0  0
    8.1115  -13.3653   18.0185 N   0  0  0  0  0  0  0  0  0  0  0  0
    7.2722  -14.3462   17.6808 C   0  0  0  0  0  0  0  0  0  0  0  0
    7.0123  -15.1125   18.7701 N   0  0  0  0  0  0  0  0  0  0  0  0
    8.5044  -14.3482   23.4613 C   0  0  0  0  0  0  0  0  0  0  0  0
    9.4329  -14.9361   24.0610 O   0  0  0  0  0  0  0  0  0  0  0  0
    7.0147  -11.6597   25.9355 C   0  0  0  0  0  0  0  0  0  0  0  0
    6.4533  -13.0602   26.2460 C   0  0  2  0  0  0  0  0  0  0  0  0
    6.2399  -13.0903   27.7085 C   0  0  0  0  0  0  0  0  0  0  0  0
    7.3941  -14.0942   25.6813 C   0  0  2  0  0  0  0  0  0  0  0  0
    7.3979  -13.8984   24.2204 N   0  0  0  0  0  0  0  0  0  0  0  0
    7.0398  -15.4874   26.0020 C   0  0  0  0  0  0  0  0  0  0  0  0
    6.0932  -16.0428   25.3461 O   0  0  0  0  0  0  0  0  0  0  0  0
    7.6612  -16.2913   26.9883 N   0  0  0  0  0  0  0  0  0  0  0  0
    7.2405  -17.6757   27.1443 C   0  0  0  0  0  0  0  0  0  0  0  0
    8.3778  -18.6101   27.1487 C   0  0  0  0  0  0  0  0  0  0  0  0
    9.5187  -18.1753   26.8485 O   0  0  0  0  0  0  0  0  0  0  0  0
    8.2749  -19.9522   27.4649 O   0  0  0  0  0  0  0  0  0  0  0  0
  2  1  1  6
  2  3  1  0
  3  4  1  0
  4  5  2  0
  4  8  1  0
  5  6  1  0
  6  7  1  0
  8  7  2  0
  9  2  1  0
  9 15  1  0
 10  9  2  0
 12 11  1  1
 12 14  1  0
 13 12  1  0
 14 15  1  6
 14 16  1  0
 16 18  1  0
 17 16  2  0
 18 19  1  0
 20 22  1  0
 20 19  1  0
 21 20  2  0
M  END
$$$$
