HVG.pdb
     RDKit          3D

 22 22  0  0  1  0  0  0  0  0999 V2000
    9.9617  -14.7240   21.7990 N   0  0  0  0  0  0  0  0  0  0  0  0
    8.6786  -14.3241   22.3000 C   0  0  1  0  0  0  0  0  0  0  0  0
    7.5571  -14.9323   21.4939 C   0  0  0  0  0  0  0  0  0  0  0  0
    7.5947  -14.3258   20.1384 C   0  0  0  0  0  0  0  0  0  0  0  0
    8.5624  -13.4323   19.6785 C   0  0  0  0  0  0  0  0  0  0  0  0
    8.2877  -13.0885   18.4114 N   0  0  0  0  0  0  0  0  0  0  0  0
    7.1764  -13.7396   18.0627 C   0  0  0  0  0  0  0  0  0  0  0  0
    6.7489  -14.4937   19.1067 N   0  0  0  0  0  0  0  0  0  0  0  0
    8.5895  -14.6367   23.7331 C   0  0  0  0  0  0  0  0  0  0  0  0
    9.4173  -15.4354   24.2272 O   0  0  0  0  0  0  0  0  0  0  0  0
    5.4238  -13.2897   26.1849 C   0  0  0  0  0  0  0  0  0  0  0  0
    6.8688  -13.2992   26.7188 C   0  0  2  0  0  0  0  0  0  0  0  0
    7.3740  -11.9229   26.5298 C   0  0  0  0  0  0  0  0  0  0  0  0
    7.6331  -14.3983   26.0254 C   0  0  2  0  0  0  0  0  0  0  0  0
    7.6095  -14.0769   24.5870 N   0  0  0  0  0  0  0  0  0  0  0  0
    7.0989  -15.7528   26.2477 C   0  0  0  0  0  0  0  0  0  0  0  0
    5.8625  -15.9688   26.0040 O   0  0  0  0  0  0  0  0  0  0  0  0
    7.8391  -16.8659   26.7149 N   0  0  0  0  0  0  0  0  0  0  0  0
    7.1567  -18.1336   26.9275 C   0  0  0  0  0  0  0  0  0  0  0  0
    7.7812  -18.9347   27.9928 C   0  0  0  0  0  0  0  0  0  0  0  0
    8.7608  -18.4527   28.6164 O   0  0  0  0  0  0  0  0  0  0  0  0
    7.3575  -20.1988   28.3592 O   0  0  0  0  0  0  0  0  0  0  0  0
  2  1  1  6
  2  3  1  0
  3  4  1  0
  4  5  2  0
  4  8  1  0
  5  6  1  0
  6  7  1  0
  8  7  2  0
  9  2  1  0
  9 15  1  0
 10  9  2  0
 12 11  1  6
 12 14  1  0
 13 12  1  0
 14 15  1  6
 14 16  1  0
 16 18  1  0
 17 16  2  0
 18 19  1  0
 20 22  1  0
 20 19  1  0
 21 20  2  0
M  END
$$$$
