HVG.pdb
     RDKit          3D

 22 22  0  0  1  0  0  0  0  0999 V2000
    8.8069  -15.2298   21.1401 N   0  0  0  0  0  0  0  0  0  0  0  0
    8.3352  -15.7852   22.3754 C   0  0  1  0  0  0  0  0  0  0  0  0
    8.8888  -17.1702   22.6051 C   0  0  0  0  0  0  0  0  0  0  0  0
    8.4424  -18.0278   21.4773 C   0  0  0  0  0  0  0  0  0  0  0  0
    7.1181  -18.2219   21.0836 C   0  0  0  0  0  0  0  0  0  0  0  0
    7.0813  -19.0550   20.0330 N   0  0  0  0  0  0  0  0  0  0  0  0
    8.3431  -19.3895   19.7559 C   0  0  0  0  0  0  0  0  0  0  0  0
    9.1763  -18.7694   20.6292 N   0  0  0  0  0  0  0  0  0  0  0  0
    8.6315  -14.8594   23.4775 C   0  0  0  0  0  0  0  0  0  0  0  0
    9.7193  -14.2398   23.4666 O   0  0  0  0  0  0  0  0  0  0  0  0
    6.2449  -12.1510   24.8703 C   0  0  0  0  0  0  0  0  0  0  0  0
    6.7968  -13.0072   26.0260 C   0  0  2  0  0  0  0  0  0  0  0  0
    6.8644  -12.1051   27.1951 C   0  0  0  0  0  0  0  0  0  0  0  0
    8.0940  -13.6362   25.5848 C   0  0  2  0  0  0  0  0  0  0  0  0
    7.7438  -14.6321   24.5561 N   0  0  0  0  0  0  0  0  0  0  0  0
    8.8645  -14.2766   26.6644 C   0  0  0  0  0  0  0  0  0  0  0  0
    9.2171  -13.5658   27.6670 O   0  0  0  0  0  0  0  0  0  0  0  0
    9.2612  -15.6355   26.7016 N   0  0  0  0  0  0  0  0  0  0  0  0
    9.9563  -16.1402   27.8765 C   0  0  0  0  0  0  0  0  0  0  0  0
   10.1817  -17.5934   27.8132 C   0  0  0  0  0  0  0  0  0  0  0  0
   10.7138  -18.1661   28.7980 O   0  0  0  0  0  0  0  0  0  0  0  0
    9.8433  -18.3821   26.7292 O   0  0  0  0  0  0  0  0  0  0  0  0
  2  1  1  6
  2  3  1  0
  3  4  1  0
  4  5  2  0
  4  8  1  0
  5  6  1  0
  6  7  1  0
  8  7  2  0
  9  2  1  0
  9 15  1  0
 10  9  2  0
 12 11  1  6
 12 14  1  0
 13 12  1  0
 14 15  1  6
 14 16  1  0
 16 18  1  0
 17 16  2  0
 18 19  1  0
 20 22  1  0
 20 19  1  0
 21 20  2  0
M  END
$$$$
