HVG.pdb
     RDKit          3D

 22 22  0  0  1  0  0  0  0  0999 V2000
    5.2890  -18.9883   25.0475 N   0  0  0  0  0  0  0  0  0  0  0  0
    6.4348  -18.3328   25.6084 C   0  0  1  0  0  0  0  0  0  0  0  0
    7.6530  -19.2227   25.5717 C   0  0  0  0  0  0  0  0  0  0  0  0
    8.3938  -19.0270   26.8443 C   0  0  0  0  0  0  0  0  0  0  0  0
    9.0394  -17.8526   27.2321 C   0  0  0  0  0  0  0  0  0  0  0  0
    9.6040  -18.0291   28.4360 N   0  0  0  0  0  0  0  0  0  0  0  0
    9.3320  -19.2793   28.8150 C   0  0  0  0  0  0  0  0  0  0  0  0
    8.5968  -19.8924   27.8531 N   0  0  0  0  0  0  0  0  0  0  0  0
    6.6454  -17.0445   24.9336 C   0  0  0  0  0  0  0  0  0  0  0  0
    6.5564  -16.9974   23.6857 O   0  0  0  0  0  0  0  0  0  0  0  0
    5.3939  -13.4995   26.1069 C   0  0  0  0  0  0  0  0  0  0  0  0
    6.8996  -13.4666   25.7832 C   0  0  2  0  0  0  0  0  0  0  0  0
    7.1667  -12.1099   25.2605 C   0  0  0  0  0  0  0  0  0  0  0  0
    7.2217  -14.6177   24.8644 C   0  0  2  0  0  0  0  0  0  0  0  0
    6.9454  -15.8482   25.6276 N   0  0  0  0  0  0  0  0  0  0  0  0
    8.6070  -14.6355   24.3643 C   0  0  0  0  0  0  0  0  0  0  0  0
    9.5620  -14.6690   25.2137 O   0  0  0  0  0  0  0  0  0  0  0  0
    8.9932  -14.6202   23.0020 N   0  0  0  0  0  0  0  0  0  0  0  0
   10.3968  -14.4358   22.6641 C   0  0  0  0  0  0  0  0  0  0  0  0
   11.1556  -15.6960   22.7141 C   0  0  0  0  0  0  0  0  0  0  0  0
   10.6043  -16.7148   23.2030 O   0  0  0  0  0  0  0  0  0  0  0  0
   12.4516  -15.8373   22.2533 O   0  0  0  0  0  0  0  0  0  0  0  0
  2  1  1  6
  2  3  1  0
  3  4  1  0
  4  5  2  0
  4  8  1  0
  5  6  1  0
  6  7  1  0
  8  7  2  0
  9  2  1  0
  9 15  1  0
 10  9  2  0
 12 11  1  6
 12 14  1  0
 13 12  1  0
 14 15  1  1
 14 16  1  0
 16 18  1  0
 17 16  2  0
 18 19  1  0
 20 22  1  0
 20 19  1  0
 21 20  2  0
M  END
$$$$
