HVG.pdb
     RDKit          3D

 22 22  0  0  1  0  0  0  0  0999 V2000
   13.6814  -14.3316   17.4868 N   0  0  0  0  0  0  0  0  0  0  0  0
   12.5160  -15.1327   17.7263 C   0  0  1  0  0  0  0  0  0  0  0  0
   12.8626  -16.5987   17.8154 C   0  0  0  0  0  0  0  0  0  0  0  0
   13.3983  -17.0173   16.4947 C   0  0  0  0  0  0  0  0  0  0  0  0
   12.7235  -16.9129   15.2781 C   0  0  0  0  0  0  0  0  0  0  0  0
   13.5022  -17.3841   14.2927 N   0  0  0  0  0  0  0  0  0  0  0  0
   14.6454  -17.7811   14.8549 C   0  0  0  0  0  0  0  0  0  0  0  0
   14.5902  -17.5615   16.1929 N   0  0  0  0  0  0  0  0  0  0  0  0
   11.8127  -14.6364   18.9173 C   0  0  0  0  0  0  0  0  0  0  0  0
   12.4851  -14.3203   19.9249 O   0  0  0  0  0  0  0  0  0  0  0  0
    8.5604  -12.2763   18.9074 C   0  0  0  0  0  0  0  0  0  0  0  0
    8.4107  -13.4994   19.8319 C   0  0  2  0  0  0  0  0  0  0  0  0
    7.5316  -13.0606   20.9364 C   0  0  0  0  0  0  0  0  0  0  0  0
    9.7849  -13.9851   20.2173 C   0  0  2  0  0  0  0  0  0  0  0  0
   10.4058  -14.4973   18.9824 N   0  0  0  0  0  0  0  0  0  0  0  0
    9.7986  -15.0275   21.2579 C   0  0  0  0  0  0  0  0  0  0  0  0
    9.5134  -16.2280   20.9228 O   0  0  0  0  0  0  0  0  0  0  0  0
   10.1055  -14.8250   22.6254 N   0  0  0  0  0  0  0  0  0  0  0  0
   10.0433  -15.9540   23.5416 C   0  0  0  0  0  0  0  0  0  0  0  0
   11.3789  -16.4215   23.9467 C   0  0  0  0  0  0  0  0  0  0  0  0
   12.3279  -16.3232   23.1278 O   0  0  0  0  0  0  0  0  0  0  0  0
   11.6644  -16.9690   25.1838 O   0  0  0  0  0  0  0  0  0  0  0  0
  2  1  1  1
  2  3  1  0
  3  4  1  0
  4  5  2  0
  4  8  1  0
  5  6  1  0
  6  7  1  0
  8  7  2  0
  9  2  1  0
  9 15  1  0
 10  9  2  0
 12 11  1  6
 12 14  1  0
 13 12  1  0
 14 15  1  6
 14 16  1  0
 16 18  1  0
 17 16  2  0
 18 19  1  0
 20 22  1  0
 20 19  1  0
 21 20  2  0
M  END
$$$$
