HVG.pdb
     RDKit          3D

 22 22  0  0  1  0  0  0  0  0999 V2000
    9.7994  -16.8497   16.1000 N   0  0  0  0  0  0  0  0  0  0  0  0
    9.0673  -17.2434   17.2688 C   0  0  1  0  0  0  0  0  0  0  0  0
    9.3203  -18.6897   17.6176 C   0  0  0  0  0  0  0  0  0  0  0  0
    8.9260  -19.5126   16.4454 C   0  0  0  0  0  0  0  0  0  0  0  0
    7.6363  -19.6097   15.9223 C   0  0  0  0  0  0  0  0  0  0  0  0
    7.6427  -20.4381   14.8673 N   0  0  0  0  0  0  0  0  0  0  0  0
    8.8980  -20.8636   14.7129 C   0  0  0  0  0  0  0  0  0  0  0  0
    9.6841  -20.3058   15.6681 N   0  0  0  0  0  0  0  0  0  0  0  0
    9.3727  -16.3251   18.3747 C   0  0  0  0  0  0  0  0  0  0  0  0
   10.5713  -16.0737   18.6342 O   0  0  0  0  0  0  0  0  0  0  0  0
    7.5220  -12.9484   19.2607 C   0  0  0  0  0  0  0  0  0  0  0  0
    7.6303  -13.8680   20.4918 C   0  0  2  0  0  0  0  0  0  0  0  0
    7.7353  -12.9651   21.6575 C   0  0  0  0  0  0  0  0  0  0  0  0
    8.7728  -14.8283   20.2789 C   0  0  2  0  0  0  0  0  0  0  0  0
    8.3742  -15.7076   19.1650 N   0  0  0  0  0  0  0  0  0  0  0  0
    9.1235  -15.6373   21.4587 C   0  0  0  0  0  0  0  0  0  0  0  0
    8.2755  -16.4940   21.8851 O   0  0  0  0  0  0  0  0  0  0  0  0
   10.3376  -15.5580   22.1830 N   0  0  0  0  0  0  0  0  0  0  0  0
   10.5133  -16.3858   23.3670 C   0  0  0  0  0  0  0  0  0  0  0  0
   11.7723  -16.0955   24.0722 C   0  0  0  0  0  0  0  0  0  0  0  0
   12.5909  -15.2998   23.5452 O   0  0  0  0  0  0  0  0  0  0  0  0
   12.1204  -16.6461   25.2918 O   0  0  0  0  0  0  0  0  0  0  0  0
  2  1  1  6
  2  3  1  0
  3  4  1  0
  4  5  2  0
  4  8  1  0
  5  6  1  0
  6  7  1  0
  8  7  2  0
  9  2  1  0
  9 15  1  0
 10  9  2  0
 12 11  1  6
 12 14  1  0
 13 12  1  0
 14 15  1  6
 14 16  1  0
 16 18  1  0
 17 16  2  0
 18 19  1  0
 20 22  1  0
 20 19  1  0
 21 20  2  0
M  END
$$$$
