HVG.pdb
     RDKit          3D

 22 22  0  0  1  0  0  0  0  0999 V2000
    9.4520  -14.5404   21.1309 N   0  0  0  0  0  0  0  0  0  0  0  0
    8.2156  -14.8457   21.7908 C   0  0  1  0  0  0  0  0  0  0  0  0
    7.7375  -16.2363   21.4517 C   0  0  0  0  0  0  0  0  0  0  0  0
    7.3638  -16.2475   20.0141 C   0  0  0  0  0  0  0  0  0  0  0  0
    7.5587  -15.1948   19.1194 C   0  0  0  0  0  0  0  0  0  0  0  0
    7.1049  -15.5480   17.9075 N   0  0  0  0  0  0  0  0  0  0  0  0
    6.6310  -16.7907   18.0152 C   0  0  0  0  0  0  0  0  0  0  0  0
    6.7846  -17.2230   19.2923 N   0  0  0  0  0  0  0  0  0  0  0  0
    8.3608  -14.6260   23.2365 C   0  0  0  0  0  0  0  0  0  0  0  0
    9.4679  -14.8598   23.7723 O   0  0  0  0  0  0  0  0  0  0  0  0
    6.6840  -11.7289   25.2232 C   0  0  0  0  0  0  0  0  0  0  0  0
    6.5062  -13.0422   26.0086 C   0  0  2  0  0  0  0  0  0  0  0  0
    6.5928  -12.6691   27.4364 C   0  0  0  0  0  0  0  0  0  0  0  0
    7.5179  -14.0434   25.5116 C   0  0  2  0  0  0  0  0  0  0  0  0
    7.3061  -14.1609   24.0576 N   0  0  0  0  0  0  0  0  0  0  0  0
    7.4292  -15.3713   26.1426 C   0  0  0  0  0  0  0  0  0  0  0  0
    6.3502  -16.0428   26.0023 O   0  0  0  0  0  0  0  0  0  0  0  0
    8.4473  -15.9921   26.9064 N   0  0  0  0  0  0  0  0  0  0  0  0
    8.2280  -17.3347   27.4235 C   0  0  0  0  0  0  0  0  0  0  0  0
    9.3503  -17.8071   28.2504 C   0  0  0  0  0  0  0  0  0  0  0  0
   10.3691  -17.0786   28.3600 O   0  0  0  0  0  0  0  0  0  0  0  0
    9.3600  -19.0146   28.9241 O   0  0  0  0  0  0  0  0  0  0  0  0
  2  1  1  6
  2  3  1  0
  3  4  1  0
  4  5  2  0
  4  8  1  0
  5  6  1  0
  6  7  1  0
  8  7  2  0
  9  2  1  0
  9 15  1  0
 10  9  2  0
 12 11  1  6
 12 14  1  0
 13 12  1  0
 14 15  1  6
 14 16  1  0
 16 18  1  0
 17 16  2  0
 18 19  1  0
 20 22  1  0
 20 19  1  0
 21 20  2  0
M  END
$$$$
