HVG.pdb
     RDKit          3D

 22 22  0  0  1  0  0  0  0  0999 V2000
    8.7549  -17.6984   16.7806 N   0  0  0  0  0  0  0  0  0  0  0  0
    8.1054  -17.7608   18.0579 C   0  0  1  0  0  0  0  0  0  0  0  0
    8.1761  -19.1487   18.6461 C   0  0  0  0  0  0  0  0  0  0  0  0
    7.4695  -20.0689   17.7184 C   0  0  0  0  0  0  0  0  0  0  0  0
    6.0906  -20.2784   17.6812 C   0  0  0  0  0  0  0  0  0  0  0  0
    5.7997  -21.1719   16.7239 N   0  0  0  0  0  0  0  0  0  0  0  0
    6.9548  -21.5293   16.1596 C   0  0  0  0  0  0  0  0  0  0  0  0
    7.9744  -20.8633   16.7583 N   0  0  0  0  0  0  0  0  0  0  0  0
    8.6648  -16.7325   18.9463 C   0  0  0  0  0  0  0  0  0  0  0  0
    9.8980  -16.5184   18.9171 O   0  0  0  0  0  0  0  0  0  0  0  0
    7.1364  -13.2183   19.3502 C   0  0  0  0  0  0  0  0  0  0  0  0
    7.4430  -13.8019   20.7425 C   0  0  2  0  0  0  0  0  0  0  0  0
    7.7880  -12.6440   21.5943 C   0  0  0  0  0  0  0  0  0  0  0  0
    8.4978  -14.8693   20.5976 C   0  0  2  0  0  0  0  0  0  0  0  0
    7.8749  -15.9682   19.8379 N   0  0  0  0  0  0  0  0  0  0  0  0
    9.0356  -15.3785   21.8707 C   0  0  0  0  0  0  0  0  0  0  0  0
    8.3416  -16.2253   22.5311 O   0  0  0  0  0  0  0  0  0  0  0  0
   10.2763  -15.0140   22.4477 N   0  0  0  0  0  0  0  0  0  0  0  0
   10.6757  -15.6156   23.7112 C   0  0  0  0  0  0  0  0  0  0  0  0
   12.0637  -16.1047   23.6852 C   0  0  0  0  0  0  0  0  0  0  0  0
   12.6550  -16.1876   22.5787 O   0  0  0  0  0  0  0  0  0  0  0  0
   12.7712  -16.4845   24.8109 O   0  0  0  0  0  0  0  0  0  0  0  0
  2  1  1  6
  2  3  1  0
  3  4  1  0
  4  5  2  0
  4  8  1  0
  5  6  1  0
  6  7  1  0
  8  7  2  0
  9  2  1  0
  9 15  1  0
 10  9  2  0
 12 11  1  6
 12 14  1  0
 13 12  1  0
 14 15  1  1
 14 16  1  0
 16 18  1  0
 17 16  2  0
 18 19  1  0
 20 22  1  0
 20 19  1  0
 21 20  2  0
M  END
$$$$
