HVG.pdb
     RDKit          3D

 22 22  0  0  1  0  0  0  0  0999 V2000
   13.3333  -14.8494   16.9102 N   0  0  0  0  0  0  0  0  0  0  0  0
   12.1810  -15.5442   17.4068 C   0  0  1  0  0  0  0  0  0  0  0  0
   12.5003  -16.9837   17.7284 C   0  0  0  0  0  0  0  0  0  0  0  0
   12.6909  -17.7023   16.4423 C   0  0  0  0  0  0  0  0  0  0  0  0
   11.9782  -17.4610   15.2675 C   0  0  0  0  0  0  0  0  0  0  0  0
   12.4085  -18.2901   14.3049 N   0  0  0  0  0  0  0  0  0  0  0  0
   13.3701  -19.0443   14.8408 C   0  0  0  0  0  0  0  0  0  0  0  0
   13.5477  -18.6933   16.1395 N   0  0  0  0  0  0  0  0  0  0  0  0
   11.6187  -14.8125   18.5504 C   0  0  0  0  0  0  0  0  0  0  0  0
   12.4026  -14.2604   19.3555 O   0  0  0  0  0  0  0  0  0  0  0  0
    8.4396  -12.3956   18.4818 C   0  0  0  0  0  0  0  0  0  0  0  0
    8.3548  -13.4589   19.5932 C   0  0  2  0  0  0  0  0  0  0  0  0
    7.5741  -12.8367   20.6834 C   0  0  0  0  0  0  0  0  0  0  0  0
    9.7514  -13.9103   19.9379 C   0  0  2  0  0  0  0  0  0  0  0  0
   10.2282  -14.7001   18.7882 N   0  0  0  0  0  0  0  0  0  0  0  0
    9.8524  -14.7067   21.1728 C   0  0  0  0  0  0  0  0  0  0  0  0
    9.5522  -14.1502   22.2841 O   0  0  0  0  0  0  0  0  0  0  0  0
   10.2579  -16.0612   21.2509 N   0  0  0  0  0  0  0  0  0  0  0  0
   10.1788  -16.7534   22.5287 C   0  0  0  0  0  0  0  0  0  0  0  0
   11.3771  -16.5406   23.3566 C   0  0  0  0  0  0  0  0  0  0  0  0
   11.4278  -17.0725   24.4947 O   0  0  0  0  0  0  0  0  0  0  0  0
   12.4657  -15.7850   22.9619 O   0  0  0  0  0  0  0  0  0  0  0  0
  2  1  1  1
  2  3  1  0
  3  4  1  0
  4  5  2  0
  4  8  1  0
  5  6  1  0
  6  7  1  0
  8  7  2  0
  9  2  1  0
  9 15  1  0
 10  9  2  0
 12 11  1  6
 12 14  1  0
 13 12  1  0
 14 15  1  6
 14 16  1  0
 16 18  1  0
 17 16  2  0
 18 19  1  0
 20 22  1  0
 20 19  1  0
 21 20  2  0
M  END
$$$$
