HVG.pdb
     RDKit          3D

 22 22  0  0  1  0  0  0  0  0999 V2000
    9.9010  -13.2554   20.8247 N   0  0  0  0  0  0  0  0  0  0  0  0
    8.6654  -13.8113   21.2953 C   0  0  1  0  0  0  0  0  0  0  0  0
    8.2810  -15.0435   20.5134 C   0  0  0  0  0  0  0  0  0  0  0  0
    8.1231  -14.6448   19.0911 C   0  0  0  0  0  0  0  0  0  0  0  0
    8.3825  -13.3756   18.5732 C   0  0  0  0  0  0  0  0  0  0  0  0
    8.1333  -13.3708   17.2552 N   0  0  0  0  0  0  0  0  0  0  0  0
    7.7253  -14.5992   16.9308 C   0  0  0  0  0  0  0  0  0  0  0  0
    7.7163  -15.3794   18.0410 N   0  0  0  0  0  0  0  0  0  0  0  0
    8.7534  -14.0546   22.7419 C   0  0  0  0  0  0  0  0  0  0  0  0
    9.4566  -13.2886   23.4391 O   0  0  0  0  0  0  0  0  0  0  0  0
    7.8782  -12.5256   24.5665 C   0  0  0  0  0  0  0  0  0  0  0  0
    6.9465  -13.6953   24.9365 C   0  0  2  0  0  0  0  0  0  0  0  0
    6.4114  -13.3722   26.2761 C   0  0  0  0  0  0  0  0  0  0  0  0
    7.7171  -14.9851   24.8123 C   0  0  2  0  0  0  0  0  0  0  0  0
    8.0792  -15.1172   23.3895 N   0  0  0  0  0  0  0  0  0  0  0  0
    6.9862  -16.1831   25.2594 C   0  0  0  0  0  0  0  0  0  0  0  0
    5.7544  -16.0620   25.5801 O   0  0  0  0  0  0  0  0  0  0  0  0
    7.5271  -17.4870   25.3700 N   0  0  0  0  0  0  0  0  0  0  0  0
    7.0083  -18.3867   26.3895 C   0  0  0  0  0  0  0  0  0  0  0  0
    8.0362  -18.7776   27.3679 C   0  0  0  0  0  0  0  0  0  0  0  0
    9.0601  -18.0581   27.4892 O   0  0  0  0  0  0  0  0  0  0  0  0
    7.9507  -19.8980   28.1737 O   0  0  0  0  0  0  0  0  0  0  0  0
  2  1  1  6
  2  3  1  0
  3  4  1  0
  4  5  2  0
  4  8  1  0
  5  6  1  0
  6  7  1  0
  8  7  2  0
  9  2  1  0
  9 15  1  0
 10  9  2  0
 12 11  1  1
 12 14  1  0
 13 12  1  0
 14 15  1  6
 14 16  1  0
 16 18  1  0
 17 16  2  0
 18 19  1  0
 20 22  1  0
 20 19  1  0
 21 20  2  0
M  END
$$$$
