HVG.pdb
     RDKit          3D

 22 22  0  0  1  0  0  0  0  0999 V2000
    8.8331  -15.5728   21.3464 N   0  0  0  0  0  0  0  0  0  0  0  0
    7.8493  -15.7900   22.3673 C   0  0  1  0  0  0  0  0  0  0  0  0
    7.5776  -17.2607   22.5683 C   0  0  0  0  0  0  0  0  0  0  0  0
    6.9593  -17.7803   21.3215 C   0  0  0  0  0  0  0  0  0  0  0  0
    6.7753  -17.0524   20.1456 C   0  0  0  0  0  0  0  0  0  0  0  0
    6.1889  -17.8315   19.2244 N   0  0  0  0  0  0  0  0  0  0  0  0
    5.9997  -19.0264   19.7874 C   0  0  0  0  0  0  0  0  0  0  0  0
    6.4652  -19.0035   21.0618 N   0  0  0  0  0  0  0  0  0  0  0  0
    8.2619  -15.1092   23.6025 C   0  0  0  0  0  0  0  0  0  0  0  0
    9.4819  -14.9100   23.8009 O   0  0  0  0  0  0  0  0  0  0  0  0
    6.6272  -11.9282   25.0375 C   0  0  0  0  0  0  0  0  0  0  0  0
    6.7721  -12.9693   26.1636 C   0  0  2  0  0  0  0  0  0  0  0  0
    7.0060  -12.1922   27.3991 C   0  0  0  0  0  0  0  0  0  0  0  0
    7.8444  -13.9554   25.7752 C   0  0  2  0  0  0  0  0  0  0  0  0
    7.3441  -14.6652   24.5841 N   0  0  0  0  0  0  0  0  0  0  0  0
    8.1986  -14.9238   26.8269 C   0  0  0  0  0  0  0  0  0  0  0  0
    8.7302  -14.4870   27.9046 O   0  0  0  0  0  0  0  0  0  0  0  0
    8.0018  -16.3245   26.7598 N   0  0  0  0  0  0  0  0  0  0  0  0
    8.3233  -17.1429   27.9195 C   0  0  0  0  0  0  0  0  0  0  0  0
    9.7351  -17.5588   27.9381 C   0  0  0  0  0  0  0  0  0  0  0  0
   10.4924  -17.1692   27.0131 O   0  0  0  0  0  0  0  0  0  0  0  0
   10.2926  -18.3599   28.9175 O   0  0  0  0  0  0  0  0  0  0  0  0
  2  1  1  6
  2  3  1  0
  3  4  1  0
  4  5  2  0
  4  8  1  0
  5  6  1  0
  6  7  1  0
  8  7  2  0
  9  2  1  0
  9 15  1  0
 10  9  2  0
 12 11  1  6
 12 14  1  0
 13 12  1  0
 14 15  1  6
 14 16  1  0
 16 18  1  0
 17 16  2  0
 18 19  1  0
 20 22  1  0
 20 19  1  0
 21 20  2  0
M  END
$$$$
