HVG.pdb
     RDKit          3D

 22 22  0  0  1  0  0  0  0  0999 V2000
   10.3496  -16.5828   15.8840 N   0  0  0  0  0  0  0  0  0  0  0  0
    9.7563  -16.9405   17.1399 C   0  0  1  0  0  0  0  0  0  0  0  0
   10.3183  -18.2383   17.6664 C   0  0  0  0  0  0  0  0  0  0  0  0
    9.9374  -19.3142   16.7156 C   0  0  0  0  0  0  0  0  0  0  0  0
    8.8936  -20.2218   16.8971 C   0  0  0  0  0  0  0  0  0  0  0  0
    8.8343  -21.0516   15.8447 N   0  0  0  0  0  0  0  0  0  0  0  0
    9.8099  -20.6915   15.0085 C   0  0  0  0  0  0  0  0  0  0  0  0
   10.4848  -19.6363   15.5305 N   0  0  0  0  0  0  0  0  0  0  0  0
    9.8999  -15.8270   18.0880 C   0  0  0  0  0  0  0  0  0  0  0  0
   10.9383  -15.1291   18.0435 O   0  0  0  0  0  0  0  0  0  0  0  0
    7.3077  -13.0437   18.6491 C   0  0  0  0  0  0  0  0  0  0  0  0
    7.6993  -13.6791   19.9966 C   0  0  2  0  0  0  0  0  0  0  0  0
    7.5407  -12.6093   21.0044 C   0  0  0  0  0  0  0  0  0  0  0  0
    9.0750  -14.2819   19.8652 C   0  0  2  0  0  0  0  0  0  0  0  0
    8.9177  -15.5025   19.0540 N   0  0  0  0  0  0  0  0  0  0  0  0
    9.7276  -14.6079   21.1447 C   0  0  0  0  0  0  0  0  0  0  0  0
   10.0470  -13.6495   21.9285 O   0  0  0  0  0  0  0  0  0  0  0  0
   10.0421  -15.9104   21.6028 N   0  0  0  0  0  0  0  0  0  0  0  0
   10.6673  -16.0725   22.9070 C   0  0  0  0  0  0  0  0  0  0  0  0
   10.8944  -17.4862   23.2480 C   0  0  0  0  0  0  0  0  0  0  0  0
   10.5633  -18.3694   22.4166 O   0  0  0  0  0  0  0  0  0  0  0  0
   11.4548  -17.9147   24.4372 O   0  0  0  0  0  0  0  0  0  0  0  0
  2  1  1  6
  2  3  1  0
  3  4  1  0
  4  5  2  0
  4  8  1  0
  5  6  1  0
  6  7  1  0
  8  7  2  0
  9  2  1  0
  9 15  1  0
 10  9  2  0
 12 11  1  6
 12 14  1  0
 13 12  1  0
 14 15  1  6
 14 16  1  0
 16 18  1  0
 17 16  2  0
 18 19  1  0
 20 22  1  0
 20 19  1  0
 21 20  2  0
M  END
$$$$
