HVG.pdb
     RDKit          3D

 22 22  0  0  1  0  0  0  0  0999 V2000
    8.9611  -15.1415   20.8323 N   0  0  0  0  0  0  0  0  0  0  0  0
    8.3752  -15.8266   21.9478 C   0  0  1  0  0  0  0  0  0  0  0  0
    8.7171  -17.2964   21.9345 C   0  0  0  0  0  0  0  0  0  0  0  0
    8.0755  -17.8986   20.7377 C   0  0  0  0  0  0  0  0  0  0  0  0
    6.8879  -17.4614   20.1504 C   0  0  0  0  0  0  0  0  0  0  0  0
    6.6028  -18.2325   19.0904 N   0  0  0  0  0  0  0  0  0  0  0  0
    7.5761  -19.1403   18.9953 C   0  0  0  0  0  0  0  0  0  0  0  0
    8.4750  -18.9442   19.9927 N   0  0  0  0  0  0  0  0  0  0  0  0
    8.7654  -15.1586   23.1972 C   0  0  0  0  0  0  0  0  0  0  0  0
    9.9752  -14.8995   23.3884 O   0  0  0  0  0  0  0  0  0  0  0  0
    6.9975  -12.2307   25.0429 C   0  0  0  0  0  0  0  0  0  0  0  0
    7.2386  -13.3852   26.0339 C   0  0  2  0  0  0  0  0  0  0  0  0
    7.5002  -12.7434   27.3396 C   0  0  0  0  0  0  0  0  0  0  0  0
    8.3299  -14.2707   25.4881 C   0  0  2  0  0  0  0  0  0  0  0  0
    7.8369  -14.7916   24.2003 N   0  0  0  0  0  0  0  0  0  0  0  0
    8.7137  -15.3868   26.3692 C   0  0  0  0  0  0  0  0  0  0  0  0
    7.8173  -16.2337   26.7070 O   0  0  0  0  0  0  0  0  0  0  0  0
   10.0098  -15.6196   26.8900 N   0  0  0  0  0  0  0  0  0  0  0  0
   10.2537  -16.8193   27.6770 C   0  0  0  0  0  0  0  0  0  0  0  0
   10.4845  -16.5193   29.0994 C   0  0  0  0  0  0  0  0  0  0  0  0
   10.4358  -15.3221   29.4804 O   0  0  0  0  0  0  0  0  0  0  0  0
   10.7551  -17.4782   30.0581 O   0  0  0  0  0  0  0  0  0  0  0  0
  2  1  1  6
  2  3  1  0
  3  4  1  0
  4  5  2  0
  4  8  1  0
  5  6  1  0
  6  7  1  0
  8  7  2  0
  9  2  1  0
  9 15  1  0
 10  9  2  0
 12 11  1  6
 12 14  1  0
 13 12  1  0
 14 15  1  6
 14 16  1  0
 16 18  1  0
 17 16  2  0
 18 19  1  0
 20 22  1  0
 20 19  1  0
 21 20  2  0
M  END
$$$$
