CCY.pdb
     RDKit          3D

 25 25  0  0  1  0  0  0  0  0999 V2000
   27.5402  -10.6371  -18.4906 N   0  0  0  0  0  0  0  0  0  0  0  0
   26.4659  -10.9873  -17.5871 C   0  0  1  0  0  0  0  0  0  0  0  0
   26.9018  -10.9866  -16.1518 C   0  0  0  0  0  0  0  0  0  0  0  0
   28.1275  -12.3031  -15.9207 S   0  0  0  0  0  0  0  0  0  0  0  0
   25.2824  -10.1161  -17.7574 C   0  0  0  0  0  0  0  0  0  0  0  0
   25.4924   -8.9001  -17.9984 O   0  0  0  0  0  0  0  0  0  0  0  0
   23.9396  -10.5345  -17.6723 N   0  0  0  0  0  0  0  0  0  0  0  0
   22.8024   -9.6794  -17.8435 C   0  0  1  0  0  0  0  0  0  0  0  0
   21.7117  -10.2883  -18.6840 C   0  0  0  0  0  0  0  0  0  0  0  0
   22.1944  -10.4652  -20.4158 S   0  0  0  0  0  0  0  0  0  0  0  0
   22.2689   -9.1905  -16.5488 C   0  0  0  0  0  0  0  0  0  0  0  0
   22.4721   -9.8682  -15.5140 O   0  0  0  0  0  0  0  0  0  0  0  0
   25.6357   -3.0059  -16.6819 O   0  0  0  0  0  0  0  0  0  0  0  0
   24.8417   -3.9874  -16.0943 C   0  0  0  0  0  0  0  0  0  0  0  0
   25.1675   -5.3123  -16.2742 C   0  0  0  0  0  0  0  0  0  0  0  0
   24.4052   -6.3116  -15.7079 C   0  0  0  0  0  0  0  0  0  0  0  0
   23.2750   -6.0296  -14.9309 C   0  0  0  0  0  0  0  0  0  0  0  0
   22.4609   -7.1123  -14.3407 C   0  0  0  0  0  0  0  0  0  0  0  0
   21.2218   -7.4527  -15.1068 C   0  0  2  0  0  0  0  0  0  0  0  0
   21.5352   -7.9857  -16.4240 N   0  0  0  0  0  0  0  0  0  0  0  0
   20.3562   -6.2600  -15.2448 C   0  0  0  0  0  0  0  0  0  0  0  0
   19.9628   -5.6920  -16.4264 O   0  0  0  0  0  0  0  0  0  0  0  0
   22.9718   -4.6958  -14.7675 C   0  0  0  0  0  0  0  0  0  0  0  0
   23.7469   -3.6831  -15.3430 C   0  0  0  0  0  0  0  0  0  0  0  0
   19.9228   -5.6864  -14.1859 O   0  0  0  0  0  0  0  0  0  0  0  0
  2  3  1  0
  2  5  1  0
  2  1  1  6
  4  3  1  0
  5  6  2  0
  7  8  1  0
  7  5  1  0
  8 11  1  0
  8  9  1  1
 10  9  1  0
 11 20  1  0
 12 11  2  0
 14 15  2  0
 14 13  1  0
 16 15  1  0
 17 16  2  0
 18 17  1  0
 19 18  1  6
 20 19  1  0
 21 22  1  0
 21 19  1  0
 23 17  1  0
 23 24  2  0
 24 14  1  0
 25 21  2  0
M  END
$$$$
