CCY.pdb
     RDKit          3D

 25 25  0  0  1  0  0  0  0  0999 V2000
   23.7884  -13.9836  -17.3877 N   0  0  0  0  0  0  0  0  0  0  0  0
   23.9985  -12.7650  -18.1386 C   0  0  1  0  0  0  0  0  0  0  0  0
   22.8412  -12.4383  -19.0354 C   0  0  0  0  0  0  0  0  0  0  0  0
   22.7583  -13.6870  -20.3480 S   0  0  0  0  0  0  0  0  0  0  0  0
   24.3026  -11.6115  -17.2636 C   0  0  0  0  0  0  0  0  0  0  0  0
   23.5029  -11.3761  -16.3224 O   0  0  0  0  0  0  0  0  0  0  0  0
   25.4132  -10.7545  -17.3963 N   0  0  0  0  0  0  0  0  0  0  0  0
   25.6882   -9.6323  -16.5485 C   0  0  1  0  0  0  0  0  0  0  0  0
   27.1519   -9.2924  -16.4546 C   0  0  0  0  0  0  0  0  0  0  0  0
   28.1262  -10.6349  -15.7392 S   0  0  0  0  0  0  0  0  0  0  0  0
   24.8859   -8.4408  -16.9179 C   0  0  0  0  0  0  0  0  0  0  0  0
   24.8793   -8.0603  -18.1123 O   0  0  0  0  0  0  0  0  0  0  0  0
   19.0259   -2.7331  -19.3452 O   0  0  0  0  0  0  0  0  0  0  0  0
   19.8574   -3.7605  -18.9070 C   0  0  0  0  0  0  0  0  0  0  0  0
   19.3708   -4.6817  -18.0078 C   0  0  0  0  0  0  0  0  0  0  0  0
   20.1644   -5.7125  -17.5516 C   0  0  0  0  0  0  0  0  0  0  0  0
   21.4893   -5.8700  -17.9766 C   0  0  0  0  0  0  0  0  0  0  0  0
   22.3312   -6.9730  -17.4690 C   0  0  0  0  0  0  0  0  0  0  0  0
   23.3166   -6.5751  -16.4159 C   0  0  2  0  0  0  0  0  0  0  0  0
   24.1210   -7.7063  -15.9794 N   0  0  0  0  0  0  0  0  0  0  0  0
   22.6182   -5.9820  -15.2534 C   0  0  0  0  0  0  0  0  0  0  0  0
   22.2208   -4.6770  -15.1420 O   0  0  0  0  0  0  0  0  0  0  0  0
   21.9503   -4.9341  -18.8761 C   0  0  0  0  0  0  0  0  0  0  0  0
   21.1432   -3.8888  -19.3380 C   0  0  0  0  0  0  0  0  0  0  0  0
   22.3496   -6.7280  -14.2486 O   0  0  0  0  0  0  0  0  0  0  0  0
  2  3  1  0
  2  5  1  0
  2  1  1  1
  4  3  1  0
  5  6  2  0
  7  8  1  0
  7  5  1  0
  8 11  1  0
  8  9  1  6
 10  9  1  0
 11 20  1  0
 12 11  2  0
 14 15  2  0
 14 13  1  0
 16 15  1  0
 17 16  2  0
 18 17  1  0
 19 18  1  6
 20 19  1  0
 21 22  1  0
 21 19  1  0
 23 17  1  0
 23 24  2  0
 24 14  1  0
 25 21  2  0
M  END
$$$$
