CCY.pdb
     RDKit          3D

 25 25  0  0  1  0  0  0  0  0999 V2000
   18.9722  -26.2077   -9.5173 N   0  0  0  0  0  0  0  0  0  0  0  0
   18.6498  -25.2433   -8.4882 C   0  0  1  0  0  0  0  0  0  0  0  0
   17.9735  -24.0229   -9.0389 C   0  0  0  0  0  0  0  0  0  0  0  0
   19.1689  -23.1079  -10.0502 S   0  0  0  0  0  0  0  0  0  0  0  0
   17.8313  -25.8306   -7.4049 C   0  0  0  0  0  0  0  0  0  0  0  0
   17.0754  -26.7883   -7.7087 O   0  0  0  0  0  0  0  0  0  0  0  0
   17.8274  -25.4069   -6.0610 N   0  0  0  0  0  0  0  0  0  0  0  0
   17.0031  -25.9628   -5.0289 C   0  0  1  0  0  0  0  0  0  0  0  0
   17.6986  -27.0107   -4.2011 C   0  0  0  0  0  0  0  0  0  0  0  0
   19.2616  -26.4203   -3.5142 S   0  0  0  0  0  0  0  0  0  0  0  0
   16.4003  -24.9160   -4.1683 C   0  0  0  0  0  0  0  0  0  0  0  0
   17.0893  -23.9166   -3.8556 O   0  0  0  0  0  0  0  0  0  0  0  0
   11.8353  -22.6502   -8.5343 O   0  0  0  0  0  0  0  0  0  0  0  0
   12.4913  -22.6095   -7.3067 C   0  0  0  0  0  0  0  0  0  0  0  0
   13.2036  -23.7103   -6.8884 C   0  0  0  0  0  0  0  0  0  0  0  0
   13.8659  -23.7068   -5.6794 C   0  0  0  0  0  0  0  0  0  0  0  0
   13.8460  -22.5952   -4.8281 C   0  0  0  0  0  0  0  0  0  0  0  0
   14.5509  -22.6114   -3.5296 C   0  0  0  0  0  0  0  0  0  0  0  0
   14.5452  -23.9340   -2.8304 C   0  0  2  0  0  0  0  0  0  0  0  0
   15.0735  -24.9914   -3.6790 N   0  0  0  0  0  0  0  0  0  0  0  0
   13.1738  -24.2821   -2.3958 C   0  0  0  0  0  0  0  0  0  0  0  0
   12.4042  -23.5575   -1.5263 O   0  0  0  0  0  0  0  0  0  0  0  0
   13.1256  -21.5079   -5.2713 C   0  0  0  0  0  0  0  0  0  0  0  0
   12.4542  -21.5134   -6.4988 C   0  0  0  0  0  0  0  0  0  0  0  0
   12.6333  -25.3479   -2.8541 O   0  0  0  0  0  0  0  0  0  0  0  0
  2  3  1  0
  2  5  1  0
  2  1  1  6
  4  3  1  0
  5  6  2  0
  7  8  1  0
  7  5  1  0
  8 11  1  0
  8  9  1  1
 10  9  1  0
 11 20  1  0
 12 11  2  0
 14 15  2  0
 14 13  1  0
 16 15  1  0
 17 16  2  0
 18 17  1  0
 19 18  1  6
 20 19  1  0
 21 22  1  0
 21 19  1  0
 23 17  1  0
 23 24  2  0
 24 14  1  0
 25 21  2  0
M  END
$$$$
