CCY.pdb
     RDKit          3D

 25 25  0  0  1  0  0  0  0  0999 V2000
   16.0839  -12.3700  -14.5656 N   0  0  0  0  0  0  0  0  0  0  0  0
   17.0768  -12.1047  -15.5838 C   0  0  1  0  0  0  0  0  0  0  0  0
   16.7385  -12.7496  -16.8952 C   0  0  0  0  0  0  0  0  0  0  0  0
   17.1427  -14.5145  -16.7912 S   0  0  0  0  0  0  0  0  0  0  0  0
   17.3101  -10.6566  -15.7767 C   0  0  0  0  0  0  0  0  0  0  0  0
   16.5960  -10.0665  -16.6269 O   0  0  0  0  0  0  0  0  0  0  0  0
   18.2652   -9.8829  -15.0878 N   0  0  0  0  0  0  0  0  0  0  0  0
   18.3581   -8.4540  -15.1453 C   0  0  1  0  0  0  0  0  0  0  0  0
   17.0874   -7.7510  -14.7479 C   0  0  0  0  0  0  0  0  0  0  0  0
   16.6463   -8.0492  -13.0217 S   0  0  0  0  0  0  0  0  0  0  0  0
   19.5171   -7.9365  -14.3780 C   0  0  0  0  0  0  0  0  0  0  0  0
   19.7536   -8.4112  -13.2422 O   0  0  0  0  0  0  0  0  0  0  0  0
   23.4691  -12.3837  -16.2460 O   0  0  0  0  0  0  0  0  0  0  0  0
   23.2989  -11.0319  -15.9585 C   0  0  0  0  0  0  0  0  0  0  0  0
   23.7028  -10.5490  -14.7347 C   0  0  0  0  0  0  0  0  0  0  0  0
   23.5505   -9.2168  -14.4145 C   0  0  0  0  0  0  0  0  0  0  0  0
   22.9837   -8.3010  -15.3093 C   0  0  0  0  0  0  0  0  0  0  0  0
   22.8159   -6.8784  -14.9466 C   0  0  0  0  0  0  0  0  0  0  0  0
   21.5891   -6.5771  -14.1451 C   0  0  2  0  0  0  0  0  0  0  0  0
   20.3762   -6.9239  -14.8701 N   0  0  0  0  0  0  0  0  0  0  0  0
   21.5549   -5.1449  -13.7727 C   0  0  0  0  0  0  0  0  0  0  0  0
   22.4463   -4.5132  -12.9483 O   0  0  0  0  0  0  0  0  0  0  0  0
   22.5882   -8.8112  -16.5262 C   0  0  0  0  0  0  0  0  0  0  0  0
   22.7439  -10.1636  -16.8492 C   0  0  0  0  0  0  0  0  0  0  0  0
   20.6222   -4.4067  -14.2454 O   0  0  0  0  0  0  0  0  0  0  0  0
  2  3  1  0
  2  5  1  0
  2  1  1  1
  4  3  1  0
  5  6  2  0
  7  8  1  0
  7  5  1  0
  8 11  1  0
  8  9  1  1
 10  9  1  0
 11 20  1  0
 12 11  2  0
 14 15  2  0
 14 13  1  0
 16 15  1  0
 17 16  2  0
 18 17  1  0
 19 18  1  6
 20 19  1  0
 21 22  1  0
 21 19  1  0
 23 17  1  0
 23 24  2  0
 24 14  1  0
 25 21  2  0
M  END
$$$$
