CCY.pdb
     RDKit          3D

 25 25  0  0  1  0  0  0  0  0999 V2000
   20.4409  -13.8638  -17.5040 N   0  0  0  0  0  0  0  0  0  0  0  0
   20.8349  -12.5804  -18.0432 C   0  0  1  0  0  0  0  0  0  0  0  0
   20.1667  -12.2799  -19.3522 C   0  0  0  0  0  0  0  0  0  0  0  0
   20.7855  -13.4451  -20.5965 S   0  0  0  0  0  0  0  0  0  0  0  0
   20.6001  -11.4745  -17.0891 C   0  0  0  0  0  0  0  0  0  0  0  0
   19.4730  -11.4220  -16.5343 O   0  0  0  0  0  0  0  0  0  0  0  0
   21.5335  -10.4750  -16.7496 N   0  0  0  0  0  0  0  0  0  0  0  0
   21.3179   -9.4511  -15.7704 C   0  0  1  0  0  0  0  0  0  0  0  0
   22.4122   -9.3626  -14.7401 C   0  0  0  0  0  0  0  0  0  0  0  0
   22.1263   -8.0397  -13.5436 S   0  0  0  0  0  0  0  0  0  0  0  0
   21.0597   -8.1285  -16.3900 C   0  0  0  0  0  0  0  0  0  0  0  0
   21.8279   -7.7211  -17.2930 O   0  0  0  0  0  0  0  0  0  0  0  0
   17.4980   -1.0222  -20.0750 O   0  0  0  0  0  0  0  0  0  0  0  0
   17.8221   -2.2481  -19.4995 C   0  0  0  0  0  0  0  0  0  0  0  0
   16.8587   -2.9373  -18.7989 C   0  0  0  0  0  0  0  0  0  0  0  0
   17.1425   -4.1537  -18.2157 C   0  0  0  0  0  0  0  0  0  0  0  0
   18.4108   -4.7401  -18.3071 C   0  0  0  0  0  0  0  0  0  0  0  0
   18.7029   -6.0388  -17.6658 C   0  0  0  0  0  0  0  0  0  0  0  0
   19.7932   -6.0006  -16.6421 C   0  0  2  0  0  0  0  0  0  0  0  0
   19.9789   -7.2970  -16.0079 N   0  0  0  0  0  0  0  0  0  0  0  0
   19.4983   -4.9795  -15.6119 C   0  0  0  0  0  0  0  0  0  0  0  0
   19.7999   -3.6473  -15.6996 O   0  0  0  0  0  0  0  0  0  0  0  0
   19.3555   -4.0288  -19.0135 C   0  0  0  0  0  0  0  0  0  0  0  0
   19.0654   -2.7944  -19.6048 C   0  0  0  0  0  0  0  0  0  0  0  0
   18.9121   -5.3424  -14.5335 O   0  0  0  0  0  0  0  0  0  0  0  0
  2  3  1  0
  2  5  1  0
  2  1  1  1
  4  3  1  0
  5  6  2  0
  7  8  1  0
  7  5  1  0
  8 11  1  0
  8  9  1  1
 10  9  1  0
 11 20  1  0
 12 11  2  0
 14 15  2  0
 14 13  1  0
 16 15  1  0
 17 16  2  0
 18 17  1  0
 19 18  1  6
 20 19  1  0
 21 22  1  0
 21 19  1  0
 23 17  1  0
 23 24  2  0
 24 14  1  0
 25 21  2  0
M  END
$$$$
