CCY.pdb
     RDKit          3D

 25 25  0  0  1  0  0  0  0  0999 V2000
   27.3792  -14.9345  -18.4266 N   0  0  0  0  0  0  0  0  0  0  0  0
   27.7860  -15.6888  -17.2611 C   0  0  1  0  0  0  0  0  0  0  0  0
   27.1470  -15.1844  -16.0011 C   0  0  0  0  0  0  0  0  0  0  0  0
   28.1282  -13.7944  -15.3732 S   0  0  0  0  0  0  0  0  0  0  0  0
   27.5312  -17.1381  -17.4131 C   0  0  0  0  0  0  0  0  0  0  0  0
   26.4200  -17.4805  -17.8914 O   0  0  0  0  0  0  0  0  0  0  0  0
   28.4293  -18.1672  -17.0669 N   0  0  0  0  0  0  0  0  0  0  0  0
   28.1018  -19.5619  -17.0279 C   0  0  1  0  0  0  0  0  0  0  0  0
   29.1865  -20.4511  -17.5753 C   0  0  0  0  0  0  0  0  0  0  0  0
   28.9059  -22.1944  -17.1934 S   0  0  0  0  0  0  0  0  0  0  0  0
   27.6831  -20.0016  -15.6747 C   0  0  0  0  0  0  0  0  0  0  0  0
   28.3278  -19.5970  -14.6787 O   0  0  0  0  0  0  0  0  0  0  0  0
   23.6579  -21.1669   -8.1556 O   0  0  0  0  0  0  0  0  0  0  0  0
   24.2098  -20.8787   -9.4012 C   0  0  0  0  0  0  0  0  0  0  0  0
   23.3859  -20.8071  -10.5011 C   0  0  0  0  0  0  0  0  0  0  0  0
   23.8962  -20.5239  -11.7500 C   0  0  0  0  0  0  0  0  0  0  0  0
   25.2624  -20.2980  -11.9572 C   0  0  0  0  0  0  0  0  0  0  0  0
   25.7959  -20.0078  -13.3042 C   0  0  0  0  0  0  0  0  0  0  0  0
   26.1907  -21.2149  -14.0949 C   0  0  2  0  0  0  0  0  0  0  0  0
   26.5815  -20.8631  -15.4516 N   0  0  0  0  0  0  0  0  0  0  0  0
   25.0797  -22.1924  -14.1339 C   0  0  0  0  0  0  0  0  0  0  0  0
   24.8492  -23.1755  -13.2100 O   0  0  0  0  0  0  0  0  0  0  0  0
   26.0638  -20.3761  -10.8395 C   0  0  0  0  0  0  0  0  0  0  0  0
   25.5438  -20.6635   -9.5727 C   0  0  0  0  0  0  0  0  0  0  0  0
   24.2461  -22.1405  -15.1037 O   0  0  0  0  0  0  0  0  0  0  0  0
  2  3  1  0
  2  5  1  0
  2  1  1  6
  4  3  1  0
  5  6  2  0
  7  8  1  0
  7  5  1  0
  8 11  1  0
  8  9  1  1
 10  9  1  0
 11 20  1  0
 12 11  2  0
 14 15  2  0
 14 13  1  0
 16 15  1  0
 17 16  2  0
 18 17  1  0
 19 18  1  1
 20 19  1  0
 21 22  1  0
 21 19  1  0
 23 17  1  0
 23 24  2  0
 24 14  1  0
 25 21  2  0
M  END
$$$$
