CCY.pdb
     RDKit          3D

 25 25  0  0  1  0  0  0  0  0999 V2000
   20.6019  -12.6912  -17.2951 N   0  0  0  0  0  0  0  0  0  0  0  0
   20.3367  -11.7891  -18.3945 C   0  0  1  0  0  0  0  0  0  0  0  0
   19.3203  -12.3368  -19.3522 C   0  0  0  0  0  0  0  0  0  0  0  0
   19.9486  -13.8971  -20.0301 S   0  0  0  0  0  0  0  0  0  0  0  0
   19.9242  -10.4458  -17.9317 C   0  0  0  0  0  0  0  0  0  0  0  0
   19.7633   -9.5589  -18.8083 O   0  0  0  0  0  0  0  0  0  0  0  0
   19.6966  -10.0768  -16.5910 N   0  0  0  0  0  0  0  0  0  0  0  0
   19.3627   -8.7546  -16.1504 C   0  0  1  0  0  0  0  0  0  0  0  0
   17.9841   -8.6482  -15.5544 C   0  0  0  0  0  0  0  0  0  0  0  0
   17.6969   -9.8754  -14.2602 S   0  0  0  0  0  0  0  0  0  0  0  0
   20.3853   -8.1942  -15.2340 C   0  0  0  0  0  0  0  0  0  0  0  0
   20.9545   -8.9587  -14.4197 O   0  0  0  0  0  0  0  0  0  0  0  0
   26.2984   -4.5015  -18.7636 O   0  0  0  0  0  0  0  0  0  0  0  0
   25.5334   -5.1099  -17.7718 C   0  0  0  0  0  0  0  0  0  0  0  0
   24.9679   -6.3399  -18.0188 C   0  0  0  0  0  0  0  0  0  0  0  0
   24.2046   -6.9729  -17.0612 C   0  0  0  0  0  0  0  0  0  0  0  0
   23.9706   -6.4009  -15.8047 C   0  0  0  0  0  0  0  0  0  0  0  0
   23.1399   -7.0863  -14.7931 C   0  0  0  0  0  0  0  0  0  0  0  0
   21.8770   -6.3708  -14.4306 C   0  0  2  0  0  0  0  0  0  0  0  0
   20.7529   -6.8266  -15.2342 N   0  0  0  0  0  0  0  0  0  0  0  0
   22.0466   -4.9094  -14.5944 C   0  0  0  0  0  0  0  0  0  0  0  0
   22.6822   -4.0763  -13.7139 O   0  0  0  0  0  0  0  0  0  0  0  0
   24.5481   -5.1698  -15.5845 C   0  0  0  0  0  0  0  0  0  0  0  0
   25.3226   -4.5292  -16.5578 C   0  0  0  0  0  0  0  0  0  0  0  0
   21.5673   -4.3459  -15.6389 O   0  0  0  0  0  0  0  0  0  0  0  0
  2  3  1  0
  2  5  1  0
  2  1  1  1
  4  3  1  0
  5  6  2  0
  7  8  1  0
  7  5  1  0
  8 11  1  0
  8  9  1  1
 10  9  1  0
 11 20  1  0
 12 11  2  0
 14 15  2  0
 14 13  1  0
 16 15  1  0
 17 16  2  0
 18 17  1  0
 19 18  1  6
 20 19  1  0
 21 22  1  0
 21 19  1  0
 23 17  1  0
 23 24  2  0
 24 14  1  0
 25 21  2  0
M  END
$$$$
