CCY.pdb
     RDKit          3D

 25 25  0  0  1  0  0  0  0  0999 V2000
   22.9263  -32.0501  -10.5017 N   0  0  0  0  0  0  0  0  0  0  0  0
   23.8388  -33.0569  -10.0050 C   0  0  1  0  0  0  0  0  0  0  0  0
   25.0403  -33.2258  -10.8872 C   0  0  0  0  0  0  0  0  0  0  0  0
   24.4892  -33.8455  -12.4999 S   0  0  0  0  0  0  0  0  0  0  0  0
   24.2654  -32.7907   -8.6137 C   0  0  0  0  0  0  0  0  0  0  0  0
   24.4077  -31.5883   -8.2750 O   0  0  0  0  0  0  0  0  0  0  0  0
   24.5256  -33.7715   -7.6361 N   0  0  0  0  0  0  0  0  0  0  0  0
   24.9098  -33.4979   -6.2828 C   0  0  1  0  0  0  0  0  0  0  0  0
   23.8395  -33.8232   -5.2750 C   0  0  0  0  0  0  0  0  0  0  0  0
   22.1796  -33.4737   -5.8962 S   0  0  0  0  0  0  0  0  0  0  0  0
   26.1955  -34.1442   -5.9237 C   0  0  0  0  0  0  0  0  0  0  0  0
   26.6054  -35.1057   -6.6157 O   0  0  0  0  0  0  0  0  0  0  0  0
   34.4303  -36.0080   -3.6711 O   0  0  0  0  0  0  0  0  0  0  0  0
   33.2111  -35.4057   -3.9706 C   0  0  0  0  0  0  0  0  0  0  0  0
   32.4502  -34.8841   -2.9494 C   0  0  0  0  0  0  0  0  0  0  0  0
   31.2381  -34.2804   -3.2075 C   0  0  0  0  0  0  0  0  0  0  0  0
   30.7284  -34.1699   -4.5071 C   0  0  0  0  0  0  0  0  0  0  0  0
   29.4216  -33.5309   -4.7662 C   0  0  0  0  0  0  0  0  0  0  0  0
   28.2355  -34.4095   -4.5225 C   0  0  2  0  0  0  0  0  0  0  0  0
   26.9888  -33.7244   -4.8282 N   0  0  0  0  0  0  0  0  0  0  0  0
   28.2174  -34.8738   -3.1171 C   0  0  0  0  0  0  0  0  0  0  0  0
   28.7880  -36.0271   -2.6503 O   0  0  0  0  0  0  0  0  0  0  0  0
   31.5102  -34.7005   -5.5095 C   0  0  0  0  0  0  0  0  0  0  0  0
   32.7402  -35.3127   -5.2454 C   0  0  0  0  0  0  0  0  0  0  0  0
   27.6233  -34.1575   -2.2383 O   0  0  0  0  0  0  0  0  0  0  0  0
  2  3  1  0
  2  5  1  0
  2  1  1  6
  4  3  1  0
  5  6  2  0
  7  8  1  0
  7  5  1  0
  8 11  1  0
  8  9  1  1
 10  9  1  0
 11 20  1  0
 12 11  2  0
 14 15  2  0
 14 13  1  0
 16 15  1  0
 17 16  2  0
 18 17  1  0
 19 18  1  1
 20 19  1  0
 21 22  1  0
 21 19  1  0
 23 17  1  0
 23 24  2  0
 24 14  1  0
 25 21  2  0
M  END
$$$$
