CCY.pdb
     RDKit          3D

 25 25  0  0  1  0  0  0  0  0999 V2000
   25.4940  -16.2821  -18.1210 N   0  0  0  0  0  0  0  0  0  0  0  0
   24.5112  -17.3413  -18.1934 C   0  0  1  0  0  0  0  0  0  0  0  0
   25.1311  -18.6798  -18.4660 C   0  0  0  0  0  0  0  0  0  0  0  0
   25.7228  -18.7031  -20.1802 S   0  0  0  0  0  0  0  0  0  0  0  0
   23.6698  -17.4108  -16.9786 C   0  0  0  0  0  0  0  0  0  0  0  0
   24.2527  -17.3186  -15.8684 O   0  0  0  0  0  0  0  0  0  0  0  0
   22.2701  -17.5716  -16.9611 N   0  0  0  0  0  0  0  0  0  0  0  0
   21.4664  -17.6275  -15.7759 C   0  0  1  0  0  0  0  0  0  0  0  0
   20.1465  -16.9154  -15.9086 C   0  0  0  0  0  0  0  0  0  0  0  0
   19.1323  -17.0618  -14.4209 S   0  0  0  0  0  0  0  0  0  0  0  0
   21.2773  -19.0167  -15.2919 C   0  0  0  0  0  0  0  0  0  0  0  0
   20.9351  -19.9028  -16.1098 O   0  0  0  0  0  0  0  0  0  0  0  0
   26.8868  -22.2658  -16.2778 O   0  0  0  0  0  0  0  0  0  0  0  0
   25.7825  -22.0718  -15.4520 C   0  0  0  0  0  0  0  0  0  0  0  0
   25.6795  -20.9044  -14.7307 C   0  0  0  0  0  0  0  0  0  0  0  0
   24.6008  -20.6770  -13.9030 C   0  0  0  0  0  0  0  0  0  0  0  0
   23.5694  -21.6129  -13.7580 C   0  0  0  0  0  0  0  0  0  0  0  0
   22.4257  -21.3599  -12.8572 C   0  0  0  0  0  0  0  0  0  0  0  0
   21.2243  -20.7661  -13.5221 C   0  0  2  0  0  0  0  0  0  0  0  0
   21.4662  -19.3935  -13.9399 N   0  0  0  0  0  0  0  0  0  0  0  0
   20.0563  -20.8122  -12.6140 C   0  0  0  0  0  0  0  0  0  0  0  0
   19.3891  -19.7256  -12.1165 O   0  0  0  0  0  0  0  0  0  0  0  0
   23.6982  -22.7721  -14.4910 C   0  0  0  0  0  0  0  0  0  0  0  0
   24.7938  -23.0008  -15.3306 C   0  0  0  0  0  0  0  0  0  0  0  0
   19.6082  -21.9521  -12.2426 O   0  0  0  0  0  0  0  0  0  0  0  0
  2  3  1  0
  2  5  1  0
  2  1  1  1
  4  3  1  0
  5  6  2  0
  7  8  1  0
  7  5  1  0
  8 11  1  0
  8  9  1  6
 10  9  1  0
 11 20  1  0
 12 11  2  0
 14 15  2  0
 14 13  1  0
 16 15  1  0
 17 16  2  0
 18 17  1  0
 19 18  1  1
 20 19  1  0
 21 22  1  0
 21 19  1  0
 23 17  1  0
 23 24  2  0
 24 14  1  0
 25 21  2  0
M  END
$$$$
