CCY.pdb
     RDKit          3D

 25 25  0  0  1  0  0  0  0  0999 V2000
   18.0874  -12.3741  -15.7841 N   0  0  0  0  0  0  0  0  0  0  0  0
   17.8652  -10.9834  -16.1150 C   0  0  1  0  0  0  0  0  0  0  0  0
   16.6494  -10.4214  -15.4396 C   0  0  0  0  0  0  0  0  0  0  0  0
   15.1749  -11.1153  -16.2354 S   0  0  0  0  0  0  0  0  0  0  0  0
   19.0443  -10.1404  -15.8189 C   0  0  0  0  0  0  0  0  0  0  0  0
   19.6448  -10.3505  -14.7345 O   0  0  0  0  0  0  0  0  0  0  0  0
   19.5510   -9.1217  -16.6502 N   0  0  0  0  0  0  0  0  0  0  0  0
   20.7021   -8.3205  -16.3557 C   0  0  1  0  0  0  0  0  0  0  0  0
   21.5250   -7.9788  -17.5693 C   0  0  0  0  0  0  0  0  0  0  0  0
   22.3349   -9.4276  -18.2825 S   0  0  0  0  0  0  0  0  0  0  0  0
   20.3545   -7.1015  -15.5858 C   0  0  0  0  0  0  0  0  0  0  0  0
   19.2586   -6.5351  -15.8085 O   0  0  0  0  0  0  0  0  0  0  0  0
   17.4153   -2.1623   -9.2619 O   0  0  0  0  0  0  0  0  0  0  0  0
   17.9297   -3.0823  -10.1719 C   0  0  0  0  0  0  0  0  0  0  0  0
   18.5037   -4.2420   -9.7035 C   0  0  0  0  0  0  0  0  0  0  0  0
   19.0233   -5.1760  -10.5742 C   0  0  0  0  0  0  0  0  0  0  0  0
   18.9923   -4.9916  -11.9619 C   0  0  0  0  0  0  0  0  0  0  0  0
   19.5647   -5.9964  -12.8817 C   0  0  0  0  0  0  0  0  0  0  0  0
   20.7121   -5.5075  -13.7078 C   0  0  2  0  0  0  0  0  0  0  0  0
   21.2073   -6.5419  -14.6034 N   0  0  0  0  0  0  0  0  0  0  0  0
   21.8112   -5.0350  -12.8361 C   0  0  0  0  0  0  0  0  0  0  0  0
   22.9096   -5.7651  -12.4704 O   0  0  0  0  0  0  0  0  0  0  0  0
   18.4126   -3.8224  -12.4030 C   0  0  0  0  0  0  0  0  0  0  0  0
   17.8857   -2.8758  -11.5176 C   0  0  0  0  0  0  0  0  0  0  0  0
   21.7584   -3.8454  -12.3668 O   0  0  0  0  0  0  0  0  0  0  0  0
  2  3  1  0
  2  5  1  0
  2  1  1  1
  4  3  1  0
  5  6  2  0
  7  8  1  0
  7  5  1  0
  8 11  1  0
  8  9  1  6
 10  9  1  0
 11 20  1  0
 12 11  2  0
 14 15  2  0
 14 13  1  0
 16 15  1  0
 17 16  2  0
 18 17  1  0
 19 18  1  1
 20 19  1  0
 21 22  1  0
 21 19  1  0
 23 17  1  0
 23 24  2  0
 24 14  1  0
 25 21  2  0
M  END
$$$$
