CCY.pdb
     RDKit          3D

 25 25  0  0  1  0  0  0  0  0999 V2000
   30.9536  -32.1612    8.1283 N   0  0  0  0  0  0  0  0  0  0  0  0
   29.9827  -32.2606    7.0603 C   0  0  1  0  0  0  0  0  0  0  0  0
   29.3534  -30.9387    6.7337 C   0  0  0  0  0  0  0  0  0  0  0  0
   30.2350  -29.6401    7.6422 S   0  0  0  0  0  0  0  0  0  0  0  0
   30.5535  -32.8659    5.8371 C   0  0  0  0  0  0  0  0  0  0  0  0
   31.7774  -33.1533    5.8539 O   0  0  0  0  0  0  0  0  0  0  0  0
   29.8409  -33.1475    4.6546 N   0  0  0  0  0  0  0  0  0  0  0  0
   30.3439  -33.9234    3.5597 C   0  0  1  0  0  0  0  0  0  0  0  0
   30.7410  -35.3235    3.9455 C   0  0  0  0  0  0  0  0  0  0  0  0
   29.6443  -36.0309    5.1946 S   0  0  0  0  0  0  0  0  0  0  0  0
   29.4138  -33.9313    2.4044 C   0  0  0  0  0  0  0  0  0  0  0  0
   28.3472  -33.2771    2.4797 O   0  0  0  0  0  0  0  0  0  0  0  0
   25.0496  -32.1814   -4.6773 O   0  0  0  0  0  0  0  0  0  0  0  0
   25.9777  -32.4285   -3.6691 C   0  0  0  0  0  0  0  0  0  0  0  0
   25.6820  -32.0567   -2.3774 C   0  0  0  0  0  0  0  0  0  0  0  0
   26.5759  -32.2852   -1.3532 C   0  0  0  0  0  0  0  0  0  0  0  0
   27.8143  -32.8998   -1.5754 C   0  0  0  0  0  0  0  0  0  0  0  0
   28.7670  -33.1267   -0.4690 C   0  0  0  0  0  0  0  0  0  0  0  0
   28.7787  -34.5217    0.0713 C   0  0  2  0  0  0  0  0  0  0  0  0
   29.6744  -34.6479    1.2110 N   0  0  0  0  0  0  0  0  0  0  0  0
   29.1767  -35.4805   -0.9839 C   0  0  0  0  0  0  0  0  0  0  0  0
   28.3204  -36.2180   -1.7560 O   0  0  0  0  0  0  0  0  0  0  0  0
   28.0844  -33.2611   -2.8770 C   0  0  0  0  0  0  0  0  0  0  0  0
   27.1756  -33.0285   -3.9150 C   0  0  0  0  0  0  0  0  0  0  0  0
   30.4224  -35.6586   -1.2176 O   0  0  0  0  0  0  0  0  0  0  0  0
  2  3  1  0
  2  5  1  0
  2  1  1  1
  4  3  1  0
  5  6  2  0
  7  8  1  0
  7  5  1  0
  8 11  1  0
  8  9  1  1
 10  9  1  0
 11 20  1  0
 12 11  2  0
 14 15  2  0
 14 13  1  0
 16 15  1  0
 17 16  2  0
 18 17  1  0
 19 18  1  6
 20 19  1  0
 21 22  1  0
 21 19  1  0
 23 17  1  0
 23 24  2  0
 24 14  1  0
 25 21  2  0
M  END
$$$$
