CCY.pdb
     RDKit          3D

 25 25  0  0  1  0  0  0  0  0999 V2000
   19.9111   -8.7800  -21.8487 N   0  0  0  0  0  0  0  0  0  0  0  0
   19.5141   -8.6159  -20.4672 C   0  0  1  0  0  0  0  0  0  0  0  0
   19.6379   -9.8874  -19.6810 C   0  0  0  0  0  0  0  0  0  0  0  0
   18.9611   -9.6078  -18.0219 S   0  0  0  0  0  0  0  0  0  0  0  0
   20.2593   -7.5295  -19.7941 C   0  0  0  0  0  0  0  0  0  0  0  0
   21.5147   -7.5753  -19.8445 O   0  0  0  0  0  0  0  0  0  0  0  0
   19.6803   -6.4477  -19.1013 N   0  0  0  0  0  0  0  0  0  0  0  0
   20.4155   -5.4102  -18.4404 C   0  0  1  0  0  0  0  0  0  0  0  0
   20.1658   -4.0387  -19.0092 C   0  0  0  0  0  0  0  0  0  0  0  0
   20.6677   -3.9091  -20.7398 S   0  0  0  0  0  0  0  0  0  0  0  0
   20.2086   -5.4249  -16.9718 C   0  0  0  0  0  0  0  0  0  0  0  0
   19.0469   -5.5715  -16.5242 O   0  0  0  0  0  0  0  0  0  0  0  0
   24.0968  -11.0832  -15.2709 O   0  0  0  0  0  0  0  0  0  0  0  0
   23.2233  -10.0199  -15.0578 C   0  0  0  0  0  0  0  0  0  0  0  0
   22.6620   -9.8504  -13.8127 C   0  0  0  0  0  0  0  0  0  0  0  0
   21.7932   -8.8093  -13.5642 C   0  0  0  0  0  0  0  0  0  0  0  0
   21.4440   -7.8844  -14.5557 C   0  0  0  0  0  0  0  0  0  0  0  0
   20.5016   -6.7810  -14.2771 C   0  0  0  0  0  0  0  0  0  0  0  0
   21.0154   -5.4177  -14.6171 C   0  0  2  0  0  0  0  0  0  0  0  0
   21.2682   -5.2803  -16.0434 N   0  0  0  0  0  0  0  0  0  0  0  0
   22.2551   -5.1300  -13.8613 C   0  0  0  0  0  0  0  0  0  0  0  0
   22.3974   -5.2088  -12.5022 O   0  0  0  0  0  0  0  0  0  0  0  0
   22.0199   -8.0779  -15.7920 C   0  0  0  0  0  0  0  0  0  0  0  0
   22.9016   -9.1351  -16.0422 C   0  0  0  0  0  0  0  0  0  0  0  0
   23.3017   -4.7728  -14.5056 O   0  0  0  0  0  0  0  0  0  0  0  0
  2  3  1  0
  2  5  1  0
  2  1  1  6
  4  3  1  0
  5  6  2  0
  7  8  1  0
  7  5  1  0
  8 11  1  0
  8  9  1  6
 10  9  1  0
 11 20  1  0
 12 11  2  0
 14 15  2  0
 14 13  1  0
 16 15  1  0
 17 16  2  0
 18 17  1  0
 19 18  1  6
 20 19  1  0
 21 22  1  0
 21 19  1  0
 23 17  1  0
 23 24  2  0
 24 14  1  0
 25 21  2  0
M  END
$$$$
