CCY.pdb
     RDKit          3D

 25 25  0  0  1  0  0  0  0  0999 V2000
   13.7371  -20.9977    1.1483 N   0  0  0  0  0  0  0  0  0  0  0  0
   15.0008  -20.8284    1.8320 C   0  0  1  0  0  0  0  0  0  0  0  0
   16.0056  -20.0854    1.0023 C   0  0  0  0  0  0  0  0  0  0  0  0
   16.8699  -21.2751   -0.0591 S   0  0  0  0  0  0  0  0  0  0  0  0
   14.8437  -20.1697    3.1473 C   0  0  0  0  0  0  0  0  0  0  0  0
   13.7349  -19.6299    3.3923 O   0  0  0  0  0  0  0  0  0  0  0  0
   15.8323  -20.0964    4.1487 N   0  0  0  0  0  0  0  0  0  0  0  0
   15.6482  -19.5027    5.4400 C   0  0  1  0  0  0  0  0  0  0  0  0
   15.0156  -20.4289    6.4444 C   0  0  0  0  0  0  0  0  0  0  0  0
   15.8141  -22.0487    6.4862 S   0  0  0  0  0  0  0  0  0  0  0  0
   16.9025  -18.9157    5.9709 C   0  0  0  0  0  0  0  0  0  0  0  0
   17.9894  -19.4959    5.7396 O   0  0  0  0  0  0  0  0  0  0  0  0
   16.5764  -12.4674    2.9014 O   0  0  0  0  0  0  0  0  0  0  0  0
   17.1736  -13.4782    3.6503 C   0  0  0  0  0  0  0  0  0  0  0  0
   17.1421  -14.7711    3.1801 C   0  0  0  0  0  0  0  0  0  0  0  0
   17.7227  -15.7978    3.8936 C   0  0  0  0  0  0  0  0  0  0  0  0
   18.3654  -15.5768    5.1179 C   0  0  0  0  0  0  0  0  0  0  0  0
   18.9723  -16.6898    5.8770 C   0  0  0  0  0  0  0  0  0  0  0  0
   18.2045  -17.1130    7.0892 C   0  0  2  0  0  0  0  0  0  0  0  0
   16.9322  -17.7221    6.7325 N   0  0  0  0  0  0  0  0  0  0  0  0
   17.9701  -15.9557    7.9818 C   0  0  0  0  0  0  0  0  0  0  0  0
   18.9390  -15.2417    8.6337 O   0  0  0  0  0  0  0  0  0  0  0  0
   18.3819  -14.2739    5.5648 C   0  0  0  0  0  0  0  0  0  0  0  0
   17.7921  -13.2333    4.8389 C   0  0  0  0  0  0  0  0  0  0  0  0
   16.7679  -15.5650    8.1826 O   0  0  0  0  0  0  0  0  0  0  0  0
  2  3  1  0
  2  5  1  0
  2  1  1  6
  4  3  1  0
  5  6  2  0
  7  8  1  0
  7  5  1  0
  8 11  1  0
  8  9  1  1
 10  9  1  0
 11 20  1  0
 12 11  2  0
 14 15  2  0
 14 13  1  0
 16 15  1  0
 17 16  2  0
 18 17  1  0
 19 18  1  6
 20 19  1  0
 21 22  1  0
 21 19  1  0
 23 17  1  0
 23 24  2  0
 24 14  1  0
 25 21  2  0
M  END
$$$$
