CCY.pdb
     RDKit          3D

 25 25  0  0  1  0  0  0  0  0999 V2000
   25.7840  -12.5244  -17.1300 N   0  0  0  0  0  0  0  0  0  0  0  0
   25.7020  -11.4943  -16.1175 C   0  0  1  0  0  0  0  0  0  0  0  0
   27.0227  -10.8268  -15.8715 C   0  0  0  0  0  0  0  0  0  0  0  0
   28.1752  -12.0572  -15.2030 S   0  0  0  0  0  0  0  0  0  0  0  0
   24.6723  -10.4795  -16.4310 C   0  0  0  0  0  0  0  0  0  0  0  0
   24.6369  -10.0395  -17.6083 O   0  0  0  0  0  0  0  0  0  0  0  0
   23.7276   -9.9644  -15.5211 N   0  0  0  0  0  0  0  0  0  0  0  0
   22.7038   -9.0175  -15.8510 C   0  0  1  0  0  0  0  0  0  0  0  0
   21.3992   -9.2693  -15.1429 C   0  0  0  0  0  0  0  0  0  0  0  0
   20.9229  -11.0116  -15.1757 S   0  0  0  0  0  0  0  0  0  0  0  0
   23.1533   -7.6170  -15.6602 C   0  0  0  0  0  0  0  0  0  0  0  0
   23.7559   -7.3116  -14.6042 O   0  0  0  0  0  0  0  0  0  0  0  0
   25.6893    0.7438  -17.3703 O   0  0  0  0  0  0  0  0  0  0  0  0
   25.2614   -0.5794  -17.4422 C   0  0  0  0  0  0  0  0  0  0  0  0
   26.1913   -1.5914  -17.3711 C   0  0  0  0  0  0  0  0  0  0  0  0
   25.8052   -2.9130  -17.4385 C   0  0  0  0  0  0  0  0  0  0  0  0
   24.4629   -3.2852  -17.5811 C   0  0  0  0  0  0  0  0  0  0  0  0
   24.0661   -4.7061  -17.6644 C   0  0  0  0  0  0  0  0  0  0  0  0
   23.4724   -5.2651  -16.4101 C   0  0  2  0  0  0  0  0  0  0  0  0
   22.9329   -6.5999  -16.6207 N   0  0  0  0  0  0  0  0  0  0  0  0
   22.4078   -4.3719  -15.9004 C   0  0  0  0  0  0  0  0  0  0  0  0
   22.5860   -3.3403  -15.0186 O   0  0  0  0  0  0  0  0  0  0  0  0
   23.5538   -2.2526  -17.6500 C   0  0  0  0  0  0  0  0  0  0  0  0
   23.9478   -0.9118  -17.5811 C   0  0  0  0  0  0  0  0  0  0  0  0
   21.2054   -4.5552  -16.2990 O   0  0  0  0  0  0  0  0  0  0  0  0
  2  3  1  0
  2  5  1  0
  2  1  1  6
  4  3  1  0
  5  6  2  0
  7  8  1  0
  7  5  1  0
  8 11  1  0
  8  9  1  1
 10  9  1  0
 11 20  1  0
 12 11  2  0
 14 15  2  0
 14 13  1  0
 16 15  1  0
 17 16  2  0
 18 17  1  0
 19 18  1  6
 20 19  1  0
 21 22  1  0
 21 19  1  0
 23 17  1  0
 23 24  2  0
 24 14  1  0
 25 21  2  0
M  END
$$$$
