CCY.pdb
     RDKit          3D

 25 25  0  0  1  0  0  0  0  0999 V2000
   28.4579  -21.0316  -15.9370 N   0  0  0  0  0  0  0  0  0  0  0  0
   28.0553  -20.2124  -14.8145 C   0  0  1  0  0  0  0  0  0  0  0  0
   27.5936  -18.8491  -15.2371 C   0  0  0  0  0  0  0  0  0  0  0  0
   29.0337  -17.9014  -15.8001 S   0  0  0  0  0  0  0  0  0  0  0  0
   27.0169  -20.8648  -13.9871 C   0  0  0  0  0  0  0  0  0  0  0  0
   26.2627  -21.6936  -14.5573 O   0  0  0  0  0  0  0  0  0  0  0  0
   26.8020  -20.6356  -12.6135 N   0  0  0  0  0  0  0  0  0  0  0  0
   25.6128  -20.9949  -11.8989 C   0  0  1  0  0  0  0  0  0  0  0  0
   25.7313  -20.8248  -10.4077 C   0  0  0  0  0  0  0  0  0  0  0  0
   27.2803  -21.4909   -9.7595 S   0  0  0  0  0  0  0  0  0  0  0  0
   24.4125  -20.2983  -12.4221 C   0  0  0  0  0  0  0  0  0  0  0  0
   24.5349  -19.1359  -12.8751 O   0  0  0  0  0  0  0  0  0  0  0  0
   18.2312  -17.5248  -17.6199 O   0  0  0  0  0  0  0  0  0  0  0  0
   19.2320  -18.1489  -16.8797 C   0  0  0  0  0  0  0  0  0  0  0  0
   20.1174  -17.3776  -16.1621 C   0  0  0  0  0  0  0  0  0  0  0  0
   21.1209  -17.9600  -15.4176 C   0  0  0  0  0  0  0  0  0  0  0  0
   21.2857  -19.3491  -15.3565 C   0  0  0  0  0  0  0  0  0  0  0  0
   22.3740  -19.9578  -14.5638 C   0  0  0  0  0  0  0  0  0  0  0  0
   22.0285  -20.2350  -13.1348 C   0  0  2  0  0  0  0  0  0  0  0  0
   23.1247  -20.8873  -12.4348 N   0  0  0  0  0  0  0  0  0  0  0  0
   20.8133  -21.0760  -13.0514 C   0  0  0  0  0  0  0  0  0  0  0  0
   19.5286  -20.6143  -12.9531 O   0  0  0  0  0  0  0  0  0  0  0  0
   20.3862  -20.0967  -16.0842 C   0  0  0  0  0  0  0  0  0  0  0  0
   19.3683  -19.5036  -16.8391 C   0  0  0  0  0  0  0  0  0  0  0  0
   20.9419  -22.3493  -13.0692 O   0  0  0  0  0  0  0  0  0  0  0  0
  2  3  1  0
  2  5  1  0
  2  1  1  6
  4  3  1  0
  5  6  2  0
  7  8  1  0
  7  5  1  0
  8 11  1  0
  8  9  1  1
 10  9  1  0
 11 20  1  0
 12 11  2  0
 14 15  2  0
 14 13  1  0
 16 15  1  0
 17 16  2  0
 18 17  1  0
 19 18  1  6
 20 19  1  0
 21 22  1  0
 21 19  1  0
 23 17  1  0
 23 24  2  0
 24 14  1  0
 25 21  2  0
M  END
$$$$
