DNN.pdb
     RDKit          3D

 25 24  0  0  1  0  0  0  0  0999 V2000
   10.7685  -17.3427   14.3627 N   0  0  0  0  0  0  0  0  0  0  0  0
   10.2167  -16.0128   14.4347 C   0  0  1  0  0  0  0  0  0  0  0  0
    9.0152  -15.8973   13.5778 C   0  0  0  0  0  0  0  0  0  0  0  0
    9.3647  -15.8512   12.1476 C   0  0  0  0  0  0  0  0  0  0  0  0
   10.1738  -16.6169   11.5746 O   0  0  0  0  0  0  0  0  0  0  0  0
    9.9457  -15.6933   15.8653 C   0  0  0  0  0  0  0  0  0  0  0  0
    9.5040  -14.5750   16.2335 O   0  0  0  0  0  0  0  0  0  0  0  0
    8.7789  -14.8916   11.2921 O   0  0  0  0  0  0  0  0  0  0  0  0
    9.6420  -16.2252   21.1879 N   0  0  0  0  0  0  0  0  0  0  0  0
    8.9746  -17.1659   20.3777 C   0  0  0  0  0  0  0  0  0  0  0  0
    8.0948  -17.9098   20.9220 O   0  0  0  0  0  0  0  0  0  0  0  0
    9.1955  -17.3781   18.9446 C   0  0  0  0  0  0  0  0  0  0  0  0
   10.0458  -16.3151   18.2999 C   0  0  2  0  0  0  0  0  0  0  0  0
   10.1808  -16.6543   16.8820 N   0  0  0  0  0  0  0  0  0  0  0  0
   11.4228  -16.4250   18.9033 C   0  0  0  0  0  0  0  0  0  0  0  0
   12.1709  -17.4158   18.6755 O   0  0  0  0  0  0  0  0  0  0  0  0
   14.8074  -15.3271   18.1464 N   0  0  0  0  0  0  0  0  0  0  0  0
   14.7112  -14.2078   19.0200 C   0  0  0  0  0  0  0  0  0  0  0  0
   15.3181  -13.1150   18.7547 O   0  0  0  0  0  0  0  0  0  0  0  0
   13.9256  -14.2390   20.2487 C   0  0  0  0  0  0  0  0  0  0  0  0
   13.2366  -15.5714   20.4130 C   0  0  2  0  0  0  0  0  0  0  0  0
   11.9155  -15.3993   19.7547 N   0  0  0  0  0  0  0  0  0  0  0  0
   12.9800  -15.7567   21.8874 C   0  0  0  0  0  0  0  0  0  0  0  0
   14.0074  -16.2226   22.7074 O   0  0  0  0  0  0  0  0  0  0  0  0
   11.8970  -15.5228   22.4543 O   0  0  0  0  0  0  0  0  0  0  0  0
  2  3  1  0
  2  1  1  1
  3  4  1  0
  4  8  1  0
  4  5  2  0
  6  2  1  0
  7  6  2  0
  9 10  1  0
 10 12  1  0
 11 10  2  0
 13 12  1  1
 13 14  1  0
 14  6  1  0
 15 13  1  0
 15 22  1  0
 16 15  2  0
 18 17  1  0
 18 19  2  0
 20 18  1  0
 21 20  1  1
 21 22  1  0
 21 23  1  0
 23 24  1  0
 25 23  2  0
M  END
$$$$
