DNN.pdb
     RDKit          3D

 25 24  0  0  1  0  0  0  0  0999 V2000
    8.4231  -16.7323   16.6159 N   0  0  0  0  0  0  0  0  0  0  0  0
    8.8359  -15.5568   15.8904 C   0  0  1  0  0  0  0  0  0  0  0  0
    7.9330  -15.3046   14.7449 C   0  0  0  0  0  0  0  0  0  0  0  0
    7.9444  -16.4198   13.7825 C   0  0  0  0  0  0  0  0  0  0  0  0
    8.1831  -17.6169   14.0639 O   0  0  0  0  0  0  0  0  0  0  0  0
    8.9001  -14.4138   16.8452 C   0  0  0  0  0  0  0  0  0  0  0  0
    9.2649  -13.2628   16.4939 O   0  0  0  0  0  0  0  0  0  0  0  0
    7.6731  -16.1952   12.4144 O   0  0  0  0  0  0  0  0  0  0  0  0
    7.9859  -11.4592   21.1898 N   0  0  0  0  0  0  0  0  0  0  0  0
    7.1531  -12.5860   21.0363 C   0  0  0  0  0  0  0  0  0  0  0  0
    6.1798  -12.7276   21.8463 O   0  0  0  0  0  0  0  0  0  0  0  0
    7.2973  -13.6308   20.0188 C   0  0  0  0  0  0  0  0  0  0  0  0
    8.5030  -13.4511   19.1342 C   0  0  2  0  0  0  0  0  0  0  0  0
    8.5471  -14.5846   18.2085 N   0  0  0  0  0  0  0  0  0  0  0  0
    9.7195  -13.5666   20.0168 C   0  0  0  0  0  0  0  0  0  0  0  0
    9.9242  -12.7692   20.9736 O   0  0  0  0  0  0  0  0  0  0  0  0
   12.8526  -16.2956   23.4721 N   0  0  0  0  0  0  0  0  0  0  0  0
   12.8921  -16.4756   22.0609 C   0  0  0  0  0  0  0  0  0  0  0  0
   13.9402  -16.9282   21.4868 O   0  0  0  0  0  0  0  0  0  0  0  0
   11.7573  -16.1620   21.1996 C   0  0  0  0  0  0  0  0  0  0  0  0
   11.8279  -14.7346   20.7151 C   0  0  2  0  0  0  0  0  0  0  0  0
   10.6766  -14.5916   19.7865 N   0  0  0  0  0  0  0  0  0  0  0  0
   13.0845  -14.6102   19.8907 C   0  0  0  0  0  0  0  0  0  0  0  0
   12.9842  -14.3201   18.5302 O   0  0  0  0  0  0  0  0  0  0  0  0
   14.2398  -14.7480   20.3324 O   0  0  0  0  0  0  0  0  0  0  0  0
  2  3  1  0
  2  1  1  1
  3  4  1  0
  4  8  1  0
  4  5  2  0
  6  2  1  0
  7  6  2  0
  9 10  1  0
 10 12  1  0
 11 10  2  0
 13 12  1  1
 13 14  1  0
 14  6  1  0
 15 13  1  0
 15 22  1  0
 16 15  2  0
 18 17  1  0
 18 19  2  0
 20 18  1  0
 21 20  1  6
 21 22  1  0
 21 23  1  0
 23 24  1  0
 25 23  2  0
M  END
$$$$
