DNN.pdb
     RDKit          3D

 25 24  0  0  1  0  0  0  0  0999 V2000
    8.3150  -17.2468   15.4464 N   0  0  0  0  0  0  0  0  0  0  0  0
    9.3734  -16.3455   15.0646 C   0  0  1  0  0  0  0  0  0  0  0  0
    9.0731  -15.7065   13.7636 C   0  0  0  0  0  0  0  0  0  0  0  0
    9.0482  -16.6869   12.6645 C   0  0  0  0  0  0  0  0  0  0  0  0
    8.9190  -17.9254   12.8014 O   0  0  0  0  0  0  0  0  0  0  0  0
    9.5722  -15.3608   16.1660 C   0  0  0  0  0  0  0  0  0  0  0  0
   10.5334  -14.5503   16.1791 O   0  0  0  0  0  0  0  0  0  0  0  0
    9.1751  -16.2685   11.3211 O   0  0  0  0  0  0  0  0  0  0  0  0
    8.0630  -12.2162   20.6372 N   0  0  0  0  0  0  0  0  0  0  0  0
    7.8012  -13.5894   20.4574 C   0  0  0  0  0  0  0  0  0  0  0  0
    7.6820  -14.3186   21.4955 O   0  0  0  0  0  0  0  0  0  0  0  0
    7.6496  -14.2757   19.1714 C   0  0  0  0  0  0  0  0  0  0  0  0
    8.9484  -14.4741   18.4351 C   0  0  2  0  0  0  0  0  0  0  0  0
    8.6701  -15.3009   17.2593 N   0  0  0  0  0  0  0  0  0  0  0  0
    9.8452  -15.2878   19.3328 C   0  0  0  0  0  0  0  0  0  0  0  0
    9.6730  -16.5275   19.4966 O   0  0  0  0  0  0  0  0  0  0  0  0
   13.9517  -14.2292   18.5600 N   0  0  0  0  0  0  0  0  0  0  0  0
   13.7687  -15.1905   19.5934 C   0  0  0  0  0  0  0  0  0  0  0  0
   14.1647  -16.3963   19.4448 O   0  0  0  0  0  0  0  0  0  0  0  0
   13.1311  -14.8624   20.8637 C   0  0  0  0  0  0  0  0  0  0  0  0
   11.7552  -15.4762   20.9495 C   0  0  2  0  0  0  0  0  0  0  0  0
   10.9201  -14.6667   20.0245 N   0  0  0  0  0  0  0  0  0  0  0  0
   11.2461  -15.2247   22.3465 C   0  0  0  0  0  0  0  0  0  0  0  0
   11.8298  -15.8985   23.4190 O   0  0  0  0  0  0  0  0  0  0  0  0
   10.3213  -14.4435   22.6351 O   0  0  0  0  0  0  0  0  0  0  0  0
  2  3  1  0
  2  1  1  1
  3  4  1  0
  4  8  1  0
  4  5  2  0
  6  2  1  0
  7  6  2  0
  9 10  1  0
 10 12  1  0
 11 10  2  0
 13 12  1  1
 13 14  1  0
 14  6  1  0
 15 13  1  0
 15 22  1  0
 16 15  2  0
 18 17  1  0
 18 19  2  0
 20 18  1  0
 21 20  1  1
 21 22  1  0
 21 23  1  0
 23 24  1  0
 25 23  2  0
M  END
$$$$
