DNN.pdb
     RDKit          3D

 25 24  0  0  1  0  0  0  0  0999 V2000
    7.3986  -20.9023   22.0516 N   0  0  0  0  0  0  0  0  0  0  0  0
    7.5460  -19.5123   21.6988 C   0  0  1  0  0  0  0  0  0  0  0  0
    6.2450  -18.9343   21.2930 C   0  0  0  0  0  0  0  0  0  0  0  0
    5.1113  -19.7180   21.8130 C   0  0  0  0  0  0  0  0  0  0  0  0
    4.4097  -19.4073   22.8032 O   0  0  0  0  0  0  0  0  0  0  0  0
    8.1676  -18.7985   22.8504 C   0  0  0  0  0  0  0  0  0  0  0  0
    9.3524  -18.3783   22.8219 O   0  0  0  0  0  0  0  0  0  0  0  0
    4.7272  -20.9290   21.1952 O   0  0  0  0  0  0  0  0  0  0  0  0
    7.0576  -15.9223   23.4442 N   0  0  0  0  0  0  0  0  0  0  0  0
    6.6793  -15.9654   24.8013 C   0  0  0  0  0  0  0  0  0  0  0  0
    5.8740  -15.0751   25.2284 O   0  0  0  0  0  0  0  0  0  0  0  0
    7.1281  -16.9505   25.7892 C   0  0  0  0  0  0  0  0  0  0  0  0
    8.0682  -17.9847   25.2278 C   0  0  2  0  0  0  0  0  0  0  0  0
    7.4342  -18.5635   24.0417 N   0  0  0  0  0  0  0  0  0  0  0  0
    8.1680  -19.0906   26.2472 C   0  0  0  0  0  0  0  0  0  0  0  0
    7.4061  -20.0963   26.2132 O   0  0  0  0  0  0  0  0  0  0  0  0
   11.5659  -22.4299   27.9700 N   0  0  0  0  0  0  0  0  0  0  0  0
   11.4948  -21.8038   26.6940 C   0  0  0  0  0  0  0  0  0  0  0  0
   12.1387  -22.2746   25.6958 O   0  0  0  0  0  0  0  0  0  0  0  0
   10.6943  -20.6085   26.4521 C   0  0  0  0  0  0  0  0  0  0  0  0
    9.8778  -20.2522   27.6702 C   0  0  2  0  0  0  0  0  0  0  0  0
    9.1372  -19.0230   27.2845 N   0  0  0  0  0  0  0  0  0  0  0  0
   10.8505  -19.8653   28.7557 C   0  0  0  0  0  0  0  0  0  0  0  0
   10.7819  -20.5022   29.9945 O   0  0  0  0  0  0  0  0  0  0  0  0
   11.7372  -18.9999   28.6388 O   0  0  0  0  0  0  0  0  0  0  0  0
  2  3  1  0
  2  1  1  1
  3  4  1  0
  4  8  1  0
  4  5  2  0
  6  2  1  0
  7  6  2  0
  9 10  1  0
 10 12  1  0
 11 10  2  0
 13 12  1  1
 13 14  1  0
 14  6  1  0
 15 13  1  0
 15 22  1  0
 16 15  2  0
 18 17  1  0
 18 19  2  0
 20 18  1  0
 21 20  1  6
 21 22  1  0
 21 23  1  0
 23 24  1  0
 25 23  2  0
M  END
$$$$
