DNN.pdb
     RDKit          3D

 25 24  0  0  1  0  0  0  0  0999 V2000
   12.9780  -19.0287   20.1224 N   0  0  0  0  0  0  0  0  0  0  0  0
   12.8121  -17.6355   19.7910 C   0  0  1  0  0  0  0  0  0  0  0  0
   12.7953  -17.4449   18.3232 C   0  0  0  0  0  0  0  0  0  0  0  0
   14.1389  -17.5879   17.7367 C   0  0  0  0  0  0  0  0  0  0  0  0
   15.1820  -17.8617   18.3741 O   0  0  0  0  0  0  0  0  0  0  0  0
   11.5754  -17.1378   20.4581 C   0  0  0  0  0  0  0  0  0  0  0  0
   11.1901  -15.9450   20.3583 O   0  0  0  0  0  0  0  0  0  0  0  0
   14.3429  -17.4158   16.3494 O   0  0  0  0  0  0  0  0  0  0  0  0
    8.0165  -18.4437   19.6388 N   0  0  0  0  0  0  0  0  0  0  0  0
    7.9540  -19.1067   20.8811 C   0  0  0  0  0  0  0  0  0  0  0  0
    7.2324  -20.1534   20.9672 O   0  0  0  0  0  0  0  0  0  0  0  0
    8.6493  -18.7051   22.1071 C   0  0  0  0  0  0  0  0  0  0  0  0
    9.5682  -17.5260   21.9225 C   0  0  2  0  0  0  0  0  0  0  0  0
   10.7740  -18.0051   21.2443 N   0  0  0  0  0  0  0  0  0  0  0  0
    9.9947  -17.0790   23.2974 C   0  0  0  0  0  0  0  0  0  0  0  0
   11.1521  -17.3139   23.7431 O   0  0  0  0  0  0  0  0  0  0  0  0
    7.3890  -13.3318   24.5358 N   0  0  0  0  0  0  0  0  0  0  0  0
    8.4497  -13.8058   25.3578 C   0  0  0  0  0  0  0  0  0  0  0  0
    9.4961  -13.0982   25.5508 O   0  0  0  0  0  0  0  0  0  0  0  0
    8.4062  -15.1048   26.0202 C   0  0  0  0  0  0  0  0  0  0  0  0
    9.5056  -16.0049   25.5120 C   0  0  2  0  0  0  0  0  0  0  0  0
    9.0886  -16.3727   24.1339 N   0  0  0  0  0  0  0  0  0  0  0  0
    9.4644  -17.2634   26.3418 C   0  0  0  0  0  0  0  0  0  0  0  0
   10.1075  -17.2885   27.5790 O   0  0  0  0  0  0  0  0  0  0  0  0
    8.8883  -18.3149   26.0083 O   0  0  0  0  0  0  0  0  0  0  0  0
  2  3  1  0
  2  1  1  6
  3  4  1  0
  4  8  1  0
  4  5  2  0
  6  2  1  0
  7  6  2  0
  9 10  1  0
 10 12  1  0
 11 10  2  0
 13 12  1  1
 13 14  1  0
 14  6  1  0
 15 13  1  0
 15 22  1  0
 16 15  2  0
 18 17  1  0
 18 19  2  0
 20 18  1  0
 21 20  1  1
 21 22  1  0
 21 23  1  0
 23 24  1  0
 25 23  2  0
M  END
$$$$
