DNN.pdb
     RDKit          3D

 25 24  0  0  1  0  0  0  0  0999 V2000
   10.1092  -18.0843   20.0643 N   0  0  0  0  0  0  0  0  0  0  0  0
    8.8689  -17.3925   19.8159 C   0  0  1  0  0  0  0  0  0  0  0  0
    8.0799  -18.0897   18.7755 C   0  0  0  0  0  0  0  0  0  0  0  0
    8.8642  -18.3088   17.5481 C   0  0  0  0  0  0  0  0  0  0  0  0
    9.2867  -17.4072   16.7878 O   0  0  0  0  0  0  0  0  0  0  0  0
    8.1392  -17.2575   21.1087 C   0  0  0  0  0  0  0  0  0  0  0  0
    7.0542  -16.6296   21.2070 O   0  0  0  0  0  0  0  0  0  0  0  0
    9.2047  -19.6155   17.1328 O   0  0  0  0  0  0  0  0  0  0  0  0
    5.9852  -20.6447   22.7337 N   0  0  0  0  0  0  0  0  0  0  0  0
    6.2369  -19.4958   23.5105 C   0  0  0  0  0  0  0  0  0  0  0  0
    5.2529  -18.7401   23.8006 O   0  0  0  0  0  0  0  0  0  0  0  0
    7.5421  -19.0753   24.0277 C   0  0  0  0  0  0  0  0  0  0  0  0
    7.9560  -17.6989   23.5777 C   0  0  2  0  0  0  0  0  0  0  0  0
    8.6503  -17.8410   22.2965 N   0  0  0  0  0  0  0  0  0  0  0  0
    8.9759  -17.1984   24.5684 C   0  0  0  0  0  0  0  0  0  0  0  0
   10.2015  -17.4804   24.4601 O   0  0  0  0  0  0  0  0  0  0  0  0
    9.4531  -13.1064   29.1889 N   0  0  0  0  0  0  0  0  0  0  0  0
    9.8628  -14.1194   28.2771 C   0  0  0  0  0  0  0  0  0  0  0  0
   11.0706  -14.5361   28.2594 O   0  0  0  0  0  0  0  0  0  0  0  0
    8.9438  -14.7343   27.3256 C   0  0  0  0  0  0  0  0  0  0  0  0
    9.5958  -15.9011   26.6251 C   0  0  2  0  0  0  0  0  0  0  0  0
    8.5728  -16.3857   25.6624 N   0  0  0  0  0  0  0  0  0  0  0  0
    9.7868  -16.9844   27.6566 C   0  0  0  0  0  0  0  0  0  0  0  0
   11.0212  -17.1134   28.2928 O   0  0  0  0  0  0  0  0  0  0  0  0
    8.9113  -17.7991   28.0008 O   0  0  0  0  0  0  0  0  0  0  0  0
  2  3  1  0
  2  1  1  1
  3  4  1  0
  4  8  1  0
  4  5  2  0
  6  2  1  0
  7  6  2  0
  9 10  1  0
 10 12  1  0
 11 10  2  0
 13 12  1  1
 13 14  1  0
 14  6  1  0
 15 13  1  0
 15 22  1  0
 16 15  2  0
 18 17  1  0
 18 19  2  0
 20 18  1  0
 21 20  1  1
 21 22  1  0
 21 23  1  0
 23 24  1  0
 25 23  2  0
M  END
$$$$
