DNN.pdb
     RDKit          3D

 25 24  0  0  1  0  0  0  0  0999 V2000
   11.4682  -16.4011   15.7812 N   0  0  0  0  0  0  0  0  0  0  0  0
   12.5869  -15.8174   16.4785 C   0  0  1  0  0  0  0  0  0  0  0  0
   13.3813  -14.9608   15.5696 C   0  0  0  0  0  0  0  0  0  0  0  0
   13.9159  -15.7218   14.4273 C   0  0  0  0  0  0  0  0  0  0  0  0
   13.2608  -16.0676   13.4171 O   0  0  0  0  0  0  0  0  0  0  0  0
   12.0681  -15.0829   17.6674 C   0  0  0  0  0  0  0  0  0  0  0  0
   12.8286  -14.5201   18.4958 O   0  0  0  0  0  0  0  0  0  0  0  0
   15.2686  -16.1287   14.4008 O   0  0  0  0  0  0  0  0  0  0  0  0
    8.0405  -11.9607   20.2034 N   0  0  0  0  0  0  0  0  0  0  0  0
    7.9984  -13.3422   19.9272 C   0  0  0  0  0  0  0  0  0  0  0  0
    7.3125  -14.0881   20.6998 O   0  0  0  0  0  0  0  0  0  0  0  0
    8.6775  -14.0197   18.8192 C   0  0  0  0  0  0  0  0  0  0  0  0
   10.1480  -14.2422   19.0569 C   0  0  2  0  0  0  0  0  0  0  0  0
   10.6741  -14.9903   17.9135 N   0  0  0  0  0  0  0  0  0  0  0  0
   10.2697  -15.1459   20.2572 C   0  0  0  0  0  0  0  0  0  0  0  0
    9.9002  -16.3523   20.2206 O   0  0  0  0  0  0  0  0  0  0  0  0
   14.2042  -14.7170   21.7845 N   0  0  0  0  0  0  0  0  0  0  0  0
   13.3266  -15.6529   22.4005 C   0  0  0  0  0  0  0  0  0  0  0  0
   13.4656  -16.9082   22.2063 O   0  0  0  0  0  0  0  0  0  0  0  0
   12.2356  -15.2428   23.2777 C   0  0  0  0  0  0  0  0  0  0  0  0
   10.8974  -15.5523   22.6526 C   0  0  2  0  0  0  0  0  0  0  0  0
   10.8113  -14.6510   21.4743 N   0  0  0  0  0  0  0  0  0  0  0  0
    9.8399  -15.1090   23.6320 C   0  0  0  0  0  0  0  0  0  0  0  0
    9.6467  -15.8365   24.8061 O   0  0  0  0  0  0  0  0  0  0  0  0
    9.1010  -14.1192   23.4792 O   0  0  0  0  0  0  0  0  0  0  0  0
  2  3  1  0
  2  1  1  6
  3  4  1  0
  4  8  1  0
  4  5  2  0
  6  2  1  0
  7  6  2  0
  9 10  1  0
 10 12  1  0
 11 10  2  0
 13 12  1  6
 13 14  1  0
 14  6  1  0
 15 13  1  0
 15 22  1  0
 16 15  2  0
 18 17  1  0
 18 19  2  0
 20 18  1  0
 21 20  1  1
 21 22  1  0
 21 23  1  0
 23 24  1  0
 25 23  2  0
M  END
$$$$
