DNN.pdb
     RDKit          3D

 25 24  0  0  1  0  0  0  0  0999 V2000
   12.7050  -16.4789   18.1233 N   0  0  0  0  0  0  0  0  0  0  0  0
   13.0117  -15.1306   18.5311 C   0  0  1  0  0  0  0  0  0  0  0  0
   13.7984  -14.4344   17.4883 C   0  0  0  0  0  0  0  0  0  0  0  0
   15.1878  -14.9206   17.4341 C   0  0  0  0  0  0  0  0  0  0  0  0
   15.8247  -15.4023   18.3993 O   0  0  0  0  0  0  0  0  0  0  0  0
   11.7338  -14.4364   18.8585 C   0  0  0  0  0  0  0  0  0  0  0  0
   10.8710  -14.1668   17.9844 O   0  0  0  0  0  0  0  0  0  0  0  0
   15.9235  -14.8705   16.2291 O   0  0  0  0  0  0  0  0  0  0  0  0
    8.5884  -12.2930   18.7388 N   0  0  0  0  0  0  0  0  0  0  0  0
    8.2412  -13.5744   19.2125 C   0  0  0  0  0  0  0  0  0  0  0  0
    7.0044  -13.8705   19.2910 O   0  0  0  0  0  0  0  0  0  0  0  0
    9.1784  -14.6202   19.6318 C   0  0  0  0  0  0  0  0  0  0  0  0
   10.0943  -14.1981   20.7505 C   0  0  2  0  0  0  0  0  0  0  0  0
   11.4385  -14.0468   20.1902 N   0  0  0  0  0  0  0  0  0  0  0  0
   10.1594  -15.3463   21.7250 C   0  0  0  0  0  0  0  0  0  0  0  0
    9.1442  -15.7279   22.3709 O   0  0  0  0  0  0  0  0  0  0  0  0
   10.6636  -19.9630   22.2958 N   0  0  0  0  0  0  0  0  0  0  0  0
   11.7099  -19.2302   21.6684 C   0  0  0  0  0  0  0  0  0  0  0  0
   12.0801  -19.5056   20.4769 O   0  0  0  0  0  0  0  0  0  0  0  0
   12.4092  -18.1375   22.3355 C   0  0  0  0  0  0  0  0  0  0  0  0
   11.4299  -17.1499   22.9209 C   0  0  2  0  0  0  0  0  0  0  0  0
   11.3843  -16.0340   21.9407 N   0  0  0  0  0  0  0  0  0  0  0  0
   12.0507  -16.6091   24.1844 C   0  0  0  0  0  0  0  0  0  0  0  0
   13.3927  -16.2296   24.1792 O   0  0  0  0  0  0  0  0  0  0  0  0
   11.4509  -16.4673   25.2656 O   0  0  0  0  0  0  0  0  0  0  0  0
  2  3  1  0
  2  1  1  6
  3  4  1  0
  4  8  1  0
  4  5  2  0
  6  2  1  0
  7  6  2  0
  9 10  1  0
 10 12  1  0
 11 10  2  0
 13 12  1  6
 13 14  1  0
 14  6  1  0
 15 13  1  0
 15 22  1  0
 16 15  2  0
 18 17  1  0
 18 19  2  0
 20 18  1  0
 21 20  1  6
 21 22  1  0
 21 23  1  0
 23 24  1  0
 25 23  2  0
M  END
$$$$
