DNN.pdb
     RDKit          3D

 25 24  0  0  1  0  0  0  0  0999 V2000
    9.2006  -17.1073   20.0097 N   0  0  0  0  0  0  0  0  0  0  0  0
    8.3680  -15.9338   20.0983 C   0  0  1  0  0  0  0  0  0  0  0  0
    7.3528  -15.9295   19.0210 C   0  0  0  0  0  0  0  0  0  0  0  0
    7.9707  -15.8481   17.6863 C   0  0  0  0  0  0  0  0  0  0  0  0
    8.9640  -16.5102   17.3064 O   0  0  0  0  0  0  0  0  0  0  0  0
    7.7704  -15.8836   21.4631 C   0  0  0  0  0  0  0  0  0  0  0  0
    6.9335  -15.0076   21.7998 O   0  0  0  0  0  0  0  0  0  0  0  0
    7.4543  -14.9739   16.7040 O   0  0  0  0  0  0  0  0  0  0  0  0
    5.3817  -19.3591   23.6015 N   0  0  0  0  0  0  0  0  0  0  0  0
    6.7814  -19.2040   23.5409 C   0  0  0  0  0  0  0  0  0  0  0  0
    7.4352  -19.9593   22.7499 O   0  0  0  0  0  0  0  0  0  0  0  0
    7.5751  -18.2427   24.3114 C   0  0  0  0  0  0  0  0  0  0  0  0
    7.5088  -16.8366   23.7755 C   0  0  2  0  0  0  0  0  0  0  0  0
    8.1301  -16.8373   22.4498 N   0  0  0  0  0  0  0  0  0  0  0  0
    8.3817  -15.9848   24.6612 C   0  0  0  0  0  0  0  0  0  0  0  0
    9.6359  -15.9503   24.5227 O   0  0  0  0  0  0  0  0  0  0  0  0
    5.9482  -11.7525   26.1980 N   0  0  0  0  0  0  0  0  0  0  0  0
    7.1766  -12.4529   26.0375 C   0  0  0  0  0  0  0  0  0  0  0  0
    7.8348  -12.3803   24.9446 O   0  0  0  0  0  0  0  0  0  0  0  0
    7.7500  -13.2797   27.0937 C   0  0  0  0  0  0  0  0  0  0  0  0
    8.6767  -14.3221   26.5176 C   0  0  2  0  0  0  0  0  0  0  0  0
    7.8020  -15.1902   25.6870 N   0  0  0  0  0  0  0  0  0  0  0  0
    9.1707  -15.1590   27.6707 C   0  0  0  0  0  0  0  0  0  0  0  0
   10.0472  -14.5964   28.5981 O   0  0  0  0  0  0  0  0  0  0  0  0
    8.8545  -16.3455   27.8734 O   0  0  0  0  0  0  0  0  0  0  0  0
  2  3  1  0
  2  1  1  1
  3  4  1  0
  4  8  1  0
  4  5  2  0
  6  2  1  0
  7  6  2  0
  9 10  1  0
 10 12  1  0
 11 10  2  0
 13 12  1  1
 13 14  1  0
 14  6  1  0
 15 13  1  0
 15 22  1  0
 16 15  2  0
 18 17  1  0
 18 19  2  0
 20 18  1  0
 21 20  1  1
 21 22  1  0
 21 23  1  0
 23 24  1  0
 25 23  2  0
M  END
$$$$
