DNN.pdb
     RDKit          3D

 25 24  0  0  1  0  0  0  0  0999 V2000
    9.0234  -17.2397   16.0287 N   0  0  0  0  0  0  0  0  0  0  0  0
   10.3276  -16.6264   15.9934 C   0  0  1  0  0  0  0  0  0  0  0  0
   10.4674  -15.7617   14.8002 C   0  0  0  0  0  0  0  0  0  0  0  0
   10.3969  -16.5376   13.5501 C   0  0  0  0  0  0  0  0  0  0  0  0
    9.4425  -17.2728   13.2068 O   0  0  0  0  0  0  0  0  0  0  0  0
   10.5362  -15.8919   17.2737 C   0  0  0  0  0  0  0  0  0  0  0  0
   11.6601  -15.4453   17.6183 O   0  0  0  0  0  0  0  0  0  0  0  0
   11.4552  -16.4976   12.6151 O   0  0  0  0  0  0  0  0  0  0  0  0
    8.0304  -12.1457   19.3062 N   0  0  0  0  0  0  0  0  0  0  0  0
    7.6400  -13.4993   19.2600 C   0  0  0  0  0  0  0  0  0  0  0  0
    6.6355  -13.8100   18.5403 O   0  0  0  0  0  0  0  0  0  0  0  0
    8.2862  -14.6063   19.9705 C   0  0  0  0  0  0  0  0  0  0  0  0
    9.6488  -14.9565   19.4328 C   0  0  2  0  0  0  0  0  0  0  0  0
    9.4572  -15.6662   18.1666 N   0  0  0  0  0  0  0  0  0  0  0  0
   10.2621  -15.9437   20.3927 C   0  0  0  0  0  0  0  0  0  0  0  0
    9.9997  -17.1771   20.3352 O   0  0  0  0  0  0  0  0  0  0  0  0
   15.0548  -17.8578   22.2382 N   0  0  0  0  0  0  0  0  0  0  0  0
   14.2980  -16.8133   22.8395 C   0  0  0  0  0  0  0  0  0  0  0  0
   14.3902  -16.5737   24.0913 O   0  0  0  0  0  0  0  0  0  0  0  0
   13.3885  -15.9662   22.0759 C   0  0  0  0  0  0  0  0  0  0  0  0
   11.9777  -16.4980   22.1383 C   0  0  2  0  0  0  0  0  0  0  0  0
   11.1626  -15.4997   21.3986 N   0  0  0  0  0  0  0  0  0  0  0  0
   11.5487  -16.4424   23.5829 C   0  0  0  0  0  0  0  0  0  0  0  0
   11.7416  -17.5581   24.3972 O   0  0  0  0  0  0  0  0  0  0  0  0
   11.0208  -15.4567   24.1292 O   0  0  0  0  0  0  0  0  0  0  0  0
  2  3  1  0
  2  1  1  1
  3  4  1  0
  4  8  1  0
  4  5  2  0
  6  2  1  0
  7  6  2  0
  9 10  1  0
 10 12  1  0
 11 10  2  0
 13 12  1  1
 13 14  1  0
 14  6  1  0
 15 13  1  0
 15 22  1  0
 16 15  2  0
 18 17  1  0
 18 19  2  0
 20 18  1  0
 21 20  1  1
 21 22  1  0
 21 23  1  0
 23 24  1  0
 25 23  2  0
M  END
$$$$
