DNN.pdb
     RDKit          3D

 25 24  0  0  1  0  0  0  0  0999 V2000
    9.3684  -17.4886   14.3883 N   0  0  0  0  0  0  0  0  0  0  0  0
    8.2927  -16.7303   14.9769 C   0  0  1  0  0  0  0  0  0  0  0  0
    7.0724  -16.8193   14.1439 C   0  0  0  0  0  0  0  0  0  0  0  0
    7.2798  -16.2415   12.8049 C   0  0  0  0  0  0  0  0  0  0  0  0
    8.3902  -16.0920   12.2446 O   0  0  0  0  0  0  0  0  0  0  0  0
    8.0840  -17.2152   16.3710 C   0  0  0  0  0  0  0  0  0  0  0  0
    7.2348  -16.7008   17.1427 O   0  0  0  0  0  0  0  0  0  0  0  0
    6.1832  -15.7983   12.0323 O   0  0  0  0  0  0  0  0  0  0  0  0
    8.0742  -21.8440   16.4941 N   0  0  0  0  0  0  0  0  0  0  0  0
    7.8805  -20.9975   17.6043 C   0  0  0  0  0  0  0  0  0  0  0  0
    6.6990  -20.8723   18.0647 O   0  0  0  0  0  0  0  0  0  0  0  0
    8.9219  -20.2322   18.2954 C   0  0  0  0  0  0  0  0  0  0  0  0
    8.6941  -18.7436   18.2726 C   0  0  2  0  0  0  0  0  0  0  0  0
    8.8488  -18.2922   16.8884 N   0  0  0  0  0  0  0  0  0  0  0  0
    9.8141  -18.1132   19.0601 C   0  0  0  0  0  0  0  0  0  0  0  0
   10.3072  -16.9970   18.7371 O   0  0  0  0  0  0  0  0  0  0  0  0
   10.7867  -14.8921   22.8337 N   0  0  0  0  0  0  0  0  0  0  0  0
   10.5843  -16.2975   22.9301 C   0  0  0  0  0  0  0  0  0  0  0  0
   10.8887  -16.9322   23.9965 O   0  0  0  0  0  0  0  0  0  0  0  0
   10.0244  -17.0845   21.8369 C   0  0  0  0  0  0  0  0  0  0  0  0
   11.0741  -17.9803   21.2263 C   0  0  2  0  0  0  0  0  0  0  0  0
   10.3471  -18.7726   20.2006 N   0  0  0  0  0  0  0  0  0  0  0  0
   11.5150  -18.9404   22.3023 C   0  0  0  0  0  0  0  0  0  0  0  0
   12.6997  -18.6939   22.9957 O   0  0  0  0  0  0  0  0  0  0  0  0
   10.8943  -19.9662   22.6362 O   0  0  0  0  0  0  0  0  0  0  0  0
  2  3  1  0
  2  1  1  6
  3  4  1  0
  4  8  1  0
  4  5  2  0
  6  2  1  0
  7  6  2  0
  9 10  1  0
 10 12  1  0
 11 10  2  0
 13 12  1  6
 13 14  1  0
 14  6  1  0
 15 13  1  0
 15 22  1  0
 16 15  2  0
 18 17  1  0
 18 19  2  0
 20 18  1  0
 21 20  1  1
 21 22  1  0
 21 23  1  0
 23 24  1  0
 25 23  2  0
M  END
$$$$
