DNN.pdb
     RDKit          3D

 25 24  0  0  1  0  0  0  0  0999 V2000
    8.3998  -16.8325   14.9432 N   0  0  0  0  0  0  0  0  0  0  0  0
    9.6044  -16.0569   14.7823 C   0  0  1  0  0  0  0  0  0  0  0  0
    9.5264  -15.2148   13.5674 C   0  0  0  0  0  0  0  0  0  0  0  0
    9.6457  -16.0158   12.3370 C   0  0  0  0  0  0  0  0  0  0  0  0
    9.1628  -17.1592   12.1674 O   0  0  0  0  0  0  0  0  0  0  0  0
    9.8241  -15.2664   16.0268 C   0  0  0  0  0  0  0  0  0  0  0  0
   10.8502  -14.5616   16.2044 O   0  0  0  0  0  0  0  0  0  0  0  0
   10.3479  -15.5178   11.2168 O   0  0  0  0  0  0  0  0  0  0  0  0
    8.9240  -13.0637   20.8218 N   0  0  0  0  0  0  0  0  0  0  0  0
    7.8720  -13.8987   20.3942 C   0  0  0  0  0  0  0  0  0  0  0  0
    6.8283  -13.9694   21.1218 O   0  0  0  0  0  0  0  0  0  0  0  0
    7.8582  -14.7093   19.1733 C   0  0  0  0  0  0  0  0  0  0  0  0
    9.0805  -14.5265   18.3124 C   0  0  2  0  0  0  0  0  0  0  0  0
    8.8686  -15.2805   17.0753 N   0  0  0  0  0  0  0  0  0  0  0  0
   10.2291  -15.1880   19.0301 C   0  0  0  0  0  0  0  0  0  0  0  0
   11.1794  -15.7327   18.4026 O   0  0  0  0  0  0  0  0  0  0  0  0
   13.3767  -14.0036   18.5280 N   0  0  0  0  0  0  0  0  0  0  0  0
   13.3030  -14.8627   19.6602 C   0  0  0  0  0  0  0  0  0  0  0  0
   13.9427  -15.9686   19.6868 O   0  0  0  0  0  0  0  0  0  0  0  0
   12.5083  -14.5373   20.8394 C   0  0  0  0  0  0  0  0  0  0  0  0
   11.5153  -15.6336   21.1383 C   0  0  2  0  0  0  0  0  0  0  0  0
   10.2670  -15.2130   20.4505 N   0  0  0  0  0  0  0  0  0  0  0  0
   11.2442  -15.5911   22.6211 C   0  0  0  0  0  0  0  0  0  0  0  0
   12.0614  -16.3170   23.4871 O   0  0  0  0  0  0  0  0  0  0  0  0
   10.3256  -14.9442   23.1564 O   0  0  0  0  0  0  0  0  0  0  0  0
  2  3  1  0
  2  1  1  1
  3  4  1  0
  4  8  1  0
  4  5  2  0
  6  2  1  0
  7  6  2  0
  9 10  1  0
 10 12  1  0
 11 10  2  0
 13 12  1  1
 13 14  1  0
 14  6  1  0
 15 13  1  0
 15 22  1  0
 16 15  2  0
 18 17  1  0
 18 19  2  0
 20 18  1  0
 21 20  1  1
 21 22  1  0
 21 23  1  0
 23 24  1  0
 25 23  2  0
M  END
$$$$
