DRD.pdb
     RDKit          3D

 28 27  0  0  1  0  0  0  0  0999 V2000
   14.7617  -16.2451   17.3412 N   0  0  0  0  0  0  0  0  0  0  0  0
   15.3845  -15.1604   18.1467 C   0  0  1  0  0  0  0  0  0  0  0  0
   15.7723  -14.0180   17.3069 C   0  0  0  0  0  0  0  0  0  0  0  0
   17.1785  -14.1366   16.8407 C   0  0  0  0  0  0  0  0  0  0  0  0
   17.6272  -15.1943   16.3513 O   0  0  0  0  0  0  0  0  0  0  0  0
   14.3845  -14.9037   19.2119 C   0  0  0  0  0  0  0  0  0  0  0  0
   14.6479  -14.0086   20.1101 O   0  0  0  0  0  0  0  0  0  0  0  0
   18.0664  -13.0524   16.9380 O   0  0  0  0  0  0  0  0  0  0  0  0
    6.1831  -13.3223   18.6543 N   0  0  0  0  0  0  0  0  0  0  0  0
    7.3708  -12.5624   18.8506 C   0  0  0  0  0  0  0  0  0  0  0  0
    7.5264  -11.4112   18.3021 N   0  0  0  0  0  0  0  0  0  0  0  0
    8.4202  -13.0778   19.6710 N   0  0  0  0  0  0  0  0  0  0  0  0
    8.4916  -14.4788   20.0311 C   0  0  0  0  0  0  0  0  0  0  0  0
    9.7578  -14.7897   20.8229 C   0  0  0  0  0  0  0  0  0  0  0  0
   10.8963  -14.9976   19.8867 C   0  0  0  0  0  0  0  0  0  0  0  0
   12.2503  -15.1943   20.5245 C   0  0  2  0  0  0  0  0  0  0  0  0
   13.1398  -15.5314   19.3852 N   0  0  0  0  0  0  0  0  0  0  0  0
   12.2070  -16.2961   21.4840 C   0  0  0  0  0  0  0  0  0  0  0  0
   12.2832  -17.4993   21.0318 O   0  0  0  0  0  0  0  0  0  0  0  0
    8.3937  -10.8697   18.4464 N   0  0  0  0  0  0  0  0  0  0  0  0
   12.0959  -16.2190   22.8867 C   0  0  1  0  0  0  0  0  0  0  0  0
   12.0635  -17.3948   23.7386 C   0  0  0  0  0  0  0  0  0  0  0  0
   13.3072  -17.4934   24.6052 C   0  0  0  0  0  0  0  0  0  0  0  0
   13.2452  -18.6233   25.5649 O   0  0  0  0  0  0  0  0  0  0  0  0
   13.1724  -19.8288   25.2014 C   0  0  0  0  0  0  0  0  0  0  0  0
   10.9193  -17.3047   24.6478 O   0  0  0  0  0  0  0  0  0  0  0  0
   10.2936  -16.2333   24.8046 O   0  0  0  0  0  0  0  0  0  0  0  0
   13.2657  -18.4035   26.9501 O   0  0  0  0  0  0  0  0  0  0  0  0
  2  1  1  6
  2  3  1  0
  3  4  1  0
  4  8  1  0
  4  5  2  0
  6  7  2  0
  6  2  1  0
  9 10  1  0
 10 11  2  0
 12 10  1  0
 12 13  1  0
 13 14  1  0
 14 15  1  0
 16 15  1  6
 16 17  1  0
 17  6  1  0
 18 20  1  0
 18 16  1  0
 19 18  2  0
 21 25  1  0
 21 20  1  0
 22 23  1  0
 21 22  1  1
 23 24  2  0
 25 28  1  0
 26 25  2  0
 27 23  1  0
M  END
$$$$
