DRD.pdb
     RDKit          3D

 28 27  0  0  1  0  0  0  0  0999 V2000
   12.9454  -17.7617   18.5096 N   0  0  0  0  0  0  0  0  0  0  0  0
   13.7849  -16.5433   18.6644 C   0  0  1  0  0  0  0  0  0  0  0  0
   13.9014  -15.8028   17.4000 C   0  0  0  0  0  0  0  0  0  0  0  0
   14.8441  -14.6603   17.5221 C   0  0  0  0  0  0  0  0  0  0  0  0
   15.8175  -14.6853   18.3041 O   0  0  0  0  0  0  0  0  0  0  0  0
   13.1556  -15.8330   19.8047 C   0  0  0  0  0  0  0  0  0  0  0  0
   13.9170  -15.3579   20.7385 O   0  0  0  0  0  0  0  0  0  0  0  0
   14.6711  -13.4951   16.7568 O   0  0  0  0  0  0  0  0  0  0  0  0
    6.3829  -12.6405   17.6224 N   0  0  0  0  0  0  0  0  0  0  0  0
    7.4682  -13.5345   17.3993 C   0  0  0  0  0  0  0  0  0  0  0  0
    7.5425  -14.2421   16.3297 N   0  0  0  0  0  0  0  0  0  0  0  0
    8.5028  -13.6585   18.3760 N   0  0  0  0  0  0  0  0  0  0  0  0
    8.6758  -12.6856   19.4348 C   0  0  0  0  0  0  0  0  0  0  0  0
    9.9632  -12.9303   20.2155 C   0  0  0  0  0  0  0  0  0  0  0  0
    9.9587  -14.3120   20.7696 C   0  0  0  0  0  0  0  0  0  0  0  0
   11.2984  -14.8555   21.2037 C   0  0  2  0  0  0  0  0  0  0  0  0
   11.7865  -15.6011   20.0168 N   0  0  0  0  0  0  0  0  0  0  0  0
   11.1385  -15.7557   22.3441 C   0  0  0  0  0  0  0  0  0  0  0  0
   10.6619  -15.2719   23.4381 O   0  0  0  0  0  0  0  0  0  0  0  0
    8.3345  -14.8866   16.1762 N   0  0  0  0  0  0  0  0  0  0  0  0
   11.4391  -17.1308   22.4107 C   0  0  1  0  0  0  0  0  0  0  0  0
   11.2525  -17.9188   23.6163 C   0  0  0  0  0  0  0  0  0  0  0  0
   11.2789  -19.4087   23.3217 C   0  0  0  0  0  0  0  0  0  0  0  0
   11.1066  -20.2344   24.5424 O   0  0  0  0  0  0  0  0  0  0  0  0
   11.7812  -21.2762   24.7667 C   0  0  0  0  0  0  0  0  0  0  0  0
   12.3511  -17.6510   24.5466 O   0  0  0  0  0  0  0  0  0  0  0  0
   13.4370  -17.1719   24.1529 O   0  0  0  0  0  0  0  0  0  0  0  0
   10.1683  -19.8911   25.5269 O   0  0  0  0  0  0  0  0  0  0  0  0
  2  1  1  6
  2  3  1  0
  3  4  1  0
  4  8  1  0
  4  5  2  0
  6  7  2  0
  6  2  1  0
  9 10  1  0
 10 11  2  0
 12 10  1  0
 12 13  1  0
 13 14  1  0
 14 15  1  0
 16 15  1  6
 16 17  1  0
 17  6  1  0
 18 20  1  0
 18 16  1  0
 19 18  2  0
 21 25  1  0
 21 20  1  0
 22 23  1  0
 21 22  1  1
 23 24  2  0
 25 28  1  0
 26 25  2  0
 27 23  1  0
M  END
$$$$
