DRD.pdb
     RDKit          3D

 28 27  0  0  1  0  0  0  0  0999 V2000
   11.7225  -18.0985   17.5542 N   0  0  0  0  0  0  0  0  0  0  0  0
   12.9989  -17.4124   17.8909 C   0  0  1  0  0  0  0  0  0  0  0  0
   13.4051  -16.4767   16.8325 C   0  0  0  0  0  0  0  0  0  0  0  0
   13.6822  -17.1849   15.5555 C   0  0  0  0  0  0  0  0  0  0  0  0
   14.7905  -17.7078   15.3150 O   0  0  0  0  0  0  0  0  0  0  0  0
   12.7382  -16.8377   19.2334 C   0  0  0  0  0  0  0  0  0  0  0  0
   13.7130  -16.2645   19.8649 O   0  0  0  0  0  0  0  0  0  0  0  0
   12.6980  -17.2900   14.5587 O   0  0  0  0  0  0  0  0  0  0  0  0
    7.8275  -14.1239   17.7975 N   0  0  0  0  0  0  0  0  0  0  0  0
    7.7114  -13.0283   18.6993 C   0  0  0  0  0  0  0  0  0  0  0  0
    7.8399  -11.8150   18.2973 N   0  0  0  0  0  0  0  0  0  0  0  0
    7.4478  -13.2675   20.0824 N   0  0  0  0  0  0  0  0  0  0  0  0
    7.9367  -14.4500   20.7609 C   0  0  0  0  0  0  0  0  0  0  0  0
    9.4460  -14.6033   20.6015 C   0  0  0  0  0  0  0  0  0  0  0  0
    9.9057  -15.8201   21.3256 C   0  0  0  0  0  0  0  0  0  0  0  0
   11.3814  -16.1252   21.2368 C   0  0  2  0  0  0  0  0  0  0  0  0
   11.5252  -16.8360   19.9419 N   0  0  0  0  0  0  0  0  0  0  0  0
   11.7914  -16.9880   22.3431 C   0  0  0  0  0  0  0  0  0  0  0  0
   11.3021  -18.1777   22.3996 O   0  0  0  0  0  0  0  0  0  0  0  0
    7.7835  -11.0285   18.9640 N   0  0  0  0  0  0  0  0  0  0  0  0
   12.6857  -16.6878   23.3899 C   0  0  2  0  0  0  0  0  0  0  0  0
   13.0430  -17.6488   24.4186 C   0  0  0  0  0  0  0  0  0  0  0  0
   14.4230  -17.3717   24.9896 C   0  0  0  0  0  0  0  0  0  0  0  0
   14.8414  -18.3867   25.9877 O   0  0  0  0  0  0  0  0  0  0  0  0
   15.7204  -18.1648   26.8645 C   0  0  0  0  0  0  0  0  0  0  0  0
   12.0956  -17.5453   25.5302 O   0  0  0  0  0  0  0  0  0  0  0  0
   11.2661  -16.6117   25.5954 O   0  0  0  0  0  0  0  0  0  0  0  0
   14.2693  -19.6673   26.0072 O   0  0  0  0  0  0  0  0  0  0  0  0
  2  1  1  6
  2  3  1  0
  3  4  1  0
  4  8  1  0
  4  5  2  0
  6  7  2  0
  6  2  1  0
  9 10  1  0
 10 11  2  0
 12 10  1  0
 12 13  1  0
 13 14  1  0
 14 15  1  0
 16 15  1  1
 16 17  1  0
 17  6  1  0
 18 20  1  0
 18 16  1  0
 19 18  2  0
 21 25  1  0
 21 20  1  0
 22 23  1  0
 21 22  1  6
 23 24  2  0
 25 28  1  0
 26 25  2  0
 27 23  1  0
M  END
$$$$
