DRD.pdb
     RDKit          3D

 28 27  0  0  1  0  0  0  0  0999 V2000
   12.6584  -15.5809   18.1795 N   0  0  0  0  0  0  0  0  0  0  0  0
   13.6382  -15.0045   19.1392 C   0  0  1  0  0  0  0  0  0  0  0  0
   14.1664  -13.7174   18.6648 C   0  0  0  0  0  0  0  0  0  0  0  0
   15.0431  -13.8921   17.4774 C   0  0  0  0  0  0  0  0  0  0  0  0
   15.7460  -14.9118   17.3174 O   0  0  0  0  0  0  0  0  0  0  0  0
   12.8978  -14.9953   20.4247 C   0  0  0  0  0  0  0  0  0  0  0  0
   13.4839  -14.5192   21.4770 O   0  0  0  0  0  0  0  0  0  0  0  0
   15.1175  -12.9039   16.4819 O   0  0  0  0  0  0  0  0  0  0  0  0
    6.8433  -12.3384   17.9954 N   0  0  0  0  0  0  0  0  0  0  0  0
    7.8958  -13.2963   18.0378 C   0  0  0  0  0  0  0  0  0  0  0  0
    8.2118  -13.9886   17.0028 N   0  0  0  0  0  0  0  0  0  0  0  0
    8.6236  -13.5035   19.2490 N   0  0  0  0  0  0  0  0  0  0  0  0
    7.9577  -13.6386   20.5280 C   0  0  0  0  0  0  0  0  0  0  0  0
    8.9597  -13.7926   21.6677 C   0  0  0  0  0  0  0  0  0  0  0  0
    9.4850  -15.1853   21.6889 C   0  0  0  0  0  0  0  0  0  0  0  0
   10.9552  -15.3337   21.9975 C   0  0  2  0  0  0  0  0  0  0  0  0
   11.5928  -15.4573   20.6630 N   0  0  0  0  0  0  0  0  0  0  0  0
   11.1908  -16.5381   22.7914 C   0  0  0  0  0  0  0  0  0  0  0  0
   10.5845  -17.6209   22.4477 O   0  0  0  0  0  0  0  0  0  0  0  0
    8.9669  -14.6915   17.0474 N   0  0  0  0  0  0  0  0  0  0  0  0
   12.0253  -16.6835   23.9175 C   0  0  1  0  0  0  0  0  0  0  0  0
   12.0968  -17.9114   24.6898 C   0  0  0  0  0  0  0  0  0  0  0  0
   13.4835  -18.1281   25.2708 C   0  0  0  0  0  0  0  0  0  0  0  0
   14.5602  -17.9073   24.2741 O   0  0  0  0  0  0  0  0  0  0  0  0
   14.6064  -18.5129   23.1687 C   0  0  0  0  0  0  0  0  0  0  0  0
   11.1712  -17.8283   25.8213 O   0  0  0  0  0  0  0  0  0  0  0  0
   10.5146  -16.7892   26.0519 O   0  0  0  0  0  0  0  0  0  0  0  0
   15.5994  -16.9965   24.5151 O   0  0  0  0  0  0  0  0  0  0  0  0
  2  1  1  6
  2  3  1  0
  3  4  1  0
  4  8  1  0
  4  5  2  0
  6  7  2  0
  6  2  1  0
  9 10  1  0
 10 11  2  0
 12 10  1  0
 12 13  1  0
 13 14  1  0
 14 15  1  0
 16 15  1  6
 16 17  1  0
 17  6  1  0
 18 20  1  0
 18 16  1  0
 19 18  2  0
 21 25  1  0
 21 20  1  0
 22 23  1  0
 21 22  1  1
 23 24  2  0
 25 28  1  0
 26 25  2  0
 27 23  1  0
M  END
$$$$
