DRD.pdb
     RDKit          3D

 28 27  0  0  1  0  0  0  0  0999 V2000
   11.8055  -16.3383   19.1587 N   0  0  0  0  0  0  0  0  0  0  0  0
   12.7351  -15.5672   20.0273 C   0  0  1  0  0  0  0  0  0  0  0  0
   13.4792  -14.5577   19.2607 C   0  0  0  0  0  0  0  0  0  0  0  0
   14.1385  -15.1542   18.0697 C   0  0  0  0  0  0  0  0  0  0  0  0
   14.6574  -16.2897   18.0991 O   0  0  0  0  0  0  0  0  0  0  0  0
   11.8589  -15.0731   21.1176 C   0  0  0  0  0  0  0  0  0  0  0  0
   12.3650  -14.2891   22.0158 O   0  0  0  0  0  0  0  0  0  0  0  0
   14.2070  -14.4534   16.8543 O   0  0  0  0  0  0  0  0  0  0  0  0
    8.7774  -15.0082   17.9790 N   0  0  0  0  0  0  0  0  0  0  0  0
    8.3093  -13.6662   18.0608 C   0  0  0  0  0  0  0  0  0  0  0  0
    8.7455  -12.7562   17.2658 N   0  0  0  0  0  0  0  0  0  0  0  0
    7.3354  -13.3087   19.0425 N   0  0  0  0  0  0  0  0  0  0  0  0
    7.0521  -14.1557   20.1826 C   0  0  0  0  0  0  0  0  0  0  0  0
    7.8498  -13.7276   21.4103 C   0  0  0  0  0  0  0  0  0  0  0  0
    8.3285  -14.9321   22.1425 C   0  0  0  0  0  0  0  0  0  0  0  0
    9.7836  -14.9278   22.5439 C   0  0  2  0  0  0  0  0  0  0  0  0
   10.4976  -15.3576   21.3158 N   0  0  0  0  0  0  0  0  0  0  0  0
   10.0159  -15.8776   23.6304 C   0  0  0  0  0  0  0  0  0  0  0  0
    9.4292  -15.6674   24.7572 O   0  0  0  0  0  0  0  0  0  0  0  0
    8.4596  -11.7709   17.3824 N   0  0  0  0  0  0  0  0  0  0  0  0
   10.8172  -17.0366   23.6110 C   0  0  1  0  0  0  0  0  0  0  0  0
   11.0037  -17.8830   24.7763 C   0  0  0  0  0  0  0  0  0  0  0  0
   10.7023  -19.3390   24.4654 C   0  0  0  0  0  0  0  0  0  0  0  0
   10.9224  -20.2286   25.6325 O   0  0  0  0  0  0  0  0  0  0  0  0
   11.2258  -19.7955   26.7775 C   0  0  0  0  0  0  0  0  0  0  0  0
   12.4032  -17.8214   25.2025 O   0  0  0  0  0  0  0  0  0  0  0  0
   13.2745  -17.2616   24.5015 O   0  0  0  0  0  0  0  0  0  0  0  0
   10.8010  -21.6214   25.5190 O   0  0  0  0  0  0  0  0  0  0  0  0
  2  1  1  6
  2  3  1  0
  3  4  1  0
  4  8  1  0
  4  5  2  0
  6  7  2  0
  6  2  1  0
  9 10  1  0
 10 11  2  0
 12 10  1  0
 12 13  1  0
 13 14  1  0
 14 15  1  0
 16 15  1  6
 16 17  1  0
 17  6  1  0
 18 20  1  0
 18 16  1  0
 19 18  2  0
 21 25  1  0
 21 20  1  0
 22 23  1  0
 21 22  1  1
 23 24  2  0
 25 28  1  0
 26 25  2  0
 27 23  1  0
M  END
$$$$
