DRD.pdb
     RDKit          3D

 28 27  0  0  1  0  0  0  0  0999 V2000
   12.6475  -16.6501   18.6864 N   0  0  0  0  0  0  0  0  0  0  0  0
   13.3599  -15.5905   19.4501 C   0  0  1  0  0  0  0  0  0  0  0  0
   13.4516  -14.3401   18.6829 C   0  0  0  0  0  0  0  0  0  0  0  0
   14.4013  -14.4660   17.5466 C   0  0  0  0  0  0  0  0  0  0  0  0
   14.0833  -14.1543   16.3799 O   0  0  0  0  0  0  0  0  0  0  0  0
   12.6233  -15.5381   20.7367 C   0  0  0  0  0  0  0  0  0  0  0  0
   13.2154  -15.0342   21.7726 O   0  0  0  0  0  0  0  0  0  0  0  0
   15.7053  -14.9496   17.7443 O   0  0  0  0  0  0  0  0  0  0  0  0
    7.8731  -12.0544   20.6780 N   0  0  0  0  0  0  0  0  0  0  0  0
    8.3655  -12.6167   19.4663 C   0  0  0  0  0  0  0  0  0  0  0  0
    8.8459  -11.8766   18.5326 N   0  0  0  0  0  0  0  0  0  0  0  0
    8.3304  -14.0309   19.2699 N   0  0  0  0  0  0  0  0  0  0  0  0
    7.8871  -14.9367   20.3095 C   0  0  0  0  0  0  0  0  0  0  0  0
    8.6229  -14.6859   21.6220 C   0  0  0  0  0  0  0  0  0  0  0  0
    9.2347  -15.9544   22.1042 C   0  0  0  0  0  0  0  0  0  0  0  0
   10.7234  -15.9192   22.3515 C   0  0  2  0  0  0  0  0  0  0  0  0
   11.3161  -15.9844   20.9923 N   0  0  0  0  0  0  0  0  0  0  0  0
   11.1360  -17.0743   23.1463 C   0  0  0  0  0  0  0  0  0  0  0  0
   10.9512  -18.2492   22.6526 O   0  0  0  0  0  0  0  0  0  0  0  0
    9.1803  -12.2918   17.6482 N   0  0  0  0  0  0  0  0  0  0  0  0
   11.7357  -17.0785   24.4215 C   0  0  1  0  0  0  0  0  0  0  0  0
   12.0260  -18.3010   25.1498 C   0  0  0  0  0  0  0  0  0  0  0  0
   13.3231  -18.1924   25.9328 C   0  0  0  0  0  0  0  0  0  0  0  0
   14.5020  -17.9821   25.0567 O   0  0  0  0  0  0  0  0  0  0  0  0
   14.4340  -18.0065   23.7975 C   0  0  0  0  0  0  0  0  0  0  0  0
   10.9620  -18.5502   26.1244 O   0  0  0  0  0  0  0  0  0  0  0  0
   10.0268  -17.7369   26.2912 O   0  0  0  0  0  0  0  0  0  0  0  0
   15.7747  -17.7403   25.5947 O   0  0  0  0  0  0  0  0  0  0  0  0
  2  1  1  6
  2  3  1  0
  3  4  1  0
  4  8  1  0
  4  5  2  0
  6  7  2  0
  6  2  1  0
  9 10  1  0
 10 11  2  0
 12 10  1  0
 12 13  1  0
 13 14  1  0
 14 15  1  0
 16 15  1  6
 16 17  1  0
 17  6  1  0
 18 20  1  0
 18 16  1  0
 19 18  2  0
 21 25  1  0
 21 20  1  0
 22 23  1  0
 21 22  1  6
 23 24  2  0
 25 28  1  0
 26 25  2  0
 27 23  1  0
M  END
$$$$
