DRD.pdb
     RDKit          3D

 28 27  0  0  1  0  0  0  0  0999 V2000
   14.9804  -17.1452   17.3824 N   0  0  0  0  0  0  0  0  0  0  0  0
   14.8109  -15.6849   17.1546 C   0  0  1  0  0  0  0  0  0  0  0  0
   14.2941  -15.4044   15.8074 C   0  0  0  0  0  0  0  0  0  0  0  0
   15.2814  -14.6514   14.9905 C   0  0  0  0  0  0  0  0  0  0  0  0
   14.9821  -14.1482   13.8875 O   0  0  0  0  0  0  0  0  0  0  0  0
   13.9737  -15.2516   18.3000 C   0  0  0  0  0  0  0  0  0  0  0  0
   14.4406  -14.3527   19.1072 O   0  0  0  0  0  0  0  0  0  0  0  0
   16.6039  -14.4795   15.4318 O   0  0  0  0  0  0  0  0  0  0  0  0
    7.7185  -12.0202   20.8888 N   0  0  0  0  0  0  0  0  0  0  0  0
    7.8369  -12.2415   19.4874 C   0  0  0  0  0  0  0  0  0  0  0  0
    7.7577  -11.2720   18.6483 N   0  0  0  0  0  0  0  0  0  0  0  0
    8.0473  -13.5633   18.9891 N   0  0  0  0  0  0  0  0  0  0  0  0
    8.1585  -14.7053   19.8729 C   0  0  0  0  0  0  0  0  0  0  0  0
    9.5543  -14.8103   20.4793 C   0  0  0  0  0  0  0  0  0  0  0  0
   10.5504  -15.0677   19.4034 C   0  0  0  0  0  0  0  0  0  0  0  0
   11.9847  -15.2144   19.8507 C   0  0  2  0  0  0  0  0  0  0  0  0
   12.6902  -15.7088   18.6421 N   0  0  0  0  0  0  0  0  0  0  0  0
   12.0835  -16.1885   20.9359 C   0  0  0  0  0  0  0  0  0  0  0  0
   11.9644  -17.4372   20.6446 O   0  0  0  0  0  0  0  0  0  0  0  0
    7.7559  -11.4517   17.6315 N   0  0  0  0  0  0  0  0  0  0  0  0
   12.3057  -15.9401   22.3051 C   0  0  2  0  0  0  0  0  0  0  0  0
   12.3842  -17.0008   23.2940 C   0  0  0  0  0  0  0  0  0  0  0  0
   12.9162  -16.4906   24.6221 C   0  0  0  0  0  0  0  0  0  0  0  0
   13.0914  -17.5743   25.6204 O   0  0  0  0  0  0  0  0  0  0  0  0
   13.3512  -18.7662   25.3003 C   0  0  0  0  0  0  0  0  0  0  0  0
   11.0420  -17.5275   23.5490 O   0  0  0  0  0  0  0  0  0  0  0  0
   10.0379  -16.7821   23.5485 O   0  0  0  0  0  0  0  0  0  0  0  0
   12.9755  -17.3228   26.9955 O   0  0  0  0  0  0  0  0  0  0  0  0
  2  1  1  6
  2  3  1  0
  3  4  1  0
  4  8  1  0
  4  5  2  0
  6  7  2  0
  6  2  1  0
  9 10  1  0
 10 11  2  0
 12 10  1  0
 12 13  1  0
 13 14  1  0
 14 15  1  0
 16 15  1  6
 16 17  1  0
 17  6  1  0
 18 20  1  0
 18 16  1  0
 19 18  2  0
 21 25  1  0
 21 20  1  0
 22 23  1  0
 21 22  1  1
 23 24  2  0
 25 28  1  0
 26 25  2  0
 27 23  1  0
M  END
$$$$
