DRD.pdb
     RDKit          3D

 28 27  0  0  1  0  0  0  0  0999 V2000
   12.7780  -15.7699   17.8806 N   0  0  0  0  0  0  0  0  0  0  0  0
   13.7773  -15.2539   18.8544 C   0  0  1  0  0  0  0  0  0  0  0  0
   14.3839  -13.9974   18.3920 C   0  0  0  0  0  0  0  0  0  0  0  0
   15.0442  -14.1645   17.0710 C   0  0  0  0  0  0  0  0  0  0  0  0
   14.9700  -15.2296   16.4234 O   0  0  0  0  0  0  0  0  0  0  0  0
   13.0232  -15.2072   20.1310 C   0  0  0  0  0  0  0  0  0  0  0  0
   13.5963  -14.6962   21.1741 O   0  0  0  0  0  0  0  0  0  0  0  0
   15.7882  -13.1202   16.4973 O   0  0  0  0  0  0  0  0  0  0  0  0
    7.8831  -11.4599   19.1860 N   0  0  0  0  0  0  0  0  0  0  0  0
    8.0363  -12.7402   18.5824 C   0  0  0  0  0  0  0  0  0  0  0  0
    8.7188  -12.8941   17.5050 N   0  0  0  0  0  0  0  0  0  0  0  0
    7.4237  -13.8862   19.1749 N   0  0  0  0  0  0  0  0  0  0  0  0
    8.2040  -15.0063   19.6588 C   0  0  0  0  0  0  0  0  0  0  0  0
    8.8077  -14.7178   21.0296 C   0  0  0  0  0  0  0  0  0  0  0  0
    9.6375  -15.8742   21.4657 C   0  0  0  0  0  0  0  0  0  0  0  0
   11.0976  -15.5843   21.7160 C   0  0  2  0  0  0  0  0  0  0  0  0
   11.7172  -15.6661   20.3698 N   0  0  0  0  0  0  0  0  0  0  0  0
   11.6722  -16.5909   22.6065 C   0  0  0  0  0  0  0  0  0  0  0  0
   11.6515  -17.8212   22.2268 O   0  0  0  0  0  0  0  0  0  0  0  0
    8.8502  -13.8313   17.0918 N   0  0  0  0  0  0  0  0  0  0  0  0
   12.2731  -16.3916   23.8654 C   0  0  1  0  0  0  0  0  0  0  0  0
   12.7232  -17.4885   24.7042 C   0  0  0  0  0  0  0  0  0  0  0  0
   14.0975  -17.2174   25.2917 C   0  0  0  0  0  0  0  0  0  0  0  0
   15.1626  -17.1846   24.2591 O   0  0  0  0  0  0  0  0  0  0  0  0
   14.9536  -17.4708   23.0487 C   0  0  0  0  0  0  0  0  0  0  0  0
   11.8034  -17.6463   25.8325 O   0  0  0  0  0  0  0  0  0  0  0  0
   10.8512  -16.8561   26.0132 O   0  0  0  0  0  0  0  0  0  0  0  0
   16.4795  -16.8262   24.5831 O   0  0  0  0  0  0  0  0  0  0  0  0
  2  1  1  6
  2  3  1  0
  3  4  1  0
  4  8  1  0
  4  5  2  0
  6  7  2  0
  6  2  1  0
  9 10  1  0
 10 11  2  0
 12 10  1  0
 12 13  1  0
 13 14  1  0
 14 15  1  0
 16 15  1  6
 16 17  1  0
 17  6  1  0
 18 20  1  0
 18 16  1  0
 19 18  2  0
 21 25  1  0
 21 20  1  0
 22 23  1  0
 21 22  1  6
 23 24  2  0
 25 28  1  0
 26 25  2  0
 27 23  1  0
M  END
$$$$
