DRD.pdb
     RDKit          3D

 28 27  0  0  1  0  0  0  0  0999 V2000
   10.5214  -17.0719   17.5603 N   0  0  0  0  0  0  0  0  0  0  0  0
   10.6482  -18.1186   18.6099 C   0  0  1  0  0  0  0  0  0  0  0  0
   11.7705  -19.0270   18.3346 C   0  0  0  0  0  0  0  0  0  0  0  0
   11.5823  -19.7531   17.0515 C   0  0  0  0  0  0  0  0  0  0  0  0
   12.5010  -19.8657   16.2132 O   0  0  0  0  0  0  0  0  0  0  0  0
   10.7075  -17.3384   19.8702 C   0  0  0  0  0  0  0  0  0  0  0  0
   11.6708  -16.4877   20.0307 O   0  0  0  0  0  0  0  0  0  0  0  0
   10.3489  -20.3428   16.7286 O   0  0  0  0  0  0  0  0  0  0  0  0
    7.9766  -11.5082   20.5706 N   0  0  0  0  0  0  0  0  0  0  0  0
    8.2593  -12.5678   19.6626 C   0  0  0  0  0  0  0  0  0  0  0  0
    8.7082  -12.3345   18.4818 N   0  0  0  0  0  0  0  0  0  0  0  0
    8.0435  -13.9230   20.0581 N   0  0  0  0  0  0  0  0  0  0  0  0
    7.7573  -14.2827   21.4316 C   0  0  0  0  0  0  0  0  0  0  0  0
    7.5845  -15.7898   21.5915 C   0  0  0  0  0  0  0  0  0  0  0  0
    8.5457  -16.2998   22.6074 C   0  0  0  0  0  0  0  0  0  0  0  0
    9.9635  -16.5064   22.1321 C   0  0  2  0  0  0  0  0  0  0  0  0
    9.8231  -17.4054   20.9596 N   0  0  0  0  0  0  0  0  0  0  0  0
   10.7631  -17.1459   23.1752 C   0  0  0  0  0  0  0  0  0  0  0  0
   10.4342  -18.3328   23.5513 O   0  0  0  0  0  0  0  0  0  0  0  0
    8.9346  -13.1106   17.8394 N   0  0  0  0  0  0  0  0  0  0  0  0
   11.8886  -16.6258   23.8448 C   0  0  1  0  0  0  0  0  0  0  0  0
   12.5905  -17.3554   24.8861 C   0  0  0  0  0  0  0  0  0  0  0  0
   14.0314  -16.8935   25.0201 C   0  0  0  0  0  0  0  0  0  0  0  0
   14.7123  -16.7619   23.7083 O   0  0  0  0  0  0  0  0  0  0  0  0
   14.7692  -17.7006   22.8679 C   0  0  0  0  0  0  0  0  0  0  0  0
   11.9434  -17.1049   26.1755 O   0  0  0  0  0  0  0  0  0  0  0  0
   10.9262  -16.3830   26.2654 O   0  0  0  0  0  0  0  0  0  0  0  0
   15.3376  -15.5647   23.3298 O   0  0  0  0  0  0  0  0  0  0  0  0
  2  1  1  6
  2  3  1  0
  3  4  1  0
  4  8  1  0
  4  5  2  0
  6  7  2  0
  6  2  1  0
  9 10  1  0
 10 11  2  0
 12 10  1  0
 12 13  1  0
 13 14  1  0
 14 15  1  0
 16 15  1  1
 16 17  1  0
 17  6  1  0
 18 20  1  0
 18 16  1  0
 19 18  2  0
 21 25  1  0
 21 20  1  0
 22 23  1  0
 21 22  1  6
 23 24  2  0
 25 28  1  0
 26 25  2  0
 27 23  1  0
M  END
$$$$
