DRD.pdb
     RDKit          3D

 28 27  0  0  1  0  0  0  0  0999 V2000
   12.3702  -16.7414   18.8783 N   0  0  0  0  0  0  0  0  0  0  0  0
   13.2099  -15.7815   19.6443 C   0  0  1  0  0  0  0  0  0  0  0  0
   13.5568  -14.6030   18.8371 C   0  0  0  0  0  0  0  0  0  0  0  0
   14.4702  -14.9573   17.7195 C   0  0  0  0  0  0  0  0  0  0  0  0
   14.0661  -15.0664   16.5429 O   0  0  0  0  0  0  0  0  0  0  0  0
   12.4229  -15.5434   20.8790 C   0  0  0  0  0  0  0  0  0  0  0  0
   13.0342  -15.0984   21.9306 O   0  0  0  0  0  0  0  0  0  0  0  0
   15.8366  -15.1893   17.9482 O   0  0  0  0  0  0  0  0  0  0  0  0
    7.8383  -12.8833   17.0394 N   0  0  0  0  0  0  0  0  0  0  0  0
    7.9786  -12.8512   18.4557 C   0  0  0  0  0  0  0  0  0  0  0  0
    8.7877  -12.0345   19.0291 N   0  0  0  0  0  0  0  0  0  0  0  0
    7.2114  -13.7397   19.2691 N   0  0  0  0  0  0  0  0  0  0  0  0
    7.3639  -13.7829   20.7088 C   0  0  0  0  0  0  0  0  0  0  0  0
    8.8268  -13.9366   21.1127 C   0  0  0  0  0  0  0  0  0  0  0  0
    8.9780  -15.1138   22.0111 C   0  0  0  0  0  0  0  0  0  0  0  0
   10.3935  -15.4906   22.3760 C   0  0  2  0  0  0  0  0  0  0  0  0
   11.0462  -15.7487   21.0682 N   0  0  0  0  0  0  0  0  0  0  0  0
   10.4037  -16.6972   23.2007 C   0  0  0  0  0  0  0  0  0  0  0  0
    9.6464  -17.6785   22.8517 O   0  0  0  0  0  0  0  0  0  0  0  0
    9.3112  -11.3351   18.4786 N   0  0  0  0  0  0  0  0  0  0  0  0
   11.1607  -16.9453   24.3631 C   0  0  1  0  0  0  0  0  0  0  0  0
   11.0513  -18.1772   25.1246 C   0  0  0  0  0  0  0  0  0  0  0  0
   12.0866  -19.1995   24.6883 C   0  0  0  0  0  0  0  0  0  0  0  0
   12.0335  -20.4443   25.4942 O   0  0  0  0  0  0  0  0  0  0  0  0
   11.2285  -20.6081   26.4511 C   0  0  0  0  0  0  0  0  0  0  0  0
   11.3018  -17.8974   26.5398 O   0  0  0  0  0  0  0  0  0  0  0  0
   11.8174  -16.8199   26.9104 O   0  0  0  0  0  0  0  0  0  0  0  0
   12.8913  -21.5215   25.2268 O   0  0  0  0  0  0  0  0  0  0  0  0
  2  1  1  6
  2  3  1  0
  3  4  1  0
  4  8  1  0
  4  5  2  0
  6  7  2  0
  6  2  1  0
  9 10  1  0
 10 11  2  0
 12 10  1  0
 12 13  1  0
 13 14  1  0
 14 15  1  0
 16 15  1  6
 16 17  1  0
 17  6  1  0
 18 20  1  0
 18 16  1  0
 19 18  2  0
 21 25  1  0
 21 20  1  0
 22 23  1  0
 21 22  1  1
 23 24  2  0
 25 28  1  0
 26 25  2  0
 27 23  1  0
M  END
$$$$
