DRD.pdb
     RDKit          3D

 28 27  0  0  1  0  0  0  0  0999 V2000
   12.9210  -16.1490   17.8766 N   0  0  0  0  0  0  0  0  0  0  0  0
   13.8380  -15.4686   18.8302 C   0  0  1  0  0  0  0  0  0  0  0  0
   14.4363  -14.2634   18.2383 C   0  0  0  0  0  0  0  0  0  0  0  0
   15.4282  -14.6075   17.1864 C   0  0  0  0  0  0  0  0  0  0  0  0
   15.7055  -15.7907   16.8991 O   0  0  0  0  0  0  0  0  0  0  0  0
   12.9999  -15.2793   20.0396 C   0  0  0  0  0  0  0  0  0  0  0  0
   13.5097  -14.6661   21.0602 O   0  0  0  0  0  0  0  0  0  0  0  0
   16.1012  -13.6033   16.4710 O   0  0  0  0  0  0  0  0  0  0  0  0
    8.1621  -14.5177   16.9824 N   0  0  0  0  0  0  0  0  0  0  0  0
    7.5466  -13.3897   17.5953 C   0  0  0  0  0  0  0  0  0  0  0  0
    7.3903  -12.2851   16.9584 N   0  0  0  0  0  0  0  0  0  0  0  0
    7.0894  -13.4724   18.9458 N   0  0  0  0  0  0  0  0  0  0  0  0
    7.5587  -14.5014   19.8505 C   0  0  0  0  0  0  0  0  0  0  0  0
    9.0399  -14.3308   20.1728 C   0  0  0  0  0  0  0  0  0  0  0  0
    9.4857  -15.4258   21.0774 C   0  0  0  0  0  0  0  0  0  0  0  0
   10.9380  -15.3954   21.4878 C   0  0  2  0  0  0  0  0  0  0  0  0
   11.6731  -15.6976   20.2344 N   0  0  0  0  0  0  0  0  0  0  0  0
   11.2044  -16.4183   22.4973 C   0  0  0  0  0  0  0  0  0  0  0  0
   11.1560  -17.6539   22.1381 O   0  0  0  0  0  0  0  0  0  0  0  0
    7.0084  -11.4510   17.4325 N   0  0  0  0  0  0  0  0  0  0  0  0
   11.5249  -16.2307   23.8566 C   0  0  2  0  0  0  0  0  0  0  0  0
   11.6904  -17.3353   24.7850 C   0  0  0  0  0  0  0  0  0  0  0  0
   12.3707  -16.8914   26.0686 C   0  0  0  0  0  0  0  0  0  0  0  0
   12.5875  -18.0126   27.0160 O   0  0  0  0  0  0  0  0  0  0  0  0
   11.7051  -18.4058   27.8268 C   0  0  0  0  0  0  0  0  0  0  0  0
   10.3742  -17.8554   25.1607 O   0  0  0  0  0  0  0  0  0  0  0  0
    9.3378  -17.1696   25.0213 O   0  0  0  0  0  0  0  0  0  0  0  0
   13.8069  -18.7046   27.0578 O   0  0  0  0  0  0  0  0  0  0  0  0
  2  1  1  6
  2  3  1  0
  3  4  1  0
  4  8  1  0
  4  5  2  0
  6  7  2  0
  6  2  1  0
  9 10  1  0
 10 11  2  0
 12 10  1  0
 12 13  1  0
 13 14  1  0
 14 15  1  0
 16 15  1  6
 16 17  1  0
 17  6  1  0
 18 20  1  0
 18 16  1  0
 19 18  2  0
 21 25  1  0
 21 20  1  0
 22 23  1  0
 21 22  1  1
 23 24  2  0
 25 28  1  0
 26 25  2  0
 27 23  1  0
M  END
$$$$
