DRD.pdb
     RDKit          3D

 28 27  0  0  1  0  0  0  0  0999 V2000
    7.3169  -13.6506   16.8970 N   0  0  0  0  0  0  0  0  0  0  0  0
    7.6757  -14.9407   17.5452 C   0  0  1  0  0  0  0  0  0  0  0  0
    8.4164  -15.8189   16.6282 C   0  0  0  0  0  0  0  0  0  0  0  0
    7.5367  -16.3546   15.5567 C   0  0  0  0  0  0  0  0  0  0  0  0
    6.3027  -16.4713   15.7094 O   0  0  0  0  0  0  0  0  0  0  0  0
    8.3731  -14.5215   18.7856 C   0  0  0  0  0  0  0  0  0  0  0  0
    9.4298  -13.7793   18.6850 O   0  0  0  0  0  0  0  0  0  0  0  0
    8.0670  -16.7579   14.3201 O   0  0  0  0  0  0  0  0  0  0  0  0
    7.3570  -11.9742   28.1548 N   0  0  0  0  0  0  0  0  0  0  0  0
    6.8378  -12.5370   26.9546 C   0  0  0  0  0  0  0  0  0  0  0  0
    5.5765  -12.7194   26.7927 N   0  0  0  0  0  0  0  0  0  0  0  0
    7.7251  -12.9123   25.9003 N   0  0  0  0  0  0  0  0  0  0  0  0
    7.2372  -13.4111   24.6311 C   0  0  0  0  0  0  0  0  0  0  0  0
    8.3815  -13.6908   23.6620 C   0  0  0  0  0  0  0  0  0  0  0  0
    7.8310  -14.0673   22.3312 C   0  0  0  0  0  0  0  0  0  0  0  0
    8.8466  -14.3798   21.2590 C   0  0  2  0  0  0  0  0  0  0  0  0
    8.0276  -14.8391   20.1096 N   0  0  0  0  0  0  0  0  0  0  0  0
    9.7470  -15.4420   21.7034 C   0  0  0  0  0  0  0  0  0  0  0  0
    9.3202  -16.6563   21.6648 O   0  0  0  0  0  0  0  0  0  0  0  0
    5.2060  -13.0922   25.9039 N   0  0  0  0  0  0  0  0  0  0  0  0
   11.0674  -15.3155   22.1790 C   0  0  1  0  0  0  0  0  0  0  0  0
   11.8576  -16.4525   22.6173 C   0  0  0  0  0  0  0  0  0  0  0  0
   13.3400  -16.1232   22.6562 C   0  0  0  0  0  0  0  0  0  0  0  0
   14.1746  -17.2939   23.0231 O   0  0  0  0  0  0  0  0  0  0  0  0
   14.0181  -18.4356   22.5105 C   0  0  0  0  0  0  0  0  0  0  0  0
   11.4684  -16.8178   23.9808 O   0  0  0  0  0  0  0  0  0  0  0  0
   10.9596  -15.9823   24.7598 O   0  0  0  0  0  0  0  0  0  0  0  0
   15.1990  -17.1875   23.9754 O   0  0  0  0  0  0  0  0  0  0  0  0
  2  1  1  6
  2  3  1  0
  3  4  1  0
  4  8  1  0
  4  5  2  0
  6  7  2  0
  6  2  1  0
  9 10  1  0
 10 11  2  0
 12 10  1  0
 12 13  1  0
 13 14  1  0
 14 15  1  0
 16 15  1  1
 16 17  1  0
 17  6  1  0
 18 20  1  0
 18 16  1  0
 19 18  2  0
 21 25  1  0
 21 20  1  0
 22 23  1  0
 21 22  1  1
 23 24  2  0
 25 28  1  0
 26 25  2  0
 27 23  1  0
M  END
$$$$
