DRD.pdb
     RDKit          3D

 28 27  0  0  1  0  0  0  0  0999 V2000
    7.9491  -16.2952   20.2140 N   0  0  0  0  0  0  0  0  0  0  0  0
    8.0166  -14.9733   20.8932 C   0  0  1  0  0  0  0  0  0  0  0  0
    7.3104  -13.9357   20.1281 C   0  0  0  0  0  0  0  0  0  0  0  0
    7.8809  -13.7805   18.7645 C   0  0  0  0  0  0  0  0  0  0  0  0
    8.8883  -14.4173   18.3915 O   0  0  0  0  0  0  0  0  0  0  0  0
    7.5146  -15.2610   22.2592 C   0  0  0  0  0  0  0  0  0  0  0  0
    7.1482  -14.2705   23.0090 O   0  0  0  0  0  0  0  0  0  0  0  0
    7.3041  -12.8988   17.8355 O   0  0  0  0  0  0  0  0  0  0  0  0
    8.2875  -21.5660   23.7827 N   0  0  0  0  0  0  0  0  0  0  0  0
    7.6052  -22.0934   24.9155 C   0  0  0  0  0  0  0  0  0  0  0  0
    8.0738  -23.0927   25.5728 N   0  0  0  0  0  0  0  0  0  0  0  0
    6.3727  -21.5107   25.3412 N   0  0  0  0  0  0  0  0  0  0  0  0
    5.8077  -20.3507   24.6834 C   0  0  0  0  0  0  0  0  0  0  0  0
    6.6947  -19.1217   24.8556 C   0  0  0  0  0  0  0  0  0  0  0  0
    6.0552  -17.9463   24.2033 C   0  0  0  0  0  0  0  0  0  0  0  0
    6.8386  -16.6567   24.2484 C   0  0  2  0  0  0  0  0  0  0  0  0
    7.3820  -16.5169   22.8744 N   0  0  0  0  0  0  0  0  0  0  0  0
    7.9248  -16.7535   25.2216 C   0  0  0  0  0  0  0  0  0  0  0  0
    9.0001  -17.3703   24.8729 O   0  0  0  0  0  0  0  0  0  0  0  0
    7.6349  -23.3968   26.4566 N   0  0  0  0  0  0  0  0  0  0  0  0
    7.9605  -16.2404   26.5335 C   0  0  2  0  0  0  0  0  0  0  0  0
    9.1749  -16.1994   27.3290 C   0  0  0  0  0  0  0  0  0  0  0  0
    9.1126  -15.1156   28.3915 C   0  0  0  0  0  0  0  0  0  0  0  0
   10.3513  -15.0431   29.2052 O   0  0  0  0  0  0  0  0  0  0  0  0
   11.3424  -15.7994   29.0147 C   0  0  0  0  0  0  0  0  0  0  0  0
    9.3385  -17.4734   28.0319 O   0  0  0  0  0  0  0  0  0  0  0  0
   10.3911  -17.7475   28.6489 O   0  0  0  0  0  0  0  0  0  0  0  0
   10.4849  -14.1121   30.2458 O   0  0  0  0  0  0  0  0  0  0  0  0
  2  1  1  6
  2  3  1  0
  3  4  1  0
  4  8  1  0
  4  5  2  0
  6  7  2  0
  6  2  1  0
  9 10  1  0
 10 11  2  0
 12 10  1  0
 12 13  1  0
 13 14  1  0
 14 15  1  0
 16 15  1  6
 16 17  1  0
 17  6  1  0
 18 20  1  0
 18 16  1  0
 19 18  2  0
 21 25  1  0
 21 20  1  0
 22 23  1  0
 21 22  1  1
 23 24  2  0
 25 28  1  0
 26 25  2  0
 27 23  1  0
M  END
$$$$
