SCC.pdb
     RDKit          3D

 19 18  0  0  1  0  0  0  0  0999 V2000
    1.1704  -22.2325   23.8031 O   0  0  0  0  0  0  0  0  0  0  0  0
    0.3092  -21.9891   22.7295 C   0  0  0  0  0  0  0  0  0  0  0  0
   -0.0002  -20.5080   22.7484 C   0  0  2  0  0  0  0  0  0  0  0  0
    1.2303  -19.7918   22.8340 N   0  0  0  0  0  0  0  0  0  0  0  0
   -0.9536  -20.1609   23.8373 C   0  0  0  0  0  0  0  0  0  0  0  0
   -0.5630  -19.6183   24.8801 O   0  0  0  0  0  0  0  0  0  0  0  0
   -2.3249  -20.4708   23.6445 N   0  0  0  0  0  0  0  0  0  0  0  0
   -3.3749  -20.2995   24.5998 C   0  0  1  0  0  0  0  0  0  0  0  0
   -4.5608  -19.5786   24.0494 C   0  0  0  0  0  0  0  0  0  0  0  0
   -5.8122  -19.2307   25.3087 S   0  0  0  0  0  0  0  0  0  0  0  0
   -3.7108  -21.5354   25.3711 C   0  0  0  0  0  0  0  0  0  0  0  0
   -3.8150  -22.6498   24.8133 O   0  0  0  0  0  0  0  0  0  0  0  0
   -3.9192  -21.4678   26.7648 N   0  0  0  0  0  0  0  0  0  0  0  0
   -4.2476  -22.5861   27.6210 C   0  0  1  0  0  0  0  0  0  0  0  0
   -3.3745  -22.7438   28.8080 C   0  0  0  0  0  0  0  0  0  0  0  0
   -3.9153  -24.0079   29.9558 S   0  0  0  0  0  0  0  0  0  0  0  0
   -5.7122  -22.6189   27.9156 C   0  0  0  0  0  0  0  0  0  0  0  0
   -6.4445  -21.6133   27.8076 O   0  0  0  0  0  0  0  0  0  0  0  0
   -6.2639  -23.7964   28.3208 O   0  0  0  0  0  0  0  0  0  0  0  0
  1  2  1  0
  2  3  1  0
  3  5  1  0
  3  4  1  1
  5  6  2  0
  7  8  1  0
  7  5  1  0
  9 10  1  0
  8  9  1  6
 11  8  1  0
 11 12  2  0
 13 11  1  0
 14 13  1  0
 14 17  1  0
 14 15  1  1
 16 15  1  0
 17 18  2  0
 17 19  1  0
M  END
$$$$
