SCC.pdb
     RDKit          3D

 19 18  0  0  1  0  0  0  0  0999 V2000
    8.9875  -18.1749   22.1752 O   0  0  0  0  0  0  0  0  0  0  0  0
    8.1092  -17.1560   21.7957 C   0  0  0  0  0  0  0  0  0  0  0  0
    8.9100  -15.8722   21.7906 C   0  0  2  0  0  0  0  0  0  0  0  0
    9.8579  -15.9368   20.7267 N   0  0  0  0  0  0  0  0  0  0  0  0
    9.5371  -15.6118   23.1149 C   0  0  0  0  0  0  0  0  0  0  0  0
   10.6931  -15.9840   23.3592 O   0  0  0  0  0  0  0  0  0  0  0  0
    8.7699  -14.9236   24.0903 N   0  0  0  0  0  0  0  0  0  0  0  0
    9.1455  -14.6826   25.4487 C   0  0  1  0  0  0  0  0  0  0  0  0
    8.3576  -13.5904   26.0933 C   0  0  0  0  0  0  0  0  0  0  0  0
    8.9417  -13.1990   27.7601 S   0  0  0  0  0  0  0  0  0  0  0  0
    9.2742  -15.9194   26.2787 C   0  0  0  0  0  0  0  0  0  0  0  0
    8.3375  -16.7414   26.3823 O   0  0  0  0  0  0  0  0  0  0  0  0
   10.4736  -16.1877   26.9716 N   0  0  0  0  0  0  0  0  0  0  0  0
   10.7110  -17.3260   27.8316 C   0  0  1  0  0  0  0  0  0  0  0  0
   11.8114  -18.2192   27.3987 C   0  0  0  0  0  0  0  0  0  0  0  0
   12.3485  -17.9591   25.7100 S   0  0  0  0  0  0  0  0  0  0  0  0
   10.7754  -16.9065   29.2643 C   0  0  0  0  0  0  0  0  0  0  0  0
   10.7183  -15.7110   29.6203 O   0  0  0  0  0  0  0  0  0  0  0  0
   10.9047  -17.8727   30.2156 O   0  0  0  0  0  0  0  0  0  0  0  0
  1  2  1  0
  2  3  1  0
  3  5  1  0
  3  4  1  6
  5  6  2  0
  7  8  1  0
  7  5  1  0
  9 10  1  0
  8  9  1  1
 11  8  1  0
 11 12  2  0
 13 11  1  0
 14 13  1  0
 14 17  1  0
 14 15  1  6
 16 15  1  0
 17 18  2  0
 17 19  1  0
M  END
$$$$
