SCC.pdb
     RDKit          3D

 19 18  0  0  1  0  0  0  0  0999 V2000
    7.2478  -18.7608   23.7436 O   0  0  0  0  0  0  0  0  0  0  0  0
    6.1625  -17.9407   23.4224 C   0  0  0  0  0  0  0  0  0  0  0  0
    6.6841  -16.8813   22.4762 C   0  0  2  0  0  0  0  0  0  0  0  0
    7.2238  -17.5305   21.3265 N   0  0  0  0  0  0  0  0  0  0  0  0
    7.6588  -15.9787   23.1471 C   0  0  0  0  0  0  0  0  0  0  0  0
    8.8764  -16.0931   22.9503 O   0  0  0  0  0  0  0  0  0  0  0  0
    7.1504  -14.9820   24.0200 N   0  0  0  0  0  0  0  0  0  0  0  0
    7.9136  -14.1734   24.9190 C   0  0  1  0  0  0  0  0  0  0  0  0
    7.1972  -12.9376   25.3532 C   0  0  0  0  0  0  0  0  0  0  0  0
    5.8181  -13.2867   26.4706 S   0  0  0  0  0  0  0  0  0  0  0  0
    8.5570  -14.9342   26.0335 C   0  0  0  0  0  0  0  0  0  0  0  0
    7.9535  -15.8458   26.6407 O   0  0  0  0  0  0  0  0  0  0  0  0
    9.8781  -14.6345   26.4278 N   0  0  0  0  0  0  0  0  0  0  0  0
   10.5636  -15.1996   27.5689 C   0  0  1  0  0  0  0  0  0  0  0  0
    9.9781  -14.8538   28.8856 C   0  0  0  0  0  0  0  0  0  0  0  0
    9.8331  -13.0942   29.1865 S   0  0  0  0  0  0  0  0  0  0  0  0
   10.8238  -16.6569   27.3657 C   0  0  0  0  0  0  0  0  0  0  0  0
   10.4240  -17.2796   26.3599 O   0  0  0  0  0  0  0  0  0  0  0  0
   11.5239  -17.3282   28.3220 O   0  0  0  0  0  0  0  0  0  0  0  0
  1  2  1  0
  2  3  1  0
  3  5  1  0
  3  4  1  6
  5  6  2  0
  7  8  1  0
  7  5  1  0
  9 10  1  0
  8  9  1  1
 11  8  1  0
 11 12  2  0
 13 11  1  0
 14 13  1  0
 14 17  1  0
 14 15  1  1
 16 15  1  0
 17 18  2  0
 17 19  1  0
M  END
$$$$
