SCC.pdb
     RDKit          3D

 19 18  0  0  1  0  0  0  0  0999 V2000
    1.4614  -26.1002   33.0900 O   0  0  0  0  0  0  0  0  0  0  0  0
    0.3737  -26.9655   33.2383 C   0  0  0  0  0  0  0  0  0  0  0  0
   -0.5840  -26.6565   32.1082 C   0  0  2  0  0  0  0  0  0  0  0  0
    0.1552  -26.6190   30.8889 N   0  0  0  0  0  0  0  0  0  0  0  0
   -1.3493  -25.4060   32.3645 C   0  0  0  0  0  0  0  0  0  0  0  0
   -1.1794  -24.3978   31.6653 O   0  0  0  0  0  0  0  0  0  0  0  0
   -2.2805  -25.4039   33.4353 N   0  0  0  0  0  0  0  0  0  0  0  0
   -3.2117  -24.3645   33.7465 C   0  0  1  0  0  0  0  0  0  0  0  0
   -4.1867  -24.0980   32.6477 C   0  0  0  0  0  0  0  0  0  0  0  0
   -5.3016  -22.7235   33.0222 S   0  0  0  0  0  0  0  0  0  0  0  0
   -3.8308  -24.4805   35.1023 C   0  0  0  0  0  0  0  0  0  0  0  0
   -4.5356  -25.4633   35.4207 O   0  0  0  0  0  0  0  0  0  0  0  0
   -3.6285  -23.4684   36.0643 N   0  0  0  0  0  0  0  0  0  0  0  0
   -4.1202  -23.4906   37.4241 C   0  0  1  0  0  0  0  0  0  0  0  0
   -3.1831  -22.9519   38.4379 C   0  0  0  0  0  0  0  0  0  0  0  0
   -1.4914  -23.5072   38.2439 S   0  0  0  0  0  0  0  0  0  0  0  0
   -5.5056  -22.9355   37.4984 C   0  0  0  0  0  0  0  0  0  0  0  0
   -6.0455  -22.3397   36.5430 O   0  0  0  0  0  0  0  0  0  0  0  0
   -6.2012  -23.0866   38.6596 O   0  0  0  0  0  0  0  0  0  0  0  0
  1  2  1  0
  2  3  1  0
  3  5  1  0
  3  4  1  6
  5  6  2  0
  7  8  1  0
  7  5  1  0
  9 10  1  0
  8  9  1  6
 11  8  1  0
 11 12  2  0
 13 11  1  0
 14 13  1  0
 14 17  1  0
 14 15  1  1
 16 15  1  0
 17 18  2  0
 17 19  1  0
M  END
$$$$
