SCC.pdb
     RDKit          3D

 19 18  0  0  1  0  0  0  0  0999 V2000
    7.7313  -15.4235   19.0366 O   0  0  0  0  0  0  0  0  0  0  0  0
    6.7400  -14.4489   19.1814 C   0  0  0  0  0  0  0  0  0  0  0  0
    7.4140  -13.2281   19.7687 C   0  0  2  0  0  0  0  0  0  0  0  0
    8.2984  -12.6868   18.7892 N   0  0  0  0  0  0  0  0  0  0  0  0
    8.0917  -13.5419   21.0560 C   0  0  0  0  0  0  0  0  0  0  0  0
    9.3003  -13.8109   21.0932 O   0  0  0  0  0  0  0  0  0  0  0  0
    7.3106  -13.5236   22.2406 N   0  0  0  0  0  0  0  0  0  0  0  0
    7.7459  -13.9028   23.5487 C   0  0  1  0  0  0  0  0  0  0  0  0
    6.9091  -13.3216   24.6400 C   0  0  0  0  0  0  0  0  0  0  0  0
    7.4165  -13.8836   26.2830 S   0  0  0  0  0  0  0  0  0  0  0  0
    8.0284  -15.3628   23.7025 C   0  0  0  0  0  0  0  0  0  0  0  0
    7.1669  -16.2300   23.4383 O   0  0  0  0  0  0  0  0  0  0  0  0
    9.2921  -15.7977   24.1549 N   0  0  0  0  0  0  0  0  0  0  0  0
    9.6903  -17.1756   24.3400 C   0  0  1  0  0  0  0  0  0  0  0  0
   10.4021  -17.7817   23.1903 C   0  0  0  0  0  0  0  0  0  0  0  0
   10.6562  -16.6665   21.8120 S   0  0  0  0  0  0  0  0  0  0  0  0
   10.3655  -17.3619   25.6599 C   0  0  0  0  0  0  0  0  0  0  0  0
   10.7720  -18.4732   26.0586 O   0  0  0  0  0  0  0  0  0  0  0  0
   10.5389  -16.2711   26.4571 O   0  0  0  0  0  0  0  0  0  0  0  0
  1  2  1  0
  2  3  1  0
  3  5  1  0
  3  4  1  6
  5  6  2  0
  7  8  1  0
  7  5  1  0
  9 10  1  0
  8  9  1  1
 11  8  1  0
 11 12  2  0
 13 11  1  0
 14 13  1  0
 14 17  1  0
 14 15  1  6
 16 15  1  0
 17 18  2  0
 17 19  1  0
M  END
$$$$
