SCC.pdb
     RDKit          3D

 19 18  0  0  1  0  0  0  0  0999 V2000
    7.9579  -17.5893   13.9944 O   0  0  0  0  0  0  0  0  0  0  0  0
    8.4465  -17.3242   15.2768 C   0  0  0  0  0  0  0  0  0  0  0  0
    9.0143  -15.9220   15.2436 C   0  0  2  0  0  0  0  0  0  0  0  0
   10.0057  -15.8616   14.2200 N   0  0  0  0  0  0  0  0  0  0  0  0
    9.5276  -15.5065   16.5774 C   0  0  0  0  0  0  0  0  0  0  0  0
   10.7279  -15.6165   16.8631 O   0  0  0  0  0  0  0  0  0  0  0  0
    8.5993  -14.9802   17.5128 N   0  0  0  0  0  0  0  0  0  0  0  0
    8.8782  -14.6045   18.8639 C   0  0  1  0  0  0  0  0  0  0  0  0
    7.7486  -13.8814   19.5199 C   0  0  0  0  0  0  0  0  0  0  0  0
    7.1319  -12.5019   18.5253 S   0  0  0  0  0  0  0  0  0  0  0  0
    9.4737  -15.6958   19.6941 C   0  0  0  0  0  0  0  0  0  0  0  0
    9.1296  -16.8899   19.5542 O   0  0  0  0  0  0  0  0  0  0  0  0
   10.4512  -15.3955   20.6662 N   0  0  0  0  0  0  0  0  0  0  0  0
   11.1099  -16.3579   21.5214 C   0  0  1  0  0  0  0  0  0  0  0  0
   12.5895  -16.3604   21.4381 C   0  0  0  0  0  0  0  0  0  0  0  0
   13.3000  -17.9520   21.0261 S   0  0  0  0  0  0  0  0  0  0  0  0
   10.5638  -16.2971   22.9109 C   0  0  0  0  0  0  0  0  0  0  0  0
   10.9035  -17.1000   23.8048 O   0  0  0  0  0  0  0  0  0  0  0  0
    9.6565  -15.3252   23.2070 O   0  0  0  0  0  0  0  0  0  0  0  0
  1  2  1  0
  2  3  1  0
  3  5  1  0
  3  4  1  6
  5  6  2  0
  7  8  1  0
  7  5  1  0
  9 10  1  0
  8  9  1  1
 11  8  1  0
 11 12  2  0
 13 11  1  0
 14 13  1  0
 14 17  1  0
 14 15  1  1
 16 15  1  0
 17 18  2  0
 17 19  1  0
M  END
$$$$
