SCC.pdb
     RDKit          3D

 19 18  0  0  1  0  0  0  0  0999 V2000
    7.2183  -17.1046   21.8345 O   0  0  0  0  0  0  0  0  0  0  0  0
    6.3640  -16.0728   21.4354 C   0  0  0  0  0  0  0  0  0  0  0  0
    7.2116  -14.8238   21.3302 C   0  0  2  0  0  0  0  0  0  0  0  0
    8.0680  -14.9546   20.1970 N   0  0  0  0  0  0  0  0  0  0  0  0
    7.9526  -14.5560   22.5928 C   0  0  0  0  0  0  0  0  0  0  0  0
    9.1210  -14.9393   22.7420 O   0  0  0  0  0  0  0  0  0  0  0  0
    7.2792  -13.8475   23.6216 N   0  0  0  0  0  0  0  0  0  0  0  0
    7.7523  -13.6353   24.9541 C   0  0  1  0  0  0  0  0  0  0  0  0
    6.8830  -12.7182   25.7493 C   0  0  0  0  0  0  0  0  0  0  0  0
    7.5215  -12.4220   27.4158 S   0  0  0  0  0  0  0  0  0  0  0  0
    8.1450  -14.8861   25.6726 C   0  0  0  0  0  0  0  0  0  0  0  0
    7.3740  -15.8675   25.7525 O   0  0  0  0  0  0  0  0  0  0  0  0
    9.4129  -14.9857   26.2835 N   0  0  0  0  0  0  0  0  0  0  0  0
    9.9037  -16.1294   27.0201 C   0  0  1  0  0  0  0  0  0  0  0  0
   10.9879  -16.8868   26.3515 C   0  0  0  0  0  0  0  0  0  0  0  0
   12.6346  -16.2720   26.6957 S   0  0  0  0  0  0  0  0  0  0  0  0
   10.1820  -15.7669   28.4427 C   0  0  0  0  0  0  0  0  0  0  0  0
   10.1179  -14.5934   28.8646 O   0  0  0  0  0  0  0  0  0  0  0  0
   10.5219  -16.7617   29.3088 O   0  0  0  0  0  0  0  0  0  0  0  0
  1  2  1  0
  2  3  1  0
  3  5  1  0
  3  4  1  6
  5  6  2  0
  7  8  1  0
  7  5  1  0
  9 10  1  0
  8  9  1  1
 11  8  1  0
 11 12  2  0
 13 11  1  0
 14 13  1  0
 14 17  1  0
 14 15  1  6
 16 15  1  0
 17 18  2  0
 17 19  1  0
M  END
$$$$
