SCC.pdb
     RDKit          3D

 19 18  0  0  1  0  0  0  0  0999 V2000
    7.2437  -16.5566   21.0819 O   0  0  0  0  0  0  0  0  0  0  0  0
    6.2665  -15.5582   21.0372 C   0  0  0  0  0  0  0  0  0  0  0  0
    6.9930  -14.2349   21.1410 C   0  0  2  0  0  0  0  0  0  0  0  0
    7.7677  -14.0522   19.9574 N   0  0  0  0  0  0  0  0  0  0  0  0
    7.8032  -14.1504   22.3866 C   0  0  0  0  0  0  0  0  0  0  0  0
    9.0150  -14.4074   22.3797 O   0  0  0  0  0  0  0  0  0  0  0  0
    7.1448  -13.7662   23.5834 N   0  0  0  0  0  0  0  0  0  0  0  0
    7.6977  -13.7952   24.9017 C   0  0  1  0  0  0  0  0  0  0  0  0
    6.9006  -13.0130   25.8926 C   0  0  0  0  0  0  0  0  0  0  0  0
    7.6715  -12.9679   27.5285 S   0  0  0  0  0  0  0  0  0  0  0  0
    8.0946  -15.1579   25.3712 C   0  0  0  0  0  0  0  0  0  0  0  0
    7.2847  -16.1107   25.3820 O   0  0  0  0  0  0  0  0  0  0  0  0
    9.4111  -15.3996   25.8174 N   0  0  0  0  0  0  0  0  0  0  0  0
    9.8919  -16.6396   26.3853 C   0  0  1  0  0  0  0  0  0  0  0  0
   11.0538  -17.2391   25.6875 C   0  0  0  0  0  0  0  0  0  0  0  0
   10.9043  -17.2691   23.9030 S   0  0  0  0  0  0  0  0  0  0  0  0
   10.0472  -16.5219   27.8668 C   0  0  0  0  0  0  0  0  0  0  0  0
    9.7699  -15.4779   28.4931 O   0  0  0  0  0  0  0  0  0  0  0  0
   10.5134  -17.6005   28.5557 O   0  0  0  0  0  0  0  0  0  0  0  0
  1  2  1  0
  2  3  1  0
  3  5  1  0
  3  4  1  6
  5  6  2  0
  7  8  1  0
  7  5  1  0
  9 10  1  0
  8  9  1  1
 11  8  1  0
 11 12  2  0
 13 11  1  0
 14 13  1  0
 14 17  1  0
 14 15  1  6
 16 15  1  0
 17 18  2  0
 17 19  1  0
M  END
$$$$
