SCC.pdb
     RDKit          3D

 19 18  0  0  1  0  0  0  0  0999 V2000
    9.2112  -18.2548   21.8925 O   0  0  0  0  0  0  0  0  0  0  0  0
    8.0359  -17.5088   22.0184 C   0  0  0  0  0  0  0  0  0  0  0  0
    8.3553  -16.1108   21.5354 C   0  0  2  0  0  0  0  0  0  0  0  0
    9.3559  -16.2017   20.5229 N   0  0  0  0  0  0  0  0  0  0  0  0
    8.7440  -15.2174   22.6604 C   0  0  0  0  0  0  0  0  0  0  0  0
    9.9327  -14.9486   22.8820 O   0  0  0  0  0  0  0  0  0  0  0  0
    7.7104  -14.6822   23.4722 N   0  0  0  0  0  0  0  0  0  0  0  0
    7.8714  -14.0666   24.7527 C   0  0  1  0  0  0  0  0  0  0  0  0
    6.6710  -13.2944   25.1906 C   0  0  0  0  0  0  0  0  0  0  0  0
    6.8893  -12.5265   26.8140 S   0  0  0  0  0  0  0  0  0  0  0  0
    8.4371  -14.9697   25.8013 C   0  0  0  0  0  0  0  0  0  0  0  0
    7.8297  -15.9938   26.1835 O   0  0  0  0  0  0  0  0  0  0  0  0
    9.6867  -14.6801   26.3887 N   0  0  0  0  0  0  0  0  0  0  0  0
   10.2434  -15.3401   27.5489 C   0  0  1  0  0  0  0  0  0  0  0  0
    9.6456  -14.9394   28.8444 C   0  0  0  0  0  0  0  0  0  0  0  0
    9.8513  -13.2057   29.2442 S   0  0  0  0  0  0  0  0  0  0  0  0
   10.3294  -16.8159   27.3318 C   0  0  0  0  0  0  0  0  0  0  0  0
    9.9405  -17.3668   26.2808 O   0  0  0  0  0  0  0  0  0  0  0  0
   10.8517  -17.5863   28.3263 O   0  0  0  0  0  0  0  0  0  0  0  0
  1  2  1  0
  2  3  1  0
  3  5  1  0
  3  4  1  6
  5  6  2  0
  7  8  1  0
  7  5  1  0
  9 10  1  0
  8  9  1  1
 11  8  1  0
 11 12  2  0
 13 11  1  0
 14 13  1  0
 14 17  1  0
 14 15  1  1
 16 15  1  0
 17 18  2  0
 17 19  1  0
M  END
$$$$
