SCC.pdb
     RDKit          3D

 19 18  0  0  1  0  0  0  0  0999 V2000
    9.1831  -17.5712   21.7623 O   0  0  0  0  0  0  0  0  0  0  0  0
    7.9841  -17.1018   21.2184 C   0  0  0  0  0  0  0  0  0  0  0  0
    8.1073  -15.5962   21.1310 C   0  0  2  0  0  0  0  0  0  0  0  0
    8.9702  -15.2773   20.0410 N   0  0  0  0  0  0  0  0  0  0  0  0
    8.5567  -15.0070   22.4218 C   0  0  0  0  0  0  0  0  0  0  0  0
    9.7463  -14.7200   22.6137 O   0  0  0  0  0  0  0  0  0  0  0  0
    7.5800  -14.7838   23.4268 N   0  0  0  0  0  0  0  0  0  0  0  0
    7.8233  -14.3169   24.7561 C   0  0  1  0  0  0  0  0  0  0  0  0
    6.5888  -13.8442   25.4501 C   0  0  0  0  0  0  0  0  0  0  0  0
    6.9445  -13.0061   27.0133 S   0  0  0  0  0  0  0  0  0  0  0  0
    8.6810  -15.2243   25.5783 C   0  0  0  0  0  0  0  0  0  0  0  0
    8.5988  -16.4687   25.4850 O   0  0  0  0  0  0  0  0  0  0  0  0
    9.6146  -14.6864   26.4891 N   0  0  0  0  0  0  0  0  0  0  0  0
   10.5245  -15.4529   27.3114 C   0  0  1  0  0  0  0  0  0  0  0  0
   11.2652  -14.6668   28.3260 C   0  0  0  0  0  0  0  0  0  0  0  0
   10.2330  -13.5957   29.3236 S   0  0  0  0  0  0  0  0  0  0  0  0
    9.8584  -16.6819   27.8392 C   0  0  0  0  0  0  0  0  0  0  0  0
    8.6241  -16.8602   27.7756 O   0  0  0  0  0  0  0  0  0  0  0  0
   10.6349  -17.6416   28.4147 O   0  0  0  0  0  0  0  0  0  0  0  0
  1  2  1  0
  2  3  1  0
  3  5  1  0
  3  4  1  6
  5  6  2  0
  7  8  1  0
  7  5  1  0
  9 10  1  0
  8  9  1  1
 11  8  1  0
 11 12  2  0
 13 11  1  0
 14 13  1  0
 14 17  1  0
 14 15  1  1
 16 15  1  0
 17 18  2  0
 17 19  1  0
M  END
$$$$
