SCC.pdb
     RDKit          3D

 19 18  0  0  1  0  0  0  0  0999 V2000
    8.2624  -17.0173   21.7918 O   0  0  0  0  0  0  0  0  0  0  0  0
    7.1124  -16.3393   21.3778 C   0  0  0  0  0  0  0  0  0  0  0  0
    7.4359  -14.8621   21.4330 C   0  0  2  0  0  0  0  0  0  0  0  0
    8.2078  -14.5267   20.2814 N   0  0  0  0  0  0  0  0  0  0  0  0
    8.1051  -14.4947   22.7106 C   0  0  0  0  0  0  0  0  0  0  0  0
    9.3351  -14.5746   22.8340 O   0  0  0  0  0  0  0  0  0  0  0  0
    7.2906  -14.0496   23.7840 N   0  0  0  0  0  0  0  0  0  0  0  0
    7.7317  -13.7268   25.1052 C   0  0  1  0  0  0  0  0  0  0  0  0
    6.7881  -12.8329   25.8397 C   0  0  0  0  0  0  0  0  0  0  0  0
    7.3994  -12.3683   27.4778 S   0  0  0  0  0  0  0  0  0  0  0  0
    8.2078  -14.9016   25.8977 C   0  0  0  0  0  0  0  0  0  0  0  0
    7.4732  -15.8908   26.1118 O   0  0  0  0  0  0  0  0  0  0  0  0
    9.5155  -14.9180   26.4272 N   0  0  0  0  0  0  0  0  0  0  0  0
   10.0752  -15.9653   27.2526 C   0  0  1  0  0  0  0  0  0  0  0  0
   11.3012  -16.5997   26.7136 C   0  0  0  0  0  0  0  0  0  0  0  0
   11.3329  -16.7389   24.9282 S   0  0  0  0  0  0  0  0  0  0  0  0
   10.1759  -15.5243   28.6767 C   0  0  0  0  0  0  0  0  0  0  0  0
    9.8857  -14.3675   29.0467 O   0  0  0  0  0  0  0  0  0  0  0  0
   10.6053  -16.4252   29.6037 O   0  0  0  0  0  0  0  0  0  0  0  0
  1  2  1  0
  2  3  1  0
  3  5  1  0
  3  4  1  6
  5  6  2  0
  7  8  1  0
  7  5  1  0
  9 10  1  0
  8  9  1  1
 11  8  1  0
 11 12  2  0
 13 11  1  0
 14 13  1  0
 14 17  1  0
 14 15  1  6
 16 15  1  0
 17 18  2  0
 17 19  1  0
M  END
$$$$
