NEG.pdb
     RDKit          3D

 22 21  0  0  1  0  0  0  0  0999 V2000
   13.3628  -12.0902  -10.5448 N   0  0  0  0  0  0  0  0  0  0  0  0
   14.7713  -12.2020  -10.3759 C   0  0  0  0  0  0  0  0  0  0  0  0
   15.3135  -13.2448   -9.8875 O   0  0  0  0  0  0  0  0  0  0  0  0
   15.6725  -11.0942  -10.7675 C   0  0  0  0  0  0  0  0  0  0  0  0
   14.8803   -9.8638  -11.1909 C   0  0  2  0  0  0  0  0  0  0  0  0
   14.1353  -10.1534  -12.4069 N   0  0  0  0  0  0  0  0  0  0  0  0
   15.7384   -8.6977  -11.3952 C   0  0  0  0  0  0  0  0  0  0  0  0
   16.2956   -8.5266  -12.5121 O   0  0  0  0  0  0  0  0  0  0  0  0
   15.9627   -7.7504  -10.3720 N   0  0  0  0  0  0  0  0  0  0  0  0
   16.7436   -6.5346  -10.6591 C   0  0  1  0  0  0  0  0  0  0  0  0
   16.0403   -5.3692  -10.0265 C   0  0  0  0  0  0  0  0  0  0  0  0
   14.8476   -4.8749  -10.7594 C   0  0  0  0  0  0  0  0  0  0  0  0
   14.2077   -3.7287  -10.0780 C   0  0  0  0  0  0  0  0  0  0  0  0
   13.0749   -3.7597   -9.5349 O   0  0  0  0  0  0  0  0  0  0  0  0
   18.1139   -6.6800  -10.0869 C   0  0  0  0  0  0  0  0  0  0  0  0
   18.2183   -7.0103   -8.8806 O   0  0  0  0  0  0  0  0  0  0  0  0
   14.8763   -2.4973  -10.0079 O   0  0  0  0  0  0  0  0  0  0  0  0
   19.2851   -6.4614  -10.8448 N   0  0  0  0  0  0  0  0  0  0  0  0
   20.6167   -6.5919  -10.2821 C   0  0  0  0  0  0  0  0  0  0  0  0
   21.6736   -6.2622  -11.2422 C   0  0  0  0  0  0  0  0  0  0  0  0
   21.3768   -6.1198  -12.4476 O   0  0  0  0  0  0  0  0  0  0  0  0
   22.9995   -6.0994  -10.8689 O   0  0  0  0  0  0  0  0  0  0  0  0
  1  2  1  0
  2  4  1  0
  2  3  2  0
  5  6  1  6
  5  4  1  0
  7  5  1  0
  7  8  2  0
  9  7  1  0
 10  9  1  0
 10 15  1  0
 10 11  1  1
 12 11  1  0
 12 13  1  0
 13 14  2  0
 15 16  2  0
 15 18  1  0
 17 13  1  0
 18 19  1  0
 19 20  1  0
 20 22  1  0
 21 20  2  0
M  END
$$$$
