NEG.pdb
     RDKit          3D

 22 21  0  0  1  0  0  0  0  0999 V2000
   16.8614  -17.0118  -13.9062 N   0  0  0  0  0  0  0  0  0  0  0  0
   18.2320  -16.7885  -14.2168 C   0  0  0  0  0  0  0  0  0  0  0  0
   19.1544  -17.5609  -13.8013 O   0  0  0  0  0  0  0  0  0  0  0  0
   18.6433  -15.6332  -15.0467 C   0  0  0  0  0  0  0  0  0  0  0  0
   17.4340  -14.8335  -15.5146 C   0  0  2  0  0  0  0  0  0  0  0  0
   16.6966  -15.5955  -16.5111 N   0  0  0  0  0  0  0  0  0  0  0  0
   17.8109  -13.5299  -16.0591 C   0  0  0  0  0  0  0  0  0  0  0  0
   18.3602  -13.4667  -17.1911 O   0  0  0  0  0  0  0  0  0  0  0  0
   17.5757  -12.3311  -15.3504 N   0  0  0  0  0  0  0  0  0  0  0  0
   17.9136  -11.0374  -15.9688 C   0  0  1  0  0  0  0  0  0  0  0  0
   16.6708  -10.1963  -15.9975 C   0  0  0  0  0  0  0  0  0  0  0  0
   16.8188   -8.8688  -16.6455 C   0  0  0  0  0  0  0  0  0  0  0  0
   15.5968   -8.0452  -16.5191 C   0  0  0  0  0  0  0  0  0  0  0  0
   15.5391   -6.8101  -16.7438 O   0  0  0  0  0  0  0  0  0  0  0  0
   18.9713  -10.3638  -15.1603 C   0  0  0  0  0  0  0  0  0  0  0  0
   18.8705  -10.3978  -13.9097 O   0  0  0  0  0  0  0  0  0  0  0  0
   14.3910   -8.6427  -16.1227 O   0  0  0  0  0  0  0  0  0  0  0  0
   20.0697   -9.6959  -15.7445 N   0  0  0  0  0  0  0  0  0  0  0  0
   21.1878   -9.1981  -14.9642 C   0  0  0  0  0  0  0  0  0  0  0  0
   20.8758   -7.9546  -14.2544 C   0  0  0  0  0  0  0  0  0  0  0  0
   19.7422   -7.4465  -14.3882 O   0  0  0  0  0  0  0  0  0  0  0  0
   21.7906   -7.3117  -13.4335 O   0  0  0  0  0  0  0  0  0  0  0  0
  1  2  1  0
  2  4  1  0
  2  3  2  0
  5  6  1  6
  5  4  1  0
  7  5  1  0
  7  8  2  0
  9  7  1  0
 10  9  1  0
 10 15  1  0
 10 11  1  1
 12 11  1  0
 12 13  1  0
 13 14  2  0
 15 16  2  0
 15 18  1  0
 17 13  1  0
 18 19  1  0
 19 20  1  0
 20 22  1  0
 21 20  2  0
M  END
$$$$
