NEG.pdb
     RDKit          3D

 22 21  0  0  1  0  0  0  0  0999 V2000
   15.2538  -11.5311  -17.0145 N   0  0  0  0  0  0  0  0  0  0  0  0
   15.1828  -10.2599  -16.3789 C   0  0  0  0  0  0  0  0  0  0  0  0
   14.1214   -9.5576  -16.3876 O   0  0  0  0  0  0  0  0  0  0  0  0
   16.3571   -9.6978  -15.6734 C   0  0  0  0  0  0  0  0  0  0  0  0
   17.5641  -10.6197  -15.7931 C   0  0  2  0  0  0  0  0  0  0  0  0
   17.3805  -11.7833  -14.9388 N   0  0  0  0  0  0  0  0  0  0  0  0
   18.8135   -9.9408  -15.4526 C   0  0  0  0  0  0  0  0  0  0  0  0
   19.1719   -9.8707  -14.2468 O   0  0  0  0  0  0  0  0  0  0  0  0
   19.6369   -9.3577  -16.4408 N   0  0  0  0  0  0  0  0  0  0  0  0
   20.9097   -8.7256  -16.0528 C   0  0  1  0  0  0  0  0  0  0  0  0
   21.9201   -9.0171  -17.1238 C   0  0  0  0  0  0  0  0  0  0  0  0
   23.2493   -8.3850  -16.9301 C   0  0  0  0  0  0  0  0  0  0  0  0
   24.1877   -8.7083  -18.0268 C   0  0  0  0  0  0  0  0  0  0  0  0
   25.4328   -8.8161  -17.8956 O   0  0  0  0  0  0  0  0  0  0  0  0
   20.7109   -7.2527  -15.9214 C   0  0  0  0  0  0  0  0  0  0  0  0
   20.0508   -6.6638  -16.8119 O   0  0  0  0  0  0  0  0  0  0  0  0
   23.6978   -8.9186  -19.3245 O   0  0  0  0  0  0  0  0  0  0  0  0
   21.2330   -6.5048  -14.8434 N   0  0  0  0  0  0  0  0  0  0  0  0
   21.0031   -5.0792  -14.6965 C   0  0  0  0  0  0  0  0  0  0  0  0
   21.5375   -4.5443  -13.4411 C   0  0  0  0  0  0  0  0  0  0  0  0
   21.5057   -3.3110  -13.2436 O   0  0  0  0  0  0  0  0  0  0  0  0
   22.0809   -5.3534  -12.4542 O   0  0  0  0  0  0  0  0  0  0  0  0
  1  2  1  0
  2  4  1  0
  2  3  2  0
  5  6  1  1
  5  4  1  0
  7  5  1  0
  7  8  2  0
  9  7  1  0
 10  9  1  0
 10 15  1  0
 10 11  1  6
 12 11  1  0
 12 13  1  0
 13 14  2  0
 15 16  2  0
 15 18  1  0
 17 13  1  0
 18 19  1  0
 19 20  1  0
 20 22  1  0
 21 20  2  0
M  END
$$$$
