NEG.pdb
     RDKit          3D

 22 21  0  0  1  0  0  0  0  0999 V2000
   16.6815  -11.9107  -17.2920 N   0  0  0  0  0  0  0  0  0  0  0  0
   16.1594  -10.6034  -17.0841 C   0  0  0  0  0  0  0  0  0  0  0  0
   14.9866  -10.2764  -17.4551 O   0  0  0  0  0  0  0  0  0  0  0  0
   16.9715   -9.5591  -16.4190 C   0  0  0  0  0  0  0  0  0  0  0  0
   18.3503  -10.0888  -16.0457 C   0  0  2  0  0  0  0  0  0  0  0  0
   18.2367  -11.0056  -14.9214 N   0  0  0  0  0  0  0  0  0  0  0  0
   19.2862   -9.0132  -15.7220 C   0  0  0  0  0  0  0  0  0  0  0  0
   19.3175   -8.5507  -14.5505 O   0  0  0  0  0  0  0  0  0  0  0  0
   20.1629   -8.4734  -16.6888 N   0  0  0  0  0  0  0  0  0  0  0  0
   21.1588   -7.4636  -16.2906 C   0  0  1  0  0  0  0  0  0  0  0  0
   22.5008   -7.9089  -16.7942 C   0  0  0  0  0  0  0  0  0  0  0  0
   23.6127   -6.9519  -16.5667 C   0  0  0  0  0  0  0  0  0  0  0  0
   24.9047   -7.4651  -17.0715 C   0  0  0  0  0  0  0  0  0  0  0  0
   25.0770   -8.6062  -17.5690 O   0  0  0  0  0  0  0  0  0  0  0  0
   20.7958   -6.1469  -16.8912 C   0  0  0  0  0  0  0  0  0  0  0  0
   20.3564   -6.1349  -18.0669 O   0  0  0  0  0  0  0  0  0  0  0  0
   26.0484   -6.6547  -17.0116 O   0  0  0  0  0  0  0  0  0  0  0  0
   20.9275   -4.9266  -16.1930 N   0  0  0  0  0  0  0  0  0  0  0  0
   20.6499   -3.6406  -16.8061 C   0  0  0  0  0  0  0  0  0  0  0  0
   20.8954   -2.5150  -15.9004 C   0  0  0  0  0  0  0  0  0  0  0  0
   21.1735   -2.7468  -14.7045 O   0  0  0  0  0  0  0  0  0  0  0  0
   20.8327   -1.1930  -16.3155 O   0  0  0  0  0  0  0  0  0  0  0  0
  1  2  1  0
  2  4  1  0
  2  3  2  0
  5  6  1  1
  5  4  1  0
  7  5  1  0
  7  8  2  0
  9  7  1  0
 10  9  1  0
 10 15  1  0
 10 11  1  6
 12 11  1  0
 12 13  1  0
 13 14  2  0
 15 16  2  0
 15 18  1  0
 17 13  1  0
 18 19  1  0
 19 20  1  0
 20 22  1  0
 21 20  2  0
M  END
$$$$
