NEG.pdb
     RDKit          3D

 22 21  0  0  1  0  0  0  0  0999 V2000
   19.1102  -15.8295  -15.5048 N   0  0  0  0  0  0  0  0  0  0  0  0
   18.4637  -14.6770  -14.9770 C   0  0  0  0  0  0  0  0  0  0  0  0
   17.4995  -14.7611  -14.1504 O   0  0  0  0  0  0  0  0  0  0  0  0
   18.8940  -13.3170  -15.3744 C   0  0  0  0  0  0  0  0  0  0  0  0
   17.7144  -12.4892  -15.8687 C   0  0  2  0  0  0  0  0  0  0  0  0
   17.2450  -13.0139  -17.1421 N   0  0  0  0  0  0  0  0  0  0  0  0
   18.0518  -11.0730  -16.0046 C   0  0  0  0  0  0  0  0  0  0  0  0
   18.6606  -10.6771  -17.0340 O   0  0  0  0  0  0  0  0  0  0  0  0
   17.7133  -10.1286  -15.0105 N   0  0  0  0  0  0  0  0  0  0  0  0
   18.0116   -8.7020  -15.2249 C   0  0  1  0  0  0  0  0  0  0  0  0
   16.8417   -7.9021  -14.7306 C   0  0  0  0  0  0  0  0  0  0  0  0
   15.7890   -7.6282  -15.7409 C   0  0  0  0  0  0  0  0  0  0  0  0
   14.6514   -6.8727  -15.1729 C   0  0  0  0  0  0  0  0  0  0  0  0
   13.5379   -7.3724  -14.8734 O   0  0  0  0  0  0  0  0  0  0  0  0
   19.2426   -8.3344  -14.4661 C   0  0  0  0  0  0  0  0  0  0  0  0
   19.2885   -8.6141  -13.2434 O   0  0  0  0  0  0  0  0  0  0  0  0
   14.7784   -5.4962  -14.9335 O   0  0  0  0  0  0  0  0  0  0  0  0
   20.3461   -7.6898  -15.0668 N   0  0  0  0  0  0  0  0  0  0  0  0
   21.5449   -7.3393  -14.3274 C   0  0  0  0  0  0  0  0  0  0  0  0
   21.4593   -6.0175  -13.7006 C   0  0  0  0  0  0  0  0  0  0  0  0
   20.4227   -5.3374  -13.8555 O   0  0  0  0  0  0  0  0  0  0  0  0
   22.4864   -5.4839  -12.9362 O   0  0  0  0  0  0  0  0  0  0  0  0
  1  2  1  0
  2  4  1  0
  2  3  2  0
  5  6  1  6
  5  4  1  0
  7  5  1  0
  7  8  2  0
  9  7  1  0
 10  9  1  0
 10 15  1  0
 10 11  1  1
 12 11  1  0
 12 13  1  0
 13 14  2  0
 15 16  2  0
 15 18  1  0
 17 13  1  0
 18 19  1  0
 19 20  1  0
 20 22  1  0
 21 20  2  0
M  END
$$$$
