NEG.pdb
     RDKit          3D

 22 21  0  0  1  0  0  0  0  0999 V2000
   17.4533  -12.5273  -17.4592 N   0  0  0  0  0  0  0  0  0  0  0  0
   16.3586  -11.6420  -17.2523 C   0  0  0  0  0  0  0  0  0  0  0  0
   15.2844  -11.7246  -17.9300 O   0  0  0  0  0  0  0  0  0  0  0  0
   16.4281  -10.5763  -16.2267 C   0  0  0  0  0  0  0  0  0  0  0  0
   17.7926  -10.5525  -15.5494 C   0  0  2  0  0  0  0  0  0  0  0  0
   17.9403  -11.7250  -14.7003 N   0  0  0  0  0  0  0  0  0  0  0  0
   17.9983   -9.3365  -14.7640 C   0  0  0  0  0  0  0  0  0  0  0  0
   17.5906   -9.2919  -13.5729 O   0  0  0  0  0  0  0  0  0  0  0  0
   18.6452   -8.2028  -15.3034 N   0  0  0  0  0  0  0  0  0  0  0  0
   18.7164   -6.9585  -14.5180 C   0  0  1  0  0  0  0  0  0  0  0  0
   20.1624   -6.5861  -14.3655 C   0  0  0  0  0  0  0  0  0  0  0  0
   20.4165   -5.3139  -13.6437 C   0  0  0  0  0  0  0  0  0  0  0  0
   21.8593   -5.0018  -13.5512 C   0  0  0  0  0  0  0  0  0  0  0  0
   22.5829   -5.2482  -12.5539 O   0  0  0  0  0  0  0  0  0  0  0  0
   17.9805   -5.8773  -15.2361 C   0  0  0  0  0  0  0  0  0  0  0  0
   18.3397   -5.5937  -16.4049 O   0  0  0  0  0  0  0  0  0  0  0  0
   22.5102   -4.3860  -14.6308 O   0  0  0  0  0  0  0  0  0  0  0  0
   16.9063   -5.1685  -14.6550 N   0  0  0  0  0  0  0  0  0  0  0  0
   16.2405   -4.0678  -15.3272 C   0  0  0  0  0  0  0  0  0  0  0  0
   16.9978   -2.8154  -15.2524 C   0  0  0  0  0  0  0  0  0  0  0  0
   16.4993   -1.7744  -15.7310 O   0  0  0  0  0  0  0  0  0  0  0  0
   18.2533   -2.7338  -14.6685 O   0  0  0  0  0  0  0  0  0  0  0  0
  1  2  1  0
  2  4  1  0
  2  3  2  0
  5  6  1  1
  5  4  1  0
  7  5  1  0
  7  8  2  0
  9  7  1  0
 10  9  1  0
 10 15  1  0
 10 11  1  6
 12 11  1  0
 12 13  1  0
 13 14  2  0
 15 16  2  0
 15 18  1  0
 17 13  1  0
 18 19  1  0
 19 20  1  0
 20 22  1  0
 21 20  2  0
M  END
$$$$
