NEG.pdb
     RDKit          3D

 22 21  0  0  1  0  0  0  0  0999 V2000
   17.9062  -13.1885  -15.8514 N   0  0  0  0  0  0  0  0  0  0  0  0
   16.9855  -12.3489  -16.5388 C   0  0  0  0  0  0  0  0  0  0  0  0
   16.3043  -12.7619  -17.5314 O   0  0  0  0  0  0  0  0  0  0  0  0
   16.7819  -10.9433  -16.1198 C   0  0  0  0  0  0  0  0  0  0  0  0
   17.6931  -10.5790  -14.9545 C   0  0  2  0  0  0  0  0  0  0  0  0
   17.0822  -11.0000  -13.7026 N   0  0  0  0  0  0  0  0  0  0  0  0
   17.9886   -9.1477  -14.9109 C   0  0  0  0  0  0  0  0  0  0  0  0
   17.1358   -8.3532  -14.4328 O   0  0  0  0  0  0  0  0  0  0  0  0
   19.2096   -8.6249  -15.3911 N   0  0  0  0  0  0  0  0  0  0  0  0
   19.4357   -7.1692  -15.3832 C   0  0  1  0  0  0  0  0  0  0  0  0
   20.6196   -6.8865  -14.5050 C   0  0  0  0  0  0  0  0  0  0  0  0
   20.9394   -5.4492  -14.3156 C   0  0  0  0  0  0  0  0  0  0  0  0
   22.0840   -5.2466  -13.4010 C   0  0  0  0  0  0  0  0  0  0  0  0
   22.0589   -5.4631  -12.1634 O   0  0  0  0  0  0  0  0  0  0  0  0
   19.7051   -6.7027  -16.7746 C   0  0  0  0  0  0  0  0  0  0  0  0
   20.5398   -7.3414  -17.4606 O   0  0  0  0  0  0  0  0  0  0  0  0
   23.3068   -4.7803  -13.9067 O   0  0  0  0  0  0  0  0  0  0  0  0
   19.0624   -5.5805  -17.3417 N   0  0  0  0  0  0  0  0  0  0  0  0
   19.2660   -5.1766  -18.7209 C   0  0  0  0  0  0  0  0  0  0  0  0
   20.5289   -4.4610  -18.9224 C   0  0  0  0  0  0  0  0  0  0  0  0
   20.8472   -3.5535  -18.1247 O   0  0  0  0  0  0  0  0  0  0  0  0
   21.3938   -4.7493  -19.9678 O   0  0  0  0  0  0  0  0  0  0  0  0
  1  2  1  0
  2  4  1  0
  2  3  2  0
  5  6  1  1
  5  4  1  0
  7  5  1  0
  7  8  2  0
  9  7  1  0
 10  9  1  0
 10 15  1  0
 10 11  1  1
 12 11  1  0
 12 13  1  0
 13 14  2  0
 15 16  2  0
 15 18  1  0
 17 13  1  0
 18 19  1  0
 19 20  1  0
 20 22  1  0
 21 20  2  0
M  END
$$$$
