NEG.pdb
     RDKit          3D

 22 21  0  0  1  0  0  0  0  0999 V2000
   24.6510  -20.8637   -8.4139 N   0  0  0  0  0  0  0  0  0  0  0  0
   25.8755  -20.2824   -8.8470 C   0  0  0  0  0  0  0  0  0  0  0  0
   26.6784  -19.7153   -8.0385 O   0  0  0  0  0  0  0  0  0  0  0  0
   26.2680  -20.3157  -10.2744 C   0  0  0  0  0  0  0  0  0  0  0  0
   25.2379  -21.0638  -11.1111 C   0  0  2  0  0  0  0  0  0  0  0  0
   25.6326  -22.4580  -11.2452 N   0  0  0  0  0  0  0  0  0  0  0  0
   25.0594  -20.4646  -12.4328 C   0  0  0  0  0  0  0  0  0  0  0  0
   24.7782  -19.2401  -12.5251 O   0  0  0  0  0  0  0  0  0  0  0  0
   25.1943  -21.2216  -13.6175 N   0  0  0  0  0  0  0  0  0  0  0  0
   25.0317  -20.5664  -14.9268 C   0  0  1  0  0  0  0  0  0  0  0  0
   25.7976  -21.3613  -15.9438 C   0  0  0  0  0  0  0  0  0  0  0  0
   27.2663  -21.4124  -15.7330 C   0  0  0  0  0  0  0  0  0  0  0  0
   27.9533  -22.2091  -16.7728 C   0  0  0  0  0  0  0  0  0  0  0  0
   27.3736  -22.8311  -17.6981 O   0  0  0  0  0  0  0  0  0  0  0  0
   23.5839  -20.5315  -15.2862 C   0  0  0  0  0  0  0  0  0  0  0  0
   22.8976  -21.5608  -15.0743 O   0  0  0  0  0  0  0  0  0  0  0  0
   29.3529  -22.3059  -16.7659 O   0  0  0  0  0  0  0  0  0  0  0  0
   22.9643  -19.3950  -15.8506 N   0  0  0  0  0  0  0  0  0  0  0  0
   21.5351  -19.3227  -16.0932 C   0  0  0  0  0  0  0  0  0  0  0  0
   21.1336  -18.0776  -16.7534 C   0  0  0  0  0  0  0  0  0  0  0  0
   21.9800  -17.1716  -16.9084 O   0  0  0  0  0  0  0  0  0  0  0  0
   19.8451  -17.8588  -17.2182 O   0  0  0  0  0  0  0  0  0  0  0  0
  1  2  1  0
  2  4  1  0
  2  3  2  0
  5  6  1  6
  5  4  1  0
  7  5  1  0
  7  8  2  0
  9  7  1  0
 10  9  1  0
 10 15  1  0
 10 11  1  6
 12 11  1  0
 12 13  1  0
 13 14  2  0
 15 16  2  0
 15 18  1  0
 17 13  1  0
 18 19  1  0
 19 20  1  0
 20 22  1  0
 21 20  2  0
M  END
$$$$
