NEG.pdb
     RDKit          3D

 22 21  0  0  1  0  0  0  0  0999 V2000
   26.9336  -13.7613  -15.1684 N   0  0  0  0  0  0  0  0  0  0  0  0
   27.3823  -12.6704  -15.9643 C   0  0  0  0  0  0  0  0  0  0  0  0
   28.6094  -12.5096  -16.2616 O   0  0  0  0  0  0  0  0  0  0  0  0
   26.4258  -11.6669  -16.4845 C   0  0  0  0  0  0  0  0  0  0  0  0
   25.0207  -11.9182  -15.9520 C   0  0  2  0  0  0  0  0  0  0  0  0
   24.5523  -13.2220  -16.3973 N   0  0  0  0  0  0  0  0  0  0  0  0
   24.0789  -10.8794  -16.3665 C   0  0  0  0  0  0  0  0  0  0  0  0
   23.4745  -10.9940  -17.4658 O   0  0  0  0  0  0  0  0  0  0  0  0
   23.8238   -9.7440  -15.5662 N   0  0  0  0  0  0  0  0  0  0  0  0
   22.7845   -8.7818  -15.9718 C   0  0  1  0  0  0  0  0  0  0  0  0
   21.4554   -9.4759  -15.9044 C   0  0  0  0  0  0  0  0  0  0  0  0
   20.2850   -8.6410  -16.2746 C   0  0  0  0  0  0  0  0  0  0  0  0
   19.0106   -9.3835  -16.1633 C   0  0  0  0  0  0  0  0  0  0  0  0
   18.6748  -10.0860  -15.1770 O   0  0  0  0  0  0  0  0  0  0  0  0
   22.8019   -7.6141  -15.0431 C   0  0  0  0  0  0  0  0  0  0  0  0
   22.7375   -7.8389  -13.8100 O   0  0  0  0  0  0  0  0  0  0  0  0
   18.0780   -9.3289  -17.2100 O   0  0  0  0  0  0  0  0  0  0  0  0
   22.8867   -6.2793  -15.4961 N   0  0  0  0  0  0  0  0  0  0  0  0
   22.8764   -5.1441  -14.5916 C   0  0  0  0  0  0  0  0  0  0  0  0
   21.5215   -4.7013  -14.2517 C   0  0  0  0  0  0  0  0  0  0  0  0
   20.5446   -5.2740  -14.7798 O   0  0  0  0  0  0  0  0  0  0  0  0
   21.2735   -3.6666  -13.3618 O   0  0  0  0  0  0  0  0  0  0  0  0
  1  2  1  0
  2  4  1  0
  2  3  2  0
  5  6  1  6
  5  4  1  0
  7  5  1  0
  7  8  2  0
  9  7  1  0
 10  9  1  0
 10 15  1  0
 10 11  1  1
 12 11  1  0
 12 13  1  0
 13 14  2  0
 15 16  2  0
 15 18  1  0
 17 13  1  0
 18 19  1  0
 19 20  1  0
 20 22  1  0
 21 20  2  0
M  END
$$$$
