NEG.pdb
     RDKit          3D

 22 21  0  0  1  0  0  0  0  0999 V2000
   20.7888  -15.3015  -18.0720 N   0  0  0  0  0  0  0  0  0  0  0  0
   19.7975  -14.3263  -17.7701 C   0  0  0  0  0  0  0  0  0  0  0  0
   18.6743  -14.6389  -17.2594 O   0  0  0  0  0  0  0  0  0  0  0  0
   20.0380  -12.8907  -18.0419 C   0  0  0  0  0  0  0  0  0  0  0  0
   20.5484  -12.1732  -16.7987 C   0  0  2  0  0  0  0  0  0  0  0  0
   19.5510  -12.2509  -15.7421 N   0  0  0  0  0  0  0  0  0  0  0  0
   20.8859  -10.7760  -17.0668 C   0  0  0  0  0  0  0  0  0  0  0  0
   21.8093  -10.5068  -17.8804 O   0  0  0  0  0  0  0  0  0  0  0  0
   20.2032   -9.7116  -16.4378 N   0  0  0  0  0  0  0  0  0  0  0  0
   20.5772   -8.3200  -16.7442 C   0  0  1  0  0  0  0  0  0  0  0  0
   19.3467   -7.5996  -17.2129 C   0  0  0  0  0  0  0  0  0  0  0  0
   18.3732   -8.4309  -17.9648 C   0  0  0  0  0  0  0  0  0  0  0  0
   16.9746   -8.1355  -17.5852 C   0  0  0  0  0  0  0  0  0  0  0  0
   16.1659   -7.4771  -18.2864 O   0  0  0  0  0  0  0  0  0  0  0  0
   21.1158   -7.6700  -15.5139 C   0  0  0  0  0  0  0  0  0  0  0  0
   20.5585   -7.9252  -14.4186 O   0  0  0  0  0  0  0  0  0  0  0  0
   16.4698   -8.6041  -16.3629 O   0  0  0  0  0  0  0  0  0  0  0  0
   22.2177   -6.7873  -15.5365 N   0  0  0  0  0  0  0  0  0  0  0  0
   22.7991   -6.2306  -14.3287 C   0  0  0  0  0  0  0  0  0  0  0  0
   22.0570   -5.0727  -13.8228 C   0  0  0  0  0  0  0  0  0  0  0  0
   21.0406   -4.6861  -14.4383 O   0  0  0  0  0  0  0  0  0  0  0  0
   22.4358   -4.3815  -12.6815 O   0  0  0  0  0  0  0  0  0  0  0  0
  1  2  1  0
  2  4  1  0
  2  3  2  0
  5  6  1  1
  5  4  1  0
  7  5  1  0
  7  8  2  0
  9  7  1  0
 10  9  1  0
 10 15  1  0
 10 11  1  1
 12 11  1  0
 12 13  1  0
 13 14  2  0
 15 16  2  0
 15 18  1  0
 17 13  1  0
 18 19  1  0
 19 20  1  0
 20 22  1  0
 21 20  2  0
M  END
$$$$
