NEG.pdb
     RDKit          3D

 22 21  0  0  1  0  0  0  0  0999 V2000
   27.7018  -21.8384  -11.5293 N   0  0  0  0  0  0  0  0  0  0  0  0
   28.2123  -20.7111  -10.8270 C   0  0  0  0  0  0  0  0  0  0  0  0
   29.4271  -20.3447  -10.9273 O   0  0  0  0  0  0  0  0  0  0  0  0
   27.3378  -19.9098   -9.9404 C   0  0  0  0  0  0  0  0  0  0  0  0
   25.9387  -20.5074   -9.8613 C   0  0  2  0  0  0  0  0  0  0  0  0
   26.0220  -21.9598   -9.8948 N   0  0  0  0  0  0  0  0  0  0  0  0
   25.0727  -20.0307  -10.9386 C   0  0  0  0  0  0  0  0  0  0  0  0
   24.8735  -18.7939  -11.0720 O   0  0  0  0  0  0  0  0  0  0  0  0
   24.4491  -20.9203  -11.8411 N   0  0  0  0  0  0  0  0  0  0  0  0
   23.5718  -20.3922  -12.9002 C   0  0  1  0  0  0  0  0  0  0  0  0
   24.1108  -20.8516  -14.2235 C   0  0  0  0  0  0  0  0  0  0  0  0
   25.3638  -20.1873  -14.6625 C   0  0  0  0  0  0  0  0  0  0  0  0
   25.8461  -20.7050  -15.9613 C   0  0  0  0  0  0  0  0  0  0  0  0
   25.3730  -20.3844  -17.0804 O   0  0  0  0  0  0  0  0  0  0  0  0
   22.1875  -20.9121  -12.7009 C   0  0  0  0  0  0  0  0  0  0  0  0
   22.0521  -22.0579  -12.2068 O   0  0  0  0  0  0  0  0  0  0  0  0
   26.9070  -21.6225  -15.9958 O   0  0  0  0  0  0  0  0  0  0  0  0
   21.0362  -20.1703  -13.0448 N   0  0  0  0  0  0  0  0  0  0  0  0
   19.6905  -20.6576  -12.8032 C   0  0  0  0  0  0  0  0  0  0  0  0
   19.2700  -21.6698  -13.7759 C   0  0  0  0  0  0  0  0  0  0  0  0
   20.0388  -21.9663  -14.7152 O   0  0  0  0  0  0  0  0  0  0  0  0
   18.0466  -22.3188  -13.6990 O   0  0  0  0  0  0  0  0  0  0  0  0
  1  2  1  0
  2  4  1  0
  2  3  2  0
  5  6  1  6
  5  4  1  0
  7  5  1  0
  7  8  2  0
  9  7  1  0
 10  9  1  0
 10 15  1  0
 10 11  1  6
 12 11  1  0
 12 13  1  0
 13 14  2  0
 15 16  2  0
 15 18  1  0
 17 13  1  0
 18 19  1  0
 19 20  1  0
 20 22  1  0
 21 20  2  0
M  END
$$$$
