PVE.pdb
     RDKit          3D

 24 24  0  0  1  0  0  0  0  0999 V2000
   28.4939  -20.6077  -15.7890 N   0  0  0  0  0  0  0  0  0  0  0  0
   28.0148  -20.0044  -16.9993 C   0  0  0  0  0  0  0  0  0  0  0  0
   27.1365  -18.8337  -16.6081 C   0  0  0  0  0  0  0  0  0  0  0  0
   27.7800  -18.4382  -15.2833 C   0  0  0  0  0  0  0  0  0  0  0  0
   28.0869  -19.7874  -14.6904 C   0  0  1  0  0  0  0  0  0  0  0  0
   26.9476  -20.3986  -14.0064 C   0  0  0  0  0  0  0  0  0  0  0  0
   26.3318  -21.3413  -14.5335 O   0  0  0  0  0  0  0  0  0  0  0  0
   26.7738  -20.9911  -10.0740 C   0  0  0  0  0  0  0  0  0  0  0  0
   25.5384  -20.3009  -10.5608 C   0  0  2  0  0  0  0  0  0  0  0  0
   24.2910  -20.7293   -9.8195 C   0  0  0  0  0  0  0  0  0  0  0  0
   25.3803  -20.6247  -12.0457 C   0  0  2  0  0  0  0  0  0  0  0  0
   26.4782  -19.9658  -12.7217 N   0  0  0  0  0  0  0  0  0  0  0  0
   24.0664  -20.0805  -12.4795 C   0  0  0  0  0  0  0  0  0  0  0  0
   23.9245  -18.8455  -12.5220 O   0  0  0  0  0  0  0  0  0  0  0  0
   22.9774  -20.9199  -12.8439 N   0  0  0  0  0  0  0  0  0  0  0  0
   21.6934  -20.3797  -13.2939 C   0  0  1  0  0  0  0  0  0  0  0  0
   21.4996  -20.7872  -14.7144 C   0  0  0  0  0  0  0  0  0  0  0  0
   20.2458  -20.3118  -15.3641 C   0  0  0  0  0  0  0  0  0  0  0  0
   20.0581  -20.8579  -16.7241 C   0  0  0  0  0  0  0  0  0  0  0  0
   20.8119  -21.6846  -17.2840 O   0  0  0  0  0  0  0  0  0  0  0  0
   20.6067  -20.8448  -12.3982 C   0  0  0  0  0  0  0  0  0  0  0  0
   19.4898  -20.0722  -12.2079 O   0  0  0  0  0  0  0  0  0  0  0  0
   18.9520  -20.4284  -17.4649 O   0  0  0  0  0  0  0  0  0  0  0  0
   20.7134  -21.9377  -11.8211 O   0  0  0  0  0  0  0  0  0  0  0  0
  2  1  1  0
  3  4  1  0
  3  2  1  0
  4  5  1  0
  5  1  1  0
  5  6  1  6
  7  6  2  0
  9  8  1  1
  9 10  1  0
  9 11  1  0
 11 12  1  6
 11 13  1  0
 12  6  1  0
 13 15  1  0
 14 13  2  0
 15 16  1  0
 16 17  1  6
 16 21  1  0
 17 18  1  0
 18 19  1  0
 19 23  1  0
 20 19  2  0
 21 22  1  0
 24 21  2  0
M  END
$$$$
