PVE.pdb
     RDKit          3D

 24 24  0  0  1  0  0  0  0  0999 V2000
   28.5893  -20.9201  -15.8253 N   0  0  0  0  0  0  0  0  0  0  0  0
   28.2250  -20.2772  -17.0551 C   0  0  0  0  0  0  0  0  0  0  0  0
   27.3837  -19.0671  -16.7046 C   0  0  0  0  0  0  0  0  0  0  0  0
   27.9554  -18.7228  -15.3334 C   0  0  0  0  0  0  0  0  0  0  0  0
   28.1517  -20.0936  -14.7433 C   0  0  1  0  0  0  0  0  0  0  0  0
   26.9387  -20.6528  -14.1471 C   0  0  0  0  0  0  0  0  0  0  0  0
   26.2687  -21.4985  -14.7650 O   0  0  0  0  0  0  0  0  0  0  0  0
   24.2457  -21.2208  -10.0562 C   0  0  0  0  0  0  0  0  0  0  0  0
   25.4908  -20.7232  -10.7207 C   0  0  2  0  0  0  0  0  0  0  0  0
   25.7539  -19.2562  -10.4602 C   0  0  0  0  0  0  0  0  0  0  0  0
   25.3372  -20.9501  -12.2239 C   0  0  2  0  0  0  0  0  0  0  0  0
   26.4550  -20.2757  -12.8503 N   0  0  0  0  0  0  0  0  0  0  0  0
   24.0394  -20.3500  -12.6314 C   0  0  0  0  0  0  0  0  0  0  0  0
   23.9533  -19.1102  -12.6839 O   0  0  0  0  0  0  0  0  0  0  0  0
   22.9042  -21.1418  -12.9598 N   0  0  0  0  0  0  0  0  0  0  0  0
   21.6544  -20.5507  -13.4413 C   0  0  1  0  0  0  0  0  0  0  0  0
   20.9922  -21.5458  -14.3314 C   0  0  0  0  0  0  0  0  0  0  0  0
   19.6629  -21.1506  -14.8764 C   0  0  0  0  0  0  0  0  0  0  0  0
   19.0478  -22.2006  -15.7144 C   0  0  0  0  0  0  0  0  0  0  0  0
   18.2897  -23.1063  -15.3016 O   0  0  0  0  0  0  0  0  0  0  0  0
   20.8118  -20.1420  -12.2913 C   0  0  0  0  0  0  0  0  0  0  0  0
   19.9575  -19.0753  -12.4051 O   0  0  0  0  0  0  0  0  0  0  0  0
   19.3223  -22.2009  -17.0859 O   0  0  0  0  0  0  0  0  0  0  0  0
   20.8839  -20.7708  -11.2244 O   0  0  0  0  0  0  0  0  0  0  0  0
  2  1  1  0
  3  4  1  0
  3  2  1  0
  4  5  1  0
  5  1  1  0
  5  6  1  6
  7  6  2  0
  9  8  1  1
  9 10  1  0
  9 11  1  0
 11 12  1  6
 11 13  1  0
 12  6  1  0
 13 15  1  0
 14 13  2  0
 15 16  1  0
 16 17  1  1
 16 21  1  0
 17 18  1  0
 18 19  1  0
 19 23  1  0
 20 19  2  0
 21 22  1  0
 24 21  2  0
M  END
$$$$
