PVE.pdb
     RDKit          3D

 24 24  0  0  1  0  0  0  0  0999 V2000
   21.2416  -13.7637  -17.5258 N   0  0  0  0  0  0  0  0  0  0  0  0
   19.8408  -14.0651  -17.4529 C   0  0  0  0  0  0  0  0  0  0  0  0
   19.0840  -12.7797  -17.7173 C   0  0  0  0  0  0  0  0  0  0  0  0
   20.0761  -12.0581  -18.6232 C   0  0  0  0  0  0  0  0  0  0  0  0
   21.3844  -12.4110  -17.9677 C   0  0  1  0  0  0  0  0  0  0  0  0
   21.7225  -11.5491  -16.8353 C   0  0  0  0  0  0  0  0  0  0  0  0
   21.1487  -11.6962  -15.7421 O   0  0  0  0  0  0  0  0  0  0  0  0
   25.0814   -9.1482  -16.9605 C   0  0  0  0  0  0  0  0  0  0  0  0
   24.5346   -9.6359  -15.6556 C   0  0  2  0  0  0  0  0  0  0  0  0
   25.0327  -11.0156  -15.2848 C   0  0  0  0  0  0  0  0  0  0  0  0
   23.0113   -9.6626  -15.7716 C   0  0  2  0  0  0  0  0  0  0  0  0
   22.7075  -10.5087  -16.9066 N   0  0  0  0  0  0  0  0  0  0  0  0
   22.5605   -8.2638  -15.9970 C   0  0  0  0  0  0  0  0  0  0  0  0
   22.5145   -7.8399  -17.1656 O   0  0  0  0  0  0  0  0  0  0  0  0
   22.1838   -7.4037  -14.9286 N   0  0  0  0  0  0  0  0  0  0  0  0
   21.7213   -6.0335  -15.1568 C   0  0  1  0  0  0  0  0  0  0  0  0
   20.2312   -6.0530  -15.1811 C   0  0  0  0  0  0  0  0  0  0  0  0
   19.5638   -4.7283  -15.3220 C   0  0  0  0  0  0  0  0  0  0  0  0
   18.0932   -4.8310  -15.4205 C   0  0  0  0  0  0  0  0  0  0  0  0
   17.4400   -5.8980  -15.4330 O   0  0  0  0  0  0  0  0  0  0  0  0
   22.2780   -5.1320  -14.1191 C   0  0  0  0  0  0  0  0  0  0  0  0
   22.3947   -3.7874  -14.3622 O   0  0  0  0  0  0  0  0  0  0  0  0
   17.3497   -3.6494  -15.5079 O   0  0  0  0  0  0  0  0  0  0  0  0
   22.6382   -5.6010  -13.0286 O   0  0  0  0  0  0  0  0  0  0  0  0
  2  1  1  0
  3  4  1  0
  3  2  1  0
  4  5  1  0
  5  1  1  0
  5  6  1  1
  7  6  2  0
  9  8  1  6
  9 10  1  0
  9 11  1  0
 11 12  1  6
 11 13  1  0
 12  6  1  0
 13 15  1  0
 14 13  2  0
 15 16  1  0
 16 17  1  1
 16 21  1  0
 17 18  1  0
 18 19  1  0
 19 23  1  0
 20 19  2  0
 21 22  1  0
 24 21  2  0
M  END
$$$$
