PVE.pdb
     RDKit          3D

 24 24  0  0  1  0  0  0  0  0999 V2000
   18.7148  -24.7401  -10.9455 N   0  0  0  0  0  0  0  0  0  0  0  0
   18.3091  -23.4395  -11.3950 C   0  0  0  0  0  0  0  0  0  0  0  0
   18.3002  -22.5229  -10.1888 C   0  0  0  0  0  0  0  0  0  0  0  0
   19.3836  -23.1776   -9.3384 C   0  0  0  0  0  0  0  0  0  0  0  0
   19.0999  -24.6373   -9.5720 C   0  0  1  0  0  0  0  0  0  0  0  0
   18.0414  -25.1718   -8.7156 C   0  0  0  0  0  0  0  0  0  0  0  0
   16.8525  -25.1064   -9.0732 O   0  0  0  0  0  0  0  0  0  0  0  0
   18.8619  -28.0785   -6.0983 C   0  0  0  0  0  0  0  0  0  0  0  0
   17.4689  -27.8525   -6.5964 C   0  0  2  0  0  0  0  0  0  0  0  0
   17.2315  -28.4346   -7.9726 C   0  0  0  0  0  0  0  0  0  0  0  0
   17.2296  -26.3439   -6.6374 C   0  0  2  0  0  0  0  0  0  0  0  0
   18.2950  -25.7880   -7.4452 N   0  0  0  0  0  0  0  0  0  0  0  0
   17.2906  -25.8483   -5.2370 C   0  0  0  0  0  0  0  0  0  0  0  0
   18.4090  -25.6693   -4.7227 O   0  0  0  0  0  0  0  0  0  0  0  0
   16.1214  -25.5751   -4.4744 N   0  0  0  0  0  0  0  0  0  0  0  0
   16.1817  -24.9518   -3.1511 C   0  0  1  0  0  0  0  0  0  0  0  0
   15.1049  -23.9237   -3.0815 C   0  0  0  0  0  0  0  0  0  0  0  0
   15.0233  -23.1497   -1.8109 C   0  0  0  0  0  0  0  0  0  0  0  0
   13.9213  -22.1655   -1.8048 C   0  0  0  0  0  0  0  0  0  0  0  0
   13.1730  -21.9088   -2.7741 O   0  0  0  0  0  0  0  0  0  0  0  0
   16.0693  -25.9893   -2.0973 C   0  0  0  0  0  0  0  0  0  0  0  0
   16.5369  -25.7426   -0.8320 O   0  0  0  0  0  0  0  0  0  0  0  0
   13.6767  -21.4501   -0.6280 O   0  0  0  0  0  0  0  0  0  0  0  0
   15.5495  -27.0830   -2.3667 O   0  0  0  0  0  0  0  0  0  0  0  0
  2  1  1  0
  3  4  1  0
  3  2  1  0
  4  5  1  0
  5  1  1  0
  5  6  1  1
  7  6  2  0
  9  8  1  6
  9 10  1  0
  9 11  1  0
 11 12  1  6
 11 13  1  0
 12  6  1  0
 13 15  1  0
 14 13  2  0
 15 16  1  0
 16 17  1  6
 16 21  1  0
 17 18  1  0
 18 19  1  0
 19 23  1  0
 20 19  2  0
 21 22  1  0
 24 21  2  0
M  END
$$$$
