PVE.pdb
     RDKit          3D

 24 24  0  0  1  0  0  0  0  0999 V2000
   27.1670  -19.4620  -14.9796 N   0  0  0  0  0  0  0  0  0  0  0  0
   28.4636  -19.3730  -14.3719 C   0  0  0  0  0  0  0  0  0  0  0  0
   28.9975  -20.7835  -14.2290 C   0  0  0  0  0  0  0  0  0  0  0  0
   28.3061  -21.4597  -15.4081 C   0  0  0  0  0  0  0  0  0  0  0  0
   26.9427  -20.8238  -15.3545 C   0  0  1  0  0  0  0  0  0  0  0  0
   26.0370  -21.4617  -14.3994 C   0  0  0  0  0  0  0  0  0  0  0  0
   25.7647  -22.6703  -14.5043 O   0  0  0  0  0  0  0  0  0  0  0  0
   24.3942  -19.5000  -10.9326 C   0  0  0  0  0  0  0  0  0  0  0  0
   24.6092  -20.9732  -11.0841 C   0  0  2  0  0  0  0  0  0  0  0  0
   26.0107  -21.4071  -10.7144 C   0  0  0  0  0  0  0  0  0  0  0  0
   24.3366  -21.3345  -12.5435 C   0  0  2  0  0  0  0  0  0  0  0  0
   25.4208  -20.7587  -13.3113 N   0  0  0  0  0  0  0  0  0  0  0  0
   23.0275  -20.7328  -12.9109 C   0  0  0  0  0  0  0  0  0  0  0  0
   22.9575  -19.4960  -13.0230 O   0  0  0  0  0  0  0  0  0  0  0  0
   21.8642  -21.5198  -13.1360 N   0  0  0  0  0  0  0  0  0  0  0  0
   20.5855  -20.9259  -13.5301 C   0  0  1  0  0  0  0  0  0  0  0  0
   19.7225  -22.0158  -14.0674 C   0  0  0  0  0  0  0  0  0  0  0  0
   18.3324  -21.6255  -14.4355 C   0  0  0  0  0  0  0  0  0  0  0  0
   17.5257  -22.7613  -14.9278 C   0  0  0  0  0  0  0  0  0  0  0  0
   17.9071  -23.9516  -14.9828 O   0  0  0  0  0  0  0  0  0  0  0  0
   19.9809  -20.2151  -12.3774 C   0  0  0  0  0  0  0  0  0  0  0  0
   19.2033  -19.1041  -12.5812 O   0  0  0  0  0  0  0  0  0  0  0  0
   16.2247  -22.5072  -15.3741 O   0  0  0  0  0  0  0  0  0  0  0  0
   20.1826  -20.6311  -11.2263 O   0  0  0  0  0  0  0  0  0  0  0  0
  2  1  1  0
  3  4  1  0
  3  2  1  0
  4  5  1  0
  5  1  1  0
  5  6  1  1
  7  6  2  0
  9  8  1  6
  9 10  1  0
  9 11  1  0
 11 12  1  6
 11 13  1  0
 12  6  1  0
 13 15  1  0
 14 13  2  0
 15 16  1  0
 16 17  1  1
 16 21  1  0
 17 18  1  0
 18 19  1  0
 19 23  1  0
 20 19  2  0
 21 22  1  0
 24 21  2  0
M  END
$$$$
