PVE.pdb
     RDKit          3D

 24 24  0  0  1  0  0  0  0  0999 V2000
   30.0019  -20.4621  -12.2864 N   0  0  0  0  0  0  0  0  0  0  0  0
   30.2960  -20.4392  -10.8824 C   0  0  0  0  0  0  0  0  0  0  0  0
   29.1072  -21.0370  -10.1582 C   0  0  0  0  0  0  0  0  0  0  0  0
   28.5884  -21.9946  -11.2257 C   0  0  0  0  0  0  0  0  0  0  0  0
   28.7759  -21.1742  -12.4738 C   0  0  1  0  0  0  0  0  0  0  0  0
   27.6850  -20.2325  -12.7242 C   0  0  0  0  0  0  0  0  0  0  0  0
   27.7938  -19.0419  -12.3831 O   0  0  0  0  0  0  0  0  0  0  0  0
   25.1127  -17.7325  -15.2469 C   0  0  0  0  0  0  0  0  0  0  0  0
   26.1332  -18.7205  -14.7758 C   0  0  2  0  0  0  0  0  0  0  0  0
   26.6950  -19.5693  -15.8952 C   0  0  0  0  0  0  0  0  0  0  0  0
   25.4616  -19.6252  -13.7437 C   0  0  2  0  0  0  0  0  0  0  0  0
   26.4547  -20.6066  -13.3600 N   0  0  0  0  0  0  0  0  0  0  0  0
   24.2930  -20.2615  -14.4071 C   0  0  0  0  0  0  0  0  0  0  0  0
   24.5028  -21.0252  -15.3662 O   0  0  0  0  0  0  0  0  0  0  0  0
   22.9557  -20.0263  -13.9833 N   0  0  0  0  0  0  0  0  0  0  0  0
   21.8570  -20.9282  -14.3335 C   0  0  1  0  0  0  0  0  0  0  0  0
   21.1419  -21.2861  -13.0758 C   0  0  0  0  0  0  0  0  0  0  0  0
   19.9483  -22.1643  -13.2314 C   0  0  0  0  0  0  0  0  0  0  0  0
   19.2466  -22.4152  -11.9556 C   0  0  0  0  0  0  0  0  0  0  0  0
   19.5884  -21.9653  -10.8393 O   0  0  0  0  0  0  0  0  0  0  0  0
   20.9796  -20.2886  -15.3439 C   0  0  0  0  0  0  0  0  0  0  0  0
   20.2640  -21.0588  -16.2244 O   0  0  0  0  0  0  0  0  0  0  0  0
   18.1026  -23.2199  -11.9744 O   0  0  0  0  0  0  0  0  0  0  0  0
   20.8964  -19.0517  -15.3885 O   0  0  0  0  0  0  0  0  0  0  0  0
  2  1  1  0
  3  4  1  0
  3  2  1  0
  4  5  1  0
  5  1  1  0
  5  6  1  1
  7  6  2  0
  9  8  1  6
  9 10  1  0
  9 11  1  0
 11 12  1  6
 11 13  1  0
 12  6  1  0
 13 15  1  0
 14 13  2  0
 15 16  1  0
 16 17  1  1
 16 21  1  0
 17 18  1  0
 18 19  1  0
 19 23  1  0
 20 19  2  0
 21 22  1  0
 24 21  2  0
M  END
$$$$
