PVE.pdb
     RDKit          3D

 24 24  0  0  1  0  0  0  0  0999 V2000
   21.1789  -15.3652  -17.9893 N   0  0  0  0  0  0  0  0  0  0  0  0
   21.6562  -16.7009  -17.7741 C   0  0  0  0  0  0  0  0  0  0  0  0
   21.2261  -17.1197  -16.3832 C   0  0  0  0  0  0  0  0  0  0  0  0
   19.9501  -16.2985  -16.2313 C   0  0  0  0  0  0  0  0  0  0  0  0
   20.3559  -15.0011  -16.8778 C   0  0  1  0  0  0  0  0  0  0  0  0
   21.0914  -14.1070  -15.9839 C   0  0  0  0  0  0  0  0  0  0  0  0
   20.6271  -13.8146  -14.8682 O   0  0  0  0  0  0  0  0  0  0  0  0
   24.7714  -12.6356  -17.1534 C   0  0  0  0  0  0  0  0  0  0  0  0
   24.4915  -12.6849  -15.6842 C   0  0  2  0  0  0  0  0  0  0  0  0
   24.9372  -13.9796  -15.0406 C   0  0  0  0  0  0  0  0  0  0  0  0
   22.9848  -12.5177  -15.4928 C   0  0  2  0  0  0  0  0  0  0  0  0
   22.3582  -13.5253  -16.3228 N   0  0  0  0  0  0  0  0  0  0  0  0
   22.6318  -11.1446  -15.9406 C   0  0  0  0  0  0  0  0  0  0  0  0
   22.6232  -10.9061  -17.1614 O   0  0  0  0  0  0  0  0  0  0  0  0
   22.3068  -10.1053  -15.0254 N   0  0  0  0  0  0  0  0  0  0  0  0
   21.7544   -8.8231  -15.4660 C   0  0  1  0  0  0  0  0  0  0  0  0
   20.4346   -9.0902  -16.1047 C   0  0  0  0  0  0  0  0  0  0  0  0
   19.6882   -7.8933  -16.5847 C   0  0  0  0  0  0  0  0  0  0  0  0
   18.3933   -8.2335  -17.2098 C   0  0  0  0  0  0  0  0  0  0  0  0
   18.2436   -8.9538  -18.2216 O   0  0  0  0  0  0  0  0  0  0  0  0
   21.6707   -7.8870  -14.3187 C   0  0  0  0  0  0  0  0  0  0  0  0
   21.4971   -6.5438  -14.5340 O   0  0  0  0  0  0  0  0  0  0  0  0
   17.2250   -7.7180  -16.6390 O   0  0  0  0  0  0  0  0  0  0  0  0
   21.7588   -8.3258  -13.1618 O   0  0  0  0  0  0  0  0  0  0  0  0
  2  1  1  0
  3  4  1  0
  3  2  1  0
  4  5  1  0
  5  1  1  0
  5  6  1  1
  7  6  2  0
  9  8  1  6
  9 10  1  0
  9 11  1  0
 11 12  1  6
 11 13  1  0
 12  6  1  0
 13 15  1  0
 14 13  2  0
 15 16  1  0
 16 17  1  1
 16 21  1  0
 17 18  1  0
 18 19  1  0
 19 23  1  0
 20 19  2  0
 21 22  1  0
 24 21  2  0
M  END
$$$$
