PVE.pdb
     RDKit          3D

 24 24  0  0  1  0  0  0  0  0999 V2000
   24.3432  -14.0332  -16.1598 N   0  0  0  0  0  0  0  0  0  0  0  0
   25.5018  -14.0288  -17.0059 C   0  0  0  0  0  0  0  0  0  0  0  0
   26.2896  -12.7732  -16.6929 C   0  0  0  0  0  0  0  0  0  0  0  0
   25.9138  -12.5710  -15.2289 C   0  0  0  0  0  0  0  0  0  0  0  0
   24.4543  -12.9391  -15.2456 C   0  0  1  0  0  0  0  0  0  0  0  0
   23.5800  -11.8451  -15.6680 C   0  0  0  0  0  0  0  0  0  0  0  0
   23.1667  -11.7891  -16.8392 O   0  0  0  0  0  0  0  0  0  0  0  0
   21.0432  -10.4334  -13.0985 C   0  0  0  0  0  0  0  0  0  0  0  0
   20.8376  -10.2900  -14.5739 C   0  0  2  0  0  0  0  0  0  0  0  0
   20.4089  -11.5796  -15.2390 C   0  0  0  0  0  0  0  0  0  0  0  0
   22.1581   -9.8215  -15.1832 C   0  0  2  0  0  0  0  0  0  0  0  0
   23.1535  -10.7958  -14.7876 N   0  0  0  0  0  0  0  0  0  0  0  0
   22.4539   -8.4784  -14.6183 C   0  0  0  0  0  0  0  0  0  0  0  0
   23.0520   -8.4150  -13.5295 O   0  0  0  0  0  0  0  0  0  0  0  0
   22.0780   -7.2754  -15.2777 N   0  0  0  0  0  0  0  0  0  0  0  0
   22.4446   -5.9557  -14.7608 C   0  0  1  0  0  0  0  0  0  0  0  0
   22.1159   -4.9478  -15.8084 C   0  0  0  0  0  0  0  0  0  0  0  0
   22.3790   -3.5256  -15.4505 C   0  0  0  0  0  0  0  0  0  0  0  0
   22.0466   -2.5855  -16.5409 C   0  0  0  0  0  0  0  0  0  0  0  0
   21.7763   -2.9080  -17.7191 O   0  0  0  0  0  0  0  0  0  0  0  0
   21.7538   -5.7071  -13.4722 C   0  0  0  0  0  0  0  0  0  0  0  0
   22.3219   -4.8882  -12.5302 O   0  0  0  0  0  0  0  0  0  0  0  0
   22.0267   -1.2166  -16.2541 O   0  0  0  0  0  0  0  0  0  0  0  0
   20.6580   -6.2446  -13.2504 O   0  0  0  0  0  0  0  0  0  0  0  0
  2  1  1  0
  3  4  1  0
  3  2  1  0
  4  5  1  0
  5  1  1  0
  5  6  1  6
  7  6  2  0
  9  8  1  1
  9 10  1  0
  9 11  1  0
 11 12  1  1
 11 13  1  0
 12  6  1  0
 13 15  1  0
 14 13  2  0
 15 16  1  0
 16 17  1  6
 16 21  1  0
 17 18  1  0
 18 19  1  0
 19 23  1  0
 20 19  2  0
 21 22  1  0
 24 21  2  0
M  END
$$$$
