PVE.pdb
     RDKit          3D

 24 24  0  0  1  0  0  0  0  0999 V2000
   19.2575  -13.1333  -17.9804 N   0  0  0  0  0  0  0  0  0  0  0  0
   17.8866  -12.9947  -18.3800 C   0  0  0  0  0  0  0  0  0  0  0  0
   17.6878  -11.5640  -18.8369 C   0  0  0  0  0  0  0  0  0  0  0  0
   19.0890  -11.2406  -19.3446 C   0  0  0  0  0  0  0  0  0  0  0  0
   19.9424  -11.9213  -18.3082 C   0  0  1  0  0  0  0  0  0  0  0  0
   20.1462  -11.1211  -17.1008 C   0  0  0  0  0  0  0  0  0  0  0  0
   19.2437  -11.0276  -16.2507 O   0  0  0  0  0  0  0  0  0  0  0  0
   23.9675   -9.3823  -15.9168 C   0  0  0  0  0  0  0  0  0  0  0  0
   22.9604  -10.1135  -15.0858 C   0  0  2  0  0  0  0  0  0  0  0  0
   23.1024  -11.6173  -15.1724 C   0  0  0  0  0  0  0  0  0  0  0  0
   21.5713   -9.7079  -15.5766 C   0  0  2  0  0  0  0  0  0  0  0  0
   21.3623  -10.4123  -16.8242 N   0  0  0  0  0  0  0  0  0  0  0  0
   21.5859   -8.2347  -15.7770 C   0  0  0  0  0  0  0  0  0  0  0  0
   22.0099   -7.7907  -16.8589 O   0  0  0  0  0  0  0  0  0  0  0  0
   21.1345   -7.3261  -14.7800 N   0  0  0  0  0  0  0  0  0  0  0  0
   21.1089   -5.8788  -14.9983 C   0  0  1  0  0  0  0  0  0  0  0  0
   19.6823   -5.4529  -15.0676 C   0  0  0  0  0  0  0  0  0  0  0  0
   19.4442   -3.9864  -15.1807 C   0  0  0  0  0  0  0  0  0  0  0  0
   18.0092   -3.6364  -15.2193 C   0  0  0  0  0  0  0  0  0  0  0  0
   17.1505   -4.1768  -15.9513 O   0  0  0  0  0  0  0  0  0  0  0  0
   21.8735   -5.1920  -13.9291 C   0  0  0  0  0  0  0  0  0  0  0  0
   22.0040   -5.7702  -12.6925 O   0  0  0  0  0  0  0  0  0  0  0  0
   17.5512   -2.6191  -14.3756 O   0  0  0  0  0  0  0  0  0  0  0  0
   22.3952   -4.0903  -14.1594 O   0  0  0  0  0  0  0  0  0  0  0  0
  2  1  1  0
  3  4  1  0
  3  2  1  0
  4  5  1  0
  5  1  1  0
  5  6  1  1
  7  6  2  0
  9  8  1  6
  9 10  1  0
  9 11  1  0
 11 12  1  6
 11 13  1  0
 12  6  1  0
 13 15  1  0
 14 13  2  0
 15 16  1  0
 16 17  1  1
 16 21  1  0
 17 18  1  0
 18 19  1  0
 19 23  1  0
 20 19  2  0
 21 22  1  0
 24 21  2  0
M  END
$$$$
