PVE.pdb
     RDKit          3D

 24 24  0  0  1  0  0  0  0  0999 V2000
   26.7203  -13.3332  -17.2510 N   0  0  0  0  0  0  0  0  0  0  0  0
   28.0802  -12.8792  -17.1982 C   0  0  0  0  0  0  0  0  0  0  0  0
   28.1710  -11.8396  -16.1000 C   0  0  0  0  0  0  0  0  0  0  0  0
   27.0675  -12.3279  -15.1676 C   0  0  0  0  0  0  0  0  0  0  0  0
   26.0118  -12.7482  -16.1550 C   0  0  1  0  0  0  0  0  0  0  0  0
   25.1822  -11.6415  -16.6308 C   0  0  0  0  0  0  0  0  0  0  0  0
   25.4776  -11.0420  -17.6791 O   0  0  0  0  0  0  0  0  0  0  0  0
   20.7651  -10.0768  -17.3061 C   0  0  0  0  0  0  0  0  0  0  0  0
   21.7882  -11.0372  -16.7859 C   0  0  2  0  0  0  0  0  0  0  0  0
   21.3651  -11.7121  -15.4996 C   0  0  0  0  0  0  0  0  0  0  0  0
   23.0789  -10.2555  -16.5459 C   0  0  2  0  0  0  0  0  0  0  0  0
   24.0087  -11.1870  -15.9421 N   0  0  0  0  0  0  0  0  0  0  0  0
   22.7526   -9.1351  -15.6246 C   0  0  0  0  0  0  0  0  0  0  0  0
   22.6060   -9.3891  -14.4157 O   0  0  0  0  0  0  0  0  0  0  0  0
   22.6043   -7.7951  -16.0780 N   0  0  0  0  0  0  0  0  0  0  0  0
   22.4098   -6.6765  -15.1538 C   0  0  1  0  0  0  0  0  0  0  0  0
   22.7007   -5.4165  -15.8950 C   0  0  0  0  0  0  0  0  0  0  0  0
   22.5389   -4.1530  -15.1220 C   0  0  0  0  0  0  0  0  0  0  0  0
   22.7703   -2.9436  -15.9387 C   0  0  0  0  0  0  0  0  0  0  0  0
   23.2973   -2.9247  -17.0732 O   0  0  0  0  0  0  0  0  0  0  0  0
   21.0396   -6.7197  -14.5880 C   0  0  0  0  0  0  0  0  0  0  0  0
   20.8109   -6.3105  -13.2993 O   0  0  0  0  0  0  0  0  0  0  0  0
   22.3750   -1.7064  -15.4195 O   0  0  0  0  0  0  0  0  0  0  0  0
   20.1002   -7.1285  -15.2874 O   0  0  0  0  0  0  0  0  0  0  0  0
  2  1  1  0
  3  4  1  0
  3  2  1  0
  4  5  1  0
  5  1  1  0
  5  6  1  6
  7  6  2  0
  9  8  1  1
  9 10  1  0
  9 11  1  0
 11 12  1  1
 11 13  1  0
 12  6  1  0
 13 15  1  0
 14 13  2  0
 15 16  1  0
 16 17  1  6
 16 21  1  0
 17 18  1  0
 18 19  1  0
 19 23  1  0
 20 19  2  0
 21 22  1  0
 24 21  2  0
M  END
$$$$
