PVE.pdb
     RDKit          3D

 24 24  0  0  1  0  0  0  0  0999 V2000
   28.8260  -20.2658  -15.4011 N   0  0  0  0  0  0  0  0  0  0  0  0
   28.4365  -19.5632  -16.5897 C   0  0  0  0  0  0  0  0  0  0  0  0
   27.4082  -18.5253  -16.1890 C   0  0  0  0  0  0  0  0  0  0  0  0
   27.8492  -18.2402  -14.7573 C   0  0  0  0  0  0  0  0  0  0  0  0
   28.2142  -19.6207  -14.2808 C   0  0  1  0  0  0  0  0  0  0  0  0
   27.0673  -20.4026  -13.8197 C   0  0  0  0  0  0  0  0  0  0  0  0
   26.6946  -21.4039  -14.4556 O   0  0  0  0  0  0  0  0  0  0  0  0
   24.9731  -19.3519  -10.3077 C   0  0  0  0  0  0  0  0  0  0  0  0
   25.2238  -20.7872  -10.6492 C   0  0  2  0  0  0  0  0  0  0  0  0
   26.5363  -21.3043  -10.1023 C   0  0  0  0  0  0  0  0  0  0  0  0
   25.2282  -20.9080  -12.1724 C   0  0  2  0  0  0  0  0  0  0  0  0
   26.3183  -20.0778  -12.6402 N   0  0  0  0  0  0  0  0  0  0  0  0
   23.9145  -20.4100  -12.6592 C   0  0  0  0  0  0  0  0  0  0  0  0
   23.7685  -19.1842  -12.8127 O   0  0  0  0  0  0  0  0  0  0  0  0
   22.8303  -21.2829  -12.9520 N   0  0  0  0  0  0  0  0  0  0  0  0
   21.5907  -20.8067  -13.5684 C   0  0  1  0  0  0  0  0  0  0  0  0
   21.4733  -21.4459  -14.9097 C   0  0  0  0  0  0  0  0  0  0  0  0
   20.2624  -21.0863  -15.6998 C   0  0  0  0  0  0  0  0  0  0  0  0
   20.1532  -21.8426  -16.9644 C   0  0  0  0  0  0  0  0  0  0  0  0
   20.9226  -22.7589  -17.3300 O   0  0  0  0  0  0  0  0  0  0  0  0
   20.4396  -21.0962  -12.6793 C   0  0  0  0  0  0  0  0  0  0  0  0
   19.2354  -20.4723  -12.8825 O   0  0  0  0  0  0  0  0  0  0  0  0
   19.1104  -21.5240  -17.8405 O   0  0  0  0  0  0  0  0  0  0  0  0
   20.5717  -21.9067  -11.7496 O   0  0  0  0  0  0  0  0  0  0  0  0
  2  1  1  0
  3  4  1  0
  3  2  1  0
  4  5  1  0
  5  1  1  0
  5  6  1  6
  7  6  2  0
  9  8  1  6
  9 10  1  0
  9 11  1  0
 11 12  1  6
 11 13  1  0
 12  6  1  0
 13 15  1  0
 14 13  2  0
 15 16  1  0
 16 17  1  6
 16 21  1  0
 17 18  1  0
 18 19  1  0
 19 23  1  0
 20 19  2  0
 21 22  1  0
 24 21  2  0
M  END
$$$$
