PVE.pdb
     RDKit          3D

 24 24  0  0  1  0  0  0  0  0999 V2000
   28.7824  -20.4302  -15.3060 N   0  0  0  0  0  0  0  0  0  0  0  0
   28.4295  -19.8447  -16.5673 C   0  0  0  0  0  0  0  0  0  0  0  0
   27.3084  -18.8578  -16.3136 C   0  0  0  0  0  0  0  0  0  0  0  0
   27.6292  -18.4395  -14.8826 C   0  0  0  0  0  0  0  0  0  0  0  0
   28.0526  -19.7522  -14.2797 C   0  0  1  0  0  0  0  0  0  0  0  0
   26.9318  -20.5799  -13.8345 C   0  0  0  0  0  0  0  0  0  0  0  0
   26.5763  -21.5662  -14.5028 O   0  0  0  0  0  0  0  0  0  0  0  0
   24.6365  -19.6707  -10.3383 C   0  0  0  0  0  0  0  0  0  0  0  0
   25.0685  -21.0641  -10.6723 C   0  0  2  0  0  0  0  0  0  0  0  0
   26.4246  -21.4155  -10.1009 C   0  0  0  0  0  0  0  0  0  0  0  0
   25.1152  -21.1831  -12.1950 C   0  0  2  0  0  0  0  0  0  0  0  0
   26.1901  -20.3184  -12.6347 N   0  0  0  0  0  0  0  0  0  0  0  0
   23.7993  -20.7262  -12.7148 C   0  0  0  0  0  0  0  0  0  0  0  0
   23.6371  -19.5106  -12.9231 O   0  0  0  0  0  0  0  0  0  0  0  0
   22.7306  -21.6269  -12.9788 N   0  0  0  0  0  0  0  0  0  0  0  0
   21.4423  -21.1747  -13.5070 C   0  0  1  0  0  0  0  0  0  0  0  0
   21.0563  -22.0924  -14.6161 C   0  0  0  0  0  0  0  0  0  0  0  0
   19.7289  -21.8362  -15.2426 C   0  0  0  0  0  0  0  0  0  0  0  0
   19.7891  -20.8446  -16.3364 C   0  0  0  0  0  0  0  0  0  0  0  0
   20.1382  -21.0840  -17.5137 O   0  0  0  0  0  0  0  0  0  0  0  0
   20.4390  -21.1204  -12.4162 C   0  0  0  0  0  0  0  0  0  0  0  0
   19.3704  -20.2651  -12.5021 O   0  0  0  0  0  0  0  0  0  0  0  0
   19.4301  -19.5225  -16.0541 O   0  0  0  0  0  0  0  0  0  0  0  0
   20.5714  -21.8535  -11.4244 O   0  0  0  0  0  0  0  0  0  0  0  0
  2  1  1  0
  3  4  1  0
  3  2  1  0
  4  5  1  0
  5  1  1  0
  5  6  1  6
  7  6  2  0
  9  8  1  6
  9 10  1  0
  9 11  1  0
 11 12  1  6
 11 13  1  0
 12  6  1  0
 13 15  1  0
 14 13  2  0
 15 16  1  0
 16 17  1  6
 16 21  1  0
 17 18  1  0
 18 19  1  0
 19 23  1  0
 20 19  2  0
 21 22  1  0
 24 21  2  0
M  END
$$$$
