PVE.pdb
     RDKit          3D

 24 24  0  0  1  0  0  0  0  0999 V2000
   28.4336  -20.1115  -15.8046 N   0  0  0  0  0  0  0  0  0  0  0  0
   28.0459  -19.1708  -16.8161 C   0  0  0  0  0  0  0  0  0  0  0  0
   27.2492  -18.0752  -16.1379 C   0  0  0  0  0  0  0  0  0  0  0  0
   27.8751  -18.1009  -14.7475 C   0  0  0  0  0  0  0  0  0  0  0  0
   28.0543  -19.5799  -14.5322 C   0  0  1  0  0  0  0  0  0  0  0  0
   26.8473  -20.2514  -14.0507 C   0  0  0  0  0  0  0  0  0  0  0  0
   26.1710  -20.9546  -14.8214 O   0  0  0  0  0  0  0  0  0  0  0  0
   24.0697  -21.4825  -10.1658 C   0  0  0  0  0  0  0  0  0  0  0  0
   25.3819  -21.0308  -10.7258 C   0  0  2  0  0  0  0  0  0  0  0  0
   25.8569  -19.7211  -10.1359 C   0  0  0  0  0  0  0  0  0  0  0  0
   25.2124  -20.8730  -12.2362 C   0  0  2  0  0  0  0  0  0  0  0  0
   26.3767  -20.1476  -12.6995 N   0  0  0  0  0  0  0  0  0  0  0  0
   23.9621  -20.1009  -12.4626 C   0  0  0  0  0  0  0  0  0  0  0  0
   23.9844  -18.8722  -12.2697 O   0  0  0  0  0  0  0  0  0  0  0  0
   22.7531  -20.7174  -12.8887 N   0  0  0  0  0  0  0  0  0  0  0  0
   21.5400  -19.9460  -13.1651 C   0  0  1  0  0  0  0  0  0  0  0  0
   21.0923  -20.2793  -14.5470 C   0  0  0  0  0  0  0  0  0  0  0  0
   19.8463  -19.6055  -15.0093 C   0  0  0  0  0  0  0  0  0  0  0  0
   19.3851  -20.0875  -16.3277 C   0  0  0  0  0  0  0  0  0  0  0  0
   19.8920  -21.0324  -16.9722 O   0  0  0  0  0  0  0  0  0  0  0  0
   20.5136  -20.2297  -12.1328 C   0  0  0  0  0  0  0  0  0  0  0  0
   20.4447  -21.4687  -11.5490 O   0  0  0  0  0  0  0  0  0  0  0  0
   18.2924  -19.4486  -16.9228 O   0  0  0  0  0  0  0  0  0  0  0  0
   19.7165  -19.3394  -11.7999 O   0  0  0  0  0  0  0  0  0  0  0  0
  2  1  1  0
  3  4  1  0
  3  2  1  0
  4  5  1  0
  5  1  1  0
  5  6  1  6
  7  6  2  0
  9  8  1  1
  9 10  1  0
  9 11  1  0
 11 12  1  1
 11 13  1  0
 12  6  1  0
 13 15  1  0
 14 13  2  0
 15 16  1  0
 16 17  1  6
 16 21  1  0
 17 18  1  0
 18 19  1  0
 19 23  1  0
 20 19  2  0
 21 22  1  0
 24 21  2  0
M  END
$$$$
