PVE.pdb
     RDKit          3D

 24 24  0  0  1  0  0  0  0  0999 V2000
   28.7272  -21.0698  -15.2869 N   0  0  0  0  0  0  0  0  0  0  0  0
   28.4177  -20.6361  -16.6190 C   0  0  0  0  0  0  0  0  0  0  0  0
   27.4897  -19.4440  -16.5058 C   0  0  0  0  0  0  0  0  0  0  0  0
   27.9427  -18.8693  -15.1679 C   0  0  0  0  0  0  0  0  0  0  0  0
   28.1696  -20.1250  -14.3694 C   0  0  1  0  0  0  0  0  0  0  0  0
   26.9489  -20.6681  -13.7740 C   0  0  0  0  0  0  0  0  0  0  0  0
   26.3906  -21.6570  -14.2802 O   0  0  0  0  0  0  0  0  0  0  0  0
   26.4540  -20.7382   -9.8310 C   0  0  0  0  0  0  0  0  0  0  0  0
   25.2142  -20.2408  -10.5057 C   0  0  2  0  0  0  0  0  0  0  0  0
   23.9450  -20.6899   -9.8154 C   0  0  0  0  0  0  0  0  0  0  0  0
   25.2232  -20.7675  -11.9400 C   0  0  2  0  0  0  0  0  0  0  0  0
   26.3324  -20.1144  -12.6030 N   0  0  0  0  0  0  0  0  0  0  0  0
   23.9224  -20.3945  -12.5561 C   0  0  0  0  0  0  0  0  0  0  0  0
   23.7457  -19.2091  -12.8890 O   0  0  0  0  0  0  0  0  0  0  0  0
   22.8840  -21.3418  -12.7747 N   0  0  0  0  0  0  0  0  0  0  0  0
   21.6065  -20.9708  -13.3858 C   0  0  1  0  0  0  0  0  0  0  0  0
   20.9457  -22.2212  -13.8563 C   0  0  0  0  0  0  0  0  0  0  0  0
   19.5831  -22.0599  -14.4372 C   0  0  0  0  0  0  0  0  0  0  0  0
   18.9909  -23.3383  -14.8825 C   0  0  0  0  0  0  0  0  0  0  0  0
   19.5430  -24.4584  -14.8068 O   0  0  0  0  0  0  0  0  0  0  0  0
   20.7859  -20.2039  -12.4174 C   0  0  0  0  0  0  0  0  0  0  0  0
   19.9595  -19.2004  -12.8540 O   0  0  0  0  0  0  0  0  0  0  0  0
   17.7074  -23.3174  -15.4379 O   0  0  0  0  0  0  0  0  0  0  0  0
   20.8511  -20.4750  -11.2086 O   0  0  0  0  0  0  0  0  0  0  0  0
  2  1  1  0
  3  4  1  0
  3  2  1  0
  4  5  1  0
  5  1  1  0
  5  6  1  6
  7  6  2  0
  9  8  1  1
  9 10  1  0
  9 11  1  0
 11 12  1  6
 11 13  1  0
 12  6  1  0
 13 15  1  0
 14 13  2  0
 15 16  1  0
 16 17  1  1
 16 21  1  0
 17 18  1  0
 18 19  1  0
 19 23  1  0
 20 19  2  0
 21 22  1  0
 24 21  2  0
M  END
$$$$
