IKC.pdb
     RDKit          3D

 24 23  0  0  1  0  0  0  0  0999 V2000
    7.9673  -12.1684   20.4118 C   0  0  0  0  0  0  0  0  0  0  0  0
    7.3935  -13.5130   20.7049 C   0  0  0  0  0  0  0  0  0  0  0  0
    8.4111  -14.6348   20.5875 C   0  0  2  0  0  0  0  0  0  0  0  0
    8.9162  -14.6616   19.1399 C   0  0  0  0  0  0  0  0  0  0  0  0
    7.6562  -15.9274   20.7956 C   0  0  2  0  0  0  0  0  0  0  0  0
    6.5566  -15.9765   19.8695 N   0  0  0  0  0  0  0  0  0  0  0  0
    7.1470  -16.0703   22.1677 C   0  0  0  0  0  0  0  0  0  0  0  0
    5.9708  -15.7065   22.4597 O   0  0  0  0  0  0  0  0  0  0  0  0
    7.9705  -16.6153   23.1672 N   0  0  0  0  0  0  0  0  0  0  0  0
    7.4625  -16.6875   24.6032 C   0  0  1  0  0  0  0  0  0  0  0  0
    7.5517  -18.1031   24.9864 C   0  0  0  0  0  0  0  0  0  0  0  0
    7.3161  -18.6029   26.3327 C   0  0  0  0  0  0  0  0  0  0  0  0
    7.5228  -20.0250   26.6706 C   0  0  0  0  0  0  0  0  0  0  0  0
    7.1860  -20.1890   28.1758 C   0  0  0  0  0  0  0  0  0  0  0  0
    8.1360  -21.1561   28.6888 N   0  0  0  0  0  0  0  0  0  0  0  0
    8.2146  -15.6618   25.3028 C   0  0  0  0  0  0  0  0  0  0  0  0
    9.4521  -15.4986   24.9842 O   0  0  0  0  0  0  0  0  0  0  0  0
    7.7585  -14.7849   26.3035 N   0  0  0  0  0  0  0  0  0  0  0  0
    8.6248  -13.8682   27.0154 C   0  0  1  0  0  0  0  0  0  0  0  0
    7.6409  -12.8424   27.6415 C   0  0  0  0  0  0  0  0  0  0  0  0
    6.5682  -12.2359   26.3237 S   0  0  0  0  0  0  0  0  0  0  0  0
    9.4289  -14.4998   28.0623 C   0  0  0  0  0  0  0  0  0  0  0  0
   10.3727  -13.8344   28.8045 O   0  0  0  0  0  0  0  0  0  0  0  0
    9.2723  -15.7352   28.3263 O   0  0  0  0  0  0  0  0  0  0  0  0
  1  2  1  0
  3  2  1  0
  3  4  1  6
  5  6  1  6
  5  3  1  0
  7  5  1  0
  8  7  2  0
  9  7  1  0
 10 11  1  1
 10  9  1  0
 11 12  1  0
 13 12  1  0
 13 14  1  0
 15 14  1  0
 16 10  1  0
 17 16  2  0
 18 16  1  0
 19 20  1  1
 19 18  1  0
 20 21  1  0
 22 19  1  0
 22 23  1  0
 24 22  2  0
M  END
$$$$
