IKC.pdb
     RDKit          3D

 24 23  0  0  1  0  0  0  0  0999 V2000
    7.0105  -11.2399   27.1037 C   0  0  0  0  0  0  0  0  0  0  0  0
    6.2780  -12.3906   26.5014 C   0  0  0  0  0  0  0  0  0  0  0  0
    7.2012  -13.4735   25.9697 C   0  0  2  0  0  0  0  0  0  0  0  0
    7.9688  -12.8926   24.7761 C   0  0  0  0  0  0  0  0  0  0  0  0
    6.3144  -14.5628   25.4122 C   0  0  2  0  0  0  0  0  0  0  0  0
    5.4554  -15.0437   26.4610 N   0  0  0  0  0  0  0  0  0  0  0  0
    7.0816  -15.6865   24.8543 C   0  0  0  0  0  0  0  0  0  0  0  0
    7.5900  -16.5604   25.6152 O   0  0  0  0  0  0  0  0  0  0  0  0
    7.2543  -15.7950   23.4642 N   0  0  0  0  0  0  0  0  0  0  0  0
    8.0705  -16.9510   22.8960 C   0  0  1  0  0  0  0  0  0  0  0  0
    7.5252  -17.2022   21.5550 C   0  0  0  0  0  0  0  0  0  0  0  0
    6.3074  -17.9552   21.2947 C   0  0  0  0  0  0  0  0  0  0  0  0
    5.7534  -18.0711   19.9313 C   0  0  0  0  0  0  0  0  0  0  0  0
    4.5023  -18.9834   20.0241 C   0  0  0  0  0  0  0  0  0  0  0  0
    3.9704  -19.0604   18.6780 N   0  0  0  0  0  0  0  0  0  0  0  0
    9.4510  -16.5470   23.0918 C   0  0  0  0  0  0  0  0  0  0  0  0
    9.7026  -15.2874   23.1880 O   0  0  0  0  0  0  0  0  0  0  0  0
   10.5856  -17.3702   23.2076 N   0  0  0  0  0  0  0  0  0  0  0  0
   11.9157  -16.8615   23.4717 C   0  0  1  0  0  0  0  0  0  0  0  0
   11.8096  -16.2807   24.9083 C   0  0  0  0  0  0  0  0  0  0  0  0
   11.2748  -17.6130   26.0010 S   0  0  0  0  0  0  0  0  0  0  0  0
   12.9651  -17.8799   23.4155 C   0  0  0  0  0  0  0  0  0  0  0  0
   14.3063  -17.5974   23.4905 O   0  0  0  0  0  0  0  0  0  0  0  0
   12.6538  -19.1077   23.2891 O   0  0  0  0  0  0  0  0  0  0  0  0
  1  2  1  0
  3  2  1  0
  3  4  1  6
  5  6  1  1
  5  3  1  0
  7  5  1  0
  8  7  2  0
  9  7  1  0
 10 11  1  6
 10  9  1  0
 11 12  1  0
 13 12  1  0
 13 14  1  0
 15 14  1  0
 16 10  1  0
 17 16  2  0
 18 16  1  0
 19 20  1  1
 19 18  1  0
 20 21  1  0
 22 19  1  0
 22 23  1  0
 24 22  2  0
M  END
$$$$
