IKC.pdb
     RDKit          3D

 24 23  0  0  1  0  0  0  0  0999 V2000
    6.5248  -12.0519   27.9920 C   0  0  0  0  0  0  0  0  0  0  0  0
    5.9255  -13.0400   27.0497 C   0  0  0  0  0  0  0  0  0  0  0  0
    6.9548  -13.7184   26.1620 C   0  0  2  0  0  0  0  0  0  0  0  0
    7.5675  -12.6485   25.2503 C   0  0  0  0  0  0  0  0  0  0  0  0
    6.1929  -14.6589   25.2570 C   0  0  2  0  0  0  0  0  0  0  0  0
    5.6717  -15.7421   26.0470 N   0  0  0  0  0  0  0  0  0  0  0  0
    7.0267  -15.2006   24.1736 C   0  0  0  0  0  0  0  0  0  0  0  0
    7.6095  -16.3160   24.3051 O   0  0  0  0  0  0  0  0  0  0  0  0
    7.1808  -14.4765   22.9794 N   0  0  0  0  0  0  0  0  0  0  0  0
    8.0195  -15.0616   21.8483 C   0  0  1  0  0  0  0  0  0  0  0  0
    7.7170  -14.2451   20.6648 C   0  0  0  0  0  0  0  0  0  0  0  0
    8.2359  -14.5125   19.3318 C   0  0  0  0  0  0  0  0  0  0  0  0
    7.8558  -13.6739   18.1778 C   0  0  0  0  0  0  0  0  0  0  0  0
    8.5580  -14.2708   16.9301 C   0  0  0  0  0  0  0  0  0  0  0  0
    8.2780  -13.3530   15.8439 N   0  0  0  0  0  0  0  0  0  0  0  0
    9.3613  -15.1368   22.3971 C   0  0  0  0  0  0  0  0  0  0  0  0
    9.6841  -14.2956   23.3177 O   0  0  0  0  0  0  0  0  0  0  0  0
   10.3851  -16.0403   22.0596 N   0  0  0  0  0  0  0  0  0  0  0  0
   11.6691  -16.0761   22.7288 C   0  0  1  0  0  0  0  0  0  0  0  0
   11.3040  -16.3609   24.2114 C   0  0  0  0  0  0  0  0  0  0  0  0
   12.8401  -16.6734   25.1047 S   0  0  0  0  0  0  0  0  0  0  0  0
   12.5749  -17.1091   22.2249 C   0  0  0  0  0  0  0  0  0  0  0  0
   12.2148  -18.0500   21.2925 O   0  0  0  0  0  0  0  0  0  0  0  0
   13.7718  -17.1697   22.6540 O   0  0  0  0  0  0  0  0  0  0  0  0
  1  2  1  0
  3  2  1  0
  3  4  1  6
  5  6  1  1
  5  3  1  0
  7  5  1  0
  8  7  2  0
  9  7  1  0
 10 11  1  6
 10  9  1  0
 11 12  1  0
 13 12  1  0
 13 14  1  0
 15 14  1  0
 16 10  1  0
 17 16  2  0
 18 16  1  0
 19 20  1  1
 19 18  1  0
 20 21  1  0
 22 19  1  0
 22 23  1  0
 24 22  2  0
M  END
$$$$
