IKC.pdb
     RDKit          3D

 24 23  0  0  1  0  0  0  0  0999 V2000
    6.8474  -11.9112   27.9288 C   0  0  0  0  0  0  0  0  0  0  0  0
    6.1944  -12.8650   26.9870 C   0  0  0  0  0  0  0  0  0  0  0  0
    7.1853  -13.6076   26.1069 C   0  0  2  0  0  0  0  0  0  0  0  0
    7.8676  -12.5796   25.1964 C   0  0  0  0  0  0  0  0  0  0  0  0
    6.3725  -14.5021   25.1996 C   0  0  2  0  0  0  0  0  0  0  0  0
    5.8614  -15.6035   25.9709 N   0  0  0  0  0  0  0  0  0  0  0  0
    7.1547  -15.0193   24.0669 C   0  0  0  0  0  0  0  0  0  0  0  0
    7.5910  -16.2071   24.0740 O   0  0  0  0  0  0  0  0  0  0  0  0
    7.4227  -14.1908   22.9643 N   0  0  0  0  0  0  0  0  0  0  0  0
    8.3035  -14.7077   21.8319 C   0  0  1  0  0  0  0  0  0  0  0  0
    8.1369  -13.7509   20.7293 C   0  0  0  0  0  0  0  0  0  0  0  0
    7.6857  -14.1118   19.3938 C   0  0  0  0  0  0  0  0  0  0  0  0
    8.5640  -13.9533   18.2179 C   0  0  0  0  0  0  0  0  0  0  0  0
    7.7380  -14.3700   16.9729 C   0  0  0  0  0  0  0  0  0  0  0  0
    8.6316  -14.2253   15.8410 N   0  0  0  0  0  0  0  0  0  0  0  0
    9.5953  -14.9323   22.4548 C   0  0  0  0  0  0  0  0  0  0  0  0
    9.9816  -14.0999   23.3587 O   0  0  0  0  0  0  0  0  0  0  0  0
   10.5057  -15.9756   22.2076 N   0  0  0  0  0  0  0  0  0  0  0  0
   11.4716  -16.4383   23.1827 C   0  0  1  0  0  0  0  0  0  0  0  0
   10.5931  -17.0037   24.3320 C   0  0  0  0  0  0  0  0  0  0  0  0
   11.6962  -17.7426   25.5536 S   0  0  0  0  0  0  0  0  0  0  0  0
   12.3746  -17.4749   22.6812 C   0  0  0  0  0  0  0  0  0  0  0  0
   13.6121  -17.7320   23.2168 O   0  0  0  0  0  0  0  0  0  0  0  0
   12.0268  -18.1976   21.6928 O   0  0  0  0  0  0  0  0  0  0  0  0
  1  2  1  0
  3  2  1  0
  3  4  1  6
  5  6  1  1
  5  3  1  0
  7  5  1  0
  8  7  2  0
  9  7  1  0
 10 11  1  6
 10  9  1  0
 11 12  1  0
 13 12  1  0
 13 14  1  0
 15 14  1  0
 16 10  1  0
 17 16  2  0
 18 16  1  0
 19 20  1  1
 19 18  1  0
 20 21  1  0
 22 19  1  0
 22 23  1  0
 24 22  2  0
M  END
$$$$
