IKC.pdb
     RDKit          3D

 24 23  0  0  1  0  0  0  0  0999 V2000
    6.4267  -11.4957   27.5907 C   0  0  0  0  0  0  0  0  0  0  0  0
    5.9562  -12.7457   26.9279 C   0  0  0  0  0  0  0  0  0  0  0  0
    7.0316  -13.4198   26.0930 C   0  0  2  0  0  0  0  0  0  0  0  0
    7.4340  -12.4514   24.9742 C   0  0  0  0  0  0  0  0  0  0  0  0
    6.3760  -14.6004   25.4145 C   0  0  2  0  0  0  0  0  0  0  0  0
    6.0251  -15.5736   26.4140 N   0  0  0  0  0  0  0  0  0  0  0  0
    7.2437  -15.2262   24.4056 C   0  0  0  0  0  0  0  0  0  0  0  0
    8.0062  -16.1865   24.7178 O   0  0  0  0  0  0  0  0  0  0  0  0
    7.2293  -14.7571   23.0813 N   0  0  0  0  0  0  0  0  0  0  0  0
    7.9921  -15.5214   22.0046 C   0  0  1  0  0  0  0  0  0  0  0  0
    7.4650  -15.0353   20.7221 C   0  0  0  0  0  0  0  0  0  0  0  0
    7.0957  -15.8975   19.6096 C   0  0  0  0  0  0  0  0  0  0  0  0
    7.5761  -17.2909   19.5262 C   0  0  0  0  0  0  0  0  0  0  0  0
    7.1714  -17.8293   18.1289 C   0  0  0  0  0  0  0  0  0  0  0  0
    7.8052  -19.1272   18.0083 N   0  0  0  0  0  0  0  0  0  0  0  0
    9.3882  -15.3538   22.3652 C   0  0  0  0  0  0  0  0  0  0  0  0
    9.7187  -14.2949   23.0201 O   0  0  0  0  0  0  0  0  0  0  0  0
   10.4610  -16.2239   22.1003 N   0  0  0  0  0  0  0  0  0  0  0  0
   11.6862  -16.2368   22.8726 C   0  0  1  0  0  0  0  0  0  0  0  0
   11.2097  -16.5635   24.3143 C   0  0  0  0  0  0  0  0  0  0  0  0
   12.6761  -16.8520   25.3250 S   0  0  0  0  0  0  0  0  0  0  0  0
   12.6616  -17.2320   22.4259 C   0  0  0  0  0  0  0  0  0  0  0  0
   13.9968  -17.1859   22.7414 O   0  0  0  0  0  0  0  0  0  0  0  0
   12.2870  -18.2091   21.7012 O   0  0  0  0  0  0  0  0  0  0  0  0
  1  2  1  0
  3  2  1  0
  3  4  1  6
  5  6  1  1
  5  3  1  0
  7  5  1  0
  8  7  2  0
  9  7  1  0
 10 11  1  6
 10  9  1  0
 11 12  1  0
 13 12  1  0
 13 14  1  0
 15 14  1  0
 16 10  1  0
 17 16  2  0
 18 16  1  0
 19 20  1  1
 19 18  1  0
 20 21  1  0
 22 19  1  0
 22 23  1  0
 24 22  2  0
M  END
$$$$
