IKC.pdb
     RDKit          3D

 24 23  0  0  1  0  0  0  0  0999 V2000
    5.9706  -11.0465   26.7556 C   0  0  0  0  0  0  0  0  0  0  0  0
    5.6157  -12.2956   26.0228 C   0  0  0  0  0  0  0  0  0  0  0  0
    6.7918  -13.2419   25.8517 C   0  0  2  0  0  0  0  0  0  0  0  0
    7.8207  -12.5541   24.9464 C   0  0  0  0  0  0  0  0  0  0  0  0
    6.2786  -14.4344   25.0781 C   0  0  2  0  0  0  0  0  0  0  0  0
    5.2490  -15.0789   25.8487 N   0  0  0  0  0  0  0  0  0  0  0  0
    7.3381  -15.4059   24.7681 C   0  0  0  0  0  0  0  0  0  0  0  0
    7.7173  -16.2448   25.6361 O   0  0  0  0  0  0  0  0  0  0  0  0
    7.9379  -15.4065   23.4975 N   0  0  0  0  0  0  0  0  0  0  0  0
    9.1161  -16.3347   23.2227 C   0  0  1  0  0  0  0  0  0  0  0  0
    9.3121  -16.3092   21.7668 C   0  0  0  0  0  0  0  0  0  0  0  0
   10.1791  -17.2257   21.0416 C   0  0  0  0  0  0  0  0  0  0  0  0
   10.0940  -18.6854   21.2446 C   0  0  0  0  0  0  0  0  0  0  0  0
   11.0158  -19.3468   20.1868 C   0  0  0  0  0  0  0  0  0  0  0  0
   10.9826  -20.7681   20.4691 N   0  0  0  0  0  0  0  0  0  0  0  0
   10.1498  -15.8842   24.1369 C   0  0  0  0  0  0  0  0  0  0  0  0
   10.4688  -14.6363   24.1184 O   0  0  0  0  0  0  0  0  0  0  0  0
   10.8639  -16.6460   25.0793 N   0  0  0  0  0  0  0  0  0  0  0  0
   11.5769  -16.0651   26.1982 C   0  0  1  0  0  0  0  0  0  0  0  0
   10.4842  -15.2605   26.9538 C   0  0  0  0  0  0  0  0  0  0  0  0
   11.2146  -14.6472   28.4853 S   0  0  0  0  0  0  0  0  0  0  0  0
   12.1869  -17.0502   27.0921 C   0  0  0  0  0  0  0  0  0  0  0  0
   11.8603  -18.3835   27.0937 O   0  0  0  0  0  0  0  0  0  0  0  0
   13.0734  -16.6859   27.9298 O   0  0  0  0  0  0  0  0  0  0  0  0
  1  2  1  0
  3  2  1  0
  3  4  1  6
  5  6  1  1
  5  3  1  0
  7  5  1  0
  8  7  2  0
  9  7  1  0
 10 11  1  6
 10  9  1  0
 11 12  1  0
 13 12  1  0
 13 14  1  0
 15 14  1  0
 16 10  1  0
 17 16  2  0
 18 16  1  0
 19 20  1  1
 19 18  1  0
 20 21  1  0
 22 19  1  0
 22 23  1  0
 24 22  2  0
M  END
$$$$
