IKC.pdb
     RDKit          3D

 24 23  0  0  1  0  0  0  0  0999 V2000
    7.8676  -12.2855   19.1386 C   0  0  0  0  0  0  0  0  0  0  0  0
    7.7836  -13.7613   19.3340 C   0  0  0  0  0  0  0  0  0  0  0  0
    7.7944  -14.1713   20.7967 C   0  0  2  0  0  0  0  0  0  0  0  0
    9.1220  -13.7049   21.4059 C   0  0  0  0  0  0  0  0  0  0  0  0
    7.8254  -15.6821   20.8224 C   0  0  2  0  0  0  0  0  0  0  0  0
    6.6001  -16.1807   20.2573 N   0  0  0  0  0  0  0  0  0  0  0  0
    7.9931  -16.2213   22.1801 C   0  0  0  0  0  0  0  0  0  0  0  0
    7.0461  -16.1647   23.0175 O   0  0  0  0  0  0  0  0  0  0  0  0
    9.2143  -16.8057   22.5557 N   0  0  0  0  0  0  0  0  0  0  0  0
    9.3452  -17.4577   23.9280 C   0  0  1  0  0  0  0  0  0  0  0  0
   10.1694  -18.6566   23.7223 C   0  0  0  0  0  0  0  0  0  0  0  0
   10.5811  -19.5591   24.7871 C   0  0  0  0  0  0  0  0  0  0  0  0
   11.3859  -20.7638   24.5036 C   0  0  0  0  0  0  0  0  0  0  0  0
   11.6303  -21.4775   25.8590 C   0  0  0  0  0  0  0  0  0  0  0  0
   11.0896  -22.8132   25.7038 N   0  0  0  0  0  0  0  0  0  0  0  0
    9.7761  -16.3793   24.7990 C   0  0  0  0  0  0  0  0  0  0  0  0
   10.6346  -15.5376   24.3368 O   0  0  0  0  0  0  0  0  0  0  0  0
    9.3608  -16.1120   26.1160 N   0  0  0  0  0  0  0  0  0  0  0  0
    9.9085  -15.0409   26.9225 C   0  0  1  0  0  0  0  0  0  0  0  0
    8.6639  -14.1939   27.3045 C   0  0  0  0  0  0  0  0  0  0  0  0
    9.1986  -12.9294   28.4751 S   0  0  0  0  0  0  0  0  0  0  0  0
   10.5982  -15.4970   28.1298 C   0  0  0  0  0  0  0  0  0  0  0  0
   11.4460  -14.7085   28.8673 O   0  0  0  0  0  0  0  0  0  0  0  0
   10.4273  -16.6867   28.5489 O   0  0  0  0  0  0  0  0  0  0  0  0
  1  2  1  0
  3  2  1  0
  3  4  1  6
  5  6  1  1
  5  3  1  0
  7  5  1  0
  8  7  2  0
  9  7  1  0
 10 11  1  6
 10  9  1  0
 11 12  1  0
 13 12  1  0
 13 14  1  0
 15 14  1  0
 16 10  1  0
 17 16  2  0
 18 16  1  0
 19 20  1  1
 19 18  1  0
 20 21  1  0
 22 19  1  0
 22 23  1  0
 24 22  2  0
M  END
$$$$
