IKC.pdb
     RDKit          3D

 24 23  0  0  1  0  0  0  0  0999 V2000
    7.5922  -11.9775   19.6473 C   0  0  0  0  0  0  0  0  0  0  0  0
    7.7230  -13.4558   19.7919 C   0  0  0  0  0  0  0  0  0  0  0  0
    7.7053  -13.9180   21.2389 C   0  0  2  0  0  0  0  0  0  0  0  0
    8.9274  -13.3132   21.9404 C   0  0  0  0  0  0  0  0  0  0  0  0
    7.9267  -15.4128   21.2184 C   0  0  2  0  0  0  0  0  0  0  0  0
    6.7907  -16.0414   20.5990 N   0  0  0  0  0  0  0  0  0  0  0  0
    8.1234  -15.9739   22.5633 C   0  0  0  0  0  0  0  0  0  0  0  0
    7.1395  -16.1451   23.3403 O   0  0  0  0  0  0  0  0  0  0  0  0
    9.4139  -16.3247   22.9940 N   0  0  0  0  0  0  0  0  0  0  0  0
    9.6051  -16.9303   24.3804 C   0  0  1  0  0  0  0  0  0  0  0  0
   10.5856  -18.0114   24.2110 C   0  0  0  0  0  0  0  0  0  0  0  0
   10.2785  -19.3118   23.6346 C   0  0  0  0  0  0  0  0  0  0  0  0
   11.3375  -20.3088   23.3821 C   0  0  0  0  0  0  0  0  0  0  0  0
   10.6379  -21.5992   22.8804 C   0  0  0  0  0  0  0  0  0  0  0  0
   11.7018  -22.5491   22.6227 N   0  0  0  0  0  0  0  0  0  0  0  0
    9.8719  -15.7895   25.2376 C   0  0  0  0  0  0  0  0  0  0  0  0
   10.8401  -15.0046   24.9125 O   0  0  0  0  0  0  0  0  0  0  0  0
    9.1872  -15.4048   26.4044 N   0  0  0  0  0  0  0  0  0  0  0  0
    9.6715  -14.3867   27.3137 C   0  0  1  0  0  0  0  0  0  0  0  0
    8.3932  -13.5867   27.6856 C   0  0  0  0  0  0  0  0  0  0  0  0
    7.6815  -12.9469   26.1562 S   0  0  0  0  0  0  0  0  0  0  0  0
   10.3032  -14.9186   28.5217 C   0  0  0  0  0  0  0  0  0  0  0  0
   10.8932  -14.1346   29.4817 O   0  0  0  0  0  0  0  0  0  0  0  0
   10.3269  -16.1747   28.7267 O   0  0  0  0  0  0  0  0  0  0  0  0
  1  2  1  0
  3  2  1  0
  3  4  1  1
  5  6  1  1
  5  3  1  0
  7  5  1  0
  8  7  2  0
  9  7  1  0
 10 11  1  6
 10  9  1  0
 11 12  1  0
 13 12  1  0
 13 14  1  0
 15 14  1  0
 16 10  1  0
 17 16  2  0
 18 16  1  0
 19 20  1  1
 19 18  1  0
 20 21  1  0
 22 19  1  0
 22 23  1  0
 24 22  2  0
M  END
$$$$
