IKC.pdb
     RDKit          3D

 24 23  0  0  1  0  0  0  0  0999 V2000
    5.7444  -10.8363   26.2401 C   0  0  0  0  0  0  0  0  0  0  0  0
    5.4722  -12.2385   25.8124 C   0  0  0  0  0  0  0  0  0  0  0  0
    6.7201  -13.1040   25.7745 C   0  0  2  0  0  0  0  0  0  0  0  0
    7.6787  -12.5017   24.7403 C   0  0  0  0  0  0  0  0  0  0  0  0
    6.2981  -14.4480   25.2272 C   0  0  2  0  0  0  0  0  0  0  0  0
    5.3243  -15.0251   26.1147 N   0  0  0  0  0  0  0  0  0  0  0  0
    7.4286  -15.3754   25.0716 C   0  0  0  0  0  0  0  0  0  0  0  0
    7.7991  -16.1072   26.0351 O   0  0  0  0  0  0  0  0  0  0  0  0
    8.1067  -15.4534   23.8435 N   0  0  0  0  0  0  0  0  0  0  0  0
    9.2131  -16.4865   23.6599 C   0  0  1  0  0  0  0  0  0  0  0  0
    9.4333  -16.5808   22.2102 C   0  0  0  0  0  0  0  0  0  0  0  0
   10.3727  -17.4985   21.5832 C   0  0  0  0  0  0  0  0  0  0  0  0
   10.5880  -17.4972   20.1228 C   0  0  0  0  0  0  0  0  0  0  0  0
   11.7110  -18.5256   19.8271 C   0  0  0  0  0  0  0  0  0  0  0  0
   11.9626  -18.4352   18.4026 N   0  0  0  0  0  0  0  0  0  0  0  0
   10.2644  -16.0520   24.5618 C   0  0  0  0  0  0  0  0  0  0  0  0
   10.4994  -14.7885   24.6493 O   0  0  0  0  0  0  0  0  0  0  0  0
   11.0781  -16.8466   25.3892 N   0  0  0  0  0  0  0  0  0  0  0  0
   11.6405  -16.3794   26.6395 C   0  0  1  0  0  0  0  0  0  0  0  0
   10.3969  -15.9521   27.4661 C   0  0  0  0  0  0  0  0  0  0  0  0
   10.9827  -15.3123   29.0481 S   0  0  0  0  0  0  0  0  0  0  0  0
   12.4043  -17.3948   27.3655 C   0  0  0  0  0  0  0  0  0  0  0  0
   13.5366  -17.1222   28.0920 O   0  0  0  0  0  0  0  0  0  0  0  0
   12.0275  -18.6105   27.3436 O   0  0  0  0  0  0  0  0  0  0  0  0
  1  2  1  0
  3  2  1  0
  3  4  1  6
  5  6  1  1
  5  3  1  0
  7  5  1  0
  8  7  2  0
  9  7  1  0
 10 11  1  6
 10  9  1  0
 11 12  1  0
 13 12  1  0
 13 14  1  0
 15 14  1  0
 16 10  1  0
 17 16  2  0
 18 16  1  0
 19 20  1  1
 19 18  1  0
 20 21  1  0
 22 19  1  0
 22 23  1  0
 24 22  2  0
M  END
$$$$
