IKC.pdb
     RDKit          3D

 24 23  0  0  1  0  0  0  0  0999 V2000
    7.7297  -12.0473   20.7647 C   0  0  0  0  0  0  0  0  0  0  0  0
    7.3597  -13.4826   20.9267 C   0  0  0  0  0  0  0  0  0  0  0  0
    8.3564  -14.4322   20.2842 C   0  0  2  0  0  0  0  0  0  0  0  0
    8.3158  -14.2015   18.7688 C   0  0  0  0  0  0  0  0  0  0  0  0
    7.8310  -15.8306   20.5129 C   0  0  2  0  0  0  0  0  0  0  0  0
    6.5130  -15.9295   19.9454 N   0  0  0  0  0  0  0  0  0  0  0  0
    7.7781  -16.1888   21.9382 C   0  0  0  0  0  0  0  0  0  0  0  0
    6.7282  -15.9867   22.6148 O   0  0  0  0  0  0  0  0  0  0  0  0
    8.9013  -16.7611   22.5587 N   0  0  0  0  0  0  0  0  0  0  0  0
    8.7941  -17.2585   23.9963 C   0  0  1  0  0  0  0  0  0  0  0  0
    9.1399  -18.6858   23.9506 C   0  0  0  0  0  0  0  0  0  0  0  0
    8.2252  -19.7364   23.5295 C   0  0  0  0  0  0  0  0  0  0  0  0
    7.9676  -20.9157   24.3793 C   0  0  0  0  0  0  0  0  0  0  0  0
    6.8908  -21.7693   23.6595 C   0  0  0  0  0  0  0  0  0  0  0  0
    6.6712  -22.9235   24.5082 N   0  0  0  0  0  0  0  0  0  0  0  0
    9.5799  -16.3102   24.7646 C   0  0  0  0  0  0  0  0  0  0  0  0
   10.0334  -15.2697   24.1555 O   0  0  0  0  0  0  0  0  0  0  0  0
    9.9129  -16.3675   26.1299 N   0  0  0  0  0  0  0  0  0  0  0  0
   10.1514  -15.1923   26.9422 C   0  0  1  0  0  0  0  0  0  0  0  0
    8.7893  -14.4463   26.9199 C   0  0  0  0  0  0  0  0  0  0  0  0
    8.9636  -12.9553   27.9207 S   0  0  0  0  0  0  0  0  0  0  0  0
   10.5411  -15.4900   28.3209 C   0  0  0  0  0  0  0  0  0  0  0  0
   10.2362  -16.6647   28.9625 O   0  0  0  0  0  0  0  0  0  0  0  0
   11.1998  -14.6341   28.9946 O   0  0  0  0  0  0  0  0  0  0  0  0
  1  2  1  0
  3  2  1  0
  3  4  1  6
  5  6  1  1
  5  3  1  0
  7  5  1  0
  8  7  2  0
  9  7  1  0
 10 11  1  6
 10  9  1  0
 11 12  1  0
 13 12  1  0
 13 14  1  0
 15 14  1  0
 16 10  1  0
 17 16  2  0
 18 16  1  0
 19 20  1  1
 19 18  1  0
 20 21  1  0
 22 19  1  0
 22 23  1  0
 24 22  2  0
M  END
$$$$
