IKC.pdb
     RDKit          3D

 24 23  0  0  1  0  0  0  0  0999 V2000
    7.5321  -11.7750   19.5891 C   0  0  0  0  0  0  0  0  0  0  0  0
    7.6716  -13.2585   19.5353 C   0  0  0  0  0  0  0  0  0  0  0  0
    7.6411  -13.9110   20.9068 C   0  0  2  0  0  0  0  0  0  0  0  0
    8.8790  -13.4397   21.6793 C   0  0  0  0  0  0  0  0  0  0  0  0
    7.8217  -15.3949   20.6841 C   0  0  2  0  0  0  0  0  0  0  0  0
    6.6776  -15.8997   19.9732 N   0  0  0  0  0  0  0  0  0  0  0  0
    7.9841  -16.1398   21.9415 C   0  0  0  0  0  0  0  0  0  0  0  0
    6.9970  -16.3303   22.7099 O   0  0  0  0  0  0  0  0  0  0  0  0
    9.2453  -16.6467   22.2975 N   0  0  0  0  0  0  0  0  0  0  0  0
    9.4326  -17.3091   23.6581 C   0  0  1  0  0  0  0  0  0  0  0  0
   10.3558  -18.4296   23.4318 C   0  0  0  0  0  0  0  0  0  0  0  0
   10.8570  -19.3021   24.4831 C   0  0  0  0  0  0  0  0  0  0  0  0
   11.8348  -20.3695   24.1934 C   0  0  0  0  0  0  0  0  0  0  0  0
   12.0462  -21.1629   25.5094 C   0  0  0  0  0  0  0  0  0  0  0  0
   12.8769  -22.2969   25.1564 N   0  0  0  0  0  0  0  0  0  0  0  0
    9.7710  -16.2134   24.5482 C   0  0  0  0  0  0  0  0  0  0  0  0
   10.5816  -15.3118   24.1132 O   0  0  0  0  0  0  0  0  0  0  0  0
    9.3093  -15.9877   25.8575 N   0  0  0  0  0  0  0  0  0  0  0  0
    9.7381  -14.8696   26.6722 C   0  0  1  0  0  0  0  0  0  0  0  0
    8.4236  -14.0901   26.9492 C   0  0  0  0  0  0  0  0  0  0  0  0
    8.8094  -12.7544   28.0991 S   0  0  0  0  0  0  0  0  0  0  0  0
   10.3692  -15.2591   27.9337 C   0  0  0  0  0  0  0  0  0  0  0  0
   11.1978  -14.4377   28.6570 O   0  0  0  0  0  0  0  0  0  0  0  0
   10.1617  -16.4180   28.4175 O   0  0  0  0  0  0  0  0  0  0  0  0
  1  2  1  0
  3  2  1  0
  3  4  1  1
  5  6  1  1
  5  3  1  0
  7  5  1  0
  8  7  2  0
  9  7  1  0
 10 11  1  6
 10  9  1  0
 11 12  1  0
 13 12  1  0
 13 14  1  0
 15 14  1  0
 16 10  1  0
 17 16  2  0
 18 16  1  0
 19 20  1  1
 19 18  1  0
 20 21  1  0
 22 19  1  0
 22 23  1  0
 24 22  2  0
M  END
$$$$
