IKC.pdb
     RDKit          3D

 24 23  0  0  1  0  0  0  0  0999 V2000
    6.8194  -11.5801   27.8698 C   0  0  0  0  0  0  0  0  0  0  0  0
    6.2293  -12.5288   26.8824 C   0  0  0  0  0  0  0  0  0  0  0  0
    7.2372  -13.5257   26.3366 C   0  0  2  0  0  0  0  0  0  0  0  0
    8.2958  -12.7420   25.5514 C   0  0  0  0  0  0  0  0  0  0  0  0
    6.5023  -14.3740   25.3244 C   0  0  2  0  0  0  0  0  0  0  0  0
    5.4657  -15.1079   25.9997 N   0  0  0  0  0  0  0  0  0  0  0  0
    7.3898  -15.3137   24.6232 C   0  0  0  0  0  0  0  0  0  0  0  0
    7.8058  -16.3599   25.2005 O   0  0  0  0  0  0  0  0  0  0  0  0
    7.7820  -15.0517   23.2997 N   0  0  0  0  0  0  0  0  0  0  0  0
    8.8092  -15.9560   22.6270 C   0  0  1  0  0  0  0  0  0  0  0  0
    8.6148  -15.7734   21.1821 C   0  0  0  0  0  0  0  0  0  0  0  0
    9.3607  -16.4907   20.1590 C   0  0  0  0  0  0  0  0  0  0  0  0
    8.7170  -17.5217   19.3211 C   0  0  0  0  0  0  0  0  0  0  0  0
    9.7786  -18.0057   18.2988 C   0  0  0  0  0  0  0  0  0  0  0  0
    9.0886  -18.9323   17.4235 N   0  0  0  0  0  0  0  0  0  0  0  0
   10.0641  -15.6184   23.2738 C   0  0  0  0  0  0  0  0  0  0  0  0
   10.0780  -14.6076   24.0723 O   0  0  0  0  0  0  0  0  0  0  0  0
   11.3032  -16.2732   23.1541 N   0  0  0  0  0  0  0  0  0  0  0  0
   12.0597  -16.7610   24.2887 C   0  0  1  0  0  0  0  0  0  0  0  0
   10.9948  -17.4832   25.1587 C   0  0  0  0  0  0  0  0  0  0  0  0
   10.8763  -16.5995   26.7272 S   0  0  0  0  0  0  0  0  0  0  0  0
   13.1346  -17.6885   23.9337 C   0  0  0  0  0  0  0  0  0  0  0  0
   14.4340  -17.5455   24.3524 O   0  0  0  0  0  0  0  0  0  0  0  0
   12.8877  -18.6955   23.1953 O   0  0  0  0  0  0  0  0  0  0  0  0
  1  2  1  0
  3  2  1  0
  3  4  1  6
  5  6  1  1
  5  3  1  0
  7  5  1  0
  8  7  2  0
  9  7  1  0
 10 11  1  6
 10  9  1  0
 11 12  1  0
 13 12  1  0
 13 14  1  0
 15 14  1  0
 16 10  1  0
 17 16  2  0
 18 16  1  0
 19 20  1  1
 19 18  1  0
 20 21  1  0
 22 19  1  0
 22 23  1  0
 24 22  2  0
M  END
$$$$
