IKC.pdb
     RDKit          3D

 24 23  0  0  1  0  0  0  0  0999 V2000
    7.0096  -11.0994   27.2094 C   0  0  0  0  0  0  0  0  0  0  0  0
    6.2777  -12.1823   26.4918 C   0  0  0  0  0  0  0  0  0  0  0  0
    7.1860  -13.3034   26.0167 C   0  0  2  0  0  0  0  0  0  0  0  0
    8.1737  -12.7110   25.0043 C   0  0  0  0  0  0  0  0  0  0  0  0
    6.3157  -14.2672   25.2437 C   0  0  2  0  0  0  0  0  0  0  0  0
    5.3610  -14.8550   26.1448 N   0  0  0  0  0  0  0  0  0  0  0  0
    7.0923  -15.3319   24.5911 C   0  0  0  0  0  0  0  0  0  0  0  0
    7.3890  -16.3900   25.2184 O   0  0  0  0  0  0  0  0  0  0  0  0
    7.5111  -15.1773   23.2589 N   0  0  0  0  0  0  0  0  0  0  0  0
    8.3486  -16.2696   22.6025 C   0  0  1  0  0  0  0  0  0  0  0  0
    8.2641  -16.0215   21.1568 C   0  0  0  0  0  0  0  0  0  0  0  0
    8.6968  -16.9660   20.1378 C   0  0  0  0  0  0  0  0  0  0  0  0
    9.9166  -16.7294   19.3405 C   0  0  0  0  0  0  0  0  0  0  0  0
   10.0028  -17.8686   18.2912 C   0  0  0  0  0  0  0  0  0  0  0  0
   11.1742  -17.5771   17.4890 N   0  0  0  0  0  0  0  0  0  0  0  0
    9.6160  -16.2244   23.3087 C   0  0  0  0  0  0  0  0  0  0  0  0
   10.1894  -15.0790   23.4455 O   0  0  0  0  0  0  0  0  0  0  0  0
   10.3192  -17.2926   23.8942 N   0  0  0  0  0  0  0  0  0  0  0  0
   11.5842  -17.1328   24.5812 C   0  0  1  0  0  0  0  0  0  0  0  0
   11.4419  -18.0429   25.8317 C   0  0  0  0  0  0  0  0  0  0  0  0
   11.5955  -16.9959   27.2930 S   0  0  0  0  0  0  0  0  0  0  0  0
   12.7469  -17.5394   23.7910 C   0  0  0  0  0  0  0  0  0  0  0  0
   14.0313  -17.1386   24.0629 O   0  0  0  0  0  0  0  0  0  0  0  0
   12.5964  -18.3067   22.7865 O   0  0  0  0  0  0  0  0  0  0  0  0
  1  2  1  0
  3  2  1  0
  3  4  1  6
  5  6  1  1
  5  3  1  0
  7  5  1  0
  8  7  2  0
  9  7  1  0
 10 11  1  6
 10  9  1  0
 11 12  1  0
 13 12  1  0
 13 14  1  0
 15 14  1  0
 16 10  1  0
 17 16  2  0
 18 16  1  0
 19 20  1  1
 19 18  1  0
 20 21  1  0
 22 19  1  0
 22 23  1  0
 24 22  2  0
M  END
$$$$
