IKC.pdb
     RDKit          3D

 24 23  0  0  1  0  0  0  0  0999 V2000
    6.6641  -11.3659   27.4712 C   0  0  0  0  0  0  0  0  0  0  0  0
    6.0771  -12.4746   26.6653 C   0  0  0  0  0  0  0  0  0  0  0  0
    7.1245  -13.4044   26.0771 C   0  0  2  0  0  0  0  0  0  0  0  0
    7.9460  -12.6034   25.0597 C   0  0  0  0  0  0  0  0  0  0  0  0
    6.3770  -14.4524   25.2852 C   0  0  2  0  0  0  0  0  0  0  0  0
    5.5322  -15.1956   26.1813 N   0  0  0  0  0  0  0  0  0  0  0  0
    7.2771  -15.3778   24.5810 C   0  0  0  0  0  0  0  0  0  0  0  0
    7.8822  -16.2930   25.2114 O   0  0  0  0  0  0  0  0  0  0  0  0
    7.4701  -15.2486   23.1953 N   0  0  0  0  0  0  0  0  0  0  0  0
    8.3079  -16.2842   22.4531 C   0  0  1  0  0  0  0  0  0  0  0  0
    8.1281  -15.9921   21.0244 C   0  0  0  0  0  0  0  0  0  0  0  0
    8.6900  -16.7943   19.9481 C   0  0  0  0  0  0  0  0  0  0  0  0
    8.3877  -18.2341   19.8258 C   0  0  0  0  0  0  0  0  0  0  0  0
    9.2051  -18.7703   18.6215 C   0  0  0  0  0  0  0  0  0  0  0  0
    8.9926  -20.2040   18.6084 N   0  0  0  0  0  0  0  0  0  0  0  0
    9.6125  -16.2118   23.0855 C   0  0  0  0  0  0  0  0  0  0  0  0
   10.2199  -15.0758   23.0862 O   0  0  0  0  0  0  0  0  0  0  0  0
   10.3206  -17.2423   23.7297 N   0  0  0  0  0  0  0  0  0  0  0  0
   11.7498  -17.2034   23.9612 C   0  0  1  0  0  0  0  0  0  0  0  0
   11.8727  -17.2130   25.5095 C   0  0  0  0  0  0  0  0  0  0  0  0
   10.6864  -18.4136   26.1469 S   0  0  0  0  0  0  0  0  0  0  0  0
   12.4769  -18.3379   23.3904 C   0  0  0  0  0  0  0  0  0  0  0  0
   13.8416  -18.4747   23.4464 O   0  0  0  0  0  0  0  0  0  0  0  0
   11.8407  -19.2689   22.7997 O   0  0  0  0  0  0  0  0  0  0  0  0
  1  2  1  0
  3  2  1  0
  3  4  1  6
  5  6  1  1
  5  3  1  0
  7  5  1  0
  8  7  2  0
  9  7  1  0
 10 11  1  6
 10  9  1  0
 11 12  1  0
 13 12  1  0
 13 14  1  0
 15 14  1  0
 16 10  1  0
 17 16  2  0
 18 16  1  0
 19 20  1  1
 19 18  1  0
 20 21  1  0
 22 19  1  0
 22 23  1  0
 24 22  2  0
M  END
$$$$
