DHM.pdb
     RDKit          3D

 27 27  0  0  1  0  0  0  0  0999 V2000
   25.8348  -22.5221  -18.1754 N   0  0  0  0  0  0  0  0  0  0  0  0
   25.6593  -22.9054  -16.7698 C   0  0  1  0  0  0  0  0  0  0  0  0
   24.6081  -21.9295  -16.2220 C   0  0  0  0  0  0  0  0  0  0  0  0
   25.2907  -20.6806  -15.8185 C   0  0  0  0  0  0  0  0  0  0  0  0
   26.5104  -20.5049  -15.9703 O   0  0  0  0  0  0  0  0  0  0  0  0
   25.0452  -24.2457  -16.6682 C   0  0  0  0  0  0  0  0  0  0  0  0
   24.0442  -24.5209  -17.3518 O   0  0  0  0  0  0  0  0  0  0  0  0
   24.5282  -19.6681  -15.2491 O   0  0  0  0  0  0  0  0  0  0  0  0
   25.5974  -25.2030  -15.7953 N   0  0  0  0  0  0  0  0  0  0  0  0
   24.9991  -26.5152  -15.6027 C   0  0  1  0  0  0  0  0  0  0  0  0
   26.0967  -27.4769  -15.2314 C   0  0  0  0  0  0  0  0  0  0  0  0
   26.8681  -27.9586  -16.4054 C   0  0  0  0  0  0  0  0  0  0  0  0
   26.6500  -27.7536  -17.7514 C   0  0  0  0  0  0  0  0  0  0  0  0
   27.5986  -28.3962  -18.4242 N   0  0  0  0  0  0  0  0  0  0  0  0
   28.4391  -29.0237  -17.5506 C   0  0  0  0  0  0  0  0  0  0  0  0
   27.9821  -28.7482  -16.3191 N   0  0  0  0  0  0  0  0  0  0  0  0
   23.9486  -26.4810  -14.5663 C   0  0  0  0  0  0  0  0  0  0  0  0
   24.0801  -25.7068  -13.5908 O   0  0  0  0  0  0  0  0  0  0  0  0
   20.7482  -22.7166  -12.9396 C   0  0  0  0  0  0  0  0  0  0  0  0
   19.3378  -23.8487  -12.9072 S   0  0  0  0  0  0  0  0  0  0  0  0
   20.0279  -25.5523  -12.7399 C   0  0  0  0  0  0  0  0  0  0  0  0
   21.1172  -25.7524  -13.7394 C   0  0  0  0  0  0  0  0  0  0  0  0
   21.7328  -27.1021  -13.6227 C   0  0  2  0  0  0  0  0  0  0  0  0
   22.7876  -27.2938  -14.6226 N   0  0  0  0  0  0  0  0  0  0  0  0
   20.7184  -28.1561  -13.9489 C   0  0  0  0  0  0  0  0  0  0  0  0
   20.4511  -28.4748  -15.1045 O   0  0  0  0  0  0  0  0  0  0  0  0
   20.0426  -28.8076  -12.9152 O   0  0  0  0  0  0  0  0  0  0  0  0
  2  1  1  6
  2  3  1  0
  3  4  1  0
  4  8  1  0
  5  4  2  0
  6  2  1  0
  7  6  2  0
  9  6  1  0
 10  9  1  0
 11 12  1  0
 10 11  1  1
 12 13  2  0
 14 13  1  0
 15 14  1  0
 16 15  2  0
 16 12  1  0
 17 18  2  0
 17 10  1  0
 20 19  1  0
 21 20  1  0
 23 22  1  6
 22 21  1  0
 23 24  1  0
 24 17  1  0
 25 23  1  0
 26 25  2  0
 27 25  1  0
M  END
$$$$
