DHM.pdb
     RDKit          3D

 27 27  0  0  1  0  0  0  0  0999 V2000
   27.3131  -19.0933  -16.8221 N   0  0  0  0  0  0  0  0  0  0  0  0
   26.8136  -20.2916  -16.1380 C   0  0  1  0  0  0  0  0  0  0  0  0
   28.0714  -21.0955  -15.7791 C   0  0  0  0  0  0  0  0  0  0  0  0
   28.5544  -21.7824  -16.9970 C   0  0  0  0  0  0  0  0  0  0  0  0
   29.7613  -21.9369  -17.2447 O   0  0  0  0  0  0  0  0  0  0  0  0
   26.1918  -19.9328  -14.8463 C   0  0  0  0  0  0  0  0  0  0  0  0
   26.6873  -19.0293  -14.1511 O   0  0  0  0  0  0  0  0  0  0  0  0
   27.6127  -22.2726  -17.8935 O   0  0  0  0  0  0  0  0  0  0  0  0
   25.0420  -20.6187  -14.4097 N   0  0  0  0  0  0  0  0  0  0  0  0
   24.3209  -20.2379  -13.2048 C   0  0  1  0  0  0  0  0  0  0  0  0
   22.9016  -20.7229  -13.3391 C   0  0  0  0  0  0  0  0  0  0  0  0
   22.0588  -20.3838  -12.1643 C   0  0  0  0  0  0  0  0  0  0  0  0
   22.3829  -19.7010  -11.0110 C   0  0  0  0  0  0  0  0  0  0  0  0
   21.3010  -19.6576  -10.2409 N   0  0  0  0  0  0  0  0  0  0  0  0
   20.2678  -20.2993  -10.8608 C   0  0  0  0  0  0  0  0  0  0  0  0
   20.7437  -20.7387  -12.0363 N   0  0  0  0  0  0  0  0  0  0  0  0
   24.9608  -20.7936  -11.9963 C   0  0  0  0  0  0  0  0  0  0  0  0
   25.3581  -21.9812  -12.0085 O   0  0  0  0  0  0  0  0  0  0  0  0
   29.0075  -19.6050   -5.4063 C   0  0  0  0  0  0  0  0  0  0  0  0
   28.1924  -18.8241   -6.8197 S   0  0  0  0  0  0  0  0  0  0  0  0
   27.3127  -20.1651   -7.7330 C   0  0  0  0  0  0  0  0  0  0  0  0
   26.6572  -19.5982   -8.9474 C   0  0  0  0  0  0  0  0  0  0  0  0
   25.8925  -20.6322   -9.6958 C   0  0  2  0  0  0  0  0  0  0  0  0
   25.1458  -20.0393  -10.8094 N   0  0  0  0  0  0  0  0  0  0  0  0
   24.8341  -21.2228   -8.8141 C   0  0  0  0  0  0  0  0  0  0  0  0
   23.6571  -20.8783   -8.8802 O   0  0  0  0  0  0  0  0  0  0  0  0
   25.1810  -22.1987   -7.8777 O   0  0  0  0  0  0  0  0  0  0  0  0
  2  1  1  1
  2  3  1  0
  3  4  1  0
  4  8  1  0
  5  4  2  0
  6  2  1  0
  7  6  2  0
  9  6  1  0
 10  9  1  0
 11 12  1  0
 10 11  1  6
 12 13  2  0
 14 13  1  0
 15 14  1  0
 16 15  2  0
 16 12  1  0
 17 18  2  0
 17 10  1  0
 20 19  1  0
 21 20  1  0
 23 22  1  1
 22 21  1  0
 23 24  1  0
 24 17  1  0
 25 23  1  0
 26 25  2  0
 27 25  1  0
M  END
$$$$
