DHM.pdb
     RDKit          3D

 27 27  0  0  1  0  0  0  0  0999 V2000
   27.3387  -22.8725  -17.1342 N   0  0  0  0  0  0  0  0  0  0  0  0
   25.9052  -23.1849  -17.1061 C   0  0  1  0  0  0  0  0  0  0  0  0
   25.7671  -24.3169  -16.0780 C   0  0  0  0  0  0  0  0  0  0  0  0
   26.2098  -25.5805  -16.7071 C   0  0  0  0  0  0  0  0  0  0  0  0
   26.6347  -25.6353  -17.8726 O   0  0  0  0  0  0  0  0  0  0  0  0
   25.1358  -22.0515  -16.5517 C   0  0  0  0  0  0  0  0  0  0  0  0
   25.5765  -21.4246  -15.5730 O   0  0  0  0  0  0  0  0  0  0  0  0
   26.1458  -26.7476  -15.9559 O   0  0  0  0  0  0  0  0  0  0  0  0
   23.9061  -21.6897  -17.1350 N   0  0  0  0  0  0  0  0  0  0  0  0
   23.0794  -20.6175  -16.6024 C   0  0  1  0  0  0  0  0  0  0  0  0
   22.1069  -20.2033  -17.6750 C   0  0  0  0  0  0  0  0  0  0  0  0
   21.2498  -19.0598  -17.2711 C   0  0  0  0  0  0  0  0  0  0  0  0
   21.2308  -18.3411  -16.0945 C   0  0  0  0  0  0  0  0  0  0  0  0
   20.2790  -17.4191  -16.1910 N   0  0  0  0  0  0  0  0  0  0  0  0
   19.6665  -17.5142  -17.4073 C   0  0  0  0  0  0  0  0  0  0  0  0
   20.2694  -18.5210  -18.0587 N   0  0  0  0  0  0  0  0  0  0  0  0
   22.3722  -21.0405  -15.3778 C   0  0  0  0  0  0  0  0  0  0  0  0
   21.8376  -22.1726  -15.3431 O   0  0  0  0  0  0  0  0  0  0  0  0
   22.1161  -20.8083   -7.5987 C   0  0  0  0  0  0  0  0  0  0  0  0
   22.7791  -20.0292   -9.0903 S   0  0  0  0  0  0  0  0  0  0  0  0
   21.9220  -20.8128  -10.5247 C   0  0  0  0  0  0  0  0  0  0  0  0
   22.4583  -20.2500  -11.7980 C   0  0  0  0  0  0  0  0  0  0  0  0
   21.7410  -20.7884  -12.9853 C   0  0  2  0  0  0  0  0  0  0  0  0
   22.2661  -20.2160  -14.2287 N   0  0  0  0  0  0  0  0  0  0  0  0
   20.3067  -20.3547  -12.9556 C   0  0  0  0  0  0  0  0  0  0  0  0
   19.9401  -19.2683  -13.3956 O   0  0  0  0  0  0  0  0  0  0  0  0
   19.3402  -21.2023  -12.4105 O   0  0  0  0  0  0  0  0  0  0  0  0
  2  1  1  1
  2  3  1  0
  3  4  1  0
  4  8  1  0
  5  4  2  0
  6  2  1  0
  7  6  2  0
  9  6  1  0
 10  9  1  0
 11 12  1  0
 10 11  1  6
 12 13  2  0
 14 13  1  0
 15 14  1  0
 16 15  2  0
 16 12  1  0
 17 18  2  0
 17 10  1  0
 20 19  1  0
 21 20  1  0
 23 22  1  1
 22 21  1  0
 23 24  1  0
 24 17  1  0
 25 23  1  0
 26 25  2  0
 27 25  1  0
M  END
$$$$
