DHM.pdb
     RDKit          3D

 27 27  0  0  1  0  0  0  0  0999 V2000
   17.8667   -1.5691  -11.1220 N   0  0  0  0  0  0  0  0  0  0  0  0
   17.9881   -2.6012  -10.0860 C   0  0  1  0  0  0  0  0  0  0  0  0
   16.7763   -2.3850   -9.1683 C   0  0  0  0  0  0  0  0  0  0  0  0
   17.1167   -1.3402   -8.1779 C   0  0  0  0  0  0  0  0  0  0  0  0
   18.2753   -1.1546   -7.7716 O   0  0  0  0  0  0  0  0  0  0  0  0
   17.8076   -3.9474  -10.6683 C   0  0  0  0  0  0  0  0  0  0  0  0
   17.1959   -4.0800  -11.7422 O   0  0  0  0  0  0  0  0  0  0  0  0
   16.0930   -0.5377   -7.6893 O   0  0  0  0  0  0  0  0  0  0  0  0
   18.3287   -5.0729  -10.0012 N   0  0  0  0  0  0  0  0  0  0  0  0
   18.2600   -6.4118  -10.5666 C   0  0  1  0  0  0  0  0  0  0  0  0
   19.6555   -6.9768  -10.5956 C   0  0  0  0  0  0  0  0  0  0  0  0
   20.4538   -6.4927  -11.7505 C   0  0  0  0  0  0  0  0  0  0  0  0
   20.6159   -7.0410  -13.0053 C   0  0  0  0  0  0  0  0  0  0  0  0
   21.4374   -6.2559  -13.6941 N   0  0  0  0  0  0  0  0  0  0  0  0
   21.8233   -5.2000  -12.9198 C   0  0  0  0  0  0  0  0  0  0  0  0
   21.2148   -5.3559  -11.7337 N   0  0  0  0  0  0  0  0  0  0  0  0
   17.3515   -7.2780   -9.7900 C   0  0  0  0  0  0  0  0  0  0  0  0
   17.3619   -7.2064   -8.5397 O   0  0  0  0  0  0  0  0  0  0  0  0
   11.0401   -8.7249   -6.5719 C   0  0  0  0  0  0  0  0  0  0  0  0
   12.1436   -7.7236   -7.5973 S   0  0  0  0  0  0  0  0  0  0  0  0
   13.4265   -8.8671   -8.2703 C   0  0  0  0  0  0  0  0  0  0  0  0
   14.4265   -8.0903   -9.0590 C   0  0  0  0  0  0  0  0  0  0  0  0
   15.5301   -8.9556   -9.5567 C   0  0  2  0  0  0  0  0  0  0  0  0
   16.4609   -8.1986  -10.3992 N   0  0  0  0  0  0  0  0  0  0  0  0
   14.9806  -10.0105  -10.4685 C   0  0  0  0  0  0  0  0  0  0  0  0
   14.4044  -11.0090  -10.0451 O   0  0  0  0  0  0  0  0  0  0  0  0
   15.1213   -9.8702  -11.8506 O   0  0  0  0  0  0  0  0  0  0  0  0
  2  1  1  6
  2  3  1  0
  3  4  1  0
  4  8  1  0
  5  4  2  0
  6  2  1  0
  7  6  2  0
  9  6  1  0
 10  9  1  0
 11 12  1  0
 10 11  1  1
 12 13  2  0
 14 13  1  0
 15 14  1  0
 16 15  2  0
 16 12  1  0
 17 18  2  0
 17 10  1  0
 20 19  1  0
 21 20  1  0
 23 22  1  6
 22 21  1  0
 23 24  1  0
 24 17  1  0
 25 23  1  0
 26 25  2  0
 27 25  1  0
M  END
$$$$
