DHM.pdb
     RDKit          3D

 27 27  0  0  1  0  0  0  0  0999 V2000
   26.9276  -23.0001  -16.7850 N   0  0  0  0  0  0  0  0  0  0  0  0
   28.2073  -22.4371  -16.3389 C   0  0  1  0  0  0  0  0  0  0  0  0
   28.7784  -21.7257  -17.5739 C   0  0  0  0  0  0  0  0  0  0  0  0
   28.5946  -22.6041  -18.7499 C   0  0  0  0  0  0  0  0  0  0  0  0
   28.4527  -22.1610  -19.9011 O   0  0  0  0  0  0  0  0  0  0  0  0
   27.9873  -21.3737  -15.3366 C   0  0  0  0  0  0  0  0  0  0  0  0
   28.9177  -20.6071  -15.0338 O   0  0  0  0  0  0  0  0  0  0  0  0
   28.5831  -23.9790  -18.5493 O   0  0  0  0  0  0  0  0  0  0  0  0
   26.7243  -21.2366  -14.7290 N   0  0  0  0  0  0  0  0  0  0  0  0
   26.4468  -20.2085  -13.7375 C   0  0  1  0  0  0  0  0  0  0  0  0
   25.2780  -19.3944  -14.2261 C   0  0  0  0  0  0  0  0  0  0  0  0
   25.6867  -18.2294  -15.0514 C   0  0  0  0  0  0  0  0  0  0  0  0
   26.9471  -17.7806  -15.3849 C   0  0  0  0  0  0  0  0  0  0  0  0
   26.8111  -16.6899  -16.1314 N   0  0  0  0  0  0  0  0  0  0  0  0
   25.4860  -16.4070  -16.2973 C   0  0  0  0  0  0  0  0  0  0  0  0
   24.8086  -17.3558  -15.6325 N   0  0  0  0  0  0  0  0  0  0  0  0
   26.1676  -20.7987  -12.4137 C   0  0  0  0  0  0  0  0  0  0  0  0
   25.6069  -21.9168  -12.3510 O   0  0  0  0  0  0  0  0  0  0  0  0
   28.7579  -19.9272   -6.1283 C   0  0  0  0  0  0  0  0  0  0  0  0
   26.9754  -19.6242   -6.0791 S   0  0  0  0  0  0  0  0  0  0  0  0
   26.2347  -20.5856   -7.4696 C   0  0  0  0  0  0  0  0  0  0  0  0
   26.7136  -20.0353   -8.7709 C   0  0  0  0  0  0  0  0  0  0  0  0
   26.1777  -20.8042   -9.9265 C   0  0  2  0  0  0  0  0  0  0  0  0
   26.5052  -20.1514  -11.1977 N   0  0  0  0  0  0  0  0  0  0  0  0
   24.6794  -20.8067   -9.8877 C   0  0  0  0  0  0  0  0  0  0  0  0
   24.0031  -20.0632  -10.5935 O   0  0  0  0  0  0  0  0  0  0  0  0
   24.0125  -21.6772   -9.0234 O   0  0  0  0  0  0  0  0  0  0  0  0
  2  1  1  6
  2  3  1  0
  3  4  1  0
  4  8  1  0
  5  4  2  0
  6  2  1  0
  7  6  2  0
  9  6  1  0
 10  9  1  0
 11 12  1  0
 10 11  1  6
 12 13  2  0
 14 13  1  0
 15 14  1  0
 16 15  2  0
 16 12  1  0
 17 18  2  0
 17 10  1  0
 20 19  1  0
 21 20  1  0
 23 22  1  1
 22 21  1  0
 23 24  1  0
 24 17  1  0
 25 23  1  0
 26 25  2  0
 27 25  1  0
M  END
$$$$
