DHM.pdb
     RDKit          3D

 27 27  0  0  1  0  0  0  0  0999 V2000
   28.0315  -20.7055  -16.8336 N   0  0  0  0  0  0  0  0  0  0  0  0
   26.7866  -21.3129  -16.3491 C   0  0  1  0  0  0  0  0  0  0  0  0
   27.2083  -22.6712  -15.7705 C   0  0  0  0  0  0  0  0  0  0  0  0
   27.8190  -23.4743  -16.8524 C   0  0  0  0  0  0  0  0  0  0  0  0
   28.2383  -24.6294  -16.6739 O   0  0  0  0  0  0  0  0  0  0  0  0
   26.2440  -20.5481  -15.2070 C   0  0  0  0  0  0  0  0  0  0  0  0
   26.5753  -19.3612  -15.0440 O   0  0  0  0  0  0  0  0  0  0  0  0
   27.9220  -22.9061  -18.1162 O   0  0  0  0  0  0  0  0  0  0  0  0
   25.3557  -21.1700  -14.3084 N   0  0  0  0  0  0  0  0  0  0  0  0
   24.6409  -20.4259  -13.2826 C   0  0  1  0  0  0  0  0  0  0  0  0
   23.1680  -20.5194  -13.5812 C   0  0  0  0  0  0  0  0  0  0  0  0
   22.7515  -19.6641  -14.7217 C   0  0  0  0  0  0  0  0  0  0  0  0
   22.0577  -19.9935  -15.8668 C   0  0  0  0  0  0  0  0  0  0  0  0
   21.9337  -18.8943  -16.6030 N   0  0  0  0  0  0  0  0  0  0  0  0
   22.5330  -17.8445  -15.9687 C   0  0  0  0  0  0  0  0  0  0  0  0
   23.0290  -18.3280  -14.8192 N   0  0  0  0  0  0  0  0  0  0  0  0
   24.9439  -20.9423  -11.9334 C   0  0  0  0  0  0  0  0  0  0  0  0
   24.6551  -22.1289  -11.6560 O   0  0  0  0  0  0  0  0  0  0  0  0
   27.8691  -19.8510   -4.6995 C   0  0  0  0  0  0  0  0  0  0  0  0
   27.6726  -19.1099   -6.3377 S   0  0  0  0  0  0  0  0  0  0  0  0
   26.7312  -20.3240   -7.3605 C   0  0  0  0  0  0  0  0  0  0  0  0
   26.6283  -19.8254   -8.7628 C   0  0  0  0  0  0  0  0  0  0  0  0
   25.8442  -20.7527   -9.6226 C   0  0  2  0  0  0  0  0  0  0  0  0
   25.5500  -20.1490  -10.9258 N   0  0  0  0  0  0  0  0  0  0  0  0
   24.4957  -20.9956   -9.0150 C   0  0  0  0  0  0  0  0  0  0  0  0
   23.4853  -20.4183   -9.4074 O   0  0  0  0  0  0  0  0  0  0  0  0
   24.3657  -21.9054   -7.9639 O   0  0  0  0  0  0  0  0  0  0  0  0
  2  1  1  1
  2  3  1  0
  3  4  1  0
  4  8  1  0
  5  4  2  0
  6  2  1  0
  7  6  2  0
  9  6  1  0
 10  9  1  0
 11 12  1  0
 10 11  1  6
 12 13  2  0
 14 13  1  0
 15 14  1  0
 16 15  2  0
 16 12  1  0
 17 18  2  0
 17 10  1  0
 20 19  1  0
 21 20  1  0
 23 22  1  1
 22 21  1  0
 23 24  1  0
 24 17  1  0
 25 23  1  0
 26 25  2  0
 27 25  1  0
M  END
$$$$
