DHM.pdb
     RDKit          3D

 27 27  0  0  1  0  0  0  0  0999 V2000
   26.6536  -22.1387  -16.8234 N   0  0  0  0  0  0  0  0  0  0  0  0
   25.2221  -22.4215  -16.6681 C   0  0  1  0  0  0  0  0  0  0  0  0
   25.1494  -23.5179  -15.5958 C   0  0  0  0  0  0  0  0  0  0  0  0
   25.5189  -24.8087  -16.2169 C   0  0  0  0  0  0  0  0  0  0  0  0
   25.8525  -24.9071  -17.4089 O   0  0  0  0  0  0  0  0  0  0  0  0
   24.5207  -21.2562  -16.0900 C   0  0  0  0  0  0  0  0  0  0  0  0
   25.1044  -20.5274  -15.2696 O   0  0  0  0  0  0  0  0  0  0  0  0
   25.4903  -25.9514  -15.4270 O   0  0  0  0  0  0  0  0  0  0  0  0
   23.1935  -20.9797  -16.4713 N   0  0  0  0  0  0  0  0  0  0  0  0
   22.4452  -19.8590  -15.9228 C   0  0  1  0  0  0  0  0  0  0  0  0
   21.7493  -19.1620  -17.0619 C   0  0  0  0  0  0  0  0  0  0  0  0
   22.5978  -18.1359  -17.7197 C   0  0  0  0  0  0  0  0  0  0  0  0
   23.8676  -17.7025  -17.4019 C   0  0  0  0  0  0  0  0  0  0  0  0
   24.2087  -16.7566  -18.2705 N   0  0  0  0  0  0  0  0  0  0  0  0
   23.1894  -16.5543  -19.1557 C   0  0  0  0  0  0  0  0  0  0  0  0
   22.2102  -17.4040  -18.8086 N   0  0  0  0  0  0  0  0  0  0  0  0
   21.4773  -20.3060  -14.9019 C   0  0  0  0  0  0  0  0  0  0  0  0
   20.8404  -21.3679  -15.0898 O   0  0  0  0  0  0  0  0  0  0  0  0
   22.5586  -20.0552   -8.8022 C   0  0  0  0  0  0  0  0  0  0  0  0
   20.7636  -20.1281   -8.5909 S   0  0  0  0  0  0  0  0  0  0  0  0
   20.0481  -20.4995  -10.2511 C   0  0  0  0  0  0  0  0  0  0  0  0
   20.8851  -19.8658  -11.3111 C   0  0  0  0  0  0  0  0  0  0  0  0
   20.3774  -20.1761  -12.6749 C   0  0  2  0  0  0  0  0  0  0  0  0
   21.2304  -19.5810  -13.7082 N   0  0  0  0  0  0  0  0  0  0  0  0
   19.0409  -19.5301  -12.8817 C   0  0  0  0  0  0  0  0  0  0  0  0
   18.9253  -18.3653  -13.2534 O   0  0  0  0  0  0  0  0  0  0  0  0
   17.8759  -20.2630  -12.6466 O   0  0  0  0  0  0  0  0  0  0  0  0
  2  1  1  1
  2  3  1  0
  3  4  1  0
  4  8  1  0
  5  4  2  0
  6  2  1  0
  7  6  2  0
  9  6  1  0
 10  9  1  0
 11 12  1  0
 10 11  1  6
 12 13  2  0
 14 13  1  0
 15 14  1  0
 16 15  2  0
 16 12  1  0
 17 18  2  0
 17 10  1  0
 20 19  1  0
 21 20  1  0
 23 22  1  1
 22 21  1  0
 23 24  1  0
 24 17  1  0
 25 23  1  0
 26 25  2  0
 27 25  1  0
M  END
$$$$
