DHM.pdb
     RDKit          3D

 27 27  0  0  1  0  0  0  0  0999 V2000
   21.8137  -24.3122  -17.4654 N   0  0  0  0  0  0  0  0  0  0  0  0
   20.3934  -24.5795  -17.2111 C   0  0  1  0  0  0  0  0  0  0  0  0
   20.3421  -26.0447  -16.7548 C   0  0  0  0  0  0  0  0  0  0  0  0
   20.4320  -26.9128  -17.9492 C   0  0  0  0  0  0  0  0  0  0  0  0
   20.6210  -28.1377  -17.8740 O   0  0  0  0  0  0  0  0  0  0  0  0
   19.9130  -23.7895  -16.0583 C   0  0  0  0  0  0  0  0  0  0  0  0
   19.6698  -24.3556  -14.9787 O   0  0  0  0  0  0  0  0  0  0  0  0
   20.2968  -26.3258  -19.2013 O   0  0  0  0  0  0  0  0  0  0  0  0
   19.7317  -22.3992  -16.1908 N   0  0  0  0  0  0  0  0  0  0  0  0
   19.2638  -21.5686  -15.0917 C   0  0  1  0  0  0  0  0  0  0  0  0
   19.6840  -20.1495  -15.3694 C   0  0  0  0  0  0  0  0  0  0  0  0
   21.1367  -19.9229  -15.1603 C   0  0  0  0  0  0  0  0  0  0  0  0
   22.1084  -20.7846  -14.6970 C   0  0  0  0  0  0  0  0  0  0  0  0
   23.2620  -20.1259  -14.6674 N   0  0  0  0  0  0  0  0  0  0  0  0
   23.0729  -18.8451  -15.1004 C   0  0  0  0  0  0  0  0  0  0  0  0
   21.7692  -18.7335  -15.3992 N   0  0  0  0  0  0  0  0  0  0  0  0
   17.8002  -21.6675  -14.9274 C   0  0  0  0  0  0  0  0  0  0  0  0
   17.0740  -21.7090  -15.9469 O   0  0  0  0  0  0  0  0  0  0  0  0
   14.0592  -25.1440  -11.1107 C   0  0  0  0  0  0  0  0  0  0  0  0
   13.2110  -23.5608  -10.8960 S   0  0  0  0  0  0  0  0  0  0  0  0
   13.7444  -22.4789  -12.2929 C   0  0  0  0  0  0  0  0  0  0  0  0
   15.2305  -22.5171  -12.4176 C   0  0  0  0  0  0  0  0  0  0  0  0
   15.7074  -21.7268  -13.5848 C   0  0  2  0  0  0  0  0  0  0  0  0
   17.1716  -21.7152  -13.6568 N   0  0  0  0  0  0  0  0  0  0  0  0
   15.3344  -20.2854  -13.4124 C   0  0  0  0  0  0  0  0  0  0  0  0
   16.0714  -19.4792  -12.8509 O   0  0  0  0  0  0  0  0  0  0  0  0
   14.1091  -19.8261  -13.8995 O   0  0  0  0  0  0  0  0  0  0  0  0
  2  1  1  1
  2  3  1  0
  3  4  1  0
  4  8  1  0
  5  4  2  0
  6  2  1  0
  7  6  2  0
  9  6  1  0
 10  9  1  0
 11 12  1  0
 10 11  1  6
 12 13  2  0
 14 13  1  0
 15 14  1  0
 16 15  2  0
 16 12  1  0
 17 18  2  0
 17 10  1  0
 20 19  1  0
 21 20  1  0
 23 22  1  1
 22 21  1  0
 23 24  1  0
 24 17  1  0
 25 23  1  0
 26 25  2  0
 27 25  1  0
M  END
$$$$
