DHM.pdb
     RDKit          3D

 27 27  0  0  1  0  0  0  0  0999 V2000
   20.3841   -5.1191  -18.2102 N   0  0  0  0  0  0  0  0  0  0  0  0
   20.5128   -4.6926  -16.8120 C   0  0  1  0  0  0  0  0  0  0  0  0
   19.8849   -3.2922  -16.7661 C   0  0  0  0  0  0  0  0  0  0  0  0
   20.8152   -2.3382  -17.4085 C   0  0  0  0  0  0  0  0  0  0  0  0
   21.9235   -2.6795  -17.8523 O   0  0  0  0  0  0  0  0  0  0  0  0
   19.6725   -5.5315  -15.9321 C   0  0  0  0  0  0  0  0  0  0  0  0
   18.7331   -6.1867  -16.4150 O   0  0  0  0  0  0  0  0  0  0  0  0
   20.4243   -1.0093  -17.5169 O   0  0  0  0  0  0  0  0  0  0  0  0
   19.9405   -5.5818  -14.5505 N   0  0  0  0  0  0  0  0  0  0  0  0
   19.1566   -6.3985  -13.6364 C   0  0  1  0  0  0  0  0  0  0  0  0
   19.9278   -7.6629  -13.3641 C   0  0  0  0  0  0  0  0  0  0  0  0
   19.2142   -8.5931  -12.4526 C   0  0  0  0  0  0  0  0  0  0  0  0
   18.0999   -9.3728  -12.6801 C   0  0  0  0  0  0  0  0  0  0  0  0
   17.8206  -10.0280  -11.5584 N   0  0  0  0  0  0  0  0  0  0  0  0
   18.7267   -9.6963  -10.5928 C   0  0  0  0  0  0  0  0  0  0  0  0
   19.5739   -8.8184  -11.1520 N   0  0  0  0  0  0  0  0  0  0  0  0
   18.8633   -5.6743  -12.3841 C   0  0  0  0  0  0  0  0  0  0  0  0
   19.7676   -4.9939  -11.8475 O   0  0  0  0  0  0  0  0  0  0  0  0
   13.7275   -2.2912   -7.5512 C   0  0  0  0  0  0  0  0  0  0  0  0
   13.9618   -3.1330   -9.1349 S   0  0  0  0  0  0  0  0  0  0  0  0
   15.7088   -3.7275   -9.1671 C   0  0  0  0  0  0  0  0  0  0  0  0
   15.9579   -4.4840  -10.4285 C   0  0  0  0  0  0  0  0  0  0  0  0
   17.3751   -4.9242  -10.5378 C   0  0  2  0  0  0  0  0  0  0  0  0
   17.5941   -5.7155  -11.7524 N   0  0  0  0  0  0  0  0  0  0  0  0
   17.7054   -5.8653   -9.4191 C   0  0  0  0  0  0  0  0  0  0  0  0
   17.6762   -7.0853   -9.5572 O   0  0  0  0  0  0  0  0  0  0  0  0
   18.0591   -5.3544   -8.1687 O   0  0  0  0  0  0  0  0  0  0  0  0
  2  1  1  6
  2  3  1  0
  3  4  1  0
  4  8  1  0
  5  4  2  0
  6  2  1  0
  7  6  2  0
  9  6  1  0
 10  9  1  0
 11 12  1  0
 10 11  1  1
 12 13  2  0
 14 13  1  0
 15 14  1  0
 16 15  2  0
 16 12  1  0
 17 18  2  0
 17 10  1  0
 20 19  1  0
 21 20  1  0
 23 22  1  1
 22 21  1  0
 23 24  1  0
 24 17  1  0
 25 23  1  0
 26 25  2  0
 27 25  1  0
M  END
$$$$
