DHM.pdb
     RDKit          3D

 27 27  0  0  1  0  0  0  0  0999 V2000
   28.7595  -26.7927  -17.5324 N   0  0  0  0  0  0  0  0  0  0  0  0
   27.4805  -27.4934  -17.3692 C   0  0  1  0  0  0  0  0  0  0  0  0
   27.8356  -28.8024  -16.6496 C   0  0  0  0  0  0  0  0  0  0  0  0
   27.9905  -29.8692  -17.6628 C   0  0  0  0  0  0  0  0  0  0  0  0
   27.2575  -29.9559  -18.6613 O   0  0  0  0  0  0  0  0  0  0  0  0
   26.5986  -26.7577  -16.4392 C   0  0  0  0  0  0  0  0  0  0  0  0
   27.0544  -26.3240  -15.3672 O   0  0  0  0  0  0  0  0  0  0  0  0
   29.0003  -30.8064  -17.4827 O   0  0  0  0  0  0  0  0  0  0  0  0
   25.2456  -26.5543  -16.7728 N   0  0  0  0  0  0  0  0  0  0  0  0
   24.3599  -25.7347  -15.9599 C   0  0  1  0  0  0  0  0  0  0  0  0
   23.9703  -24.5265  -16.7698 C   0  0  0  0  0  0  0  0  0  0  0  0
   24.8738  -23.3677  -16.5548 C   0  0  0  0  0  0  0  0  0  0  0  0
   25.9824  -23.2493  -15.7434 C   0  0  0  0  0  0  0  0  0  0  0  0
   26.4568  -22.0150  -15.8729 N   0  0  0  0  0  0  0  0  0  0  0  0
   25.6835  -21.3136  -16.7524 C   0  0  0  0  0  0  0  0  0  0  0  0
   24.7190  -22.1519  -17.1628 N   0  0  0  0  0  0  0  0  0  0  0  0
   23.1690  -26.4931  -15.5294 C   0  0  0  0  0  0  0  0  0  0  0  0
   22.5982  -27.2483  -16.3494 O   0  0  0  0  0  0  0  0  0  0  0  0
   22.0837  -29.7302  -10.1535 C   0  0  0  0  0  0  0  0  0  0  0  0
   20.4499  -28.9677  -10.2989 S   0  0  0  0  0  0  0  0  0  0  0  0
   20.2863  -28.3912  -12.0445 C   0  0  0  0  0  0  0  0  0  0  0  0
   21.4991  -27.6135  -12.4315 C   0  0  0  0  0  0  0  0  0  0  0  0
   21.4686  -27.2202  -13.8663 C   0  0  2  0  0  0  0  0  0  0  0  0
   22.6339  -26.4036  -14.2189 N   0  0  0  0  0  0  0  0  0  0  0  0
   20.2964  -26.3228  -14.1251 C   0  0  0  0  0  0  0  0  0  0  0  0
   20.3696  -25.1011  -14.0223 O   0  0  0  0  0  0  0  0  0  0  0  0
   19.0700  -26.8782  -14.4952 O   0  0  0  0  0  0  0  0  0  0  0  0
  2  1  1  1
  2  3  1  0
  3  4  1  0
  4  8  1  0
  5  4  2  0
  6  2  1  0
  7  6  2  0
  9  6  1  0
 10  9  1  0
 11 12  1  0
 10 11  1  6
 12 13  2  0
 14 13  1  0
 15 14  1  0
 16 15  2  0
 16 12  1  0
 17 18  2  0
 17 10  1  0
 20 19  1  0
 21 20  1  0
 23 22  1  1
 22 21  1  0
 23 24  1  0
 24 17  1  0
 25 23  1  0
 26 25  2  0
 27 25  1  0
M  END
$$$$
