DHM.pdb
     RDKit          3D

 27 27  0  0  1  0  0  0  0  0999 V2000
   14.0831  -14.5419    4.7047 N   0  0  0  0  0  0  0  0  0  0  0  0
   14.6661  -15.2547    5.8473 C   0  0  1  0  0  0  0  0  0  0  0  0
   13.8535  -16.5525    5.9603 C   0  0  0  0  0  0  0  0  0  0  0  0
   12.6594  -16.2890    6.7928 C   0  0  0  0  0  0  0  0  0  0  0  0
   12.6708  -15.4959    7.7481 O   0  0  0  0  0  0  0  0  0  0  0  0
   16.0491  -15.6793    5.5456 C   0  0  0  0  0  0  0  0  0  0  0  0
   16.3368  -16.0859    4.4068 O   0  0  0  0  0  0  0  0  0  0  0  0
   11.4816  -16.9589    6.4851 O   0  0  0  0  0  0  0  0  0  0  0  0
   17.0327  -15.6223    6.5518 N   0  0  0  0  0  0  0  0  0  0  0  0
   18.4070  -16.0395    6.3192 C   0  0  1  0  0  0  0  0  0  0  0  0
   19.3108  -15.1156    7.0919 C   0  0  0  0  0  0  0  0  0  0  0  0
   19.6269  -13.8643    6.3572 C   0  0  0  0  0  0  0  0  0  0  0  0
   19.2144  -13.4423    5.1110 C   0  0  0  0  0  0  0  0  0  0  0  0
   19.7700  -12.2592    4.8727 N   0  0  0  0  0  0  0  0  0  0  0  0
   20.5433  -11.8904    5.9355 C   0  0  0  0  0  0  0  0  0  0  0  0
   20.4472  -12.8801    6.8369 N   0  0  0  0  0  0  0  0  0  0  0  0
   18.6175  -17.4452    6.7171 C   0  0  0  0  0  0  0  0  0  0  0  0
   18.0099  -17.8932    7.7165 O   0  0  0  0  0  0  0  0  0  0  0  0
   20.4375  -24.7905    4.7787 C   0  0  0  0  0  0  0  0  0  0  0  0
   20.2041  -23.0977    4.1854 S   0  0  0  0  0  0  0  0  0  0  0  0
   19.9558  -22.0412    5.6782 C   0  0  0  0  0  0  0  0  0  0  0  0
   19.7528  -20.6233    5.2609 C   0  0  0  0  0  0  0  0  0  0  0  0
   19.5752  -19.7229    6.4321 C   0  0  2  0  0  0  0  0  0  0  0  0
   19.4862  -18.3200    6.0158 N   0  0  0  0  0  0  0  0  0  0  0  0
   20.7931  -19.7730    7.3042 C   0  0  0  0  0  0  0  0  0  0  0  0
   21.6621  -18.9058    7.2687 O   0  0  0  0  0  0  0  0  0  0  0  0
   20.9628  -20.8365    8.1928 O   0  0  0  0  0  0  0  0  0  0  0  0
  2  1  1  6
  2  3  1  0
  3  4  1  0
  4  8  1  0
  5  4  2  0
  6  2  1  0
  7  6  2  0
  9  6  1  0
 10  9  1  0
 11 12  1  0
 10 11  1  1
 12 13  2  0
 14 13  1  0
 15 14  1  0
 16 15  2  0
 16 12  1  0
 17 18  2  0
 17 10  1  0
 20 19  1  0
 21 20  1  0
 23 22  1  6
 22 21  1  0
 23 24  1  0
 24 17  1  0
 25 23  1  0
 26 25  2  0
 27 25  1  0
M  END
$$$$
