QKE.pdb
     RDKit          3D

 28 27  0  0  1  0  0  0  0  0999 V2000
    6.9024  -12.3535   18.0640 N   0  0  0  0  0  0  0  0  0  0  0  0
    7.6735  -13.0572   17.1164 C   0  0  0  0  0  0  0  0  0  0  0  0
    7.3330  -13.1032   15.9183 O   0  0  0  0  0  0  0  0  0  0  0  0
    8.9090  -13.7562   17.5404 C   0  0  0  0  0  0  0  0  0  0  0  0
    9.1210  -13.5929   19.0306 C   0  0  0  0  0  0  0  0  0  0  0  0
   10.3622  -14.3444   19.4442 C   0  0  2  0  0  0  0  0  0  0  0  0
   10.7358  -15.1706   18.3112 N   0  0  0  0  0  0  0  0  0  0  0  0
   10.1499  -15.1643   20.6576 C   0  0  0  0  0  0  0  0  0  0  0  0
    9.7772  -14.5715   21.6998 O   0  0  0  0  0  0  0  0  0  0  0  0
   10.3541  -16.5658   20.6597 N   0  0  0  0  0  0  0  0  0  0  0  0
   10.2965  -17.3664   21.9060 C   0  0  1  0  0  0  0  0  0  0  0  0
    9.3830  -18.5503   21.6688 C   0  0  0  0  0  0  0  0  0  0  0  0
    7.9430  -18.2250   21.4942 C   0  0  0  0  0  0  0  0  0  0  0  0
    7.1174  -19.4516   21.1389 C   0  0  0  0  0  0  0  0  0  0  0  0
    5.6652  -19.1211   20.9232 C   0  0  0  0  0  0  0  0  0  0  0  0
    4.8981  -20.2514   20.4542 N   0  0  0  0  0  0  0  0  0  0  0  0
   11.6763  -17.7232   22.2693 C   0  0  0  0  0  0  0  0  0  0  0  0
   12.2868  -18.6231   21.5879 O   0  0  0  0  0  0  0  0  0  0  0  0
   12.4379  -17.1679   23.3168 N   0  0  0  0  0  0  0  0  0  0  0  0
   13.7214  -17.7103   23.7654 C   0  0  1  0  0  0  0  0  0  0  0  0
   14.8720  -17.0513   23.0785 C   0  0  0  0  0  0  0  0  0  0  0  0
   14.6034  -15.6951   22.5269 C   0  0  0  0  0  0  0  0  0  0  0  0
   15.7337  -15.0749   21.8045 C   0  0  0  0  0  0  0  0  0  0  0  0
   16.5601  -14.2818   22.3076 O   0  0  0  0  0  0  0  0  0  0  0  0
   13.8921  -17.5668   25.2159 C   0  0  0  0  0  0  0  0  0  0  0  0
   13.0719  -16.8782   25.8703 O   0  0  0  0  0  0  0  0  0  0  0  0
   15.8849  -15.4020   20.4640 O   0  0  0  0  0  0  0  0  0  0  0  0
   14.9313  -18.1648   25.9072 O   0  0  0  0  0  0  0  0  0  0  0  0
  1  2  1  0
  2  4  1  0
  2  3  2  0
  4  5  1  0
  5  6  1  0
  6  8  1  0
  6  7  1  6
  8  9  2  0
 10  8  1  0
 10 11  1  0
 11 12  1  6
 13 12  1  0
 14 15  1  0
 14 13  1  0
 16 15  1  0
 17 11  1  0
 17 18  2  0
 19 17  1  0
 20 25  1  0
 20 19  1  0
 20 21  1  6
 22 21  1  0
 23 22  1  0
 23 24  2  0
 25 28  1  0
 26 25  2  0
 27 23  1  0
M  END
$$$$
