QKE.pdb
     RDKit          3D

 28 27  0  0  1  0  0  0  0  0999 V2000
    8.0337  -14.7854   16.3259 N   0  0  0  0  0  0  0  0  0  0  0  0
    8.4943  -13.6518   17.0264 C   0  0  0  0  0  0  0  0  0  0  0  0
    9.2292  -12.8103   16.4737 O   0  0  0  0  0  0  0  0  0  0  0  0
    8.1049  -13.4479   18.4412 C   0  0  0  0  0  0  0  0  0  0  0  0
    7.2211  -14.5832   18.9126 C   0  0  0  0  0  0  0  0  0  0  0  0
    8.0393  -15.5427   19.7411 C   0  0  2  0  0  0  0  0  0  0  0  0
    7.1956  -16.6992   19.9785 N   0  0  0  0  0  0  0  0  0  0  0  0
    8.4968  -14.9436   21.0144 C   0  0  0  0  0  0  0  0  0  0  0  0
    9.6724  -14.5050   21.0593 O   0  0  0  0  0  0  0  0  0  0  0  0
    7.6527  -14.8598   22.1487 N   0  0  0  0  0  0  0  0  0  0  0  0
    8.1287  -14.3192   23.4443 C   0  0  1  0  0  0  0  0  0  0  0  0
    6.9678  -13.6265   24.1259 C   0  0  0  0  0  0  0  0  0  0  0  0
    7.2323  -13.1367   25.5043 C   0  0  0  0  0  0  0  0  0  0  0  0
    6.0584  -12.3521   26.0689 C   0  0  0  0  0  0  0  0  0  0  0  0
    6.3132  -11.8714   27.4720 C   0  0  0  0  0  0  0  0  0  0  0  0
    5.1670  -11.2135   28.0545 N   0  0  0  0  0  0  0  0  0  0  0  0
    8.7060  -15.4364   24.2070 C   0  0  0  0  0  0  0  0  0  0  0  0
    8.0197  -16.5110   24.3532 O   0  0  0  0  0  0  0  0  0  0  0  0
    9.9760  -15.4680   24.8167 N   0  0  0  0  0  0  0  0  0  0  0  0
   10.5696  -16.6733   25.3980 C   0  0  1  0  0  0  0  0  0  0  0  0
   12.0015  -16.8308   25.0045 C   0  0  0  0  0  0  0  0  0  0  0  0
   12.6705  -18.0704   25.4860 C   0  0  0  0  0  0  0  0  0  0  0  0
   14.0736  -18.2364   25.0530 C   0  0  0  0  0  0  0  0  0  0  0  0
   14.7364  -17.3846   24.4202 O   0  0  0  0  0  0  0  0  0  0  0  0
   10.4800  -16.6680   26.8627 C   0  0  0  0  0  0  0  0  0  0  0  0
   10.7232  -17.7206   27.5014 O   0  0  0  0  0  0  0  0  0  0  0  0
   14.6995  -19.4323   25.3769 O   0  0  0  0  0  0  0  0  0  0  0  0
   10.1347  -15.5387   27.5845 O   0  0  0  0  0  0  0  0  0  0  0  0
  1  2  1  0
  2  4  1  0
  2  3  2  0
  4  5  1  0
  5  6  1  0
  6  8  1  0
  6  7  1  1
  8  9  2  0
 10  8  1  0
 10 11  1  0
 11 12  1  1
 13 12  1  0
 14 15  1  0
 14 13  1  0
 16 15  1  0
 17 11  1  0
 17 18  2  0
 19 17  1  0
 20 25  1  0
 20 19  1  0
 20 21  1  1
 22 21  1  0
 23 22  1  0
 23 24  2  0
 25 28  1  0
 26 25  2  0
 27 23  1  0
M  END
$$$$
