QKE.pdb
     RDKit          3D

 28 27  0  0  1  0  0  0  0  0999 V2000
    7.6048  -18.3811   17.6496 N   0  0  0  0  0  0  0  0  0  0  0  0
    7.9876  -17.1508   17.0773 C   0  0  0  0  0  0  0  0  0  0  0  0
    8.7395  -17.1109   16.0841 O   0  0  0  0  0  0  0  0  0  0  0  0
    7.4943  -15.8800   17.6575 C   0  0  0  0  0  0  0  0  0  0  0  0
    8.3265  -15.4933   18.8618 C   0  0  0  0  0  0  0  0  0  0  0  0
    7.7242  -14.2737   19.5147 C   0  0  2  0  0  0  0  0  0  0  0  0
    8.0611  -13.1471   18.6645 N   0  0  0  0  0  0  0  0  0  0  0  0
    8.2169  -14.0688   20.8949 C   0  0  0  0  0  0  0  0  0  0  0  0
    9.4525  -13.9108   21.0518 O   0  0  0  0  0  0  0  0  0  0  0  0
    7.3409  -14.0483   22.0076 N   0  0  0  0  0  0  0  0  0  0  0  0
    7.8408  -13.9513   23.3997 C   0  0  1  0  0  0  0  0  0  0  0  0
    6.7290  -13.4000   24.2670 C   0  0  0  0  0  0  0  0  0  0  0  0
    7.0512  -13.2597   25.7114 C   0  0  0  0  0  0  0  0  0  0  0  0
    5.8698  -12.7380   26.5142 C   0  0  0  0  0  0  0  0  0  0  0  0
    6.2304  -12.4609   27.9488 C   0  0  0  0  0  0  0  0  0  0  0  0
    6.4507  -11.0574   28.2088 N   0  0  0  0  0  0  0  0  0  0  0  0
    8.3186  -15.2851   23.7945 C   0  0  0  0  0  0  0  0  0  0  0  0
    7.5080  -16.2785   23.7391 O   0  0  0  0  0  0  0  0  0  0  0  0
    9.6144  -15.6137   24.2401 N   0  0  0  0  0  0  0  0  0  0  0  0
    9.9927  -16.9383   24.7355 C   0  0  1  0  0  0  0  0  0  0  0  0
   11.3034  -17.3853   24.1766 C   0  0  0  0  0  0  0  0  0  0  0  0
   11.9411  -16.4559   23.2044 C   0  0  0  0  0  0  0  0  0  0  0  0
   13.1838  -16.9552   22.5795 C   0  0  0  0  0  0  0  0  0  0  0  0
   13.7350  -18.0459   22.8469 O   0  0  0  0  0  0  0  0  0  0  0  0
   10.0698  -16.9662   26.2007 C   0  0  0  0  0  0  0  0  0  0  0  0
   10.3768  -18.0341   26.7840 O   0  0  0  0  0  0  0  0  0  0  0  0
   13.7807  -16.1467   21.6220 O   0  0  0  0  0  0  0  0  0  0  0  0
    9.8159  -15.8523   26.9820 O   0  0  0  0  0  0  0  0  0  0  0  0
  1  2  1  0
  2  4  1  0
  2  3  2  0
  4  5  1  0
  5  6  1  0
  6  8  1  0
  6  7  1  6
  8  9  2  0
 10  8  1  0
 10 11  1  0
 11 12  1  1
 13 12  1  0
 14 15  1  0
 14 13  1  0
 16 15  1  0
 17 11  1  0
 17 18  2  0
 19 17  1  0
 20 25  1  0
 20 19  1  0
 20 21  1  6
 22 21  1  0
 23 22  1  0
 23 24  2  0
 25 28  1  0
 26 25  2  0
 27 23  1  0
M  END
$$$$
