QKE.pdb
     RDKit          3D

 28 27  0  0  1  0  0  0  0  0999 V2000
   15.4838  -12.8104   17.7373 N   0  0  0  0  0  0  0  0  0  0  0  0
   15.2766  -14.1457   17.3351 C   0  0  0  0  0  0  0  0  0  0  0  0
   16.2387  -14.9095   17.1242 O   0  0  0  0  0  0  0  0  0  0  0  0
   13.8983  -14.6591   17.1573 C   0  0  0  0  0  0  0  0  0  0  0  0
   13.4988  -15.5150   18.3406 C   0  0  0  0  0  0  0  0  0  0  0  0
   11.9995  -15.4735   18.5039 C   0  0  2  0  0  0  0  0  0  0  0  0
   11.5894  -14.1229   18.1672 N   0  0  0  0  0  0  0  0  0  0  0  0
   11.5686  -15.8384   19.8716 C   0  0  0  0  0  0  0  0  0  0  0  0
   11.9386  -15.0954   20.8136 O   0  0  0  0  0  0  0  0  0  0  0  0
   10.7682  -16.9791   20.1255 N   0  0  0  0  0  0  0  0  0  0  0  0
   10.3368  -17.3474   21.4950 C   0  0  1  0  0  0  0  0  0  0  0  0
    9.2111  -18.3538   21.3845 C   0  0  0  0  0  0  0  0  0  0  0  0
    8.7154  -18.9064   22.6724 C   0  0  0  0  0  0  0  0  0  0  0  0
    7.5133  -19.8176   22.4803 C   0  0  0  0  0  0  0  0  0  0  0  0
    6.9078  -20.2496   23.7886 C   0  0  0  0  0  0  0  0  0  0  0  0
    5.7452  -21.0891   23.6165 N   0  0  0  0  0  0  0  0  0  0  0  0
   11.5213  -17.8334   22.2187 C   0  0  0  0  0  0  0  0  0  0  0  0
   12.2084  -18.7933   21.7150 O   0  0  0  0  0  0  0  0  0  0  0  0
   12.0119  -17.3470   23.4468 N   0  0  0  0  0  0  0  0  0  0  0  0
   13.1654  -17.9168   24.1452 C   0  0  1  0  0  0  0  0  0  0  0  0
   14.4020  -17.1098   23.9227 C   0  0  0  0  0  0  0  0  0  0  0  0
   15.6226  -17.5923   24.6248 C   0  0  0  0  0  0  0  0  0  0  0  0
   16.8352  -16.7750   24.4115 C   0  0  0  0  0  0  0  0  0  0  0  0
   17.9984  -17.2256   24.3162 O   0  0  0  0  0  0  0  0  0  0  0  0
   12.9248  -18.0241   25.5889 C   0  0  0  0  0  0  0  0  0  0  0  0
   11.9840  -17.3767   26.1092 O   0  0  0  0  0  0  0  0  0  0  0  0
   16.6636  -15.4013   24.3097 O   0  0  0  0  0  0  0  0  0  0  0  0
   13.6988  -18.8185   26.4167 O   0  0  0  0  0  0  0  0  0  0  0  0
  1  2  1  0
  2  4  1  0
  2  3  2  0
  4  5  1  0
  5  6  1  0
  6  8  1  0
  6  7  1  1
  8  9  2  0
 10  8  1  0
 10 11  1  0
 11 12  1  6
 13 12  1  0
 14 15  1  0
 14 13  1  0
 16 15  1  0
 17 11  1  0
 17 18  2  0
 19 17  1  0
 20 25  1  0
 20 19  1  0
 20 21  1  1
 22 21  1  0
 23 22  1  0
 23 24  2  0
 25 28  1  0
 26 25  2  0
 27 23  1  0
M  END
$$$$
