QKE.pdb
     RDKit          3D

 28 27  0  0  1  0  0  0  0  0999 V2000
    9.6181  -14.2652   16.1187 N   0  0  0  0  0  0  0  0  0  0  0  0
    8.2111  -14.2469   16.2080 C   0  0  0  0  0  0  0  0  0  0  0  0
    7.5014  -14.5156   15.2192 O   0  0  0  0  0  0  0  0  0  0  0  0
    7.5559  -13.9044   17.4919 C   0  0  0  0  0  0  0  0  0  0  0  0
    8.5954  -13.6773   18.5690 C   0  0  0  0  0  0  0  0  0  0  0  0
    8.5724  -14.8338   19.5377 C   0  0  2  0  0  0  0  0  0  0  0  0
    7.2556  -15.4333   19.4264 N   0  0  0  0  0  0  0  0  0  0  0  0
    8.8532  -14.4133   20.9283 C   0  0  0  0  0  0  0  0  0  0  0  0
    9.9549  -13.8548   21.1538 O   0  0  0  0  0  0  0  0  0  0  0  0
    7.9248  -14.6249   21.9768 N   0  0  0  0  0  0  0  0  0  0  0  0
    8.2436  -14.2971   23.3869 C   0  0  1  0  0  0  0  0  0  0  0  0
    7.0723  -13.5398   23.9756 C   0  0  0  0  0  0  0  0  0  0  0  0
    7.2470  -13.0759   25.3771 C   0  0  0  0  0  0  0  0  0  0  0  0
    6.0340  -12.3112   25.8832 C   0  0  0  0  0  0  0  0  0  0  0  0
    6.2501  -11.7408   27.2590 C   0  0  0  0  0  0  0  0  0  0  0  0
    5.1500  -10.9164   27.7016 N   0  0  0  0  0  0  0  0  0  0  0  0
    8.5637  -15.5571   24.0747 C   0  0  0  0  0  0  0  0  0  0  0  0
    8.1316  -16.6616   23.5841 O   0  0  0  0  0  0  0  0  0  0  0  0
    9.3223  -15.6998   25.2535 N   0  0  0  0  0  0  0  0  0  0  0  0
   10.2502  -16.8060   25.4950 C   0  0  1  0  0  0  0  0  0  0  0  0
   11.4840  -16.6860   24.6623 C   0  0  0  0  0  0  0  0  0  0  0  0
   12.4682  -17.7937   24.8038 C   0  0  0  0  0  0  0  0  0  0  0  0
   13.7041  -17.6422   24.0079 C   0  0  0  0  0  0  0  0  0  0  0  0
   13.9698  -16.6666   23.2712 O   0  0  0  0  0  0  0  0  0  0  0  0
   10.6396  -16.8869   26.9076 C   0  0  0  0  0  0  0  0  0  0  0  0
   10.6256  -15.8495   27.6137 O   0  0  0  0  0  0  0  0  0  0  0  0
   14.6391  -18.6651   24.0883 O   0  0  0  0  0  0  0  0  0  0  0  0
   11.0276  -18.0723   27.5073 O   0  0  0  0  0  0  0  0  0  0  0  0
  1  2  1  0
  2  4  1  0
  2  3  2  0
  4  5  1  0
  5  6  1  0
  6  8  1  0
  6  7  1  1
  8  9  2  0
 10  8  1  0
 10 11  1  0
 11 12  1  1
 13 12  1  0
 14 15  1  0
 14 13  1  0
 16 15  1  0
 17 11  1  0
 17 18  2  0
 19 17  1  0
 20 25  1  0
 20 19  1  0
 20 21  1  6
 22 21  1  0
 23 22  1  0
 23 24  2  0
 25 28  1  0
 26 25  2  0
 27 23  1  0
M  END
$$$$
