QKE.pdb
     RDKit          3D

 28 27  0  0  1  0  0  0  0  0999 V2000
    9.8672  -15.1670   14.1497 N   0  0  0  0  0  0  0  0  0  0  0  0
    9.0339  -16.1451   14.7298 C   0  0  0  0  0  0  0  0  0  0  0  0
    7.7927  -16.0407   14.6835 O   0  0  0  0  0  0  0  0  0  0  0  0
    9.6321  -17.3190   15.4073 C   0  0  0  0  0  0  0  0  0  0  0  0
    9.0545  -17.4748   16.7981 C   0  0  0  0  0  0  0  0  0  0  0  0
   10.1263  -17.9831   17.7305 C   0  0  2  0  0  0  0  0  0  0  0  0
    9.6956  -19.2974   18.1696 N   0  0  0  0  0  0  0  0  0  0  0  0
   10.3499  -17.0808   18.8817 C   0  0  0  0  0  0  0  0  0  0  0  0
   11.4287  -16.4391   18.9143 O   0  0  0  0  0  0  0  0  0  0  0  0
    9.3931  -16.9345   19.9156 N   0  0  0  0  0  0  0  0  0  0  0  0
    9.6102  -16.0228   21.0641 C   0  0  1  0  0  0  0  0  0  0  0  0
    8.2580  -15.5956   21.5945 C   0  0  0  0  0  0  0  0  0  0  0  0
    7.3934  -14.8632   20.6323 C   0  0  0  0  0  0  0  0  0  0  0  0
    8.1324  -13.7219   19.9514 C   0  0  0  0  0  0  0  0  0  0  0  0
    7.2664  -12.9882   18.9632 C   0  0  0  0  0  0  0  0  0  0  0  0
    8.0031  -12.0198   18.1851 N   0  0  0  0  0  0  0  0  0  0  0  0
   10.4530  -16.7302   22.0401 C   0  0  0  0  0  0  0  0  0  0  0  0
   10.1735  -17.9469   22.3380 O   0  0  0  0  0  0  0  0  0  0  0  0
   11.5780  -16.2094   22.7098 N   0  0  0  0  0  0  0  0  0  0  0  0
   12.3370  -16.9478   23.7207 C   0  0  1  0  0  0  0  0  0  0  0  0
   13.7638  -16.5101   23.7716 C   0  0  0  0  0  0  0  0  0  0  0  0
   14.4898  -16.5238   22.4722 C   0  0  0  0  0  0  0  0  0  0  0  0
   15.8857  -16.0418   22.5267 C   0  0  0  0  0  0  0  0  0  0  0  0
   16.4431  -15.5664   23.5409 O   0  0  0  0  0  0  0  0  0  0  0  0
   11.7485  -16.7965   25.0565 C   0  0  0  0  0  0  0  0  0  0  0  0
   12.2839  -17.3684   26.0369 O   0  0  0  0  0  0  0  0  0  0  0  0
   16.6312  -16.1258   21.3588 O   0  0  0  0  0  0  0  0  0  0  0  0
   10.6129  -16.0405   25.2896 O   0  0  0  0  0  0  0  0  0  0  0  0
  1  2  1  0
  2  4  1  0
  2  3  2  0
  4  5  1  0
  5  6  1  0
  6  8  1  0
  6  7  1  1
  8  9  2  0
 10  8  1  0
 10 11  1  0
 11 12  1  1
 13 12  1  0
 14 15  1  0
 14 13  1  0
 16 15  1  0
 17 11  1  0
 17 18  2  0
 19 17  1  0
 20 25  1  0
 20 19  1  0
 20 21  1  1
 22 21  1  0
 23 22  1  0
 23 24  2  0
 25 28  1  0
 26 25  2  0
 27 23  1  0
M  END
$$$$
