QKE.pdb
     RDKit          3D

 28 27  0  0  1  0  0  0  0  0999 V2000
    8.2854  -24.9768   17.5288 N   0  0  0  0  0  0  0  0  0  0  0  0
    9.2416  -24.1505   18.1539 C   0  0  0  0  0  0  0  0  0  0  0  0
   10.1200  -24.6322   18.8954 O   0  0  0  0  0  0  0  0  0  0  0  0
    9.2109  -22.6859   17.9328 C   0  0  0  0  0  0  0  0  0  0  0  0
    8.8407  -21.9681   19.2135 C   0  0  0  0  0  0  0  0  0  0  0  0
    7.3386  -21.8689   19.3147 C   0  0  2  0  0  0  0  0  0  0  0  0
    6.9412  -20.7836   18.4373 N   0  0  0  0  0  0  0  0  0  0  0  0
    6.8789  -21.6320   20.7011 C   0  0  0  0  0  0  0  0  0  0  0  0
    7.2541  -20.5740   21.2634 O   0  0  0  0  0  0  0  0  0  0  0  0
    6.0462  -22.5536   21.3818 N   0  0  0  0  0  0  0  0  0  0  0  0
    5.5112  -22.2774   22.7364 C   0  0  1  0  0  0  0  0  0  0  0  0
    4.3011  -23.1597   22.9588 C   0  0  0  0  0  0  0  0  0  0  0  0
    3.7037  -23.0990   24.3186 C   0  0  0  0  0  0  0  0  0  0  0  0
    2.4547  -23.9585   24.4348 C   0  0  0  0  0  0  0  0  0  0  0  0
    1.7416  -23.7577   25.7448 C   0  0  0  0  0  0  0  0  0  0  0  0
    0.5953  -24.6233   25.8959 N   0  0  0  0  0  0  0  0  0  0  0  0
    6.6045  -22.4871   23.6975 C   0  0  0  0  0  0  0  0  0  0  0  0
    7.3493  -23.5252   23.5767 O   0  0  0  0  0  0  0  0  0  0  0  0
    6.9461  -21.6465   24.7756 N   0  0  0  0  0  0  0  0  0  0  0  0
    8.0467  -21.9179   25.7018 C   0  0  1  0  0  0  0  0  0  0  0  0
    9.2080  -21.0099   25.4638 C   0  0  0  0  0  0  0  0  0  0  0  0
   10.3434  -21.1509   26.4160 C   0  0  0  0  0  0  0  0  0  0  0  0
   11.5565  -20.3827   26.0664 C   0  0  0  0  0  0  0  0  0  0  0  0
   12.6101  -20.3565   26.7404 O   0  0  0  0  0  0  0  0  0  0  0  0
    7.6221  -21.7850   27.1003 C   0  0  0  0  0  0  0  0  0  0  0  0
    8.3298  -22.2790   28.0114 O   0  0  0  0  0  0  0  0  0  0  0  0
   11.5177  -19.6343   24.8980 O   0  0  0  0  0  0  0  0  0  0  0  0
    6.4595  -21.1300   27.4675 O   0  0  0  0  0  0  0  0  0  0  0  0
  1  2  1  0
  2  4  1  0
  2  3  2  0
  4  5  1  0
  5  6  1  0
  6  8  1  0
  6  7  1  6
  8  9  2  0
 10  8  1  0
 10 11  1  0
 11 12  1  1
 13 12  1  0
 14 15  1  0
 14 13  1  0
 16 15  1  0
 17 11  1  0
 17 18  2  0
 19 17  1  0
 20 25  1  0
 20 19  1  0
 20 21  1  6
 22 21  1  0
 23 22  1  0
 23 24  2  0
 25 28  1  0
 26 25  2  0
 27 23  1  0
M  END
$$$$
