QKE.pdb
     RDKit          3D

 28 27  0  0  1  0  0  0  0  0999 V2000
   17.4742  -17.4924   18.1999 N   0  0  0  0  0  0  0  0  0  0  0  0
   17.3694  -16.5564   17.1507 C   0  0  0  0  0  0  0  0  0  0  0  0
   18.0837  -16.6495   16.1335 O   0  0  0  0  0  0  0  0  0  0  0  0
   16.3989  -15.4413   17.2484 C   0  0  0  0  0  0  0  0  0  0  0  0
   15.1781  -15.8735   18.0326 C   0  0  0  0  0  0  0  0  0  0  0  0
   14.1406  -14.7791   17.9857 C   0  0  2  0  0  0  0  0  0  0  0  0
   14.8611  -13.5439   17.7393 N   0  0  0  0  0  0  0  0  0  0  0  0
   13.3476  -14.6966   19.2322 C   0  0  0  0  0  0  0  0  0  0  0  0
   13.9453  -14.3388   20.2768 O   0  0  0  0  0  0  0  0  0  0  0  0
   11.9657  -15.0056   19.2627 N   0  0  0  0  0  0  0  0  0  0  0  0
   11.1708  -14.9294   20.5115 C   0  0  1  0  0  0  0  0  0  0  0  0
    9.7075  -14.8223   20.1380 C   0  0  0  0  0  0  0  0  0  0  0  0
    9.3234  -13.5944   19.3933 C   0  0  0  0  0  0  0  0  0  0  0  0
    7.8613  -13.6112   18.9756 C   0  0  0  0  0  0  0  0  0  0  0  0
    7.4887  -12.4106   18.1482 C   0  0  0  0  0  0  0  0  0  0  0  0
    6.1056  -12.4255   17.7324 N   0  0  0  0  0  0  0  0  0  0  0  0
   11.5083  -16.1067   21.3259 C   0  0  0  0  0  0  0  0  0  0  0  0
   11.6294  -17.2476   20.7510 O   0  0  0  0  0  0  0  0  0  0  0  0
   11.7267  -16.1288   22.7178 N   0  0  0  0  0  0  0  0  0  0  0  0
   12.1089  -17.3300   23.4623 C   0  0  1  0  0  0  0  0  0  0  0  0
   13.5903  -17.5163   23.4907 C   0  0  0  0  0  0  0  0  0  0  0  0
   14.3832  -16.3233   23.8954 C   0  0  0  0  0  0  0  0  0  0  0  0
   15.8499  -16.4952   23.8412 C   0  0  0  0  0  0  0  0  0  0  0  0
   16.4905  -16.8958   22.8441 O   0  0  0  0  0  0  0  0  0  0  0  0
   11.6110  -17.2924   24.8422 C   0  0  0  0  0  0  0  0  0  0  0  0
   11.8599  -18.2486   25.6161 O   0  0  0  0  0  0  0  0  0  0  0  0
   16.5669  -16.1862   24.9889 O   0  0  0  0  0  0  0  0  0  0  0  0
   10.8682  -16.2353   25.3383 O   0  0  0  0  0  0  0  0  0  0  0  0
  1  2  1  0
  2  4  1  0
  2  3  2  0
  4  5  1  0
  5  6  1  0
  6  8  1  0
  6  7  1  1
  8  9  2  0
 10  8  1  0
 10 11  1  0
 11 12  1  6
 13 12  1  0
 14 15  1  0
 14 13  1  0
 16 15  1  0
 17 11  1  0
 17 18  2  0
 19 17  1  0
 20 25  1  0
 20 19  1  0
 20 21  1  1
 22 21  1  0
 23 22  1  0
 23 24  2  0
 25 28  1  0
 26 25  2  0
 27 23  1  0
M  END
$$$$
