QKE.pdb
     RDKit          3D

 28 27  0  0  1  0  0  0  0  0999 V2000
   11.8888  -16.1635   17.3934 N   0  0  0  0  0  0  0  0  0  0  0  0
   11.0634  -17.3047   17.3281 C   0  0  0  0  0  0  0  0  0  0  0  0
   11.0653  -18.0419   16.3231 O   0  0  0  0  0  0  0  0  0  0  0  0
   10.1764  -17.6420   18.4658 C   0  0  0  0  0  0  0  0  0  0  0  0
   10.3692  -16.6520   19.5949 C   0  0  0  0  0  0  0  0  0  0  0  0
    9.5197  -17.0643   20.7717 C   0  0  2  0  0  0  0  0  0  0  0  0
    8.1575  -17.1547   20.2801 N   0  0  0  0  0  0  0  0  0  0  0  0
    9.6188  -16.1145   21.9021 C   0  0  0  0  0  0  0  0  0  0  0  0
   10.7404  -15.5973   22.1280 O   0  0  0  0  0  0  0  0  0  0  0  0
    8.5002  -15.7898   22.7078 N   0  0  0  0  0  0  0  0  0  0  0  0
    8.6134  -14.8994   23.8876 C   0  0  1  0  0  0  0  0  0  0  0  0
    7.3805  -14.0223   23.9414 C   0  0  0  0  0  0  0  0  0  0  0  0
    7.3982  -12.9530   24.9740 C   0  0  0  0  0  0  0  0  0  0  0  0
    6.0287  -12.7367   25.5986 C   0  0  0  0  0  0  0  0  0  0  0  0
    6.0251  -11.6069   26.5927 C   0  0  0  0  0  0  0  0  0  0  0  0
    4.7307  -11.3999   27.1992 N   0  0  0  0  0  0  0  0  0  0  0  0
    8.8086  -15.7514   25.0704 C   0  0  0  0  0  0  0  0  0  0  0  0
    7.9922  -16.7186   25.2828 O   0  0  0  0  0  0  0  0  0  0  0  0
    9.8294  -15.6277   26.0338 N   0  0  0  0  0  0  0  0  0  0  0  0
   10.1044  -16.6333   27.0615 C   0  0  1  0  0  0  0  0  0  0  0  0
   11.3987  -17.3366   26.8163 C   0  0  0  0  0  0  0  0  0  0  0  0
   12.5968  -16.4610   26.6989 C   0  0  0  0  0  0  0  0  0  0  0  0
   13.8405  -17.1483   26.2931 C   0  0  0  0  0  0  0  0  0  0  0  0
   13.9963  -17.7822   25.2258 O   0  0  0  0  0  0  0  0  0  0  0  0
   10.1357  -16.0406   28.4036 C   0  0  0  0  0  0  0  0  0  0  0  0
    9.9774  -14.8029   28.5373 O   0  0  0  0  0  0  0  0  0  0  0  0
   14.9159  -17.0815   27.1682 O   0  0  0  0  0  0  0  0  0  0  0  0
   10.3345  -16.7945   29.5471 O   0  0  0  0  0  0  0  0  0  0  0  0
  1  2  1  0
  2  4  1  0
  2  3  2  0
  4  5  1  0
  5  6  1  0
  6  8  1  0
  6  7  1  6
  8  9  2  0
 10  8  1  0
 10 11  1  0
 11 12  1  1
 13 12  1  0
 14 15  1  0
 14 13  1  0
 16 15  1  0
 17 11  1  0
 17 18  2  0
 19 17  1  0
 20 25  1  0
 20 19  1  0
 20 21  1  6
 22 21  1  0
 23 22  1  0
 23 24  2  0
 25 28  1  0
 26 25  2  0
 27 23  1  0
M  END
$$$$
