QKE.pdb
     RDKit          3D

 28 27  0  0  1  0  0  0  0  0999 V2000
    6.3219  -12.0386   17.1827 N   0  0  0  0  0  0  0  0  0  0  0  0
    7.3095  -13.0434   17.1293 C   0  0  0  0  0  0  0  0  0  0  0  0
    7.2311  -13.9778   16.3082 O   0  0  0  0  0  0  0  0  0  0  0  0
    8.4623  -12.9974   18.0587 C   0  0  0  0  0  0  0  0  0  0  0  0
    8.1045  -13.6564   19.3740 C   0  0  0  0  0  0  0  0  0  0  0  0
    8.8254  -14.9772   19.4838 C   0  0  2  0  0  0  0  0  0  0  0  0
    8.3378  -15.8004   18.3928 N   0  0  0  0  0  0  0  0  0  0  0  0
    8.6055  -15.6355   20.7906 C   0  0  0  0  0  0  0  0  0  0  0  0
    8.9565  -15.0099   21.8211 O   0  0  0  0  0  0  0  0  0  0  0  0
    8.0218  -16.9219   20.8925 N   0  0  0  0  0  0  0  0  0  0  0  0
    7.8714  -17.6158   22.1937 C   0  0  1  0  0  0  0  0  0  0  0  0
    6.8035  -18.6787   22.0452 C   0  0  0  0  0  0  0  0  0  0  0  0
    5.4147  -18.1747   21.8807 C   0  0  0  0  0  0  0  0  0  0  0  0
    4.4245  -19.2984   21.6180 C   0  0  0  0  0  0  0  0  0  0  0  0
    3.0052  -18.8040   21.5402 C   0  0  0  0  0  0  0  0  0  0  0  0
    2.0587  -19.8614   21.2718 N   0  0  0  0  0  0  0  0  0  0  0  0
    9.1945  -18.1295   22.5792 C   0  0  0  0  0  0  0  0  0  0  0  0
    9.7149  -19.0839   21.8970 O   0  0  0  0  0  0  0  0  0  0  0  0
    9.9909  -17.6761   23.6496 N   0  0  0  0  0  0  0  0  0  0  0  0
   11.3243  -18.2000   23.9505 C   0  0  1  0  0  0  0  0  0  0  0  0
   12.3942  -17.2082   23.6320 C   0  0  0  0  0  0  0  0  0  0  0  0
   13.7848  -17.6353   23.9474 C   0  0  0  0  0  0  0  0  0  0  0  0
   14.8446  -16.7096   23.4960 C   0  0  0  0  0  0  0  0  0  0  0  0
   14.6468  -15.6077   22.9376 O   0  0  0  0  0  0  0  0  0  0  0  0
   11.4466  -18.5908   25.3597 C   0  0  0  0  0  0  0  0  0  0  0  0
   10.6103  -18.1673   26.1941 O   0  0  0  0  0  0  0  0  0  0  0  0
   16.1596  -17.0984   23.7115 O   0  0  0  0  0  0  0  0  0  0  0  0
   12.4569  -19.4177   25.8191 O   0  0  0  0  0  0  0  0  0  0  0  0
  1  2  1  0
  2  4  1  0
  2  3  2  0
  4  5  1  0
  5  6  1  0
  6  8  1  0
  6  7  1  6
  8  9  2  0
 10  8  1  0
 10 11  1  0
 11 12  1  6
 13 12  1  0
 14 15  1  0
 14 13  1  0
 16 15  1  0
 17 11  1  0
 17 18  2  0
 19 17  1  0
 20 25  1  0
 20 19  1  0
 20 21  1  1
 22 21  1  0
 23 22  1  0
 23 24  2  0
 25 28  1  0
 26 25  2  0
 27 23  1  0
M  END
$$$$
