QKE.pdb
     RDKit          3D

 28 27  0  0  1  0  0  0  0  0999 V2000
    9.8570  -19.7964   13.2296 N   0  0  0  0  0  0  0  0  0  0  0  0
   10.9676  -19.6089   14.0777 C   0  0  0  0  0  0  0  0  0  0  0  0
   10.9534  -20.0195   15.2544 O   0  0  0  0  0  0  0  0  0  0  0  0
   12.1750  -18.9146   13.5727 C   0  0  0  0  0  0  0  0  0  0  0  0
   12.6582  -17.8966   14.5838 C   0  0  0  0  0  0  0  0  0  0  0  0
   11.7891  -16.6655   14.5082 C   0  0  2  0  0  0  0  0  0  0  0  0
   12.1713  -15.9702   13.2932 N   0  0  0  0  0  0  0  0  0  0  0  0
   11.9387  -15.7930   15.6938 C   0  0  0  0  0  0  0  0  0  0  0  0
   13.0422  -15.2156   15.8531 O   0  0  0  0  0  0  0  0  0  0  0  0
   10.8865  -15.6050   16.6230 N   0  0  0  0  0  0  0  0  0  0  0  0
   11.0292  -14.7197   17.8034 C   0  0  1  0  0  0  0  0  0  0  0  0
    9.6452  -14.3956   18.3248 C   0  0  0  0  0  0  0  0  0  0  0  0
    9.6022  -13.6035   19.5820 C   0  0  0  0  0  0  0  0  0  0  0  0
    8.1791  -13.2689   20.0003 C   0  0  0  0  0  0  0  0  0  0  0  0
    8.1296  -12.4760   21.2784 C   0  0  0  0  0  0  0  0  0  0  0  0
    6.8003  -12.0087   21.5955 N   0  0  0  0  0  0  0  0  0  0  0  0
   11.9008  -15.4045   18.7700 C   0  0  0  0  0  0  0  0  0  0  0  0
   11.7052  -16.6497   19.0117 O   0  0  0  0  0  0  0  0  0  0  0  0
   12.9702  -14.8321   19.4872 N   0  0  0  0  0  0  0  0  0  0  0  0
   13.8070  -15.5752   20.4309 C   0  0  1  0  0  0  0  0  0  0  0  0
   15.0317  -14.8086   20.8081 C   0  0  0  0  0  0  0  0  0  0  0  0
   15.9390  -15.4789   21.7793 C   0  0  0  0  0  0  0  0  0  0  0  0
   17.1584  -14.7201   22.1276 C   0  0  0  0  0  0  0  0  0  0  0  0
   18.0737  -14.4237   21.3279 O   0  0  0  0  0  0  0  0  0  0  0  0
   13.0701  -15.9192   21.6525 C   0  0  0  0  0  0  0  0  0  0  0  0
   12.1785  -15.1443   22.0762 O   0  0  0  0  0  0  0  0  0  0  0  0
   17.2927  -14.3068   23.4459 O   0  0  0  0  0  0  0  0  0  0  0  0
   13.3160  -17.0765   22.3706 O   0  0  0  0  0  0  0  0  0  0  0  0
  1  2  1  0
  2  4  1  0
  2  3  2  0
  4  5  1  0
  5  6  1  0
  6  8  1  0
  6  7  1  6
  8  9  2  0
 10  8  1  0
 10 11  1  0
 11 12  1  1
 13 12  1  0
 14 15  1  0
 14 13  1  0
 16 15  1  0
 17 11  1  0
 17 18  2  0
 19 17  1  0
 20 25  1  0
 20 19  1  0
 20 21  1  1
 22 21  1  0
 23 22  1  0
 23 24  2  0
 25 28  1  0
 26 25  2  0
 27 23  1  0
M  END
$$$$
