TCI.pdb
     RDKit          3D

 22 21  0  0  1  0  0  0  0  0999 V2000
    9.4584  -18.2424   18.4911 C   0  0  0  0  0  0  0  0  0  0  0  0
    8.7613  -17.6566   19.6889 C   0  0  1  0  0  0  0  0  0  0  0  0
    8.7753  -16.2697   19.6196 O   0  0  0  0  0  0  0  0  0  0  0  0
    7.3769  -18.2102   19.8960 C   0  0  2  0  0  0  0  0  0  0  0  0
    6.5663  -17.9742   18.7457 N   0  0  0  0  0  0  0  0  0  0  0  0
    6.7991  -17.6051   21.1347 C   0  0  0  0  0  0  0  0  0  0  0  0
    5.8022  -16.8408   21.0979 O   0  0  0  0  0  0  0  0  0  0  0  0
    7.3574  -17.8684   22.4326 N   0  0  0  0  0  0  0  0  0  0  0  0
    6.8610  -17.2198   23.6256 C   0  0  1  0  0  0  0  0  0  0  0  0
    6.3260  -18.2392   24.6269 C   0  0  0  0  0  0  0  0  0  0  0  0
    7.6481  -19.2439   25.3202 S   0  0  0  0  0  0  0  0  0  0  0  0
    7.8798  -16.3810   24.2815 C   0  0  0  0  0  0  0  0  0  0  0  0
    9.1040  -16.4043   24.0150 O   0  0  0  0  0  0  0  0  0  0  0  0
    5.6722  -11.9715   26.6879 C   0  0  0  0  0  0  0  0  0  0  0  0
    6.5857  -12.7905   25.8109 C   0  0  0  0  0  0  0  0  0  0  0  0
    7.5683  -13.5184   26.6917 C   0  0  2  0  0  0  0  0  0  0  0  0
    8.4638  -12.5483   27.3922 C   0  0  0  0  0  0  0  0  0  0  0  0
    8.3614  -14.5524   25.9227 C   0  0  2  0  0  0  0  0  0  0  0  0
    7.4478  -15.4780   25.2908 N   0  0  0  0  0  0  0  0  0  0  0  0
    9.1772  -15.2989   26.9082 C   0  0  0  0  0  0  0  0  0  0  0  0
    8.7563  -16.3524   27.4614 O   0  0  0  0  0  0  0  0  0  0  0  0
   10.4391  -14.8240   27.2301 O   0  0  0  0  0  0  0  0  0  0  0  0
  2  3  1  0
  2  1  1  6
  4  2  1  0
  4  5  1  6
  6  4  1  0
  6  8  1  0
  7  6  2  0
  9  8  1  0
  9 12  1  0
  9 10  1  1
 11 10  1  0
 12 19  1  0
 13 12  2  0
 15 14  1  0
 16 17  1  6
 16 15  1  0
 18 20  1  0
 18 16  1  0
 18 19  1  1
 20 22  1  0
 21 20  2  0
M  END
$$$$
