TCI.pdb
     RDKit          3D

 22 21  0  0  1  0  0  0  0  0999 V2000
   10.0516  -17.3712   18.2127 C   0  0  0  0  0  0  0  0  0  0  0  0
    9.1899  -17.1224   19.4209 C   0  0  1  0  0  0  0  0  0  0  0  0
    8.5194  -15.9134   19.2894 O   0  0  0  0  0  0  0  0  0  0  0  0
    8.2618  -18.2665   19.7302 C   0  0  2  0  0  0  0  0  0  0  0  0
    7.4316  -18.5554   18.6062 N   0  0  0  0  0  0  0  0  0  0  0  0
    7.4700  -17.9245   20.9511 C   0  0  0  0  0  0  0  0  0  0  0  0
    6.2438  -18.1842   21.0417 O   0  0  0  0  0  0  0  0  0  0  0  0
    8.0743  -17.2799   22.0846 N   0  0  0  0  0  0  0  0  0  0  0  0
    7.4129  -17.2101   23.3684 C   0  0  1  0  0  0  0  0  0  0  0  0
    6.9647  -18.5920   23.8348 C   0  0  0  0  0  0  0  0  0  0  0  0
    6.4755  -18.5805   25.5666 S   0  0  0  0  0  0  0  0  0  0  0  0
    8.2559  -16.5945   24.4086 C   0  0  0  0  0  0  0  0  0  0  0  0
    9.4056  -16.9840   24.7195 O   0  0  0  0  0  0  0  0  0  0  0  0
    6.1664  -11.7022   25.9809 C   0  0  0  0  0  0  0  0  0  0  0  0
    7.1255  -12.6973   25.3770 C   0  0  0  0  0  0  0  0  0  0  0  0
    7.7487  -13.4976   26.4915 C   0  0  2  0  0  0  0  0  0  0  0  0
    8.5609  -12.6135   27.3818 C   0  0  0  0  0  0  0  0  0  0  0  0
    8.5641  -14.6597   25.9677 C   0  0  2  0  0  0  0  0  0  0  0  0
    7.7315  -15.4773   25.1138 N   0  0  0  0  0  0  0  0  0  0  0  0
    8.9721  -15.4701   27.1386 C   0  0  0  0  0  0  0  0  0  0  0  0
    8.2213  -16.3578   27.6298 O   0  0  0  0  0  0  0  0  0  0  0  0
   10.2151  -15.2444   27.7090 O   0  0  0  0  0  0  0  0  0  0  0  0
  2  3  1  0
  2  1  1  6
  4  2  1  0
  4  5  1  6
  6  4  1  0
  6  8  1  0
  7  6  2  0
  9  8  1  0
  9 12  1  0
  9 10  1  1
 11 10  1  0
 12 19  1  0
 13 12  2  0
 15 14  1  0
 16 17  1  6
 16 15  1  0
 18 20  1  0
 18 16  1  0
 18 19  1  6
 20 22  1  0
 21 20  2  0
M  END
$$$$
