TCI.pdb
     RDKit          3D

 22 21  0  0  1  0  0  0  0  0999 V2000
   11.7808  -17.9480   19.4883 C   0  0  0  0  0  0  0  0  0  0  0  0
   10.6528  -17.3621   20.2935 C   0  0  1  0  0  0  0  0  0  0  0  0
   10.4445  -16.0377   19.9318 O   0  0  0  0  0  0  0  0  0  0  0  0
    9.3927  -18.1831   20.2293 C   0  0  2  0  0  0  0  0  0  0  0  0
    8.9801  -18.3615   18.8751 N   0  0  0  0  0  0  0  0  0  0  0  0
    8.3446  -17.5180   21.0620 C   0  0  0  0  0  0  0  0  0  0  0  0
    7.1256  -17.5683   20.7602 O   0  0  0  0  0  0  0  0  0  0  0  0
    8.6805  -16.7861   22.2524 N   0  0  0  0  0  0  0  0  0  0  0  0
    7.7764  -16.6968   23.3771 C   0  0  1  0  0  0  0  0  0  0  0  0
    7.2550  -18.0736   23.7777 C   0  0  0  0  0  0  0  0  0  0  0  0
    6.4638  -18.0382   25.3936 S   0  0  0  0  0  0  0  0  0  0  0  0
    8.3907  -16.0485   24.5493 C   0  0  0  0  0  0  0  0  0  0  0  0
    9.3860  -16.4897   25.1699 O   0  0  0  0  0  0  0  0  0  0  0  0
    5.7092  -11.7555   27.2379 C   0  0  0  0  0  0  0  0  0  0  0  0
    6.3933  -13.0482   26.8703 C   0  0  0  0  0  0  0  0  0  0  0  0
    7.6883  -12.7221   26.1719 C   0  0  2  0  0  0  0  0  0  0  0  0
    7.4275  -11.9693   24.9074 C   0  0  0  0  0  0  0  0  0  0  0  0
    8.5242  -13.9582   25.9212 C   0  0  2  0  0  0  0  0  0  0  0  0
    7.8167  -14.8340   25.0140 N   0  0  0  0  0  0  0  0  0  0  0  0
    8.6764  -14.6536   27.2202 C   0  0  0  0  0  0  0  0  0  0  0  0
    9.3688  -14.1705   28.1584 O   0  0  0  0  0  0  0  0  0  0  0  0
    8.0384  -15.8699   27.4076 O   0  0  0  0  0  0  0  0  0  0  0  0
  2  3  1  0
  2  1  1  6
  4  2  1  0
  4  5  1  6
  6  4  1  0
  6  8  1  0
  7  6  2  0
  9  8  1  0
  9 12  1  0
  9 10  1  1
 11 10  1  0
 12 19  1  0
 13 12  2  0
 15 14  1  0
 16 17  1  6
 16 15  1  0
 18 20  1  0
 18 16  1  0
 18 19  1  6
 20 22  1  0
 21 20  2  0
M  END
$$$$
