TCI.pdb
     RDKit          3D

 22 21  0  0  1  0  0  0  0  0999 V2000
    8.7746  -12.7322   18.4896 C   0  0  0  0  0  0  0  0  0  0  0  0
    8.6075  -13.4645   19.7934 C   0  0  1  0  0  0  0  0  0  0  0  0
    7.7030  -12.7939   20.6061 O   0  0  0  0  0  0  0  0  0  0  0  0
    8.2557  -14.9171   19.6141 C   0  0  2  0  0  0  0  0  0  0  0  0
    7.0567  -15.0514   18.8523 N   0  0  0  0  0  0  0  0  0  0  0  0
    8.1493  -15.5542   20.9622 C   0  0  0  0  0  0  0  0  0  0  0  0
    7.0395  -15.7509   21.5181 O   0  0  0  0  0  0  0  0  0  0  0  0
    9.3147  -15.9741   21.6909 N   0  0  0  0  0  0  0  0  0  0  0  0
    9.2221  -16.5763   23.0021 C   0  0  1  0  0  0  0  0  0  0  0  0
   10.0398  -17.8622   23.0786 C   0  0  0  0  0  0  0  0  0  0  0  0
   10.0585  -18.5375   24.7465 S   0  0  0  0  0  0  0  0  0  0  0  0
    9.6480  -15.6634   24.0776 C   0  0  0  0  0  0  0  0  0  0  0  0
   10.7084  -14.9957   24.0698 O   0  0  0  0  0  0  0  0  0  0  0  0
    6.0160  -12.4871   26.0736 C   0  0  0  0  0  0  0  0  0  0  0  0
    7.2834  -13.1440   25.5871 C   0  0  0  0  0  0  0  0  0  0  0  0
    7.9091  -13.8876   26.7389 C   0  0  2  0  0  0  0  0  0  0  0  0
    8.2085  -12.9531   27.8662 C   0  0  0  0  0  0  0  0  0  0  0  0
    9.1394  -14.6594   26.3142 C   0  0  2  0  0  0  0  0  0  0  0  0
    8.7980  -15.5263   25.2086 N   0  0  0  0  0  0  0  0  0  0  0  0
    9.5443  -15.5026   27.4628 C   0  0  0  0  0  0  0  0  0  0  0  0
   10.1902  -15.0331   28.4402 O   0  0  0  0  0  0  0  0  0  0  0  0
    9.2022  -16.8460   27.4610 O   0  0  0  0  0  0  0  0  0  0  0  0
  2  3  1  0
  2  1  1  6
  4  2  1  0
  4  5  1  1
  6  4  1  0
  6  8  1  0
  7  6  2  0
  9  8  1  0
  9 12  1  0
  9 10  1  6
 11 10  1  0
 12 19  1  0
 13 12  2  0
 15 14  1  0
 16 17  1  1
 16 15  1  0
 18 20  1  0
 18 16  1  0
 18 19  1  6
 20 22  1  0
 21 20  2  0
M  END
$$$$
