TCI.pdb
     RDKit          3D

 22 21  0  0  1  0  0  0  0  0999 V2000
    8.2828  -17.6054   16.8248 C   0  0  0  0  0  0  0  0  0  0  0  0
    7.7133  -17.5959   18.2175 C   0  0  1  0  0  0  0  0  0  0  0  0
    7.4304  -18.8922   18.6273 O   0  0  0  0  0  0  0  0  0  0  0  0
    8.5758  -16.8541   19.2034 C   0  0  2  0  0  0  0  0  0  0  0  0
    9.8121  -17.5386   19.4010 N   0  0  0  0  0  0  0  0  0  0  0  0
    7.8098  -16.6816   20.4753 C   0  0  0  0  0  0  0  0  0  0  0  0
    6.7121  -16.0708   20.5119 O   0  0  0  0  0  0  0  0  0  0  0  0
    8.2927  -17.2073   21.7226 N   0  0  0  0  0  0  0  0  0  0  0  0
    7.6553  -16.8964   22.9827 C   0  0  1  0  0  0  0  0  0  0  0  0
    7.5947  -18.1226   23.8886 C   0  0  0  0  0  0  0  0  0  0  0  0
    9.2338  -18.6227   24.4376 S   0  0  0  0  0  0  0  0  0  0  0  0
    8.3212  -15.7940   23.6989 C   0  0  0  0  0  0  0  0  0  0  0  0
    9.4818  -15.3855   23.4614 O   0  0  0  0  0  0  0  0  0  0  0  0
    6.5132  -10.8024   26.6245 C   0  0  0  0  0  0  0  0  0  0  0  0
    7.5927  -11.8534   26.5594 C   0  0  0  0  0  0  0  0  0  0  0  0
    7.0843  -13.0109   25.7391 C   0  0  2  0  0  0  0  0  0  0  0  0
    5.8865  -13.6270   26.3869 C   0  0  0  0  0  0  0  0  0  0  0  0
    8.1645  -14.0375   25.4764 C   0  0  2  0  0  0  0  0  0  0  0  0
    7.5989  -15.1431   24.7358 N   0  0  0  0  0  0  0  0  0  0  0  0
    8.6192  -14.5400   26.7935 C   0  0  0  0  0  0  0  0  0  0  0  0
    9.2785  -13.8179   27.5917 O   0  0  0  0  0  0  0  0  0  0  0  0
    8.3101  -15.8415   27.1570 O   0  0  0  0  0  0  0  0  0  0  0  0
  2  3  1  0
  2  1  1  6
  4  2  1  0
  4  5  1  1
  6  4  1  0
  6  8  1  0
  7  6  2  0
  9  8  1  0
  9 12  1  0
  9 10  1  1
 11 10  1  0
 12 19  1  0
 13 12  2  0
 15 14  1  0
 16 17  1  1
 16 15  1  0
 18 20  1  0
 18 16  1  0
 18 19  1  6
 20 22  1  0
 21 20  2  0
M  END
$$$$
