TCI.pdb
     RDKit          3D

 22 21  0  0  1  0  0  0  0  0999 V2000
    9.4508  -12.8173   17.8950 C   0  0  0  0  0  0  0  0  0  0  0  0
    8.7030  -13.4178   19.0544 C   0  0  1  0  0  0  0  0  0  0  0  0
    7.6075  -12.6279   19.3776 O   0  0  0  0  0  0  0  0  0  0  0  0
    8.3302  -14.8594   18.8339 C   0  0  2  0  0  0  0  0  0  0  0  0
    7.4146  -14.9788   17.7461 N   0  0  0  0  0  0  0  0  0  0  0  0
    7.7773  -15.4117   20.1081 C   0  0  0  0  0  0  0  0  0  0  0  0
    6.5408  -15.5297   20.2995 O   0  0  0  0  0  0  0  0  0  0  0  0
    8.6353  -15.8360   21.1801 N   0  0  0  0  0  0  0  0  0  0  0  0
    8.1115  -16.2420   22.4652 C   0  0  1  0  0  0  0  0  0  0  0  0
    8.3851  -17.7192   22.7317 C   0  0  0  0  0  0  0  0  0  0  0  0
    7.8718  -18.1999   24.3881 S   0  0  0  0  0  0  0  0  0  0  0  0
    8.6497  -15.4386   23.5772 C   0  0  0  0  0  0  0  0  0  0  0  0
    9.8628  -15.1732   23.7452 O   0  0  0  0  0  0  0  0  0  0  0  0
    6.3280  -10.9969   27.0092 C   0  0  0  0  0  0  0  0  0  0  0  0
    7.3943  -12.0616   26.9483 C   0  0  0  0  0  0  0  0  0  0  0  0
    7.0200  -13.0524   25.8762 C   0  0  2  0  0  0  0  0  0  0  0  0
    5.7646  -13.7749   26.2446 C   0  0  0  0  0  0  0  0  0  0  0  0
    8.1480  -14.0150   25.5749 C   0  0  2  0  0  0  0  0  0  0  0  0
    7.7301  -14.9247   24.5316 N   0  0  0  0  0  0  0  0  0  0  0  0
    8.3950  -14.7982   26.8077 C   0  0  0  0  0  0  0  0  0  0  0  0
    8.9250  -14.2825   27.8306 O   0  0  0  0  0  0  0  0  0  0  0  0
    8.0324  -16.1358   26.8355 O   0  0  0  0  0  0  0  0  0  0  0  0
  2  3  1  0
  2  1  1  6
  4  2  1  0
  4  5  1  6
  6  4  1  0
  6  8  1  0
  7  6  2  0
  9  8  1  0
  9 12  1  0
  9 10  1  1
 11 10  1  0
 12 19  1  0
 13 12  2  0
 15 14  1  0
 16 17  1  1
 16 15  1  0
 18 20  1  0
 18 16  1  0
 18 19  1  6
 20 22  1  0
 21 20  2  0
M  END
$$$$
