TCI.pdb
     RDKit          3D

 22 21  0  0  1  0  0  0  0  0999 V2000
    7.7770  -17.8265   18.6463 C   0  0  0  0  0  0  0  0  0  0  0  0
    7.4515  -17.3926   20.0498 C   0  0  1  0  0  0  0  0  0  0  0  0
    6.8908  -16.1222   20.0397 O   0  0  0  0  0  0  0  0  0  0  0  0
    6.6065  -18.3905   20.7956 C   0  0  2  0  0  0  0  0  0  0  0  0
    5.3534  -18.5754   20.1387 N   0  0  0  0  0  0  0  0  0  0  0  0
    6.4474  -17.9239   22.2067 C   0  0  0  0  0  0  0  0  0  0  0  0
    5.6402  -17.0122   22.5178 O   0  0  0  0  0  0  0  0  0  0  0  0
    7.2121  -18.4966   23.2803 N   0  0  0  0  0  0  0  0  0  0  0  0
    7.1546  -17.9719   24.6263 C   0  0  1  0  0  0  0  0  0  0  0  0
    7.5013  -19.0457   25.6533 C   0  0  0  0  0  0  0  0  0  0  0  0
    6.0478  -19.9851   26.1464 S   0  0  0  0  0  0  0  0  0  0  0  0
    8.0384  -16.8088   24.8205 C   0  0  0  0  0  0  0  0  0  0  0  0
    9.0578  -16.5636   24.1342 O   0  0  0  0  0  0  0  0  0  0  0  0
    5.6490  -12.3031   26.6179 C   0  0  0  0  0  0  0  0  0  0  0  0
    6.5799  -13.2014   25.8427 C   0  0  0  0  0  0  0  0  0  0  0  0
    7.6804  -13.6594   26.7648 C   0  0  2  0  0  0  0  0  0  0  0  0
    8.5042  -12.4971   27.2165 C   0  0  0  0  0  0  0  0  0  0  0  0
    8.5362  -14.7368   26.1350 C   0  0  2  0  0  0  0  0  0  0  0  0
    7.7156  -15.8951   25.8605 N   0  0  0  0  0  0  0  0  0  0  0  0
    9.5640  -15.1166   27.1318 C   0  0  0  0  0  0  0  0  0  0  0  0
    9.3625  -16.0248   27.9848 O   0  0  0  0  0  0  0  0  0  0  0  0
   10.7812  -14.4534   27.1249 O   0  0  0  0  0  0  0  0  0  0  0  0
  2  3  1  0
  2  1  1  6
  4  2  1  0
  4  5  1  6
  6  4  1  0
  6  8  1  0
  7  6  2  0
  9  8  1  0
  9 12  1  0
  9 10  1  1
 11 10  1  0
 12 19  1  0
 13 12  2  0
 15 14  1  0
 16 17  1  6
 16 15  1  0
 18 20  1  0
 18 16  1  0
 18 19  1  1
 20 22  1  0
 21 20  2  0
M  END
$$$$
