TCI.pdb
     RDKit          3D

 22 21  0  0  1  0  0  0  0  0999 V2000
    9.1229  -12.5777   19.6921 C   0  0  0  0  0  0  0  0  0  0  0  0
    8.3941  -13.3077   18.5967 C   0  0  1  0  0  0  0  0  0  0  0  0
    8.7622  -12.8011   17.3572 O   0  0  0  0  0  0  0  0  0  0  0  0
    8.5493  -14.8028   18.6784 C   0  0  2  0  0  0  0  0  0  0  0  0
    7.8780  -15.4359   17.5901 N   0  0  0  0  0  0  0  0  0  0  0  0
    8.0438  -15.2651   20.0069 C   0  0  0  0  0  0  0  0  0  0  0  0
    6.8193  -15.2608   20.2898 O   0  0  0  0  0  0  0  0  0  0  0  0
    8.9361  -15.7386   21.0292 N   0  0  0  0  0  0  0  0  0  0  0  0
    8.4564  -16.1818   22.3191 C   0  0  1  0  0  0  0  0  0  0  0  0
    8.9173  -17.6047   22.6210 C   0  0  0  0  0  0  0  0  0  0  0  0
    8.3937  -18.1377   24.2581 S   0  0  0  0  0  0  0  0  0  0  0  0
    8.8739  -15.2914   23.4167 C   0  0  0  0  0  0  0  0  0  0  0  0
   10.0443  -14.8826   23.5992 O   0  0  0  0  0  0  0  0  0  0  0  0
    6.1000  -11.2608   27.0628 C   0  0  0  0  0  0  0  0  0  0  0  0
    7.2899  -12.1731   26.9012 C   0  0  0  0  0  0  0  0  0  0  0  0
    7.0038  -13.1381   25.7795 C   0  0  2  0  0  0  0  0  0  0  0  0
    5.7987  -13.9647   26.0930 C   0  0  0  0  0  0  0  0  0  0  0  0
    8.2027  -14.0027   25.4558 C   0  0  2  0  0  0  0  0  0  0  0  0
    7.8806  -14.8620   24.3383 N   0  0  0  0  0  0  0  0  0  0  0  0
    8.4610  -14.8529   26.6410 C   0  0  0  0  0  0  0  0  0  0  0  0
    9.0049  -14.3957   27.6841 O   0  0  0  0  0  0  0  0  0  0  0  0
    8.0936  -16.1889   26.6000 O   0  0  0  0  0  0  0  0  0  0  0  0
  2  3  1  0
  2  1  1  1
  4  2  1  0
  4  5  1  6
  6  4  1  0
  6  8  1  0
  7  6  2  0
  9  8  1  0
  9 12  1  0
  9 10  1  1
 11 10  1  0
 12 19  1  0
 13 12  2  0
 15 14  1  0
 16 17  1  1
 16 15  1  0
 18 20  1  0
 18 16  1  0
 18 19  1  6
 20 22  1  0
 21 20  2  0
M  END
$$$$
