TCI.pdb
     RDKit          3D

 22 21  0  0  1  0  0  0  0  0999 V2000
   11.8365  -18.6704   19.4779 C   0  0  0  0  0  0  0  0  0  0  0  0
   10.9553  -18.0456   20.5253 C   0  0  1  0  0  0  0  0  0  0  0  0
   11.6302  -17.0143   21.1650 O   0  0  0  0  0  0  0  0  0  0  0  0
    9.6161  -17.6144   19.9899 C   0  0  2  0  0  0  0  0  0  0  0  0
    9.7802  -16.6734   18.9300 N   0  0  0  0  0  0  0  0  0  0  0  0
    8.8028  -17.0666   21.1182 C   0  0  0  0  0  0  0  0  0  0  0  0
    8.5956  -15.8342   21.2504 O   0  0  0  0  0  0  0  0  0  0  0  0
    8.2164  -17.9253   22.1103 N   0  0  0  0  0  0  0  0  0  0  0  0
    7.4831  -17.4003   23.2404 C   0  0  1  0  0  0  0  0  0  0  0  0
    6.7361  -18.5081   23.9772 C   0  0  0  0  0  0  0  0  0  0  0  0
    5.9394  -17.8918   25.4684 S   0  0  0  0  0  0  0  0  0  0  0  0
    8.3465  -16.6787   24.1919 C   0  0  0  0  0  0  0  0  0  0  0  0
    9.5594  -16.9268   24.3860 O   0  0  0  0  0  0  0  0  0  0  0  0
    6.0923  -11.9527   26.0168 C   0  0  0  0  0  0  0  0  0  0  0  0
    7.1443  -12.8453   25.4078 C   0  0  0  0  0  0  0  0  0  0  0  0
    7.6713  -13.7637   26.4802 C   0  0  2  0  0  0  0  0  0  0  0  0
    8.3964  -12.9840   27.5290 C   0  0  0  0  0  0  0  0  0  0  0  0
    8.5365  -14.8656   25.9082 C   0  0  2  0  0  0  0  0  0  0  0  0
    7.7665  -15.6234   24.9472 N   0  0  0  0  0  0  0  0  0  0  0  0
    8.8993  -15.7628   27.0296 C   0  0  0  0  0  0  0  0  0  0  0  0
    8.2232  -16.7921   27.3060 O   0  0  0  0  0  0  0  0  0  0  0  0
   10.0142  -15.4602   27.7957 O   0  0  0  0  0  0  0  0  0  0  0  0
  2  3  1  0
  2  1  1  6
  4  2  1  0
  4  5  1  6
  6  4  1  0
  6  8  1  0
  7  6  2  0
  9  8  1  0
  9 12  1  0
  9 10  1  1
 11 10  1  0
 12 19  1  0
 13 12  2  0
 15 14  1  0
 16 17  1  1
 16 15  1  0
 18 20  1  0
 18 16  1  0
 18 19  1  6
 20 22  1  0
 21 20  2  0
M  END
$$$$
