TCI.pdb
     RDKit          3D

 22 21  0  0  1  0  0  0  0  0999 V2000
   10.8036  -13.8965   17.6695 C   0  0  0  0  0  0  0  0  0  0  0  0
   10.1230  -14.2154   18.9730 C   0  0  1  0  0  0  0  0  0  0  0  0
   10.5909  -13.3753   19.9749 O   0  0  0  0  0  0  0  0  0  0  0  0
    8.6211  -14.2120   18.8714 C   0  0  2  0  0  0  0  0  0  0  0  0
    8.1527  -12.9410   18.4231 N   0  0  0  0  0  0  0  0  0  0  0  0
    8.0502  -14.5944   20.1989 C   0  0  0  0  0  0  0  0  0  0  0  0
    7.3639  -13.7936   20.8823 O   0  0  0  0  0  0  0  0  0  0  0  0
    8.2591  -15.9007   20.7605 N   0  0  0  0  0  0  0  0  0  0  0  0
    7.7071  -16.2806   22.0418 C   0  0  1  0  0  0  0  0  0  0  0  0
    7.7936  -17.7888   22.2554 C   0  0  0  0  0  0  0  0  0  0  0  0
    7.1298  -18.2704   23.8573 S   0  0  0  0  0  0  0  0  0  0  0  0
    8.3601  -15.5907   23.1684 C   0  0  0  0  0  0  0  0  0  0  0  0
    9.5993  -15.4722   23.3121 O   0  0  0  0  0  0  0  0  0  0  0  0
    6.4128  -11.2275   26.9702 C   0  0  0  0  0  0  0  0  0  0  0  0
    7.4938  -12.2462   26.7094 C   0  0  0  0  0  0  0  0  0  0  0  0
    6.9718  -13.2542   25.7181 C   0  0  2  0  0  0  0  0  0  0  0  0
    5.8408  -14.0330   26.3079 C   0  0  0  0  0  0  0  0  0  0  0  0
    8.0664  -14.1644   25.2052 C   0  0  2  0  0  0  0  0  0  0  0  0
    7.5286  -15.0159   24.1677 N   0  0  0  0  0  0  0  0  0  0  0  0
    8.4913  -15.0183   26.3385 C   0  0  0  0  0  0  0  0  0  0  0  0
    9.1681  -14.5614   27.3009 O   0  0  0  0  0  0  0  0  0  0  0  0
    8.1336  -16.3575   26.3390 O   0  0  0  0  0  0  0  0  0  0  0  0
  2  3  1  0
  2  1  1  6
  4  2  1  0
  4  5  1  1
  6  4  1  0
  6  8  1  0
  7  6  2  0
  9  8  1  0
  9 12  1  0
  9 10  1  1
 11 10  1  0
 12 19  1  0
 13 12  2  0
 15 14  1  0
 16 17  1  1
 16 15  1  0
 18 20  1  0
 18 16  1  0
 18 19  1  6
 20 22  1  0
 21 20  2  0
M  END
$$$$
