TCI.pdb
     RDKit          3D

 22 21  0  0  1  0  0  0  0  0999 V2000
    8.6961  -12.9181   19.8135 C   0  0  0  0  0  0  0  0  0  0  0  0
    8.1246  -13.7552   18.7015 C   0  0  1  0  0  0  0  0  0  0  0  0
    8.7278  -13.4242   17.4952 O   0  0  0  0  0  0  0  0  0  0  0  0
    8.1774  -15.2323   18.9870 C   0  0  2  0  0  0  0  0  0  0  0  0
    7.6566  -15.9740   17.8850 N   0  0  0  0  0  0  0  0  0  0  0  0
    7.4362  -15.5016   20.2569 C   0  0  0  0  0  0  0  0  0  0  0  0
    6.2066  -15.7614   20.2660 O   0  0  0  0  0  0  0  0  0  0  0  0
    8.0955  -15.4763   21.5337 N   0  0  0  0  0  0  0  0  0  0  0  0
    7.4691  -15.9947   22.7293 C   0  0  1  0  0  0  0  0  0  0  0  0
    7.2365  -17.4989   22.6235 C   0  0  0  0  0  0  0  0  0  0  0  0
    6.7230  -18.2025   24.1982 S   0  0  0  0  0  0  0  0  0  0  0  0
    8.2461  -15.7064   23.9479 C   0  0  0  0  0  0  0  0  0  0  0  0
    9.4324  -16.0616   24.1395 O   0  0  0  0  0  0  0  0  0  0  0  0
    5.7686  -11.6110   26.6016 C   0  0  0  0  0  0  0  0  0  0  0  0
    6.7824  -12.4122   25.8238 C   0  0  0  0  0  0  0  0  0  0  0  0
    7.4734  -13.3582   26.7718 C   0  0  2  0  0  0  0  0  0  0  0  0
    8.2297  -12.5983   27.8130 C   0  0  0  0  0  0  0  0  0  0  0  0
    8.3640  -14.3409   26.0433 C   0  0  2  0  0  0  0  0  0  0  0  0
    7.6082  -14.9723   24.9846 N   0  0  0  0  0  0  0  0  0  0  0  0
    8.7587  -15.3810   27.0214 C   0  0  0  0  0  0  0  0  0  0  0  0
    8.0967  -16.4458   27.1664 O   0  0  0  0  0  0  0  0  0  0  0  0
    9.8882  -15.1758   27.7983 O   0  0  0  0  0  0  0  0  0  0  0  0
  2  3  1  0
  2  1  1  1
  4  2  1  0
  4  5  1  6
  6  4  1  0
  6  8  1  0
  7  6  2  0
  9  8  1  0
  9 12  1  0
  9 10  1  6
 11 10  1  0
 12 19  1  0
 13 12  2  0
 15 14  1  0
 16 17  1  1
 16 15  1  0
 18 20  1  0
 18 16  1  0
 18 19  1  6
 20 22  1  0
 21 20  2  0
M  END
$$$$
