HKW.pdb
     RDKit          3D

 34 36  0  0  1  0  0  0  0  0999 V2000
   23.6351  -26.9854  -16.0578 N   0  0  0  0  0  0  0  0  0  0  0  0
   23.2181  -25.6371  -15.7474 C   0  0  1  0  0  0  0  0  0  0  0  0
   22.0046  -25.6307  -14.8665 C   0  0  0  0  0  0  0  0  0  0  0  0
   20.8207  -26.2062  -15.5934 C   0  0  0  0  0  0  0  0  0  0  0  0
   20.0843  -27.3136  -15.2042 C   0  0  0  0  0  0  0  0  0  0  0  0
   19.1217  -27.5162  -16.0952 N   0  0  0  0  0  0  0  0  0  0  0  0
   19.2433  -26.5564  -17.0328 C   0  0  0  0  0  0  0  0  0  0  0  0
   20.2710  -25.7582  -16.7357 N   0  0  0  0  0  0  0  0  0  0  0  0
   24.3566  -24.8534  -15.2322 C   0  0  0  0  0  0  0  0  0  0  0  0
   25.1302  -25.2547  -14.3329 O   0  0  0  0  0  0  0  0  0  0  0  0
   24.5992  -23.5653  -15.7815 N   0  0  0  0  0  0  0  0  0  0  0  0
   25.7376  -22.7468  -15.3059 C   0  0  1  0  0  0  0  0  0  0  0  0
   25.9668  -21.6350  -16.2767 C   0  0  0  0  0  0  0  0  0  0  0  0
   27.3231  -21.0307  -16.1132 C   0  0  0  0  0  0  0  0  0  0  0  0
   28.4130  -21.9135  -16.7139 C   0  0  0  0  0  0  0  0  0  0  0  0
   29.7692  -21.2768  -16.6528 C   0  0  0  0  0  0  0  0  0  0  0  0
   30.8183  -22.1897  -17.0810 N   0  0  0  0  0  0  0  0  0  0  0  0
   25.3248  -22.2067  -14.0017 C   0  0  0  0  0  0  0  0  0  0  0  0
   24.1352  -21.7428  -13.9042 O   0  0  0  0  0  0  0  0  0  0  0  0
   26.0957  -22.1471  -12.8297 N   0  0  0  0  0  0  0  0  0  0  0  0
   25.5635  -21.5504  -11.5908 C   0  0  1  0  0  0  0  0  0  0  0  0
   26.4805  -21.9614  -10.4943 C   0  0  0  0  0  0  0  0  0  0  0  0
   26.5832  -21.0143   -9.3853 C   0  0  0  0  0  0  0  0  0  0  0  0
   25.6004  -20.1141   -8.9409 C   0  0  0  0  0  0  0  0  0  0  0  0
   26.0972  -19.4027   -7.9169 N   0  0  0  0  0  0  0  0  0  0  0  0
   27.3522  -19.7776   -7.6540 C   0  0  0  0  0  0  0  0  0  0  0  0
   28.2372  -19.3397   -6.6960 C   0  0  0  0  0  0  0  0  0  0  0  0
   29.4844  -19.9229   -6.6367 C   0  0  0  0  0  0  0  0  0  0  0  0
   29.8607  -20.9317   -7.5144 C   0  0  0  0  0  0  0  0  0  0  0  0
   28.9353  -21.3238   -8.4463 C   0  0  0  0  0  0  0  0  0  0  0  0
   27.6721  -20.7651   -8.5416 C   0  0  0  0  0  0  0  0  0  0  0  0
   25.2497  -20.1424  -11.7294 C   0  0  0  0  0  0  0  0  0  0  0  0
   25.9583  -19.3269  -12.4057 O   0  0  0  0  0  0  0  0  0  0  0  0
   24.1091  -19.6306  -11.0932 O   0  0  0  0  0  0  0  0  0  0  0  0
  2  1  1  1
  2  3  1  0
  3  4  1  0
  4  5  2  0
  4  8  1  0
  5  6  1  0
  6  7  1  0
  8  7  2  0
  9  2  1  0
  9 10  2  0
 11  9  1  0
 12 11  1  0
 12 13  1  6
 13 14  1  0
 14 15  1  0
 16 15  1  0
 17 16  1  0
 18 12  1  0
 19 18  2  0
 20 18  1  0
 21 20  1  0
 21 22  1  1
 22 23  1  0
 23 31  1  0
 24 23  2  0
 24 25  1  0
 25 26  1  0
 26 27  1  0
 27 28  2  0
 29 28  1  0
 30 29  2  0
 31 26  2  0
 31 30  1  0
 32 21  1  0
 32 34  1  0
 33 32  2  0
M  END
$$$$
