HKW.pdb
     RDKit          3D

 34 36  0  0  1  0  0  0  0  0999 V2000
   22.9917  -23.9109  -21.9148 N   0  0  0  0  0  0  0  0  0  0  0  0
   21.6467  -23.4348  -22.1440 C   0  0  1  0  0  0  0  0  0  0  0  0
   20.7013  -24.5714  -22.3948 C   0  0  0  0  0  0  0  0  0  0  0  0
   21.1037  -25.3313  -23.6283 C   0  0  0  0  0  0  0  0  0  0  0  0
   21.3832  -26.6868  -23.6961 C   0  0  0  0  0  0  0  0  0  0  0  0
   21.7013  -26.9912  -24.9482 N   0  0  0  0  0  0  0  0  0  0  0  0
   21.6257  -25.8517  -25.6629 C   0  0  0  0  0  0  0  0  0  0  0  0
   21.2639  -24.8408  -24.8699 N   0  0  0  0  0  0  0  0  0  0  0  0
   21.2352  -22.5191  -21.0633 C   0  0  0  0  0  0  0  0  0  0  0  0
   21.1873  -22.8428  -19.8545 O   0  0  0  0  0  0  0  0  0  0  0  0
   20.8689  -21.1885  -21.4024 N   0  0  0  0  0  0  0  0  0  0  0  0
   20.5679  -20.1980  -20.3440 C   0  0  1  0  0  0  0  0  0  0  0  0
   20.9779  -18.8443  -20.8241 C   0  0  0  0  0  0  0  0  0  0  0  0
   22.3627  -18.4985  -20.3831 C   0  0  0  0  0  0  0  0  0  0  0  0
   22.7484  -17.0788  -20.7878 C   0  0  0  0  0  0  0  0  0  0  0  0
   24.1365  -16.7131  -20.3547 C   0  0  0  0  0  0  0  0  0  0  0  0
   24.4560  -15.3279  -20.6655 N   0  0  0  0  0  0  0  0  0  0  0  0
   19.1109  -20.2495  -20.1504 C   0  0  0  0  0  0  0  0  0  0  0  0
   18.3777  -20.3167  -21.1982 O   0  0  0  0  0  0  0  0  0  0  0  0
   18.4202  -20.2410  -18.9280 N   0  0  0  0  0  0  0  0  0  0  0  0
   16.9476  -20.1847  -18.8791 C   0  0  1  0  0  0  0  0  0  0  0  0
   16.5028  -21.3789  -18.1122 C   0  0  0  0  0  0  0  0  0  0  0  0
   15.0539  -21.5365  -17.9971 C   0  0  0  0  0  0  0  0  0  0  0  0
   14.1462  -21.8387  -19.0259 C   0  0  0  0  0  0  0  0  0  0  0  0
   12.9061  -21.8677  -18.5134 N   0  0  0  0  0  0  0  0  0  0  0  0
   12.9361  -21.6033  -17.2042 C   0  0  0  0  0  0  0  0  0  0  0  0
   11.9205  -21.5400  -16.2784 C   0  0  0  0  0  0  0  0  0  0  0  0
   12.2416  -21.2599  -14.9678 C   0  0  0  0  0  0  0  0  0  0  0  0
   13.5542  -21.0429  -14.5684 C   0  0  0  0  0  0  0  0  0  0  0  0
   14.5207  -21.1190  -15.5372 C   0  0  0  0  0  0  0  0  0  0  0  0
   14.2428  -21.3970  -16.8647 C   0  0  0  0  0  0  0  0  0  0  0  0
   16.4433  -18.8866  -18.4781 C   0  0  0  0  0  0  0  0  0  0  0  0
   17.0938  -18.0764  -17.7400 O   0  0  0  0  0  0  0  0  0  0  0  0
   15.1737  -18.4817  -18.9159 O   0  0  0  0  0  0  0  0  0  0  0  0
  2  1  1  1
  2  3  1  0
  3  4  1  0
  4  5  2  0
  4  8  1  0
  5  6  1  0
  6  7  1  0
  8  7  2  0
  9  2  1  0
  9 10  2  0
 11  9  1  0
 12 11  1  0
 12 13  1  6
 13 14  1  0
 14 15  1  0
 16 15  1  0
 17 16  1  0
 18 12  1  0
 19 18  2  0
 20 18  1  0
 21 20  1  0
 21 22  1  1
 22 23  1  0
 23 31  1  0
 24 23  2  0
 24 25  1  0
 25 26  1  0
 26 27  1  0
 27 28  2  0
 29 28  1  0
 30 29  2  0
 31 26  2  0
 31 30  1  0
 32 21  1  0
 32 34  1  0
 33 32  2  0
M  END
$$$$
