HKW.pdb
     RDKit          3D

 34 36  0  0  1  0  0  0  0  0999 V2000
   26.9760  -25.7042  -16.0196 N   0  0  0  0  0  0  0  0  0  0  0  0
   27.1285  -26.6793  -17.0752 C   0  0  1  0  0  0  0  0  0  0  0  0
   27.6711  -26.0508  -18.3238 C   0  0  0  0  0  0  0  0  0  0  0  0
   26.7485  -24.9701  -18.8156 C   0  0  0  0  0  0  0  0  0  0  0  0
   25.4529  -25.1499  -19.2733 C   0  0  0  0  0  0  0  0  0  0  0  0
   24.9590  -23.9679  -19.6206 N   0  0  0  0  0  0  0  0  0  0  0  0
   25.9214  -23.0542  -19.3884 C   0  0  0  0  0  0  0  0  0  0  0  0
   27.0094  -23.6538  -18.9003 N   0  0  0  0  0  0  0  0  0  0  0  0
   27.8921  -27.8448  -16.5910 C   0  0  0  0  0  0  0  0  0  0  0  0
   28.9133  -27.7601  -15.8713 O   0  0  0  0  0  0  0  0  0  0  0  0
   27.4518  -29.1455  -16.9571 N   0  0  0  0  0  0  0  0  0  0  0  0
   28.0775  -30.3473  -16.3602 C   0  0  1  0  0  0  0  0  0  0  0  0
   27.0103  -31.3543  -16.0810 C   0  0  0  0  0  0  0  0  0  0  0  0
   27.5687  -32.5914  -15.4569 C   0  0  0  0  0  0  0  0  0  0  0  0
   26.4750  -33.6028  -15.1267 C   0  0  0  0  0  0  0  0  0  0  0  0
   26.9994  -34.7985  -14.3893 C   0  0  0  0  0  0  0  0  0  0  0  0
   25.9555  -35.7788  -14.1308 N   0  0  0  0  0  0  0  0  0  0  0  0
   29.0081  -30.8606  -17.3767 C   0  0  0  0  0  0  0  0  0  0  0  0
   28.6428  -30.7891  -18.6020 O   0  0  0  0  0  0  0  0  0  0  0  0
   30.2756  -31.4225  -17.1549 N   0  0  0  0  0  0  0  0  0  0  0  0
   31.1064  -31.9071  -18.2725 C   0  0  1  0  0  0  0  0  0  0  0  0
   32.4676  -32.1387  -17.7197 C   0  0  0  0  0  0  0  0  0  0  0  0
   33.4892  -32.4747  -18.7101 C   0  0  0  0  0  0  0  0  0  0  0  0
   33.6281  -31.9441  -20.0035 C   0  0  0  0  0  0  0  0  0  0  0  0
   34.6742  -32.5341  -20.6026 N   0  0  0  0  0  0  0  0  0  0  0  0
   35.2393  -33.4253  -19.7833 C   0  0  0  0  0  0  0  0  0  0  0  0
   36.3301  -34.2440  -19.9637 C   0  0  0  0  0  0  0  0  0  0  0  0
   36.7129  -35.0678  -18.9273 C   0  0  0  0  0  0  0  0  0  0  0  0
   36.0274  -35.0872  -17.7192 C   0  0  0  0  0  0  0  0  0  0  0  0
   34.9492  -34.2492  -17.6013 C   0  0  0  0  0  0  0  0  0  0  0  0
   34.5298  -33.4064  -18.6164 C   0  0  0  0  0  0  0  0  0  0  0  0
   30.4801  -32.9783  -19.0212 C   0  0  0  0  0  0  0  0  0  0  0  0
   30.5365  -33.0757  -20.2907 O   0  0  0  0  0  0  0  0  0  0  0  0
   29.7698  -33.9708  -18.3299 O   0  0  0  0  0  0  0  0  0  0  0  0
  2  1  1  1
  2  3  1  0
  3  4  1  0
  4  5  2  0
  4  8  1  0
  5  6  1  0
  6  7  1  0
  8  7  2  0
  9  2  1  0
  9 10  2  0
 11  9  1  0
 12 11  1  0
 12 13  1  6
 13 14  1  0
 14 15  1  0
 16 15  1  0
 17 16  1  0
 18 12  1  0
 19 18  2  0
 20 18  1  0
 21 20  1  0
 21 22  1  1
 22 23  1  0
 23 31  1  0
 24 23  2  0
 24 25  1  0
 25 26  1  0
 26 27  1  0
 27 28  2  0
 29 28  1  0
 30 29  2  0
 31 26  2  0
 31 30  1  0
 32 21  1  0
 32 34  1  0
 33 32  2  0
M  END
$$$$
