HKW.pdb
     RDKit          3D

 34 36  0  0  1  0  0  0  0  0999 V2000
   19.9026  -21.1383  -14.1781 N   0  0  0  0  0  0  0  0  0  0  0  0
   20.9132  -20.2478  -13.6547 C   0  0  1  0  0  0  0  0  0  0  0  0
   20.3703  -19.4001  -12.5432 C   0  0  0  0  0  0  0  0  0  0  0  0
   19.3843  -18.3977  -13.0761 C   0  0  0  0  0  0  0  0  0  0  0  0
   19.0180  -18.2404  -14.4033 C   0  0  0  0  0  0  0  0  0  0  0  0
   18.1288  -17.2582  -14.4833 N   0  0  0  0  0  0  0  0  0  0  0  0
   17.9333  -16.7997  -13.2316 C   0  0  0  0  0  0  0  0  0  0  0  0
   18.6908  -17.4854  -12.3728 N   0  0  0  0  0  0  0  0  0  0  0  0
   22.1346  -21.0013  -13.3136 C   0  0  0  0  0  0  0  0  0  0  0  0
   22.1540  -21.9864  -12.5408 O   0  0  0  0  0  0  0  0  0  0  0  0
   23.3678  -20.5937  -13.8903 N   0  0  0  0  0  0  0  0  0  0  0  0
   24.6338  -21.2592  -13.5073 C   0  0  1  0  0  0  0  0  0  0  0  0
   25.6577  -20.9823  -14.5590 C   0  0  0  0  0  0  0  0  0  0  0  0
   26.9585  -21.6494  -14.2517 C   0  0  0  0  0  0  0  0  0  0  0  0
   27.9871  -21.4209  -15.3553 C   0  0  0  0  0  0  0  0  0  0  0  0
   29.2882  -22.1148  -15.0831 C   0  0  0  0  0  0  0  0  0  0  0  0
   30.1909  -22.0441  -16.2221 N   0  0  0  0  0  0  0  0  0  0  0  0
   25.0367  -20.6486  -12.2314 C   0  0  0  0  0  0  0  0  0  0  0  0
   24.7732  -19.4070  -12.0614 O   0  0  0  0  0  0  0  0  0  0  0  0
   25.6811  -21.2831  -11.1575 N   0  0  0  0  0  0  0  0  0  0  0  0
   26.0746  -20.5358   -9.9488 C   0  0  1  0  0  0  0  0  0  0  0  0
   26.6716  -21.5261   -9.0135 C   0  0  0  0  0  0  0  0  0  0  0  0
   27.1795  -20.9674   -7.7615 C   0  0  0  0  0  0  0  0  0  0  0  0
   26.4943  -20.1343   -6.8613 C   0  0  0  0  0  0  0  0  0  0  0  0
   27.3196  -19.8185   -5.8511 N   0  0  0  0  0  0  0  0  0  0  0  0
   28.5128  -20.3932   -6.0264 C   0  0  0  0  0  0  0  0  0  0  0  0
   29.6469  -20.3608   -5.2483 C   0  0  0  0  0  0  0  0  0  0  0  0
   30.7513  -21.0720   -5.6653 C   0  0  0  0  0  0  0  0  0  0  0  0
   30.7417  -21.8116   -6.8411 C   0  0  0  0  0  0  0  0  0  0  0  0
   29.5826  -21.8036   -7.5725 C   0  0  0  0  0  0  0  0  0  0  0  0
   28.4508  -21.1032   -7.1914 C   0  0  0  0  0  0  0  0  0  0  0  0
   26.8279  -19.3339  -10.2460 C   0  0  0  0  0  0  0  0  0  0  0  0
   26.6619  -18.2297   -9.6316 O   0  0  0  0  0  0  0  0  0  0  0  0
   27.7964  -19.3677  -11.2601 O   0  0  0  0  0  0  0  0  0  0  0  0
  2  1  1  1
  2  3  1  0
  3  4  1  0
  4  5  2  0
  4  8  1  0
  5  6  1  0
  6  7  1  0
  8  7  2  0
  9  2  1  0
  9 10  2  0
 11  9  1  0
 12 11  1  0
 12 13  1  6
 13 14  1  0
 14 15  1  0
 16 15  1  0
 17 16  1  0
 18 12  1  0
 19 18  2  0
 20 18  1  0
 21 20  1  0
 21 22  1  1
 22 23  1  0
 23 31  1  0
 24 23  2  0
 24 25  1  0
 25 26  1  0
 26 27  1  0
 27 28  2  0
 29 28  1  0
 30 29  2  0
 31 26  2  0
 31 30  1  0
 32 21  1  0
 32 34  1  0
 33 32  2  0
M  END
$$$$
