HKW.pdb
     RDKit          3D

 34 36  0  0  1  0  0  0  0  0999 V2000
   27.3615  -19.8958  -18.4634 N   0  0  0  0  0  0  0  0  0  0  0  0
   27.4636  -19.8389  -17.0230 C   0  0  1  0  0  0  0  0  0  0  0  0
   27.7456  -18.4438  -16.5510 C   0  0  0  0  0  0  0  0  0  0  0  0
   29.0512  -17.9502  -17.1104 C   0  0  0  0  0  0  0  0  0  0  0  0
   29.8996  -18.6580  -17.9467 C   0  0  0  0  0  0  0  0  0  0  0  0
   30.9496  -17.8962  -18.2275 N   0  0  0  0  0  0  0  0  0  0  0  0
   30.7725  -16.7267  -17.5825 C   0  0  0  0  0  0  0  0  0  0  0  0
   29.6239  -16.7515  -16.9031 N   0  0  0  0  0  0  0  0  0  0  0  0
   26.2870  -20.4734  -16.3995 C   0  0  0  0  0  0  0  0  0  0  0  0
   25.1407  -19.9694  -16.3984 O   0  0  0  0  0  0  0  0  0  0  0  0
   26.4527  -21.7312  -15.7591 N   0  0  0  0  0  0  0  0  0  0  0  0
   25.2962  -22.4191  -15.1415 C   0  0  1  0  0  0  0  0  0  0  0  0
   25.5546  -23.8903  -15.1477 C   0  0  0  0  0  0  0  0  0  0  0  0
   25.7220  -24.4152  -16.5362 C   0  0  0  0  0  0  0  0  0  0  0  0
   26.8853  -25.3976  -16.6343 C   0  0  0  0  0  0  0  0  0  0  0  0
   27.1058  -25.8920  -18.0326 C   0  0  0  0  0  0  0  0  0  0  0  0
   28.1857  -26.8649  -18.1014 N   0  0  0  0  0  0  0  0  0  0  0  0
   25.2254  -21.9207  -13.7596 C   0  0  0  0  0  0  0  0  0  0  0  0
   26.2720  -22.0452  -13.0323 O   0  0  0  0  0  0  0  0  0  0  0  0
   24.1261  -21.3069  -13.1382 N   0  0  0  0  0  0  0  0  0  0  0  0
   24.0659  -21.1417  -11.6742 C   0  0  1  0  0  0  0  0  0  0  0  0
   24.9815  -20.0195  -11.3361 C   0  0  0  0  0  0  0  0  0  0  0  0
   26.3123  -20.4211  -10.8831 C   0  0  0  0  0  0  0  0  0  0  0  0
   27.3870  -20.8545  -11.6773 C   0  0  0  0  0  0  0  0  0  0  0  0
   28.4219  -21.1551  -10.8773 N   0  0  0  0  0  0  0  0  0  0  0  0
   28.0986  -20.9462   -9.5981 C   0  0  0  0  0  0  0  0  0  0  0  0
   28.8384  -21.1032   -8.4488 C   0  0  0  0  0  0  0  0  0  0  0  0
   28.2518  -20.7921   -7.2412 C   0  0  0  0  0  0  0  0  0  0  0  0
   26.9446  -20.3288   -7.1628 C   0  0  0  0  0  0  0  0  0  0  0  0
   26.2596  -20.1942   -8.3423 C   0  0  0  0  0  0  0  0  0  0  0  0
   26.8095  -20.4956   -9.5766 C   0  0  0  0  0  0  0  0  0  0  0  0
   22.7100  -21.0965  -11.1644 C   0  0  0  0  0  0  0  0  0  0  0  0
   22.4262  -20.9128   -9.9356 O   0  0  0  0  0  0  0  0  0  0  0  0
   21.6391  -21.2609  -12.0553 O   0  0  0  0  0  0  0  0  0  0  0  0
  2  1  1  6
  2  3  1  0
  3  4  1  0
  4  5  2  0
  4  8  1  0
  5  6  1  0
  6  7  1  0
  8  7  2  0
  9  2  1  0
  9 10  2  0
 11  9  1  0
 12 11  1  0
 12 13  1  1
 13 14  1  0
 14 15  1  0
 16 15  1  0
 17 16  1  0
 18 12  1  0
 19 18  2  0
 20 18  1  0
 21 20  1  0
 21 22  1  6
 22 23  1  0
 23 31  1  0
 24 23  2  0
 24 25  1  0
 25 26  1  0
 26 27  1  0
 27 28  2  0
 29 28  1  0
 30 29  2  0
 31 26  2  0
 31 30  1  0
 32 21  1  0
 32 34  1  0
 33 32  2  0
M  END
$$$$
