HKW.pdb
     RDKit          3D

 34 36  0  0  1  0  0  0  0  0999 V2000
   21.6775  -19.4140  -14.9754 N   0  0  0  0  0  0  0  0  0  0  0  0
   22.5230  -18.8385  -13.9545 C   0  0  1  0  0  0  0  0  0  0  0  0
   21.7113  -18.2934  -12.8176 C   0  0  0  0  0  0  0  0  0  0  0  0
   20.7056  -17.2936  -13.3177 C   0  0  0  0  0  0  0  0  0  0  0  0
   20.5315  -16.9015  -14.6353 C   0  0  0  0  0  0  0  0  0  0  0  0
   19.5536  -16.0055  -14.6844 N   0  0  0  0  0  0  0  0  0  0  0  0
   19.1142  -15.8310  -13.4228 C   0  0  0  0  0  0  0  0  0  0  0  0
   19.8076  -16.6085  -12.5884 N   0  0  0  0  0  0  0  0  0  0  0  0
   23.5729  -19.7957  -13.5577 C   0  0  0  0  0  0  0  0  0  0  0  0
   23.3398  -20.9170  -13.0513 O   0  0  0  0  0  0  0  0  0  0  0  0
   24.9327  -19.4343  -13.7571 N   0  0  0  0  0  0  0  0  0  0  0  0
   26.0131  -20.4241  -13.5449 C   0  0  1  0  0  0  0  0  0  0  0  0
   27.1679  -20.0684  -14.4230 C   0  0  0  0  0  0  0  0  0  0  0  0
   28.2792  -21.0593  -14.3014 C   0  0  0  0  0  0  0  0  0  0  0  0
   28.4106  -21.9200  -15.5544 C   0  0  0  0  0  0  0  0  0  0  0  0
   29.5609  -22.8787  -15.4771 C   0  0  0  0  0  0  0  0  0  0  0  0
   29.6688  -23.6964  -16.6760 N   0  0  0  0  0  0  0  0  0  0  0  0
   26.3940  -20.3035  -12.1295 C   0  0  0  0  0  0  0  0  0  0  0  0
   26.3904  -19.1310  -11.6146 O   0  0  0  0  0  0  0  0  0  0  0  0
   26.7597  -21.3446  -11.2613 N   0  0  0  0  0  0  0  0  0  0  0  0
   27.0905  -21.0848   -9.8481 C   0  0  1  0  0  0  0  0  0  0  0  0
   26.5298  -19.7467   -9.5204 C   0  0  0  0  0  0  0  0  0  0  0  0
   27.0570  -19.1362   -8.3011 C   0  0  0  0  0  0  0  0  0  0  0  0
   27.0801  -17.7699   -7.9745 C   0  0  0  0  0  0  0  0  0  0  0  0
   27.6728  -17.6212   -6.7795 N   0  0  0  0  0  0  0  0  0  0  0  0
   28.0444  -18.8082   -6.2922 C   0  0  0  0  0  0  0  0  0  0  0  0
   28.6653  -19.1378   -5.1096 C   0  0  0  0  0  0  0  0  0  0  0  0
   28.9199  -20.4667   -4.8482 C   0  0  0  0  0  0  0  0  0  0  0  0
   28.5660  -21.4674   -5.7443 C   0  0  0  0  0  0  0  0  0  0  0  0
   27.9510  -21.0755   -6.9048 C   0  0  0  0  0  0  0  0  0  0  0  0
   27.6770  -19.7526   -7.2078 C   0  0  0  0  0  0  0  0  0  0  0  0
   26.7647  -22.1958   -8.9764 C   0  0  0  0  0  0  0  0  0  0  0  0
   25.7285  -22.9235   -9.1216 O   0  0  0  0  0  0  0  0  0  0  0  0
   27.6236  -22.5030   -7.9108 O   0  0  0  0  0  0  0  0  0  0  0  0
  2  1  1  6
  2  3  1  0
  3  4  1  0
  4  5  2  0
  4  8  1  0
  5  6  1  0
  6  7  1  0
  8  7  2  0
  9  2  1  0
  9 10  2  0
 11  9  1  0
 12 11  1  0
 12 13  1  6
 13 14  1  0
 14 15  1  0
 16 15  1  0
 17 16  1  0
 18 12  1  0
 19 18  2  0
 20 18  1  0
 21 20  1  0
 21 22  1  1
 22 23  1  0
 23 31  1  0
 24 23  2  0
 24 25  1  0
 25 26  1  0
 26 27  1  0
 27 28  2  0
 29 28  1  0
 30 29  2  0
 31 26  2  0
 31 30  1  0
 32 21  1  0
 32 34  1  0
 33 32  2  0
M  END
$$$$
