HKW.pdb
     RDKit          3D

 34 36  0  0  1  0  0  0  0  0999 V2000
   26.3734  -19.5336  -15.9335 N   0  0  0  0  0  0  0  0  0  0  0  0
   26.6869  -18.4948  -14.9790 C   0  0  1  0  0  0  0  0  0  0  0  0
   26.6882  -17.1421  -15.6260 C   0  0  0  0  0  0  0  0  0  0  0  0
   27.8239  -17.0252  -16.6046 C   0  0  0  0  0  0  0  0  0  0  0  0
   28.7314  -18.0226  -16.9235 C   0  0  0  0  0  0  0  0  0  0  0  0
   29.5847  -17.5469  -17.8219 N   0  0  0  0  0  0  0  0  0  0  0  0
   29.2270  -16.2718  -18.0697 C   0  0  0  0  0  0  0  0  0  0  0  0
   28.1603  -15.9481  -17.3356 N   0  0  0  0  0  0  0  0  0  0  0  0
   25.8180  -18.6087  -13.7925 C   0  0  0  0  0  0  0  0  0  0  0  0
   25.6642  -17.6952  -12.9498 O   0  0  0  0  0  0  0  0  0  0  0  0
   25.1089  -19.8223  -13.5832 N   0  0  0  0  0  0  0  0  0  0  0  0
   24.2198  -19.9815  -12.4101 C   0  0  1  0  0  0  0  0  0  0  0  0
   23.1013  -20.9007  -12.7780 C   0  0  0  0  0  0  0  0  0  0  0  0
   22.4616  -20.5025  -14.0679 C   0  0  0  0  0  0  0  0  0  0  0  0
   21.2927  -21.4154  -14.4262 C   0  0  0  0  0  0  0  0  0  0  0  0
   20.7201  -21.1146  -15.7790 C   0  0  0  0  0  0  0  0  0  0  0  0
   19.6705  -22.0531  -16.1462 N   0  0  0  0  0  0  0  0  0  0  0  0
   25.0502  -20.5863  -11.3577 C   0  0  0  0  0  0  0  0  0  0  0  0
   26.2072  -21.0199  -11.6943 O   0  0  0  0  0  0  0  0  0  0  0  0
   24.7177  -20.7386  -10.0022 N   0  0  0  0  0  0  0  0  0  0  0  0
   25.7406  -21.0717   -8.9938 C   0  0  1  0  0  0  0  0  0  0  0  0
   26.8201  -20.0582   -9.1341 C   0  0  0  0  0  0  0  0  0  0  0  0
   28.0030  -20.2953   -8.3082 C   0  0  0  0  0  0  0  0  0  0  0  0
   29.1585  -21.0118   -8.6620 C   0  0  0  0  0  0  0  0  0  0  0  0
   29.9983  -21.0217   -7.6151 N   0  0  0  0  0  0  0  0  0  0  0  0
   29.4693  -20.3533   -6.5864 C   0  0  0  0  0  0  0  0  0  0  0  0
   29.9703  -20.0957   -5.3313 C   0  0  0  0  0  0  0  0  0  0  0  0
   29.2062  -19.3526   -4.4577 C   0  0  0  0  0  0  0  0  0  0  0  0
   27.9558  -18.8647   -4.8153 C   0  0  0  0  0  0  0  0  0  0  0  0
   27.5118  -19.1554   -6.0791 C   0  0  0  0  0  0  0  0  0  0  0  0
   28.2458  -19.8983   -6.9879 C   0  0  0  0  0  0  0  0  0  0  0  0
   25.1834  -21.3007   -7.6757 C   0  0  0  0  0  0  0  0  0  0  0  0
   24.2680  -20.5769   -7.1635 O   0  0  0  0  0  0  0  0  0  0  0  0
   25.6637  -22.3714   -6.9073 O   0  0  0  0  0  0  0  0  0  0  0  0
  2  1  1  6
  2  3  1  0
  3  4  1  0
  4  5  2  0
  4  8  1  0
  5  6  1  0
  6  7  1  0
  8  7  2  0
  9  2  1  0
  9 10  2  0
 11  9  1  0
 12 11  1  0
 12 13  1  6
 13 14  1  0
 14 15  1  0
 16 15  1  0
 17 16  1  0
 18 12  1  0
 19 18  2  0
 20 18  1  0
 21 20  1  0
 21 22  1  1
 22 23  1  0
 23 31  1  0
 24 23  2  0
 24 25  1  0
 25 26  1  0
 26 27  1  0
 27 28  2  0
 29 28  1  0
 30 29  2  0
 31 26  2  0
 31 30  1  0
 32 21  1  0
 32 34  1  0
 33 32  2  0
M  END
$$$$
