HKW.pdb
     RDKit          3D

 34 36  0  0  1  0  0  0  0  0999 V2000
   26.7452  -16.3701  -19.0831 N   0  0  0  0  0  0  0  0  0  0  0  0
   27.1593  -16.8547  -17.7862 C   0  0  1  0  0  0  0  0  0  0  0  0
   28.3154  -16.0630  -17.2519 C   0  0  0  0  0  0  0  0  0  0  0  0
   29.5309  -16.2534  -18.1163 C   0  0  0  0  0  0  0  0  0  0  0  0
   29.5993  -17.0174  -19.2703 C   0  0  0  0  0  0  0  0  0  0  0  0
   30.8330  -16.9439  -19.7541 N   0  0  0  0  0  0  0  0  0  0  0  0
   31.5358  -16.1486  -18.9241 C   0  0  0  0  0  0  0  0  0  0  0  0
   30.7534  -15.7260  -17.9287 N   0  0  0  0  0  0  0  0  0  0  0  0
   26.0010  -16.9423  -16.8770 C   0  0  0  0  0  0  0  0  0  0  0  0
   25.5236  -15.9638  -16.2583 O   0  0  0  0  0  0  0  0  0  0  0  0
   25.3825  -18.2072  -16.6842 N   0  0  0  0  0  0  0  0  0  0  0  0
   24.1740  -18.3326  -15.8381 C   0  0  1  0  0  0  0  0  0  0  0  0
   22.9834  -18.4976  -16.7249 C   0  0  0  0  0  0  0  0  0  0  0  0
   21.7217  -18.6288  -15.9359 C   0  0  0  0  0  0  0  0  0  0  0  0
   20.5167  -18.8923  -16.8339 C   0  0  0  0  0  0  0  0  0  0  0  0
   19.2245  -18.9120  -16.0734 C   0  0  0  0  0  0  0  0  0  0  0  0
   18.0758  -19.0466  -16.9564 N   0  0  0  0  0  0  0  0  0  0  0  0
   24.3767  -19.5431  -15.0279 C   0  0  0  0  0  0  0  0  0  0  0  0
   25.2957  -20.3546  -15.3978 O   0  0  0  0  0  0  0  0  0  0  0  0
   23.6716  -19.9137  -13.8716 N   0  0  0  0  0  0  0  0  0  0  0  0
   24.3195  -20.6773  -12.7894 C   0  0  1  0  0  0  0  0  0  0  0  0
   25.5853  -19.9657  -12.4674 C   0  0  0  0  0  0  0  0  0  0  0  0
   26.3800  -20.5688  -11.3986 C   0  0  0  0  0  0  0  0  0  0  0  0
   27.2234  -21.6883  -11.4930 C   0  0  0  0  0  0  0  0  0  0  0  0
   27.7480  -21.9375  -10.2830 N   0  0  0  0  0  0  0  0  0  0  0  0
   27.3034  -21.0490   -9.3899 C   0  0  0  0  0  0  0  0  0  0  0  0
   27.5798  -20.9094   -8.0495 C   0  0  0  0  0  0  0  0  0  0  0  0
   26.9857  -19.8748   -7.3595 C   0  0  0  0  0  0  0  0  0  0  0  0
   26.1242  -18.9815   -7.9834 C   0  0  0  0  0  0  0  0  0  0  0  0
   25.8884  -19.1735   -9.3198 C   0  0  0  0  0  0  0  0  0  0  0  0
   26.4630  -20.1992  -10.0510 C   0  0  0  0  0  0  0  0  0  0  0  0
   23.4167  -20.9950  -11.7011 C   0  0  0  0  0  0  0  0  0  0  0  0
   22.4862  -20.2173  -11.3091 O   0  0  0  0  0  0  0  0  0  0  0  0
   23.5580  -22.2193  -11.0313 O   0  0  0  0  0  0  0  0  0  0  0  0
  2  1  1  6
  2  3  1  0
  3  4  1  0
  4  5  2  0
  4  8  1  0
  5  6  1  0
  6  7  1  0
  8  7  2  0
  9  2  1  0
  9 10  2  0
 11  9  1  0
 12 11  1  0
 12 13  1  6
 13 14  1  0
 14 15  1  0
 16 15  1  0
 17 16  1  0
 18 12  1  0
 19 18  2  0
 20 18  1  0
 21 20  1  0
 21 22  1  1
 22 23  1  0
 23 31  1  0
 24 23  2  0
 24 25  1  0
 25 26  1  0
 26 27  1  0
 27 28  2  0
 29 28  1  0
 30 29  2  0
 31 26  2  0
 31 30  1  0
 32 21  1  0
 32 34  1  0
 33 32  2  0
M  END
$$$$
