HKW.pdb
     RDKit          3D

 34 36  0  0  1  0  0  0  0  0999 V2000
   20.7495  -11.9062  -19.6878 N   0  0  0  0  0  0  0  0  0  0  0  0
   20.2959  -11.1775  -18.5253 C   0  0  1  0  0  0  0  0  0  0  0  0
   20.8784  -11.7441  -17.2650 C   0  0  0  0  0  0  0  0  0  0  0  0
   20.4401  -13.1698  -17.0744 C   0  0  0  0  0  0  0  0  0  0  0  0
   19.2323  -13.5868  -16.5383 C   0  0  0  0  0  0  0  0  0  0  0  0
   19.2084  -14.9138  -16.5305 N   0  0  0  0  0  0  0  0  0  0  0  0
   20.3781  -15.3328  -17.0515 C   0  0  0  0  0  0  0  0  0  0  0  0
   21.1303  -14.2814  -17.3838 N   0  0  0  0  0  0  0  0  0  0  0  0
   20.5156   -9.7304  -18.7084 C   0  0  0  0  0  0  0  0  0  0  0  0
   21.5899   -9.2338  -19.1177 O   0  0  0  0  0  0  0  0  0  0  0  0
   19.4521   -8.8378  -18.4055 N   0  0  0  0  0  0  0  0  0  0  0  0
   19.5692   -7.3950  -18.7163 C   0  0  1  0  0  0  0  0  0  0  0  0
   18.2717   -6.9204  -19.2842 C   0  0  0  0  0  0  0  0  0  0  0  0
   18.2283   -7.0792  -20.7689 C   0  0  0  0  0  0  0  0  0  0  0  0
   16.9311   -6.5346  -21.3593 C   0  0  0  0  0  0  0  0  0  0  0  0
   16.8433   -6.7368  -22.8425 C   0  0  0  0  0  0  0  0  0  0  0  0
   15.6193   -6.1776  -23.3961 N   0  0  0  0  0  0  0  0  0  0  0  0
   19.8365   -6.7294  -17.4323 C   0  0  0  0  0  0  0  0  0  0  0  0
   18.9995   -6.9208  -16.4822 O   0  0  0  0  0  0  0  0  0  0  0  0
   20.9263   -5.9007  -17.1211 N   0  0  0  0  0  0  0  0  0  0  0  0
   20.9982   -5.1769  -15.8385 C   0  0  1  0  0  0  0  0  0  0  0  0
   22.2689   -5.5930  -15.1873 C   0  0  0  0  0  0  0  0  0  0  0  0
   22.3339   -7.0013  -14.7999 C   0  0  0  0  0  0  0  0  0  0  0  0
   23.1965   -7.9856  -15.3104 C   0  0  0  0  0  0  0  0  0  0  0  0
   22.9195   -9.1551  -14.7128 N   0  0  0  0  0  0  0  0  0  0  0  0
   21.9239   -9.0058  -13.8346 C   0  0  0  0  0  0  0  0  0  0  0  0
   21.3244   -9.9161  -12.9952 C   0  0  0  0  0  0  0  0  0  0  0  0
   20.3138   -9.4800  -12.1659 C   0  0  0  0  0  0  0  0  0  0  0  0
   19.8941   -8.1558  -12.1611 C   0  0  0  0  0  0  0  0  0  0  0  0
   20.5299   -7.2977  -13.0202 C   0  0  0  0  0  0  0  0  0  0  0  0
   21.5486   -7.6931  -13.8703 C   0  0  0  0  0  0  0  0  0  0  0  0
   20.7297   -3.7590  -15.9723 C   0  0  0  0  0  0  0  0  0  0  0  0
   20.5514   -3.1795  -17.0933 O   0  0  0  0  0  0  0  0  0  0  0  0
   20.6578   -2.9652  -14.8181 O   0  0  0  0  0  0  0  0  0  0  0  0
  2  1  1  6
  2  3  1  0
  3  4  1  0
  4  5  2  0
  4  8  1  0
  5  6  1  0
  6  7  1  0
  8  7  2  0
  9  2  1  0
  9 10  2  0
 11  9  1  0
 12 11  1  0
 12 13  1  1
 13 14  1  0
 14 15  1  0
 16 15  1  0
 17 16  1  0
 18 12  1  0
 19 18  2  0
 20 18  1  0
 21 20  1  0
 21 22  1  6
 22 23  1  0
 23 31  1  0
 24 23  2  0
 24 25  1  0
 25 26  1  0
 26 27  1  0
 27 28  2  0
 29 28  1  0
 30 29  2  0
 31 26  2  0
 31 30  1  0
 32 21  1  0
 32 34  1  0
 33 32  2  0
M  END
$$$$
