HKW.pdb
     RDKit          3D

 34 36  0  0  1  0  0  0  0  0999 V2000
   20.5554  -19.8151  -14.6239 N   0  0  0  0  0  0  0  0  0  0  0  0
   21.7825  -19.2194  -14.1465 C   0  0  1  0  0  0  0  0  0  0  0  0
   21.5477  -17.8353  -13.6195 C   0  0  0  0  0  0  0  0  0  0  0  0
   21.1636  -16.9030  -14.7350 C   0  0  0  0  0  0  0  0  0  0  0  0
   21.1009  -17.2247  -16.0814 C   0  0  0  0  0  0  0  0  0  0  0  0
   20.7268  -16.1454  -16.7573 N   0  0  0  0  0  0  0  0  0  0  0  0
   20.5550  -15.1565  -15.8585 C   0  0  0  0  0  0  0  0  0  0  0  0
   20.8178  -15.6079  -14.6302 N   0  0  0  0  0  0  0  0  0  0  0  0
   22.4626  -20.1291  -13.2054 C   0  0  0  0  0  0  0  0  0  0  0  0
   22.0036  -20.4434  -12.0835 O   0  0  0  0  0  0  0  0  0  0  0  0
   23.7134  -20.6877  -13.5838 N   0  0  0  0  0  0  0  0  0  0  0  0
   24.3954  -21.6677  -12.7084 C   0  0  1  0  0  0  0  0  0  0  0  0
   25.2598  -22.5449  -13.5537 C   0  0  0  0  0  0  0  0  0  0  0  0
   24.4705  -23.6308  -14.2088 C   0  0  0  0  0  0  0  0  0  0  0  0
   25.3406  -24.4952  -15.1164 C   0  0  0  0  0  0  0  0  0  0  0  0
   24.5459  -25.5145  -15.8766 C   0  0  0  0  0  0  0  0  0  0  0  0
   25.3875  -26.3218  -16.7468 N   0  0  0  0  0  0  0  0  0  0  0  0
   25.2226  -20.8738  -11.7872 C   0  0  0  0  0  0  0  0  0  0  0  0
   25.7292  -19.7867  -12.2360 O   0  0  0  0  0  0  0  0  0  0  0  0
   25.5191  -21.1720  -10.4477 N   0  0  0  0  0  0  0  0  0  0  0  0
   26.5170  -20.3935   -9.6910 C   0  0  1  0  0  0  0  0  0  0  0  0
   26.1443  -20.5077   -8.2557 C   0  0  0  0  0  0  0  0  0  0  0  0
   27.0245  -19.7978   -7.3290 C   0  0  0  0  0  0  0  0  0  0  0  0
   27.2834  -18.4176   -7.2894 C   0  0  0  0  0  0  0  0  0  0  0  0
   28.1681  -18.1717   -6.3105 N   0  0  0  0  0  0  0  0  0  0  0  0
   28.5120  -19.3073   -5.6966 C   0  0  0  0  0  0  0  0  0  0  0  0
   29.3664  -19.5339   -4.6423 C   0  0  0  0  0  0  0  0  0  0  0  0
   29.5253  -20.8260   -4.1902 C   0  0  0  0  0  0  0  0  0  0  0  0
   28.8479  -21.8907   -4.7709 C   0  0  0  0  0  0  0  0  0  0  0  0
   28.0118  -21.6007   -5.8175 C   0  0  0  0  0  0  0  0  0  0  0  0
   27.8231  -20.3182   -6.3039 C   0  0  0  0  0  0  0  0  0  0  0  0
   27.8815  -20.7004  -10.0707 C   0  0  0  0  0  0  0  0  0  0  0  0
   28.8513  -19.8856   -9.9292 O   0  0  0  0  0  0  0  0  0  0  0  0
   28.1708  -21.9562  -10.6246 O   0  0  0  0  0  0  0  0  0  0  0  0
  2  1  1  1
  2  3  1  0
  3  4  1  0
  4  5  2  0
  4  8  1  0
  5  6  1  0
  6  7  1  0
  8  7  2  0
  9  2  1  0
  9 10  2  0
 11  9  1  0
 12 11  1  0
 12 13  1  6
 13 14  1  0
 14 15  1  0
 16 15  1  0
 17 16  1  0
 18 12  1  0
 19 18  2  0
 20 18  1  0
 21 20  1  0
 21 22  1  1
 22 23  1  0
 23 31  1  0
 24 23  2  0
 24 25  1  0
 25 26  1  0
 26 27  1  0
 27 28  2  0
 29 28  1  0
 30 29  2  0
 31 26  2  0
 31 30  1  0
 32 21  1  0
 32 34  1  0
 33 32  2  0
M  END
$$$$
