HKW.pdb
     RDKit          3D

 34 36  0  0  1  0  0  0  0  0999 V2000
   26.0448  -16.2790  -18.7088 N   0  0  0  0  0  0  0  0  0  0  0  0
   24.8079  -15.9374  -18.0442 C   0  0  1  0  0  0  0  0  0  0  0  0
   24.7694  -14.4839  -17.6773 C   0  0  0  0  0  0  0  0  0  0  0  0
   25.9202  -14.1361  -16.7742 C   0  0  0  0  0  0  0  0  0  0  0  0
   25.9537  -14.2947  -15.3980 C   0  0  0  0  0  0  0  0  0  0  0  0
   27.1322  -13.8773  -14.9525 N   0  0  0  0  0  0  0  0  0  0  0  0
   27.8347  -13.4614  -16.0242 C   0  0  0  0  0  0  0  0  0  0  0  0
   27.1069  -13.6151  -17.1324 N   0  0  0  0  0  0  0  0  0  0  0  0
   23.6539  -16.4028  -18.8364 C   0  0  0  0  0  0  0  0  0  0  0  0
   23.4084  -16.0203  -20.0033 O   0  0  0  0  0  0  0  0  0  0  0  0
   22.7612  -17.3407  -18.2505 N   0  0  0  0  0  0  0  0  0  0  0  0
   21.6016  -17.8543  -19.0146 C   0  0  1  0  0  0  0  0  0  0  0  0
   21.0453  -19.0421  -18.3000 C   0  0  0  0  0  0  0  0  0  0  0  0
   19.8637  -19.6122  -19.0144 C   0  0  0  0  0  0  0  0  0  0  0  0
   19.6145  -21.0666  -18.6264 C   0  0  0  0  0  0  0  0  0  0  0  0
   18.5511  -21.7123  -19.4634 C   0  0  0  0  0  0  0  0  0  0  0  0
   18.1722  -23.0194  -18.9480 N   0  0  0  0  0  0  0  0  0  0  0  0
   20.6168  -16.7620  -19.0295 C   0  0  0  0  0  0  0  0  0  0  0  0
   20.5174  -16.0418  -17.9754 O   0  0  0  0  0  0  0  0  0  0  0  0
   19.7643  -16.4076  -20.0873 N   0  0  0  0  0  0  0  0  0  0  0  0
   18.8473  -15.2578  -19.9815 C   0  0  1  0  0  0  0  0  0  0  0  0
   18.6280  -14.7615  -21.3663 C   0  0  0  0  0  0  0  0  0  0  0  0
   17.2425  -14.8130  -21.8304 C   0  0  0  0  0  0  0  0  0  0  0  0
   16.2274  -13.8732  -21.5858 C   0  0  0  0  0  0  0  0  0  0  0  0
   15.0936  -14.3019  -22.1621 N   0  0  0  0  0  0  0  0  0  0  0  0
   15.2955  -15.4710  -22.7760 C   0  0  0  0  0  0  0  0  0  0  0  0
   14.4354  -16.2648  -23.4991 C   0  0  0  0  0  0  0  0  0  0  0  0
   14.9212  -17.4322  -24.0472 C   0  0  0  0  0  0  0  0  0  0  0  0
   16.2459  -17.8180  -23.8860 C   0  0  0  0  0  0  0  0  0  0  0  0
   17.0527  -16.9854  -23.1550 C   0  0  0  0  0  0  0  0  0  0  0  0
   16.6063  -15.8046  -22.5865 C   0  0  0  0  0  0  0  0  0  0  0  0
   17.6851  -15.5335  -19.1609 C   0  0  0  0  0  0  0  0  0  0  0  0
   17.0287  -14.6312  -18.5450 O   0  0  0  0  0  0  0  0  0  0  0  0
   17.2430  -16.8578  -19.0251 O   0  0  0  0  0  0  0  0  0  0  0  0
  2  1  1  6
  2  3  1  0
  3  4  1  0
  4  5  2  0
  4  8  1  0
  5  6  1  0
  6  7  1  0
  8  7  2  0
  9  2  1  0
  9 10  2  0
 11  9  1  0
 12 11  1  0
 12 13  1  1
 13 14  1  0
 14 15  1  0
 16 15  1  0
 17 16  1  0
 18 12  1  0
 19 18  2  0
 20 18  1  0
 21 20  1  0
 21 22  1  6
 22 23  1  0
 23 31  1  0
 24 23  2  0
 24 25  1  0
 25 26  1  0
 26 27  1  0
 27 28  2  0
 29 28  1  0
 30 29  2  0
 31 26  2  0
 31 30  1  0
 32 21  1  0
 32 34  1  0
 33 32  2  0
M  END
$$$$
