DPH.pdb
     RDKit          3D

 26 27  0  0  1  0  0  0  0  0999 V2000
   17.6897  -12.3928  -16.1097 N   0  0  0  0  0  0  0  0  0  0  0  0
   17.7607  -11.1655  -16.7953 C   0  0  1  0  0  0  0  0  0  0  0  0
   16.4518  -10.4189  -16.4519 C   0  0  0  0  0  0  0  0  0  0  0  0
   15.2859  -11.2824  -16.8581 C   0  0  0  0  0  0  0  0  0  0  0  0
   14.3596  -11.4897  -16.0350 O   0  0  0  0  0  0  0  0  0  0  0  0
   18.9074  -10.2901  -16.5399 C   0  0  0  0  0  0  0  0  0  0  0  0
   18.8994   -9.7418  -15.3763 O   0  0  0  0  0  0  0  0  0  0  0  0
   15.1949  -11.8543  -18.0968 O   0  0  0  0  0  0  0  0  0  0  0  0
   19.9697   -9.9959  -17.3870 N   0  0  0  0  0  0  0  0  0  0  0  0
   20.5794  -10.8965  -18.3511 C   0  0  0  0  0  0  0  0  0  0  0  0
   20.4755  -10.0312  -19.6166 C   0  0  0  0  0  0  0  0  0  0  0  0
   20.3297   -8.5806  -19.1042 C   0  0  0  0  0  0  0  0  0  0  0  0
   20.7258   -8.7964  -17.6707 C   0  0  1  0  0  0  0  0  0  0  0  0
   20.6478   -7.6587  -16.8203 C   0  0  0  0  0  0  0  0  0  0  0  0
   19.4936   -7.0841  -16.7143 O   0  0  0  0  0  0  0  0  0  0  0  0
   21.6369   -7.0167  -16.0471 N   0  0  0  0  0  0  0  0  0  0  0  0
   21.4024   -5.8538  -15.2191 C   0  0  1  0  0  0  0  0  0  0  0  0
   21.9447   -5.9680  -13.8326 C   0  0  0  0  0  0  0  0  0  0  0  0
   21.2519   -6.9867  -13.0083 C   0  0  0  0  0  0  0  0  0  0  0  0
   20.1207   -7.6430  -13.4505 C   0  0  0  0  0  0  0  0  0  0  0  0
   19.7114   -8.4944  -12.5205 N   0  0  0  0  0  0  0  0  0  0  0  0
   20.5755   -8.3770  -11.5011 C   0  0  0  0  0  0  0  0  0  0  0  0
   21.5146   -7.4603  -11.7942 N   0  0  0  0  0  0  0  0  0  0  0  0
   22.0428   -4.6783  -15.8693 C   0  0  0  0  0  0  0  0  0  0  0  0
   21.8069   -3.3828  -15.4149 O   0  0  0  0  0  0  0  0  0  0  0  0
   22.8216   -4.7895  -16.8517 O   0  0  0  0  0  0  0  0  0  0  0  0
  2  1  1  1
  2  3  1  0
  3  4  1  0
  4  8  1  0
  4  5  2  0
  6  2  1  0
  7  6  2  0
  9  6  1  0
  9 13  1  0
 10 11  1  0
 10  9  1  0
 11 12  1  0
 12 13  1  0
 13 14  1  1
 14 15  2  0
 16 14  1  0
 17 16  1  0
 17 24  1  0
 17 18  1  1
 19 23  1  0
 19 18  1  0
 20 19  2  0
 21 20  1  0
 21 22  1  0
 22 23  2  0
 24 25  1  0
 26 24  2  0
M  END
$$$$
