DPH.pdb
     RDKit          3D

 26 27  0  0  1  0  0  0  0  0999 V2000
   23.9647  -35.0965   -4.6176 N   0  0  0  0  0  0  0  0  0  0  0  0
   24.8754  -34.2413   -3.9690 C   0  0  1  0  0  0  0  0  0  0  0  0
   24.0521  -33.4875   -2.9002 C   0  0  0  0  0  0  0  0  0  0  0  0
   22.9563  -32.7192   -3.5921 C   0  0  0  0  0  0  0  0  0  0  0  0
   22.8868  -32.7441   -4.8462 O   0  0  0  0  0  0  0  0  0  0  0  0
   26.0641  -34.8312   -3.3481 C   0  0  0  0  0  0  0  0  0  0  0  0
   25.9092  -35.1412   -2.1093 O   0  0  0  0  0  0  0  0  0  0  0  0
   22.0267  -31.9898   -2.9039 O   0  0  0  0  0  0  0  0  0  0  0  0
   27.3008  -35.0862   -3.9297 N   0  0  0  0  0  0  0  0  0  0  0  0
   27.5344  -35.6967   -5.2278 C   0  0  0  0  0  0  0  0  0  0  0  0
   28.4418  -34.6285   -5.8575 C   0  0  0  0  0  0  0  0  0  0  0  0
   29.0335  -33.8452   -4.6640 C   0  0  0  0  0  0  0  0  0  0  0  0
   28.6664  -34.7918   -3.5561 C   0  0  1  0  0  0  0  0  0  0  0  0
   28.9943  -34.3713   -2.2373 C   0  0  0  0  0  0  0  0  0  0  0  0
   28.5308  -33.2255   -1.8550 O   0  0  0  0  0  0  0  0  0  0  0  0
   29.7650  -34.9965   -1.2355 N   0  0  0  0  0  0  0  0  0  0  0  0
   29.9517  -34.4734    0.1003 C   0  0  1  0  0  0  0  0  0  0  0  0
   28.6815  -34.2169    0.8421 C   0  0  0  0  0  0  0  0  0  0  0  0
   28.8925  -33.7606    2.2365 C   0  0  0  0  0  0  0  0  0  0  0  0
   29.7082  -32.6896    2.5428 C   0  0  0  0  0  0  0  0  0  0  0  0
   29.7161  -32.5007    3.8548 N   0  0  0  0  0  0  0  0  0  0  0  0
   28.9135  -33.4430    4.3721 C   0  0  0  0  0  0  0  0  0  0  0  0
   28.4104  -34.2118    3.3903 N   0  0  0  0  0  0  0  0  0  0  0  0
   30.7514  -35.4560    0.8812 C   0  0  0  0  0  0  0  0  0  0  0  0
   31.9030  -35.0715    1.5640 O   0  0  0  0  0  0  0  0  0  0  0  0
   30.4346  -36.6712    0.9657 O   0  0  0  0  0  0  0  0  0  0  0  0
  2  1  1  1
  2  3  1  0
  3  4  1  0
  4  8  1  0
  4  5  2  0
  6  2  1  0
  7  6  2  0
  9  6  1  0
  9 13  1  0
 10 11  1  0
 10  9  1  0
 11 12  1  0
 12 13  1  0
 13 14  1  1
 14 15  2  0
 16 14  1  0
 17 16  1  0
 17 24  1  0
 17 18  1  1
 19 23  1  0
 19 18  1  0
 20 19  2  0
 21 20  1  0
 21 22  1  0
 22 23  2  0
 24 25  1  0
 26 24  2  0
M  END
$$$$
