DPH.pdb
     RDKit          3D

 26 27  0  0  1  0  0  0  0  0999 V2000
   23.3741  -21.5811  -11.3015 N   0  0  0  0  0  0  0  0  0  0  0  0
   23.0462  -21.3950  -12.6577 C   0  0  1  0  0  0  0  0  0  0  0  0
   21.6053  -20.8363  -12.6661 C   0  0  0  0  0  0  0  0  0  0  0  0
   20.7106  -21.8046  -11.9367 C   0  0  0  0  0  0  0  0  0  0  0  0
   20.4624  -22.9213  -12.4560 O   0  0  0  0  0  0  0  0  0  0  0  0
   23.9108  -20.5373  -13.4722 C   0  0  0  0  0  0  0  0  0  0  0  0
   23.5367  -19.3074  -13.5170 O   0  0  0  0  0  0  0  0  0  0  0  0
   20.1536  -21.5140  -10.7222 O   0  0  0  0  0  0  0  0  0  0  0  0
   25.0542  -20.8926  -14.1787 N   0  0  0  0  0  0  0  0  0  0  0  0
   26.1963  -21.6260  -13.6592 C   0  0  0  0  0  0  0  0  0  0  0  0
   26.2687  -22.7602  -14.6932 C   0  0  0  0  0  0  0  0  0  0  0  0
   25.5256  -22.2222  -15.9368 C   0  0  0  0  0  0  0  0  0  0  0  0
   25.4598  -20.7687  -15.5611 C   0  0  1  0  0  0  0  0  0  0  0  0
   24.7579  -19.9194  -16.4609 C   0  0  0  0  0  0  0  0  0  0  0  0
   25.4625  -19.2968  -17.3496 O   0  0  0  0  0  0  0  0  0  0  0  0
   23.3842  -19.6175  -16.5614 N   0  0  0  0  0  0  0  0  0  0  0  0
   22.7795  -18.9125  -17.6705 C   0  0  1  0  0  0  0  0  0  0  0  0
   22.3254  -19.7960  -18.7852 C   0  0  0  0  0  0  0  0  0  0  0  0
   21.2368  -20.7247  -18.3982 C   0  0  0  0  0  0  0  0  0  0  0  0
   21.4435  -21.7751  -17.5264 C   0  0  0  0  0  0  0  0  0  0  0  0
   20.3089  -22.4392  -17.3572 N   0  0  0  0  0  0  0  0  0  0  0  0
   19.3946  -21.8146  -18.1146 C   0  0  0  0  0  0  0  0  0  0  0  0
   19.9556  -20.7706  -18.7498 N   0  0  0  0  0  0  0  0  0  0  0  0
   21.5964  -18.1660  -17.1626 C   0  0  0  0  0  0  0  0  0  0  0  0
   20.8372  -17.3553  -18.0033 O   0  0  0  0  0  0  0  0  0  0  0  0
   21.2229  -18.2259  -15.9622 O   0  0  0  0  0  0  0  0  0  0  0  0
  2  1  1  1
  2  3  1  0
  3  4  1  0
  4  8  1  0
  4  5  2  0
  6  2  1  0
  7  6  2  0
  9  6  1  0
  9 13  1  0
 10 11  1  0
 10  9  1  0
 11 12  1  0
 12 13  1  0
 13 14  1  6
 14 15  2  0
 16 14  1  0
 17 16  1  0
 17 24  1  0
 17 18  1  6
 19 23  1  0
 19 18  1  0
 20 19  2  0
 21 20  1  0
 21 22  1  0
 22 23  2  0
 24 25  1  0
 26 24  2  0
M  END
$$$$
