DPH.pdb
     RDKit          3D

 26 27  0  0  1  0  0  0  0  0999 V2000
   15.0037  -27.2735    2.3747 N   0  0  0  0  0  0  0  0  0  0  0  0
   16.2073  -26.6018    2.6606 C   0  0  1  0  0  0  0  0  0  0  0  0
   16.6769  -25.9967    1.3183 C   0  0  0  0  0  0  0  0  0  0  0  0
   16.8369  -27.1124    0.3185 C   0  0  0  0  0  0  0  0  0  0  0  0
   17.9277  -27.7330    0.2608 O   0  0  0  0  0  0  0  0  0  0  0  0
   16.1964  -25.5612    3.6919 C   0  0  0  0  0  0  0  0  0  0  0  0
   15.4744  -24.5383    3.3969 O   0  0  0  0  0  0  0  0  0  0  0  0
   15.8340  -27.4796   -0.5354 O   0  0  0  0  0  0  0  0  0  0  0  0
   16.8574  -25.5563    4.9149 N   0  0  0  0  0  0  0  0  0  0  0  0
   17.0342  -26.6918    5.8047 C   0  0  0  0  0  0  0  0  0  0  0  0
   18.5609  -26.6539    5.9739 C   0  0  0  0  0  0  0  0  0  0  0  0
   18.9724  -25.2087    5.6131 C   0  0  0  0  0  0  0  0  0  0  0  0
   17.6156  -24.5633    5.6430 C   0  0  1  0  0  0  0  0  0  0  0  0
   17.5668  -23.1885    5.2807 C   0  0  0  0  0  0  0  0  0  0  0  0
   17.8718  -22.8932    4.0586 O   0  0  0  0  0  0  0  0  0  0  0  0
   17.2391  -22.0465    6.0401 N   0  0  0  0  0  0  0  0  0  0  0  0
   17.1809  -20.7008    5.5121 C   0  0  1  0  0  0  0  0  0  0  0  0
   16.1224  -20.4916    4.4801 C   0  0  0  0  0  0  0  0  0  0  0  0
   14.7546  -20.7912    4.9663 C   0  0  0  0  0  0  0  0  0  0  0  0
   14.5147  -21.2502    6.2461 C   0  0  0  0  0  0  0  0  0  0  0  0
   13.2127  -21.4347    6.4129 N   0  0  0  0  0  0  0  0  0  0  0  0
   12.6359  -21.0956    5.2502 C   0  0  0  0  0  0  0  0  0  0  0  0
   13.5711  -20.7034    4.3672 N   0  0  0  0  0  0  0  0  0  0  0  0
   16.9171  -19.7658    6.6395 C   0  0  0  0  0  0  0  0  0  0  0  0
   16.8659  -18.3882    6.4396 O   0  0  0  0  0  0  0  0  0  0  0  0
   16.7285  -20.1638    7.8185 O   0  0  0  0  0  0  0  0  0  0  0  0
  2  1  1  6
  2  3  1  0
  3  4  1  0
  4  8  1  0
  4  5  2  0
  6  2  1  0
  7  6  2  0
  9  6  1  0
  9 13  1  0
 10 11  1  0
 10  9  1  0
 11 12  1  0
 12 13  1  0
 13 14  1  6
 14 15  2  0
 16 14  1  0
 17 16  1  0
 17 24  1  0
 17 18  1  6
 19 23  1  0
 19 18  1  0
 20 19  2  0
 21 20  1  0
 21 22  1  0
 22 23  2  0
 24 25  1  0
 26 24  2  0
M  END
$$$$
