DPH.pdb
     RDKit          3D

 26 27  0  0  1  0  0  0  0  0999 V2000
   19.6561  -13.6065  -16.1417 N   0  0  0  0  0  0  0  0  0  0  0  0
   20.1612  -12.4352  -16.7370 C   0  0  1  0  0  0  0  0  0  0  0  0
   19.0368  -11.9193  -17.6634 C   0  0  0  0  0  0  0  0  0  0  0  0
   18.7143  -12.9925  -18.6705 C   0  0  0  0  0  0  0  0  0  0  0  0
   17.9892  -13.9590  -18.3264 O   0  0  0  0  0  0  0  0  0  0  0  0
   20.6154  -11.3499  -15.8638 C   0  0  0  0  0  0  0  0  0  0  0  0
   19.6888  -10.5219  -15.5315 O   0  0  0  0  0  0  0  0  0  0  0  0
   19.1832  -12.9562  -19.9545 O   0  0  0  0  0  0  0  0  0  0  0  0
   21.8947  -11.1229  -15.3693 N   0  0  0  0  0  0  0  0  0  0  0  0
   22.8153  -12.1276  -14.8640 C   0  0  0  0  0  0  0  0  0  0  0  0
   24.0447  -11.8121  -15.7301 C   0  0  0  0  0  0  0  0  0  0  0  0
   23.8427  -10.3553  -16.2044 C   0  0  0  0  0  0  0  0  0  0  0  0
   22.7390   -9.9535  -15.2669 C   0  0  1  0  0  0  0  0  0  0  0  0
   22.2095   -8.6453  -15.4454 C   0  0  0  0  0  0  0  0  0  0  0  0
   21.5953   -8.4084  -16.5591 O   0  0  0  0  0  0  0  0  0  0  0  0
   22.2373   -7.5167  -14.6006 N   0  0  0  0  0  0  0  0  0  0  0  0
   21.6159   -6.2472  -14.9090 C   0  0  1  0  0  0  0  0  0  0  0  0
   20.1243   -6.2618  -14.8430 C   0  0  0  0  0  0  0  0  0  0  0  0
   19.5021   -4.9745  -15.2342 C   0  0  0  0  0  0  0  0  0  0  0  0
   19.8760   -4.2959  -16.3769 C   0  0  0  0  0  0  0  0  0  0  0  0
   19.1641   -3.1829  -16.4831 N   0  0  0  0  0  0  0  0  0  0  0  0
   18.3486   -3.1586  -15.4183 C   0  0  0  0  0  0  0  0  0  0  0  0
   18.5514   -4.2474  -14.6557 N   0  0  0  0  0  0  0  0  0  0  0  0
   22.1105   -5.2345  -13.9370 C   0  0  0  0  0  0  0  0  0  0  0  0
   22.1560   -3.8810  -14.2630 O   0  0  0  0  0  0  0  0  0  0  0  0
   22.5092   -5.5422  -12.7835 O   0  0  0  0  0  0  0  0  0  0  0  0
  2  1  1  1
  2  3  1  0
  3  4  1  0
  4  8  1  0
  4  5  2  0
  6  2  1  0
  7  6  2  0
  9  6  1  0
  9 13  1  0
 10 11  1  0
 10  9  1  0
 11 12  1  0
 12 13  1  0
 13 14  1  6
 14 15  2  0
 16 14  1  0
 17 16  1  0
 17 24  1  0
 17 18  1  1
 19 23  1  0
 19 18  1  0
 20 19  2  0
 21 20  1  0
 21 22  1  0
 22 23  2  0
 24 25  1  0
 26 24  2  0
M  END
$$$$
