DPH.pdb
     RDKit          3D

 26 27  0  0  1  0  0  0  0  0999 V2000
   15.8736  -17.4096    7.1757 N   0  0  0  0  0  0  0  0  0  0  0  0
   17.2780  -17.4627    7.2552 C   0  0  1  0  0  0  0  0  0  0  0  0
   17.7729  -17.6254    5.8001 C   0  0  0  0  0  0  0  0  0  0  0  0
   17.6252  -19.0709    5.4017 C   0  0  0  0  0  0  0  0  0  0  0  0
   17.4194  -19.9345    6.2905 O   0  0  0  0  0  0  0  0  0  0  0  0
   17.9825  -16.3470    7.8921 C   0  0  0  0  0  0  0  0  0  0  0  0
   18.0584  -15.2902    7.1628 O   0  0  0  0  0  0  0  0  0  0  0  0
   17.7069  -19.4836    4.1006 O   0  0  0  0  0  0  0  0  0  0  0  0
   18.5588  -16.3041    9.1565 N   0  0  0  0  0  0  0  0  0  0  0  0
   18.0785  -16.9850   10.3473 C   0  0  0  0  0  0  0  0  0  0  0  0
   19.3576  -17.7344   10.7516 C   0  0  0  0  0  0  0  0  0  0  0  0
   20.5109  -16.9628   10.0714 C   0  0  0  0  0  0  0  0  0  0  0  0
   19.7663  -15.7143    9.6905 C   0  0  1  0  0  0  0  0  0  0  0  0
   20.5016  -14.7461    8.9518 C   0  0  0  0  0  0  0  0  0  0  0  0
   21.2194  -15.1812    7.9673 O   0  0  0  0  0  0  0  0  0  0  0  0
   20.5979  -13.3478    9.1057 N   0  0  0  0  0  0  0  0  0  0  0  0
   21.4232  -12.4884    8.2852 C   0  0  1  0  0  0  0  0  0  0  0  0
   20.6580  -11.5014    7.4670 C   0  0  0  0  0  0  0  0  0  0  0  0
   19.7625  -12.1297    6.4668 C   0  0  0  0  0  0  0  0  0  0  0  0
   19.7079  -13.4975    6.2873 C   0  0  0  0  0  0  0  0  0  0  0  0
   18.8302  -13.7840    5.3362 N   0  0  0  0  0  0  0  0  0  0  0  0
   18.3351  -12.6090    4.9192 C   0  0  0  0  0  0  0  0  0  0  0  0
   18.9002  -11.5997    5.6050 N   0  0  0  0  0  0  0  0  0  0  0  0
   22.3445  -11.7326    9.1767 C   0  0  0  0  0  0  0  0  0  0  0  0
   22.2372  -11.8132   10.5633 O   0  0  0  0  0  0  0  0  0  0  0  0
   23.2582  -10.9898    8.7322 O   0  0  0  0  0  0  0  0  0  0  0  0
  2  1  1  6
  2  3  1  0
  3  4  1  0
  4  8  1  0
  4  5  2  0
  6  2  1  0
  7  6  2  0
  9  6  1  0
  9 13  1  0
 10 11  1  0
 10  9  1  0
 11 12  1  0
 12 13  1  0
 13 14  1  6
 14 15  2  0
 16 14  1  0
 17 16  1  0
 17 24  1  0
 17 18  1  1
 19 23  1  0
 19 18  1  0
 20 19  2  0
 21 20  1  0
 21 22  1  0
 22 23  2  0
 24 25  1  0
 26 24  2  0
M  END
$$$$
