DPH.pdb
     RDKit          3D

 26 27  0  0  1  0  0  0  0  0999 V2000
   25.5281   -9.2741  -20.0059 N   0  0  0  0  0  0  0  0  0  0  0  0
   25.5146   -8.9586  -18.6341 C   0  0  1  0  0  0  0  0  0  0  0  0
   25.9156   -7.4688  -18.5442 C   0  0  0  0  0  0  0  0  0  0  0  0
   27.3221   -7.3181  -19.0629 C   0  0  0  0  0  0  0  0  0  0  0  0
   27.5083   -6.7866  -20.1860 O   0  0  0  0  0  0  0  0  0  0  0  0
   24.2782   -9.1812  -17.8802 C   0  0  0  0  0  0  0  0  0  0  0  0
   23.3562   -8.3164  -18.1181 O   0  0  0  0  0  0  0  0  0  0  0  0
   28.4128   -7.7401  -18.3544 O   0  0  0  0  0  0  0  0  0  0  0  0
   23.9988  -10.1909  -16.9663 N   0  0  0  0  0  0  0  0  0  0  0  0
   24.4455  -11.5718  -17.0428 C   0  0  0  0  0  0  0  0  0  0  0  0
   25.1044  -11.7085  -15.6615 C   0  0  0  0  0  0  0  0  0  0  0  0
   24.4723  -10.5926  -14.7993 C   0  0  0  0  0  0  0  0  0  0  0  0
   23.3180  -10.2314  -15.6912 C   0  0  1  0  0  0  0  0  0  0  0  0
   22.5042   -9.1486  -15.2565 C   0  0  0  0  0  0  0  0  0  0  0  0
   23.0727   -8.2443  -14.5266 O   0  0  0  0  0  0  0  0  0  0  0  0
   21.1395   -8.8737  -15.4804 N   0  0  0  0  0  0  0  0  0  0  0  0
   20.4487   -7.7015  -14.9888 C   0  0  1  0  0  0  0  0  0  0  0  0
   20.4304   -6.5541  -15.9441 C   0  0  0  0  0  0  0  0  0  0  0  0
   21.7511   -5.9022  -16.1111 C   0  0  0  0  0  0  0  0  0  0  0  0
   22.4089   -5.8771  -17.3247 C   0  0  0  0  0  0  0  0  0  0  0  0
   23.5604   -5.2344  -17.1902 N   0  0  0  0  0  0  0  0  0  0  0  0
   23.6294   -4.8574  -15.9047 C   0  0  0  0  0  0  0  0  0  0  0  0
   22.5299   -5.2620  -15.2446 N   0  0  0  0  0  0  0  0  0  0  0  0
   19.0395   -8.0775  -14.6927 C   0  0  0  0  0  0  0  0  0  0  0  0
   18.1569   -7.1720  -14.1082 O   0  0  0  0  0  0  0  0  0  0  0  0
   18.5751   -9.2184  -14.9509 O   0  0  0  0  0  0  0  0  0  0  0  0
  2  1  1  6
  2  3  1  0
  3  4  1  0
  4  8  1  0
  4  5  2  0
  6  2  1  0
  7  6  2  0
  9  6  1  0
  9 13  1  0
 10 11  1  0
 10  9  1  0
 11 12  1  0
 12 13  1  0
 13 14  1  1
 14 15  2  0
 16 14  1  0
 17 16  1  0
 17 24  1  0
 17 18  1  6
 19 23  1  0
 19 18  1  0
 20 19  2  0
 21 20  1  0
 21 22  1  0
 22 23  2  0
 24 25  1  0
 26 24  2  0
M  END
$$$$
