DPH.pdb
     RDKit          3D

 26 27  0  0  1  0  0  0  0  0999 V2000
   28.6572  -21.2430  -16.8834 N   0  0  0  0  0  0  0  0  0  0  0  0
   27.5989  -20.4363  -17.3423 C   0  0  1  0  0  0  0  0  0  0  0  0
   26.9515  -21.2193  -18.5069 C   0  0  0  0  0  0  0  0  0  0  0  0
   27.9880  -21.4273  -19.5803 C   0  0  0  0  0  0  0  0  0  0  0  0
   28.3675  -22.5944  -19.8491 O   0  0  0  0  0  0  0  0  0  0  0  0
   26.5646  -20.0333  -16.3860 C   0  0  0  0  0  0  0  0  0  0  0  0
   26.1071  -20.9995  -15.6706 O   0  0  0  0  0  0  0  0  0  0  0  0
   28.5366  -20.3880  -20.2794 O   0  0  0  0  0  0  0  0  0  0  0  0
   26.0399  -18.7639  -16.1715 N   0  0  0  0  0  0  0  0  0  0  0  0
   26.7616  -17.5056  -16.2612 C   0  0  0  0  0  0  0  0  0  0  0  0
   25.8541  -16.7557  -17.2487 C   0  0  0  0  0  0  0  0  0  0  0  0
   24.4842  -17.4650  -17.1583 C   0  0  0  0  0  0  0  0  0  0  0  0
   24.7122  -18.2581  -15.9024 C   0  0  1  0  0  0  0  0  0  0  0  0
   23.6581  -19.1292  -15.5105 C   0  0  0  0  0  0  0  0  0  0  0  0
   23.3029  -20.0386  -16.3593 O   0  0  0  0  0  0  0  0  0  0  0  0
   22.8986  -19.1810  -14.3235 N   0  0  0  0  0  0  0  0  0  0  0  0
   21.9561  -20.2295  -13.9993 C   0  0  1  0  0  0  0  0  0  0  0  0
   22.0704  -20.7475  -12.6036 C   0  0  0  0  0  0  0  0  0  0  0  0
   23.3740  -21.3920  -12.3164 C   0  0  0  0  0  0  0  0  0  0  0  0
   23.9436  -22.3104  -13.1755 C   0  0  0  0  0  0  0  0  0  0  0  0
   25.1000  -22.7243  -12.6768 N   0  0  0  0  0  0  0  0  0  0  0  0
   25.2592  -22.0738  -11.5145 C   0  0  0  0  0  0  0  0  0  0  0  0
   24.2107  -21.2619  -11.2916 N   0  0  0  0  0  0  0  0  0  0  0  0
   20.5791  -19.6952  -14.1816 C   0  0  0  0  0  0  0  0  0  0  0  0
   19.4927  -20.5458  -14.3728 O   0  0  0  0  0  0  0  0  0  0  0  0
   20.3252  -18.4626  -14.1730 O   0  0  0  0  0  0  0  0  0  0  0  0
  2  1  1  1
  2  3  1  0
  3  4  1  0
  4  8  1  0
  4  5  2  0
  6  2  1  0
  7  6  2  0
  9  6  1  0
  9 13  1  0
 10 11  1  0
 10  9  1  0
 11 12  1  0
 12 13  1  0
 13 14  1  6
 14 15  2  0
 16 14  1  0
 17 16  1  0
 17 24  1  0
 17 18  1  1
 19 23  1  0
 19 18  1  0
 20 19  2  0
 21 20  1  0
 21 22  1  0
 22 23  2  0
 24 25  1  0
 26 24  2  0
M  END
$$$$
