DPH.pdb
     RDKit          3D

 26 27  0  0  1  0  0  0  0  0999 V2000
   16.6585  -27.1843   -9.7688 N   0  0  0  0  0  0  0  0  0  0  0  0
   17.2074  -28.1269   -8.8790 C   0  0  1  0  0  0  0  0  0  0  0  0
   18.2885  -28.8820   -9.6849 C   0  0  0  0  0  0  0  0  0  0  0  0
   18.6850  -30.1162   -8.9172 C   0  0  0  0  0  0  0  0  0  0  0  0
   17.9245  -30.5488   -8.0156 O   0  0  0  0  0  0  0  0  0  0  0  0
   17.7802  -27.6448   -7.6196 C   0  0  0  0  0  0  0  0  0  0  0  0
   18.1107  -28.5811   -6.8017 O   0  0  0  0  0  0  0  0  0  0  0  0
   19.8490  -30.7898   -9.1645 O   0  0  0  0  0  0  0  0  0  0  0  0
   18.0002  -26.3307   -7.2228 N   0  0  0  0  0  0  0  0  0  0  0  0
   18.2717  -25.2001   -8.0947 C   0  0  0  0  0  0  0  0  0  0  0  0
   17.1753  -24.2351   -7.6175 C   0  0  0  0  0  0  0  0  0  0  0  0
   16.7954  -24.7226   -6.2011 C   0  0  0  0  0  0  0  0  0  0  0  0
   17.9552  -25.6447   -5.9506 C   0  0  1  0  0  0  0  0  0  0  0  0
   17.9292  -26.3670   -4.7253 C   0  0  0  0  0  0  0  0  0  0  0  0
   16.9739  -27.2256   -4.5713 O   0  0  0  0  0  0  0  0  0  0  0  0
   18.7836  -26.3120   -3.6049 N   0  0  0  0  0  0  0  0  0  0  0  0
   18.5899  -27.0719   -2.3892 C   0  0  1  0  0  0  0  0  0  0  0  0
   19.7107  -26.9584   -1.4092 C   0  0  0  0  0  0  0  0  0  0  0  0
   19.4625  -27.6826   -0.1399 C   0  0  0  0  0  0  0  0  0  0  0  0
   18.9207  -28.9521   -0.1132 C   0  0  0  0  0  0  0  0  0  0  0  0
   18.8079  -29.3584    1.1435 N   0  0  0  0  0  0  0  0  0  0  0  0
   19.2738  -28.3556    1.9030 C   0  0  0  0  0  0  0  0  0  0  0  0
   19.6732  -27.3338    1.1255 N   0  0  0  0  0  0  0  0  0  0  0  0
   17.3477  -26.5888   -1.7271 C   0  0  0  0  0  0  0  0  0  0  0  0
   16.5639  -27.4396   -0.9510 O   0  0  0  0  0  0  0  0  0  0  0  0
   16.9436  -25.4014   -1.8312 O   0  0  0  0  0  0  0  0  0  0  0  0
  2  1  1  6
  2  3  1  0
  3  4  1  0
  4  8  1  0
  4  5  2  0
  6  2  1  0
  7  6  2  0
  9  6  1  0
  9 13  1  0
 10 11  1  0
 10  9  1  0
 11 12  1  0
 12 13  1  0
 13 14  1  1
 14 15  2  0
 16 14  1  0
 17 16  1  0
 17 24  1  0
 17 18  1  1
 19 23  1  0
 19 18  1  0
 20 19  2  0
 21 20  1  0
 21 22  1  0
 22 23  2  0
 24 25  1  0
 26 24  2  0
M  END
$$$$
