DPH.pdb
     RDKit          3D

 26 27  0  0  1  0  0  0  0  0999 V2000
   19.1659  -10.8794    5.7840 N   0  0  0  0  0  0  0  0  0  0  0  0
   18.9446  -11.6777    6.9221 C   0  0  1  0  0  0  0  0  0  0  0  0
   17.4922  -11.3849    7.3616 C   0  0  0  0  0  0  0  0  0  0  0  0
   17.4487  -10.0190    7.9959 C   0  0  0  0  0  0  0  0  0  0  0  0
   18.4004   -9.6524    8.7295 O   0  0  0  0  0  0  0  0  0  0  0  0
   19.1409  -13.1251    6.8068 C   0  0  0  0  0  0  0  0  0  0  0  0
   18.3109  -13.7051    6.0136 O   0  0  0  0  0  0  0  0  0  0  0  0
   16.4062   -9.1553    7.8032 O   0  0  0  0  0  0  0  0  0  0  0  0
   20.0942  -13.9161    7.4379 N   0  0  0  0  0  0  0  0  0  0  0  0
   21.3833  -13.4752    7.9441 C   0  0  0  0  0  0  0  0  0  0  0  0
   21.2809  -13.9815    9.3912 C   0  0  0  0  0  0  0  0  0  0  0  0
   20.2101  -15.0952    9.3557 C   0  0  0  0  0  0  0  0  0  0  0  0
   20.1288  -15.2961    7.8686 C   0  0  1  0  0  0  0  0  0  0  0  0
   19.1601  -16.2335    7.4143 C   0  0  0  0  0  0  0  0  0  0  0  0
   17.9465  -16.0716    7.8324 O   0  0  0  0  0  0  0  0  0  0  0  0
   19.2871  -17.3510    6.5637 N   0  0  0  0  0  0  0  0  0  0  0  0
   18.2183  -18.2793    6.2660 C   0  0  1  0  0  0  0  0  0  0  0  0
   18.2680  -18.8510    4.8875 C   0  0  0  0  0  0  0  0  0  0  0  0
   17.1750  -19.8116    4.6055 C   0  0  0  0  0  0  0  0  0  0  0  0
   15.8663  -19.5612    4.9672 C   0  0  0  0  0  0  0  0  0  0  0  0
   15.1026  -20.5794    4.5970 N   0  0  0  0  0  0  0  0  0  0  0  0
   15.9206  -21.4641    4.0073 C   0  0  0  0  0  0  0  0  0  0  0  0
   17.1828  -21.0004    4.0106 N   0  0  0  0  0  0  0  0  0  0  0  0
   18.2922  -19.4061    7.2354 C   0  0  0  0  0  0  0  0  0  0  0  0
   17.1515  -19.8865    7.8743 O   0  0  0  0  0  0  0  0  0  0  0  0
   19.3749  -19.9782    7.5264 O   0  0  0  0  0  0  0  0  0  0  0  0
  2  1  1  6
  2  3  1  0
  3  4  1  0
  4  8  1  0
  4  5  2  0
  6  2  1  0
  7  6  2  0
  9  6  1  0
  9 13  1  0
 10 11  1  0
 10  9  1  0
 11 12  1  0
 12 13  1  0
 13 14  1  1
 14 15  2  0
 16 14  1  0
 17 16  1  0
 17 24  1  0
 17 18  1  6
 19 23  1  0
 19 18  1  0
 20 19  2  0
 21 20  1  0
 21 22  1  0
 22 23  2  0
 24 25  1  0
 26 24  2  0
M  END
$$$$
