RYE.pdb
     RDKit          3D

 33 33  0  0  1  0  0  0  0  0999 V2000
   31.6700  -25.0415  -15.6169 N   0  0  0  0  0  0  0  0  0  0  0  0
   31.7481  -24.7741  -17.0045 C   0  0  0  0  0  0  0  0  0  0  0  0
   32.2187  -25.6829  -17.7847 N   0  0  0  0  0  0  0  0  0  0  0  0
   31.3278  -23.5433  -17.5640 N   0  0  0  0  0  0  0  0  0  0  0  0
   30.3372  -22.6898  -16.9064 C   0  0  0  0  0  0  0  0  0  0  0  0
   29.5708  -21.9952  -17.9998 C   0  0  0  0  0  0  0  0  0  0  0  0
   28.8543  -20.7602  -17.5240 C   0  0  0  0  0  0  0  0  0  0  0  0
   27.9855  -21.1014  -16.3385 C   0  0  2  0  0  0  0  0  0  0  0  0
   27.4635  -22.4220  -16.5504 N   0  0  0  0  0  0  0  0  0  0  0  0
   26.8794  -20.1140  -16.1901 C   0  0  0  0  0  0  0  0  0  0  0  0
   27.1451  -18.8911  -16.0973 O   0  0  0  0  0  0  0  0  0  0  0  0
   32.2342  -25.5358  -18.8058 O   0  0  0  0  0  0  0  0  0  0  0  0
   19.9921  -15.2356  -17.8747 C   0  0  0  0  0  0  0  0  0  0  0  0
   21.0950  -16.1048  -17.7590 C   0  0  0  0  0  0  0  0  0  0  0  0
   21.1185  -17.3076  -18.4118 C   0  0  0  0  0  0  0  0  0  0  0  0
   22.2099  -18.1321  -18.2774 C   0  0  0  0  0  0  0  0  0  0  0  0
   23.3011  -17.8146  -17.5112 C   0  0  0  0  0  0  0  0  0  0  0  0
   24.4315  -18.7244  -17.4036 C   0  0  1  0  0  0  0  0  0  0  0  0
   24.4198  -19.5705  -16.1538 N   0  0  0  0  0  0  0  0  0  0  0  0
   25.5160  -20.5181  -16.1496 C   0  0  0  0  0  0  0  0  0  0  0  0
   23.1661  -20.2908  -15.9465 O   0  0  0  0  0  0  0  0  0  0  0  0
   22.8154  -21.3117  -16.5973 C   0  0  0  0  0  0  0  0  0  0  0  0
   23.2781  -16.6064  -16.8551 C   0  0  0  0  0  0  0  0  0  0  0  0
   22.1740  -15.7499  -16.9789 N   0  0  0  0  0  0  0  0  0  0  0  0
   22.2527  -19.8493  -14.9593 C   0  0  2  0  0  0  0  0  0  0  0  0
   21.0191  -20.6070  -14.6768 C   0  0  0  0  0  0  0  0  0  0  0  0
   20.2053  -19.9039  -13.6510 C   0  0  0  0  0  0  0  0  0  0  0  0
   18.9096  -20.6094  -13.3980 C   0  0  0  0  0  0  0  0  0  0  0  0
   18.1045  -19.9312  -12.3472 O   0  0  0  0  0  0  0  0  0  0  0  0
   18.5882  -18.9588  -11.7421 C   0  0  0  0  0  0  0  0  0  0  0  0
   20.2779  -20.6735  -15.9570 O   0  0  0  0  0  0  0  0  0  0  0  0
   20.3611  -19.7659  -16.9919 O   0  0  0  0  0  0  0  0  0  0  0  0
   16.8389  -20.3803  -12.0535 O   0  0  0  0  0  0  0  0  0  0  0  0
  2  1  1  0
  3  2  2  0
  4  2  1  0
  5  4  1  0
  6  5  1  0
  7  6  1  0
  8 10  1  0
  8  7  1  0
  8  9  1  6
 10 19  1  0
 10 11  2  0
 12 13  1  0
 13 23  2  0
 13 14  1  0
 14 15  2  0
 15 16  1  0
 16 17  1  0
 18 17  1  1
 19 18  1  0
 20 24  1  0
 20 18  1  0
 21 20  2  0
 22 16  2  0
 23 22  1  0
 25 26  1  1
 25 30  1  0
 25 24  1  0
 27 28  1  0
 27 26  1  0
 28 32  1  0
 29 28  2  0
 30 31  1  0
 33 30  2  0
M  END
$$$$
