RYE.pdb
     RDKit          3D

 33 33  0  0  1  0  0  0  0  0999 V2000
   30.3781  -19.1845  -18.6264 N   0  0  0  0  0  0  0  0  0  0  0  0
   30.1530  -17.8088  -18.3819 C   0  0  0  0  0  0  0  0  0  0  0  0
   30.6258  -16.9469  -19.2124 N   0  0  0  0  0  0  0  0  0  0  0  0
   29.4274  -17.3477  -17.2569 N   0  0  0  0  0  0  0  0  0  0  0  0
   28.8147  -18.2681  -16.2980 C   0  0  0  0  0  0  0  0  0  0  0  0
   27.6019  -18.8509  -16.9722 C   0  0  0  0  0  0  0  0  0  0  0  0
   26.5442  -19.2971  -15.9989 C   0  0  0  0  0  0  0  0  0  0  0  0
   26.9928  -20.5590  -15.3039 C   0  0  2  0  0  0  0  0  0  0  0  0
   27.4219  -21.4818  -16.3166 N   0  0  0  0  0  0  0  0  0  0  0  0
   25.8851  -21.1409  -14.4945 C   0  0  0  0  0  0  0  0  0  0  0  0
   24.7751  -21.3705  -15.0328 O   0  0  0  0  0  0  0  0  0  0  0  0
   30.4136  -15.9435  -19.0989 O   0  0  0  0  0  0  0  0  0  0  0  0
   27.5903  -18.2813   -7.6982 C   0  0  0  0  0  0  0  0  0  0  0  0
   27.0585  -19.3067   -8.5052 C   0  0  0  0  0  0  0  0  0  0  0  0
   25.7196  -19.5910   -8.4956 C   0  0  0  0  0  0  0  0  0  0  0  0
   25.2333  -20.5979   -9.2947 C   0  0  0  0  0  0  0  0  0  0  0  0
   26.0272  -21.3516  -10.1196 C   0  0  0  0  0  0  0  0  0  0  0  0
   25.4605  -22.4063  -10.9464 C   0  0  1  0  0  0  0  0  0  0  0  0
   24.9598  -21.9301  -12.2883 N   0  0  0  0  0  0  0  0  0  0  0  0
   26.0478  -21.4478  -13.1150 C   0  0  0  0  0  0  0  0  0  0  0  0
   23.9351  -20.8933  -12.1962 O   0  0  0  0  0  0  0  0  0  0  0  0
   24.1640  -19.6566  -12.2787 C   0  0  0  0  0  0  0  0  0  0  0  0
   27.3722  -21.0664  -10.1298 C   0  0  0  0  0  0  0  0  0  0  0  0
   27.8892  -20.0427   -9.3218 N   0  0  0  0  0  0  0  0  0  0  0  0
   22.5802  -21.2545  -12.0019 C   0  0  1  0  0  0  0  0  0  0  0  0
   21.4919  -20.3152  -12.3321 C   0  0  0  0  0  0  0  0  0  0  0  0
   21.5165  -19.9862  -13.7814 C   0  0  0  0  0  0  0  0  0  0  0  0
   20.3273  -19.1695  -14.1805 C   0  0  0  0  0  0  0  0  0  0  0  0
   20.2961  -18.9138  -15.6454 O   0  0  0  0  0  0  0  0  0  0  0  0
   20.1253  -19.8660  -16.4263 C   0  0  0  0  0  0  0  0  0  0  0  0
   20.2315  -21.0131  -11.9898 O   0  0  0  0  0  0  0  0  0  0  0  0
   19.0580  -20.4160  -11.5798 O   0  0  0  0  0  0  0  0  0  0  0  0
   20.4550  -17.6350  -16.1240 O   0  0  0  0  0  0  0  0  0  0  0  0
  2  1  1  0
  3  2  2  0
  4  2  1  0
  5  4  1  0
  6  5  1  0
  7  6  1  0
  8 10  1  0
  8  7  1  0
  8  9  1  6
 10 19  1  0
 10 11  2  0
 12 13  1  0
 13 23  2  0
 13 14  1  0
 14 15  2  0
 15 16  1  0
 16 17  1  0
 18 17  1  6
 19 18  1  0
 20 24  1  0
 20 18  1  0
 21 20  2  0
 22 16  2  0
 23 22  1  0
 25 26  1  1
 25 30  1  0
 25 24  1  0
 27 28  1  0
 27 26  1  0
 28 32  1  0
 29 28  2  0
 30 31  1  0
 33 30  2  0
M  END
$$$$
