RYE.pdb
     RDKit          3D

 33 33  0  0  1  0  0  0  0  0999 V2000
   28.5999  -17.5047  -19.4093 N   0  0  0  0  0  0  0  0  0  0  0  0
   27.6119  -16.7023  -18.7904 C   0  0  0  0  0  0  0  0  0  0  0  0
   26.8716  -15.9521  -19.5288 N   0  0  0  0  0  0  0  0  0  0  0  0
   27.4098  -16.6953  -17.3890 N   0  0  0  0  0  0  0  0  0  0  0  0
   28.2074  -17.5259  -16.4856 C   0  0  0  0  0  0  0  0  0  0  0  0
   27.8562  -18.9572  -16.7908 C   0  0  0  0  0  0  0  0  0  0  0  0
   26.7772  -19.5030  -15.8947 C   0  0  0  0  0  0  0  0  0  0  0  0
   27.3616  -20.5423  -14.9701 C   0  0  2  0  0  0  0  0  0  0  0  0
   27.8059  -21.6412  -15.7800 N   0  0  0  0  0  0  0  0  0  0  0  0
   26.3495  -20.9954  -13.9746 C   0  0  0  0  0  0  0  0  0  0  0  0
   25.6871  -22.0389  -14.1913 O   0  0  0  0  0  0  0  0  0  0  0  0
   26.1527  -15.3476  -19.1016 O   0  0  0  0  0  0  0  0  0  0  0  0
   30.3851  -21.3834   -8.1998 C   0  0  0  0  0  0  0  0  0  0  0  0
   29.1342  -21.0547   -8.7590 C   0  0  0  0  0  0  0  0  0  0  0  0
   28.0244  -20.9080   -7.9713 C   0  0  0  0  0  0  0  0  0  0  0  0
   26.8192  -20.5872   -8.5487 C   0  0  0  0  0  0  0  0  0  0  0  0
   26.6584  -20.4011   -9.8971 C   0  0  0  0  0  0  0  0  0  0  0  0
   25.3591  -20.0616  -10.4571 C   0  0  2  0  0  0  0  0  0  0  0  0
   25.0979  -20.6724  -11.8124 N   0  0  0  0  0  0  0  0  0  0  0  0
   26.1075  -20.2743  -12.7724 C   0  0  0  0  0  0  0  0  0  0  0  0
   23.7771  -20.3580  -12.3512 O   0  0  0  0  0  0  0  0  0  0  0  0
   23.4855  -19.2816  -12.9385 C   0  0  0  0  0  0  0  0  0  0  0  0
   27.7729  -20.5483  -10.6890 C   0  0  0  0  0  0  0  0  0  0  0  0
   29.0127  -20.8754  -10.1198 N   0  0  0  0  0  0  0  0  0  0  0  0
   22.7230  -21.2949  -12.2291 C   0  0  1  0  0  0  0  0  0  0  0  0
   21.4092  -21.0409  -12.8497 C   0  0  0  0  0  0  0  0  0  0  0  0
   20.7393  -22.3250  -13.1833 C   0  0  0  0  0  0  0  0  0  0  0  0
   19.3452  -22.1051  -13.6818 C   0  0  0  0  0  0  0  0  0  0  0  0
   18.6927  -23.3794  -14.0851 O   0  0  0  0  0  0  0  0  0  0  0  0
   19.3727  -24.2659  -14.6306 C   0  0  0  0  0  0  0  0  0  0  0  0
   20.6170  -20.3003  -11.8414 O   0  0  0  0  0  0  0  0  0  0  0  0
   19.6201  -19.3845  -12.1043 O   0  0  0  0  0  0  0  0  0  0  0  0
   17.3509  -23.5685  -13.8537 O   0  0  0  0  0  0  0  0  0  0  0  0
  2  1  1  0
  3  2  2  0
  4  2  1  0
  5  4  1  0
  6  5  1  0
  7  6  1  0
  8 10  1  0
  8  7  1  0
  8  9  1  6
 10 19  1  0
 10 11  2  0
 12 13  1  0
 13 23  2  0
 13 14  1  0
 14 15  2  0
 15 16  1  0
 16 17  1  0
 18 17  1  1
 19 18  1  0
 20 24  1  0
 20 18  1  0
 21 20  2  0
 22 16  2  0
 23 22  1  0
 25 26  1  6
 25 30  1  0
 25 24  1  0
 27 28  1  0
 27 26  1  0
 28 32  1  0
 29 28  2  0
 30 31  1  0
 33 30  2  0
M  END
$$$$
