RYE.pdb
     RDKit          3D

 33 33  0  0  1  0  0  0  0  0999 V2000
   24.0792  -16.6124  -21.3737 N   0  0  0  0  0  0  0  0  0  0  0  0
   25.3768  -17.0765  -21.0516 C   0  0  0  0  0  0  0  0  0  0  0  0
   26.3830  -16.3054  -21.2731 N   0  0  0  0  0  0  0  0  0  0  0  0
   25.6070  -18.3582  -20.4955 N   0  0  0  0  0  0  0  0  0  0  0  0
   24.5104  -19.2203  -20.0524 C   0  0  0  0  0  0  0  0  0  0  0  0
   23.4508  -18.3148  -19.4843 C   0  0  0  0  0  0  0  0  0  0  0  0
   22.5021  -19.0270  -18.5581 C   0  0  0  0  0  0  0  0  0  0  0  0
   23.2841  -19.8392  -17.5554 C   0  0  2  0  0  0  0  0  0  0  0  0
   23.7893  -20.9976  -18.2366 N   0  0  0  0  0  0  0  0  0  0  0  0
   22.4218  -20.2362  -16.4068 C   0  0  0  0  0  0  0  0  0  0  0  0
   21.5536  -21.1292  -16.5598 O   0  0  0  0  0  0  0  0  0  0  0  0
   27.3433  -16.6380  -21.0949 O   0  0  0  0  0  0  0  0  0  0  0  0
   18.7525  -20.1133   -8.2969 C   0  0  0  0  0  0  0  0  0  0  0  0
   19.6239  -19.9595   -9.3935 C   0  0  0  0  0  0  0  0  0  0  0  0
   20.4474  -20.9784   -9.7901 C   0  0  0  0  0  0  0  0  0  0  0  0
   21.2856  -20.7954  -10.8638 C   0  0  0  0  0  0  0  0  0  0  0  0
   21.3477  -19.6268  -11.5774 C   0  0  0  0  0  0  0  0  0  0  0  0
   22.2535  -19.4860  -12.7074 C   0  0  1  0  0  0  0  0  0  0  0  0
   21.6637  -19.9300  -14.0239 N   0  0  0  0  0  0  0  0  0  0  0  0
   22.5530  -19.6280  -15.1274 C   0  0  0  0  0  0  0  0  0  0  0  0
   20.3494  -19.3557  -14.2998 O   0  0  0  0  0  0  0  0  0  0  0  0
   20.1585  -18.1811  -14.7153 C   0  0  0  0  0  0  0  0  0  0  0  0
   20.5207  -18.6029  -11.1796 C   0  0  0  0  0  0  0  0  0  0  0  0
   19.6573  -18.7689  -10.0862 N   0  0  0  0  0  0  0  0  0  0  0  0
   19.1831  -20.1332  -14.1019 C   0  0  2  0  0  0  0  0  0  0  0  0
   17.8422  -19.5445  -14.2792 C   0  0  0  0  0  0  0  0  0  0  0  0
   17.2637  -19.9622  -15.5830 C   0  0  0  0  0  0  0  0  0  0  0  0
   15.8780  -19.4270  -15.7669 C   0  0  0  0  0  0  0  0  0  0  0  0
   15.2886  -19.8476  -17.0661 O   0  0  0  0  0  0  0  0  0  0  0  0
   15.9073  -20.6530  -17.7833 C   0  0  0  0  0  0  0  0  0  0  0  0
   17.0166  -20.0653  -13.1656 O   0  0  0  0  0  0  0  0  0  0  0  0
   15.9321  -19.4337  -12.5942 O   0  0  0  0  0  0  0  0  0  0  0  0
   14.0715  -19.3472  -17.4635 O   0  0  0  0  0  0  0  0  0  0  0  0
  2  1  1  0
  3  2  2  0
  4  2  1  0
  5  4  1  0
  6  5  1  0
  7  6  1  0
  8 10  1  0
  8  7  1  0
  8  9  1  6
 10 19  1  0
 10 11  2  0
 12 13  1  0
 13 23  2  0
 13 14  1  0
 14 15  2  0
 15 16  1  0
 16 17  1  0
 18 17  1  1
 19 18  1  0
 20 24  1  0
 20 18  1  0
 21 20  2  0
 22 16  2  0
 23 22  1  0
 25 26  1  1
 25 30  1  0
 25 24  1  0
 27 28  1  0
 27 26  1  0
 28 32  1  0
 29 28  2  0
 30 31  1  0
 33 30  2  0
M  END
$$$$
