RYE.pdb
     RDKit          3D

 33 33  0  0  1  0  0  0  0  0999 V2000
   34.3943  -38.9000   -1.6642 N   0  0  0  0  0  0  0  0  0  0  0  0
   35.0215  -38.6606   -2.9102 C   0  0  0  0  0  0  0  0  0  0  0  0
   35.8956  -39.5038   -3.3356 N   0  0  0  0  0  0  0  0  0  0  0  0
   34.7220  -37.5270   -3.7040 N   0  0  0  0  0  0  0  0  0  0  0  0
   33.5409  -36.6982   -3.4592 C   0  0  0  0  0  0  0  0  0  0  0  0
   33.6489  -35.5097   -4.3763 C   0  0  0  0  0  0  0  0  0  0  0  0
   32.4908  -34.5574   -4.2456 C   0  0  0  0  0  0  0  0  0  0  0  0
   31.3939  -34.9567   -5.2016 C   0  0  2  0  0  0  0  0  0  0  0  0
   31.6581  -34.3122   -6.4569 N   0  0  0  0  0  0  0  0  0  0  0  0
   30.0590  -34.5571   -4.6736 C   0  0  0  0  0  0  0  0  0  0  0  0
   29.7909  -33.3416   -4.5148 O   0  0  0  0  0  0  0  0  0  0  0  0
   36.3346  -39.3770   -4.2607 O   0  0  0  0  0  0  0  0  0  0  0  0
   26.1443  -32.0061   -9.1567 C   0  0  0  0  0  0  0  0  0  0  0  0
   26.2706  -32.8791   -8.0579 C   0  0  0  0  0  0  0  0  0  0  0  0
   25.6325  -32.6227   -6.8744 C   0  0  0  0  0  0  0  0  0  0  0  0
   25.7771  -33.4947   -5.8220 C   0  0  0  0  0  0  0  0  0  0  0  0
   26.5396  -34.6318   -5.8883 C   0  0  0  0  0  0  0  0  0  0  0  0
   26.6583  -35.5221   -4.7436 C   0  0  2  0  0  0  0  0  0  0  0  0
   27.7747  -35.1558   -3.7961 N   0  0  0  0  0  0  0  0  0  0  0  0
   29.0673  -35.5209   -4.3398 C   0  0  0  0  0  0  0  0  0  0  0  0
   27.6321  -35.7462   -2.4677 O   0  0  0  0  0  0  0  0  0  0  0  0
   28.1945  -36.8118   -2.0979 C   0  0  0  0  0  0  0  0  0  0  0  0
   27.1808  -34.8900   -7.0769 C   0  0  0  0  0  0  0  0  0  0  0  0
   27.0465  -34.0129   -8.1636 N   0  0  0  0  0  0  0  0  0  0  0  0
   26.8179  -35.1140   -1.4974 C   0  0  1  0  0  0  0  0  0  0  0  0
   26.7065  -35.6595   -0.1316 C   0  0  0  0  0  0  0  0  0  0  0  0
   28.0023  -35.5270    0.5842 C   0  0  0  0  0  0  0  0  0  0  0  0
   27.8813  -35.9303    2.0206 C   0  0  0  0  0  0  0  0  0  0  0  0
   29.1078  -35.6006    2.7947 O   0  0  0  0  0  0  0  0  0  0  0  0
   29.2035  -34.4868    3.3389 C   0  0  0  0  0  0  0  0  0  0  0  0
   25.6653  -34.8541    0.5468 O   0  0  0  0  0  0  0  0  0  0  0  0
   25.0400  -35.1694    1.7347 O   0  0  0  0  0  0  0  0  0  0  0  0
   30.1212  -36.5229    2.9036 O   0  0  0  0  0  0  0  0  0  0  0  0
  2  1  1  0
  3  2  2  0
  4  2  1  0
  5  4  1  0
  6  5  1  0
  7  6  1  0
  8 10  1  0
  8  7  1  0
  8  9  1  6
 10 19  1  0
 10 11  2  0
 12 13  1  0
 13 23  2  0
 13 14  1  0
 14 15  2  0
 15 16  1  0
 16 17  1  0
 18 17  1  6
 19 18  1  0
 20 24  1  0
 20 18  1  0
 21 20  2  0
 22 16  2  0
 23 22  1  0
 25 26  1  6
 25 30  1  0
 25 24  1  0
 27 28  1  0
 27 26  1  0
 28 32  1  0
 29 28  2  0
 30 31  1  0
 33 30  2  0
M  END
$$$$
