RYE.pdb
     RDKit          3D

 33 33  0  0  1  0  0  0  0  0999 V2000
   30.4580  -20.1159  -20.9076 N   0  0  0  0  0  0  0  0  0  0  0  0
   29.4749  -19.1300  -20.6536 C   0  0  0  0  0  0  0  0  0  0  0  0
   29.3317  -18.1671  -21.4953 N   0  0  0  0  0  0  0  0  0  0  0  0
   28.6447  -19.1652  -19.5072 N   0  0  0  0  0  0  0  0  0  0  0  0
   28.7154  -20.2532  -18.5308 C   0  0  0  0  0  0  0  0  0  0  0  0
   27.6555  -21.2498  -18.9161 C   0  0  0  0  0  0  0  0  0  0  0  0
   26.6043  -21.4320  -17.8545 C   0  0  0  0  0  0  0  0  0  0  0  0
   27.2229  -22.0574  -16.6286 C   0  0  2  0  0  0  0  0  0  0  0  0
   27.6517  -23.3798  -16.9870 N   0  0  0  0  0  0  0  0  0  0  0  0
   26.2435  -22.1058  -15.5066 C   0  0  0  0  0  0  0  0  0  0  0  0
   25.3691  -23.0056  -15.4821 O   0  0  0  0  0  0  0  0  0  0  0  0
   28.6637  -17.4040  -21.3051 O   0  0  0  0  0  0  0  0  0  0  0  0
   22.1502  -20.2992   -7.8325 C   0  0  0  0  0  0  0  0  0  0  0  0
   23.0536  -20.3215   -8.9137 C   0  0  0  0  0  0  0  0  0  0  0  0
   24.2339  -21.0102   -8.8344 C   0  0  0  0  0  0  0  0  0  0  0  0
   25.0929  -21.0113   -9.9072 C   0  0  0  0  0  0  0  0  0  0  0  0
   24.8325  -20.3488  -11.0785 C   0  0  0  0  0  0  0  0  0  0  0  0
   25.7769  -20.3831  -12.1849 C   0  0  2  0  0  0  0  0  0  0  0  0
   25.2737  -21.1292  -13.3966 N   0  0  0  0  0  0  0  0  0  0  0  0
   26.2682  -21.1534  -14.4501 C   0  0  0  0  0  0  0  0  0  0  0  0
   24.0233  -20.5981  -13.9332 O   0  0  0  0  0  0  0  0  0  0  0  0
   23.9319  -19.5385  -14.6098 C   0  0  0  0  0  0  0  0  0  0  0  0
   23.6469  -19.6569  -11.1588 C   0  0  0  0  0  0  0  0  0  0  0  0
   22.7559  -19.6429  -10.0753 N   0  0  0  0  0  0  0  0  0  0  0  0
   22.8074  -21.2857  -13.7035 C   0  0  2  0  0  0  0  0  0  0  0  0
   21.5284  -20.7496  -14.2060 C   0  0  0  0  0  0  0  0  0  0  0  0
   20.8725  -21.7362  -15.1034 C   0  0  0  0  0  0  0  0  0  0  0  0
   19.5201  -21.2676  -15.5415 C   0  0  0  0  0  0  0  0  0  0  0  0
   18.8447  -22.2627  -16.4167 O   0  0  0  0  0  0  0  0  0  0  0  0
   17.7049  -22.0189  -16.8494 C   0  0  0  0  0  0  0  0  0  0  0  0
   20.6875  -20.5107  -13.0107 O   0  0  0  0  0  0  0  0  0  0  0  0
   19.7510  -19.5093  -12.8634 O   0  0  0  0  0  0  0  0  0  0  0  0
   19.4804  -23.4378  -16.7402 O   0  0  0  0  0  0  0  0  0  0  0  0
  2  1  1  0
  3  2  2  0
  4  2  1  0
  5  4  1  0
  6  5  1  0
  7  6  1  0
  8 10  1  0
  8  7  1  0
  8  9  1  6
 10 19  1  0
 10 11  2  0
 12 13  1  0
 13 23  2  0
 13 14  1  0
 14 15  2  0
 15 16  1  0
 16 17  1  0
 18 17  1  1
 19 18  1  0
 20 24  1  0
 20 18  1  0
 21 20  2  0
 22 16  2  0
 23 22  1  0
 25 26  1  1
 25 30  1  0
 25 24  1  0
 27 28  1  0
 27 26  1  0
 28 32  1  0
 29 28  2  0
 30 31  1  0
 33 30  2  0
M  END
$$$$
