RYE.pdb
     RDKit          3D

 33 33  0  0  1  0  0  0  0  0999 V2000
   30.2718  -28.1446  -18.0254 N   0  0  0  0  0  0  0  0  0  0  0  0
   29.0470  -28.6711  -18.5005 C   0  0  0  0  0  0  0  0  0  0  0  0
   28.8607  -29.9436  -18.4548 N   0  0  0  0  0  0  0  0  0  0  0  0
   28.0207  -27.8482  -19.0242 N   0  0  0  0  0  0  0  0  0  0  0  0
   28.0106  -26.3983  -18.8247 C   0  0  0  0  0  0  0  0  0  0  0  0
   28.2486  -26.1620  -17.3574 C   0  0  0  0  0  0  0  0  0  0  0  0
   26.9854  -25.8603  -16.5968 C   0  0  0  0  0  0  0  0  0  0  0  0
   26.6130  -24.4102  -16.7844 C   0  0  2  0  0  0  0  0  0  0  0  0
   27.8322  -23.6539  -16.8390 N   0  0  0  0  0  0  0  0  0  0  0  0
   25.7473  -23.9364  -15.6680 C   0  0  0  0  0  0  0  0  0  0  0  0
   24.7164  -24.5833  -15.3621 O   0  0  0  0  0  0  0  0  0  0  0  0
   27.9588  -30.3489  -18.7496 O   0  0  0  0  0  0  0  0  0  0  0  0
   22.7533  -19.6540   -8.5501 C   0  0  0  0  0  0  0  0  0  0  0  0
   23.5482  -20.1049   -9.6226 C   0  0  0  0  0  0  0  0  0  0  0  0
   23.2600  -19.7518  -10.9132 C   0  0  0  0  0  0  0  0  0  0  0  0
   24.0556  -20.2091  -11.9363 C   0  0  0  0  0  0  0  0  0  0  0  0
   25.1453  -21.0163  -11.7369 C   0  0  0  0  0  0  0  0  0  0  0  0
   25.9552  -21.4721  -12.8565 C   0  0  2  0  0  0  0  0  0  0  0  0
   25.1779  -22.2272  -13.9071 N   0  0  0  0  0  0  0  0  0  0  0  0
   26.0556  -22.7603  -14.9293 C   0  0  0  0  0  0  0  0  0  0  0  0
   24.1311  -21.4325  -14.5444 O   0  0  0  0  0  0  0  0  0  0  0  0
   24.3458  -20.4456  -15.2986 C   0  0  0  0  0  0  0  0  0  0  0  0
   25.4355  -21.3713  -10.4406 C   0  0  0  0  0  0  0  0  0  0  0  0
   24.6363  -20.9153   -9.3815 N   0  0  0  0  0  0  0  0  0  0  0  0
   22.7696  -21.7555  -14.3300 C   0  0  2  0  0  0  0  0  0  0  0  0
   21.6973  -20.9979  -15.0022 C   0  0  0  0  0  0  0  0  0  0  0  0
   20.9966  -21.8609  -15.9889 C   0  0  0  0  0  0  0  0  0  0  0  0
   19.8575  -21.1400  -16.6395 C   0  0  0  0  0  0  0  0  0  0  0  0
   19.0748  -22.0330  -17.5351 O   0  0  0  0  0  0  0  0  0  0  0  0
   19.3274  -23.2503  -17.5536 C   0  0  0  0  0  0  0  0  0  0  0  0
   20.7599  -20.5809  -13.9344 O   0  0  0  0  0  0  0  0  0  0  0  0
   20.0108  -19.4232  -13.9177 O   0  0  0  0  0  0  0  0  0  0  0  0
   18.0832  -21.5110  -18.3313 O   0  0  0  0  0  0  0  0  0  0  0  0
  2  1  1  0
  3  2  2  0
  4  2  1  0
  5  4  1  0
  6  5  1  0
  7  6  1  0
  8 10  1  0
  8  7  1  0
  8  9  1  1
 10 19  1  0
 10 11  2  0
 12 13  1  0
 13 23  2  0
 13 14  1  0
 14 15  2  0
 15 16  1  0
 16 17  1  0
 18 17  1  1
 19 18  1  0
 20 24  1  0
 20 18  1  0
 21 20  2  0
 22 16  2  0
 23 22  1  0
 25 26  1  1
 25 30  1  0
 25 24  1  0
 27 28  1  0
 27 26  1  0
 28 32  1  0
 29 28  2  0
 30 31  1  0
 33 30  2  0
M  END
$$$$
