RYE.pdb
     RDKit          3D

 33 33  0  0  1  0  0  0  0  0999 V2000
   29.1170  -18.1118  -21.7287 N   0  0  0  0  0  0  0  0  0  0  0  0
   28.7655  -17.4147  -20.5482 C   0  0  0  0  0  0  0  0  0  0  0  0
   28.2321  -16.2483  -20.6535 N   0  0  0  0  0  0  0  0  0  0  0  0
   28.9802  -17.9544  -19.2569 N   0  0  0  0  0  0  0  0  0  0  0  0
   29.5872  -19.2711  -19.0571 C   0  0  0  0  0  0  0  0  0  0  0  0
   28.5618  -20.2886  -19.4795 C   0  0  0  0  0  0  0  0  0  0  0  0
   27.6035  -20.6518  -18.3773 C   0  0  0  0  0  0  0  0  0  0  0  0
   28.3394  -21.3899  -17.2864 C   0  0  2  0  0  0  0  0  0  0  0  0
   28.7677  -22.6485  -17.8284 N   0  0  0  0  0  0  0  0  0  0  0  0
   27.4610  -21.5971  -16.1007 C   0  0  0  0  0  0  0  0  0  0  0  0
   26.7019  -22.5953  -16.0553 O   0  0  0  0  0  0  0  0  0  0  0  0
   28.0211  -15.6939  -19.8092 O   0  0  0  0  0  0  0  0  0  0  0  0
   23.7784  -20.4899   -8.0973 C   0  0  0  0  0  0  0  0  0  0  0  0
   24.6135  -20.4050   -9.2290 C   0  0  0  0  0  0  0  0  0  0  0  0
   24.1688  -19.8423  -10.3949 C   0  0  0  0  0  0  0  0  0  0  0  0
   25.0090  -19.7754  -11.4805 C   0  0  0  0  0  0  0  0  0  0  0  0
   26.2951  -20.2493  -11.4651 C   0  0  0  0  0  0  0  0  0  0  0  0
   27.1434  -20.1527  -12.6433 C   0  0  1  0  0  0  0  0  0  0  0  0
   26.5862  -20.8540  -13.8581 N   0  0  0  0  0  0  0  0  0  0  0  0
   27.4552  -20.6888  -15.0058 C   0  0  0  0  0  0  0  0  0  0  0  0
   25.2373  -20.4226  -14.2155 O   0  0  0  0  0  0  0  0  0  0  0  0
   24.9651  -19.3271  -14.7763 C   0  0  0  0  0  0  0  0  0  0  0  0
   26.7424  -20.8146  -10.2942 C   0  0  0  0  0  0  0  0  0  0  0  0
   25.9011  -20.8928   -9.1743 N   0  0  0  0  0  0  0  0  0  0  0  0
   24.1302  -21.2582  -13.9326 C   0  0  2  0  0  0  0  0  0  0  0  0
   22.7664  -20.8713  -14.3402 C   0  0  0  0  0  0  0  0  0  0  0  0
   22.1515  -21.9427  -15.1667 C   0  0  0  0  0  0  0  0  0  0  0  0
   20.7630  -21.5806  -15.5927 C   0  0  0  0  0  0  0  0  0  0  0  0
   20.1553  -22.6301  -16.4537 O   0  0  0  0  0  0  0  0  0  0  0  0
   20.7338  -22.9694  -17.5005 C   0  0  0  0  0  0  0  0  0  0  0  0
   21.9999  -20.6926  -13.0859 O   0  0  0  0  0  0  0  0  0  0  0  0
   20.9655  -19.8028  -12.8857 O   0  0  0  0  0  0  0  0  0  0  0  0
   18.9658  -23.2150  -16.0894 O   0  0  0  0  0  0  0  0  0  0  0  0
  2  1  1  0
  3  2  2  0
  4  2  1  0
  5  4  1  0
  6  5  1  0
  7  6  1  0
  8 10  1  0
  8  7  1  0
  8  9  1  6
 10 19  1  0
 10 11  2  0
 12 13  1  0
 13 23  2  0
 13 14  1  0
 14 15  2  0
 15 16  1  0
 16 17  1  0
 18 17  1  1
 19 18  1  0
 20 24  1  0
 20 18  1  0
 21 20  2  0
 22 16  2  0
 23 22  1  0
 25 26  1  6
 25 30  1  0
 25 24  1  0
 27 28  1  0
 27 26  1  0
 28 32  1  0
 29 28  2  0
 30 31  1  0
 33 30  2  0
M  END
$$$$
