RYE.pdb
     RDKit          3D

 33 33  0  0  1  0  0  0  0  0999 V2000
   28.8304  -27.0785  -19.7188 N   0  0  0  0  0  0  0  0  0  0  0  0
   28.9638  -27.7809  -18.4973 C   0  0  0  0  0  0  0  0  0  0  0  0
   29.8763  -28.6829  -18.3982 N   0  0  0  0  0  0  0  0  0  0  0  0
   28.1294  -27.5269  -17.3819 N   0  0  0  0  0  0  0  0  0  0  0  0
   27.1018  -26.4850  -17.4027 C   0  0  0  0  0  0  0  0  0  0  0  0
   27.8159  -25.1698  -17.2424 C   0  0  0  0  0  0  0  0  0  0  0  0
   26.9463  -24.0962  -16.6456 C   0  0  0  0  0  0  0  0  0  0  0  0
   27.7245  -22.8072  -16.5484 C   0  0  2  0  0  0  0  0  0  0  0  0
   29.0422  -23.1315  -16.0797 N   0  0  0  0  0  0  0  0  0  0  0  0
   27.0546  -21.8521  -15.6213 C   0  0  0  0  0  0  0  0  0  0  0  0
   27.4700  -21.7332  -14.4432 O   0  0  0  0  0  0  0  0  0  0  0  0
   29.9919  -29.2125  -17.5203 O   0  0  0  0  0  0  0  0  0  0  0  0
   29.6004  -16.8589  -18.6497 C   0  0  0  0  0  0  0  0  0  0  0  0
   28.7741  -17.4128  -17.6517 C   0  0  0  0  0  0  0  0  0  0  0  0
   27.4240  -17.1876  -17.6466 C   0  0  0  0  0  0  0  0  0  0  0  0
   26.6465  -17.7426  -16.6585 C   0  0  0  0  0  0  0  0  0  0  0  0
   27.1540  -18.5260  -15.6547 C   0  0  0  0  0  0  0  0  0  0  0  0
   26.2856  -19.0901  -14.6326 C   0  0  1  0  0  0  0  0  0  0  0  0
   25.2998  -20.1048  -15.1585 N   0  0  0  0  0  0  0  0  0  0  0  0
   25.9461  -21.0616  -16.0339 C   0  0  0  0  0  0  0  0  0  0  0  0
   24.1643  -19.5094  -15.8582 O   0  0  0  0  0  0  0  0  0  0  0  0
   24.1527  -19.2286  -17.0870 C   0  0  0  0  0  0  0  0  0  0  0  0
   28.5103  -18.7526  -15.6593 C   0  0  0  0  0  0  0  0  0  0  0  0
   29.3219  -18.1956  -16.6588 N   0  0  0  0  0  0  0  0  0  0  0  0
   22.9757  -19.2105  -15.1498 C   0  0  1  0  0  0  0  0  0  0  0  0
   21.7060  -19.8824  -15.4846 C   0  0  0  0  0  0  0  0  0  0  0  0
   21.8613  -21.3573  -15.3862 C   0  0  0  0  0  0  0  0  0  0  0  0
   20.5901  -22.0687  -15.7306 C   0  0  0  0  0  0  0  0  0  0  0  0
   20.7274  -23.5440  -15.6014 O   0  0  0  0  0  0  0  0  0  0  0  0
   21.1371  -24.0262  -14.5312 C   0  0  0  0  0  0  0  0  0  0  0  0
   20.7172  -19.4070  -14.4901 O   0  0  0  0  0  0  0  0  0  0  0  0
   19.3540  -19.3183  -14.6785 O   0  0  0  0  0  0  0  0  0  0  0  0
   20.4024  -24.3603  -16.6587 O   0  0  0  0  0  0  0  0  0  0  0  0
  2  1  1  0
  3  2  2  0
  4  2  1  0
  5  4  1  0
  6  5  1  0
  7  6  1  0
  8 10  1  0
  8  7  1  0
  8  9  1  1
 10 19  1  0
 10 11  2  0
 12 13  1  0
 13 23  2  0
 13 14  1  0
 14 15  2  0
 15 16  1  0
 16 17  1  0
 18 17  1  1
 19 18  1  0
 20 24  1  0
 20 18  1  0
 21 20  2  0
 22 16  2  0
 23 22  1  0
 25 26  1  6
 25 30  1  0
 25 24  1  0
 27 28  1  0
 27 26  1  0
 28 32  1  0
 29 28  2  0
 30 31  1  0
 33 30  2  0
M  END
$$$$
