RYE.pdb
     RDKit          3D

 33 33  0  0  1  0  0  0  0  0999 V2000
   21.6709  -27.4051  -11.6226 N   0  0  0  0  0  0  0  0  0  0  0  0
   20.4093  -26.8384  -11.9232 C   0  0  0  0  0  0  0  0  0  0  0  0
   19.4806  -27.6024  -12.3811 N   0  0  0  0  0  0  0  0  0  0  0  0
   20.1335  -25.4619  -11.7386 N   0  0  0  0  0  0  0  0  0  0  0  0
   21.1005  -24.4221  -12.0934 C   0  0  0  0  0  0  0  0  0  0  0  0
   20.9497  -24.1772  -13.5708 C   0  0  0  0  0  0  0  0  0  0  0  0
   20.2861  -22.8635  -13.8854 C   0  0  0  0  0  0  0  0  0  0  0  0
   20.6750  -21.8367  -12.8505 C   0  0  2  0  0  0  0  0  0  0  0  0
   19.4645  -21.3219  -12.2754 N   0  0  0  0  0  0  0  0  0  0  0  0
   21.4750  -20.7404  -13.4659 C   0  0  0  0  0  0  0  0  0  0  0  0
   20.8902  -19.7584  -13.9839 O   0  0  0  0  0  0  0  0  0  0  0  0
   18.5324  -27.2294  -12.5440 O   0  0  0  0  0  0  0  0  0  0  0  0
   28.5398  -16.3863  -16.6785 C   0  0  0  0  0  0  0  0  0  0  0  0
   27.6937  -17.2438  -15.9476 C   0  0  0  0  0  0  0  0  0  0  0  0
   26.8909  -16.7620  -14.9490 C   0  0  0  0  0  0  0  0  0  0  0  0
   26.0775  -17.6256  -14.2552 C   0  0  0  0  0  0  0  0  0  0  0  0
   26.0208  -18.9714  -14.5092 C   0  0  0  0  0  0  0  0  0  0  0  0
   25.1407  -19.8419  -13.7445 C   0  0  1  0  0  0  0  0  0  0  0  0
   23.6919  -19.7661  -14.1606 N   0  0  0  0  0  0  0  0  0  0  0  0
   22.8972  -20.7721  -13.4853 C   0  0  0  0  0  0  0  0  0  0  0  0
   23.4900  -19.8875  -15.6021 O   0  0  0  0  0  0  0  0  0  0  0  0
   23.4299  -20.9827  -16.2231 C   0  0  0  0  0  0  0  0  0  0  0  0
   26.8269  -19.4560  -15.5122 C   0  0  0  0  0  0  0  0  0  0  0  0
   27.6646  -18.5916  -16.2328 N   0  0  0  0  0  0  0  0  0  0  0  0
   23.3467  -18.7241  -16.3958 C   0  0  2  0  0  0  0  0  0  0  0  0
   23.1876  -18.8212  -17.8590 C   0  0  0  0  0  0  0  0  0  0  0  0
   21.8060  -18.4417  -18.2540 C   0  0  0  0  0  0  0  0  0  0  0  0
   21.6250  -18.4909  -19.7391 C   0  0  0  0  0  0  0  0  0  0  0  0
   20.2568  -18.0724  -20.1455 O   0  0  0  0  0  0  0  0  0  0  0  0
   19.5431  -17.4549  -19.3361 C   0  0  0  0  0  0  0  0  0  0  0  0
   24.1627  -17.8704  -18.4404 O   0  0  0  0  0  0  0  0  0  0  0  0
   24.9320  -18.0819  -19.5652 O   0  0  0  0  0  0  0  0  0  0  0  0
   19.7927  -18.3685  -21.4051 O   0  0  0  0  0  0  0  0  0  0  0  0
  2  1  1  0
  3  2  2  0
  4  2  1  0
  5  4  1  0
  6  5  1  0
  7  6  1  0
  8 10  1  0
  8  7  1  0
  8  9  1  6
 10 19  1  0
 10 11  2  0
 12 13  1  0
 13 23  2  0
 13 14  1  0
 14 15  2  0
 15 16  1  0
 16 17  1  0
 18 17  1  1
 19 18  1  0
 20 24  1  0
 20 18  1  0
 21 20  2  0
 22 16  2  0
 23 22  1  0
 25 26  1  1
 25 30  1  0
 25 24  1  0
 27 28  1  0
 27 26  1  0
 28 32  1  0
 29 28  2  0
 30 31  1  0
 33 30  2  0
M  END
$$$$
