RYE.pdb
     RDKit          3D

 33 33  0  0  1  0  0  0  0  0999 V2000
   12.4910  -21.9201   -3.7043 N   0  0  0  0  0  0  0  0  0  0  0  0
   11.3606  -22.6943   -3.3497 C   0  0  0  0  0  0  0  0  0  0  0  0
   10.5027  -22.9914   -4.2618 N   0  0  0  0  0  0  0  0  0  0  0  0
   11.1401  -23.1525   -2.0282 N   0  0  0  0  0  0  0  0  0  0  0  0
   11.8458  -22.5808   -0.8806 C   0  0  0  0  0  0  0  0  0  0  0  0
   13.2335  -23.1636   -0.8921 C   0  0  0  0  0  0  0  0  0  0  0  0
   14.0504  -22.7635    0.3069 C   0  0  0  0  0  0  0  0  0  0  0  0
   14.7262  -21.4404    0.0431 C   0  0  2  0  0  0  0  0  0  0  0  0
   15.6267  -21.6267   -1.0595 N   0  0  0  0  0  0  0  0  0  0  0  0
   15.4609  -20.9702    1.2512 C   0  0  0  0  0  0  0  0  0  0  0  0
   16.5821  -21.4609    1.5281 O   0  0  0  0  0  0  0  0  0  0  0  0
    9.7080  -23.6133   -4.0466 O   0  0  0  0  0  0  0  0  0  0  0  0
   18.8963  -13.9356    2.9682 C   0  0  0  0  0  0  0  0  0  0  0  0
   17.9606  -14.9739    3.1471 C   0  0  0  0  0  0  0  0  0  0  0  0
   16.6452  -14.7022    3.4105 C   0  0  0  0  0  0  0  0  0  0  0  0
   15.7584  -15.7384    3.5800 C   0  0  0  0  0  0  0  0  0  0  0  0
   16.1209  -17.0579    3.4991 C   0  0  0  0  0  0  0  0  0  0  0  0
   15.1409  -18.1170    3.6863 C   0  0  2  0  0  0  0  0  0  0  0  0
   15.6321  -19.4847    3.2786 N   0  0  0  0  0  0  0  0  0  0  0  0
   14.9255  -19.9711    2.1109 C   0  0  0  0  0  0  0  0  0  0  0  0
   15.5380  -20.4813    4.3424 O   0  0  0  0  0  0  0  0  0  0  0  0
   14.5561  -21.2536    4.5098 C   0  0  0  0  0  0  0  0  0  0  0  0
   17.4421  -17.3314    3.2344 C   0  0  0  0  0  0  0  0  0  0  0  0
   18.3637  -16.2885    3.0580 N   0  0  0  0  0  0  0  0  0  0  0  0
   16.5968  -20.6255    5.2709 C   0  0  2  0  0  0  0  0  0  0  0  0
   16.5075  -21.5997    6.3749 C   0  0  0  0  0  0  0  0  0  0  0  0
   17.7881  -22.3414    6.5131 C   0  0  0  0  0  0  0  0  0  0  0  0
   17.7485  -23.2981    7.6636 C   0  0  0  0  0  0  0  0  0  0  0  0
   19.0431  -24.0091    7.8388 O   0  0  0  0  0  0  0  0  0  0  0  0
   19.9915  -23.7435    7.0800 C   0  0  0  0  0  0  0  0  0  0  0  0
   16.2430  -20.8083    7.5982 O   0  0  0  0  0  0  0  0  0  0  0  0
   15.7297  -21.2918    8.7832 O   0  0  0  0  0  0  0  0  0  0  0  0
   19.1827  -24.9490    8.8322 O   0  0  0  0  0  0  0  0  0  0  0  0
  2  1  1  0
  3  2  2  0
  4  2  1  0
  5  4  1  0
  6  5  1  0
  7  6  1  0
  8 10  1  0
  8  7  1  0
  8  9  1  6
 10 19  1  0
 10 11  2  0
 12 13  1  0
 13 23  2  0
 13 14  1  0
 14 15  2  0
 15 16  1  0
 16 17  1  0
 18 17  1  6
 19 18  1  0
 20 24  1  0
 20 18  1  0
 21 20  2  0
 22 16  2  0
 23 22  1  0
 25 26  1  6
 25 30  1  0
 25 24  1  0
 27 28  1  0
 27 26  1  0
 28 32  1  0
 29 28  2  0
 30 31  1  0
 33 30  2  0
M  END
$$$$
