RYE.pdb
     RDKit          3D

 33 33  0  0  1  0  0  0  0  0999 V2000
   30.8109  -24.9590  -16.3695 N   0  0  0  0  0  0  0  0  0  0  0  0
   29.7879  -24.8336  -17.3395 C   0  0  0  0  0  0  0  0  0  0  0  0
   29.1025  -25.8761  -17.6549 N   0  0  0  0  0  0  0  0  0  0  0  0
   29.4927  -23.6032  -17.9749 N   0  0  0  0  0  0  0  0  0  0  0  0
   30.0685  -22.3369  -17.5199 C   0  0  0  0  0  0  0  0  0  0  0  0
   29.3687  -21.9802  -16.2360 C   0  0  0  0  0  0  0  0  0  0  0  0
   28.3045  -20.9314  -16.4169 C   0  0  0  0  0  0  0  0  0  0  0  0
   26.9645  -21.4909  -16.0069 C   0  0  2  0  0  0  0  0  0  0  0  0
   26.5686  -22.4424  -17.0064 N   0  0  0  0  0  0  0  0  0  0  0  0
   25.9522  -20.4045  -15.8817 C   0  0  0  0  0  0  0  0  0  0  0  0
   26.0790  -19.5359  -14.9851 O   0  0  0  0  0  0  0  0  0  0  0  0
   28.3561  -25.8136  -18.3645 O   0  0  0  0  0  0  0  0  0  0  0  0
   29.3768  -15.9260  -17.9596 C   0  0  0  0  0  0  0  0  0  0  0  0
   28.0976  -16.5168  -17.9667 C   0  0  0  0  0  0  0  0  0  0  0  0
   27.8241  -17.6009  -18.7564 C   0  0  0  0  0  0  0  0  0  0  0  0
   26.5656  -18.1530  -18.7398 C   0  0  0  0  0  0  0  0  0  0  0  0
   25.5447  -17.6719  -17.9620 C   0  0  0  0  0  0  0  0  0  0  0  0
   24.2299  -18.2950  -17.9819 C   0  0  2  0  0  0  0  0  0  0  0  0
   23.9498  -19.1719  -16.7858 N   0  0  0  0  0  0  0  0  0  0  0  0
   24.8335  -20.3199  -16.7565 C   0  0  0  0  0  0  0  0  0  0  0  0
   22.5660  -19.6332  -16.7097 O   0  0  0  0  0  0  0  0  0  0  0  0
   22.1392  -20.6948  -17.2386 C   0  0  0  0  0  0  0  0  0  0  0  0
   25.8188  -16.5829  -17.1685 C   0  0  0  0  0  0  0  0  0  0  0  0
   27.0967  -16.0042  -17.1703 N   0  0  0  0  0  0  0  0  0  0  0  0
   21.6045  -18.8697  -16.0051 C   0  0  2  0  0  0  0  0  0  0  0  0
   20.2021  -19.3176  -15.9132 C   0  0  0  0  0  0  0  0  0  0  0  0
   19.8453  -19.6092  -14.5001 C   0  0  0  0  0  0  0  0  0  0  0  0
   20.2401  -20.9989  -14.1083 C   0  0  0  0  0  0  0  0  0  0  0  0
   19.8159  -21.3258  -12.7207 O   0  0  0  0  0  0  0  0  0  0  0  0
   19.2633  -20.4515  -12.0307 C   0  0  0  0  0  0  0  0  0  0  0  0
   19.3805  -18.1970  -16.4250 O   0  0  0  0  0  0  0  0  0  0  0  0
   18.0316  -18.2418  -16.7077 O   0  0  0  0  0  0  0  0  0  0  0  0
   20.0355  -22.5841  -12.2127 O   0  0  0  0  0  0  0  0  0  0  0  0
  2  1  1  0
  3  2  2  0
  4  2  1  0
  5  4  1  0
  6  5  1  0
  7  6  1  0
  8 10  1  0
  8  7  1  0
  8  9  1  6
 10 19  1  0
 10 11  2  0
 12 13  1  0
 13 23  2  0
 13 14  1  0
 14 15  2  0
 15 16  1  0
 16 17  1  0
 18 17  1  1
 19 18  1  0
 20 24  1  0
 20 18  1  0
 21 20  2  0
 22 16  2  0
 23 22  1  0
 25 26  1  6
 25 30  1  0
 25 24  1  0
 27 28  1  0
 27 26  1  0
 28 32  1  0
 29 28  2  0
 30 31  1  0
 33 30  2  0
M  END
$$$$
