RYE.pdb
     RDKit          3D

 33 33  0  0  1  0  0  0  0  0999 V2000
   29.5261  -25.9906  -16.1307 N   0  0  0  0  0  0  0  0  0  0  0  0
   30.3010  -25.7100  -17.2813 C   0  0  0  0  0  0  0  0  0  0  0  0
   30.6632  -26.6865  -18.0371 N   0  0  0  0  0  0  0  0  0  0  0  0
   30.6917  -24.3944  -17.6295 N   0  0  0  0  0  0  0  0  0  0  0  0
   29.9278  -23.2201  -17.2060 C   0  0  0  0  0  0  0  0  0  0  0  0
   28.7329  -23.1300  -18.1168 C   0  0  0  0  0  0  0  0  0  0  0  0
   27.4234  -23.2424  -17.3834 C   0  0  0  0  0  0  0  0  0  0  0  0
   26.9874  -21.8780  -16.9094 C   0  0  2  0  0  0  0  0  0  0  0  0
   28.1408  -21.0233  -16.9310 N   0  0  0  0  0  0  0  0  0  0  0  0
   26.4111  -21.9525  -15.5372 C   0  0  0  0  0  0  0  0  0  0  0  0
   25.4614  -22.7385  -15.3029 O   0  0  0  0  0  0  0  0  0  0  0  0
   31.3399  -26.5311  -18.8003 O   0  0  0  0  0  0  0  0  0  0  0  0
   25.1382  -20.4944   -6.8707 C   0  0  0  0  0  0  0  0  0  0  0  0
   25.6812  -20.5746   -8.1684 C   0  0  0  0  0  0  0  0  0  0  0  0
   25.9427  -21.7850   -8.7516 C   0  0  0  0  0  0  0  0  0  0  0  0
   26.4728  -21.8279  -10.0189 C   0  0  0  0  0  0  0  0  0  0  0  0
   26.7619  -20.7053  -10.7504 C   0  0  0  0  0  0  0  0  0  0  0  0
   27.3221  -20.8072  -12.0894 C   0  0  1  0  0  0  0  0  0  0  0  0
   26.3062  -21.1416  -13.1544 N   0  0  0  0  0  0  0  0  0  0  0  0
   26.9090  -21.1517  -14.4720 C   0  0  0  0  0  0  0  0  0  0  0  0
   25.1526  -20.2457  -13.1646 O   0  0  0  0  0  0  0  0  0  0  0  0
   25.1849  -19.0475  -13.5544 C   0  0  0  0  0  0  0  0  0  0  0  0
   26.4994  -19.4891  -10.1652 C   0  0  0  0  0  0  0  0  0  0  0  0
   25.9583  -19.4229   -8.8725 N   0  0  0  0  0  0  0  0  0  0  0  0
   23.8931  -20.7107  -12.7160 C   0  0  2  0  0  0  0  0  0  0  0  0
   22.7153  -19.8228  -12.7149 C   0  0  0  0  0  0  0  0  0  0  0  0
   22.2898  -19.5285  -14.1082 C   0  0  0  0  0  0  0  0  0  0  0  0
   21.5897  -20.6973  -14.7283 C   0  0  0  0  0  0  0  0  0  0  0  0
   21.2025  -20.4277  -16.1388 O   0  0  0  0  0  0  0  0  0  0  0  0
   20.5576  -21.2846  -16.7678 C   0  0  0  0  0  0  0  0  0  0  0  0
   21.6477  -20.5605  -12.0015 O   0  0  0  0  0  0  0  0  0  0  0  0
   20.4613  -20.0291  -11.5414 O   0  0  0  0  0  0  0  0  0  0  0  0
   21.5573  -19.2408  -16.7346 O   0  0  0  0  0  0  0  0  0  0  0  0
  2  1  1  0
  3  2  2  0
  4  2  1  0
  5  4  1  0
  6  5  1  0
  7  6  1  0
  8 10  1  0
  8  7  1  0
  8  9  1  1
 10 19  1  0
 10 11  2  0
 12 13  1  0
 13 23  2  0
 13 14  1  0
 14 15  2  0
 15 16  1  0
 16 17  1  0
 18 17  1  1
 19 18  1  0
 20 24  1  0
 20 18  1  0
 21 20  2  0
 22 16  2  0
 23 22  1  0
 25 26  1  1
 25 30  1  0
 25 24  1  0
 27 28  1  0
 27 26  1  0
 28 32  1  0
 29 28  2  0
 30 31  1  0
 33 30  2  0
M  END
$$$$
