QAQ.pdb
     RDKit          3D

 24 23  0  0  1  0  0  0  0  0999 V2000
   11.0617  -10.4072   -8.5290 N   0  0  0  0  0  0  0  0  0  0  0  0
   11.8083  -11.4477   -9.1279 C   0  0  0  0  0  0  0  0  0  0  0  0
   11.4148  -12.6279   -8.9665 O   0  0  0  0  0  0  0  0  0  0  0  0
   13.0213  -11.2145   -9.9287 C   0  0  0  0  0  0  0  0  0  0  0  0
   13.4947   -9.8092   -9.9609 C   0  0  0  0  0  0  0  0  0  0  0  0
   14.7609   -9.5435  -10.7091 C   0  0  2  0  0  0  0  0  0  0  0  0
   15.8289  -10.1573   -9.8731 N   0  0  0  0  0  0  0  0  0  0  0  0
   15.1134   -8.1069  -10.7906 C   0  0  0  0  0  0  0  0  0  0  0  0
   14.3833   -7.2789  -11.4399 O   0  0  0  0  0  0  0  0  0  0  0  0
   17.6247   -5.6351   -9.4130 C   0  0  0  0  0  0  0  0  0  0  0  0
   16.5165   -6.1199  -10.3524 C   0  0  2  0  0  0  0  0  0  0  0  0
   16.2726   -7.5293  -10.1613 N   0  0  0  0  0  0  0  0  0  0  0  0
   16.9533   -5.8166  -11.7342 C   0  0  0  0  0  0  0  0  0  0  0  0
   17.7877   -6.5945  -12.3244 O   0  0  0  0  0  0  0  0  0  0  0  0
   13.7784   -2.1571  -14.1528 N   0  0  0  0  0  0  0  0  0  0  0  0
   13.4844   -3.5002  -14.5649 C   0  0  0  0  0  0  0  0  0  0  0  0
   12.3043   -3.8790  -14.7220 O   0  0  0  0  0  0  0  0  0  0  0  0
   14.6262   -4.4096  -14.7941 C   0  0  0  0  0  0  0  0  0  0  0  0
   15.9021   -3.6483  -14.5680 C   0  0  0  0  0  0  0  0  0  0  0  0
   16.9361   -4.5146  -13.8436 C   0  0  2  0  0  0  0  0  0  0  0  0
   16.5047   -4.6979  -12.4787 N   0  0  0  0  0  0  0  0  0  0  0  0
   18.2781   -3.8892  -13.9149 C   0  0  0  0  0  0  0  0  0  0  0  0
   18.9679   -3.9053  -15.1121 O   0  0  0  0  0  0  0  0  0  0  0  0
   18.7830   -3.3507  -12.8987 O   0  0  0  0  0  0  0  0  0  0  0  0
  2  3  2  0
  2  1  1  0
  4  2  1  0
  5  6  1  0
  5  4  1  0
  6  7  1  1
  8  6  1  0
  8  9  2  0
 11 10  1  1
 11 12  1  0
 11 13  1  0
 12  8  1  0
 13 21  1  0
 14 13  2  0
 15 16  1  0
 16 17  2  0
 18 19  1  0
 18 16  1  0
 20 19  1  6
 20 22  1  0
 21 20  1  0
 22 24  2  0
 22 23  1  0
M  END
$$$$
