QAQ.pdb
     RDKit          3D

 24 23  0  0  1  0  0  0  0  0999 V2000
   17.8868  -11.5379  -18.2447 N   0  0  0  0  0  0  0  0  0  0  0  0
   16.4875  -11.7261  -18.3159 C   0  0  0  0  0  0  0  0  0  0  0  0
   16.0509  -12.8990  -18.4021 O   0  0  0  0  0  0  0  0  0  0  0  0
   15.5207  -10.6161  -18.2944 C   0  0  0  0  0  0  0  0  0  0  0  0
   16.1174   -9.2627  -18.1845 C   0  0  0  0  0  0  0  0  0  0  0  0
   16.1606   -8.6560  -16.8193 C   0  0  2  0  0  0  0  0  0  0  0  0
   14.7929   -8.1074  -16.6069 N   0  0  0  0  0  0  0  0  0  0  0  0
   17.0648   -7.4870  -16.7161 C   0  0  0  0  0  0  0  0  0  0  0  0
   18.3075   -7.5794  -17.0114 O   0  0  0  0  0  0  0  0  0  0  0  0
   16.9617   -3.7817  -15.9382 C   0  0  0  0  0  0  0  0  0  0  0  0
   17.6273   -5.1303  -16.2280 C   0  0  2  0  0  0  0  0  0  0  0  0
   16.6381   -6.1790  -16.2911 N   0  0  0  0  0  0  0  0  0  0  0  0
   18.6170   -5.3674  -15.1527 C   0  0  0  0  0  0  0  0  0  0  0  0
   18.2284   -5.8304  -14.0193 O   0  0  0  0  0  0  0  0  0  0  0  0
   22.5260   -9.2286  -15.2273 N   0  0  0  0  0  0  0  0  0  0  0  0
   23.0025   -8.6804  -13.9894 C   0  0  0  0  0  0  0  0  0  0  0  0
   23.8364   -9.2976  -13.2934 O   0  0  0  0  0  0  0  0  0  0  0  0
   22.4702   -7.3657  -13.5750 C   0  0  0  0  0  0  0  0  0  0  0  0
   21.4510   -6.9181  -14.5846 C   0  0  0  0  0  0  0  0  0  0  0  0
   20.9181   -5.5237  -14.2442 C   0  0  2  0  0  0  0  0  0  0  0  0
   20.0048   -5.1156  -15.2844 N   0  0  0  0  0  0  0  0  0  0  0  0
   22.0373   -4.5640  -14.0900 C   0  0  0  0  0  0  0  0  0  0  0  0
   22.7308   -4.5215  -12.8956 O   0  0  0  0  0  0  0  0  0  0  0  0
   22.3521   -3.7979  -15.0343 O   0  0  0  0  0  0  0  0  0  0  0  0
  2  3  2  0
  2  1  1  0
  4  2  1  0
  5  6  1  0
  5  4  1  0
  6  7  1  6
  8  6  1  0
  8  9  2  0
 11 10  1  1
 11 12  1  0
 11 13  1  0
 12  8  1  0
 13 21  1  0
 14 13  2  0
 15 16  1  0
 16 17  2  0
 18 19  1  0
 18 16  1  0
 20 19  1  6
 20 22  1  0
 21 20  1  0
 22 24  2  0
 22 23  1  0
M  END
$$$$
