QAQ.pdb
     RDKit          3D

 24 23  0  0  1  0  0  0  0  0999 V2000
   17.4077  -15.2519  -15.4905 N   0  0  0  0  0  0  0  0  0  0  0  0
   15.9973  -15.2391  -15.5862 C   0  0  0  0  0  0  0  0  0  0  0  0
   15.4143  -16.3077  -15.8895 O   0  0  0  0  0  0  0  0  0  0  0  0
   15.1820  -14.0367  -15.3483 C   0  0  0  0  0  0  0  0  0  0  0  0
   15.9393  -12.8378  -14.9132 C   0  0  0  0  0  0  0  0  0  0  0  0
   16.1814  -11.7845  -15.9455 C   0  0  2  0  0  0  0  0  0  0  0  0
   17.0425  -12.4457  -16.9642 N   0  0  0  0  0  0  0  0  0  0  0  0
   16.9802  -10.6392  -15.4507 C   0  0  0  0  0  0  0  0  0  0  0  0
   16.5646   -9.9056  -14.4868 O   0  0  0  0  0  0  0  0  0  0  0  0
   20.3755   -9.0469  -15.8280 C   0  0  0  0  0  0  0  0  0  0  0  0
   18.8822   -9.0612  -15.4879 C   0  0  2  0  0  0  0  0  0  0  0  0
   18.2607  -10.2623  -15.9911 N   0  0  0  0  0  0  0  0  0  0  0  0
   18.2889   -7.8412  -16.0808 C   0  0  0  0  0  0  0  0  0  0  0  0
   17.8536   -7.8663  -17.2890 O   0  0  0  0  0  0  0  0  0  0  0  0
   15.1768   -3.3504  -13.4460 N   0  0  0  0  0  0  0  0  0  0  0  0
   15.3630   -2.7225  -14.7231 C   0  0  0  0  0  0  0  0  0  0  0  0
   14.8212   -1.6276  -14.9845 O   0  0  0  0  0  0  0  0  0  0  0  0
   16.2155   -3.4190  -15.7087 C   0  0  0  0  0  0  0  0  0  0  0  0
   16.7171   -4.6960  -15.0955 C   0  0  0  0  0  0  0  0  0  0  0  0
   17.6223   -5.4536  -16.0706 C   0  0  2  0  0  0  0  0  0  0  0  0
   18.1595   -6.6093  -15.3935 N   0  0  0  0  0  0  0  0  0  0  0  0
   18.6966   -4.5666  -16.5770 C   0  0  0  0  0  0  0  0  0  0  0  0
   18.4877   -3.8484  -17.7390 O   0  0  0  0  0  0  0  0  0  0  0  0
   19.7846   -4.4686  -15.9572 O   0  0  0  0  0  0  0  0  0  0  0  0
  2  3  2  0
  2  1  1  0
  4  2  1  0
  5  6  1  0
  5  4  1  0
  6  7  1  6
  8  6  1  0
  8  9  2  0
 11 10  1  6
 11 12  1  0
 11 13  1  0
 12  8  1  0
 13 21  1  0
 14 13  2  0
 15 16  1  0
 16 17  2  0
 18 19  1  0
 18 16  1  0
 20 19  1  1
 20 22  1  0
 21 20  1  0
 22 24  2  0
 22 23  1  0
M  END
$$$$
