QAQ.pdb
     RDKit          3D

 24 23  0  0  1  0  0  0  0  0999 V2000
   25.7229  -24.1609  -14.9880 N   0  0  0  0  0  0  0  0  0  0  0  0
   25.1175  -24.4228  -13.7377 C   0  0  0  0  0  0  0  0  0  0  0  0
   24.6394  -25.5654  -13.5386 O   0  0  0  0  0  0  0  0  0  0  0  0
   25.0208  -23.4231  -12.6614 C   0  0  0  0  0  0  0  0  0  0  0  0
   25.6794  -22.1249  -12.9461 C   0  0  0  0  0  0  0  0  0  0  0  0
   24.8022  -21.0201  -13.4398 C   0  0  2  0  0  0  0  0  0  0  0  0
   24.0920  -21.5983  -14.6135 N   0  0  0  0  0  0  0  0  0  0  0  0
   25.5514  -19.8601  -13.9759 C   0  0  0  0  0  0  0  0  0  0  0  0
   25.9277  -18.9018  -13.2142 O   0  0  0  0  0  0  0  0  0  0  0  0
   28.0169  -18.7746  -16.1891 C   0  0  0  0  0  0  0  0  0  0  0  0
   26.5730  -18.4923  -15.7632 C   0  0  2  0  0  0  0  0  0  0  0  0
   25.9169  -19.7130  -15.3610 N   0  0  0  0  0  0  0  0  0  0  0  0
   25.8962  -17.8542  -16.9151 C   0  0  0  0  0  0  0  0  0  0  0  0
   26.4165  -16.8171  -17.4658 O   0  0  0  0  0  0  0  0  0  0  0  0
   21.9437  -19.7290  -15.3588 N   0  0  0  0  0  0  0  0  0  0  0  0
   21.2477  -18.5180  -15.0285 C   0  0  0  0  0  0  0  0  0  0  0  0
   20.0418  -18.5398  -14.7029 O   0  0  0  0  0  0  0  0  0  0  0  0
   22.0103  -17.2538  -15.0890 C   0  0  0  0  0  0  0  0  0  0  0  0
   23.4009  -17.5522  -15.5746 C   0  0  0  0  0  0  0  0  0  0  0  0
   23.4285  -17.7046  -17.0978 C   0  0  2  0  0  0  0  0  0  0  0  0
   24.6797  -18.3172  -17.4744 N   0  0  0  0  0  0  0  0  0  0  0  0
   23.2430  -16.3886  -17.7544 C   0  0  0  0  0  0  0  0  0  0  0  0
   22.1372  -16.1843  -18.5574 O   0  0  0  0  0  0  0  0  0  0  0  0
   24.0814  -15.4692  -17.5829 O   0  0  0  0  0  0  0  0  0  0  0  0
  2  3  2  0
  2  1  1  0
  4  2  1  0
  5  6  1  0
  5  4  1  0
  6  7  1  6
  8  6  1  0
  8  9  2  0
 11 10  1  6
 11 12  1  0
 11 13  1  0
 12  8  1  0
 13 21  1  0
 14 13  2  0
 15 16  1  0
 16 17  2  0
 18 19  1  0
 18 16  1  0
 20 19  1  1
 20 22  1  0
 21 20  1  0
 22 24  2  0
 22 23  1  0
M  END
$$$$
