QAQ.pdb
     RDKit          3D

 24 23  0  0  1  0  0  0  0  0999 V2000
   17.0806  -14.7738  -15.2669 N   0  0  0  0  0  0  0  0  0  0  0  0
   17.7733  -14.9496  -16.4866 C   0  0  0  0  0  0  0  0  0  0  0  0
   17.7048  -16.0678  -17.0511 O   0  0  0  0  0  0  0  0  0  0  0  0
   18.5689  -13.8878  -17.1245 C   0  0  0  0  0  0  0  0  0  0  0  0
   18.6470  -12.6163  -16.3649 C   0  0  0  0  0  0  0  0  0  0  0  0
   19.4248  -11.5051  -16.9926 C   0  0  2  0  0  0  0  0  0  0  0  0
   20.4368  -12.1875  -17.8449 N   0  0  0  0  0  0  0  0  0  0  0  0
   20.2120  -10.7083  -16.0230 C   0  0  0  0  0  0  0  0  0  0  0  0
   19.6426  -10.0648  -15.0734 O   0  0  0  0  0  0  0  0  0  0  0  0
   23.8020   -9.9058  -15.1310 C   0  0  0  0  0  0  0  0  0  0  0  0
   22.2816   -9.7246  -15.0965 C   0  0  2  0  0  0  0  0  0  0  0  0
   21.6470  -10.5935  -16.0581 N   0  0  0  0  0  0  0  0  0  0  0  0
   22.0068   -8.2968  -15.3753 C   0  0  0  0  0  0  0  0  0  0  0  0
   22.0405   -7.8653  -16.5846 O   0  0  0  0  0  0  0  0  0  0  0  0
   17.4122   -5.1511  -14.7211 N   0  0  0  0  0  0  0  0  0  0  0  0
   18.2477   -4.0050  -14.9409 C   0  0  0  0  0  0  0  0  0  0  0  0
   17.7516   -2.8671  -15.0814 O   0  0  0  0  0  0  0  0  0  0  0  0
   19.7080   -4.2246  -14.9938 C   0  0  0  0  0  0  0  0  0  0  0  0
   19.9848   -5.6841  -14.7663 C   0  0  0  0  0  0  0  0  0  0  0  0
   21.4909   -5.9580  -14.7358 C   0  0  2  0  0  0  0  0  0  0  0  0
   21.6980   -7.3403  -14.3769 N   0  0  0  0  0  0  0  0  0  0  0  0
   22.1663   -5.0388  -13.7891 C   0  0  0  0  0  0  0  0  0  0  0  0
   22.4779   -3.7564  -14.1990 O   0  0  0  0  0  0  0  0  0  0  0  0
   22.4523   -5.4209  -12.6273 O   0  0  0  0  0  0  0  0  0  0  0  0
  2  3  2  0
  2  1  1  0
  4  2  1  0
  5  6  1  0
  5  4  1  0
  6  7  1  6
  8  6  1  0
  8  9  2  0
 11 10  1  6
 11 12  1  0
 11 13  1  0
 12  8  1  0
 13 21  1  0
 14 13  2  0
 15 16  1  0
 16 17  2  0
 18 19  1  0
 18 16  1  0
 20 19  1  1
 20 22  1  0
 21 20  1  0
 22 24  2  0
 22 23  1  0
M  END
$$$$
