QAQ.pdb
     RDKit          3D

 24 23  0  0  1  0  0  0  0  0999 V2000
   21.8090  -13.0908  -16.5500 N   0  0  0  0  0  0  0  0  0  0  0  0
   20.5195  -13.3422  -17.0722 C   0  0  0  0  0  0  0  0  0  0  0  0
   19.8891  -14.3371  -16.6404 O   0  0  0  0  0  0  0  0  0  0  0  0
   19.8827  -12.4963  -18.0949 C   0  0  0  0  0  0  0  0  0  0  0  0
   19.4903  -11.1412  -17.6368 C   0  0  0  0  0  0  0  0  0  0  0  0
   18.3855  -11.0647  -16.6331 C   0  0  2  0  0  0  0  0  0  0  0  0
   17.1372  -11.1703  -17.4374 N   0  0  0  0  0  0  0  0  0  0  0  0
   18.2931   -9.7541  -15.9488 C   0  0  0  0  0  0  0  0  0  0  0  0
   18.0509   -8.6789  -16.6011 O   0  0  0  0  0  0  0  0  0  0  0  0
   18.0961   -8.2573  -12.5041 C   0  0  0  0  0  0  0  0  0  0  0  0
   18.4120   -8.2352  -14.0026 C   0  0  2  0  0  0  0  0  0  0  0  0
   18.4583   -9.5779  -14.5292 N   0  0  0  0  0  0  0  0  0  0  0  0
   19.7051   -7.5326  -14.1646 C   0  0  0  0  0  0  0  0  0  0  0  0
   20.7932   -8.2102  -14.2451 O   0  0  0  0  0  0  0  0  0  0  0  0
   20.6654   -1.9050  -16.4373 N   0  0  0  0  0  0  0  0  0  0  0  0
   22.0191   -2.2196  -16.0789 C   0  0  0  0  0  0  0  0  0  0  0  0
   22.9533   -1.4361  -16.3513 O   0  0  0  0  0  0  0  0  0  0  0  0
   22.2607   -3.4987  -15.3796 C   0  0  0  0  0  0  0  0  0  0  0  0
   20.9460   -4.2026  -15.1939 C   0  0  0  0  0  0  0  0  0  0  0  0
   21.1339   -5.5269  -14.4487 C   0  0  2  0  0  0  0  0  0  0  0  0
   19.8366   -6.1241  -14.2416 N   0  0  0  0  0  0  0  0  0  0  0  0
   21.8458   -5.3048  -13.1677 C   0  0  0  0  0  0  0  0  0  0  0  0
   23.2276   -5.2928  -13.1561 O   0  0  0  0  0  0  0  0  0  0  0  0
   21.2007   -5.1294  -12.1043 O   0  0  0  0  0  0  0  0  0  0  0  0
  2  3  2  0
  2  1  1  0
  4  2  1  0
  5  6  1  0
  5  4  1  0
  6  7  1  6
  8  6  1  0
  8  9  2  0
 11 10  1  1
 11 12  1  0
 11 13  1  0
 12  8  1  0
 13 21  1  0
 14 13  2  0
 15 16  1  0
 16 17  2  0
 18 19  1  0
 18 16  1  0
 20 19  1  1
 20 22  1  0
 21 20  1  0
 22 24  2  0
 22 23  1  0
M  END
$$$$
