QAQ.pdb
     RDKit          3D

 24 23  0  0  1  0  0  0  0  0999 V2000
   19.2576  -16.4977  -13.6632 N   0  0  0  0  0  0  0  0  0  0  0  0
   19.9332  -17.0837  -14.7581 C   0  0  0  0  0  0  0  0  0  0  0  0
   19.5160  -18.1847  -15.1912 O   0  0  0  0  0  0  0  0  0  0  0  0
   21.0989  -16.4671  -15.4123 C   0  0  0  0  0  0  0  0  0  0  0  0
   20.9374  -15.0368  -15.7701 C   0  0  0  0  0  0  0  0  0  0  0  0
   20.0900  -14.7340  -16.9635 C   0  0  2  0  0  0  0  0  0  0  0  0
   20.9463  -15.0790  -18.1314 N   0  0  0  0  0  0  0  0  0  0  0  0
   19.7815  -13.2940  -17.1240 C   0  0  0  0  0  0  0  0  0  0  0  0
   20.6343  -12.4835  -17.6299 O   0  0  0  0  0  0  0  0  0  0  0  0
   16.8350  -10.9521  -16.9999 C   0  0  0  0  0  0  0  0  0  0  0  0
   18.3265  -11.2979  -17.0382 C   0  0  2  0  0  0  0  0  0  0  0  0
   18.5292  -12.6952  -16.7408 N   0  0  0  0  0  0  0  0  0  0  0  0
   19.0024  -10.4197  -16.0565 C   0  0  0  0  0  0  0  0  0  0  0  0
   19.1626  -10.8204  -14.8467 O   0  0  0  0  0  0  0  0  0  0  0  0
   22.0846   -5.1229  -17.1426 N   0  0  0  0  0  0  0  0  0  0  0  0
   22.2139   -5.1778  -15.7142 C   0  0  0  0  0  0  0  0  0  0  0  0
   22.8143   -4.2778  -15.0895 O   0  0  0  0  0  0  0  0  0  0  0  0
   21.6121   -6.3339  -15.0180 C   0  0  0  0  0  0  0  0  0  0  0  0
   20.8924   -7.1835  -16.0274 C   0  0  0  0  0  0  0  0  0  0  0  0
   20.1815   -8.3573  -15.3483 C   0  0  2  0  0  0  0  0  0  0  0  0
   19.5033   -9.1300  -16.3610 N   0  0  0  0  0  0  0  0  0  0  0  0
   19.2415   -7.8656  -14.3130 C   0  0  0  0  0  0  0  0  0  0  0  0
   19.6628   -7.7908  -12.9990 O   0  0  0  0  0  0  0  0  0  0  0  0
   18.0750   -7.5208  -14.6260 O   0  0  0  0  0  0  0  0  0  0  0  0
  2  3  2  0
  2  1  1  0
  4  2  1  0
  5  6  1  0
  5  4  1  0
  6  7  1  6
  8  6  1  0
  8  9  2  0
 11 10  1  1
 11 12  1  0
 11 13  1  0
 12  8  1  0
 13 21  1  0
 14 13  2  0
 15 16  1  0
 16 17  2  0
 18 19  1  0
 18 16  1  0
 20 19  1  6
 20 22  1  0
 21 20  1  0
 22 24  2  0
 22 23  1  0
M  END
$$$$
