QAQ.pdb
     RDKit          3D

 24 23  0  0  1  0  0  0  0  0999 V2000
   16.1890  -15.0058  -15.3010 N   0  0  0  0  0  0  0  0  0  0  0  0
   17.4278  -14.4887  -15.7443 C   0  0  0  0  0  0  0  0  0  0  0  0
   18.4496  -15.2045  -15.6131 O   0  0  0  0  0  0  0  0  0  0  0  0
   17.5766  -13.1553  -16.3501 C   0  0  0  0  0  0  0  0  0  0  0  0
   18.5707  -12.2720  -15.6930 C   0  0  0  0  0  0  0  0  0  0  0  0
   18.8270  -10.9498  -16.3410 C   0  0  2  0  0  0  0  0  0  0  0  0
   19.1731  -11.2813  -17.7505 N   0  0  0  0  0  0  0  0  0  0  0  0
   20.0166  -10.2465  -15.8073 C   0  0  0  0  0  0  0  0  0  0  0  0
   20.0469   -9.8102  -14.6036 O   0  0  0  0  0  0  0  0  0  0  0  0
   23.5422   -9.2915  -16.7811 C   0  0  0  0  0  0  0  0  0  0  0  0
   22.2448   -9.1899  -15.9735 C   0  0  2  0  0  0  0  0  0  0  0  0
   21.2125  -10.0019  -16.5713 N   0  0  0  0  0  0  0  0  0  0  0  0
   21.8683   -7.7586  -15.9326 C   0  0  0  0  0  0  0  0  0  0  0  0
   21.2436   -7.2349  -16.9252 O   0  0  0  0  0  0  0  0  0  0  0  0
   17.5786   -5.3994  -14.5811 N   0  0  0  0  0  0  0  0  0  0  0  0
   18.2146   -4.1127  -14.5869 C   0  0  0  0  0  0  0  0  0  0  0  0
   17.5444   -3.0655  -14.4647 O   0  0  0  0  0  0  0  0  0  0  0  0
   19.6836   -4.0778  -14.7421 C   0  0  0  0  0  0  0  0  0  0  0  0
   20.1912   -5.4884  -14.8473 C   0  0  0  0  0  0  0  0  0  0  0  0
   21.7216   -5.5192  -14.8796 C   0  0  2  0  0  0  0  0  0  0  0  0
   22.1530   -6.8959  -14.8455 N   0  0  0  0  0  0  0  0  0  0  0  0
   22.2802   -4.7416  -13.7480 C   0  0  0  0  0  0  0  0  0  0  0  0
   22.7502   -5.4118  -12.6347 O   0  0  0  0  0  0  0  0  0  0  0  0
   22.3259   -3.4875  -13.8000 O   0  0  0  0  0  0  0  0  0  0  0  0
  2  3  2  0
  2  1  1  0
  4  2  1  0
  5  6  1  0
  5  4  1  0
  6  7  1  6
  8  6  1  0
  8  9  2  0
 11 10  1  6
 11 12  1  0
 11 13  1  0
 12  8  1  0
 13 21  1  0
 14 13  2  0
 15 16  1  0
 16 17  2  0
 18 19  1  0
 18 16  1  0
 20 19  1  1
 20 22  1  0
 21 20  1  0
 22 24  2  0
 22 23  1  0
M  END
$$$$
