QAQ.pdb
     RDKit          3D

 24 23  0  0  1  0  0  0  0  0999 V2000
   16.9162   -9.3670  -13.3761 N   0  0  0  0  0  0  0  0  0  0  0  0
   16.1666  -10.4361  -13.9181 C   0  0  0  0  0  0  0  0  0  0  0  0
   16.7886  -11.4343  -14.3547 O   0  0  0  0  0  0  0  0  0  0  0  0
   14.6966  -10.4351  -13.9953 C   0  0  0  0  0  0  0  0  0  0  0  0
   14.0344   -9.2564  -13.3852 C   0  0  0  0  0  0  0  0  0  0  0  0
   13.5892   -9.3956  -11.9652 C   0  0  2  0  0  0  0  0  0  0  0  0
   12.1040   -9.4641  -12.0406 N   0  0  0  0  0  0  0  0  0  0  0  0
   13.8782   -8.2055  -11.1318 C   0  0  0  0  0  0  0  0  0  0  0  0
   13.1877   -7.1326  -11.2424 O   0  0  0  0  0  0  0  0  0  0  0  0
   15.7161   -7.1135   -8.0798 C   0  0  0  0  0  0  0  0  0  0  0  0
   15.1862   -6.8892   -9.4992 C   0  0  2  0  0  0  0  0  0  0  0  0
   14.9283   -8.1521  -10.1479 N   0  0  0  0  0  0  0  0  0  0  0  0
   16.2034   -6.0932  -10.2229 C   0  0  0  0  0  0  0  0  0  0  0  0
   16.4966   -4.9110   -9.8150 O   0  0  0  0  0  0  0  0  0  0  0  0
   21.3980   -7.7361  -12.6483 N   0  0  0  0  0  0  0  0  0  0  0  0
   21.3732   -6.4074  -13.1903 C   0  0  0  0  0  0  0  0  0  0  0  0
   22.3761   -5.9288  -13.7612 O   0  0  0  0  0  0  0  0  0  0  0  0
   20.1221   -5.6344  -13.0465 C   0  0  0  0  0  0  0  0  0  0  0  0
   19.1666   -6.4181  -12.1913 C   0  0  0  0  0  0  0  0  0  0  0  0
   17.8311   -5.6834  -12.0471 C   0  0  2  0  0  0  0  0  0  0  0  0
   16.9011   -6.5524  -11.3671 N   0  0  0  0  0  0  0  0  0  0  0  0
   17.3217   -5.2676  -13.3756 C   0  0  0  0  0  0  0  0  0  0  0  0
   17.8968   -4.1833  -14.0104 O   0  0  0  0  0  0  0  0  0  0  0  0
   16.3778   -5.8936  -13.9185 O   0  0  0  0  0  0  0  0  0  0  0  0
  2  3  2  0
  2  1  1  0
  4  2  1  0
  5  6  1  0
  5  4  1  0
  6  7  1  6
  8  6  1  0
  8  9  2  0
 11 10  1  1
 11 12  1  0
 11 13  1  0
 12  8  1  0
 13 21  1  0
 14 13  2  0
 15 16  1  0
 16 17  2  0
 18 19  1  0
 18 16  1  0
 20 19  1  6
 20 22  1  0
 21 20  1  0
 22 24  2  0
 22 23  1  0
M  END
$$$$
