QAQ.pdb
     RDKit          3D

 24 23  0  0  1  0  0  0  0  0999 V2000
   23.3247  -20.6845  -10.6976 N   0  0  0  0  0  0  0  0  0  0  0  0
   24.0395  -20.7396   -9.4792 C   0  0  0  0  0  0  0  0  0  0  0  0
   23.4045  -21.0088   -8.4314 O   0  0  0  0  0  0  0  0  0  0  0  0
   25.4882  -20.4970   -9.3805 C   0  0  0  0  0  0  0  0  0  0  0  0
   26.1474  -20.0941  -10.6466 C   0  0  0  0  0  0  0  0  0  0  0  0
   25.7056  -20.7988  -11.8883 C   0  0  2  0  0  0  0  0  0  0  0  0
   26.6081  -21.9781  -11.9942 N   0  0  0  0  0  0  0  0  0  0  0  0
   25.9393  -20.0224  -13.1281 C   0  0  0  0  0  0  0  0  0  0  0  0
   25.2889  -18.9462  -13.3714 O   0  0  0  0  0  0  0  0  0  0  0  0
   28.3274  -19.8808  -16.0517 C   0  0  0  0  0  0  0  0  0  0  0  0
   27.0597  -19.5178  -15.2726 C   0  0  2  0  0  0  0  0  0  0  0  0
   26.8945  -20.3953  -14.1391 N   0  0  0  0  0  0  0  0  0  0  0  0
   25.9246  -19.6156  -16.2181 C   0  0  0  0  0  0  0  0  0  0  0  0
   25.3978  -20.7606  -16.4656 O   0  0  0  0  0  0  0  0  0  0  0  0
   21.3642  -16.2120  -16.5642 N   0  0  0  0  0  0  0  0  0  0  0  0
   21.0303  -16.8673  -17.7968 C   0  0  0  0  0  0  0  0  0  0  0  0
   19.8594  -16.8565  -18.2321 O   0  0  0  0  0  0  0  0  0  0  0  0
   22.1203  -17.5501  -18.5242 C   0  0  0  0  0  0  0  0  0  0  0  0
   23.3957  -17.3864  -17.7464 C   0  0  0  0  0  0  0  0  0  0  0  0
   24.2064  -18.6853  -17.7437 C   0  0  2  0  0  0  0  0  0  0  0  0
   25.3565  -18.5057  -16.8906 N   0  0  0  0  0  0  0  0  0  0  0  0
   24.6003  -19.0539  -19.1243 C   0  0  0  0  0  0  0  0  0  0  0  0
   23.8290  -19.9593  -19.8278 O   0  0  0  0  0  0  0  0  0  0  0  0
   25.6237  -18.5492  -19.6493 O   0  0  0  0  0  0  0  0  0  0  0  0
  2  3  2  0
  2  1  1  0
  4  2  1  0
  5  6  1  0
  5  4  1  0
  6  7  1  6
  8  6  1  0
  8  9  2  0
 11 10  1  6
 11 12  1  0
 11 13  1  0
 12  8  1  0
 13 21  1  0
 14 13  2  0
 15 16  1  0
 16 17  2  0
 18 19  1  0
 18 16  1  0
 20 19  1  6
 20 22  1  0
 21 20  1  0
 22 24  2  0
 22 23  1  0
M  END
$$$$
