QAQ.pdb
     RDKit          3D

 24 23  0  0  1  0  0  0  0  0999 V2000
   14.6772  -12.7903  -13.0260 N   0  0  0  0  0  0  0  0  0  0  0  0
   15.7057  -12.7422  -13.9947 C   0  0  0  0  0  0  0  0  0  0  0  0
   16.0982  -13.8230  -14.4963 O   0  0  0  0  0  0  0  0  0  0  0  0
   16.3369  -11.4896  -14.4416 C   0  0  0  0  0  0  0  0  0  0  0  0
   15.8249  -10.2589  -13.7913 C   0  0  0  0  0  0  0  0  0  0  0  0
   16.8445   -9.3204  -13.2316 C   0  0  2  0  0  0  0  0  0  0  0  0
   17.6170  -10.1397  -12.2578 N   0  0  0  0  0  0  0  0  0  0  0  0
   16.2625   -8.2179  -12.4312 C   0  0  0  0  0  0  0  0  0  0  0  0
   15.4326   -7.3891  -12.9455 O   0  0  0  0  0  0  0  0  0  0  0  0
   16.1530   -6.9891   -8.8502 C   0  0  0  0  0  0  0  0  0  0  0  0
   15.8258   -6.9646  -10.3462 C   0  0  2  0  0  0  0  0  0  0  0  0
   16.5658   -7.9894  -11.0422 N   0  0  0  0  0  0  0  0  0  0  0  0
   16.1572   -5.6096  -10.8423 C   0  0  0  0  0  0  0  0  0  0  0  0
   17.3602   -5.3387  -11.2017 O   0  0  0  0  0  0  0  0  0  0  0  0
   14.4128    0.1460  -14.8024 N   0  0  0  0  0  0  0  0  0  0  0  0
   14.1015   -1.0500  -14.0726 C   0  0  0  0  0  0  0  0  0  0  0  0
   13.1807   -1.8075  -14.4455 O   0  0  0  0  0  0  0  0  0  0  0  0
   14.9087   -1.3464  -12.8710 C   0  0  0  0  0  0  0  0  0  0  0  0
   14.5556   -2.7222  -12.3800 C   0  0  0  0  0  0  0  0  0  0  0  0
   15.6335   -3.2603  -11.4351 C   0  0  2  0  0  0  0  0  0  0  0  0
   15.2170   -4.5560  -10.9554 N   0  0  0  0  0  0  0  0  0  0  0  0
   15.8663   -2.3118  -10.3199 C   0  0  0  0  0  0  0  0  0  0  0  0
   16.6898   -1.2207  -10.5221 O   0  0  0  0  0  0  0  0  0  0  0  0
   15.3213   -2.4975   -9.2036 O   0  0  0  0  0  0  0  0  0  0  0  0
  2  3  2  0
  2  1  1  0
  4  2  1  0
  5  6  1  0
  5  4  1  0
  6  7  1  1
  8  6  1  0
  8  9  2  0
 11 10  1  1
 11 12  1  0
 11 13  1  0
 12  8  1  0
 13 21  1  0
 14 13  2  0
 15 16  1  0
 16 17  2  0
 18 19  1  0
 18 16  1  0
 20 19  1  6
 20 22  1  0
 21 20  1  0
 22 24  2  0
 22 23  1  0
M  END
$$$$
