QAQ.pdb
     RDKit          3D

 24 23  0  0  1  0  0  0  0  0999 V2000
   15.3613  -13.0234  -15.9495 N   0  0  0  0  0  0  0  0  0  0  0  0
   16.3042  -13.9276  -16.4899 C   0  0  0  0  0  0  0  0  0  0  0  0
   15.8808  -14.9998  -16.9846 O   0  0  0  0  0  0  0  0  0  0  0  0
   17.7541  -13.6732  -16.4999 C   0  0  0  0  0  0  0  0  0  0  0  0
   18.1828  -12.4416  -15.7933 C   0  0  0  0  0  0  0  0  0  0  0  0
   19.0507  -11.4953  -16.5581 C   0  0  2  0  0  0  0  0  0  0  0  0
   20.0036  -12.3696  -17.2956 N   0  0  0  0  0  0  0  0  0  0  0  0
   19.9002  -10.6393  -15.6977 C   0  0  0  0  0  0  0  0  0  0  0  0
   19.3866   -9.8627  -14.8183 O   0  0  0  0  0  0  0  0  0  0  0  0
   23.5505   -9.9180  -14.9906 C   0  0  0  0  0  0  0  0  0  0  0  0
   22.0393   -9.6809  -14.9138 C   0  0  2  0  0  0  0  0  0  0  0  0
   21.3381  -10.6086  -15.7682 N   0  0  0  0  0  0  0  0  0  0  0  0
   21.7985   -8.2746  -15.3091 C   0  0  0  0  0  0  0  0  0  0  0  0
   21.8628   -7.9404  -16.5476 O   0  0  0  0  0  0  0  0  0  0  0  0
   17.3629   -4.7901  -14.9256 N   0  0  0  0  0  0  0  0  0  0  0  0
   18.2721   -3.7410  -15.2902 C   0  0  0  0  0  0  0  0  0  0  0  0
   17.8507   -2.6084  -15.6068 O   0  0  0  0  0  0  0  0  0  0  0  0
   19.7163   -4.0533  -15.2756 C   0  0  0  0  0  0  0  0  0  0  0  0
   19.8942   -5.4944  -14.8881 C   0  0  0  0  0  0  0  0  0  0  0  0
   21.3772   -5.8741  -14.8560 C   0  0  2  0  0  0  0  0  0  0  0  0
   21.4913   -7.2368  -14.3950 N   0  0  0  0  0  0  0  0  0  0  0  0
   22.1338   -4.9377  -13.9912 C   0  0  0  0  0  0  0  0  0  0  0  0
   22.6501   -3.7792  -14.5397 O   0  0  0  0  0  0  0  0  0  0  0  0
   22.3041   -5.1941  -12.7735 O   0  0  0  0  0  0  0  0  0  0  0  0
  2  3  2  0
  2  1  1  0
  4  2  1  0
  5  6  1  0
  5  4  1  0
  6  7  1  6
  8  6  1  0
  8  9  2  0
 11 10  1  6
 11 12  1  0
 11 13  1  0
 12  8  1  0
 13 21  1  0
 14 13  2  0
 15 16  1  0
 16 17  2  0
 18 19  1  0
 18 16  1  0
 20 19  1  1
 20 22  1  0
 21 20  1  0
 22 24  2  0
 22 23  1  0
M  END
$$$$
