QAQ.pdb
     RDKit          3D

 24 23  0  0  1  0  0  0  0  0999 V2000
   13.9734  -10.1281  -13.8199 N   0  0  0  0  0  0  0  0  0  0  0  0
   13.6183  -11.3494  -13.2027 C   0  0  0  0  0  0  0  0  0  0  0  0
   13.1142  -12.2494  -13.9166 O   0  0  0  0  0  0  0  0  0  0  0  0
   13.8102  -11.6155  -11.7676 C   0  0  0  0  0  0  0  0  0  0  0  0
   14.4759  -10.5288  -11.0087 C   0  0  0  0  0  0  0  0  0  0  0  0
   15.9603  -10.4238  -11.1476 C   0  0  2  0  0  0  0  0  0  0  0  0
   16.4955  -11.5575  -10.3447 N   0  0  0  0  0  0  0  0  0  0  0  0
   16.5315   -9.2072  -10.5246 C   0  0  0  0  0  0  0  0  0  0  0  0
   16.4206   -8.9891   -9.2675 O   0  0  0  0  0  0  0  0  0  0  0  0
   18.7049   -6.2332  -11.3433 C   0  0  0  0  0  0  0  0  0  0  0  0
   17.6465   -7.0014  -10.5463 C   0  0  2  0  0  0  0  0  0  0  0  0
   17.2459   -8.1926  -11.2554 N   0  0  0  0  0  0  0  0  0  0  0  0
   16.5096   -6.0782  -10.3294 C   0  0  0  0  0  0  0  0  0  0  0  0
   15.6209   -5.9349  -11.2456 O   0  0  0  0  0  0  0  0  0  0  0  0
   14.0138   -4.2239   -5.0495 N   0  0  0  0  0  0  0  0  0  0  0  0
   13.2286   -3.4267   -5.9484 C   0  0  0  0  0  0  0  0  0  0  0  0
   12.3109   -2.6945   -5.5215 O   0  0  0  0  0  0  0  0  0  0  0  0
   13.5479   -3.5070   -7.3889 C   0  0  0  0  0  0  0  0  0  0  0  0
   14.7423   -4.4013   -7.5690 C   0  0  0  0  0  0  0  0  0  0  0  0
   15.1919   -4.4270   -9.0324 C   0  0  2  0  0  0  0  0  0  0  0  0
   16.3212   -5.3178   -9.1491 N   0  0  0  0  0  0  0  0  0  0  0  0
   15.5224   -3.0590   -9.4977 C   0  0  0  0  0  0  0  0  0  0  0  0
   14.5059   -2.2285   -9.9297 O   0  0  0  0  0  0  0  0  0  0  0  0
   16.7129   -2.6588   -9.4995 O   0  0  0  0  0  0  0  0  0  0  0  0
  2  3  2  0
  2  1  1  0
  4  2  1  0
  5  6  1  0
  5  4  1  0
  6  7  1  1
  8  6  1  0
  8  9  2  0
 11 10  1  6
 11 12  1  0
 11 13  1  0
 12  8  1  0
 13 21  1  0
 14 13  2  0
 15 16  1  0
 16 17  2  0
 18 19  1  0
 18 16  1  0
 20 19  1  1
 20 22  1  0
 21 20  1  0
 22 24  2  0
 22 23  1  0
M  END
$$$$
