QAQ.pdb
     RDKit          3D

 24 23  0  0  1  0  0  0  0  0999 V2000
   15.5803  -14.1228  -12.4377 N   0  0  0  0  0  0  0  0  0  0  0  0
   14.5757  -13.1676  -12.7152 C   0  0  0  0  0  0  0  0  0  0  0  0
   14.2550  -12.9758  -13.9127 O   0  0  0  0  0  0  0  0  0  0  0  0
   13.8900  -12.3892  -11.6706 C   0  0  0  0  0  0  0  0  0  0  0  0
   14.1170  -10.9245  -11.7250 C   0  0  0  0  0  0  0  0  0  0  0  0
   15.3897  -10.4188  -11.1264 C   0  0  2  0  0  0  0  0  0  0  0  0
   15.4792  -11.0954   -9.8033 N   0  0  0  0  0  0  0  0  0  0  0  0
   15.3673   -8.9701  -10.8174 C   0  0  0  0  0  0  0  0  0  0  0  0
   15.2170   -8.0954  -11.7408 O   0  0  0  0  0  0  0  0  0  0  0  0
   15.2601   -6.6184   -7.8678 C   0  0  0  0  0  0  0  0  0  0  0  0
   15.4914   -6.9973   -9.3336 C   0  0  2  0  0  0  0  0  0  0  0  0
   15.5042   -8.4319   -9.4888 N   0  0  0  0  0  0  0  0  0  0  0  0
   16.7754   -6.3851   -9.7442 C   0  0  0  0  0  0  0  0  0  0  0  0
   17.8748   -6.8018   -9.2271 O   0  0  0  0  0  0  0  0  0  0  0  0
   20.0565   -8.1394  -13.0323 N   0  0  0  0  0  0  0  0  0  0  0  0
   20.8074   -6.9163  -13.0469 C   0  0  0  0  0  0  0  0  0  0  0  0
   21.9534   -6.8731  -13.5424 O   0  0  0  0  0  0  0  0  0  0  0  0
   20.1741   -5.7191  -12.4560 C   0  0  0  0  0  0  0  0  0  0  0  0
   18.8770   -6.1262  -11.8154 C   0  0  0  0  0  0  0  0  0  0  0  0
   18.1852   -4.9242  -11.1667 C   0  0  2  0  0  0  0  0  0  0  0  0
   16.8864   -5.3419  -10.6963 N   0  0  0  0  0  0  0  0  0  0  0  0
   18.0845   -3.8017  -12.1295 C   0  0  0  0  0  0  0  0  0  0  0  0
   16.8747   -3.5484  -12.7475 O   0  0  0  0  0  0  0  0  0  0  0  0
   19.0873   -3.0884  -12.3811 O   0  0  0  0  0  0  0  0  0  0  0  0
  2  3  2  0
  2  1  1  0
  4  2  1  0
  5  6  1  0
  5  4  1  0
  6  7  1  1
  8  6  1  0
  8  9  2  0
 11 10  1  1
 11 12  1  0
 11 13  1  0
 12  8  1  0
 13 21  1  0
 14 13  2  0
 15 16  1  0
 16 17  2  0
 18 19  1  0
 18 16  1  0
 20 19  1  6
 20 22  1  0
 21 20  1  0
 22 24  2  0
 22 23  1  0
M  END
$$$$
