QAQ.pdb
     RDKit          3D

 24 23  0  0  1  0  0  0  0  0999 V2000
   15.2983  -14.4004  -13.5579 N   0  0  0  0  0  0  0  0  0  0  0  0
   15.8686  -14.2054  -14.8366 C   0  0  0  0  0  0  0  0  0  0  0  0
   15.6128  -15.0442  -15.7336 O   0  0  0  0  0  0  0  0  0  0  0  0
   16.7454  -13.0696  -15.1658 C   0  0  0  0  0  0  0  0  0  0  0  0
   17.0043  -12.1289  -14.0486 C   0  0  0  0  0  0  0  0  0  0  0  0
   16.3204  -10.8017  -14.1153 C   0  0  2  0  0  0  0  0  0  0  0  0
   16.5949  -10.3046  -15.4915 N   0  0  0  0  0  0  0  0  0  0  0  0
   16.9082   -9.7837  -13.2136 C   0  0  0  0  0  0  0  0  0  0  0  0
   17.0303   -9.9993  -11.9571 O   0  0  0  0  0  0  0  0  0  0  0  0
   18.3081   -6.2621  -13.3143 C   0  0  0  0  0  0  0  0  0  0  0  0
   17.7649   -7.5335  -12.6554 C   0  0  2  0  0  0  0  0  0  0  0  0
   17.3851   -8.4996  -13.6577 N   0  0  0  0  0  0  0  0  0  0  0  0
   16.6164   -7.1305  -11.8124 C   0  0  0  0  0  0  0  0  0  0  0  0
   15.4436   -7.0484  -12.3296 O   0  0  0  0  0  0  0  0  0  0  0  0
   13.3168   -8.9023   -8.6124 N   0  0  0  0  0  0  0  0  0  0  0  0
   13.0309   -7.7183   -7.8532 C   0  0  0  0  0  0  0  0  0  0  0  0
   11.9223   -7.5643   -7.2983 O   0  0  0  0  0  0  0  0  0  0  0  0
   14.0938   -6.6964   -7.7555 C   0  0  0  0  0  0  0  0  0  0  0  0
   15.2985   -7.1797   -8.5130 C   0  0  0  0  0  0  0  0  0  0  0  0
   15.5778   -6.2874   -9.7254 C   0  0  2  0  0  0  0  0  0  0  0  0
   16.7166   -6.8202  -10.4338 N   0  0  0  0  0  0  0  0  0  0  0  0
   15.8048   -4.8865   -9.2973 C   0  0  0  0  0  0  0  0  0  0  0  0
   14.7181   -4.0567   -9.0976 O   0  0  0  0  0  0  0  0  0  0  0  0
   16.9719   -4.4582   -9.1178 O   0  0  0  0  0  0  0  0  0  0  0  0
  2  3  2  0
  2  1  1  0
  4  2  1  0
  5  6  1  0
  5  4  1  0
  6  7  1  6
  8  6  1  0
  8  9  2  0
 11 10  1  6
 11 12  1  0
 11 13  1  0
 12  8  1  0
 13 21  1  0
 14 13  2  0
 15 16  1  0
 16 17  2  0
 18 19  1  0
 18 16  1  0
 20 19  1  1
 20 22  1  0
 21 20  1  0
 22 24  2  0
 22 23  1  0
M  END
$$$$
