KWF.pdb
     RDKit          3D

 35 37  0  0  1  0  0  0  0  0999 V2000
    8.2025  -19.1234   20.0460 N   0  0  0  0  0  0  0  0  0  0  0  0
    8.8479  -19.2204   21.3074 C   0  0  1  0  0  0  0  0  0  0  0  0
    9.8265  -20.2851   21.4589 C   0  0  0  0  0  0  0  0  0  0  0  0
    9.8567  -21.5157   20.6744 C   0  0  0  0  0  0  0  0  0  0  0  0
   10.4223  -21.6525   19.3411 C   0  0  0  0  0  0  0  0  0  0  0  0
   10.5281  -22.9318   18.6279 C   0  0  0  0  0  0  0  0  0  0  0  0
   11.1307  -22.8631   17.3060 N   0  0  0  0  0  0  0  0  0  0  0  0
    9.3471  -17.8613   21.6802 C   0  0  0  0  0  0  0  0  0  0  0  0
   10.4648  -17.4414   21.2812 O   0  0  0  0  0  0  0  0  0  0  0  0
    8.6067  -16.9672   22.4955 N   0  0  0  0  0  0  0  0  0  0  0  0
    9.1327  -15.6695   22.8627 C   0  0  1  0  0  0  0  0  0  0  0  0
    7.9304  -14.7409   22.8132 C   0  0  0  0  0  0  0  0  0  0  0  0
    7.2096  -14.6063   24.0801 C   0  0  0  0  0  0  0  0  0  0  0  0
    6.6548  -15.6855   24.7855 C   0  0  0  0  0  0  0  0  0  0  0  0
    6.1136  -15.1709   25.8851 N   0  0  0  0  0  0  0  0  0  0  0  0
    6.2684  -13.8369   25.9585 C   0  0  0  0  0  0  0  0  0  0  0  0
    5.8733  -12.8901   26.8994 C   0  0  0  0  0  0  0  0  0  0  0  0
    6.1834  -11.5714   26.6780 C   0  0  0  0  0  0  0  0  0  0  0  0
    6.8676  -11.1567   25.5639 C   0  0  0  0  0  0  0  0  0  0  0  0
    7.2405  -12.1273   24.6571 C   0  0  0  0  0  0  0  0  0  0  0  0
    6.9659  -13.4795   24.8083 C   0  0  0  0  0  0  0  0  0  0  0  0
    9.9366  -15.6040   24.0575 C   0  0  0  0  0  0  0  0  0  0  0  0
    9.5096  -15.2064   25.1764 O   0  0  0  0  0  0  0  0  0  0  0  0
   11.3107  -16.0312   23.9431 N   0  0  0  0  0  0  0  0  0  0  0  0
   12.2646  -15.8021   25.0082 C   0  0  1  0  0  0  0  0  0  0  0  0
   11.6663  -16.5282   26.2246 C   0  0  0  0  0  0  0  0  0  0  0  0
   11.0707  -15.5673   27.1650 C   0  0  0  0  0  0  0  0  0  0  0  0
   10.5818  -16.0631   28.3727 C   0  0  0  0  0  0  0  0  0  0  0  0
   10.0325  -15.1800   29.2543 C   0  0  0  0  0  0  0  0  0  0  0  0
    9.9583  -13.8229   28.9652 C   0  0  0  0  0  0  0  0  0  0  0  0
   10.4473  -13.3434   27.7632 C   0  0  0  0  0  0  0  0  0  0  0  0
   11.0035  -14.2204   26.8651 C   0  0  0  0  0  0  0  0  0  0  0  0
   13.5849  -16.3577   24.6684 C   0  0  0  0  0  0  0  0  0  0  0  0
   13.6961  -17.0605   23.6347 O   0  0  0  0  0  0  0  0  0  0  0  0
   14.7298  -16.1542   25.4218 O   0  0  0  0  0  0  0  0  0  0  0  0
  2  1  1  6
  2  3  1  0
  3  4  1  0
  4  5  1  0
  5  6  1  0
  7  6  1  0
  8  2  1  0
  8  9  2  0
 10  8  1  0
 11 10  1  0
 11 12  1  1
 12 13  1  0
 13 21  1  0
 14 13  2  0
 14 15  1  0
 15 16  1  0
 16 17  1  0
 17 18  2  0
 19 18  1  0
 20 19  2  0
 21 16  2  0
 21 20  1  0
 22 11  1  0
 23 22  2  0
 24 22  1  0
 25 24  1  0
 25 26  1  1
 26 27  1  0
 27 28  2  0
 28 29  1  0
 30 29  2  0
 31 30  1  0
 32 27  1  0
 32 31  2  0
 33 25  1  0
 34 33  2  0
 35 33  1  0
M  END
$$$$
