KWF.pdb
     RDKit          3D

 35 37  0  0  1  0  0  0  0  0999 V2000
    8.0094  -15.9676   19.8121 N   0  0  0  0  0  0  0  0  0  0  0  0
    9.1027  -15.0917   20.0461 C   0  0  1  0  0  0  0  0  0  0  0  0
    8.9972  -13.7535   19.4875 C   0  0  0  0  0  0  0  0  0  0  0  0
    8.5883  -13.4440   18.1207 C   0  0  0  0  0  0  0  0  0  0  0  0
    7.2744  -13.7054   17.5535 C   0  0  0  0  0  0  0  0  0  0  0  0
    6.8826  -13.3182   16.1924 C   0  0  0  0  0  0  0  0  0  0  0  0
    7.4758  -14.1052   15.1228 N   0  0  0  0  0  0  0  0  0  0  0  0
    9.4263  -15.1312   21.5053 C   0  0  0  0  0  0  0  0  0  0  0  0
   10.2517  -14.3291   22.0155 O   0  0  0  0  0  0  0  0  0  0  0  0
    8.8344  -16.0601   22.3992 N   0  0  0  0  0  0  0  0  0  0  0  0
    9.2203  -16.1164   23.7933 C   0  0  1  0  0  0  0  0  0  0  0  0
    8.0195  -16.7251   24.4987 C   0  0  0  0  0  0  0  0  0  0  0  0
    7.0039  -15.7589   24.9203 C   0  0  0  0  0  0  0  0  0  0  0  0
    5.7145  -16.1122   25.3478 C   0  0  0  0  0  0  0  0  0  0  0  0
    5.1052  -14.9750   25.6675 N   0  0  0  0  0  0  0  0  0  0  0  0
    5.8926  -13.9003   25.4834 C   0  0  0  0  0  0  0  0  0  0  0  0
    5.6892  -12.5362   25.6728 C   0  0  0  0  0  0  0  0  0  0  0  0
    6.7127  -11.6700   25.3786 C   0  0  0  0  0  0  0  0  0  0  0  0
    7.9254  -12.1025   24.9056 C   0  0  0  0  0  0  0  0  0  0  0  0
    8.0848  -13.4620   24.7327 C   0  0  0  0  0  0  0  0  0  0  0  0
    7.1007  -14.4015   25.0073 C   0  0  0  0  0  0  0  0  0  0  0  0
   10.5003  -16.7075   24.0942 C   0  0  0  0  0  0  0  0  0  0  0  0
   11.3874  -16.9508   23.2305 O   0  0  0  0  0  0  0  0  0  0  0  0
   10.7624  -17.0259   25.4775 N   0  0  0  0  0  0  0  0  0  0  0  0
   11.9779  -17.7021   25.8802 C   0  0  1  0  0  0  0  0  0  0  0  0
   12.7640  -16.6437   26.6718 C   0  0  0  0  0  0  0  0  0  0  0  0
   11.8777  -15.9150   27.5915 C   0  0  0  0  0  0  0  0  0  0  0  0
   10.5269  -16.2592   27.5958 C   0  0  0  0  0  0  0  0  0  0  0  0
    9.6973  -15.5937   28.4488 C   0  0  0  0  0  0  0  0  0  0  0  0
   10.1763  -14.5994   29.2930 C   0  0  0  0  0  0  0  0  0  0  0  0
   11.5192  -14.2673   29.2792 C   0  0  0  0  0  0  0  0  0  0  0  0
   12.3673  -14.9287   28.4258 C   0  0  0  0  0  0  0  0  0  0  0  0
   11.6816  -18.8702   26.7258 C   0  0  0  0  0  0  0  0  0  0  0  0
   10.5051  -19.0416   27.1276 O   0  0  0  0  0  0  0  0  0  0  0  0
   12.6257  -19.8074   27.1132 O   0  0  0  0  0  0  0  0  0  0  0  0
  2  1  1  1
  2  3  1  0
  3  4  1  0
  4  5  1  0
  5  6  1  0
  7  6  1  0
  8  2  1  0
  8  9  2  0
 10  8  1  0
 11 10  1  0
 11 12  1  1
 12 13  1  0
 13 21  1  0
 14 13  2  0
 14 15  1  0
 15 16  1  0
 16 17  1  0
 17 18  2  0
 19 18  1  0
 20 19  2  0
 21 16  2  0
 21 20  1  0
 22 11  1  0
 23 22  2  0
 24 22  1  0
 25 24  1  0
 25 26  1  1
 26 27  1  0
 27 28  2  0
 28 29  1  0
 30 29  2  0
 31 30  1  0
 32 27  1  0
 32 31  2  0
 33 25  1  0
 34 33  2  0
 35 33  1  0
M  END
$$$$
