KWF.pdb
     RDKit          3D

 35 37  0  0  1  0  0  0  0  0999 V2000
    8.8239  -19.4046   18.7148 N   0  0  0  0  0  0  0  0  0  0  0  0
   10.0695  -19.3418   19.3945 C   0  0  1  0  0  0  0  0  0  0  0  0
   11.2658  -19.4213   18.5719 C   0  0  0  0  0  0  0  0  0  0  0  0
   11.2820  -19.4312   17.1123 C   0  0  0  0  0  0  0  0  0  0  0  0
   12.3607  -18.9256   16.2772 C   0  0  0  0  0  0  0  0  0  0  0  0
   12.3136  -18.9040   14.8097 C   0  0  0  0  0  0  0  0  0  0  0  0
   13.3966  -18.1829   14.1596 N   0  0  0  0  0  0  0  0  0  0  0  0
   10.0330  -18.1721   20.3251 C   0  0  0  0  0  0  0  0  0  0  0  0
   10.9601  -17.3206   20.3442 O   0  0  0  0  0  0  0  0  0  0  0  0
    8.9682  -17.9463   21.2347 N   0  0  0  0  0  0  0  0  0  0  0  0
    9.0086  -16.8579   22.1883 C   0  0  1  0  0  0  0  0  0  0  0  0
    7.6455  -16.1958   22.0718 C   0  0  0  0  0  0  0  0  0  0  0  0
    7.5665  -14.8537   22.6508 C   0  0  0  0  0  0  0  0  0  0  0  0
    7.9564  -13.6850   21.9783 C   0  0  0  0  0  0  0  0  0  0  0  0
    7.7124  -12.6786   22.8117 N   0  0  0  0  0  0  0  0  0  0  0  0
    7.1926  -13.0935   23.9806 C   0  0  0  0  0  0  0  0  0  0  0  0
    6.7930  -12.4175   25.1301 C   0  0  0  0  0  0  0  0  0  0  0  0
    6.2975  -13.1446   26.1838 C   0  0  0  0  0  0  0  0  0  0  0  0
    6.1835  -14.5108   26.1420 C   0  0  0  0  0  0  0  0  0  0  0  0
    6.5907  -15.1410   24.9841 C   0  0  0  0  0  0  0  0  0  0  0  0
    7.1011  -14.4785   23.8764 C   0  0  0  0  0  0  0  0  0  0  0  0
    9.4485  -17.1748   23.5241 C   0  0  0  0  0  0  0  0  0  0  0  0
    9.1014  -18.2104   24.1559 O   0  0  0  0  0  0  0  0  0  0  0  0
   10.3465  -16.2369   24.1546 N   0  0  0  0  0  0  0  0  0  0  0  0
   10.6826  -16.3399   25.5593 C   0  0  1  0  0  0  0  0  0  0  0  0
   10.6664  -14.8885   26.0673 C   0  0  0  0  0  0  0  0  0  0  0  0
   10.7791  -14.8472   27.5329 C   0  0  0  0  0  0  0  0  0  0  0  0
   10.2680  -13.7285   28.1891 C   0  0  0  0  0  0  0  0  0  0  0  0
   10.3622  -13.6825   29.5485 C   0  0  0  0  0  0  0  0  0  0  0  0
   10.9493  -14.7169   30.2669 C   0  0  0  0  0  0  0  0  0  0  0  0
   11.4526  -15.8218   29.6038 C   0  0  0  0  0  0  0  0  0  0  0  0
   11.3650  -15.8827   28.2350 C   0  0  0  0  0  0  0  0  0  0  0  0
    9.6946  -17.1557   26.2843 C   0  0  0  0  0  0  0  0  0  0  0  0
   10.1040  -18.0819   27.0257 O   0  0  0  0  0  0  0  0  0  0  0  0
    8.3242  -16.9678   26.2041 O   0  0  0  0  0  0  0  0  0  0  0  0
  2  1  1  6
  2  3  1  0
  3  4  1  0
  4  5  1  0
  5  6  1  0
  7  6  1  0
  8  2  1  0
  8  9  2  0
 10  8  1  0
 11 10  1  0
 11 12  1  1
 12 13  1  0
 13 21  1  0
 14 13  2  0
 14 15  1  0
 15 16  1  0
 16 17  1  0
 17 18  2  0
 19 18  1  0
 20 19  2  0
 21 16  2  0
 21 20  1  0
 22 11  1  0
 23 22  2  0
 24 22  1  0
 25 24  1  0
 25 26  1  1
 26 27  1  0
 27 28  2  0
 28 29  1  0
 30 29  2  0
 31 30  1  0
 32 27  1  0
 32 31  2  0
 33 25  1  0
 34 33  2  0
 35 33  1  0
M  END
$$$$
