KWF.pdb
     RDKit          3D

 35 37  0  0  1  0  0  0  0  0999 V2000
    8.9108  -17.6597   20.2999 N   0  0  0  0  0  0  0  0  0  0  0  0
   10.0828  -16.8868   20.5151 C   0  0  1  0  0  0  0  0  0  0  0  0
   10.4139  -15.9063   19.4938 C   0  0  0  0  0  0  0  0  0  0  0  0
    9.7630  -15.7976   18.1918 C   0  0  0  0  0  0  0  0  0  0  0  0
    8.4085  -15.3184   17.9631 C   0  0  0  0  0  0  0  0  0  0  0  0
    8.0664  -14.2772   16.9858 C   0  0  0  0  0  0  0  0  0  0  0  0
    8.4063  -14.5799   15.6044 N   0  0  0  0  0  0  0  0  0  0  0  0
   10.0308  -16.3406   21.9059 C   0  0  0  0  0  0  0  0  0  0  0  0
   10.8180  -15.4338   22.2838 O   0  0  0  0  0  0  0  0  0  0  0  0
    9.1055  -16.7998   22.8781 N   0  0  0  0  0  0  0  0  0  0  0  0
    9.0787  -16.2456   24.2152 C   0  0  1  0  0  0  0  0  0  0  0  0
    7.6270  -15.8547   24.4388 C   0  0  0  0  0  0  0  0  0  0  0  0
    7.3218  -14.4510   24.1575 C   0  0  0  0  0  0  0  0  0  0  0  0
    7.3817  -13.8763   22.8784 C   0  0  0  0  0  0  0  0  0  0  0  0
    7.0140  -12.6073   23.0244 N   0  0  0  0  0  0  0  0  0  0  0  0
    6.7170  -12.3015   24.2999 C   0  0  0  0  0  0  0  0  0  0  0  0
    6.3010  -11.1253   24.9175 C   0  0  0  0  0  0  0  0  0  0  0  0
    6.0827  -11.1338   26.2727 C   0  0  0  0  0  0  0  0  0  0  0  0
    6.2604  -12.2592   27.0364 C   0  0  0  0  0  0  0  0  0  0  0  0
    6.6730  -13.4031   26.3846 C   0  0  0  0  0  0  0  0  0  0  0  0
    6.9141  -13.4764   25.0197 C   0  0  0  0  0  0  0  0  0  0  0  0
    9.6940  -17.0264   25.2592 C   0  0  0  0  0  0  0  0  0  0  0  0
    9.1755  -17.2260   26.3921 O   0  0  0  0  0  0  0  0  0  0  0  0
   10.9803  -17.6112   24.9640 N   0  0  0  0  0  0  0  0  0  0  0  0
   12.1879  -17.1502   25.6168 C   0  0  1  0  0  0  0  0  0  0  0  0
   12.0387  -17.6135   27.0756 C   0  0  0  0  0  0  0  0  0  0  0  0
   11.3259  -16.6045   27.8732 C   0  0  0  0  0  0  0  0  0  0  0  0
   11.4565  -15.2697   27.4930 C   0  0  0  0  0  0  0  0  0  0  0  0
   10.7953  -14.3265   28.2223 C   0  0  0  0  0  0  0  0  0  0  0  0
   10.0115  -14.6770   29.3149 C   0  0  0  0  0  0  0  0  0  0  0  0
    9.8899  -16.0053   29.6818 C   0  0  0  0  0  0  0  0  0  0  0  0
   10.5496  -16.9669   28.9571 C   0  0  0  0  0  0  0  0  0  0  0  0
   13.3856  -17.7459   25.0019 C   0  0  0  0  0  0  0  0  0  0  0  0
   14.5164  -17.3599   25.3855 O   0  0  0  0  0  0  0  0  0  0  0  0
   13.3496  -18.7182   24.0154 O   0  0  0  0  0  0  0  0  0  0  0  0
  2  1  1  6
  2  3  1  0
  3  4  1  0
  4  5  1  0
  5  6  1  0
  7  6  1  0
  8  2  1  0
  8  9  2  0
 10  8  1  0
 11 10  1  0
 11 12  1  1
 12 13  1  0
 13 21  1  0
 14 13  2  0
 14 15  1  0
 15 16  1  0
 16 17  1  0
 17 18  2  0
 19 18  1  0
 20 19  2  0
 21 16  2  0
 21 20  1  0
 22 11  1  0
 23 22  2  0
 24 22  1  0
 25 24  1  0
 25 26  1  1
 26 27  1  0
 27 28  2  0
 28 29  1  0
 30 29  2  0
 31 30  1  0
 32 27  1  0
 32 31  2  0
 33 25  1  0
 34 33  2  0
 35 33  1  0
M  END
$$$$
