KWF.pdb
     RDKit          3D

 35 37  0  0  1  0  0  0  0  0999 V2000
    7.7828  -16.2094   19.8719 N   0  0  0  0  0  0  0  0  0  0  0  0
    8.5724  -15.0429   20.0538 C   0  0  1  0  0  0  0  0  0  0  0  0
    7.9965  -13.7882   19.5975 C   0  0  0  0  0  0  0  0  0  0  0  0
    8.0823  -13.2713   18.2350 C   0  0  0  0  0  0  0  0  0  0  0  0
    7.5833  -13.9428   17.0449 C   0  0  0  0  0  0  0  0  0  0  0  0
    7.7068  -13.3955   15.6880 C   0  0  0  0  0  0  0  0  0  0  0  0
    7.1158  -14.2021   14.6318 N   0  0  0  0  0  0  0  0  0  0  0  0
    9.0569  -15.0251   21.4682 C   0  0  0  0  0  0  0  0  0  0  0  0
    9.8869  -14.1661   21.8659 O   0  0  0  0  0  0  0  0  0  0  0  0
    8.6209  -15.9599   22.4420 N   0  0  0  0  0  0  0  0  0  0  0  0
    9.1601  -15.9566   23.7855 C   0  0  1  0  0  0  0  0  0  0  0  0
    8.0455  -16.5272   24.6469 C   0  0  0  0  0  0  0  0  0  0  0  0
    6.9944  -15.5711   24.9985 C   0  0  0  0  0  0  0  0  0  0  0  0
    5.6311  -15.8965   25.0733 C   0  0  0  0  0  0  0  0  0  0  0  0
    5.0041  -14.7842   25.4429 N   0  0  0  0  0  0  0  0  0  0  0  0
    5.8482  -13.7517   25.6170 C   0  0  0  0  0  0  0  0  0  0  0  0
    5.6535  -12.4239   25.9868 C   0  0  0  0  0  0  0  0  0  0  0  0
    6.7451  -11.5958   26.0701 C   0  0  0  0  0  0  0  0  0  0  0  0
    8.0176  -12.0319   25.8019 C   0  0  0  0  0  0  0  0  0  0  0  0
    8.1660  -13.3548   25.4393 C   0  0  0  0  0  0  0  0  0  0  0  0
    7.1146  -14.2547   25.3330 C   0  0  0  0  0  0  0  0  0  0  0  0
   10.4656  -16.5404   23.9676 C   0  0  0  0  0  0  0  0  0  0  0  0
   10.9602  -17.4177   23.2075 O   0  0  0  0  0  0  0  0  0  0  0  0
   11.2384  -16.0712   25.0929 N   0  0  0  0  0  0  0  0  0  0  0  0
   12.5037  -16.6799   25.4472 C   0  0  1  0  0  0  0  0  0  0  0  0
   13.0305  -15.8246   26.6116 C   0  0  0  0  0  0  0  0  0  0  0  0
   12.0059  -15.6768   27.6560 C   0  0  0  0  0  0  0  0  0  0  0  0
   11.1739  -14.5602   27.5917 C   0  0  0  0  0  0  0  0  0  0  0  0
   10.2168  -14.4164   28.5519 C   0  0  0  0  0  0  0  0  0  0  0  0
   10.0681  -15.3514   29.5690 C   0  0  0  0  0  0  0  0  0  0  0  0
   10.9002  -16.4554   29.6214 C   0  0  0  0  0  0  0  0  0  0  0  0
   11.8688  -16.6142   28.6615 C   0  0  0  0  0  0  0  0  0  0  0  0
   12.3213  -18.0782   25.8700 C   0  0  0  0  0  0  0  0  0  0  0  0
   13.3365  -18.7627   26.1454 O   0  0  0  0  0  0  0  0  0  0  0  0
   11.0882  -18.6990   25.9876 O   0  0  0  0  0  0  0  0  0  0  0  0
  2  1  1  1
  2  3  1  0
  3  4  1  0
  4  5  1  0
  5  6  1  0
  7  6  1  0
  8  2  1  0
  8  9  2  0
 10  8  1  0
 11 10  1  0
 11 12  1  1
 12 13  1  0
 13 21  1  0
 14 13  2  0
 14 15  1  0
 15 16  1  0
 16 17  1  0
 17 18  2  0
 19 18  1  0
 20 19  2  0
 21 16  2  0
 21 20  1  0
 22 11  1  0
 23 22  2  0
 24 22  1  0
 25 24  1  0
 25 26  1  1
 26 27  1  0
 27 28  2  0
 28 29  1  0
 30 29  2  0
 31 30  1  0
 32 27  1  0
 32 31  2  0
 33 25  1  0
 34 33  2  0
 35 33  1  0
M  END
$$$$
