KWF.pdb
     RDKit          3D

 35 37  0  0  1  0  0  0  0  0999 V2000
    7.2140  -17.1518   18.9394 N   0  0  0  0  0  0  0  0  0  0  0  0
    8.2073  -16.2118   19.3227 C   0  0  1  0  0  0  0  0  0  0  0  0
    8.3828  -15.0584   18.4549 C   0  0  0  0  0  0  0  0  0  0  0  0
    8.2532  -15.0740   17.0010 C   0  0  0  0  0  0  0  0  0  0  0  0
    8.8411  -14.1030   16.0911 C   0  0  0  0  0  0  0  0  0  0  0  0
    8.6281  -14.1142   14.6383 C   0  0  0  0  0  0  0  0  0  0  0  0
    8.1095  -12.8787   14.0726 N   0  0  0  0  0  0  0  0  0  0  0  0
    7.9990  -15.8771   20.7649 C   0  0  0  0  0  0  0  0  0  0  0  0
    7.3593  -14.8504   21.1137 O   0  0  0  0  0  0  0  0  0  0  0  0
    8.4999  -16.6811   21.8208 N   0  0  0  0  0  0  0  0  0  0  0  0
    8.8021  -16.1179   23.1197 C   0  0  1  0  0  0  0  0  0  0  0  0
    7.8207  -16.7897   24.0661 C   0  0  0  0  0  0  0  0  0  0  0  0
    6.9455  -15.8690   24.7935 C   0  0  0  0  0  0  0  0  0  0  0  0
    5.8700  -16.2788   25.5970 C   0  0  0  0  0  0  0  0  0  0  0  0
    5.3413  -15.1693   26.1031 N   0  0  0  0  0  0  0  0  0  0  0  0
    5.9844  -14.0608   25.6952 C   0  0  0  0  0  0  0  0  0  0  0  0
    5.7906  -12.7067   25.9536 C   0  0  0  0  0  0  0  0  0  0  0  0
    6.6326  -11.7961   25.3653 C   0  0  0  0  0  0  0  0  0  0  0  0
    7.6556  -12.1748   24.5337 C   0  0  0  0  0  0  0  0  0  0  0  0
    7.8126  -13.5263   24.3047 C   0  0  0  0  0  0  0  0  0  0  0  0
    7.0050  -14.5084   24.8613 C   0  0  0  0  0  0  0  0  0  0  0  0
   10.1842  -16.1235   23.5294 C   0  0  0  0  0  0  0  0  0  0  0  0
   11.1043  -15.5095   22.9222 O   0  0  0  0  0  0  0  0  0  0  0  0
   10.5100  -16.8804   24.7146 N   0  0  0  0  0  0  0  0  0  0  0  0
   11.8688  -16.9643   25.2081 C   0  0  1  0  0  0  0  0  0  0  0  0
   12.1978  -15.5369   25.6764 C   0  0  0  0  0  0  0  0  0  0  0  0
   11.4965  -15.2245   26.9306 C   0  0  0  0  0  0  0  0  0  0  0  0
   11.4032  -16.2338   27.8877 C   0  0  0  0  0  0  0  0  0  0  0  0
   10.7599  -15.9531   29.0565 C   0  0  0  0  0  0  0  0  0  0  0  0
   10.2102  -14.6995   29.2950 C   0  0  0  0  0  0  0  0  0  0  0  0
   10.3097  -13.7063   28.3372 C   0  0  0  0  0  0  0  0  0  0  0  0
   10.9547  -13.9736   27.1550 C   0  0  0  0  0  0  0  0  0  0  0  0
   11.9705  -17.9153   26.3273 C   0  0  0  0  0  0  0  0  0  0  0  0
   13.1064  -18.1886   26.7856 O   0  0  0  0  0  0  0  0  0  0  0  0
   10.8827  -18.5373   26.9186 O   0  0  0  0  0  0  0  0  0  0  0  0
  2  1  1  6
  2  3  1  0
  3  4  1  0
  4  5  1  0
  5  6  1  0
  7  6  1  0
  8  2  1  0
  8  9  2  0
 10  8  1  0
 11 10  1  0
 11 12  1  1
 12 13  1  0
 13 21  1  0
 14 13  2  0
 14 15  1  0
 15 16  1  0
 16 17  1  0
 17 18  2  0
 19 18  1  0
 20 19  2  0
 21 16  2  0
 21 20  1  0
 22 11  1  0
 23 22  2  0
 24 22  1  0
 25 24  1  0
 25 26  1  1
 26 27  1  0
 27 28  2  0
 28 29  1  0
 30 29  2  0
 31 30  1  0
 32 27  1  0
 32 31  2  0
 33 25  1  0
 34 33  2  0
 35 33  1  0
M  END
$$$$
