KWF.pdb
     RDKit          3D

 35 37  0  0  1  0  0  0  0  0999 V2000
    9.2780  -19.3429   21.7149 N   0  0  0  0  0  0  0  0  0  0  0  0
   10.2716  -18.5093   21.1361 C   0  0  1  0  0  0  0  0  0  0  0  0
   10.2239  -18.3441   19.6923 C   0  0  0  0  0  0  0  0  0  0  0  0
    9.6904  -19.3250   18.7521 C   0  0  0  0  0  0  0  0  0  0  0  0
    8.8890  -19.0186   17.5772 C   0  0  0  0  0  0  0  0  0  0  0  0
    8.0841  -20.0137   16.8574 C   0  0  0  0  0  0  0  0  0  0  0  0
    8.8392  -21.0342   16.1477 N   0  0  0  0  0  0  0  0  0  0  0  0
   10.3103  -17.2283   21.9062 C   0  0  0  0  0  0  0  0  0  0  0  0
   11.1557  -16.3325   21.6460 O   0  0  0  0  0  0  0  0  0  0  0  0
    9.4114  -16.9403   22.9650 N   0  0  0  0  0  0  0  0  0  0  0  0
    9.3870  -15.6403   23.6014 C   0  0  1  0  0  0  0  0  0  0  0  0
    7.9264  -15.2217   23.5615 C   0  0  0  0  0  0  0  0  0  0  0  0
    7.3703  -15.0714   22.2158 C   0  0  0  0  0  0  0  0  0  0  0  0
    6.4558  -15.9674   21.6404 C   0  0  0  0  0  0  0  0  0  0  0  0
    6.1694  -15.4826   20.4363 N   0  0  0  0  0  0  0  0  0  0  0  0
    6.8242  -14.3376   20.1738 C   0  0  0  0  0  0  0  0  0  0  0  0
    6.8442  -13.4926   19.0677 C   0  0  0  0  0  0  0  0  0  0  0  0
    7.6425  -12.3765   19.1051 C   0  0  0  0  0  0  0  0  0  0  0  0
    8.4189  -12.0671   20.1927 C   0  0  0  0  0  0  0  0  0  0  0  0
    8.3692  -12.9309   21.2674 C   0  0  0  0  0  0  0  0  0  0  0  0
    7.5885  -14.0778   21.3078 C   0  0  0  0  0  0  0  0  0  0  0  0
   10.0459  -15.5248   24.8784 C   0  0  0  0  0  0  0  0  0  0  0  0
   10.8105  -14.5727   25.1961 O   0  0  0  0  0  0  0  0  0  0  0  0
    9.7945  -16.5726   25.8389 N   0  0  0  0  0  0  0  0  0  0  0  0
   10.2129  -16.4484   27.2196 C   0  0  1  0  0  0  0  0  0  0  0  0
    8.9427  -16.0145   27.9700 C   0  0  0  0  0  0  0  0  0  0  0  0
    8.6047  -14.6174   27.6597 C   0  0  0  0  0  0  0  0  0  0  0  0
    7.3923  -14.3733   27.0165 C   0  0  0  0  0  0  0  0  0  0  0  0
    7.0665  -13.0810   26.7291 C   0  0  0  0  0  0  0  0  0  0  0  0
    7.9131  -12.0313   27.0641 C   0  0  0  0  0  0  0  0  0  0  0  0
    9.1135  -12.2869   27.7024 C   0  0  0  0  0  0  0  0  0  0  0  0
    9.4556  -13.5831   27.9987 C   0  0  0  0  0  0  0  0  0  0  0  0
   10.7126  -17.7311   27.7415 C   0  0  0  0  0  0  0  0  0  0  0  0
   11.1276  -17.7807   28.9248 O   0  0  0  0  0  0  0  0  0  0  0  0
   10.7557  -18.9044   27.0057 O   0  0  0  0  0  0  0  0  0  0  0  0
  2  1  1  1
  2  3  1  0
  3  4  1  0
  4  5  1  0
  5  6  1  0
  7  6  1  0
  8  2  1  0
  8  9  2  0
 10  8  1  0
 11 10  1  0
 11 12  1  1
 12 13  1  0
 13 21  1  0
 14 13  2  0
 14 15  1  0
 15 16  1  0
 16 17  1  0
 17 18  2  0
 19 18  1  0
 20 19  2  0
 21 16  2  0
 21 20  1  0
 22 11  1  0
 23 22  2  0
 24 22  1  0
 25 24  1  0
 25 26  1  1
 26 27  1  0
 27 28  2  0
 28 29  1  0
 30 29  2  0
 31 30  1  0
 32 27  1  0
 32 31  2  0
 33 25  1  0
 34 33  2  0
 35 33  1  0
M  END
$$$$
