KWF.pdb
     RDKit          3D

 35 37  0  0  1  0  0  0  0  0999 V2000
   10.0984  -16.7321   18.4017 N   0  0  0  0  0  0  0  0  0  0  0  0
   10.6782  -17.4672   19.4697 C   0  0  1  0  0  0  0  0  0  0  0  0
   12.0888  -17.7965   19.3443 C   0  0  0  0  0  0  0  0  0  0  0  0
   12.6819  -18.5420   18.2383 C   0  0  0  0  0  0  0  0  0  0  0  0
   12.8522  -18.0455   16.8814 C   0  0  0  0  0  0  0  0  0  0  0  0
   13.5907  -18.7660   15.8366 C   0  0  0  0  0  0  0  0  0  0  0  0
   13.7147  -18.0703   14.5654 N   0  0  0  0  0  0  0  0  0  0  0  0
   10.3102  -16.7926   20.7522 C   0  0  0  0  0  0  0  0  0  0  0  0
   10.7897  -15.6711   21.0640 O   0  0  0  0  0  0  0  0  0  0  0  0
    9.4100  -17.3615   21.6894 N   0  0  0  0  0  0  0  0  0  0  0  0
    9.1194  -16.7088   22.9484 C   0  0  1  0  0  0  0  0  0  0  0  0
    7.6175  -16.4769   22.9219 C   0  0  0  0  0  0  0  0  0  0  0  0
    7.0776  -15.8307   24.1192 C   0  0  0  0  0  0  0  0  0  0  0  0
    6.3966  -16.5130   25.1394 C   0  0  0  0  0  0  0  0  0  0  0  0
    6.0899  -15.6000   26.0555 N   0  0  0  0  0  0  0  0  0  0  0  0
    6.5155  -14.3697   25.7179 C   0  0  0  0  0  0  0  0  0  0  0  0
    6.4206  -13.1313   26.3466 C   0  0  0  0  0  0  0  0  0  0  0  0
    6.9629  -12.0336   25.7261 C   0  0  0  0  0  0  0  0  0  0  0  0
    7.5934  -12.1160   24.5107 C   0  0  0  0  0  0  0  0  0  0  0  0
    7.6655  -13.3620   23.9225 C   0  0  0  0  0  0  0  0  0  0  0  0
    7.1436  -14.5187   24.4847 C   0  0  0  0  0  0  0  0  0  0  0  0
    9.6458  -17.3242   24.1410 C   0  0  0  0  0  0  0  0  0  0  0  0
    9.3921  -18.5079   24.4970 O   0  0  0  0  0  0  0  0  0  0  0  0
   10.5202  -16.5183   24.9592 N   0  0  0  0  0  0  0  0  0  0  0  0
   11.3386  -17.1075   25.9984 C   0  0  1  0  0  0  0  0  0  0  0  0
   12.0490  -15.9117   26.6544 C   0  0  0  0  0  0  0  0  0  0  0  0
   11.1227  -15.1636   27.5173 C   0  0  0  0  0  0  0  0  0  0  0  0
   10.9886  -15.5844   28.8395 C   0  0  0  0  0  0  0  0  0  0  0  0
   10.1366  -14.8943   29.6498 C   0  0  0  0  0  0  0  0  0  0  0  0
    9.4187  -13.8017   29.1793 C   0  0  0  0  0  0  0  0  0  0  0  0
    9.5609  -13.3939   27.8649 C   0  0  0  0  0  0  0  0  0  0  0  0
   10.4153  -14.0787   27.0366 C   0  0  0  0  0  0  0  0  0  0  0  0
   10.5125  -17.8256   26.9829 C   0  0  0  0  0  0  0  0  0  0  0  0
   11.0843  -18.4576   27.9042 O   0  0  0  0  0  0  0  0  0  0  0  0
    9.1273  -17.8512   26.9626 O   0  0  0  0  0  0  0  0  0  0  0  0
  2  1  1  6
  2  3  1  0
  3  4  1  0
  4  5  1  0
  5  6  1  0
  7  6  1  0
  8  2  1  0
  8  9  2  0
 10  8  1  0
 11 10  1  0
 11 12  1  1
 12 13  1  0
 13 21  1  0
 14 13  2  0
 14 15  1  0
 15 16  1  0
 16 17  1  0
 17 18  2  0
 19 18  1  0
 20 19  2  0
 21 16  2  0
 21 20  1  0
 22 11  1  0
 23 22  2  0
 24 22  1  0
 25 24  1  0
 25 26  1  1
 26 27  1  0
 27 28  2  0
 28 29  1  0
 30 29  2  0
 31 30  1  0
 32 27  1  0
 32 31  2  0
 33 25  1  0
 34 33  2  0
 35 33  1  0
M  END
$$$$
