KWF.pdb
     RDKit          3D

 35 37  0  0  1  0  0  0  0  0999 V2000
    9.5343  -19.1713   21.6244 N   0  0  0  0  0  0  0  0  0  0  0  0
   10.6472  -18.3425   21.3218 C   0  0  1  0  0  0  0  0  0  0  0  0
   10.9269  -18.1153   19.9132 C   0  0  0  0  0  0  0  0  0  0  0  0
   10.8818  -19.1380   18.8725 C   0  0  0  0  0  0  0  0  0  0  0  0
   10.1670  -19.0262   17.6103 C   0  0  0  0  0  0  0  0  0  0  0  0
   10.6493  -18.2406   16.4674 C   0  0  0  0  0  0  0  0  0  0  0  0
   11.3058  -19.0026   15.4168 N   0  0  0  0  0  0  0  0  0  0  0  0
   10.5358  -17.0967   22.1410 C   0  0  0  0  0  0  0  0  0  0  0  0
   11.3627  -16.1554   22.0182 O   0  0  0  0  0  0  0  0  0  0  0  0
    9.5070  -16.8944   23.0964 N   0  0  0  0  0  0  0  0  0  0  0  0
    9.3862  -15.6477   23.8224 C   0  0  1  0  0  0  0  0  0  0  0  0
    7.9092  -15.2986   23.7408 C   0  0  0  0  0  0  0  0  0  0  0  0
    7.4128  -15.0547   22.3855 C   0  0  0  0  0  0  0  0  0  0  0  0
    6.5240  -15.9060   21.7106 C   0  0  0  0  0  0  0  0  0  0  0  0
    6.2910  -15.3391   20.5311 N   0  0  0  0  0  0  0  0  0  0  0  0
    6.9574  -14.1811   20.3766 C   0  0  0  0  0  0  0  0  0  0  0  0
    7.0265  -13.2626   19.3328 C   0  0  0  0  0  0  0  0  0  0  0  0
    7.8232  -12.1547   19.4813 C   0  0  0  0  0  0  0  0  0  0  0  0
    8.5512  -11.9231   20.6205 C   0  0  0  0  0  0  0  0  0  0  0  0
    8.4538  -12.8581   21.6304 C   0  0  0  0  0  0  0  0  0  0  0  0
    7.6713  -14.0022   21.5580 C   0  0  0  0  0  0  0  0  0  0  0  0
    9.9794  -15.5953   25.1352 C   0  0  0  0  0  0  0  0  0  0  0  0
   10.0539  -14.5488   25.8363 O   0  0  0  0  0  0  0  0  0  0  0  0
   10.5084  -16.8309   25.6615 N   0  0  0  0  0  0  0  0  0  0  0  0
   11.1072  -16.8966   26.9783 C   0  0  1  0  0  0  0  0  0  0  0  0
    9.9301  -16.6975   27.9476 C   0  0  0  0  0  0  0  0  0  0  0  0
    9.3277  -15.3677   27.7709 C   0  0  0  0  0  0  0  0  0  0  0  0
    9.8388  -14.3198   28.5352 C   0  0  0  0  0  0  0  0  0  0  0  0
    9.2913  -13.0816   28.3751 C   0  0  0  0  0  0  0  0  0  0  0  0
    8.2533  -12.8615   27.4780 C   0  0  0  0  0  0  0  0  0  0  0  0
    7.7551  -13.9098   26.7252 C   0  0  0  0  0  0  0  0  0  0  0  0
    8.2962  -15.1628   26.8751 C   0  0  0  0  0  0  0  0  0  0  0  0
   11.7526  -18.2003   27.2048 C   0  0  0  0  0  0  0  0  0  0  0  0
   12.3182  -18.4106   28.3052 O   0  0  0  0  0  0  0  0  0  0  0  0
   11.7778  -19.2260   26.2737 O   0  0  0  0  0  0  0  0  0  0  0  0
  2  1  1  6
  2  3  1  0
  3  4  1  0
  4  5  1  0
  5  6  1  0
  7  6  1  0
  8  2  1  0
  8  9  2  0
 10  8  1  0
 11 10  1  0
 11 12  1  1
 12 13  1  0
 13 21  1  0
 14 13  2  0
 14 15  1  0
 15 16  1  0
 16 17  1  0
 17 18  2  0
 19 18  1  0
 20 19  2  0
 21 16  2  0
 21 20  1  0
 22 11  1  0
 23 22  2  0
 24 22  1  0
 25 24  1  0
 25 26  1  1
 26 27  1  0
 27 28  2  0
 28 29  1  0
 30 29  2  0
 31 30  1  0
 32 27  1  0
 32 31  2  0
 33 25  1  0
 34 33  2  0
 35 33  1  0
M  END
$$$$
