KWF.pdb
     RDKit          3D

 35 37  0  0  1  0  0  0  0  0999 V2000
    9.3012  -19.0638   20.9953 N   0  0  0  0  0  0  0  0  0  0  0  0
   10.5447  -18.3799   20.9382 C   0  0  1  0  0  0  0  0  0  0  0  0
   11.1363  -18.2117   19.6208 C   0  0  0  0  0  0  0  0  0  0  0  0
   11.4032  -19.2919   18.6759 C   0  0  0  0  0  0  0  0  0  0  0  0
   10.9983  -19.3100   17.2787 C   0  0  0  0  0  0  0  0  0  0  0  0
   11.3041  -20.4103   16.3557 C   0  0  0  0  0  0  0  0  0  0  0  0
   10.7955  -20.2513   15.0024 N   0  0  0  0  0  0  0  0  0  0  0  0
   10.4172  -17.1163   21.7271 C   0  0  0  0  0  0  0  0  0  0  0  0
   11.0445  -16.0743   21.4016 O   0  0  0  0  0  0  0  0  0  0  0  0
    9.5939  -17.0076   22.8771 N   0  0  0  0  0  0  0  0  0  0  0  0
    9.4588  -15.7565   23.5928 C   0  0  1  0  0  0  0  0  0  0  0  0
    7.9627  -15.4898   23.6190 C   0  0  0  0  0  0  0  0  0  0  0  0
    7.3667  -15.2216   22.3092 C   0  0  0  0  0  0  0  0  0  0  0  0
    6.4425  -16.0697   21.6794 C   0  0  0  0  0  0  0  0  0  0  0  0
    6.1177  -15.4788   20.5339 N   0  0  0  0  0  0  0  0  0  0  0  0
    6.7563  -14.3080   20.3601 C   0  0  0  0  0  0  0  0  0  0  0  0
    6.7381  -13.3644   19.3368 C   0  0  0  0  0  0  0  0  0  0  0  0
    7.5290  -12.2487   19.4546 C   0  0  0  0  0  0  0  0  0  0  0  0
    8.3343  -12.0332   20.5438 C   0  0  0  0  0  0  0  0  0  0  0  0
    8.3221  -12.9929   21.5350 C   0  0  0  0  0  0  0  0  0  0  0  0
    7.5513  -14.1464   21.4912 C   0  0  0  0  0  0  0  0  0  0  0  0
   10.1453  -15.6482   24.8558 C   0  0  0  0  0  0  0  0  0  0  0  0
   11.2483  -15.0558   25.0127 O   0  0  0  0  0  0  0  0  0  0  0  0
    9.5081  -16.2578   25.9986 N   0  0  0  0  0  0  0  0  0  0  0  0
   10.1176  -16.2229   27.3117 C   0  0  1  0  0  0  0  0  0  0  0  0
    9.0230  -15.6544   28.2300 C   0  0  0  0  0  0  0  0  0  0  0  0
    8.5591  -14.3472   27.7417 C   0  0  0  0  0  0  0  0  0  0  0  0
    7.3045  -14.2915   27.1365 C   0  0  0  0  0  0  0  0  0  0  0  0
    6.8622  -13.0834   26.6851 C   0  0  0  0  0  0  0  0  0  0  0  0
    7.6335  -11.9356   26.8205 C   0  0  0  0  0  0  0  0  0  0  0  0
    8.8769  -12.0042   27.4232 C   0  0  0  0  0  0  0  0  0  0  0  0
    9.3360  -13.2137   27.8830 C   0  0  0  0  0  0  0  0  0  0  0  0
   10.5153  -17.5711   27.7495 C   0  0  0  0  0  0  0  0  0  0  0  0
   11.1133  -17.6978   28.8455 O   0  0  0  0  0  0  0  0  0  0  0  0
   10.2702  -18.7263   27.0248 O   0  0  0  0  0  0  0  0  0  0  0  0
  2  1  1  6
  2  3  1  0
  3  4  1  0
  4  5  1  0
  5  6  1  0
  7  6  1  0
  8  2  1  0
  8  9  2  0
 10  8  1  0
 11 10  1  0
 11 12  1  1
 12 13  1  0
 13 21  1  0
 14 13  2  0
 14 15  1  0
 15 16  1  0
 16 17  1  0
 17 18  2  0
 19 18  1  0
 20 19  2  0
 21 16  2  0
 21 20  1  0
 22 11  1  0
 23 22  2  0
 24 22  1  0
 25 24  1  0
 25 26  1  1
 26 27  1  0
 27 28  2  0
 28 29  1  0
 30 29  2  0
 31 30  1  0
 32 27  1  0
 32 31  2  0
 33 25  1  0
 34 33  2  0
 35 33  1  0
M  END
$$$$
