KWF.pdb
     RDKit          3D

 35 37  0  0  1  0  0  0  0  0999 V2000
    9.2671  -17.2796   19.1019 N   0  0  0  0  0  0  0  0  0  0  0  0
    9.3391  -15.8949   19.4093 C   0  0  1  0  0  0  0  0  0  0  0  0
    8.4444  -15.0163   18.6733 C   0  0  0  0  0  0  0  0  0  0  0  0
    8.7126  -14.4623   17.3497 C   0  0  0  0  0  0  0  0  0  0  0  0
    8.6457  -13.0528   16.9957 C   0  0  0  0  0  0  0  0  0  0  0  0
    7.9540  -12.5435   15.8047 C   0  0  0  0  0  0  0  0  0  0  0  0
    8.2619  -13.2310   14.5606 N   0  0  0  0  0  0  0  0  0  0  0  0
    9.2729  -15.7442   20.8953 C   0  0  0  0  0  0  0  0  0  0  0  0
    9.4824  -14.6344   21.4516 O   0  0  0  0  0  0  0  0  0  0  0  0
    8.9742  -16.8243   21.7650 N   0  0  0  0  0  0  0  0  0  0  0  0
    8.9846  -16.6599   23.2033 C   0  0  1  0  0  0  0  0  0  0  0  0
    7.5737  -17.0187   23.6400 C   0  0  0  0  0  0  0  0  0  0  0  0
    6.9929  -16.1141   24.6335 C   0  0  0  0  0  0  0  0  0  0  0  0
    6.2208  -16.5399   25.7256 C   0  0  0  0  0  0  0  0  0  0  0  0
    5.9017  -15.4425   26.4045 N   0  0  0  0  0  0  0  0  0  0  0  0
    6.4031  -14.3273   25.8443 C   0  0  0  0  0  0  0  0  0  0  0  0
    6.3275  -12.9807   26.1888 C   0  0  0  0  0  0  0  0  0  0  0  0
    6.9563  -12.0593   25.3888 C   0  0  0  0  0  0  0  0  0  0  0  0
    7.6545  -12.4202   24.2647 C   0  0  0  0  0  0  0  0  0  0  0  0
    7.7046  -13.7649   23.9598 C   0  0  0  0  0  0  0  0  0  0  0  0
    7.0970  -14.7570   24.7168 C   0  0  0  0  0  0  0  0  0  0  0  0
   10.0551  -17.2992   23.9269 C   0  0  0  0  0  0  0  0  0  0  0  0
   10.7937  -18.2020   23.4455 O   0  0  0  0  0  0  0  0  0  0  0  0
   10.2806  -16.8576   25.2825 N   0  0  0  0  0  0  0  0  0  0  0  0
   11.3599  -17.3968   26.0833 C   0  0  1  0  0  0  0  0  0  0  0  0
   10.9510  -17.0952   27.5348 C   0  0  0  0  0  0  0  0  0  0  0  0
   10.6241  -15.6710   27.6997 C   0  0  0  0  0  0  0  0  0  0  0  0
   10.0818  -15.2693   28.9195 C   0  0  0  0  0  0  0  0  0  0  0  0
    9.7802  -13.9501   29.0850 C   0  0  0  0  0  0  0  0  0  0  0  0
   10.0037  -13.0257   28.0720 C   0  0  0  0  0  0  0  0  0  0  0  0
   10.5426  -13.4370   26.8661 C   0  0  0  0  0  0  0  0  0  0  0  0
   10.8518  -14.7624   26.6842 C   0  0  0  0  0  0  0  0  0  0  0  0
   11.5043  -18.8469   25.8743 C   0  0  0  0  0  0  0  0  0  0  0  0
   12.5492  -19.4136   26.2766 O   0  0  0  0  0  0  0  0  0  0  0  0
   10.5515  -19.6406   25.2562 O   0  0  0  0  0  0  0  0  0  0  0  0
  2  1  1  1
  2  3  1  0
  3  4  1  0
  4  5  1  0
  5  6  1  0
  7  6  1  0
  8  2  1  0
  8  9  2  0
 10  8  1  0
 11 10  1  0
 11 12  1  1
 12 13  1  0
 13 21  1  0
 14 13  2  0
 14 15  1  0
 15 16  1  0
 16 17  1  0
 17 18  2  0
 19 18  1  0
 20 19  2  0
 21 16  2  0
 21 20  1  0
 22 11  1  0
 23 22  2  0
 24 22  1  0
 25 24  1  0
 25 26  1  1
 26 27  1  0
 27 28  2  0
 28 29  1  0
 30 29  2  0
 31 30  1  0
 32 27  1  0
 32 31  2  0
 33 25  1  0
 34 33  2  0
 35 33  1  0
M  END
$$$$
