KWF.pdb
     RDKit          3D

 35 37  0  0  1  0  0  0  0  0999 V2000
    9.5392  -18.9278   19.1985 N   0  0  0  0  0  0  0  0  0  0  0  0
   10.4098  -17.8058   19.1828 C   0  0  1  0  0  0  0  0  0  0  0  0
   10.5070  -17.0733   17.9306 C   0  0  0  0  0  0  0  0  0  0  0  0
   10.8509  -17.6603   16.6390 C   0  0  0  0  0  0  0  0  0  0  0  0
    9.9266  -18.3520   15.7537 C   0  0  0  0  0  0  0  0  0  0  0  0
   10.3102  -18.9124   14.4519 C   0  0  0  0  0  0  0  0  0  0  0  0
   11.0241  -18.0060   13.5664 N   0  0  0  0  0  0  0  0  0  0  0  0
   10.0980  -16.9585   20.3746 C   0  0  0  0  0  0  0  0  0  0  0  0
   10.6914  -15.8666   20.5758 O   0  0  0  0  0  0  0  0  0  0  0  0
    9.1279  -17.3218   21.3436 N   0  0  0  0  0  0  0  0  0  0  0  0
    8.9415  -16.5468   22.5520 C   0  0  1  0  0  0  0  0  0  0  0  0
    7.4369  -16.5274   22.7663 C   0  0  0  0  0  0  0  0  0  0  0  0
    7.0017  -15.8383   23.9822 C   0  0  0  0  0  0  0  0  0  0  0  0
    6.4974  -16.4927   25.1170 C   0  0  0  0  0  0  0  0  0  0  0  0
    6.2406  -15.5420   26.0098 N   0  0  0  0  0  0  0  0  0  0  0  0
    6.5361  -14.3127   25.5513 C   0  0  0  0  0  0  0  0  0  0  0  0
    6.4320  -13.0439   26.1144 C   0  0  0  0  0  0  0  0  0  0  0  0
    6.8182  -11.9580   25.3688 C   0  0  0  0  0  0  0  0  0  0  0  0
    7.3019  -12.0812   24.0912 C   0  0  0  0  0  0  0  0  0  0  0  0
    7.3890  -13.3563   23.5716 C   0  0  0  0  0  0  0  0  0  0  0  0
    7.0200  -14.5035   24.2603 C   0  0  0  0  0  0  0  0  0  0  0  0
    9.7408  -16.9139   23.6941 C   0  0  0  0  0  0  0  0  0  0  0  0
    9.7058  -18.0477   24.2469 O   0  0  0  0  0  0  0  0  0  0  0  0
   10.6338  -15.9069   24.2158 N   0  0  0  0  0  0  0  0  0  0  0  0
   11.5045  -16.1783   25.3406 C   0  0  1  0  0  0  0  0  0  0  0  0
   11.5514  -14.8537   26.1205 C   0  0  0  0  0  0  0  0  0  0  0  0
   11.0535  -15.0377   27.4919 C   0  0  0  0  0  0  0  0  0  0  0  0
   10.3978  -13.9633   28.0910 C   0  0  0  0  0  0  0  0  0  0  0  0
    9.9273  -14.1249   29.3604 C   0  0  0  0  0  0  0  0  0  0  0  0
   10.0924  -15.3230   30.0445 C   0  0  0  0  0  0  0  0  0  0  0  0
   10.7448  -16.3819   29.4386 C   0  0  0  0  0  0  0  0  0  0  0  0
   11.2242  -16.2345   28.1605 C   0  0  0  0  0  0  0  0  0  0  0  0
   10.9648  -17.2587   26.1825 C   0  0  0  0  0  0  0  0  0  0  0  0
   11.7624  -18.0840   26.6901 O   0  0  0  0  0  0  0  0  0  0  0  0
    9.6175  -17.4288   26.4578 O   0  0  0  0  0  0  0  0  0  0  0  0
  2  1  1  6
  2  3  1  0
  3  4  1  0
  4  5  1  0
  5  6  1  0
  7  6  1  0
  8  2  1  0
  8  9  2  0
 10  8  1  0
 11 10  1  0
 11 12  1  1
 12 13  1  0
 13 21  1  0
 14 13  2  0
 14 15  1  0
 15 16  1  0
 16 17  1  0
 17 18  2  0
 19 18  1  0
 20 19  2  0
 21 16  2  0
 21 20  1  0
 22 11  1  0
 23 22  2  0
 24 22  1  0
 25 24  1  0
 25 26  1  1
 26 27  1  0
 27 28  2  0
 28 29  1  0
 30 29  2  0
 31 30  1  0
 32 27  1  0
 32 31  2  0
 33 25  1  0
 34 33  2  0
 35 33  1  0
M  END
$$$$
