KWF.pdb
     RDKit          3D

 35 37  0  0  1  0  0  0  0  0999 V2000
    9.9733  -18.8719   19.9797 N   0  0  0  0  0  0  0  0  0  0  0  0
   10.5672  -17.6162   19.6835 C   0  0  1  0  0  0  0  0  0  0  0  0
   10.2958  -17.0609   18.3674 C   0  0  0  0  0  0  0  0  0  0  0  0
   10.9600  -17.4653   17.1321 C   0  0  0  0  0  0  0  0  0  0  0  0
   10.3861  -18.3242   16.1078 C   0  0  0  0  0  0  0  0  0  0  0  0
   11.0002  -18.5466   14.7926 C   0  0  0  0  0  0  0  0  0  0  0  0
   10.3065  -19.4896   13.9296 N   0  0  0  0  0  0  0  0  0  0  0  0
   10.2821  -16.6873   20.8198 C   0  0  0  0  0  0  0  0  0  0  0  0
   10.7200  -15.5070   20.8270 O   0  0  0  0  0  0  0  0  0  0  0  0
    9.5110  -17.0669   21.9483 N   0  0  0  0  0  0  0  0  0  0  0  0
    9.2239  -16.1315   23.0151 C   0  0  1  0  0  0  0  0  0  0  0  0
    7.7658  -16.3828   23.3628 C   0  0  0  0  0  0  0  0  0  0  0  0
    7.2490  -15.5626   24.4596 C   0  0  0  0  0  0  0  0  0  0  0  0
    6.5549  -16.0785   25.5652 C   0  0  0  0  0  0  0  0  0  0  0  0
    6.2769  -15.0394   26.3462 N   0  0  0  0  0  0  0  0  0  0  0  0
    6.7335  -13.8797   25.8410 C   0  0  0  0  0  0  0  0  0  0  0  0
    6.6746  -12.5640   26.2922 C   0  0  0  0  0  0  0  0  0  0  0  0
    7.2430  -11.5779   25.5250 C   0  0  0  0  0  0  0  0  0  0  0  0
    7.8653  -11.8448   24.3321 C   0  0  0  0  0  0  0  0  0  0  0  0
    7.9015  -13.1617   23.9222 C   0  0  0  0  0  0  0  0  0  0  0  0
    7.3516  -14.2149   24.6398 C   0  0  0  0  0  0  0  0  0  0  0  0
   10.1449  -16.1012   24.1238 C   0  0  0  0  0  0  0  0  0  0  0  0
   10.9685  -15.1685   24.3337 O   0  0  0  0  0  0  0  0  0  0  0  0
   10.0986  -17.2152   25.0405 N   0  0  0  0  0  0  0  0  0  0  0  0
   11.1256  -17.4129   26.0421 C   0  0  1  0  0  0  0  0  0  0  0  0
   10.3777  -17.3290   27.3832 C   0  0  0  0  0  0  0  0  0  0  0  0
    9.9672  -15.9456   27.6661 C   0  0  0  0  0  0  0  0  0  0  0  0
   10.9596  -15.0405   28.0395 C   0  0  0  0  0  0  0  0  0  0  0  0
   10.5908  -13.7539   28.2987 C   0  0  0  0  0  0  0  0  0  0  0  0
    9.2659  -13.3479   28.1961 C   0  0  0  0  0  0  0  0  0  0  0  0
    8.2905  -14.2558   27.8245 C   0  0  0  0  0  0  0  0  0  0  0  0
    8.6463  -15.5552   27.5600 C   0  0  0  0  0  0  0  0  0  0  0  0
   11.7724  -18.7265   25.8886 C   0  0  0  0  0  0  0  0  0  0  0  0
   12.8062  -18.9719   26.5563 O   0  0  0  0  0  0  0  0  0  0  0  0
   11.3108  -19.7252   25.0463 O   0  0  0  0  0  0  0  0  0  0  0  0
  2  1  1  1
  2  3  1  0
  3  4  1  0
  4  5  1  0
  5  6  1  0
  7  6  1  0
  8  2  1  0
  8  9  2  0
 10  8  1  0
 11 10  1  0
 11 12  1  1
 12 13  1  0
 13 21  1  0
 14 13  2  0
 14 15  1  0
 15 16  1  0
 16 17  1  0
 17 18  2  0
 19 18  1  0
 20 19  2  0
 21 16  2  0
 21 20  1  0
 22 11  1  0
 23 22  2  0
 24 22  1  0
 25 24  1  0
 25 26  1  1
 26 27  1  0
 27 28  2  0
 28 29  1  0
 30 29  2  0
 31 30  1  0
 32 27  1  0
 32 31  2  0
 33 25  1  0
 34 33  2  0
 35 33  1  0
M  END
$$$$
