QNV.pdb
     RDKit          3D

 25 24  0  0  1  0  0  0  0  0999 V2000
    9.8737  -14.2216   17.6238 N   0  0  0  0  0  0  0  0  0  0  0  0
    8.5136  -14.0099   17.2774 C   0  0  0  0  0  0  0  0  0  0  0  0
    8.0898  -14.4049   16.1680 O   0  0  0  0  0  0  0  0  0  0  0  0
    7.6376  -13.3305   18.2341 C   0  0  0  0  0  0  0  0  0  0  0  0
    8.3245  -13.0466   19.5527 C   0  0  0  0  0  0  0  0  0  0  0  0
    8.2644  -14.2632   20.4613 C   0  0  2  0  0  0  0  0  0  0  0  0
    6.9254  -14.8065   20.3382 N   0  0  0  0  0  0  0  0  0  0  0  0
    8.5359  -13.9342   21.8600 C   0  0  0  0  0  0  0  0  0  0  0  0
    9.6772  -13.4621   22.1940 O   0  0  0  0  0  0  0  0  0  0  0  0
    6.0099  -12.4120   27.2195 N   0  0  0  0  0  0  0  0  0  0  0  0
    7.0356  -12.9698   26.4314 C   0  0  0  0  0  0  0  0  0  0  0  0
    8.1451  -13.2048   26.9415 O   0  0  0  0  0  0  0  0  0  0  0  0
    6.7979  -13.2737   25.0115 C   0  0  0  0  0  0  0  0  0  0  0  0
    7.9728  -13.9200   24.3218 C   0  0  2  0  0  0  0  0  0  0  0  0
    7.6182  -14.0945   22.9274 N   0  0  0  0  0  0  0  0  0  0  0  0
    8.2050  -15.2271   24.9924 C   0  0  0  0  0  0  0  0  0  0  0  0
    7.2444  -16.0273   25.0587 O   0  0  0  0  0  0  0  0  0  0  0  0
   11.9693  -16.9166   25.0909 C   0  0  0  0  0  0  0  0  0  0  0  0
   10.6848  -17.6965   25.1700 C   0  0  1  0  0  0  0  0  0  0  0  0
   10.8520  -19.0825   25.6993 C   0  0  0  0  0  0  0  0  0  0  0  0
    9.6203  -16.9859   25.9751 C   0  0  2  0  0  0  0  0  0  0  0  0
    9.4390  -15.6179   25.5565 N   0  0  0  0  0  0  0  0  0  0  0  0
    9.9353  -17.0148   27.4263 C   0  0  0  0  0  0  0  0  0  0  0  0
    9.9654  -18.2105   28.1359 O   0  0  0  0  0  0  0  0  0  0  0  0
   10.1913  -15.9696   28.0947 O   0  0  0  0  0  0  0  0  0  0  0  0
  2  1  1  0
  3  2  2  0
  4  2  1  0
  5  4  1  0
  6  5  1  0
  6  7  1  1
  8 15  1  0
  8  6  1  0
  9  8  2  0
 10 11  1  0
 11 13  1  0
 12 11  2  0
 14 13  1  1
 14 15  1  0
 16 14  1  0
 17 16  2  0
 19 18  1  1
 19 21  1  0
 19 20  1  0
 21 23  1  0
 21 22  1  6
 22 16  1  0
 23 24  1  0
 25 23  2  0
M  END
$$$$
