QNV.pdb
     RDKit          3D

 25 24  0  0  1  0  0  0  0  0999 V2000
   14.9908  -13.7676   19.5735 N   0  0  0  0  0  0  0  0  0  0  0  0
   14.3757  -14.3913   18.4566 C   0  0  0  0  0  0  0  0  0  0  0  0
   14.9765  -14.4250   17.3593 O   0  0  0  0  0  0  0  0  0  0  0  0
   13.0459  -14.9822   18.6201 C   0  0  0  0  0  0  0  0  0  0  0  0
   12.6155  -15.0557   20.0695 C   0  0  0  0  0  0  0  0  0  0  0  0
   11.6656  -16.2216   20.2881 C   0  0  2  0  0  0  0  0  0  0  0  0
   11.2851  -16.6984   18.9724 N   0  0  0  0  0  0  0  0  0  0  0  0
   10.4700  -15.8395   21.0385 C   0  0  0  0  0  0  0  0  0  0  0  0
    9.9483  -14.6848   20.8618 O   0  0  0  0  0  0  0  0  0  0  0  0
    8.0028  -19.5068   21.5330 N   0  0  0  0  0  0  0  0  0  0  0  0
    7.3412  -18.3388   21.9599 C   0  0  0  0  0  0  0  0  0  0  0  0
    6.2977  -17.9783   21.3875 O   0  0  0  0  0  0  0  0  0  0  0  0
    7.8800  -17.5475   23.0773 C   0  0  0  0  0  0  0  0  0  0  0  0
    8.5737  -16.2796   22.6472 C   0  0  2  0  0  0  0  0  0  0  0  0
    9.8046  -16.6595   21.9830 N   0  0  0  0  0  0  0  0  0  0  0  0
    8.8408  -15.4910   23.8797 C   0  0  0  0  0  0  0  0  0  0  0  0
    9.9395  -15.6622   24.4548 O   0  0  0  0  0  0  0  0  0  0  0  0
    6.0010  -12.8810   25.8958 C   0  0  0  0  0  0  0  0  0  0  0  0
    7.4774  -12.5974   25.8320 C   0  0  1  0  0  0  0  0  0  0  0  0
    8.0003  -11.8515   27.0148 C   0  0  0  0  0  0  0  0  0  0  0  0
    8.3029  -13.8486   25.6334 C   0  0  2  0  0  0  0  0  0  0  0  0
    7.9329  -14.5648   24.4376 N   0  0  0  0  0  0  0  0  0  0  0  0
    8.1899  -14.7582   26.8019 C   0  0  0  0  0  0  0  0  0  0  0  0
    7.4646  -15.9426   26.7286 O   0  0  0  0  0  0  0  0  0  0  0  0
    8.7378  -14.5148   27.9178 O   0  0  0  0  0  0  0  0  0  0  0  0
  2  1  1  0
  3  2  2  0
  4  2  1  0
  5  4  1  0
  6  5  1  0
  6  7  1  6
  8 15  1  0
  8  6  1  0
  9  8  2  0
 10 11  1  0
 11 13  1  0
 12 11  2  0
 14 13  1  1
 14 15  1  0
 16 14  1  0
 17 16  2  0
 19 18  1  1
 19 21  1  0
 19 20  1  0
 21 23  1  0
 21 22  1  6
 22 16  1  0
 23 24  1  0
 25 23  2  0
M  END
$$$$
