QNV.pdb
     RDKit          3D

 25 24  0  0  1  0  0  0  0  0999 V2000
    7.2433  -15.1742   16.2544 N   0  0  0  0  0  0  0  0  0  0  0  0
    8.3403  -14.2953   16.4513 C   0  0  0  0  0  0  0  0  0  0  0  0
    9.4080  -14.4906   15.8284 O   0  0  0  0  0  0  0  0  0  0  0  0
    8.1916  -13.1765   17.3843 C   0  0  0  0  0  0  0  0  0  0  0  0
    7.4808  -13.5731   18.6605 C   0  0  0  0  0  0  0  0  0  0  0  0
    8.4818  -13.8216   19.7766 C   0  0  2  0  0  0  0  0  0  0  0  0
    9.3324  -14.9102   19.3354 N   0  0  0  0  0  0  0  0  0  0  0  0
    7.8380  -14.1801   21.0396 C   0  0  0  0  0  0  0  0  0  0  0  0
    7.0636  -13.3435   21.6205 O   0  0  0  0  0  0  0  0  0  0  0  0
    7.2584  -18.9043   24.9732 N   0  0  0  0  0  0  0  0  0  0  0  0
    6.7691  -17.7347   24.3591 C   0  0  0  0  0  0  0  0  0  0  0  0
    5.8262  -17.1140   24.8807 O   0  0  0  0  0  0  0  0  0  0  0  0
    7.3690  -17.2480   23.1069 C   0  0  0  0  0  0  0  0  0  0  0  0
    7.3163  -15.7493   22.9483 C   0  0  2  0  0  0  0  0  0  0  0  0
    7.9953  -15.4173   21.7116 N   0  0  0  0  0  0  0  0  0  0  0  0
    8.0112  -15.1632   24.1255 C   0  0  0  0  0  0  0  0  0  0  0  0
    9.2584  -15.2603   24.1744 O   0  0  0  0  0  0  0  0  0  0  0  0
    7.5807  -11.5066   25.6011 C   0  0  0  0  0  0  0  0  0  0  0  0
    7.5371  -12.5623   26.6726 C   0  0  1  0  0  0  0  0  0  0  0  0
    6.1704  -12.8108   27.2197 C   0  0  0  0  0  0  0  0  0  0  0  0
    8.1341  -13.8760   26.2208 C   0  0  2  0  0  0  0  0  0  0  0  0
    7.3511  -14.5066   25.1869 N   0  0  0  0  0  0  0  0  0  0  0  0
    8.2869  -14.8168   27.3598 C   0  0  0  0  0  0  0  0  0  0  0  0
    9.1008  -14.5114   28.4454 O   0  0  0  0  0  0  0  0  0  0  0  0
    7.6953  -15.9357   27.4109 O   0  0  0  0  0  0  0  0  0  0  0  0
  2  1  1  0
  3  2  2  0
  4  2  1  0
  5  4  1  0
  6  5  1  0
  6  7  1  6
  8 15  1  0
  8  6  1  0
  9  8  2  0
 10 11  1  0
 11 13  1  0
 12 11  2  0
 14 13  1  1
 14 15  1  0
 16 14  1  0
 17 16  2  0
 19 18  1  6
 19 21  1  0
 19 20  1  0
 21 23  1  0
 21 22  1  6
 22 16  1  0
 23 24  1  0
 25 23  2  0
M  END
$$$$
