QNV.pdb
     RDKit          3D

 25 24  0  0  1  0  0  0  0  0999 V2000
    6.7038  -14.8990   16.0023 N   0  0  0  0  0  0  0  0  0  0  0  0
    8.0901  -14.6988   15.7725 C   0  0  0  0  0  0  0  0  0  0  0  0
    8.5178  -14.6273   14.5985 O   0  0  0  0  0  0  0  0  0  0  0  0
    8.9879  -14.5805   16.9232 C   0  0  0  0  0  0  0  0  0  0  0  0
    8.2462  -14.5780   18.2427 C   0  0  0  0  0  0  0  0  0  0  0  0
    9.2184  -14.4522   19.4039 C   0  0  2  0  0  0  0  0  0  0  0  0
   10.3238  -15.3463   19.1175 N   0  0  0  0  0  0  0  0  0  0  0  0
    8.6130  -14.8121   20.6855 C   0  0  0  0  0  0  0  0  0  0  0  0
    7.5274  -14.2472   21.0587 O   0  0  0  0  0  0  0  0  0  0  0  0
    9.4358  -19.4457   21.6245 N   0  0  0  0  0  0  0  0  0  0  0  0
    8.5134  -18.6378   22.3178 C   0  0  0  0  0  0  0  0  0  0  0  0
    7.2945  -18.8544   22.1990 O   0  0  0  0  0  0  0  0  0  0  0  0
    8.9869  -17.5427   23.1788 C   0  0  0  0  0  0  0  0  0  0  0  0
    8.4449  -16.1887   22.7960 C   0  0  2  0  0  0  0  0  0  0  0  0
    9.1345  -15.7668   21.5930 N   0  0  0  0  0  0  0  0  0  0  0  0
    8.7234  -15.2718   23.9335 C   0  0  0  0  0  0  0  0  0  0  0  0
    9.9091  -15.1670   24.3211 O   0  0  0  0  0  0  0  0  0  0  0  0
    5.7608  -13.1462   26.3706 C   0  0  0  0  0  0  0  0  0  0  0  0
    7.0905  -12.5756   25.9576 C   0  0  1  0  0  0  0  0  0  0  0  0
    7.6543  -11.5936   26.9305 C   0  0  0  0  0  0  0  0  0  0  0  0
    8.1231  -13.6453   25.6817 C   0  0  2  0  0  0  0  0  0  0  0  0
    7.7344  -14.5157   24.5996 N   0  0  0  0  0  0  0  0  0  0  0  0
    8.3882  -14.4616   26.8938 C   0  0  0  0  0  0  0  0  0  0  0  0
    9.2037  -13.9917   27.9177 O   0  0  0  0  0  0  0  0  0  0  0  0
    7.8961  -15.6161   27.0658 O   0  0  0  0  0  0  0  0  0  0  0  0
  2  1  1  0
  3  2  2  0
  4  2  1  0
  5  4  1  0
  6  5  1  0
  6  7  1  6
  8 15  1  0
  8  6  1  0
  9  8  2  0
 10 11  1  0
 11 13  1  0
 12 11  2  0
 14 13  1  1
 14 15  1  0
 16 14  1  0
 17 16  2  0
 19 18  1  1
 19 21  1  0
 19 20  1  0
 21 23  1  0
 21 22  1  6
 22 16  1  0
 23 24  1  0
 25 23  2  0
M  END
$$$$
