QNV.pdb
     RDKit          3D

 25 24  0  0  1  0  0  0  0  0999 V2000
   13.0103  -19.8022   24.1296 N   0  0  0  0  0  0  0  0  0  0  0  0
   13.3549  -20.0182   22.7696 C   0  0  0  0  0  0  0  0  0  0  0  0
   14.0768  -20.9932   22.4626 O   0  0  0  0  0  0  0  0  0  0  0  0
   12.8527  -19.0879   21.7564 C   0  0  0  0  0  0  0  0  0  0  0  0
   11.9628  -18.0129   22.3428 C   0  0  0  0  0  0  0  0  0  0  0  0
   11.3397  -17.1727   21.2406 C   0  0  2  0  0  0  0  0  0  0  0  0
   12.4259  -16.7488   20.3784 N   0  0  0  0  0  0  0  0  0  0  0  0
   10.6348  -16.0004   21.7577 C   0  0  0  0  0  0  0  0  0  0  0  0
   11.2984  -14.9804   22.1529 O   0  0  0  0  0  0  0  0  0  0  0  0
    7.7192  -12.9399   19.8666 N   0  0  0  0  0  0  0  0  0  0  0  0
    7.3591  -14.2419   20.2659 C   0  0  0  0  0  0  0  0  0  0  0  0
    7.1425  -15.1121   19.4043 O   0  0  0  0  0  0  0  0  0  0  0  0
    7.2392  -14.5730   21.6944 C   0  0  0  0  0  0  0  0  0  0  0  0
    8.5640  -14.7066   22.4022 C   0  0  2  0  0  0  0  0  0  0  0  0
    9.2277  -15.8793   21.8683 N   0  0  0  0  0  0  0  0  0  0  0  0
    8.2685  -14.8606   23.8517 C   0  0  0  0  0  0  0  0  0  0  0  0
    8.4026  -15.9984   24.3565 O   0  0  0  0  0  0  0  0  0  0  0  0
    8.1093  -11.7753   26.8877 C   0  0  0  0  0  0  0  0  0  0  0  0
    7.0608  -12.8518   26.8094 C   0  0  1  0  0  0  0  0  0  0  0  0
    5.7717  -12.3963   26.2096 C   0  0  0  0  0  0  0  0  0  0  0  0
    7.5415  -14.0807   26.0711 C   0  0  2  0  0  0  0  0  0  0  0  0
    7.8476  -13.8046   24.6891 N   0  0  0  0  0  0  0  0  0  0  0  0
    6.5398  -15.1752   26.1400 C   0  0  0  0  0  0  0  0  0  0  0  0
    6.2749  -15.8386   27.3333 O   0  0  0  0  0  0  0  0  0  0  0  0
    5.8771  -15.5645   25.1331 O   0  0  0  0  0  0  0  0  0  0  0  0
  2  1  1  0
  3  2  2  0
  4  2  1  0
  5  4  1  0
  6  5  1  0
  6  7  1  6
  8 15  1  0
  8  6  1  0
  9  8  2  0
 10 11  1  0
 11 13  1  0
 12 11  2  0
 14 13  1  6
 14 15  1  0
 16 14  1  0
 17 16  2  0
 19 18  1  6
 19 21  1  0
 19 20  1  0
 21 23  1  0
 21 22  1  6
 22 16  1  0
 23 24  1  0
 25 23  2  0
M  END
$$$$
