QNV.pdb
     RDKit          3D

 25 24  0  0  1  0  0  0  0  0999 V2000
    4.1223  -19.5904   19.2983 N   0  0  0  0  0  0  0  0  0  0  0  0
    5.2977  -19.3311   18.5460 C   0  0  0  0  0  0  0  0  0  0  0  0
    5.4883  -19.9386   17.4686 O   0  0  0  0  0  0  0  0  0  0  0  0
    6.2616  -18.3531   19.0547 C   0  0  0  0  0  0  0  0  0  0  0  0
    5.7643  -17.6335   20.2901 C   0  0  0  0  0  0  0  0  0  0  0  0
    6.7803  -16.6042   20.7563 C   0  0  2  0  0  0  0  0  0  0  0  0
    8.0068  -16.8746   20.0312 N   0  0  0  0  0  0  0  0  0  0  0  0
    7.0328  -16.6753   22.1950 C   0  0  0  0  0  0  0  0  0  0  0  0
    6.0664  -16.5255   23.0200 O   0  0  0  0  0  0  0  0  0  0  0  0
   11.3743  -17.8643   26.3694 N   0  0  0  0  0  0  0  0  0  0  0  0
   10.0496  -17.9661   25.9012 C   0  0  0  0  0  0  0  0  0  0  0  0
    9.1328  -18.2263   26.7001 O   0  0  0  0  0  0  0  0  0  0  0  0
    9.7497  -17.7660   24.4748 C   0  0  0  0  0  0  0  0  0  0  0  0
    8.5162  -16.9363   24.2221 C   0  0  2  0  0  0  0  0  0  0  0  0
    8.2982  -16.9037   22.7896 N   0  0  0  0  0  0  0  0  0  0  0  0
    8.7883  -15.5776   24.7627 C   0  0  0  0  0  0  0  0  0  0  0  0
    9.9532  -15.1311   24.6585 O   0  0  0  0  0  0  0  0  0  0  0  0
    6.7252  -12.1242   24.6257 C   0  0  0  0  0  0  0  0  0  0  0  0
    7.1510  -12.4900   26.0219 C   0  0  1  0  0  0  0  0  0  0  0  0
    6.0253  -12.9213   26.9026 C   0  0  0  0  0  0  0  0  0  0  0  0
    8.2285  -13.5506   26.0434 C   0  0  2  0  0  0  0  0  0  0  0  0
    7.8153  -14.7647   25.3839 N   0  0  0  0  0  0  0  0  0  0  0  0
    8.6433  -13.8672   27.4339 C   0  0  0  0  0  0  0  0  0  0  0  0
    9.2894  -12.9256   28.2277 O   0  0  0  0  0  0  0  0  0  0  0  0
    8.4372  -14.9951   27.9725 O   0  0  0  0  0  0  0  0  0  0  0  0
  2  1  1  0
  3  2  2  0
  4  2  1  0
  5  4  1  0
  6  5  1  0
  6  7  1  6
  8 15  1  0
  8  6  1  0
  9  8  2  0
 10 11  1  0
 11 13  1  0
 12 11  2  0
 14 13  1  6
 14 15  1  0
 16 14  1  0
 17 16  2  0
 19 18  1  6
 19 21  1  0
 19 20  1  0
 21 23  1  0
 21 22  1  1
 22 16  1  0
 23 24  1  0
 25 23  2  0
M  END
$$$$
