QNV.pdb
     RDKit          3D

 25 24  0  0  1  0  0  0  0  0999 V2000
    8.3785  -14.1879   15.7711 N   0  0  0  0  0  0  0  0  0  0  0  0
    8.0039  -14.9558   16.9045 C   0  0  0  0  0  0  0  0  0  0  0  0
    8.3688  -16.1499   16.9898 O   0  0  0  0  0  0  0  0  0  0  0  0
    7.1953  -14.3255   17.9500 C   0  0  0  0  0  0  0  0  0  0  0  0
    7.8450  -13.0822   18.5186 C   0  0  0  0  0  0  0  0  0  0  0  0
    8.8404  -13.4475   19.6072 C   0  0  2  0  0  0  0  0  0  0  0  0
    9.6832  -14.4950   19.0634 N   0  0  0  0  0  0  0  0  0  0  0  0
    8.1896  -13.9225   20.8275 C   0  0  0  0  0  0  0  0  0  0  0  0
    7.3582  -13.1684   21.4417 O   0  0  0  0  0  0  0  0  0  0  0  0
    5.9583  -18.2372   23.8451 N   0  0  0  0  0  0  0  0  0  0  0  0
    7.2864  -17.7684   23.8695 C   0  0  0  0  0  0  0  0  0  0  0  0
    7.9574  -17.8743   24.9112 O   0  0  0  0  0  0  0  0  0  0  0  0
    7.8791  -17.1563   22.6700 C   0  0  0  0  0  0  0  0  0  0  0  0
    7.6644  -15.6667   22.5767 C   0  0  2  0  0  0  0  0  0  0  0  0
    8.3994  -15.1915   21.4215 N   0  0  0  0  0  0  0  0  0  0  0  0
    8.1864  -15.0729   23.8365 C   0  0  0  0  0  0  0  0  0  0  0  0
    9.4262  -14.9400   23.9486 O   0  0  0  0  0  0  0  0  0  0  0  0
    5.6080  -12.9859   26.5520 C   0  0  0  0  0  0  0  0  0  0  0  0
    6.9929  -12.5637   26.1420 C   0  0  1  0  0  0  0  0  0  0  0  0
    7.6507  -11.6334   27.1068 C   0  0  0  0  0  0  0  0  0  0  0  0
    7.9091  -13.7395   25.8877 C   0  0  2  0  0  0  0  0  0  0  0  0
    7.3706  -14.6517   24.9091 N   0  0  0  0  0  0  0  0  0  0  0  0
    8.1925  -14.4813   27.1428 C   0  0  0  0  0  0  0  0  0  0  0  0
    7.8195  -15.8123   27.2958 O   0  0  0  0  0  0  0  0  0  0  0  0
    8.7812  -13.9556   28.1336 O   0  0  0  0  0  0  0  0  0  0  0  0
  2  1  1  0
  3  2  2  0
  4  2  1  0
  5  4  1  0
  6  5  1  0
  6  7  1  6
  8 15  1  0
  8  6  1  0
  9  8  2  0
 10 11  1  0
 11 13  1  0
 12 11  2  0
 14 13  1  1
 14 15  1  0
 16 14  1  0
 17 16  2  0
 19 18  1  1
 19 21  1  0
 19 20  1  0
 21 23  1  0
 21 22  1  6
 22 16  1  0
 23 24  1  0
 25 23  2  0
M  END
$$$$
