QNV.pdb
     RDKit          3D

 25 24  0  0  1  0  0  0  0  0999 V2000
    8.4336  -12.6111   16.6559 N   0  0  0  0  0  0  0  0  0  0  0  0
    8.2877  -13.9957   16.3795 C   0  0  0  0  0  0  0  0  0  0  0  0
    8.4469  -14.4124   15.2102 O   0  0  0  0  0  0  0  0  0  0  0  0
    7.9528  -14.9047   17.4776 C   0  0  0  0  0  0  0  0  0  0  0  0
    7.6872  -14.1752   18.7770 C   0  0  0  0  0  0  0  0  0  0  0  0
    8.5756  -14.7144   19.8858 C   0  0  2  0  0  0  0  0  0  0  0  0
    9.1667  -15.9399   19.3840 N   0  0  0  0  0  0  0  0  0  0  0  0
    7.8341  -14.9925   21.1151 C   0  0  0  0  0  0  0  0  0  0  0  0
    7.0736  -14.0948   21.6179 O   0  0  0  0  0  0  0  0  0  0  0  0
    7.5207  -19.1529   25.5982 N   0  0  0  0  0  0  0  0  0  0  0  0
    6.8410  -18.2132   24.7988 C   0  0  0  0  0  0  0  0  0  0  0  0
    5.8103  -17.6681   25.2313 O   0  0  0  0  0  0  0  0  0  0  0  0
    7.3458  -17.8765   23.4584 C   0  0  0  0  0  0  0  0  0  0  0  0
    7.2146  -16.4160   23.1069 C   0  0  2  0  0  0  0  0  0  0  0  0
    7.8779  -16.2121   21.8345 N   0  0  0  0  0  0  0  0  0  0  0  0
    7.8749  -15.6463   24.1950 C   0  0  0  0  0  0  0  0  0  0  0  0
    9.1218  -15.7146   24.2836 O   0  0  0  0  0  0  0  0  0  0  0  0
    5.8222  -12.8238   26.7269 C   0  0  0  0  0  0  0  0  0  0  0  0
    7.2368  -12.6592   26.2410 C   0  0  1  0  0  0  0  0  0  0  0  0
    8.0860  -11.8132   27.1310 C   0  0  0  0  0  0  0  0  0  0  0  0
    7.9309  -13.9823   26.0088 C   0  0  2  0  0  0  0  0  0  0  0  0
    7.1824  -14.8466   25.1300 N   0  0  0  0  0  0  0  0  0  0  0  0
    8.1829  -14.6892   27.2905 C   0  0  0  0  0  0  0  0  0  0  0  0
    9.0818  -14.1898   28.2269 O   0  0  0  0  0  0  0  0  0  0  0  0
    7.6043  -15.7717   27.6035 O   0  0  0  0  0  0  0  0  0  0  0  0
  2  1  1  0
  3  2  2  0
  4  2  1  0
  5  4  1  0
  6  5  1  0
  6  7  1  6
  8 15  1  0
  8  6  1  0
  9  8  2  0
 10 11  1  0
 11 13  1  0
 12 11  2  0
 14 13  1  1
 14 15  1  0
 16 14  1  0
 17 16  2  0
 19 18  1  1
 19 21  1  0
 19 20  1  0
 21 23  1  0
 21 22  1  6
 22 16  1  0
 23 24  1  0
 25 23  2  0
M  END
$$$$
