QNV.pdb
     RDKit          3D

 25 24  0  0  1  0  0  0  0  0999 V2000
    9.4566  -12.9288   19.0070 N   0  0  0  0  0  0  0  0  0  0  0  0
    8.1056  -13.2786   18.7480 C   0  0  0  0  0  0  0  0  0  0  0  0
    7.3646  -12.4740   18.1399 O   0  0  0  0  0  0  0  0  0  0  0  0
    7.6124  -14.5803   19.2028 C   0  0  0  0  0  0  0  0  0  0  0  0
    8.6615  -15.3697   19.9560 C   0  0  0  0  0  0  0  0  0  0  0  0
    8.0903  -16.6906   20.4443 C   0  0  2  0  0  0  0  0  0  0  0  0
    7.0516  -17.0656   19.5044 N   0  0  0  0  0  0  0  0  0  0  0  0
    7.5262  -16.5958   21.7902 C   0  0  0  0  0  0  0  0  0  0  0  0
    6.3798  -16.0552   21.9643 O   0  0  0  0  0  0  0  0  0  0  0  0
    5.5601  -18.6932   23.3893 N   0  0  0  0  0  0  0  0  0  0  0  0
    6.4112  -19.1694   24.4057 C   0  0  0  0  0  0  0  0  0  0  0  0
    6.2147  -20.2954   24.8957 O   0  0  0  0  0  0  0  0  0  0  0  0
    7.5277  -18.3408   24.8869 C   0  0  0  0  0  0  0  0  0  0  0  0
    7.5610  -16.9568   24.2894 C   0  0  2  0  0  0  0  0  0  0  0  0
    8.1531  -17.0649   22.9709 N   0  0  0  0  0  0  0  0  0  0  0  0
    8.3906  -16.1140   25.1915 C   0  0  0  0  0  0  0  0  0  0  0  0
    9.6348  -16.2320   25.1191 O   0  0  0  0  0  0  0  0  0  0  0  0
    6.6899  -13.2922   27.8086 C   0  0  0  0  0  0  0  0  0  0  0  0
    8.1147  -13.0938   27.3671 C   0  0  1  0  0  0  0  0  0  0  0  0
    8.9846  -12.4606   28.4021 C   0  0  0  0  0  0  0  0  0  0  0  0
    8.7625  -14.3760   26.8954 C   0  0  2  0  0  0  0  0  0  0  0  0
    7.8608  -15.1925   26.1209 N   0  0  0  0  0  0  0  0  0  0  0  0
    9.2791  -15.1696   28.0396 C   0  0  0  0  0  0  0  0  0  0  0  0
    8.7658  -16.4274   28.3373 O   0  0  0  0  0  0  0  0  0  0  0  0
   10.2031  -14.7562   28.8011 O   0  0  0  0  0  0  0  0  0  0  0  0
  2  1  1  0
  3  2  2  0
  4  2  1  0
  5  4  1  0
  6  5  1  0
  6  7  1  6
  8 15  1  0
  8  6  1  0
  9  8  2  0
 10 11  1  0
 11 13  1  0
 12 11  2  0
 14 13  1  1
 14 15  1  0
 16 14  1  0
 17 16  2  0
 19 18  1  1
 19 21  1  0
 19 20  1  0
 21 23  1  0
 21 22  1  1
 22 16  1  0
 23 24  1  0
 25 23  2  0
M  END
$$$$
