EPM.pdb
     RDKit          3D

 25 25  0  0  1  0  0  0  0  0999 V2000
   14.7755  -22.6329    4.6488 N   0  0  0  0  0  0  0  0  0  0  0  0
   16.1686  -22.3356    4.6117 C   0  0  1  0  0  0  0  0  0  0  0  0
   16.2963  -20.8462    4.4470 C   0  0  0  0  0  0  0  0  0  0  0  0
   15.6322  -20.2660    3.2414 C   0  0  0  0  0  0  0  0  0  0  0  0
   15.8107  -18.8029    3.1296 C   0  0  0  0  0  0  0  0  0  0  0  0
   15.2065  -18.0915    2.3029 O   0  0  0  0  0  0  0  0  0  0  0  0
   16.9860  -22.7963    5.7351 C   0  0  0  0  0  0  0  0  0  0  0  0
   16.3700  -22.7813    6.8719 O   0  0  0  0  0  0  0  0  0  0  0  0
   16.7004  -18.1164    3.9778 O   0  0  0  0  0  0  0  0  0  0  0  0
   18.3177  -23.2361    5.7117 N   0  0  0  0  0  0  0  0  0  0  0  0
   18.8763  -24.2402    4.7680 C   0  0  0  0  0  0  0  0  0  0  0  0
   19.9636  -23.3570    4.1505 C   0  0  0  0  0  0  0  0  0  0  0  0
   20.4431  -22.5170    5.3440 C   0  0  0  0  0  0  0  0  0  0  0  0
   19.5004  -22.9642    6.4752 C   0  0  1  0  0  0  0  0  0  0  0  0
   19.4791  -22.0373    7.5725 C   0  0  0  0  0  0  0  0  0  0  0  0
   18.9539  -20.9005    7.6634 O   0  0  0  0  0  0  0  0  0  0  0  0
   21.7150  -21.2829   15.1517 C   0  0  0  0  0  0  0  0  0  0  0  0
   21.5303  -22.3758   13.7437 S   0  0  0  0  0  0  0  0  0  0  0  0
   20.9262  -21.3915   12.3119 C   0  0  0  0  0  0  0  0  0  0  0  0
   20.8359  -22.2749   11.1045 C   0  0  0  0  0  0  0  0  0  0  0  0
   20.3252  -21.5486    9.9209 C   0  0  2  0  0  0  0  0  0  0  0  0
   20.1568  -22.4399    8.7757 N   0  0  0  0  0  0  0  0  0  0  0  0
   21.1790  -20.4070    9.5582 C   0  0  0  0  0  0  0  0  0  0  0  0
   22.3021  -20.6090    8.7146 O   0  0  0  0  0  0  0  0  0  0  0  0
   21.0254  -19.2225    9.9225 O   0  0  0  0  0  0  0  0  0  0  0  0
  2  1  1  1
  2  7  1  0
  3  2  1  0
  4  3  1  0
  5  4  1  0
  6  5  2  0
  7  8  2  0
  7 10  1  0
  9  5  1  0
 10 14  1  0
 11 10  1  0
 11 12  1  0
 12 13  1  0
 14 15  1  1
 14 13  1  0
 15 16  2  0
 18 17  1  0
 19 18  1  0
 20 19  1  0
 21 20  1  1
 22 21  1  0
 22 15  1  0
 23 24  1  0
 23 21  1  0
 25 23  2  0
M  END
$$$$
