EPM.pdb
     RDKit          3D

 25 25  0  0  1  0  0  0  0  0999 V2000
   23.6485  -21.6491  -14.4894 N   0  0  0  0  0  0  0  0  0  0  0  0
   23.0270  -20.8993  -13.4491 C   0  0  1  0  0  0  0  0  0  0  0  0
   22.2316  -19.8069  -14.1092 C   0  0  0  0  0  0  0  0  0  0  0  0
   20.7487  -19.9863  -14.1007 C   0  0  0  0  0  0  0  0  0  0  0  0
   20.0102  -18.7060  -14.1234 C   0  0  0  0  0  0  0  0  0  0  0  0
   19.1676  -18.3759  -13.2657 O   0  0  0  0  0  0  0  0  0  0  0  0
   22.1928  -21.6328  -12.4960 C   0  0  0  0  0  0  0  0  0  0  0  0
   21.3293  -22.4183  -13.0518 O   0  0  0  0  0  0  0  0  0  0  0  0
   20.2276  -17.7642  -15.1471 O   0  0  0  0  0  0  0  0  0  0  0  0
   22.2283  -21.5767  -11.0949 N   0  0  0  0  0  0  0  0  0  0  0  0
   23.3879  -21.1266  -10.2803 C   0  0  0  0  0  0  0  0  0  0  0  0
   22.6868  -19.9834   -9.5417 C   0  0  0  0  0  0  0  0  0  0  0  0
   21.2731  -20.5388   -9.3116 C   0  0  0  0  0  0  0  0  0  0  0  0
   21.3198  -21.8973  -10.0331 C   0  0  1  0  0  0  0  0  0  0  0  0
   20.0101  -22.4193  -10.3086 C   0  0  0  0  0  0  0  0  0  0  0  0
   19.0251  -21.8819  -10.8720 O   0  0  0  0  0  0  0  0  0  0  0  0
   19.2166  -28.7680  -10.5361 C   0  0  0  0  0  0  0  0  0  0  0  0
   17.4991  -28.3982  -10.1834 S   0  0  0  0  0  0  0  0  0  0  0  0
   17.2620  -26.5758  -10.2668 C   0  0  0  0  0  0  0  0  0  0  0  0
   18.5659  -25.8919   -9.9866 C   0  0  0  0  0  0  0  0  0  0  0  0
   18.4549  -24.4200  -10.0883 C   0  0  2  0  0  0  0  0  0  0  0  0
   19.7473  -23.7692   -9.8868 N   0  0  0  0  0  0  0  0  0  0  0  0
   17.4566  -23.8722   -9.1571 C   0  0  0  0  0  0  0  0  0  0  0  0
   17.8466  -23.5090   -7.8419 O   0  0  0  0  0  0  0  0  0  0  0  0
   16.2467  -23.6791   -9.3985 O   0  0  0  0  0  0  0  0  0  0  0  0
  2  1  1  6
  2  7  1  0
  3  2  1  0
  4  3  1  0
  5  4  1  0
  6  5  2  0
  7  8  2  0
  7 10  1  0
  9  5  1  0
 10 14  1  0
 11 10  1  0
 11 12  1  0
 12 13  1  0
 14 15  1  6
 14 13  1  0
 15 16  2  0
 18 17  1  0
 19 18  1  0
 20 19  1  0
 21 20  1  1
 22 21  1  0
 22 15  1  0
 23 24  1  0
 23 21  1  0
 25 23  2  0
M  END
$$$$
