EPM.pdb
     RDKit          3D

 25 25  0  0  1  0  0  0  0  0999 V2000
   18.8596  -11.7594  -19.1571 N   0  0  0  0  0  0  0  0  0  0  0  0
   19.7931  -11.4663  -18.1211 C   0  0  1  0  0  0  0  0  0  0  0  0
   21.1677  -11.6497  -18.7029 C   0  0  0  0  0  0  0  0  0  0  0  0
   21.7934  -12.9882  -18.4835 C   0  0  0  0  0  0  0  0  0  0  0  0
   23.1288  -13.1122  -19.1051 C   0  0  0  0  0  0  0  0  0  0  0  0
   24.1910  -12.7906  -18.5369 O   0  0  0  0  0  0  0  0  0  0  0  0
   19.6862  -10.1612  -17.4672 C   0  0  0  0  0  0  0  0  0  0  0  0
   20.1648   -9.1843  -18.1661 O   0  0  0  0  0  0  0  0  0  0  0  0
   23.2739  -13.6158  -20.4119 O   0  0  0  0  0  0  0  0  0  0  0  0
   19.1401   -9.8672  -16.2092 N   0  0  0  0  0  0  0  0  0  0  0  0
   17.7905  -10.2777  -15.7390 C   0  0  0  0  0  0  0  0  0  0  0  0
   18.2359  -11.0697  -14.5070 C   0  0  0  0  0  0  0  0  0  0  0  0
   19.4299  -10.2546  -13.9875 C   0  0  0  0  0  0  0  0  0  0  0  0
   19.5726   -9.1476  -15.0469 C   0  0  1  0  0  0  0  0  0  0  0  0
   20.8585   -8.5085  -15.0051 C   0  0  0  0  0  0  0  0  0  0  0  0
   21.9782   -8.9128  -15.4042 O   0  0  0  0  0  0  0  0  0  0  0  0
   25.6907   -4.0715  -17.8567 C   0  0  0  0  0  0  0  0  0  0  0  0
   24.1452   -4.9741  -17.7671 S   0  0  0  0  0  0  0  0  0  0  0  0
   23.7259   -5.2457  -15.9966 C   0  0  0  0  0  0  0  0  0  0  0  0
   22.4992   -6.1016  -15.9023 C   0  0  0  0  0  0  0  0  0  0  0  0
   22.0979   -6.3457  -14.4992 C   0  0  2  0  0  0  0  0  0  0  0  0
   20.9121   -7.1954  -14.4202 N   0  0  0  0  0  0  0  0  0  0  0  0
   21.8795   -5.0941  -13.7579 C   0  0  0  0  0  0  0  0  0  0  0  0
   22.9398   -4.5306  -13.0016 O   0  0  0  0  0  0  0  0  0  0  0  0
   20.8192   -4.4359  -13.7127 O   0  0  0  0  0  0  0  0  0  0  0  0
  2  1  1  6
  2  7  1  0
  3  2  1  0
  4  3  1  0
  5  4  1  0
  6  5  2  0
  7  8  2  0
  7 10  1  0
  9  5  1  0
 10 14  1  0
 11 10  1  0
 11 12  1  0
 12 13  1  0
 14 15  1  6
 14 13  1  0
 15 16  2  0
 18 17  1  0
 19 18  1  0
 20 19  1  0
 21 20  1  6
 22 21  1  0
 22 15  1  0
 23 24  1  0
 23 21  1  0
 25 23  2  0
M  END
$$$$
