EPM.pdb
     RDKit          3D

 25 25  0  0  1  0  0  0  0  0999 V2000
   15.6390  -24.1163    1.8317 N   0  0  0  0  0  0  0  0  0  0  0  0
   15.5543  -22.6943    1.8662 C   0  0  1  0  0  0  0  0  0  0  0  0
   14.1181  -22.3326    1.6049 C   0  0  0  0  0  0  0  0  0  0  0  0
   13.5884  -22.7047    0.2587 C   0  0  0  0  0  0  0  0  0  0  0  0
   12.2028  -22.2420    0.0334 C   0  0  0  0  0  0  0  0  0  0  0  0
   11.9130  -21.1390   -0.4707 O   0  0  0  0  0  0  0  0  0  0  0  0
   16.0389  -22.0196    3.0713 C   0  0  0  0  0  0  0  0  0  0  0  0
   15.5099  -22.4590    4.1663 O   0  0  0  0  0  0  0  0  0  0  0  0
   11.1047  -23.0487    0.3879 O   0  0  0  0  0  0  0  0  0  0  0  0
   16.9813  -20.9847    3.1625 N   0  0  0  0  0  0  0  0  0  0  0  0
   18.2502  -20.9052    2.3915 C   0  0  0  0  0  0  0  0  0  0  0  0
   17.9852  -19.5652    1.7001 C   0  0  0  0  0  0  0  0  0  0  0  0
   17.2513  -18.7592    2.7826 C   0  0  0  0  0  0  0  0  0  0  0  0
   17.1079  -19.7783    3.9268 C   0  0  1  0  0  0  0  0  0  0  0  0
   16.1055  -19.3957    4.8820 C   0  0  0  0  0  0  0  0  0  0  0  0
   14.8646  -19.2619    4.7455 O   0  0  0  0  0  0  0  0  0  0  0  0
   12.9287  -21.9249   10.6118 C   0  0  0  0  0  0  0  0  0  0  0  0
   14.5368  -21.2253   10.2436 S   0  0  0  0  0  0  0  0  0  0  0  0
   14.3769  -20.1261    8.7773 C   0  0  0  0  0  0  0  0  0  0  0  0
   15.7117  -19.5222    8.4612 C   0  0  0  0  0  0  0  0  0  0  0  0
   15.6574  -18.6452    7.2707 C   0  0  2  0  0  0  0  0  0  0  0  0
   16.5565  -19.1127    6.2183 N   0  0  0  0  0  0  0  0  0  0  0  0
   15.9448  -17.2410    7.6013 C   0  0  0  0  0  0  0  0  0  0  0  0
   14.8759  -16.3544    7.8932 O   0  0  0  0  0  0  0  0  0  0  0  0
   17.0736  -16.7101    7.6584 O   0  0  0  0  0  0  0  0  0  0  0  0
  2  1  1  1
  2  7  1  0
  3  2  1  0
  4  3  1  0
  5  4  1  0
  6  5  2  0
  7  8  2  0
  7 10  1  0
  9  5  1  0
 10 14  1  0
 11 10  1  0
 11 12  1  0
 12 13  1  0
 14 15  1  6
 14 13  1  0
 15 16  2  0
 18 17  1  0
 19 18  1  0
 20 19  1  0
 21 20  1  1
 22 21  1  0
 22 15  1  0
 23 24  1  0
 23 21  1  0
 25 23  2  0
M  END
$$$$
