EPM.pdb
     RDKit          3D

 25 25  0  0  1  0  0  0  0  0999 V2000
   19.7450  -12.0743  -15.3046 N   0  0  0  0  0  0  0  0  0  0  0  0
   19.3939  -10.7376  -15.6516 C   0  0  1  0  0  0  0  0  0  0  0  0
   18.1931  -10.8182  -16.5535 C   0  0  0  0  0  0  0  0  0  0  0  0
   17.9337  -12.1523  -17.1732 C   0  0  0  0  0  0  0  0  0  0  0  0
   16.6448  -12.7438  -16.7563 C   0  0  0  0  0  0  0  0  0  0  0  0
   16.5401  -13.8479  -16.1865 O   0  0  0  0  0  0  0  0  0  0  0  0
   19.1462   -9.7999  -14.5553 C   0  0  0  0  0  0  0  0  0  0  0  0
   18.0670  -10.0479  -13.8877 O   0  0  0  0  0  0  0  0  0  0  0  0
   15.4310  -12.0692  -16.9887 O   0  0  0  0  0  0  0  0  0  0  0  0
   19.9256   -8.7008  -14.1656 N   0  0  0  0  0  0  0  0  0  0  0  0
   21.4090   -8.6897  -14.0646 C   0  0  0  0  0  0  0  0  0  0  0  0
   21.6722   -7.5493  -15.0515 C   0  0  0  0  0  0  0  0  0  0  0  0
   20.5000   -6.5913  -14.7902 C   0  0  0  0  0  0  0  0  0  0  0  0
   19.6628   -7.3544  -13.7486 C   0  0  1  0  0  0  0  0  0  0  0  0
   18.3190   -6.8562  -13.6507 C   0  0  0  0  0  0  0  0  0  0  0  0
   17.3738   -6.9059  -14.4757 O   0  0  0  0  0  0  0  0  0  0  0  0
   15.0962   -6.3549   -7.0868 C   0  0  0  0  0  0  0  0  0  0  0  0
   14.8202   -6.8456   -8.7880 S   0  0  0  0  0  0  0  0  0  0  0  0
   15.9698   -5.8971   -9.8664 C   0  0  0  0  0  0  0  0  0  0  0  0
   15.8249   -6.3676  -11.2820 C   0  0  0  0  0  0  0  0  0  0  0  0
   16.6521   -5.5753  -12.2187 C   0  0  2  0  0  0  0  0  0  0  0  0
   17.9618   -6.1880  -12.4280 N   0  0  0  0  0  0  0  0  0  0  0  0
   16.8054   -4.1795  -11.7807 C   0  0  0  0  0  0  0  0  0  0  0  0
   15.6853   -3.3085  -11.8028 O   0  0  0  0  0  0  0  0  0  0  0  0
   17.8563   -3.6434  -11.3714 O   0  0  0  0  0  0  0  0  0  0  0  0
  2  1  1  1
  2  7  1  0
  3  2  1  0
  4  3  1  0
  5  4  1  0
  6  5  2  0
  7  8  2  0
  7 10  1  0
  9  5  1  0
 10 14  1  0
 11 10  1  0
 11 12  1  0
 12 13  1  0
 14 15  1  6
 14 13  1  0
 15 16  2  0
 18 17  1  0
 19 18  1  0
 20 19  1  0
 21 20  1  1
 22 21  1  0
 22 15  1  0
 23 24  1  0
 23 21  1  0
 25 23  2  0
M  END
$$$$
