EPM.pdb
     RDKit          3D

 25 25  0  0  1  0  0  0  0  0999 V2000
   18.0743  -12.9747  -17.9149 N   0  0  0  0  0  0  0  0  0  0  0  0
   17.6439  -11.7540  -17.3189 C   0  0  1  0  0  0  0  0  0  0  0  0
   17.1655  -12.0862  -15.9324 C   0  0  0  0  0  0  0  0  0  0  0  0
   16.1604  -13.1871  -15.8376 C   0  0  0  0  0  0  0  0  0  0  0  0
   15.6818  -13.4173  -14.4581 C   0  0  0  0  0  0  0  0  0  0  0  0
   16.0671  -14.3597  -13.7383 O   0  0  0  0  0  0  0  0  0  0  0  0
   18.6039  -10.6499  -17.2762 C   0  0  0  0  0  0  0  0  0  0  0  0
   19.8073  -11.0134  -16.9738 O   0  0  0  0  0  0  0  0  0  0  0  0
   14.7365  -12.5568  -13.8680 O   0  0  0  0  0  0  0  0  0  0  0  0
   18.3669   -9.2889  -17.5191 N   0  0  0  0  0  0  0  0  0  0  0  0
   17.4617   -8.7461  -18.5664 C   0  0  0  0  0  0  0  0  0  0  0  0
   16.5329   -7.9538  -17.6426 C   0  0  0  0  0  0  0  0  0  0  0  0
   17.4918   -7.4180  -16.5685 C   0  0  0  0  0  0  0  0  0  0  0  0
   18.8364   -8.0522  -16.9661 C   0  0  1  0  0  0  0  0  0  0  0  0
   19.7920   -8.0336  -15.8937 C   0  0  0  0  0  0  0  0  0  0  0  0
   19.6868   -8.4304  -14.7071 O   0  0  0  0  0  0  0  0  0  0  0  0
   26.9610   -9.9628  -14.2556 C   0  0  0  0  0  0  0  0  0  0  0  0
   25.6781   -9.7182  -15.4825 S   0  0  0  0  0  0  0  0  0  0  0  0
   24.3910   -8.6116  -14.7732 C   0  0  0  0  0  0  0  0  0  0  0  0
   23.2677   -8.4635  -15.7543 C   0  0  0  0  0  0  0  0  0  0  0  0
   22.2079   -7.5602  -15.2541 C   0  0  2  0  0  0  0  0  0  0  0  0
   21.0867   -7.4799  -16.1873 N   0  0  0  0  0  0  0  0  0  0  0  0
   22.7204   -6.2143  -14.9547 C   0  0  0  0  0  0  0  0  0  0  0  0
   23.2804   -5.9429  -13.6794 O   0  0  0  0  0  0  0  0  0  0  0  0
   22.7212   -5.2336  -15.7277 O   0  0  0  0  0  0  0  0  0  0  0  0
  2  1  1  1
  2  7  1  0
  3  2  1  0
  4  3  1  0
  5  4  1  0
  6  5  2  0
  7  8  2  0
  7 10  1  0
  9  5  1  0
 10 14  1  0
 11 10  1  0
 11 12  1  0
 12 13  1  0
 14 15  1  1
 14 13  1  0
 15 16  2  0
 18 17  1  0
 19 18  1  0
 20 19  1  0
 21 20  1  6
 22 21  1  0
 22 15  1  0
 23 24  1  0
 23 21  1  0
 25 23  2  0
M  END
$$$$
