EPM.pdb
     RDKit          3D

 25 25  0  0  1  0  0  0  0  0999 V2000
   19.0517  -27.5840  -10.3813 N   0  0  0  0  0  0  0  0  0  0  0  0
   17.9673  -27.4864   -9.4620 C   0  0  1  0  0  0  0  0  0  0  0  0
   17.1401  -28.7319   -9.6237 C   0  0  0  0  0  0  0  0  0  0  0  0
   17.6419  -29.9432   -8.9083 C   0  0  0  0  0  0  0  0  0  0  0  0
   16.5821  -30.6582   -8.1662 C   0  0  0  0  0  0  0  0  0  0  0  0
   16.7942  -31.6395   -7.4269 O   0  0  0  0  0  0  0  0  0  0  0  0
   18.2966  -27.2725   -8.0519 C   0  0  0  0  0  0  0  0  0  0  0  0
   18.5013  -28.3644   -7.3904 O   0  0  0  0  0  0  0  0  0  0  0  0
   15.2365  -30.2547   -8.2594 O   0  0  0  0  0  0  0  0  0  0  0  0
   18.4097  -26.0542   -7.3662 N   0  0  0  0  0  0  0  0  0  0  0  0
   18.8822  -24.7741   -7.9570 C   0  0  0  0  0  0  0  0  0  0  0  0
   17.6316  -23.9408   -7.6653 C   0  0  0  0  0  0  0  0  0  0  0  0
   17.1768  -24.4709   -6.2970 C   0  0  0  0  0  0  0  0  0  0  0  0
   18.1766  -25.6084   -6.0236 C   0  0  1  0  0  0  0  0  0  0  0  0
   17.7145  -26.5151   -5.0097 C   0  0  0  0  0  0  0  0  0  0  0  0
   16.6773  -27.2212   -4.9651 O   0  0  0  0  0  0  0  0  0  0  0  0
   21.4271  -30.1754   -1.3540 C   0  0  0  0  0  0  0  0  0  0  0  0
   20.3843  -29.5919   -0.0186 S   0  0  0  0  0  0  0  0  0  0  0  0
   18.9047  -28.7740   -0.7438 C   0  0  0  0  0  0  0  0  0  0  0  0
   19.3016  -28.0454   -1.9920 C   0  0  0  0  0  0  0  0  0  0  0  0
   18.1367  -27.4475   -2.6811 C   0  0  2  0  0  0  0  0  0  0  0  0
   18.5453  -26.6647   -3.8450 N   0  0  0  0  0  0  0  0  0  0  0  0
   17.3166  -26.6273   -1.7764 C   0  0  0  0  0  0  0  0  0  0  0  0
   17.3190  -25.2147   -1.9117 O   0  0  0  0  0  0  0  0  0  0  0  0
   16.5821  -27.0472   -0.8580 O   0  0  0  0  0  0  0  0  0  0  0  0
  2  1  1  6
  2  7  1  0
  3  2  1  0
  4  3  1  0
  5  4  1  0
  6  5  2  0
  7  8  2  0
  7 10  1  0
  9  5  1  0
 10 14  1  0
 11 10  1  0
 11 12  1  0
 12 13  1  0
 14 15  1  1
 14 13  1  0
 15 16  2  0
 18 17  1  0
 19 18  1  0
 20 19  1  0
 21 20  1  1
 22 21  1  0
 22 15  1  0
 23 24  1  0
 23 21  1  0
 25 23  2  0
M  END
$$$$
