EPM.pdb
     RDKit          3D

 25 25  0  0  1  0  0  0  0  0999 V2000
   21.2127  -21.5933  -14.6340 N   0  0  0  0  0  0  0  0  0  0  0  0
   20.5508  -21.0353  -13.5021 C   0  0  1  0  0  0  0  0  0  0  0  0
   19.1313  -20.7587  -13.9147 C   0  0  0  0  0  0  0  0  0  0  0  0
   18.9518  -19.7126  -14.9658 C   0  0  0  0  0  0  0  0  0  0  0  0
   17.8357  -18.7873  -14.6773 C   0  0  0  0  0  0  0  0  0  0  0  0
   17.6888  -17.6822  -15.2358 O   0  0  0  0  0  0  0  0  0  0  0  0
   20.5792  -21.8054  -12.2577 C   0  0  0  0  0  0  0  0  0  0  0  0
   20.0375  -22.9756  -12.3533 O   0  0  0  0  0  0  0  0  0  0  0  0
   16.8505  -19.1171  -13.7272 O   0  0  0  0  0  0  0  0  0  0  0  0
   21.1116  -21.4239  -11.0174 N   0  0  0  0  0  0  0  0  0  0  0  0
   22.4176  -20.7429  -10.8137 C   0  0  0  0  0  0  0  0  0  0  0  0
   21.8879  -19.4937  -10.1047 C   0  0  0  0  0  0  0  0  0  0  0  0
   20.7391  -20.0461   -9.2473 C   0  0  0  0  0  0  0  0  0  0  0  0
   20.6993  -21.5313   -9.6484 C   0  0  1  0  0  0  0  0  0  0  0  0
   19.4592  -22.1639   -9.2938 C   0  0  0  0  0  0  0  0  0  0  0  0
   18.3591  -22.1876   -9.8985 O   0  0  0  0  0  0  0  0  0  0  0  0
   15.5711  -28.0783   -9.6057 C   0  0  0  0  0  0  0  0  0  0  0  0
   17.1168  -27.1816   -9.7392 S   0  0  0  0  0  0  0  0  0  0  0  0
   17.1326  -25.8474   -8.4729 C   0  0  0  0  0  0  0  0  0  0  0  0
   18.3021  -24.9429   -8.7189 C   0  0  0  0  0  0  0  0  0  0  0  0
   18.3780  -23.8493   -7.7252 C   0  0  2  0  0  0  0  0  0  0  0  0
   19.4346  -22.8961   -8.0558 N   0  0  0  0  0  0  0  0  0  0  0  0
   18.5564  -24.3544   -6.3553 C   0  0  0  0  0  0  0  0  0  0  0  0
   17.4187  -24.6119   -5.5471 O   0  0  0  0  0  0  0  0  0  0  0  0
   19.6439  -24.5955   -5.7910 O   0  0  0  0  0  0  0  0  0  0  0  0
  2  1  1  6
  2  7  1  0
  3  2  1  0
  4  3  1  0
  5  4  1  0
  6  5  2  0
  7  8  2  0
  7 10  1  0
  9  5  1  0
 10 14  1  0
 11 10  1  0
 11 12  1  0
 12 13  1  0
 14 15  1  6
 14 13  1  0
 15 16  2  0
 18 17  1  0
 19 18  1  0
 20 19  1  0
 21 20  1  6
 22 21  1  0
 22 15  1  0
 23 24  1  0
 23 21  1  0
 25 23  2  0
M  END
$$$$
