EPM.pdb
     RDKit          3D

 25 25  0  0  1  0  0  0  0  0999 V2000
   19.6547  -12.6090  -17.8754 N   0  0  0  0  0  0  0  0  0  0  0  0
   20.8481  -11.8313  -17.8353 C   0  0  1  0  0  0  0  0  0  0  0  0
   20.9909  -11.1751  -19.1809 C   0  0  0  0  0  0  0  0  0  0  0  0
   19.7157  -10.7730  -19.8469 C   0  0  0  0  0  0  0  0  0  0  0  0
   19.8431   -9.5330  -20.6413 C   0  0  0  0  0  0  0  0  0  0  0  0
   19.1109   -8.5350  -20.4918 O   0  0  0  0  0  0  0  0  0  0  0  0
   20.9688  -10.8372  -16.7678 C   0  0  0  0  0  0  0  0  0  0  0  0
   19.9154  -10.1035  -16.6136 O   0  0  0  0  0  0  0  0  0  0  0  0
   20.8292   -9.4119  -21.6390 O   0  0  0  0  0  0  0  0  0  0  0  0
   22.0652  -10.6034  -15.9248 N   0  0  0  0  0  0  0  0  0  0  0  0
   22.8557  -11.6532  -15.2291 C   0  0  0  0  0  0  0  0  0  0  0  0
   24.2223  -11.3097  -15.8276 C   0  0  0  0  0  0  0  0  0  0  0  0
   24.1832   -9.7765  -15.9160 C   0  0  0  0  0  0  0  0  0  0  0  0
   22.7575   -9.4447  -15.4413 C   0  0  1  0  0  0  0  0  0  0  0  0
   22.3454   -8.1216  -15.8199 C   0  0  0  0  0  0  0  0  0  0  0  0
   22.2572   -7.5939  -16.9558 O   0  0  0  0  0  0  0  0  0  0  0  0
   17.5214   -2.4152  -15.8973 C   0  0  0  0  0  0  0  0  0  0  0  0
   17.9515   -4.0373  -15.2690 S   0  0  0  0  0  0  0  0  0  0  0  0
   19.7836   -4.2035  -15.2784 C   0  0  0  0  0  0  0  0  0  0  0  0
   20.1554   -5.6211  -14.9645 C   0  0  0  0  0  0  0  0  0  0  0  0
   21.6199   -5.8301  -14.9877 C   0  0  2  0  0  0  0  0  0  0  0  0
   21.9660   -7.2305  -14.7564 N   0  0  0  0  0  0  0  0  0  0  0  0
   22.3201   -4.9655  -14.0255 C   0  0  0  0  0  0  0  0  0  0  0  0
   22.6899   -3.6485  -14.4030 O   0  0  0  0  0  0  0  0  0  0  0  0
   22.6438   -5.2677  -12.8579 O   0  0  0  0  0  0  0  0  0  0  0  0
  2  1  1  6
  2  7  1  0
  3  2  1  0
  4  3  1  0
  5  4  1  0
  6  5  2  0
  7  8  2  0
  7 10  1  0
  9  5  1  0
 10 14  1  0
 11 10  1  0
 11 12  1  0
 12 13  1  0
 14 15  1  6
 14 13  1  0
 15 16  2  0
 18 17  1  0
 19 18  1  0
 20 19  1  0
 21 20  1  1
 22 21  1  0
 22 15  1  0
 23 24  1  0
 23 21  1  0
 25 23  2  0
M  END
$$$$
