EPM.pdb
     RDKit          3D

 25 25  0  0  1  0  0  0  0  0999 V2000
   19.1478  -12.0446  -17.7873 N   0  0  0  0  0  0  0  0  0  0  0  0
   19.5792  -10.6895  -17.8775 C   0  0  1  0  0  0  0  0  0  0  0  0
   18.4031   -9.8846  -18.3579 C   0  0  0  0  0  0  0  0  0  0  0  0
   17.7799  -10.3428  -19.6358 C   0  0  0  0  0  0  0  0  0  0  0  0
   16.5654   -9.5802  -19.9939 C   0  0  0  0  0  0  0  0  0  0  0  0
   16.5785   -8.5303  -20.6664 O   0  0  0  0  0  0  0  0  0  0  0  0
   20.1545  -10.0842  -16.6754 C   0  0  0  0  0  0  0  0  0  0  0  0
   19.4098  -10.1968  -15.6245 O   0  0  0  0  0  0  0  0  0  0  0  0
   15.2913  -10.0143  -19.5808 O   0  0  0  0  0  0  0  0  0  0  0  0
   21.3825   -9.4189  -16.5460 N   0  0  0  0  0  0  0  0  0  0  0  0
   22.6732   -9.8727  -17.1283 C   0  0  0  0  0  0  0  0  0  0  0  0
   22.9637   -8.6301  -17.9740 C   0  0  0  0  0  0  0  0  0  0  0  0
   22.4463   -7.4846  -17.0906 C   0  0  0  0  0  0  0  0  0  0  0  0
   21.8395   -8.2295  -15.8886 C   0  0  1  0  0  0  0  0  0  0  0  0
   20.9383   -7.4075  -15.1297 C   0  0  0  0  0  0  0  0  0  0  0  0
   19.9102   -6.7841  -15.4913 O   0  0  0  0  0  0  0  0  0  0  0  0
   17.0597   -6.2502   -8.8328 C   0  0  0  0  0  0  0  0  0  0  0  0
   18.1083   -7.2834   -9.8545 S   0  0  0  0  0  0  0  0  0  0  0  0
   19.4476   -6.2408  -10.5638 C   0  0  0  0  0  0  0  0  0  0  0  0
   20.2789   -7.0673  -11.4977 C   0  0  0  0  0  0  0  0  0  0  0  0
   20.3893   -6.4503  -12.8379 C   0  0  2  0  0  0  0  0  0  0  0  0
   21.2266   -7.2496  -13.7294 N   0  0  0  0  0  0  0  0  0  0  0  0
   20.8866   -5.0675  -12.7740 C   0  0  0  0  0  0  0  0  0  0  0  0
   22.2443   -4.7935  -13.0828 O   0  0  0  0  0  0  0  0  0  0  0  0
   20.2231   -4.0558  -12.4648 O   0  0  0  0  0  0  0  0  0  0  0  0
  2  1  1  1
  2  7  1  0
  3  2  1  0
  4  3  1  0
  5  4  1  0
  6  5  2  0
  7  8  2  0
  7 10  1  0
  9  5  1  0
 10 14  1  0
 11 10  1  0
 11 12  1  0
 12 13  1  0
 14 15  1  6
 14 13  1  0
 15 16  2  0
 18 17  1  0
 19 18  1  0
 20 19  1  0
 21 20  1  1
 22 21  1  0
 22 15  1  0
 23 24  1  0
 23 21  1  0
 25 23  2  0
M  END
$$$$
