EPM.pdb
     RDKit          3D

 25 25  0  0  1  0  0  0  0  0999 V2000
   20.5503  -13.0768  -17.6818 N   0  0  0  0  0  0  0  0  0  0  0  0
   20.3020  -11.6944  -17.9221 C   0  0  1  0  0  0  0  0  0  0  0  0
   18.8092  -11.5148  -17.9544 C   0  0  0  0  0  0  0  0  0  0  0  0
   18.0732  -12.3645  -18.9381 C   0  0  0  0  0  0  0  0  0  0  0  0
   16.7117  -12.7236  -18.4887 C   0  0  0  0  0  0  0  0  0  0  0  0
   15.6789  -12.4855  -19.1454 O   0  0  0  0  0  0  0  0  0  0  0  0
   20.9116  -10.7309  -17.0042 C   0  0  0  0  0  0  0  0  0  0  0  0
   20.4076  -10.7502  -15.8137 O   0  0  0  0  0  0  0  0  0  0  0  0
   16.5050  -13.3736  -17.2569 O   0  0  0  0  0  0  0  0  0  0  0  0
   21.9464   -9.8215  -17.2682 N   0  0  0  0  0  0  0  0  0  0  0  0
   23.1573  -10.1076  -18.0823 C   0  0  0  0  0  0  0  0  0  0  0  0
   22.9625   -9.0092  -19.1307 C   0  0  0  0  0  0  0  0  0  0  0  0
   22.3845   -7.8476  -18.3081 C   0  0  0  0  0  0  0  0  0  0  0  0
   22.2356   -8.4647  -16.9062 C   0  0  1  0  0  0  0  0  0  0  0  0
   21.3440   -7.7140  -16.0665 C   0  0  0  0  0  0  0  0  0  0  0  0
   20.1422   -7.3948  -16.2409 O   0  0  0  0  0  0  0  0  0  0  0  0
   18.0218   -6.4673   -9.4429 C   0  0  0  0  0  0  0  0  0  0  0  0
   19.1505   -7.4300  -10.4480 S   0  0  0  0  0  0  0  0  0  0  0  0
   19.7652   -6.3697  -11.8198 C   0  0  0  0  0  0  0  0  0  0  0  0
   20.6138   -7.1923  -12.7416 C   0  0  0  0  0  0  0  0  0  0  0  0
   21.1009   -6.4077  -13.8976 C   0  0  2  0  0  0  0  0  0  0  0  0
   21.8762   -7.2347  -14.8191 N   0  0  0  0  0  0  0  0  0  0  0  0
   21.8843   -5.2340  -13.4823 C   0  0  0  0  0  0  0  0  0  0  0  0
   21.2161   -4.0678  -13.0270 O   0  0  0  0  0  0  0  0  0  0  0  0
   23.1293   -5.1371  -13.4829 O   0  0  0  0  0  0  0  0  0  0  0  0
  2  1  1  1
  2  7  1  0
  3  2  1  0
  4  3  1  0
  5  4  1  0
  6  5  2  0
  7  8  2  0
  7 10  1  0
  9  5  1  0
 10 14  1  0
 11 10  1  0
 11 12  1  0
 12 13  1  0
 14 15  1  6
 14 13  1  0
 15 16  2  0
 18 17  1  0
 19 18  1  0
 20 19  1  0
 21 20  1  1
 22 21  1  0
 22 15  1  0
 23 24  1  0
 23 21  1  0
 25 23  2  0
M  END
$$$$
