EPM.pdb
     RDKit          3D

 25 25  0  0  1  0  0  0  0  0999 V2000
   16.9253  -11.3764  -17.9958 N   0  0  0  0  0  0  0  0  0  0  0  0
   17.4431  -10.9579  -16.7359 C   0  0  1  0  0  0  0  0  0  0  0  0
   18.4585  -11.9843  -16.3148 C   0  0  0  0  0  0  0  0  0  0  0  0
   17.9580  -13.3874  -16.2055 C   0  0  0  0  0  0  0  0  0  0  0  0
   18.9976  -14.3403  -15.7628 C   0  0  0  0  0  0  0  0  0  0  0  0
   20.2189  -14.1701  -15.9478 O   0  0  0  0  0  0  0  0  0  0  0  0
   18.0144   -9.6127  -16.6555 C   0  0  0  0  0  0  0  0  0  0  0  0
   19.1181   -9.4721  -17.3143 O   0  0  0  0  0  0  0  0  0  0  0  0
   18.6508  -15.5265  -15.0882 O   0  0  0  0  0  0  0  0  0  0  0  0
   17.5113   -8.5001  -15.9654 N   0  0  0  0  0  0  0  0  0  0  0  0
   16.0985   -8.0370  -15.9918 C   0  0  0  0  0  0  0  0  0  0  0  0
   15.8260   -8.1278  -14.4880 C   0  0  0  0  0  0  0  0  0  0  0  0
   17.1625   -7.6905  -13.8695 C   0  0  0  0  0  0  0  0  0  0  0  0
   18.0604   -7.4942  -15.1038 C   0  0  1  0  0  0  0  0  0  0  0  0
   19.4579   -7.4834  -14.7714 C   0  0  0  0  0  0  0  0  0  0  0  0
   20.1429   -8.3101  -14.1204 O   0  0  0  0  0  0  0  0  0  0  0  0
   26.3964   -5.1997  -17.4783 C   0  0  0  0  0  0  0  0  0  0  0  0
   24.6363   -5.4147  -17.7369 S   0  0  0  0  0  0  0  0  0  0  0  0
   23.8452   -5.7790  -16.1165 C   0  0  0  0  0  0  0  0  0  0  0  0
   22.3783   -6.0092  -16.3204 C   0  0  0  0  0  0  0  0  0  0  0  0
   21.6726   -6.2627  -15.0449 C   0  0  2  0  0  0  0  0  0  0  0  0
   20.2284   -6.3634  -15.2415 N   0  0  0  0  0  0  0  0  0  0  0  0
   21.9798   -5.2452  -14.0280 C   0  0  0  0  0  0  0  0  0  0  0  0
   21.0630   -4.1881  -13.7917 O   0  0  0  0  0  0  0  0  0  0  0  0
   23.0022   -5.1989  -13.3125 O   0  0  0  0  0  0  0  0  0  0  0  0
  2  1  1  6
  2  7  1  0
  3  2  1  0
  4  3  1  0
  5  4  1  0
  6  5  2  0
  7  8  2  0
  7 10  1  0
  9  5  1  0
 10 14  1  0
 11 10  1  0
 11 12  1  0
 12 13  1  0
 14 15  1  1
 14 13  1  0
 15 16  2  0
 18 17  1  0
 19 18  1  0
 20 19  1  0
 21 20  1  6
 22 21  1  0
 22 15  1  0
 23 24  1  0
 23 21  1  0
 25 23  2  0
M  END
$$$$
