EPM.pdb
     RDKit          3D

 25 25  0  0  1  0  0  0  0  0999 V2000
   26.0510  -21.2193  -16.9664 N   0  0  0  0  0  0  0  0  0  0  0  0
   25.8577  -22.2198  -15.9703 C   0  0  1  0  0  0  0  0  0  0  0  0
   26.4811  -23.4854  -16.4913 C   0  0  0  0  0  0  0  0  0  0  0  0
   26.3799  -24.6766  -15.5957 C   0  0  0  0  0  0  0  0  0  0  0  0
   25.0348  -25.2896  -15.5971 C   0  0  0  0  0  0  0  0  0  0  0  0
   24.0895  -24.8865  -16.3032 O   0  0  0  0  0  0  0  0  0  0  0  0
   26.3443  -21.9297  -14.6207 C   0  0  0  0  0  0  0  0  0  0  0  0
   26.1945  -22.9078  -13.7884 O   0  0  0  0  0  0  0  0  0  0  0  0
   24.7433  -26.3948  -14.7751 O   0  0  0  0  0  0  0  0  0  0  0  0
   26.9341  -20.7472  -14.1504 N   0  0  0  0  0  0  0  0  0  0  0  0
   27.6289  -19.7376  -14.9923 C   0  0  0  0  0  0  0  0  0  0  0  0
   26.7523  -18.5348  -14.6337 C   0  0  0  0  0  0  0  0  0  0  0  0
   26.4415  -18.7671  -13.1473 C   0  0  0  0  0  0  0  0  0  0  0  0
   27.1062  -20.1270  -12.8693 C   0  0  1  0  0  0  0  0  0  0  0  0
   26.6112  -20.7468  -11.6717 C   0  0  0  0  0  0  0  0  0  0  0  0
   25.5854  -21.4464  -11.4853 O   0  0  0  0  0  0  0  0  0  0  0  0
   28.7560  -20.1171   -4.5174 C   0  0  0  0  0  0  0  0  0  0  0  0
   27.9082  -18.9662   -5.5979 S   0  0  0  0  0  0  0  0  0  0  0  0
   26.8915  -19.9247   -6.7945 C   0  0  0  0  0  0  0  0  0  0  0  0
   27.5312  -19.8662   -8.1486 C   0  0  0  0  0  0  0  0  0  0  0  0
   26.8189  -20.7059   -9.1369 C   0  0  2  0  0  0  0  0  0  0  0  0
   27.3867  -20.5584  -10.4749 N   0  0  0  0  0  0  0  0  0  0  0  0
   25.3742  -20.4302   -9.1620 C   0  0  0  0  0  0  0  0  0  0  0  0
   24.4855  -21.2698   -8.4417 O   0  0  0  0  0  0  0  0  0  0  0  0
   24.8089  -19.4989   -9.7723 O   0  0  0  0  0  0  0  0  0  0  0  0
  2  1  1  6
  2  7  1  0
  3  2  1  0
  4  3  1  0
  5  4  1  0
  6  5  2  0
  7  8  2  0
  7 10  1  0
  9  5  1  0
 10 14  1  0
 11 10  1  0
 11 12  1  0
 12 13  1  0
 14 15  1  1
 14 13  1  0
 15 16  2  0
 18 17  1  0
 19 18  1  0
 20 19  1  0
 21 20  1  1
 22 21  1  0
 22 15  1  0
 23 24  1  0
 23 21  1  0
 25 23  2  0
M  END
$$$$
