EPM.pdb
     RDKit          3D

 25 25  0  0  1  0  0  0  0  0999 V2000
   24.1209  -18.1602  -18.4451 N   0  0  0  0  0  0  0  0  0  0  0  0
   23.8749  -17.8237  -17.0825 C   0  0  1  0  0  0  0  0  0  0  0  0
   22.3828  -17.8161  -16.8939 C   0  0  0  0  0  0  0  0  0  0  0  0
   21.6902  -19.1172  -17.1359 C   0  0  0  0  0  0  0  0  0  0  0  0
   21.1241  -19.7096  -15.9056 C   0  0  0  0  0  0  0  0  0  0  0  0
   21.1945  -19.1740  -14.7818 O   0  0  0  0  0  0  0  0  0  0  0  0
   24.5141  -18.6511  -16.0582 C   0  0  0  0  0  0  0  0  0  0  0  0
   23.6958  -19.1057  -15.1663 O   0  0  0  0  0  0  0  0  0  0  0  0
   20.4554  -20.9480  -15.9411 O   0  0  0  0  0  0  0  0  0  0  0  0
   25.8701  -18.9912  -15.9444 N   0  0  0  0  0  0  0  0  0  0  0  0
   26.7881  -19.2626  -17.0821 C   0  0  0  0  0  0  0  0  0  0  0  0
   27.8253  -18.1807  -16.7699 C   0  0  0  0  0  0  0  0  0  0  0  0
   27.8735  -18.1836  -15.2344 C   0  0  0  0  0  0  0  0  0  0  0  0
   26.7854  -19.2062  -14.8620 C   0  0  1  0  0  0  0  0  0  0  0  0
   26.3608  -19.0845  -13.4951 C   0  0  0  0  0  0  0  0  0  0  0  0
   25.9040  -18.0940  -12.8731 O   0  0  0  0  0  0  0  0  0  0  0  0
   21.1690  -19.8420   -8.6576 C   0  0  0  0  0  0  0  0  0  0  0  0
   21.9010  -20.0324  -10.2820 S   0  0  0  0  0  0  0  0  0  0  0  0
   23.7213  -20.2141  -10.0880 C   0  0  0  0  0  0  0  0  0  0  0  0
   24.3769  -20.1104  -11.4318 C   0  0  0  0  0  0  0  0  0  0  0  0
   25.8329  -20.3644  -11.3612 C   0  0  2  0  0  0  0  0  0  0  0  0
   26.4596  -20.2636  -12.6771 N   0  0  0  0  0  0  0  0  0  0  0  0
   26.1412  -21.6650  -10.7471 C   0  0  0  0  0  0  0  0  0  0  0  0
   26.5472  -21.7225   -9.3886 O   0  0  0  0  0  0  0  0  0  0  0  0
   26.0852  -22.7798  -11.3070 O   0  0  0  0  0  0  0  0  0  0  0  0
  2  1  1  6
  2  7  1  0
  3  2  1  0
  4  3  1  0
  5  4  1  0
  6  5  2  0
  7  8  2  0
  7 10  1  0
  9  5  1  0
 10 14  1  0
 11 10  1  0
 11 12  1  0
 12 13  1  0
 14 15  1  1
 14 13  1  0
 15 16  2  0
 18 17  1  0
 19 18  1  0
 20 19  1  0
 21 20  1  6
 22 21  1  0
 22 15  1  0
 23 24  1  0
 23 21  1  0
 25 23  2  0
M  END
$$$$
