EGV.pdb
     RDKit          3D

 21 20  0  0  1  0  0  0  0  0999 V2000
   17.9926  -24.7635  -11.9743 N   0  0  0  0  0  0  0  0  0  0  0  0
   18.8340  -23.6087  -11.7526 C   0  0  1  0  0  0  0  0  0  0  0  0
   18.1739  -22.3203  -12.1015 C   0  0  0  0  0  0  0  0  0  0  0  0
   16.9686  -21.9875  -11.2971 C   0  0  0  0  0  0  0  0  0  0  0  0
   15.7457  -21.7168  -12.0882 C   0  0  0  0  0  0  0  0  0  0  0  0
   15.7850  -20.9443  -13.0976 O   0  0  0  0  0  0  0  0  0  0  0  0
   19.1685  -23.5759  -10.2870 C   0  0  0  0  0  0  0  0  0  0  0  0
   19.9354  -22.7005   -9.8129 O   0  0  0  0  0  0  0  0  0  0  0  0
   14.4961  -22.2542  -11.8194 O   0  0  0  0  0  0  0  0  0  0  0  0
   18.6275  -24.5349   -9.3886 N   0  0  0  0  0  0  0  0  0  0  0  0
   18.9517  -24.5314   -7.9656 C   0  0  0  0  0  0  0  0  0  0  0  0
   17.9862  -25.3887   -7.2261 C   0  0  0  0  0  0  0  0  0  0  0  0
   17.0678  -25.9891   -7.8802 O   0  0  0  0  0  0  0  0  0  0  0  0
   18.2279  -25.9007   -2.9916 C   0  0  0  0  0  0  0  0  0  0  0  0
   17.7200  -26.9970   -3.8954 C   0  0  1  0  0  0  0  0  0  0  0  0
   16.8066  -27.9632   -3.2014 C   0  0  0  0  0  0  0  0  0  0  0  0
   17.1099  -26.3946   -5.1422 C   0  0  2  0  0  0  0  0  0  0  0  0
   18.0753  -25.5416   -5.8291 N   0  0  0  0  0  0  0  0  0  0  0  0
   15.9282  -25.6170   -4.7379 C   0  0  0  0  0  0  0  0  0  0  0  0
   16.0584  -24.4001   -4.4697 O   0  0  0  0  0  0  0  0  0  0  0  0
   14.6881  -26.2096   -4.6518 O   0  0  0  0  0  0  0  0  0  0  0  0
  2  1  1  1
  3  2  1  0
  4  5  1  0
  4  3  1  0
  5  6  2  0
  7  2  1  0
  8  7  2  0
  9  5  1  0
 10  7  1  0
 11 12  1  0
 11 10  1  0
 12 18  1  0
 13 12  2  0
 15 14  1  1
 15 16  1  0
 17 18  1  1
 17 15  1  0
 19 17  1  0
 20 19  2  0
 21 19  1  0
M  END
$$$$
