EGV.pdb
     RDKit          3D

 21 20  0  0  1  0  0  0  0  0999 V2000
   19.9948    2.0082  -12.6583 N   0  0  0  0  0  0  0  0  0  0  0  0
   21.3146    2.0761  -12.0715 C   0  0  1  0  0  0  0  0  0  0  0  0
   22.2984    2.8128  -12.9122 C   0  0  0  0  0  0  0  0  0  0  0  0
   22.6240    2.1732  -14.2142 C   0  0  0  0  0  0  0  0  0  0  0  0
   23.6736    2.8605  -15.0020 C   0  0  0  0  0  0  0  0  0  0  0  0
   24.2600    3.8902  -14.5403 O   0  0  0  0  0  0  0  0  0  0  0  0
   21.1837    2.8067  -10.7639 C   0  0  0  0  0  0  0  0  0  0  0  0
   20.1005    3.3457  -10.4239 O   0  0  0  0  0  0  0  0  0  0  0  0
   24.1010    2.4672  -16.2610 O   0  0  0  0  0  0  0  0  0  0  0  0
   22.2819    2.9118   -9.8681 N   0  0  0  0  0  0  0  0  0  0  0  0
   22.1889    3.6508   -8.6130 C   0  0  0  0  0  0  0  0  0  0  0  0
   23.4603    3.5148   -7.8521 C   0  0  0  0  0  0  0  0  0  0  0  0
   23.6127    4.1918   -6.7796 O   0  0  0  0  0  0  0  0  0  0  0  0
   24.6508    1.0225   -5.7590 C   0  0  0  0  0  0  0  0  0  0  0  0
   25.6929    1.1031   -6.8474 C   0  0  1  0  0  0  0  0  0  0  0  0
   25.5868   -0.0035   -7.8541 C   0  0  0  0  0  0  0  0  0  0  0  0
   25.6760    2.4799   -7.4749 C   0  0  2  0  0  0  0  0  0  0  0  0
   24.4839    2.6572   -8.2990 N   0  0  0  0  0  0  0  0  0  0  0  0
   26.8933    2.6215   -8.2889 C   0  0  0  0  0  0  0  0  0  0  0  0
   28.0030    2.7289   -7.7174 O   0  0  0  0  0  0  0  0  0  0  0  0
   26.8256    2.6373   -9.6643 O   0  0  0  0  0  0  0  0  0  0  0  0
  2  1  1  6
  3  2  1  0
  4  5  1  0
  4  3  1  0
  5  6  2  0
  7  2  1  0
  8  7  2  0
  9  5  1  0
 10  7  1  0
 11 12  1  0
 11 10  1  0
 12 18  1  0
 13 12  2  0
 15 14  1  1
 15 16  1  0
 17 18  1  6
 17 15  1  0
 19 17  1  0
 20 19  2  0
 21 19  1  0
M  END
$$$$
