EGV.pdb
     RDKit          3D

 21 20  0  0  1  0  0  0  0  0999 V2000
   19.1286  -12.8502  -15.5269 N   0  0  0  0  0  0  0  0  0  0  0  0
   17.9950  -12.2941  -16.2314 C   0  0  1  0  0  0  0  0  0  0  0  0
   16.6833  -12.6965  -15.6525 C   0  0  0  0  0  0  0  0  0  0  0  0
   16.5296  -14.1502  -15.3813 C   0  0  0  0  0  0  0  0  0  0  0  0
   15.2945  -14.5218  -14.6525 C   0  0  0  0  0  0  0  0  0  0  0  0
   14.4317  -13.6386  -14.3477 O   0  0  0  0  0  0  0  0  0  0  0  0
   18.1029  -10.7973  -16.1380 C   0  0  0  0  0  0  0  0  0  0  0  0
   17.3046  -10.1289  -15.4344 O   0  0  0  0  0  0  0  0  0  0  0  0
   14.9718  -15.8088  -14.2501 O   0  0  0  0  0  0  0  0  0  0  0  0
   19.1128  -10.0884  -16.8431 N   0  0  0  0  0  0  0  0  0  0  0  0
   19.1742   -8.6302  -16.8486 C   0  0  0  0  0  0  0  0  0  0  0  0
   20.3246   -8.1707  -16.0242 C   0  0  0  0  0  0  0  0  0  0  0  0
   20.9895   -9.0339  -15.3576 O   0  0  0  0  0  0  0  0  0  0  0  0
   22.2383   -4.6321  -16.9461 C   0  0  0  0  0  0  0  0  0  0  0  0
   22.8887   -5.7841  -16.2203 C   0  0  1  0  0  0  0  0  0  0  0  0
   24.1847   -5.4153  -15.5617 C   0  0  0  0  0  0  0  0  0  0  0  0
   21.8981   -6.4173  -15.2678 C   0  0  2  0  0  0  0  0  0  0  0  0
   20.6815   -6.8095  -15.9734 N   0  0  0  0  0  0  0  0  0  0  0  0
   21.5919   -5.4364  -14.2149 C   0  0  0  0  0  0  0  0  0  0  0  0
   20.5962   -4.6875  -14.3465 O   0  0  0  0  0  0  0  0  0  0  0  0
   22.3839   -5.3338  -13.0929 O   0  0  0  0  0  0  0  0  0  0  0  0
  2  1  1  1
  3  2  1  0
  4  5  1  0
  4  3  1  0
  5  6  2  0
  7  2  1  0
  8  7  2  0
  9  5  1  0
 10  7  1  0
 11 12  1  0
 11 10  1  0
 12 18  1  0
 13 12  2  0
 15 14  1  1
 15 16  1  0
 17 18  1  6
 17 15  1  0
 19 17  1  0
 20 19  2  0
 21 19  1  0
M  END
$$$$
