EGV.pdb
     RDKit          3D

 21 20  0  0  1  0  0  0  0  0999 V2000
   25.4095  -20.9276  -16.1707 N   0  0  0  0  0  0  0  0  0  0  0  0
   25.3895  -19.5118  -15.8778 C   0  0  1  0  0  0  0  0  0  0  0  0
   24.0287  -18.9904  -15.5715 C   0  0  0  0  0  0  0  0  0  0  0  0
   23.1339  -19.9370  -14.8547 C   0  0  0  0  0  0  0  0  0  0  0  0
   21.8678  -20.2516  -15.5566 C   0  0  0  0  0  0  0  0  0  0  0  0
   21.8788  -20.6581  -16.7615 O   0  0  0  0  0  0  0  0  0  0  0  0
   26.2523  -19.2953  -14.6655 C   0  0  0  0  0  0  0  0  0  0  0  0
   26.3172  -18.1731  -14.1037 O   0  0  0  0  0  0  0  0  0  0  0  0
   20.6048  -20.1399  -14.9954 O   0  0  0  0  0  0  0  0  0  0  0  0
   27.0237  -20.3540  -14.1146 N   0  0  0  0  0  0  0  0  0  0  0  0
   27.8115  -20.1854  -12.8976 C   0  0  0  0  0  0  0  0  0  0  0  0
   27.1187  -20.8378  -11.7537 C   0  0  0  0  0  0  0  0  0  0  0  0
   26.4195  -21.8843  -11.9718 O   0  0  0  0  0  0  0  0  0  0  0  0
   28.5603  -20.9543   -7.9468 C   0  0  0  0  0  0  0  0  0  0  0  0
   27.1030  -20.5700   -8.0195 C   0  0  1  0  0  0  0  0  0  0  0  0
   26.8524  -19.1274   -7.6945 C   0  0  0  0  0  0  0  0  0  0  0  0
   26.5273  -20.9859   -9.3556 C   0  0  2  0  0  0  0  0  0  0  0  0
   27.2261  -20.3176  -10.4496 N   0  0  0  0  0  0  0  0  0  0  0  0
   25.0989  -20.6338   -9.3627 C   0  0  0  0  0  0  0  0  0  0  0  0
   24.7346  -19.5641   -9.9037 O   0  0  0  0  0  0  0  0  0  0  0  0
   24.1639  -21.4630   -8.7840 O   0  0  0  0  0  0  0  0  0  0  0  0
  2  1  1  1
  3  2  1  0
  4  5  1  0
  4  3  1  0
  5  6  2  0
  7  2  1  0
  8  7  2  0
  9  5  1  0
 10  7  1  0
 11 12  1  0
 11 10  1  0
 12 18  1  0
 13 12  2  0
 15 14  1  6
 15 16  1  0
 17 18  1  6
 17 15  1  0
 19 17  1  0
 20 19  2  0
 21 19  1  0
M  END
$$$$
