EGV.pdb
     RDKit          3D

 21 20  0  0  1  0  0  0  0  0999 V2000
   19.8363  -10.0924  -15.0077 N   0  0  0  0  0  0  0  0  0  0  0  0
   18.6596   -9.3175  -14.6828 C   0  0  1  0  0  0  0  0  0  0  0  0
   17.3841  -10.0245  -14.9837 C   0  0  0  0  0  0  0  0  0  0  0  0
   17.0803  -10.1959  -16.4290 C   0  0  0  0  0  0  0  0  0  0  0  0
   15.8954  -11.0354  -16.7223 C   0  0  0  0  0  0  0  0  0  0  0  0
   16.0327  -12.2515  -17.0681 O   0  0  0  0  0  0  0  0  0  0  0  0
   18.7002   -9.0441  -13.2048 C   0  0  0  0  0  0  0  0  0  0  0  0
   19.6308   -9.4866  -12.4855 O   0  0  0  0  0  0  0  0  0  0  0  0
   14.5812  -10.5991  -16.6515 O   0  0  0  0  0  0  0  0  0  0  0  0
   17.6863   -8.2753  -12.5720 N   0  0  0  0  0  0  0  0  0  0  0  0
   17.7192   -7.9773  -11.1436 C   0  0  0  0  0  0  0  0  0  0  0  0
   16.5736   -7.0979  -10.7853 C   0  0  0  0  0  0  0  0  0  0  0  0
   16.0623   -6.3526  -11.6879 O   0  0  0  0  0  0  0  0  0  0  0  0
   15.2253   -6.8277   -6.7955 C   0  0  0  0  0  0  0  0  0  0  0  0
   14.2172   -6.6906   -7.9098 C   0  0  1  0  0  0  0  0  0  0  0  0
   13.0367   -5.8421   -7.5415 C   0  0  0  0  0  0  0  0  0  0  0  0
   14.9079   -6.2295   -9.1747 C   0  0  2  0  0  0  0  0  0  0  0  0
   16.0553   -7.0807   -9.4761 N   0  0  0  0  0  0  0  0  0  0  0  0
   15.3359   -4.8362   -8.9748 C   0  0  0  0  0  0  0  0  0  0  0  0
   14.5103   -3.9107   -9.1524 O   0  0  0  0  0  0  0  0  0  0  0  0
   16.6268   -4.5408   -8.5971 O   0  0  0  0  0  0  0  0  0  0  0  0
  2  1  1  1
  3  2  1  0
  4  5  1  0
  4  3  1  0
  5  6  2  0
  7  2  1  0
  8  7  2  0
  9  5  1  0
 10  7  1  0
 11 12  1  0
 11 10  1  0
 12 18  1  0
 13 12  2  0
 15 14  1  1
 15 16  1  0
 17 18  1  1
 17 15  1  0
 19 17  1  0
 20 19  2  0
 21 19  1  0
M  END
$$$$
