EGV.pdb
     RDKit          3D

 21 20  0  0  1  0  0  0  0  0999 V2000
   15.8767  -12.9963  -19.4744 N   0  0  0  0  0  0  0  0  0  0  0  0
   15.6499  -11.8702  -18.5963 C   0  0  1  0  0  0  0  0  0  0  0  0
   15.3723  -12.2651  -17.1876 C   0  0  0  0  0  0  0  0  0  0  0  0
   16.3957  -13.1440  -16.5625 C   0  0  0  0  0  0  0  0  0  0  0  0
   16.0204  -13.6958  -15.2398 C   0  0  0  0  0  0  0  0  0  0  0  0
   14.9074  -13.3936  -14.7040 O   0  0  0  0  0  0  0  0  0  0  0  0
   16.9024  -11.0383  -18.6060 C   0  0  0  0  0  0  0  0  0  0  0  0
   17.6497  -10.9971  -19.6154 O   0  0  0  0  0  0  0  0  0  0  0  0
   16.8081  -14.5565  -14.4908 O   0  0  0  0  0  0  0  0  0  0  0  0
   17.2827  -10.2702  -17.4724 N   0  0  0  0  0  0  0  0  0  0  0  0
   18.4980   -9.4622  -17.4576 C   0  0  0  0  0  0  0  0  0  0  0  0
   19.2105   -9.6464  -16.1643 C   0  0  0  0  0  0  0  0  0  0  0  0
   18.6196  -10.2681  -15.2177 O   0  0  0  0  0  0  0  0  0  0  0  0
   23.2763   -9.7502  -13.4829 C   0  0  0  0  0  0  0  0  0  0  0  0
   22.6266   -9.6189  -14.8384 C   0  0  1  0  0  0  0  0  0  0  0  0
   22.8780  -10.7955  -15.7338 C   0  0  0  0  0  0  0  0  0  0  0  0
   21.1564   -9.3003  -14.6757 C   0  0  2  0  0  0  0  0  0  0  0  0
   20.5140   -9.1474  -15.9778 N   0  0  0  0  0  0  0  0  0  0  0  0
   21.0458   -8.0581  -13.8953 C   0  0  0  0  0  0  0  0  0  0  0  0
   21.2107   -6.9572  -14.4701 O   0  0  0  0  0  0  0  0  0  0  0  0
   20.7648   -8.0930  -12.5476 O   0  0  0  0  0  0  0  0  0  0  0  0
  2  1  1  6
  3  2  1  0
  4  5  1  0
  4  3  1  0
  5  6  2  0
  7  2  1  0
  8  7  2  0
  9  5  1  0
 10  7  1  0
 11 12  1  0
 11 10  1  0
 12 18  1  0
 13 12  2  0
 15 14  1  1
 15 16  1  0
 17 18  1  6
 17 15  1  0
 19 17  1  0
 20 19  2  0
 21 19  1  0
M  END
$$$$
