EGV.pdb
     RDKit          3D

 21 20  0  0  1  0  0  0  0  0999 V2000
   18.2439  -11.4305  -18.0072 N   0  0  0  0  0  0  0  0  0  0  0  0
   16.9913  -10.7213  -18.1444 C   0  0  1  0  0  0  0  0  0  0  0  0
   15.9364  -11.1972  -17.2072 C   0  0  0  0  0  0  0  0  0  0  0  0
   16.4366  -11.8017  -15.9443 C   0  0  0  0  0  0  0  0  0  0  0  0
   15.3859  -12.3546  -15.0582 C   0  0  0  0  0  0  0  0  0  0  0  0
   15.2753  -11.9539  -13.8564 O   0  0  0  0  0  0  0  0  0  0  0  0
   17.2629   -9.2741  -17.8398 C   0  0  0  0  0  0  0  0  0  0  0  0
   16.3385   -8.4229  -17.8422 O   0  0  0  0  0  0  0  0  0  0  0  0
   14.4622  -13.3179  -15.4342 O   0  0  0  0  0  0  0  0  0  0  0  0
   18.5757   -8.8209  -17.5387 N   0  0  0  0  0  0  0  0  0  0  0  0
   18.8607   -7.4221  -17.2349 C   0  0  0  0  0  0  0  0  0  0  0  0
   19.5266   -7.3196  -15.9082 C   0  0  0  0  0  0  0  0  0  0  0  0
   18.8201   -7.4489  -14.8518 O   0  0  0  0  0  0  0  0  0  0  0  0
   23.2145   -8.5728  -13.2206 C   0  0  0  0  0  0  0  0  0  0  0  0
   22.5531   -8.4053  -14.5665 C   0  0  1  0  0  0  0  0  0  0  0  0
   21.9468   -9.6725  -15.0919 C   0  0  0  0  0  0  0  0  0  0  0  0
   21.5726   -7.2538  -14.5182 C   0  0  2  0  0  0  0  0  0  0  0  0
   20.9114   -7.0842  -15.8088 N   0  0  0  0  0  0  0  0  0  0  0  0
   22.3186   -6.0387  -14.1556 C   0  0  0  0  0  0  0  0  0  0  0  0
   22.6845   -5.2522  -15.0596 O   0  0  0  0  0  0  0  0  0  0  0  0
   22.6170   -5.7589  -12.8407 O   0  0  0  0  0  0  0  0  0  0  0  0
  2  1  1  1
  3  2  1  0
  4  5  1  0
  4  3  1  0
  5  6  2  0
  7  2  1  0
  8  7  2  0
  9  5  1  0
 10  7  1  0
 11 12  1  0
 11 10  1  0
 12 18  1  0
 13 12  2  0
 15 14  1  1
 15 16  1  0
 17 18  1  6
 17 15  1  0
 19 17  1  0
 20 19  2  0
 21 19  1  0
M  END
$$$$
