EGV.pdb
     RDKit          3D

 21 20  0  0  1  0  0  0  0  0999 V2000
   21.8126  -20.2146  -14.1591 N   0  0  0  0  0  0  0  0  0  0  0  0
   21.3051  -20.7478  -12.9146 C   0  0  1  0  0  0  0  0  0  0  0  0
   20.5849  -22.0412  -13.0754 C   0  0  0  0  0  0  0  0  0  0  0  0
   19.2429  -21.9449  -13.7081 C   0  0  0  0  0  0  0  0  0  0  0  0
   18.3579  -20.9022  -13.1385 C   0  0  0  0  0  0  0  0  0  0  0  0
   17.9772  -20.9669  -11.9268 O   0  0  0  0  0  0  0  0  0  0  0  0
   22.4873  -20.9845  -12.0162 C   0  0  0  0  0  0  0  0  0  0  0  0
   22.3473  -21.4902  -10.8743 O   0  0  0  0  0  0  0  0  0  0  0  0
   17.8802  -19.8039  -13.8371 O   0  0  0  0  0  0  0  0  0  0  0  0
   23.8036  -20.6437  -12.4294 N   0  0  0  0  0  0  0  0  0  0  0  0
   24.9742  -20.9478  -11.6125 C   0  0  0  0  0  0  0  0  0  0  0  0
   26.2011  -20.4309  -12.2771 C   0  0  0  0  0  0  0  0  0  0  0  0
   26.1793  -19.2604  -12.7881 O   0  0  0  0  0  0  0  0  0  0  0  0
   29.7881  -20.4894  -10.7521 C   0  0  0  0  0  0  0  0  0  0  0  0
   29.8051  -21.0840  -12.1389 C   0  0  1  0  0  0  0  0  0  0  0  0
   29.9812  -22.5734  -12.1442 C   0  0  0  0  0  0  0  0  0  0  0  0
   28.5853  -20.6278  -12.9092 C   0  0  2  0  0  0  0  0  0  0  0  0
   27.3711  -21.2115  -12.3464 N   0  0  0  0  0  0  0  0  0  0  0  0
   28.7551  -21.0395  -14.3115 C   0  0  0  0  0  0  0  0  0  0  0  0
   29.5239  -20.3847  -15.0530 O   0  0  0  0  0  0  0  0  0  0  0  0
   28.0815  -22.1304  -14.8140 O   0  0  0  0  0  0  0  0  0  0  0  0
  2  1  1  6
  3  2  1  0
  4  5  1  0
  4  3  1  0
  5  6  2  0
  7  2  1  0
  8  7  2  0
  9  5  1  0
 10  7  1  0
 11 12  1  0
 11 10  1  0
 12 18  1  0
 13 12  2  0
 15 14  1  1
 15 16  1  0
 17 18  1  1
 17 15  1  0
 19 17  1  0
 20 19  2  0
 21 19  1  0
M  END
$$$$
