EGV.pdb
     RDKit          3D

 21 20  0  0  1  0  0  0  0  0999 V2000
   17.4940  -13.3357  -15.9950 N   0  0  0  0  0  0  0  0  0  0  0  0
   17.7195  -13.3685  -17.4228 C   0  0  1  0  0  0  0  0  0  0  0  0
   16.4812  -13.1564  -18.2222 C   0  0  0  0  0  0  0  0  0  0  0  0
   15.2775  -12.7757  -17.4369 C   0  0  0  0  0  0  0  0  0  0  0  0
   14.0575  -12.5348  -18.2422 C   0  0  0  0  0  0  0  0  0  0  0  0
   13.3822  -13.5093  -18.7022 O   0  0  0  0  0  0  0  0  0  0  0  0
   18.6773  -12.2561  -17.7483 C   0  0  0  0  0  0  0  0  0  0  0  0
   19.2457  -12.1919  -18.8673 O   0  0  0  0  0  0  0  0  0  0  0  0
   13.5546  -11.2821  -18.5586 O   0  0  0  0  0  0  0  0  0  0  0  0
   18.9716  -11.2393  -16.8001 N   0  0  0  0  0  0  0  0  0  0  0  0
   19.7734  -10.0693  -17.1439 C   0  0  0  0  0  0  0  0  0  0  0  0
   20.2415   -9.3961  -15.9022 C   0  0  0  0  0  0  0  0  0  0  0  0
   19.5313   -9.4896  -14.8446 O   0  0  0  0  0  0  0  0  0  0  0  0
   22.7992  -10.3627  -13.8240 C   0  0  0  0  0  0  0  0  0  0  0  0
   23.1879   -8.9515  -14.1906 C   0  0  1  0  0  0  0  0  0  0  0  0
   24.2993   -8.8838  -15.1953 C   0  0  0  0  0  0  0  0  0  0  0  0
   21.9605   -8.1723  -14.6099 C   0  0  2  0  0  0  0  0  0  0  0  0
   21.4456   -8.6661  -15.8837 N   0  0  0  0  0  0  0  0  0  0  0  0
   22.3395   -6.7550  -14.7197 C   0  0  0  0  0  0  0  0  0  0  0  0
   22.5866   -6.2730  -15.8494 O   0  0  0  0  0  0  0  0  0  0  0  0
   22.4249   -5.9577  -13.6001 O   0  0  0  0  0  0  0  0  0  0  0  0
  2  1  1  1
  3  2  1  0
  4  5  1  0
  4  3  1  0
  5  6  2  0
  7  2  1  0
  8  7  2  0
  9  5  1  0
 10  7  1  0
 11 12  1  0
 11 10  1  0
 12 18  1  0
 13 12  2  0
 15 14  1  6
 15 16  1  0
 17 18  1  6
 17 15  1  0
 19 17  1  0
 20 19  2  0
 21 19  1  0
M  END
$$$$
