EGV.pdb
     RDKit          3D

 21 20  0  0  1  0  0  0  0  0999 V2000
   25.6057  -22.4095  -11.3955 N   0  0  0  0  0  0  0  0  0  0  0  0
   25.1699  -21.1168  -11.8750 C   0  0  1  0  0  0  0  0  0  0  0  0
   23.6966  -21.0242  -12.0700 C   0  0  0  0  0  0  0  0  0  0  0  0
   23.1718  -21.7202  -13.2744 C   0  0  0  0  0  0  0  0  0  0  0  0
   22.3665  -20.8721  -14.1839 C   0  0  0  0  0  0  0  0  0  0  0  0
   21.9939  -19.7102  -13.8256 O   0  0  0  0  0  0  0  0  0  0  0  0
   25.5649  -20.1011  -10.8391 C   0  0  0  0  0  0  0  0  0  0  0  0
   25.3788  -18.8725  -11.0267 O   0  0  0  0  0  0  0  0  0  0  0  0
   21.9592  -21.2435  -15.4561 O   0  0  0  0  0  0  0  0  0  0  0  0
   26.1622  -20.4975   -9.6120 N   0  0  0  0  0  0  0  0  0  0  0  0
   26.5783  -19.5268   -8.6047 C   0  0  0  0  0  0  0  0  0  0  0  0
   27.2849  -20.2225   -7.4953 C   0  0  0  0  0  0  0  0  0  0  0  0
   27.1749  -21.4910   -7.3935 O   0  0  0  0  0  0  0  0  0  0  0  0
   30.8561  -19.2152   -5.6082 C   0  0  0  0  0  0  0  0  0  0  0  0
   29.6496  -19.3511   -4.7123 C   0  0  1  0  0  0  0  0  0  0  0  0
   29.1254  -18.0355   -4.2187 C   0  0  0  0  0  0  0  0  0  0  0  0
   28.5935  -20.1922   -5.3955 C   0  0  2  0  0  0  0  0  0  0  0  0
   28.0639  -19.5031   -6.5687 N   0  0  0  0  0  0  0  0  0  0  0  0
   27.5222  -20.4530   -4.4214 C   0  0  0  0  0  0  0  0  0  0  0  0
   27.7551  -21.1949   -3.4391 O   0  0  0  0  0  0  0  0  0  0  0  0
   26.2736  -19.8934   -4.5777 O   0  0  0  0  0  0  0  0  0  0  0  0
  2  1  1  1
  3  2  1  0
  4  5  1  0
  4  3  1  0
  5  6  2  0
  7  2  1  0
  8  7  2  0
  9  5  1  0
 10  7  1  0
 11 12  1  0
 11 10  1  0
 12 18  1  0
 13 12  2  0
 15 14  1  6
 15 16  1  0
 17 18  1  6
 17 15  1  0
 19 17  1  0
 20 19  2  0
 21 19  1  0
M  END
$$$$
