EGV.pdb
     RDKit          3D

 21 20  0  0  1  0  0  0  0  0999 V2000
   18.5730  -12.1042  -14.9951 N   0  0  0  0  0  0  0  0  0  0  0  0
   18.0694  -11.7697  -16.3086 C   0  0  1  0  0  0  0  0  0  0  0  0
   16.6131  -12.0358  -16.4691 C   0  0  0  0  0  0  0  0  0  0  0  0
   16.2379  -13.4712  -16.5647 C   0  0  0  0  0  0  0  0  0  0  0  0
   14.7879  -13.7277  -16.7271 C   0  0  0  0  0  0  0  0  0  0  0  0
   14.2328  -14.7063  -16.1343 O   0  0  0  0  0  0  0  0  0  0  0  0
   18.2964  -10.2972  -16.5111 C   0  0  0  0  0  0  0  0  0  0  0  0
   18.4055   -9.8070  -17.6631 O   0  0  0  0  0  0  0  0  0  0  0  0
   13.9325  -12.9618  -17.5044 O   0  0  0  0  0  0  0  0  0  0  0  0
   18.3952   -9.4104  -15.4051 N   0  0  0  0  0  0  0  0  0  0  0  0
   18.5922   -7.9748  -15.5796 C   0  0  0  0  0  0  0  0  0  0  0  0
   19.4536   -7.4474  -14.4869 C   0  0  0  0  0  0  0  0  0  0  0  0
   19.3250   -7.9317  -13.3119 O   0  0  0  0  0  0  0  0  0  0  0  0
   22.6204   -8.4365  -14.3663 C   0  0  0  0  0  0  0  0  0  0  0  0
   22.7689   -6.9355  -14.4094 C   0  0  1  0  0  0  0  0  0  0  0  0
   23.1307   -6.4134  -15.7680 C   0  0  0  0  0  0  0  0  0  0  0  0
   21.5341   -6.2795  -13.8310 C   0  0  2  0  0  0  0  0  0  0  0  0
   20.3972   -6.4319  -14.7343 N   0  0  0  0  0  0  0  0  0  0  0  0
   21.8363   -4.8559  -13.6156 C   0  0  0  0  0  0  0  0  0  0  0  0
   22.6311   -4.5299  -12.7036 O   0  0  0  0  0  0  0  0  0  0  0  0
   21.2578   -3.8840  -14.4013 O   0  0  0  0  0  0  0  0  0  0  0  0
  2  1  1  1
  3  2  1  0
  4  5  1  0
  4  3  1  0
  5  6  2  0
  7  2  1  0
  8  7  2  0
  9  5  1  0
 10  7  1  0
 11 12  1  0
 11 10  1  0
 12 18  1  0
 13 12  2  0
 15 14  1  6
 15 16  1  0
 17 18  1  6
 17 15  1  0
 19 17  1  0
 20 19  2  0
 21 19  1  0
M  END
$$$$
