EGV.pdb
     RDKit          3D

 21 20  0  0  1  0  0  0  0  0999 V2000
   24.6771  -21.6522  -18.3971 N   0  0  0  0  0  0  0  0  0  0  0  0
   24.3397  -20.2497  -18.2978 C   0  0  1  0  0  0  0  0  0  0  0  0
   22.8735  -19.9908  -18.3231 C   0  0  0  0  0  0  0  0  0  0  0  0
   22.0290  -21.0724  -17.7510 C   0  0  0  0  0  0  0  0  0  0  0  0
   21.3692  -20.7362  -16.4679 C   0  0  0  0  0  0  0  0  0  0  0  0
   20.3768  -21.4144  -16.0526 O   0  0  0  0  0  0  0  0  0  0  0  0
   24.8749  -19.7548  -16.9826 C   0  0  0  0  0  0  0  0  0  0  0  0
   24.7336  -18.5567  -16.6308 O   0  0  0  0  0  0  0  0  0  0  0  0
   21.7507  -19.6980  -15.6318 O   0  0  0  0  0  0  0  0  0  0  0  0
   25.5588  -20.6269  -16.0931 N   0  0  0  0  0  0  0  0  0  0  0  0
   26.0273  -20.1846  -14.7835 C   0  0  0  0  0  0  0  0  0  0  0  0
   25.2327  -20.8465  -13.7136 C   0  0  0  0  0  0  0  0  0  0  0  0
   24.2411  -21.5799  -14.0459 O   0  0  0  0  0  0  0  0  0  0  0  0
   26.6701  -21.6936   -9.9239 C   0  0  0  0  0  0  0  0  0  0  0  0
   25.2945  -21.0743   -9.9568 C   0  0  1  0  0  0  0  0  0  0  0  0
   25.2704  -19.6552   -9.4723 C   0  0  0  0  0  0  0  0  0  0  0  0
   24.6875  -21.2421  -11.3326 C   0  0  2  0  0  0  0  0  0  0  0  0
   25.5606  -20.6730  -12.3551 N   0  0  0  0  0  0  0  0  0  0  0  0
   23.3796  -20.5684  -11.3359 C   0  0  0  0  0  0  0  0  0  0  0  0
   23.3050  -19.3781  -11.7197 O   0  0  0  0  0  0  0  0  0  0  0  0
   22.2436  -21.2288  -10.9238 O   0  0  0  0  0  0  0  0  0  0  0  0
  2  1  1  1
  3  2  1  0
  4  5  1  0
  4  3  1  0
  5  6  2  0
  7  2  1  0
  8  7  2  0
  9  5  1  0
 10  7  1  0
 11 12  1  0
 11 10  1  0
 12 18  1  0
 13 12  2  0
 15 14  1  6
 15 16  1  0
 17 18  1  6
 17 15  1  0
 19 17  1  0
 20 19  2  0
 21 19  1  0
M  END
$$$$
