EGV.pdb
     RDKit          3D

 21 20  0  0  1  0  0  0  0  0999 V2000
   25.4391  -22.3248  -11.7762 N   0  0  0  0  0  0  0  0  0  0  0  0
   25.8750  -21.0148  -12.2059 C   0  0  1  0  0  0  0  0  0  0  0  0
   24.9319  -20.3590  -13.1534 C   0  0  0  0  0  0  0  0  0  0  0  0
   24.0935  -21.2871  -13.9573 C   0  0  0  0  0  0  0  0  0  0  0  0
   24.8374  -22.1032  -14.9449 C   0  0  0  0  0  0  0  0  0  0  0  0
   24.3815  -23.2252  -15.3328 O   0  0  0  0  0  0  0  0  0  0  0  0
   25.9724  -20.1526  -10.9779 C   0  0  0  0  0  0  0  0  0  0  0  0
   26.2322  -18.9260  -11.0617 O   0  0  0  0  0  0  0  0  0  0  0  0
   26.0471  -21.7411  -15.5177 O   0  0  0  0  0  0  0  0  0  0  0  0
   25.7734  -20.6973   -9.6805 N   0  0  0  0  0  0  0  0  0  0  0  0
   25.8571  -19.8774   -8.4760 C   0  0  0  0  0  0  0  0  0  0  0  0
   27.0415  -20.2825   -7.6714 C   0  0  0  0  0  0  0  0  0  0  0  0
   27.7142  -21.3054   -8.0359 O   0  0  0  0  0  0  0  0  0  0  0  0
   29.4767  -17.7654   -5.5538 C   0  0  0  0  0  0  0  0  0  0  0  0
   29.0131  -18.9652   -4.7649 C   0  0  1  0  0  0  0  0  0  0  0  0
   28.0159  -18.6249   -3.6976 C   0  0  0  0  0  0  0  0  0  0  0  0
   28.5281  -20.0448   -5.7077 C   0  0  2  0  0  0  0  0  0  0  0  0
   27.4218  -19.5569   -6.5260 N   0  0  0  0  0  0  0  0  0  0  0  0
   28.1031  -21.1966   -4.8970 C   0  0  0  0  0  0  0  0  0  0  0  0
   26.8827  -21.4661   -4.8085 O   0  0  0  0  0  0  0  0  0  0  0  0
   29.0274  -21.9767   -4.2385 O   0  0  0  0  0  0  0  0  0  0  0  0
  2  1  1  1
  3  2  1  0
  4  5  1  0
  4  3  1  0
  5  6  2  0
  7  2  1  0
  8  7  2  0
  9  5  1  0
 10  7  1  0
 11 12  1  0
 11 10  1  0
 12 18  1  0
 13 12  2  0
 15 14  1  6
 15 16  1  0
 17 18  1  1
 17 15  1  0
 19 17  1  0
 20 19  2  0
 21 19  1  0
M  END
$$$$
