EGV.pdb
     RDKit          3D

 21 20  0  0  1  0  0  0  0  0999 V2000
   16.8497   -8.2458  -19.0283 N   0  0  0  0  0  0  0  0  0  0  0  0
   17.5656   -9.2294  -18.2468 C   0  0  1  0  0  0  0  0  0  0  0  0
   17.9683  -10.4291  -19.0315 C   0  0  0  0  0  0  0  0  0  0  0  0
   18.6298  -10.1431  -20.3320 C   0  0  0  0  0  0  0  0  0  0  0  0
   19.0584  -11.3410  -21.0909 C   0  0  0  0  0  0  0  0  0  0  0  0
   20.2900  -11.5504  -21.3291 O   0  0  0  0  0  0  0  0  0  0  0  0
   18.8160   -8.5686  -17.7363 C   0  0  0  0  0  0  0  0  0  0  0  0
   19.6634   -9.2083  -17.0641 O   0  0  0  0  0  0  0  0  0  0  0  0
   18.1998  -12.3073  -21.5923 O   0  0  0  0  0  0  0  0  0  0  0  0
   19.0810   -7.1970  -17.9975 N   0  0  0  0  0  0  0  0  0  0  0  0
   20.3078   -6.5467  -17.5479 C   0  0  0  0  0  0  0  0  0  0  0  0
   20.2452   -6.3113  -16.0800 C   0  0  0  0  0  0  0  0  0  0  0  0
   19.1309   -5.9698  -15.5571 O   0  0  0  0  0  0  0  0  0  0  0  0
   21.6357   -7.3886  -11.6271 C   0  0  0  0  0  0  0  0  0  0  0  0
   21.8291   -7.5287  -13.1170 C   0  0  1  0  0  0  0  0  0  0  0  0
   21.3091   -8.8248  -13.6639 C   0  0  0  0  0  0  0  0  0  0  0  0
   21.2646   -6.3167  -13.8253 C   0  0  2  0  0  0  0  0  0  0  0  0
   21.3895   -6.4598  -15.2730 N   0  0  0  0  0  0  0  0  0  0  0  0
   22.0031   -5.1335  -13.3570 C   0  0  0  0  0  0  0  0  0  0  0  0
   22.9442   -4.6847  -14.0515 O   0  0  0  0  0  0  0  0  0  0  0  0
   21.6723   -4.5184  -12.1701 O   0  0  0  0  0  0  0  0  0  0  0  0
  2  1  1  6
  3  2  1  0
  4  5  1  0
  4  3  1  0
  5  6  2  0
  7  2  1  0
  8  7  2  0
  9  5  1  0
 10  7  1  0
 11 12  1  0
 11 10  1  0
 12 18  1  0
 13 12  2  0
 15 14  1  1
 15 16  1  0
 17 18  1  6
 17 15  1  0
 19 17  1  0
 20 19  2  0
 21 19  1  0
M  END
$$$$
