EGV.pdb
     RDKit          3D

 21 20  0  0  1  0  0  0  0  0999 V2000
   27.3779  -23.7183  -16.2333 N   0  0  0  0  0  0  0  0  0  0  0  0
   28.2509  -23.9843  -17.3549 C   0  0  1  0  0  0  0  0  0  0  0  0
   29.5090  -23.1883  -17.3271 C   0  0  0  0  0  0  0  0  0  0  0  0
   29.3371  -21.7244  -17.5222 C   0  0  0  0  0  0  0  0  0  0  0  0
   29.8334  -21.2051  -18.8179 C   0  0  0  0  0  0  0  0  0  0  0  0
   30.4168  -21.9761  -19.6440 O   0  0  0  0  0  0  0  0  0  0  0  0
   28.6223  -25.4401  -17.2949 C   0  0  0  0  0  0  0  0  0  0  0  0
   29.3565  -25.9621  -18.1711 O   0  0  0  0  0  0  0  0  0  0  0  0
   29.7158  -19.8892  -19.2385 O   0  0  0  0  0  0  0  0  0  0  0  0
   28.1548  -26.2746  -16.2439 N   0  0  0  0  0  0  0  0  0  0  0  0
   28.4765  -27.6969  -16.1839 C   0  0  0  0  0  0  0  0  0  0  0  0
   27.3566  -28.4919  -16.7564 C   0  0  0  0  0  0  0  0  0  0  0  0
   26.3017  -27.8831  -17.1415 O   0  0  0  0  0  0  0  0  0  0  0  0
   27.5544  -31.1594  -19.5055 C   0  0  0  0  0  0  0  0  0  0  0  0
   26.8032  -31.7456  -18.3355 C   0  0  1  0  0  0  0  0  0  0  0  0
   27.5719  -32.8089  -17.6090 C   0  0  0  0  0  0  0  0  0  0  0  0
   26.3202  -30.6366  -17.4264 C   0  0  2  0  0  0  0  0  0  0  0  0
   27.4488  -29.8921  -16.8755 N   0  0  0  0  0  0  0  0  0  0  0  0
   25.5279  -31.2478  -16.3480 C   0  0  0  0  0  0  0  0  0  0  0  0
   26.0591  -31.4359  -15.2290 O   0  0  0  0  0  0  0  0  0  0  0  0
   24.2163  -31.6132  -16.5548 O   0  0  0  0  0  0  0  0  0  0  0  0
  2  1  1  1
  3  2  1  0
  4  5  1  0
  4  3  1  0
  5  6  2  0
  7  2  1  0
  8  7  2  0
  9  5  1  0
 10  7  1  0
 11 12  1  0
 11 10  1  0
 12 18  1  0
 13 12  2  0
 15 14  1  6
 15 16  1  0
 17 18  1  1
 17 15  1  0
 19 17  1  0
 20 19  2  0
 21 19  1  0
M  END
$$$$
