EGV.pdb
     RDKit          3D

 21 20  0  0  1  0  0  0  0  0999 V2000
   25.0141  -22.2901  -12.1195 N   0  0  0  0  0  0  0  0  0  0  0  0
   25.5793  -21.0621  -12.6329 C   0  0  1  0  0  0  0  0  0  0  0  0
   24.7021  -20.3749  -13.6206 C   0  0  0  0  0  0  0  0  0  0  0  0
   23.7406  -21.2557  -14.3350 C   0  0  0  0  0  0  0  0  0  0  0  0
   22.3191  -21.0528  -13.9706 C   0  0  0  0  0  0  0  0  0  0  0  0
   21.6828  -21.9436  -13.3234 O   0  0  0  0  0  0  0  0  0  0  0  0
   25.7729  -20.1375  -11.4631 C   0  0  0  0  0  0  0  0  0  0  0  0
   26.0935  -18.9339  -11.6297 O   0  0  0  0  0  0  0  0  0  0  0  0
   21.5768  -19.9243  -14.2837 O   0  0  0  0  0  0  0  0  0  0  0  0
   25.5993  -20.5949  -10.1288 N   0  0  0  0  0  0  0  0  0  0  0  0
   25.7608  -19.7093   -8.9800 C   0  0  0  0  0  0  0  0  0  0  0  0
   26.7154  -20.3106   -8.0099 C   0  0  0  0  0  0  0  0  0  0  0  0
   26.7995  -21.5830   -7.9352 O   0  0  0  0  0  0  0  0  0  0  0  0
   28.5336  -18.0101   -4.9129 C   0  0  0  0  0  0  0  0  0  0  0  0
   29.3203  -19.1131   -5.5771 C   0  0  1  0  0  0  0  0  0  0  0  0
   30.3493  -19.7324   -4.6788 C   0  0  0  0  0  0  0  0  0  0  0  0
   28.3743  -20.1268   -6.1831 C   0  0  2  0  0  0  0  0  0  0  0  0
   27.5165  -19.4988   -7.1839 N   0  0  0  0  0  0  0  0  0  0  0  0
   27.5662  -20.6991   -5.0951 C   0  0  0  0  0  0  0  0  0  0  0  0
   26.3630  -20.3672   -4.9862 O   0  0  0  0  0  0  0  0  0  0  0  0
   28.1156  -21.5904   -4.2005 O   0  0  0  0  0  0  0  0  0  0  0  0
  2  1  1  1
  3  2  1  0
  4  5  1  0
  4  3  1  0
  5  6  2  0
  7  2  1  0
  8  7  2  0
  9  5  1  0
 10  7  1  0
 11 12  1  0
 11 10  1  0
 12 18  1  0
 13 12  2  0
 15 14  1  1
 15 16  1  0
 17 18  1  6
 17 15  1  0
 19 17  1  0
 20 19  2  0
 21 19  1  0
M  END
$$$$
