EGV.pdb
     RDKit          3D

 21 20  0  0  1  0  0  0  0  0999 V2000
   25.4013  -22.2246  -12.3186 N   0  0  0  0  0  0  0  0  0  0  0  0
   25.4486  -20.7863  -12.1772 C   0  0  1  0  0  0  0  0  0  0  0  0
   24.2065  -20.2082  -11.5939 C   0  0  0  0  0  0  0  0  0  0  0  0
   23.0440  -21.1333  -11.5347 C   0  0  0  0  0  0  0  0  0  0  0  0
   22.2089  -21.1649  -12.7579 C   0  0  0  0  0  0  0  0  0  0  0  0
   22.5238  -21.9112  -13.7382 O   0  0  0  0  0  0  0  0  0  0  0  0
   26.5882  -20.4671  -11.2497 C   0  0  0  0  0  0  0  0  0  0  0  0
   26.8335  -19.2849  -10.9014 O   0  0  0  0  0  0  0  0  0  0  0  0
   21.0550  -20.4194  -12.9459 O   0  0  0  0  0  0  0  0  0  0  0  0
   27.4262  -21.4932  -10.7356 N   0  0  0  0  0  0  0  0  0  0  0  0
   28.5713  -21.2007   -9.8792 C   0  0  0  0  0  0  0  0  0  0  0  0
   28.1188  -21.0336   -8.4716 C   0  0  0  0  0  0  0  0  0  0  0  0
   26.9197  -21.3516   -8.1673 O   0  0  0  0  0  0  0  0  0  0  0  0
   29.2142  -20.0885   -3.7473 C   0  0  0  0  0  0  0  0  0  0  0  0
   29.6972  -20.1442   -5.1757 C   0  0  1  0  0  0  0  0  0  0  0  0
   30.8958  -21.0260   -5.3632 C   0  0  0  0  0  0  0  0  0  0  0  0
   28.5486  -20.5009   -6.0937 C   0  0  2  0  0  0  0  0  0  0  0  0
   28.9905  -20.5340   -7.4849 N   0  0  0  0  0  0  0  0  0  0  0  0
   27.4924  -19.4933   -5.9103 C   0  0  0  0  0  0  0  0  0  0  0  0
   27.4078  -18.5407   -6.7197 O   0  0  0  0  0  0  0  0  0  0  0  0
   26.6014  -19.5860   -4.8644 O   0  0  0  0  0  0  0  0  0  0  0  0
  2  1  1  1
  3  2  1  0
  4  5  1  0
  4  3  1  0
  5  6  2  0
  7  2  1  0
  8  7  2  0
  9  5  1  0
 10  7  1  0
 11 12  1  0
 11 10  1  0
 12 18  1  0
 13 12  2  0
 15 14  1  1
 15 16  1  0
 17 18  1  6
 17 15  1  0
 19 17  1  0
 20 19  2  0
 21 19  1  0
M  END
$$$$
