IQW.pdb
     RDKit          3D

 32 33  0  0  1  0  0  0  0  0999 V2000
    7.5866  -11.4028   19.9716 C   0  0  0  0  0  0  0  0  0  0  0  0
    7.6046  -12.8066   19.4546 C   0  0  0  0  0  0  0  0  0  0  0  0
    7.8825  -13.7390   20.6239 C   0  0  2  0  0  0  0  0  0  0  0  0
    9.2176  -13.4441   21.2572 C   0  0  0  0  0  0  0  0  0  0  0  0
    7.9396  -15.1473   20.0581 C   0  0  2  0  0  0  0  0  0  0  0  0
    6.6611  -15.5335   19.4925 N   0  0  0  0  0  0  0  0  0  0  0  0
    8.2572  -16.0815   21.1626 C   0  0  0  0  0  0  0  0  0  0  0  0
    7.3590  -16.5643   21.9160 O   0  0  0  0  0  0  0  0  0  0  0  0
   13.4852  -19.5156   20.9745 N   0  0  0  0  0  0  0  0  0  0  0  0
   12.6307  -20.1679   21.9127 C   0  0  0  0  0  0  0  0  0  0  0  0
   12.7511  -21.3857   22.1485 O   0  0  0  0  0  0  0  0  0  0  0  0
   11.5993  -19.3825   22.6015 C   0  0  0  0  0  0  0  0  0  0  0  0
   10.9793  -18.3152   21.7740 C   0  0  0  0  0  0  0  0  0  0  0  0
    9.9021  -17.5031   22.3945 C   0  0  2  0  0  0  0  0  0  0  0  0
    9.5964  -16.4501   21.3898 N   0  0  0  0  0  0  0  0  0  0  0  0
   10.2265  -16.8131   23.6405 C   0  0  0  0  0  0  0  0  0  0  0  0
   10.9931  -15.8165   23.6117 O   0  0  0  0  0  0  0  0  0  0  0  0
    9.7317  -17.1877   24.8970 N   0  0  0  0  0  0  0  0  0  0  0  0
   10.1699  -16.4833   26.1152 C   0  0  1  0  0  0  0  0  0  0  0  0
    8.9536  -16.4491   26.9906 C   0  0  0  0  0  0  0  0  0  0  0  0
    7.8012  -15.6980   26.5065 C   0  0  0  0  0  0  0  0  0  0  0  0
    6.6737  -16.2721   25.9010 C   0  0  0  0  0  0  0  0  0  0  0  0
    5.8576  -15.2800   25.5656 N   0  0  0  0  0  0  0  0  0  0  0  0
    6.4000  -14.1046   25.9235 C   0  0  0  0  0  0  0  0  0  0  0  0
    5.9519  -12.8055   25.8136 C   0  0  0  0  0  0  0  0  0  0  0  0
    6.7047  -11.7473   26.2876 C   0  0  0  0  0  0  0  0  0  0  0  0
    7.9120  -11.9828   26.8752 C   0  0  0  0  0  0  0  0  0  0  0  0
    8.3809  -13.2528   26.9973 C   0  0  0  0  0  0  0  0  0  0  0  0
    7.6321  -14.3323   26.5228 C   0  0  0  0  0  0  0  0  0  0  0  0
   11.3001  -17.2244   26.6762 C   0  0  0  0  0  0  0  0  0  0  0  0
   11.9738  -16.8514   27.6749 O   0  0  0  0  0  0  0  0  0  0  0  0
   11.6917  -18.4221   26.1030 O   0  0  0  0  0  0  0  0  0  0  0  0
  2  1  1  0
  3  4  1  6
  3  5  1  0
  3  2  1  0
  5  6  1  1
  7  5  1  0
  7  8  2  0
 10  9  1  0
 10 12  1  0
 11 10  2  0
 12 13  1  0
 14 13  1  6
 14 15  1  0
 15  7  1  0
 16 17  2  0
 16 14  1  0
 18 16  1  0
 19 18  1  0
 19 20  1  1
 20 21  1  0
 21 29  1  0
 21 22  2  0
 22 23  1  0
 24 23  1  0
 24 25  2  0
 26 25  1  0
 27 26  2  0
 28 29  2  0
 28 27  1  0
 29 24  1  0
 30 19  1  0
 31 30  2  0
 32 30  1  0
M  END
$$$$
