IQW.pdb
     RDKit          3D

 32 33  0  0  1  0  0  0  0  0999 V2000
    7.9483  -11.5878   20.3053 C   0  0  0  0  0  0  0  0  0  0  0  0
    7.4330  -12.9453   20.6660 C   0  0  0  0  0  0  0  0  0  0  0  0
    8.5583  -13.9486   20.4647 C   0  0  2  0  0  0  0  0  0  0  0  0
    8.9617  -14.0394   19.0157 C   0  0  0  0  0  0  0  0  0  0  0  0
    8.0162  -15.3052   20.8801 C   0  0  2  0  0  0  0  0  0  0  0  0
    7.7216  -15.3357   22.2999 N   0  0  0  0  0  0  0  0  0  0  0  0
    9.0516  -16.3269   20.6010 C   0  0  0  0  0  0  0  0  0  0  0  0
    9.4517  -16.5767   19.4241 O   0  0  0  0  0  0  0  0  0  0  0  0
   12.6036  -14.4328   18.9538 N   0  0  0  0  0  0  0  0  0  0  0  0
   13.4604  -14.7094   20.0608 C   0  0  0  0  0  0  0  0  0  0  0  0
   14.6903  -14.5258   19.9792 O   0  0  0  0  0  0  0  0  0  0  0  0
   12.8722  -15.2176   21.3061 C   0  0  0  0  0  0  0  0  0  0  0  0
   11.4651  -15.6788   21.1822 C   0  0  0  0  0  0  0  0  0  0  0  0
   11.0326  -16.8058   22.0469 C   0  0  2  0  0  0  0  0  0  0  0  0
    9.6142  -17.0479   21.6708 N   0  0  0  0  0  0  0  0  0  0  0  0
   11.0516  -16.5792   23.4898 C   0  0  0  0  0  0  0  0  0  0  0  0
   12.1428  -16.3200   24.0588 O   0  0  0  0  0  0  0  0  0  0  0  0
    9.9141  -16.6281   24.3070 N   0  0  0  0  0  0  0  0  0  0  0  0
   10.0307  -16.4459   25.7650 C   0  0  1  0  0  0  0  0  0  0  0  0
    8.6299  -16.5936   26.2778 C   0  0  0  0  0  0  0  0  0  0  0  0
    7.6793  -15.5402   25.9414 C   0  0  0  0  0  0  0  0  0  0  0  0
    6.3563  -15.7624   25.5319 C   0  0  0  0  0  0  0  0  0  0  0  0
    5.8153  -14.5757   25.2835 N   0  0  0  0  0  0  0  0  0  0  0  0
    6.7180  -13.6078   25.5119 C   0  0  0  0  0  0  0  0  0  0  0  0
    6.6472  -12.2341   25.4201 C   0  0  0  0  0  0  0  0  0  0  0  0
    7.7334  -11.4397   25.7367 C   0  0  0  0  0  0  0  0  0  0  0  0
    8.8987  -12.0157   26.1475 C   0  0  0  0  0  0  0  0  0  0  0  0
    8.9993  -13.3675   26.2472 C   0  0  0  0  0  0  0  0  0  0  0  0
    7.9108  -14.1835   25.9304 C   0  0  0  0  0  0  0  0  0  0  0  0
   10.9689  -17.4510   26.2659 C   0  0  0  0  0  0  0  0  0  0  0  0
   11.1945  -18.5588   25.7073 O   0  0  0  0  0  0  0  0  0  0  0  0
   11.6793  -17.2113   27.4296 O   0  0  0  0  0  0  0  0  0  0  0  0
  2  1  1  0
  3  4  1  6
  3  5  1  0
  3  2  1  0
  5  6  1  1
  7  5  1  0
  7  8  2  0
 10  9  1  0
 10 12  1  0
 11 10  2  0
 12 13  1  0
 14 13  1  6
 14 15  1  0
 15  7  1  0
 16 17  2  0
 16 14  1  0
 18 16  1  0
 19 18  1  0
 19 20  1  1
 20 21  1  0
 21 29  1  0
 21 22  2  0
 22 23  1  0
 24 23  1  0
 24 25  2  0
 26 25  1  0
 27 26  2  0
 28 29  2  0
 28 27  1  0
 29 24  1  0
 30 19  1  0
 31 30  2  0
 32 30  1  0
M  END
$$$$
