IQW.pdb
     RDKit          3D

 32 33  0  0  1  0  0  0  0  0999 V2000
    7.8433  -11.5722   19.6705 C   0  0  0  0  0  0  0  0  0  0  0  0
    7.8167  -13.0201   19.2944 C   0  0  0  0  0  0  0  0  0  0  0  0
    7.9405  -13.8431   20.5675 C   0  0  2  0  0  0  0  0  0  0  0  0
    9.2451  -13.5740   21.2718 C   0  0  0  0  0  0  0  0  0  0  0  0
    7.9332  -15.3029   20.1486 C   0  0  2  0  0  0  0  0  0  0  0  0
    6.6734  -15.6594   19.5247 N   0  0  0  0  0  0  0  0  0  0  0  0
    8.1007  -16.1372   21.3610 C   0  0  0  0  0  0  0  0  0  0  0  0
    7.1415  -16.3690   22.1571 O   0  0  0  0  0  0  0  0  0  0  0  0
   13.0565  -20.9090   23.4107 N   0  0  0  0  0  0  0  0  0  0  0  0
   11.8105  -20.7006   22.7475 C   0  0  0  0  0  0  0  0  0  0  0  0
   11.5149  -21.3464   21.7234 O   0  0  0  0  0  0  0  0  0  0  0  0
   10.8737  -19.7082   23.2886 C   0  0  0  0  0  0  0  0  0  0  0  0
   10.4097  -18.6953   22.3053 C   0  0  0  0  0  0  0  0  0  0  0  0
    9.5040  -17.6258   22.7959 C   0  0  2  0  0  0  0  0  0  0  0  0
    9.3615  -16.6941   21.6454 N   0  0  0  0  0  0  0  0  0  0  0  0
    9.9719  -16.8281   23.9266 C   0  0  0  0  0  0  0  0  0  0  0  0
   10.8208  -15.9208   23.7317 O   0  0  0  0  0  0  0  0  0  0  0  0
    9.5315  -17.0021   25.2456 N   0  0  0  0  0  0  0  0  0  0  0  0
   10.4151  -16.6771   26.3796 C   0  0  1  0  0  0  0  0  0  0  0  0
    9.6992  -15.5855   27.1163 C   0  0  0  0  0  0  0  0  0  0  0  0
    8.3335  -15.2835   26.7038 C   0  0  0  0  0  0  0  0  0  0  0  0
    7.3644  -16.2481   26.3908 C   0  0  0  0  0  0  0  0  0  0  0  0
    6.2640  -15.5992   26.0290 N   0  0  0  0  0  0  0  0  0  0  0  0
    6.4754  -14.2745   26.0939 C   0  0  0  0  0  0  0  0  0  0  0  0
    5.6595  -13.1924   25.8413 C   0  0  0  0  0  0  0  0  0  0  0  0
    6.1173  -11.8983   26.0053 C   0  0  0  0  0  0  0  0  0  0  0  0
    7.3962  -11.6788   26.4234 C   0  0  0  0  0  0  0  0  0  0  0  0
    8.2247  -12.7254   26.6797 C   0  0  0  0  0  0  0  0  0  0  0  0
    7.7767  -14.0386   26.5183 C   0  0  0  0  0  0  0  0  0  0  0  0
   10.6142  -17.9023   27.1547 C   0  0  0  0  0  0  0  0  0  0  0  0
   10.0002  -18.9846   26.9501 O   0  0  0  0  0  0  0  0  0  0  0  0
   11.5294  -17.9198   28.1931 O   0  0  0  0  0  0  0  0  0  0  0  0
  2  1  1  0
  3  4  1  6
  3  5  1  0
  3  2  1  0
  5  6  1  1
  7  5  1  0
  7  8  2  0
 10  9  1  0
 10 12  1  0
 11 10  2  0
 12 13  1  0
 14 13  1  6
 14 15  1  0
 15  7  1  0
 16 17  2  0
 16 14  1  0
 18 16  1  0
 19 18  1  0
 19 20  1  1
 20 21  1  0
 21 29  1  0
 21 22  2  0
 22 23  1  0
 24 23  1  0
 24 25  2  0
 26 25  1  0
 27 26  2  0
 28 29  2  0
 28 27  1  0
 29 24  1  0
 30 19  1  0
 31 30  2  0
 32 30  1  0
M  END
$$$$
