IQW.pdb
     RDKit          3D

 32 33  0  0  1  0  0  0  0  0999 V2000
    7.1610  -12.2305   18.0486 C   0  0  0  0  0  0  0  0  0  0  0  0
    8.4305  -12.9325   18.4149 C   0  0  0  0  0  0  0  0  0  0  0  0
    8.1443  -13.8422   19.5998 C   0  0  2  0  0  0  0  0  0  0  0  0
    7.6932  -13.0541   20.8021 C   0  0  0  0  0  0  0  0  0  0  0  0
    9.4545  -14.5223   19.9572 C   0  0  2  0  0  0  0  0  0  0  0  0
    9.9496  -15.3146   18.8479 N   0  0  0  0  0  0  0  0  0  0  0  0
    9.2118  -15.4307   21.1017 C   0  0  0  0  0  0  0  0  0  0  0  0
    8.6738  -15.0300   22.1776 O   0  0  0  0  0  0  0  0  0  0  0  0
   11.1435  -21.2845   22.4011 N   0  0  0  0  0  0  0  0  0  0  0  0
   11.7560  -20.4099   21.4546 C   0  0  0  0  0  0  0  0  0  0  0  0
   12.8791  -20.6669   20.9796 O   0  0  0  0  0  0  0  0  0  0  0  0
   11.0431  -19.1939   21.0444 C   0  0  0  0  0  0  0  0  0  0  0  0
    9.6813  -19.0510   21.6217 C   0  0  0  0  0  0  0  0  0  0  0  0
    9.2843  -17.7105   22.1221 C   0  0  2  0  0  0  0  0  0  0  0  0
    9.5874  -16.7832   20.9996 N   0  0  0  0  0  0  0  0  0  0  0  0
    9.9969  -17.2017   23.2912 C   0  0  0  0  0  0  0  0  0  0  0  0
   11.1903  -16.8239   23.1695 O   0  0  0  0  0  0  0  0  0  0  0  0
    9.4337  -17.0985   24.5703 N   0  0  0  0  0  0  0  0  0  0  0  0
   10.2584  -16.6894   25.7213 C   0  0  1  0  0  0  0  0  0  0  0  0
    9.8562  -15.2705   25.9896 C   0  0  0  0  0  0  0  0  0  0  0  0
    8.4307  -14.9916   26.1180 C   0  0  0  0  0  0  0  0  0  0  0  0
    7.4128  -15.9333   25.9068 C   0  0  0  0  0  0  0  0  0  0  0  0
    6.2544  -15.3082   26.0808 N   0  0  0  0  0  0  0  0  0  0  0  0
    6.4751  -14.0206   26.3922 C   0  0  0  0  0  0  0  0  0  0  0  0
    5.6212  -12.9774   26.6803 C   0  0  0  0  0  0  0  0  0  0  0  0
    6.1071  -11.7224   26.9968 C   0  0  0  0  0  0  0  0  0  0  0  0
    7.4523  -11.5033   27.0266 C   0  0  0  0  0  0  0  0  0  0  0  0
    8.3194  -12.5119   26.7464 C   0  0  0  0  0  0  0  0  0  0  0  0
    7.8436  -13.7852   26.4245 C   0  0  0  0  0  0  0  0  0  0  0  0
    9.9816  -17.6161   26.8195 C   0  0  0  0  0  0  0  0  0  0  0  0
    9.0953  -18.5126   26.7913 O   0  0  0  0  0  0  0  0  0  0  0  0
   10.7191  -17.5394   27.9885 O   0  0  0  0  0  0  0  0  0  0  0  0
  2  1  1  0
  3  4  1  1
  3  5  1  0
  3  2  1  0
  5  6  1  6
  7  5  1  0
  7  8  2  0
 10  9  1  0
 10 12  1  0
 11 10  2  0
 12 13  1  0
 14 13  1  6
 14 15  1  0
 15  7  1  0
 16 17  2  0
 16 14  1  0
 18 16  1  0
 19 18  1  0
 19 20  1  1
 20 21  1  0
 21 29  1  0
 21 22  2  0
 22 23  1  0
 24 23  1  0
 24 25  2  0
 26 25  1  0
 27 26  2  0
 28 29  2  0
 28 27  1  0
 29 24  1  0
 30 19  1  0
 31 30  2  0
 32 30  1  0
M  END
$$$$
