IQW.pdb
     RDKit          3D

 32 33  0  0  1  0  0  0  0  0999 V2000
    5.9949  -20.6557   25.5397 C   0  0  0  0  0  0  0  0  0  0  0  0
    5.5991  -20.2825   24.1459 C   0  0  0  0  0  0  0  0  0  0  0  0
    6.6263  -19.2975   23.6090 C   0  0  2  0  0  0  0  0  0  0  0  0
    6.7224  -18.0727   24.4813 C   0  0  0  0  0  0  0  0  0  0  0  0
    6.1361  -18.8545   22.2414 C   0  0  2  0  0  0  0  0  0  0  0  0
    5.9837  -19.9886   21.3503 N   0  0  0  0  0  0  0  0  0  0  0  0
    7.1450  -17.9406   21.6576 C   0  0  0  0  0  0  0  0  0  0  0  0
    8.1618  -18.3698   21.0336 O   0  0  0  0  0  0  0  0  0  0  0  0
    7.4457  -13.5708   17.5829 N   0  0  0  0  0  0  0  0  0  0  0  0
    8.3203  -13.6139   18.7094 C   0  0  0  0  0  0  0  0  0  0  0  0
    9.5278  -13.8897   18.5716 O   0  0  0  0  0  0  0  0  0  0  0  0
    7.7773  -13.3286   20.0431 C   0  0  0  0  0  0  0  0  0  0  0  0
    7.0884  -14.4761   20.6887 C   0  0  0  0  0  0  0  0  0  0  0  0
    7.9228  -15.6300   21.1098 C   0  0  2  0  0  0  0  0  0  0  0  0
    6.9768  -16.5501   21.7956 N   0  0  0  0  0  0  0  0  0  0  0  0
    9.0026  -15.3570   22.0550 C   0  0  0  0  0  0  0  0  0  0  0  0
   10.0026  -14.6960   21.6746 O   0  0  0  0  0  0  0  0  0  0  0  0
    9.0051  -15.7863   23.3891 N   0  0  0  0  0  0  0  0  0  0  0  0
   10.1007  -15.4030   24.2974 C   0  0  1  0  0  0  0  0  0  0  0  0
    9.5378  -14.2809   25.1166 C   0  0  0  0  0  0  0  0  0  0  0  0
    8.2210  -14.4805   25.7103 C   0  0  0  0  0  0  0  0  0  0  0  0
    7.5848  -15.7242   25.8371 C   0  0  0  0  0  0  0  0  0  0  0  0
    6.3973  -15.5057   26.3892 N   0  0  0  0  0  0  0  0  0  0  0  0
    6.2394  -14.1926   26.6228 C   0  0  0  0  0  0  0  0  0  0  0  0
    5.2102  -13.4688   27.1863 C   0  0  0  0  0  0  0  0  0  0  0  0
    5.2997  -12.0975   27.3370 C   0  0  0  0  0  0  0  0  0  0  0  0
    6.4209  -11.4412   26.9241 C   0  0  0  0  0  0  0  0  0  0  0  0
    7.4520  -12.1273   26.3641 C   0  0  0  0  0  0  0  0  0  0  0  0
    7.3762  -13.5130   26.2047 C   0  0  0  0  0  0  0  0  0  0  0  0
   10.4751  -16.5886   25.0691 C   0  0  0  0  0  0  0  0  0  0  0  0
   11.4219  -16.6297   25.9010 O   0  0  0  0  0  0  0  0  0  0  0  0
    9.7688  -17.7681   24.9066 O   0  0  0  0  0  0  0  0  0  0  0  0
  2  1  1  0
  3  4  1  1
  3  5  1  0
  3  2  1  0
  5  6  1  6
  7  5  1  0
  7  8  2  0
 10  9  1  0
 10 12  1  0
 11 10  2  0
 12 13  1  0
 14 13  1  1
 14 15  1  0
 15  7  1  0
 16 17  2  0
 16 14  1  0
 18 16  1  0
 19 18  1  0
 19 20  1  1
 20 21  1  0
 21 29  1  0
 21 22  2  0
 22 23  1  0
 24 23  1  0
 24 25  2  0
 26 25  1  0
 27 26  2  0
 28 29  2  0
 28 27  1  0
 29 24  1  0
 30 19  1  0
 31 30  2  0
 32 30  1  0
M  END
$$$$
