IQW.pdb
     RDKit          3D

 32 33  0  0  1  0  0  0  0  0999 V2000
    7.2154  -11.8332   19.2127 C   0  0  0  0  0  0  0  0  0  0  0  0
    7.8800  -13.1031   18.7836 C   0  0  0  0  0  0  0  0  0  0  0  0
    7.7627  -14.1072   19.9202 C   0  0  2  0  0  0  0  0  0  0  0  0
    8.4328  -13.6022   21.1716 C   0  0  0  0  0  0  0  0  0  0  0  0
    8.4964  -15.3605   19.4758 C   0  0  2  0  0  0  0  0  0  0  0  0
    7.8498  -15.9622   18.3253 N   0  0  0  0  0  0  0  0  0  0  0  0
    8.4649  -16.3387   20.5875 C   0  0  0  0  0  0  0  0  0  0  0  0
    7.4401  -17.0423   20.8370 O   0  0  0  0  0  0  0  0  0  0  0  0
   12.4650  -20.3829   20.8909 N   0  0  0  0  0  0  0  0  0  0  0  0
   11.9494  -20.6420   22.1958 C   0  0  0  0  0  0  0  0  0  0  0  0
   12.2961  -21.6567   22.8309 O   0  0  0  0  0  0  0  0  0  0  0  0
   10.9975  -19.6930   22.7861 C   0  0  0  0  0  0  0  0  0  0  0  0
   10.6343  -18.5529   21.9050 C   0  0  0  0  0  0  0  0  0  0  0  0
    9.6306  -17.5839   22.4136 C   0  0  2  0  0  0  0  0  0  0  0  0
    9.6047  -16.4982   21.3975 N   0  0  0  0  0  0  0  0  0  0  0  0
    9.9138  -16.9495   23.6986 C   0  0  0  0  0  0  0  0  0  0  0  0
   10.7067  -15.9743   23.7433 O   0  0  0  0  0  0  0  0  0  0  0  0
    9.3507  -17.3563   24.9158 N   0  0  0  0  0  0  0  0  0  0  0  0
    9.8382  -16.7990   26.1902 C   0  0  1  0  0  0  0  0  0  0  0  0
    8.5993  -16.5774   27.0045 C   0  0  0  0  0  0  0  0  0  0  0  0
    7.6618  -15.5641   26.5349 C   0  0  0  0  0  0  0  0  0  0  0  0
    6.4570  -15.8402   25.8717 C   0  0  0  0  0  0  0  0  0  0  0  0
    5.8954  -14.6751   25.5718 N   0  0  0  0  0  0  0  0  0  0  0  0
    6.6733  -13.6703   26.0067 C   0  0  0  0  0  0  0  0  0  0  0  0
    6.5307  -12.3000   25.9576 C   0  0  0  0  0  0  0  0  0  0  0  0
    7.4832  -11.4621   26.5072 C   0  0  0  0  0  0  0  0  0  0  0  0
    8.5857  -11.9910   27.1098 C   0  0  0  0  0  0  0  0  0  0  0  0
    8.7546  -13.3383   27.1732 C   0  0  0  0  0  0  0  0  0  0  0  0
    7.8012  -14.1977   26.6222 C   0  0  0  0  0  0  0  0  0  0  0  0
   10.7786  -17.7608   26.7663 C   0  0  0  0  0  0  0  0  0  0  0  0
   11.0192  -18.9010   26.2844 O   0  0  0  0  0  0  0  0  0  0  0  0
   11.4738  -17.4390   27.9194 O   0  0  0  0  0  0  0  0  0  0  0  0
  2  1  1  0
  3  4  1  1
  3  5  1  0
  3  2  1  0
  5  6  1  6
  7  5  1  0
  7  8  2  0
 10  9  1  0
 10 12  1  0
 11 10  2  0
 12 13  1  0
 14 13  1  6
 14 15  1  0
 15  7  1  0
 16 17  2  0
 16 14  1  0
 18 16  1  0
 19 18  1  0
 19 20  1  1
 20 21  1  0
 21 29  1  0
 21 22  2  0
 22 23  1  0
 24 23  1  0
 24 25  2  0
 26 25  1  0
 27 26  2  0
 28 29  2  0
 28 27  1  0
 29 24  1  0
 30 19  1  0
 31 30  2  0
 32 30  1  0
M  END
$$$$
