IQW.pdb
     RDKit          3D

 32 33  0  0  1  0  0  0  0  0999 V2000
    8.4552  -11.9920   19.1824 C   0  0  0  0  0  0  0  0  0  0  0  0
    7.2635  -12.8953   19.1333 C   0  0  0  0  0  0  0  0  0  0  0  0
    7.4610  -13.9973   20.1630 C   0  0  2  0  0  0  0  0  0  0  0  0
    7.7902  -13.4301   21.5195 C   0  0  0  0  0  0  0  0  0  0  0  0
    8.6529  -14.8188   19.7032 C   0  0  2  0  0  0  0  0  0  0  0  0
    8.4194  -15.3845   18.3883 N   0  0  0  0  0  0  0  0  0  0  0  0
    8.8472  -15.9342   20.6581 C   0  0  0  0  0  0  0  0  0  0  0  0
    7.9685  -16.8311   20.8343 O   0  0  0  0  0  0  0  0  0  0  0  0
   13.3424  -19.7682   20.9302 N   0  0  0  0  0  0  0  0  0  0  0  0
   12.4827  -19.1746   19.9583 C   0  0  0  0  0  0  0  0  0  0  0  0
   12.7186  -19.2899   18.7401 O   0  0  0  0  0  0  0  0  0  0  0  0
   11.3087  -18.4198   20.4133 C   0  0  0  0  0  0  0  0  0  0  0  0
   11.4197  -17.8755   21.7916 C   0  0  0  0  0  0  0  0  0  0  0  0
   10.2494  -17.1422   22.3371 C   0  0  2  0  0  0  0  0  0  0  0  0
   10.0425  -16.0081   21.3974 N   0  0  0  0  0  0  0  0  0  0  0  0
   10.3933  -16.5620   23.6699 C   0  0  0  0  0  0  0  0  0  0  0  0
   11.1737  -15.5903   23.8384 O   0  0  0  0  0  0  0  0  0  0  0  0
    9.7064  -17.0185   24.8030 N   0  0  0  0  0  0  0  0  0  0  0  0
   10.0741  -16.5370   26.1466 C   0  0  1  0  0  0  0  0  0  0  0  0
    8.7941  -16.5757   26.9257 C   0  0  0  0  0  0  0  0  0  0  0  0
    7.7263  -15.6764   26.5043 C   0  0  0  0  0  0  0  0  0  0  0  0
    6.5313  -16.0887   25.8963 C   0  0  0  0  0  0  0  0  0  0  0  0
    5.8274  -14.9954   25.6278 N   0  0  0  0  0  0  0  0  0  0  0  0
    6.5051  -13.9081   26.0306 C   0  0  0  0  0  0  0  0  0  0  0  0
    6.2052  -12.5631   25.9941 C   0  0  0  0  0  0  0  0  0  0  0  0
    7.0805  -11.6215   26.5026 C   0  0  0  0  0  0  0  0  0  0  0  0
    8.2628  -12.0207   27.0513 C   0  0  0  0  0  0  0  0  0  0  0  0
    8.5869  -13.3398   27.1010 C   0  0  0  0  0  0  0  0  0  0  0  0
    7.7131  -14.3029   26.5909 C   0  0  0  0  0  0  0  0  0  0  0  0
   11.1248  -17.4152   26.6625 C   0  0  0  0  0  0  0  0  0  0  0  0
   11.7038  -17.2608   27.7721 O   0  0  0  0  0  0  0  0  0  0  0  0
   11.5433  -18.5022   25.9146 O   0  0  0  0  0  0  0  0  0  0  0  0
  2  1  1  0
  3  4  1  1
  3  5  1  0
  3  2  1  0
  5  6  1  6
  7  5  1  0
  7  8  2  0
 10  9  1  0
 10 12  1  0
 11 10  2  0
 12 13  1  0
 14 13  1  6
 14 15  1  0
 15  7  1  0
 16 17  2  0
 16 14  1  0
 18 16  1  0
 19 18  1  0
 19 20  1  1
 20 21  1  0
 21 29  1  0
 21 22  2  0
 22 23  1  0
 24 23  1  0
 24 25  2  0
 26 25  1  0
 27 26  2  0
 28 29  2  0
 28 27  1  0
 29 24  1  0
 30 19  1  0
 31 30  2  0
 32 30  1  0
M  END
$$$$
