IQW.pdb
     RDKit          3D

 32 33  0  0  1  0  0  0  0  0999 V2000
    7.6041  -11.6151   19.5348 C   0  0  0  0  0  0  0  0  0  0  0  0
    7.8959  -13.0099   19.0791 C   0  0  0  0  0  0  0  0  0  0  0  0
    8.0417  -13.8904   20.3108 C   0  0  2  0  0  0  0  0  0  0  0  0
    9.2480  -13.5012   21.1256 C   0  0  0  0  0  0  0  0  0  0  0  0
    8.2574  -15.3089   19.8130 C   0  0  2  0  0  0  0  0  0  0  0  0
    7.1100  -15.7765   19.0591 N   0  0  0  0  0  0  0  0  0  0  0  0
    8.4305  -16.1945   20.9876 C   0  0  0  0  0  0  0  0  0  0  0  0
    7.4427  -16.6884   21.6103 O   0  0  0  0  0  0  0  0  0  0  0  0
   12.3679  -21.3613   21.3817 N   0  0  0  0  0  0  0  0  0  0  0  0
   12.6343  -20.2645   22.2546 C   0  0  0  0  0  0  0  0  0  0  0  0
   13.8040  -19.9485   22.5464 O   0  0  0  0  0  0  0  0  0  0  0  0
   11.5061  -19.5071   22.8103 C   0  0  0  0  0  0  0  0  0  0  0  0
   10.9994  -18.4199   21.9332 C   0  0  0  0  0  0  0  0  0  0  0  0
    9.9153  -17.5562   22.4659 C   0  0  2  0  0  0  0  0  0  0  0  0
    9.7296  -16.5025   21.4328 N   0  0  0  0  0  0  0  0  0  0  0  0
   10.1765  -16.8666   23.7268 C   0  0  0  0  0  0  0  0  0  0  0  0
   10.9562  -15.8799   23.7398 O   0  0  0  0  0  0  0  0  0  0  0  0
    9.6057  -17.2312   24.9537 N   0  0  0  0  0  0  0  0  0  0  0  0
   10.0467  -16.5897   26.2053 C   0  0  1  0  0  0  0  0  0  0  0  0
    8.8106  -16.5198   27.0503 C   0  0  0  0  0  0  0  0  0  0  0  0
    7.7386  -15.6413   26.5971 C   0  0  0  0  0  0  0  0  0  0  0  0
    6.5615  -16.0783   25.9719 C   0  0  0  0  0  0  0  0  0  0  0  0
    5.8475  -14.9987   25.6759 N   0  0  0  0  0  0  0  0  0  0  0  0
    6.5019  -13.8968   26.0776 C   0  0  0  0  0  0  0  0  0  0  0  0
    6.1837  -12.5568   26.0182 C   0  0  0  0  0  0  0  0  0  0  0  0
    7.0357  -11.5964   26.5312 C   0  0  0  0  0  0  0  0  0  0  0  0
    8.2128  -11.9716   27.1074 C   0  0  0  0  0  0  0  0  0  0  0  0
    8.5544  -13.2853   27.1802 C   0  0  0  0  0  0  0  0  0  0  0  0
    7.7043  -14.2671   26.6659 C   0  0  0  0  0  0  0  0  0  0  0  0
   11.1217  -17.4065   26.7697 C   0  0  0  0  0  0  0  0  0  0  0  0
   11.4684  -18.5355   26.3277 O   0  0  0  0  0  0  0  0  0  0  0  0
   11.8338  -16.9474   27.8645 O   0  0  0  0  0  0  0  0  0  0  0  0
  2  1  1  0
  3  4  1  6
  3  5  1  0
  3  2  1  0
  5  6  1  1
  7  5  1  0
  7  8  2  0
 10  9  1  0
 10 12  1  0
 11 10  2  0
 12 13  1  0
 14 13  1  6
 14 15  1  0
 15  7  1  0
 16 17  2  0
 16 14  1  0
 18 16  1  0
 19 18  1  0
 19 20  1  1
 20 21  1  0
 21 29  1  0
 21 22  2  0
 22 23  1  0
 24 23  1  0
 24 25  2  0
 26 25  1  0
 27 26  2  0
 28 29  2  0
 28 27  1  0
 29 24  1  0
 30 19  1  0
 31 30  2  0
 32 30  1  0
M  END
$$$$
