IQW.pdb
     RDKit          3D

 32 33  0  0  1  0  0  0  0  0999 V2000
    7.6084  -11.7904   19.0641 C   0  0  0  0  0  0  0  0  0  0  0  0
    7.8552  -13.2062   18.6482 C   0  0  0  0  0  0  0  0  0  0  0  0
    8.1370  -14.0255   19.8983 C   0  0  2  0  0  0  0  0  0  0  0  0
    9.4185  -13.5929   20.5623 C   0  0  0  0  0  0  0  0  0  0  0  0
    8.3120  -15.4657   19.4489 C   0  0  2  0  0  0  0  0  0  0  0  0
    7.1031  -15.9665   18.8231 N   0  0  0  0  0  0  0  0  0  0  0  0
    8.5924  -16.2964   20.6426 C   0  0  0  0  0  0  0  0  0  0  0  0
    7.6662  -16.7533   21.3782 O   0  0  0  0  0  0  0  0  0  0  0  0
   13.8448  -19.8955   21.8929 N   0  0  0  0  0  0  0  0  0  0  0  0
   12.6373  -20.2376   22.5720 C   0  0  0  0  0  0  0  0  0  0  0  0
   12.6645  -20.8638   23.6491 O   0  0  0  0  0  0  0  0  0  0  0  0
   11.3527  -19.8413   21.9823 C   0  0  0  0  0  0  0  0  0  0  0  0
   11.2936  -18.4303   21.5198 C   0  0  0  0  0  0  0  0  0  0  0  0
   10.2057  -17.5755   22.0588 C   0  0  2  0  0  0  0  0  0  0  0  0
    9.9268  -16.5926   20.9780 N   0  0  0  0  0  0  0  0  0  0  0  0
   10.5043  -16.8029   23.2620 C   0  0  0  0  0  0  0  0  0  0  0  0
   11.2226  -15.7745   23.1718 O   0  0  0  0  0  0  0  0  0  0  0  0
   10.0352  -17.1301   24.5414 N   0  0  0  0  0  0  0  0  0  0  0  0
   10.4873  -16.3720   25.7217 C   0  0  1  0  0  0  0  0  0  0  0  0
    9.8278  -15.0327   25.5865 C   0  0  0  0  0  0  0  0  0  0  0  0
    8.4054  -14.9524   25.8975 C   0  0  0  0  0  0  0  0  0  0  0  0
    7.5008  -16.0168   25.7691 C   0  0  0  0  0  0  0  0  0  0  0  0
    6.3017  -15.5588   26.1084 N   0  0  0  0  0  0  0  0  0  0  0  0
    6.3895  -14.2622   26.4470 C   0  0  0  0  0  0  0  0  0  0  0  0
    5.4494  -13.3521   26.8812 C   0  0  0  0  0  0  0  0  0  0  0  0
    5.8030  -12.0521   27.1916 C   0  0  0  0  0  0  0  0  0  0  0  0
    7.1011  -11.6543   27.0691 C   0  0  0  0  0  0  0  0  0  0  0  0
    8.0506  -12.5286   26.6428 C   0  0  0  0  0  0  0  0  0  0  0  0
    7.7087  -13.8451   26.3249 C   0  0  0  0  0  0  0  0  0  0  0  0
   10.0925  -17.1248   26.9128 C   0  0  0  0  0  0  0  0  0  0  0  0
   10.2762  -16.7347   28.0979 O   0  0  0  0  0  0  0  0  0  0  0  0
    9.4717  -18.3546   26.7766 O   0  0  0  0  0  0  0  0  0  0  0  0
  2  1  1  0
  3  4  1  6
  3  5  1  0
  3  2  1  0
  5  6  1  1
  7  5  1  0
  7  8  2  0
 10  9  1  0
 10 12  1  0
 11 10  2  0
 12 13  1  0
 14 13  1  6
 14 15  1  0
 15  7  1  0
 16 17  2  0
 16 14  1  0
 18 16  1  0
 19 18  1  0
 19 20  1  1
 20 21  1  0
 21 29  1  0
 21 22  2  0
 22 23  1  0
 24 23  1  0
 24 25  2  0
 26 25  1  0
 27 26  2  0
 28 29  2  0
 28 27  1  0
 29 24  1  0
 30 19  1  0
 31 30  2  0
 32 30  1  0
M  END
$$$$
