IQW.pdb
     RDKit          3D

 32 33  0  0  1  0  0  0  0  0999 V2000
    7.8682  -11.5819   19.5805 C   0  0  0  0  0  0  0  0  0  0  0  0
    8.1596  -12.9698   19.1038 C   0  0  0  0  0  0  0  0  0  0  0  0
    8.2177  -13.8855   20.3169 C   0  0  2  0  0  0  0  0  0  0  0  0
    9.3650  -13.5242   21.2244 C   0  0  0  0  0  0  0  0  0  0  0  0
    8.4651  -15.2901   19.7949 C   0  0  2  0  0  0  0  0  0  0  0  0
    7.3771  -15.7277   18.9415 N   0  0  0  0  0  0  0  0  0  0  0  0
    8.5435  -16.2111   20.9523 C   0  0  0  0  0  0  0  0  0  0  0  0
    7.5071  -16.6399   21.5434 O   0  0  0  0  0  0  0  0  0  0  0  0
   12.8712  -20.3709   21.1111 N   0  0  0  0  0  0  0  0  0  0  0  0
   12.3323  -20.6196   22.4086 C   0  0  0  0  0  0  0  0  0  0  0  0
   12.7217  -21.5891   23.0880 O   0  0  0  0  0  0  0  0  0  0  0  0
   11.3051  -19.7142   22.9380 C   0  0  0  0  0  0  0  0  0  0  0  0
   10.9235  -18.6087   22.0212 C   0  0  0  0  0  0  0  0  0  0  0  0
    9.8835  -17.6571   22.4878 C   0  0  2  0  0  0  0  0  0  0  0  0
    9.8049  -16.6282   21.4167 N   0  0  0  0  0  0  0  0  0  0  0  0
   10.1485  -16.9450   23.7353 C   0  0  0  0  0  0  0  0  0  0  0  0
   10.8587  -15.9072   23.7140 O   0  0  0  0  0  0  0  0  0  0  0  0
    9.6552  -17.3416   24.9857 N   0  0  0  0  0  0  0  0  0  0  0  0
   10.0161  -16.5957   26.2045 C   0  0  1  0  0  0  0  0  0  0  0  0
    8.7608  -16.5795   27.0237 C   0  0  0  0  0  0  0  0  0  0  0  0
    7.6448  -15.7857   26.5230 C   0  0  0  0  0  0  0  0  0  0  0  0
    6.4767  -16.3204   25.9597 C   0  0  0  0  0  0  0  0  0  0  0  0
    5.7124  -15.2988   25.5920 N   0  0  0  0  0  0  0  0  0  0  0  0
    6.3262  -14.1419   25.8893 C   0  0  0  0  0  0  0  0  0  0  0  0
    5.9505  -12.8253   25.7279 C   0  0  0  0  0  0  0  0  0  0  0  0
    6.7696  -11.7921   26.1435 C   0  0  0  0  0  0  0  0  0  0  0  0
    7.9713  -12.0703   26.7238 C   0  0  0  0  0  0  0  0  0  0  0  0
    8.3697  -13.3585   26.8959 C   0  0  0  0  0  0  0  0  0  0  0  0
    7.5533  -14.4131   26.4807 C   0  0  0  0  0  0  0  0  0  0  0  0
   11.1417  -17.2877   26.8334 C   0  0  0  0  0  0  0  0  0  0  0  0
   11.6087  -18.3925   26.4440 O   0  0  0  0  0  0  0  0  0  0  0  0
   11.7671  -16.7276   27.9341 O   0  0  0  0  0  0  0  0  0  0  0  0
  2  1  1  0
  3  4  1  1
  3  5  1  0
  3  2  1  0
  5  6  1  6
  7  5  1  0
  7  8  2  0
 10  9  1  0
 10 12  1  0
 11 10  2  0
 12 13  1  0
 14 13  1  6
 14 15  1  0
 15  7  1  0
 16 17  2  0
 16 14  1  0
 18 16  1  0
 19 18  1  0
 19 20  1  1
 20 21  1  0
 21 29  1  0
 21 22  2  0
 22 23  1  0
 24 23  1  0
 24 25  2  0
 26 25  1  0
 27 26  2  0
 28 29  2  0
 28 27  1  0
 29 24  1  0
 30 19  1  0
 31 30  2  0
 32 30  1  0
M  END
$$$$
