IQW.pdb
     RDKit          3D

 32 33  0  0  1  0  0  0  0  0999 V2000
    7.5806  -11.6589   19.8807 C   0  0  0  0  0  0  0  0  0  0  0  0
    7.8257  -13.0363   19.3505 C   0  0  0  0  0  0  0  0  0  0  0  0
    8.0128  -13.9736   20.5337 C   0  0  2  0  0  0  0  0  0  0  0  0
    9.1969  -13.5699   21.3735 C   0  0  0  0  0  0  0  0  0  0  0  0
    8.2993  -15.3509   19.9613 C   0  0  2  0  0  0  0  0  0  0  0  0
    7.1777  -15.8332   19.1784 N   0  0  0  0  0  0  0  0  0  0  0  0
    8.5140  -16.2889   21.0874 C   0  0  0  0  0  0  0  0  0  0  0  0
    7.5573  -16.7111   21.8042 O   0  0  0  0  0  0  0  0  0  0  0  0
   12.9955  -21.1045   21.4928 N   0  0  0  0  0  0  0  0  0  0  0  0
   11.9316  -20.8821   22.4172 C   0  0  0  0  0  0  0  0  0  0  0  0
   11.1751  -21.8121   22.7577 O   0  0  0  0  0  0  0  0  0  0  0  0
   11.7359  -19.5346   22.9660 C   0  0  0  0  0  0  0  0  0  0  0  0
   11.1692  -18.5522   22.0059 C   0  0  0  0  0  0  0  0  0  0  0  0
   10.0274  -17.7219   22.4660 C   0  0  2  0  0  0  0  0  0  0  0  0
    9.8186  -16.7302   21.3774 N   0  0  0  0  0  0  0  0  0  0  0  0
   10.2161  -16.9597   23.6977 C   0  0  0  0  0  0  0  0  0  0  0  0
   10.9672  -15.9510   23.6896 O   0  0  0  0  0  0  0  0  0  0  0  0
    9.6044  -17.2763   24.9182 N   0  0  0  0  0  0  0  0  0  0  0  0
   10.0195  -16.6023   26.1614 C   0  0  1  0  0  0  0  0  0  0  0  0
    8.7568  -16.4667   26.9579 C   0  0  0  0  0  0  0  0  0  0  0  0
    7.6934  -15.6449   26.3921 C   0  0  0  0  0  0  0  0  0  0  0  0
    6.5588  -16.1493   25.7396 C   0  0  0  0  0  0  0  0  0  0  0  0
    5.8408  -15.1083   25.3348 N   0  0  0  0  0  0  0  0  0  0  0  0
    6.4525  -13.9675   25.6928 C   0  0  0  0  0  0  0  0  0  0  0  0
    6.1126  -12.6420   25.5258 C   0  0  0  0  0  0  0  0  0  0  0  0
    6.9185  -11.6304   26.0143 C   0  0  0  0  0  0  0  0  0  0  0  0
    8.0710  -11.9396   26.6735 C   0  0  0  0  0  0  0  0  0  0  0  0
    8.4332  -13.2373   26.8531 C   0  0  0  0  0  0  0  0  0  0  0  0
    7.6296  -14.2703   26.3650 C   0  0  0  0  0  0  0  0  0  0  0  0
   11.0493  -17.4278   26.7933 C   0  0  0  0  0  0  0  0  0  0  0  0
   11.3801  -18.5803   26.4027 O   0  0  0  0  0  0  0  0  0  0  0  0
   11.7328  -16.9508   27.8986 O   0  0  0  0  0  0  0  0  0  0  0  0
  2  1  1  0
  3  4  1  1
  3  5  1  0
  3  2  1  0
  5  6  1  1
  7  5  1  0
  7  8  2  0
 10  9  1  0
 10 12  1  0
 11 10  2  0
 12 13  1  0
 14 13  1  6
 14 15  1  0
 15  7  1  0
 16 17  2  0
 16 14  1  0
 18 16  1  0
 19 18  1  0
 19 20  1  1
 20 21  1  0
 21 29  1  0
 21 22  2  0
 22 23  1  0
 24 23  1  0
 24 25  2  0
 26 25  1  0
 27 26  2  0
 28 29  2  0
 28 27  1  0
 29 24  1  0
 30 19  1  0
 31 30  2  0
 32 30  1  0
M  END
$$$$
