IQW.pdb
     RDKit          3D

 32 33  0  0  1  0  0  0  0  0999 V2000
    7.4740  -11.7596   19.2483 C   0  0  0  0  0  0  0  0  0  0  0  0
    7.9939  -13.1143   18.8836 C   0  0  0  0  0  0  0  0  0  0  0  0
    7.8799  -14.0111   20.1069 C   0  0  2  0  0  0  0  0  0  0  0  0
    8.7582  -13.5238   21.2300 C   0  0  0  0  0  0  0  0  0  0  0  0
    8.3784  -15.3844   19.6921 C   0  0  2  0  0  0  0  0  0  0  0  0
    7.5671  -15.9315   18.6215 N   0  0  0  0  0  0  0  0  0  0  0  0
    8.2752  -16.2906   20.8591 C   0  0  0  0  0  0  0  0  0  0  0  0
    7.1580  -16.6975   21.2995 O   0  0  0  0  0  0  0  0  0  0  0  0
   11.5713  -20.8079   20.3494 N   0  0  0  0  0  0  0  0  0  0  0  0
   12.2098  -19.8584   21.2018 C   0  0  0  0  0  0  0  0  0  0  0  0
   13.3680  -20.0510   21.6197 O   0  0  0  0  0  0  0  0  0  0  0  0
   11.4810  -18.6430   21.5850 C   0  0  0  0  0  0  0  0  0  0  0  0
   10.1214  -18.8846   22.1339 C   0  0  0  0  0  0  0  0  0  0  0  0
    9.3543  -17.7067   22.6125 C   0  0  2  0  0  0  0  0  0  0  0  0
    9.4500  -16.7182   21.5055 N   0  0  0  0  0  0  0  0  0  0  0  0
    9.8464  -17.0394   23.8151 C   0  0  0  0  0  0  0  0  0  0  0  0
   10.7406  -16.1611   23.7106 O   0  0  0  0  0  0  0  0  0  0  0  0
    9.3821  -17.3107   25.1092 N   0  0  0  0  0  0  0  0  0  0  0  0
   10.0401  -16.7092   26.2828 C   0  0  1  0  0  0  0  0  0  0  0  0
    8.9125  -16.3199   27.1905 C   0  0  0  0  0  0  0  0  0  0  0  0
    7.8473  -15.5022   26.6221 C   0  0  0  0  0  0  0  0  0  0  0  0
    6.7048  -16.0116   25.9874 C   0  0  0  0  0  0  0  0  0  0  0  0
    5.9874  -14.9739   25.5736 N   0  0  0  0  0  0  0  0  0  0  0  0
    6.6068  -13.8304   25.9090 C   0  0  0  0  0  0  0  0  0  0  0  0
    6.2707  -12.5061   25.7252 C   0  0  0  0  0  0  0  0  0  0  0  0
    7.0850  -11.4907   26.1913 C   0  0  0  0  0  0  0  0  0  0  0  0
    8.2422  -11.7947   26.8447 C   0  0  0  0  0  0  0  0  0  0  0  0
    8.6008  -13.0911   27.0404 C   0  0  0  0  0  0  0  0  0  0  0  0
    7.7887  -14.1280   26.5750 C   0  0  0  0  0  0  0  0  0  0  0  0
   10.9521  -17.7074   26.8425 C   0  0  0  0  0  0  0  0  0  0  0  0
   11.0730  -18.8861   26.4109 O   0  0  0  0  0  0  0  0  0  0  0  0
   11.7562  -17.3788   27.9204 O   0  0  0  0  0  0  0  0  0  0  0  0
  2  1  1  0
  3  4  1  1
  3  5  1  0
  3  2  1  0
  5  6  1  6
  7  5  1  0
  7  8  2  0
 10  9  1  0
 10 12  1  0
 11 10  2  0
 12 13  1  0
 14 13  1  6
 14 15  1  0
 15  7  1  0
 16 17  2  0
 16 14  1  0
 18 16  1  0
 19 18  1  0
 19 20  1  1
 20 21  1  0
 21 29  1  0
 21 22  2  0
 22 23  1  0
 24 23  1  0
 24 25  2  0
 26 25  1  0
 27 26  2  0
 28 29  2  0
 28 27  1  0
 29 24  1  0
 30 19  1  0
 31 30  2  0
 32 30  1  0
M  END
$$$$
