IQW.pdb
     RDKit          3D

 32 33  0  0  1  0  0  0  0  0999 V2000
    8.1060  -12.5476   17.2669 C   0  0  0  0  0  0  0  0  0  0  0  0
    8.6424  -13.8544   17.7602 C   0  0  0  0  0  0  0  0  0  0  0  0
    7.7787  -14.3119   18.9256 C   0  0  2  0  0  0  0  0  0  0  0  0
    7.9427  -13.4080   20.1200 C   0  0  0  0  0  0  0  0  0  0  0  0
    8.2703  -15.6937   19.3200 C   0  0  2  0  0  0  0  0  0  0  0  0
    8.1253  -16.6309   18.2225 N   0  0  0  0  0  0  0  0  0  0  0  0
    7.4461  -16.1768   20.4519 C   0  0  0  0  0  0  0  0  0  0  0  0
    6.3285  -16.7490   20.2756 O   0  0  0  0  0  0  0  0  0  0  0  0
    7.3794  -20.8223   23.0751 N   0  0  0  0  0  0  0  0  0  0  0  0
    6.7902  -19.9709   24.0569 C   0  0  0  0  0  0  0  0  0  0  0  0
    6.8314  -20.2659   25.2670 O   0  0  0  0  0  0  0  0  0  0  0  0
    6.1290  -18.7345   23.6221 C   0  0  0  0  0  0  0  0  0  0  0  0
    6.8955  -17.9404   22.6271 C   0  0  0  0  0  0  0  0  0  0  0  0
    7.0902  -16.4947   22.9047 C   0  0  2  0  0  0  0  0  0  0  0  0
    7.9114  -15.9989   21.7682 N   0  0  0  0  0  0  0  0  0  0  0  0
    7.8103  -16.1456   24.1267 C   0  0  0  0  0  0  0  0  0  0  0  0
    7.1971  -15.5666   25.0597 O   0  0  0  0  0  0  0  0  0  0  0  0
    9.1681  -16.4176   24.3426 N   0  0  0  0  0  0  0  0  0  0  0  0
    9.9604  -15.5882   25.2681 C   0  0  1  0  0  0  0  0  0  0  0  0
    9.1903  -15.6151   26.5538 C   0  0  0  0  0  0  0  0  0  0  0  0
    7.9159  -14.9070   26.5858 C   0  0  0  0  0  0  0  0  0  0  0  0
    6.6612  -15.5193   26.4505 C   0  0  0  0  0  0  0  0  0  0  0  0
    5.7461  -14.5583   26.4959 N   0  0  0  0  0  0  0  0  0  0  0  0
    6.3457  -13.3668   26.6533 C   0  0  0  0  0  0  0  0  0  0  0  0
    5.8471  -12.0871   26.7725 C   0  0  0  0  0  0  0  0  0  0  0  0
    6.6895  -11.0055   26.9504 C   0  0  0  0  0  0  0  0  0  0  0  0
    8.0378  -11.1981   27.0099 C   0  0  0  0  0  0  0  0  0  0  0  0
    8.5593  -12.4480   26.8947 C   0  0  0  0  0  0  0  0  0  0  0  0
    7.7210  -13.5507   26.7142 C   0  0  0  0  0  0  0  0  0  0  0  0
   11.3005  -16.1701   25.3516 C   0  0  0  0  0  0  0  0  0  0  0  0
   12.2446  -15.6936   26.0386 O   0  0  0  0  0  0  0  0  0  0  0  0
   11.5968  -17.3227   24.6445 O   0  0  0  0  0  0  0  0  0  0  0  0
  2  1  1  0
  3  4  1  1
  3  5  1  0
  3  2  1  0
  5  6  1  6
  7  5  1  0
  7  8  2  0
 10  9  1  0
 10 12  1  0
 11 10  2  0
 12 13  1  0
 14 13  1  6
 14 15  1  0
 15  7  1  0
 16 17  2  0
 16 14  1  0
 18 16  1  0
 19 18  1  0
 19 20  1  1
 20 21  1  0
 21 29  1  0
 21 22  2  0
 22 23  1  0
 24 23  1  0
 24 25  2  0
 26 25  1  0
 27 26  2  0
 28 29  2  0
 28 27  1  0
 29 24  1  0
 30 19  1  0
 31 30  2  0
 32 30  1  0
M  END
$$$$
