IQW.pdb
     RDKit          3D

 32 33  0  0  1  0  0  0  0  0999 V2000
    7.6597  -11.6344   19.6485 C   0  0  0  0  0  0  0  0  0  0  0  0
    7.8331  -13.0273   19.1304 C   0  0  0  0  0  0  0  0  0  0  0  0
    8.0203  -13.9560   20.3204 C   0  0  2  0  0  0  0  0  0  0  0  0
    9.1938  -13.5358   21.1669 C   0  0  0  0  0  0  0  0  0  0  0  0
    8.3249  -15.3336   19.7581 C   0  0  2  0  0  0  0  0  0  0  0  0
    7.2069  -15.8393   18.9849 N   0  0  0  0  0  0  0  0  0  0  0  0
    8.5592  -16.2586   20.8909 C   0  0  0  0  0  0  0  0  0  0  0  0
    7.6095  -16.8607   21.4766 O   0  0  0  0  0  0  0  0  0  0  0  0
   13.4055  -19.8323   20.7734 N   0  0  0  0  0  0  0  0  0  0  0  0
   13.0601  -20.0178   22.1453 C   0  0  0  0  0  0  0  0  0  0  0  0
   13.7858  -20.6912   22.9023 O   0  0  0  0  0  0  0  0  0  0  0  0
   11.8300  -19.4026   22.6588 C   0  0  0  0  0  0  0  0  0  0  0  0
   11.3138  -18.2755   21.8394 C   0  0  0  0  0  0  0  0  0  0  0  0
   10.1311  -17.5385   22.3522 C   0  0  2  0  0  0  0  0  0  0  0  0
    9.8752  -16.4819   21.3373 N   0  0  0  0  0  0  0  0  0  0  0  0
   10.2791  -16.8595   23.6370 C   0  0  0  0  0  0  0  0  0  0  0  0
   10.9477  -15.7960   23.6988 O   0  0  0  0  0  0  0  0  0  0  0  0
    9.7146  -17.3160   24.8357 N   0  0  0  0  0  0  0  0  0  0  0  0
   10.0125  -16.6382   26.1101 C   0  0  1  0  0  0  0  0  0  0  0  0
    8.6976  -16.5873   26.8279 C   0  0  0  0  0  0  0  0  0  0  0  0
    7.7081  -15.6309   26.3455 C   0  0  0  0  0  0  0  0  0  0  0  0
    6.4854  -15.9803   25.7534 C   0  0  0  0  0  0  0  0  0  0  0  0
    5.8738  -14.8514   25.4151 N   0  0  0  0  0  0  0  0  0  0  0  0
    6.6366  -13.8007   25.7585 C   0  0  0  0  0  0  0  0  0  0  0  0
    6.4475  -12.4403   25.6401 C   0  0  0  0  0  0  0  0  0  0  0  0
    7.3950  -11.5443   26.0992 C   0  0  0  0  0  0  0  0  0  0  0  0
    8.5391  -12.0048   26.6800 C   0  0  0  0  0  0  0  0  0  0  0  0
    8.7544  -13.3406   26.8102 C   0  0  0  0  0  0  0  0  0  0  0  0
    7.8066  -14.2581   26.3508 C   0  0  0  0  0  0  0  0  0  0  0  0
   11.0478  -17.4128   26.7953 C   0  0  0  0  0  0  0  0  0  0  0  0
   11.4549  -18.5469   26.4235 O   0  0  0  0  0  0  0  0  0  0  0  0
   11.6489  -16.9043   27.9339 O   0  0  0  0  0  0  0  0  0  0  0  0
  2  1  1  0
  3  4  1  1
  3  5  1  0
  3  2  1  0
  5  6  1  1
  7  5  1  0
  7  8  2  0
 10  9  1  0
 10 12  1  0
 11 10  2  0
 12 13  1  0
 14 13  1  6
 14 15  1  0
 15  7  1  0
 16 17  2  0
 16 14  1  0
 18 16  1  0
 19 18  1  0
 19 20  1  1
 20 21  1  0
 21 29  1  0
 21 22  2  0
 22 23  1  0
 24 23  1  0
 24 25  2  0
 26 25  1  0
 27 26  2  0
 28 29  2  0
 28 27  1  0
 29 24  1  0
 30 19  1  0
 31 30  2  0
 32 30  1  0
M  END
$$$$
