IQW.pdb
     RDKit          3D

 32 33  0  0  1  0  0  0  0  0999 V2000
    7.3670  -12.3481   18.8337 C   0  0  0  0  0  0  0  0  0  0  0  0
    7.9635  -13.6366   18.3623 C   0  0  0  0  0  0  0  0  0  0  0  0
    8.3856  -14.4387   19.5838 C   0  0  2  0  0  0  0  0  0  0  0  0
    9.4266  -13.7061   20.3901 C   0  0  0  0  0  0  0  0  0  0  0  0
    9.0164  -15.7212   19.0700 C   0  0  2  0  0  0  0  0  0  0  0  0
    8.0521  -16.5180   18.3358 N   0  0  0  0  0  0  0  0  0  0  0  0
    9.4791  -16.5124   20.2335 C   0  0  0  0  0  0  0  0  0  0  0  0
    8.6832  -17.2046   20.9370 O   0  0  0  0  0  0  0  0  0  0  0  0
   13.5825  -20.7065   21.6839 N   0  0  0  0  0  0  0  0  0  0  0  0
   12.6757  -19.9953   20.8425 C   0  0  0  0  0  0  0  0  0  0  0  0
   11.6176  -20.5245   20.4506 O   0  0  0  0  0  0  0  0  0  0  0  0
   13.0063  -18.6228   20.4398 C   0  0  0  0  0  0  0  0  0  0  0  0
   12.7273  -17.5913   21.4724 C   0  0  0  0  0  0  0  0  0  0  0  0
   11.3055  -17.2735   21.7597 C   0  0  2  0  0  0  0  0  0  0  0  0
   10.8443  -16.5009   20.5755 N   0  0  0  0  0  0  0  0  0  0  0  0
   11.0353  -16.4456   22.9324 C   0  0  0  0  0  0  0  0  0  0  0  0
   11.0776  -15.1932   22.8259 O   0  0  0  0  0  0  0  0  0  0  0  0
   10.7220  -16.9571   24.1990 N   0  0  0  0  0  0  0  0  0  0  0  0
    9.9258  -16.1629   25.1517 C   0  0  1  0  0  0  0  0  0  0  0  0
    8.6316  -15.9053   24.4407 C   0  0  0  0  0  0  0  0  0  0  0  0
    7.6247  -15.1211   25.1461 C   0  0  0  0  0  0  0  0  0  0  0  0
    6.3326  -15.5738   25.4513 C   0  0  0  0  0  0  0  0  0  0  0  0
    5.6996  -14.5788   26.0612 N   0  0  0  0  0  0  0  0  0  0  0  0
    6.5148  -13.5164   26.1635 C   0  0  0  0  0  0  0  0  0  0  0  0
    6.3428  -12.2665   26.7192 C   0  0  0  0  0  0  0  0  0  0  0  0
    7.3650  -11.3357   26.7152 C   0  0  0  0  0  0  0  0  0  0  0  0
    8.5670  -11.6503   26.1542 C   0  0  0  0  0  0  0  0  0  0  0  0
    8.7665  -12.8743   25.5979 C   0  0  0  0  0  0  0  0  0  0  0  0
    7.7433  -13.8251   25.5939 C   0  0  0  0  0  0  0  0  0  0  0  0
    9.7964  -16.9430   26.3830 C   0  0  0  0  0  0  0  0  0  0  0  0
    9.6350  -16.4452   27.5303 O   0  0  0  0  0  0  0  0  0  0  0  0
    9.8490  -18.3254   26.3319 O   0  0  0  0  0  0  0  0  0  0  0  0
  2  1  1  0
  3  4  1  6
  3  5  1  0
  3  2  1  0
  5  6  1  1
  7  5  1  0
  7  8  2  0
 10  9  1  0
 10 12  1  0
 11 10  2  0
 12 13  1  0
 14 13  1  6
 14 15  1  0
 15  7  1  0
 16 17  2  0
 16 14  1  0
 18 16  1  0
 19 18  1  0
 19 20  1  6
 20 21  1  0
 21 29  1  0
 21 22  2  0
 22 23  1  0
 24 23  1  0
 24 25  2  0
 26 25  1  0
 27 26  2  0
 28 29  2  0
 28 27  1  0
 29 24  1  0
 30 19  1  0
 31 30  2  0
 32 30  1  0
M  END
$$$$
