IQW.pdb
     RDKit          3D

 32 33  0  0  1  0  0  0  0  0999 V2000
    7.9418  -11.5288   19.8494 C   0  0  0  0  0  0  0  0  0  0  0  0
    7.6054  -12.9376   19.4744 C   0  0  0  0  0  0  0  0  0  0  0  0
    7.8375  -13.8204   20.6911 C   0  0  2  0  0  0  0  0  0  0  0  0
    9.2889  -13.8292   21.0956 C   0  0  0  0  0  0  0  0  0  0  0  0
    7.4616  -15.2348   20.2849 C   0  0  2  0  0  0  0  0  0  0  0  0
    6.0910  -15.2947   19.8146 N   0  0  0  0  0  0  0  0  0  0  0  0
    7.5806  -16.1092   21.4744 C   0  0  0  0  0  0  0  0  0  0  0  0
    6.7722  -16.0353   22.4484 O   0  0  0  0  0  0  0  0  0  0  0  0
    8.6788  -21.8089   21.9124 N   0  0  0  0  0  0  0  0  0  0  0  0
    9.4648  -21.5028   23.0633 C   0  0  0  0  0  0  0  0  0  0  0  0
    9.7899  -22.3940   23.8714 O   0  0  0  0  0  0  0  0  0  0  0  0
    9.8884  -20.1151   23.2870 C   0  0  0  0  0  0  0  0  0  0  0  0
    9.4061  -19.1492   22.2660 C   0  0  0  0  0  0  0  0  0  0  0  0
    8.7739  -17.8959   22.7503 C   0  0  2  0  0  0  0  0  0  0  0  0
    8.6212  -17.0549   21.5332 N   0  0  0  0  0  0  0  0  0  0  0  0
    9.5296  -17.1028   23.7165 C   0  0  0  0  0  0  0  0  0  0  0  0
   10.5679  -16.5001   23.3417 O   0  0  0  0  0  0  0  0  0  0  0  0
    9.1725  -16.9583   25.0640 N   0  0  0  0  0  0  0  0  0  0  0  0
   10.1714  -16.5381   26.0629 C   0  0  1  0  0  0  0  0  0  0  0  0
    9.4942  -15.4501   26.8404 C   0  0  0  0  0  0  0  0  0  0  0  0
    8.1904  -15.0006   26.3667 C   0  0  0  0  0  0  0  0  0  0  0  0
    7.1825  -15.8488   25.8847 C   0  0  0  0  0  0  0  0  0  0  0  0
    6.1633  -15.0815   25.5169 N   0  0  0  0  0  0  0  0  0  0  0  0
    6.4631  -13.7911   25.7376 C   0  0  0  0  0  0  0  0  0  0  0  0
    5.7490  -12.6277   25.5446 C   0  0  0  0  0  0  0  0  0  0  0  0
    6.2838  -11.3972   25.8778 C   0  0  0  0  0  0  0  0  0  0  0  0
    7.5381  -11.3231   26.4066 C   0  0  0  0  0  0  0  0  0  0  0  0
    8.2669  -12.4527   26.6080 C   0  0  0  0  0  0  0  0  0  0  0  0
    7.7404  -13.7031   26.2760 C   0  0  0  0  0  0  0  0  0  0  0  0
   10.5319  -17.7148   26.8546 C   0  0  0  0  0  0  0  0  0  0  0  0
    9.9278  -18.8207   26.8064 O   0  0  0  0  0  0  0  0  0  0  0  0
   11.6029  -17.6550   27.7297 O   0  0  0  0  0  0  0  0  0  0  0  0
  2  1  1  0
  3  4  1  6
  3  5  1  0
  3  2  1  0
  5  6  1  1
  7  5  1  0
  7  8  2  0
 10  9  1  0
 10 12  1  0
 11 10  2  0
 12 13  1  0
 14 13  1  6
 14 15  1  0
 15  7  1  0
 16 17  2  0
 16 14  1  0
 18 16  1  0
 19 18  1  0
 19 20  1  1
 20 21  1  0
 21 29  1  0
 21 22  2  0
 22 23  1  0
 24 23  1  0
 24 25  2  0
 26 25  1  0
 27 26  2  0
 28 29  2  0
 28 27  1  0
 29 24  1  0
 30 19  1  0
 31 30  2  0
 32 30  1  0
M  END
$$$$
