FPP.pdb
     RDKit          3D

 26 28  0  0  1  0  0  0  0  0999 V2000
   23.3423  -21.5349  -16.3019 N   0  0  0  0  0  0  0  0  0  0  0  0
   23.8088  -20.4596  -15.3969 C   0  0  1  0  0  0  0  0  0  0  0  0
   22.6299  -20.2435  -14.4578 C   0  0  0  0  0  0  0  0  0  0  0  0
   21.4968  -19.6076  -15.1447 C   0  0  0  0  0  0  0  0  0  0  0  0
   20.2980  -20.2809  -15.2192 C   0  0  0  0  0  0  0  0  0  0  0  0
   19.1872  -19.7514  -15.8471 C   0  0  0  0  0  0  0  0  0  0  0  0
   19.2536  -18.5109  -16.4261 C   0  0  0  0  0  0  0  0  0  0  0  0
   20.4455  -17.8231  -16.3610 C   0  0  0  0  0  0  0  0  0  0  0  0
   21.5512  -18.3555  -15.7334 C   0  0  0  0  0  0  0  0  0  0  0  0
   25.0359  -20.8860  -14.7265 C   0  0  0  0  0  0  0  0  0  0  0  0
   25.0099  -22.0172  -14.1234 O   0  0  0  0  0  0  0  0  0  0  0  0
   26.2641  -20.1590  -14.6837 N   0  0  0  0  0  0  0  0  0  0  0  0
   26.8350  -19.4850  -15.8237 C   0  0  0  0  0  0  0  0  0  0  0  0
   27.3220  -18.2103  -15.1840 C   0  0  0  0  0  0  0  0  0  0  0  0
   27.7256  -18.5970  -13.7825 C   0  0  0  0  0  0  0  0  0  0  0  0
   27.1789  -19.9800  -13.6126 C   0  0  1  0  0  0  0  0  0  0  0  0
   26.6756  -20.2252  -12.2510 C   0  0  0  0  0  0  0  0  0  0  0  0
   25.5377  -19.7512  -11.9729 O   0  0  0  0  0  0  0  0  0  0  0  0
   27.3821  -20.9417  -11.2896 N   0  0  0  0  0  0  0  0  0  0  0  0
   28.4952  -21.8644  -11.6204 C   0  0  0  0  0  0  0  0  0  0  0  0
   29.5097  -21.5119  -10.5653 C   0  0  0  0  0  0  0  0  0  0  0  0
   28.7790  -20.7419   -9.5001 C   0  0  0  0  0  0  0  0  0  0  0  0
   27.3227  -21.0749   -9.8588 C   0  0  1  0  0  0  0  0  0  0  0  0
   26.4002  -20.3167   -9.0776 C   0  0  0  0  0  0  0  0  0  0  0  0
   26.3752  -18.9796   -8.8747 O   0  0  0  0  0  0  0  0  0  0  0  0
   25.4652  -20.9776   -8.4819 O   0  0  0  0  0  0  0  0  0  0  0  0
  2  1  1  6
  3  2  1  0
  4  3  1  0
  5  4  2  0
  6  5  1  0
  7  8  1  0
  7  6  2  0
  8  9  2  0
  9  4  1  0
 10  2  1  0
 10 12  1  0
 11 10  2  0
 12 13  1  0
 13 14  1  0
 15 14  1  0
 16 12  1  0
 16 15  1  0
 16 17  1  1
 18 17  2  0
 19 20  1  0
 19 17  1  0
 21 20  1  0
 22 23  1  0
 22 21  1  0
 23 24  1  1
 23 19  1  0
 24 25  1  0
 26 24  2  0
M  END
$$$$
