FPP.pdb
     RDKit          3D

 26 28  0  0  1  0  0  0  0  0999 V2000
   24.8287  -22.2066  -11.8886 N   0  0  0  0  0  0  0  0  0  0  0  0
   25.6528  -21.0586  -11.4464 C   0  0  1  0  0  0  0  0  0  0  0  0
   24.6589  -19.9069  -11.3804 C   0  0  0  0  0  0  0  0  0  0  0  0
   24.2155  -19.4936  -12.7193 C   0  0  0  0  0  0  0  0  0  0  0  0
   22.8837  -19.6126  -13.0480 C   0  0  0  0  0  0  0  0  0  0  0  0
   22.3888  -19.2463  -14.2847 C   0  0  0  0  0  0  0  0  0  0  0  0
   23.2337  -18.7425  -15.2389 C   0  0  0  0  0  0  0  0  0  0  0  0
   24.5698  -18.6165  -14.9271 C   0  0  0  0  0  0  0  0  0  0  0  0
   25.0589  -18.9834  -13.6917 C   0  0  0  0  0  0  0  0  0  0  0  0
   26.2840  -21.3767  -10.1669 C   0  0  0  0  0  0  0  0  0  0  0  0
   25.5206  -21.4430   -9.1387 O   0  0  0  0  0  0  0  0  0  0  0  0
   27.6745  -21.6240   -9.9563 N   0  0  0  0  0  0  0  0  0  0  0  0
   28.5296  -22.2621  -10.9265 C   0  0  0  0  0  0  0  0  0  0  0  0
   29.7757  -21.4241  -10.7998 C   0  0  0  0  0  0  0  0  0  0  0  0
   29.8283  -21.0049   -9.3513 C   0  0  0  0  0  0  0  0  0  0  0  0
   28.4806  -21.3737   -8.8144 C   0  0  1  0  0  0  0  0  0  0  0  0
   27.9754  -20.3964   -7.8363 C   0  0  0  0  0  0  0  0  0  0  0  0
   27.5295  -19.3086   -8.2997 O   0  0  0  0  0  0  0  0  0  0  0  0
   27.9660  -20.6205   -6.4628 N   0  0  0  0  0  0  0  0  0  0  0  0
   27.6935  -21.9475   -5.8588 C   0  0  0  0  0  0  0  0  0  0  0  0
   28.7483  -22.0190   -4.7868 C   0  0  0  0  0  0  0  0  0  0  0  0
   29.2601  -20.6191   -4.5869 C   0  0  0  0  0  0  0  0  0  0  0  0
   28.1576  -19.8118   -5.2890 C   0  0  1  0  0  0  0  0  0  0  0  0
   28.4958  -18.4287   -5.3843 C   0  0  0  0  0  0  0  0  0  0  0  0
   28.1754  -17.4274   -4.5331 O   0  0  0  0  0  0  0  0  0  0  0  0
   29.1958  -18.0726   -6.4085 O   0  0  0  0  0  0  0  0  0  0  0  0
  2  1  1  1
  3  2  1  0
  4  3  1  0
  5  4  2  0
  6  5  1  0
  7  8  1  0
  7  6  2  0
  8  9  2  0
  9  4  1  0
 10  2  1  0
 10 12  1  0
 11 10  2  0
 12 13  1  0
 13 14  1  0
 15 14  1  0
 16 12  1  0
 16 15  1  0
 16 17  1  6
 18 17  2  0
 19 20  1  0
 19 17  1  0
 21 20  1  0
 22 23  1  0
 22 21  1  0
 23 24  1  6
 23 19  1  0
 24 25  1  0
 26 24  2  0
M  END
$$$$
