FPP.pdb
     RDKit          3D

 26 28  0  0  1  0  0  0  0  0999 V2000
   23.6418  -21.8672  -14.7210 N   0  0  0  0  0  0  0  0  0  0  0  0
   24.3391  -20.7463  -14.0499 C   0  0  1  0  0  0  0  0  0  0  0  0
   23.2133  -19.9768  -13.3723 C   0  0  0  0  0  0  0  0  0  0  0  0
   22.4122  -19.2179  -14.3429 C   0  0  0  0  0  0  0  0  0  0  0  0
   21.0493  -19.4105  -14.3798 C   0  0  0  0  0  0  0  0  0  0  0  0
   20.2280  -18.7359  -15.2623 C   0  0  0  0  0  0  0  0  0  0  0  0
   20.7640  -17.8352  -16.1453 C   0  0  0  0  0  0  0  0  0  0  0  0
   22.1262  -17.6300  -16.1223 C   0  0  0  0  0  0  0  0  0  0  0  0
   22.9417  -18.3055  -15.2399 C   0  0  0  0  0  0  0  0  0  0  0  0
   25.3391  -21.2785  -13.1260 C   0  0  0  0  0  0  0  0  0  0  0  0
   24.9247  -22.0765  -12.2119 O   0  0  0  0  0  0  0  0  0  0  0  0
   26.7381  -20.9936  -13.1494 N   0  0  0  0  0  0  0  0  0  0  0  0
   27.5267  -20.9556  -14.3562 C   0  0  0  0  0  0  0  0  0  0  0  0
   28.3961  -19.7540  -14.0882 C   0  0  0  0  0  0  0  0  0  0  0  0
   28.6157  -19.7464  -12.5954 C   0  0  0  0  0  0  0  0  0  0  0  0
   27.6356  -20.7515  -12.0761 C   0  0  1  0  0  0  0  0  0  0  0  0
   27.0486  -20.3537  -10.7860 C   0  0  0  0  0  0  0  0  0  0  0  0
   26.1632  -19.4527  -10.8193 O   0  0  0  0  0  0  0  0  0  0  0  0
   27.4171  -20.9190   -9.5688 N   0  0  0  0  0  0  0  0  0  0  0  0
   28.0849  -22.2385   -9.4557 C   0  0  0  0  0  0  0  0  0  0  0  0
   29.1527  -21.9552   -8.4328 C   0  0  0  0  0  0  0  0  0  0  0  0
   28.7750  -20.6664   -7.7560 C   0  0  0  0  0  0  0  0  0  0  0  0
   27.3052  -20.5414   -8.1855 C   0  0  1  0  0  0  0  0  0  0  0  0
   26.7473  -19.2863   -7.7985 C   0  0  0  0  0  0  0  0  0  0  0  0
   27.1254  -18.0466   -8.1854 O   0  0  0  0  0  0  0  0  0  0  0  0
   25.7552  -19.3228   -6.9738 O   0  0  0  0  0  0  0  0  0  0  0  0
  2  1  1  1
  3  2  1  0
  4  3  1  0
  5  4  2  0
  6  5  1  0
  7  8  1  0
  7  6  2  0
  8  9  2  0
  9  4  1  0
 10  2  1  0
 10 12  1  0
 11 10  2  0
 12 13  1  0
 13 14  1  0
 15 14  1  0
 16 12  1  0
 16 15  1  0
 16 17  1  1
 18 17  2  0
 19 20  1  0
 19 17  1  0
 21 20  1  0
 22 23  1  0
 22 21  1  0
 23 24  1  6
 23 19  1  0
 24 25  1  0
 26 24  2  0
M  END
$$$$
