FPP.pdb
     RDKit          3D

 26 28  0  0  1  0  0  0  0  0999 V2000
   25.5286  -21.7214  -18.5824 N   0  0  0  0  0  0  0  0  0  0  0  0
   24.9371  -20.7698  -17.6142 C   0  0  1  0  0  0  0  0  0  0  0  0
   23.4705  -21.1759  -17.5613 C   0  0  0  0  0  0  0  0  0  0  0  0
   22.6498  -20.1633  -16.8823 C   0  0  0  0  0  0  0  0  0  0  0  0
   22.1446  -19.1124  -17.6147 C   0  0  0  0  0  0  0  0  0  0  0  0
   21.3654  -18.1211  -17.0502 C   0  0  0  0  0  0  0  0  0  0  0  0
   21.0687  -18.1609  -15.7128 C   0  0  0  0  0  0  0  0  0  0  0  0
   21.5660  -19.2055  -14.9647 C   0  0  0  0  0  0  0  0  0  0  0  0
   22.3431  -20.1923  -15.5323 C   0  0  0  0  0  0  0  0  0  0  0  0
   25.6341  -20.8814  -16.3342 C   0  0  0  0  0  0  0  0  0  0  0  0
   25.5179  -21.9897  -15.6998 O   0  0  0  0  0  0  0  0  0  0  0  0
   26.4366  -19.8694  -15.7252 N   0  0  0  0  0  0  0  0  0  0  0  0
   27.2763  -18.9606  -16.4661 C   0  0  0  0  0  0  0  0  0  0  0  0
   27.0241  -17.6735  -15.7237 C   0  0  0  0  0  0  0  0  0  0  0  0
   26.7907  -18.0802  -14.2895 C   0  0  0  0  0  0  0  0  0  0  0  0
   26.6328  -19.5674  -14.3518 C   0  0  1  0  0  0  0  0  0  0  0  0
   25.6251  -20.0687  -13.4028 C   0  0  0  0  0  0  0  0  0  0  0  0
   24.4197  -19.7828  -13.6518 O   0  0  0  0  0  0  0  0  0  0  0  0
   25.9400  -20.8266  -12.2789 N   0  0  0  0  0  0  0  0  0  0  0  0
   27.1487  -21.6816  -12.1891 C   0  0  0  0  0  0  0  0  0  0  0  0
   27.6428  -21.3694  -10.8016 C   0  0  0  0  0  0  0  0  0  0  0  0
   26.5058  -20.7059  -10.0746 C   0  0  0  0  0  0  0  0  0  0  0  0
   25.3315  -21.0652  -10.9978 C   0  0  1  0  0  0  0  0  0  0  0  0
   24.1309  -20.3999  -10.6077 C   0  0  0  0  0  0  0  0  0  0  0  0
   22.9954  -20.9428  -10.1123 O   0  0  0  0  0  0  0  0  0  0  0  0
   24.1109  -19.1161  -10.7395 O   0  0  0  0  0  0  0  0  0  0  0  0
  2  1  1  6
  3  2  1  0
  4  3  1  0
  5  4  2  0
  6  5  1  0
  7  8  1  0
  7  6  2  0
  8  9  2  0
  9  4  1  0
 10  2  1  0
 10 12  1  0
 11 10  2  0
 12 13  1  0
 13 14  1  0
 15 14  1  0
 16 12  1  0
 16 15  1  0
 16 17  1  1
 18 17  2  0
 19 20  1  0
 19 17  1  0
 21 20  1  0
 22 23  1  0
 22 21  1  0
 23 24  1  1
 23 19  1  0
 24 25  1  0
 26 24  2  0
M  END
$$$$
