FPP.pdb
     RDKit          3D

 26 28  0  0  1  0  0  0  0  0999 V2000
   23.0136  -21.0825  -15.9996 N   0  0  0  0  0  0  0  0  0  0  0  0
   23.5992  -20.0136  -15.1586 C   0  0  1  0  0  0  0  0  0  0  0  0
   22.4345  -19.5631  -14.2873 C   0  0  0  0  0  0  0  0  0  0  0  0
   21.4230  -18.8344  -15.0657 C   0  0  0  0  0  0  0  0  0  0  0  0
   20.1299  -19.3071  -15.0888 C   0  0  0  0  0  0  0  0  0  0  0  0
   19.1228  -18.6794  -15.7961 C   0  0  0  0  0  0  0  0  0  0  0  0
   19.3936  -17.5415  -16.5103 C   0  0  0  0  0  0  0  0  0  0  0  0
   20.6823  -17.0544  -16.4983 C   0  0  0  0  0  0  0  0  0  0  0  0
   21.6839  -17.6842  -15.7911 C   0  0  0  0  0  0  0  0  0  0  0  0
   24.7331  -20.5507  -14.4086 C   0  0  0  0  0  0  0  0  0  0  0  0
   24.5099  -21.5669  -13.6591 O   0  0  0  0  0  0  0  0  0  0  0  0
   26.0698  -20.0491  -14.4358 N   0  0  0  0  0  0  0  0  0  0  0  0
   26.7026  -19.5225  -15.6198 C   0  0  0  0  0  0  0  0  0  0  0  0
   27.4293  -18.3329  -15.0468 C   0  0  0  0  0  0  0  0  0  0  0  0
   27.8157  -18.7392  -13.6460 C   0  0  0  0  0  0  0  0  0  0  0  0
   27.0442  -19.9989  -13.4042 C   0  0  1  0  0  0  0  0  0  0  0  0
   26.5613  -20.1083  -12.0179 C   0  0  0  0  0  0  0  0  0  0  0  0
   25.5586  -19.4040  -11.7091 O   0  0  0  0  0  0  0  0  0  0  0  0
   27.1466  -20.9367  -11.0649 N   0  0  0  0  0  0  0  0  0  0  0  0
   28.0199  -22.0839  -11.4132 C   0  0  0  0  0  0  0  0  0  0  0  0
   29.1379  -21.9320  -10.4163 C   0  0  0  0  0  0  0  0  0  0  0  0
   28.6422  -20.9986   -9.3465 C   0  0  0  0  0  0  0  0  0  0  0  0
   27.1323  -21.0205   -9.6292 C   0  0  1  0  0  0  0  0  0  0  0  0
   26.4326  -20.0642   -8.8340 C   0  0  0  0  0  0  0  0  0  0  0  0
   25.6878  -20.2805   -7.7259 O   0  0  0  0  0  0  0  0  0  0  0  0
   26.5106  -18.8314   -9.2083 O   0  0  0  0  0  0  0  0  0  0  0  0
  2  1  1  6
  3  2  1  0
  4  3  1  0
  5  4  2  0
  6  5  1  0
  7  8  1  0
  7  6  2  0
  8  9  2  0
  9  4  1  0
 10  2  1  0
 10 12  1  0
 11 10  2  0
 12 13  1  0
 13 14  1  0
 15 14  1  0
 16 12  1  0
 16 15  1  0
 16 17  1  1
 18 17  2  0
 19 20  1  0
 19 17  1  0
 21 20  1  0
 22 23  1  0
 22 21  1  0
 23 24  1  1
 23 19  1  0
 24 25  1  0
 26 24  2  0
M  END
$$$$
