FPP.pdb
     RDKit          3D

 26 28  0  0  1  0  0  0  0  0999 V2000
   23.1521  -18.8298  -18.1977 N   0  0  0  0  0  0  0  0  0  0  0  0
   23.1486  -18.4586  -16.7642 C   0  0  1  0  0  0  0  0  0  0  0  0
   21.8795  -19.1071  -16.2281 C   0  0  0  0  0  0  0  0  0  0  0  0
   20.6719  -18.4391  -16.7337 C   0  0  0  0  0  0  0  0  0  0  0  0
   19.9626  -19.0267  -17.7571 C   0  0  0  0  0  0  0  0  0  0  0  0
   18.8184  -18.4621  -18.2868 C   0  0  0  0  0  0  0  0  0  0  0  0
   18.3497  -17.2725  -17.7934 C   0  0  0  0  0  0  0  0  0  0  0  0
   19.0472  -16.6705  -16.7691 C   0  0  0  0  0  0  0  0  0  0  0  0
   20.1883  -17.2376  -16.2438 C   0  0  0  0  0  0  0  0  0  0  0  0
   24.3768  -18.9391  -16.1339 C   0  0  0  0  0  0  0  0  0  0  0  0
   24.5831  -20.2047  -16.1447 O   0  0  0  0  0  0  0  0  0  0  0  0
   25.3716  -18.1276  -15.5088 N   0  0  0  0  0  0  0  0  0  0  0  0
   25.8217  -16.8639  -16.0381 C   0  0  0  0  0  0  0  0  0  0  0  0
   25.9228  -16.0480  -14.7750 C   0  0  0  0  0  0  0  0  0  0  0  0
   26.3217  -17.0277  -13.6990 C   0  0  0  0  0  0  0  0  0  0  0  0
   26.1392  -18.3685  -14.3388 C   0  0  1  0  0  0  0  0  0  0  0  0
   25.6299  -19.3791  -13.3972 C   0  0  0  0  0  0  0  0  0  0  0  0
   24.3964  -19.3321  -13.1271 O   0  0  0  0  0  0  0  0  0  0  0  0
   26.4303  -20.3574  -12.8150 N   0  0  0  0  0  0  0  0  0  0  0  0
   27.6622  -20.8832  -13.4521 C   0  0  0  0  0  0  0  0  0  0  0  0
   28.6172  -20.9208  -12.2888 C   0  0  0  0  0  0  0  0  0  0  0  0
   27.7856  -20.8135  -11.0404 C   0  0  0  0  0  0  0  0  0  0  0  0
   26.3907  -21.1287  -11.6017 C   0  0  1  0  0  0  0  0  0  0  0  0
   25.3707  -20.9276  -10.6241 C   0  0  0  0  0  0  0  0  0  0  0  0
   24.7227  -21.8577   -9.8861 O   0  0  0  0  0  0  0  0  0  0  0  0
   25.0096  -19.7079  -10.4060 O   0  0  0  0  0  0  0  0  0  0  0  0
  2  1  1  6
  3  2  1  0
  4  3  1  0
  5  4  2  0
  6  5  1  0
  7  8  1  0
  7  6  2  0
  8  9  2  0
  9  4  1  0
 10  2  1  0
 10 12  1  0
 11 10  2  0
 12 13  1  0
 13 14  1  0
 15 14  1  0
 16 12  1  0
 16 15  1  0
 16 17  1  1
 18 17  2  0
 19 20  1  0
 19 17  1  0
 21 20  1  0
 22 23  1  0
 22 21  1  0
 23 24  1  1
 23 19  1  0
 24 25  1  0
 26 24  2  0
M  END
$$$$
