FPP.pdb
     RDKit          3D

 26 28  0  0  1  0  0  0  0  0999 V2000
   38.4238  -10.4571   -6.3807 N   0  0  0  0  0  0  0  0  0  0  0  0
   39.2154   -9.8751   -7.4887 C   0  0  1  0  0  0  0  0  0  0  0  0
   39.3855   -8.4176   -7.0819 C   0  0  0  0  0  0  0  0  0  0  0  0
   38.1861   -7.6245   -7.3861 C   0  0  0  0  0  0  0  0  0  0  0  0
   37.1840   -7.5417   -6.4455 C   0  0  0  0  0  0  0  0  0  0  0  0
   36.0268   -6.8169   -6.6557 C   0  0  0  0  0  0  0  0  0  0  0  0
   35.8439   -6.1453   -7.8363 C   0  0  0  0  0  0  0  0  0  0  0  0
   36.8366   -6.2172   -8.7888 C   0  0  0  0  0  0  0  0  0  0  0  0
   37.9895   -6.9417   -8.5746 C   0  0  0  0  0  0  0  0  0  0  0  0
   40.4730  -10.6076   -7.6255 C   0  0  0  0  0  0  0  0  0  0  0  0
   41.2521  -10.6271   -6.6072 O   0  0  0  0  0  0  0  0  0  0  0  0
   40.9135  -11.3073   -8.7896 N   0  0  0  0  0  0  0  0  0  0  0  0
   40.0191  -11.8946   -9.7564 C   0  0  0  0  0  0  0  0  0  0  0  0
   40.7164  -11.5338  -11.0428 C   0  0  0  0  0  0  0  0  0  0  0  0
   42.1890  -11.5454  -10.7143 C   0  0  0  0  0  0  0  0  0  0  0  0
   42.2302  -11.6196   -9.2199 C   0  0  1  0  0  0  0  0  0  0  0  0
   43.3304  -10.8283   -8.6451 C   0  0  0  0  0  0  0  0  0  0  0  0
   43.2530   -9.5734   -8.7714 O   0  0  0  0  0  0  0  0  0  0  0  0
   44.4170  -11.3928   -7.9835 N   0  0  0  0  0  0  0  0  0  0  0  0
   44.3183  -12.6269   -7.1669 C   0  0  0  0  0  0  0  0  0  0  0  0
   45.5501  -13.3785   -7.5965 C   0  0  0  0  0  0  0  0  0  0  0  0
   46.4452  -12.3868   -8.2870 C   0  0  0  0  0  0  0  0  0  0  0  0
   45.8090  -11.0652   -7.8300 C   0  0  1  0  0  0  0  0  0  0  0  0
   46.3880   -9.9431   -8.4949 C   0  0  0  0  0  0  0  0  0  0  0  0
   46.4013   -9.6695   -9.8195 O   0  0  0  0  0  0  0  0  0  0  0  0
   46.9787   -9.0699   -7.7504 O   0  0  0  0  0  0  0  0  0  0  0  0
  2  1  1  1
  3  2  1  0
  4  3  1  0
  5  4  2  0
  6  5  1  0
  7  8  1  0
  7  6  2  0
  8  9  2  0
  9  4  1  0
 10  2  1  0
 10 12  1  0
 11 10  2  0
 12 13  1  0
 13 14  1  0
 15 14  1  0
 16 12  1  0
 16 15  1  0
 16 17  1  1
 18 17  2  0
 19 20  1  0
 19 17  1  0
 21 20  1  0
 22 23  1  0
 22 21  1  0
 23 24  1  6
 23 19  1  0
 24 25  1  0
 26 24  2  0
M  END
$$$$
