FPP.pdb
     RDKit          3D

 26 28  0  0  1  0  0  0  0  0999 V2000
   25.2219  -22.1586  -11.9797 N   0  0  0  0  0  0  0  0  0  0  0  0
   26.1302  -21.1164  -11.4487 C   0  0  1  0  0  0  0  0  0  0  0  0
   25.1882  -19.9893  -11.0473 C   0  0  0  0  0  0  0  0  0  0  0  0
   24.0962  -20.4723  -10.1904 C   0  0  0  0  0  0  0  0  0  0  0  0
   22.8380  -20.6177  -10.7305 C   0  0  0  0  0  0  0  0  0  0  0  0
   21.7603  -21.0657   -9.9913 C   0  0  0  0  0  0  0  0  0  0  0  0
   21.9218  -21.3844   -8.6682 C   0  0  0  0  0  0  0  0  0  0  0  0
   23.1743  -21.2449   -8.1114 C   0  0  0  0  0  0  0  0  0  0  0  0
   24.2466  -20.7975   -8.8529 C   0  0  0  0  0  0  0  0  0  0  0  0
   26.9083  -21.6675  -10.3408 C   0  0  0  0  0  0  0  0  0  0  0  0
   26.2692  -22.3371   -9.4535 O   0  0  0  0  0  0  0  0  0  0  0  0
   28.3177  -21.5312  -10.1565 N   0  0  0  0  0  0  0  0  0  0  0  0
   29.2900  -21.8165  -11.1827 C   0  0  0  0  0  0  0  0  0  0  0  0
   30.2550  -20.6762  -10.9828 C   0  0  0  0  0  0  0  0  0  0  0  0
   30.2282  -20.3867   -9.5023 C   0  0  0  0  0  0  0  0  0  0  0  0
   29.0528  -21.1646   -8.9983 C   0  0  1  0  0  0  0  0  0  0  0  0
   28.3217  -20.4575   -7.9342 C   0  0  0  0  0  0  0  0  0  0  0  0
   27.5601  -19.5169   -8.2977 O   0  0  0  0  0  0  0  0  0  0  0  0
   28.4303  -20.7793   -6.5845 N   0  0  0  0  0  0  0  0  0  0  0  0
   28.7212  -22.1499   -6.0979 C   0  0  0  0  0  0  0  0  0  0  0  0
   29.7389  -21.8834   -5.0208 C   0  0  0  0  0  0  0  0  0  0  0  0
   29.6548  -20.4172   -4.6969 C   0  0  0  0  0  0  0  0  0  0  0  0
   28.3079  -20.0611   -5.3445 C   0  0  1  0  0  0  0  0  0  0  0  0
   28.0654  -18.6551   -5.3186 C   0  0  0  0  0  0  0  0  0  0  0  0
   28.7734  -17.6717   -5.9196 O   0  0  0  0  0  0  0  0  0  0  0  0
   27.0439  -18.2559   -4.6382 O   0  0  0  0  0  0  0  0  0  0  0  0
  2  1  1  1
  3  2  1  0
  4  3  1  0
  5  4  2  0
  6  5  1  0
  7  8  1  0
  7  6  2  0
  8  9  2  0
  9  4  1  0
 10  2  1  0
 10 12  1  0
 11 10  2  0
 12 13  1  0
 13 14  1  0
 15 14  1  0
 16 12  1  0
 16 15  1  0
 16 17  1  1
 18 17  2  0
 19 20  1  0
 19 17  1  0
 21 20  1  0
 22 23  1  0
 22 21  1  0
 23 24  1  6
 23 19  1  0
 24 25  1  0
 26 24  2  0
M  END
$$$$
