FPP.pdb
     RDKit          3D

 26 28  0  0  1  0  0  0  0  0999 V2000
   24.9349  -21.9369  -11.5797 N   0  0  0  0  0  0  0  0  0  0  0  0
   25.8546  -20.8303  -11.2297 C   0  0  1  0  0  0  0  0  0  0  0  0
   24.9457  -19.6096  -11.1800 C   0  0  0  0  0  0  0  0  0  0  0  0
   24.3800  -19.2985  -12.5002 C   0  0  0  0  0  0  0  0  0  0  0  0
   25.1824  -18.7019  -13.4468 C   0  0  0  0  0  0  0  0  0  0  0  0
   24.7255  -18.3783  -14.7098 C   0  0  0  0  0  0  0  0  0  0  0  0
   23.4287  -18.6504  -15.0599 C   0  0  0  0  0  0  0  0  0  0  0  0
   22.6116  -19.2472  -14.1249 C   0  0  0  0  0  0  0  0  0  0  0  0
   23.0720  -19.5683  -12.8659 C   0  0  0  0  0  0  0  0  0  0  0  0
   26.5192  -21.1320   -9.9632 C   0  0  0  0  0  0  0  0  0  0  0  0
   25.7774  -21.2276   -8.9217 O   0  0  0  0  0  0  0  0  0  0  0  0
   27.9208  -21.3334   -9.7788 N   0  0  0  0  0  0  0  0  0  0  0  0
   28.7720  -21.9727  -10.7517 C   0  0  0  0  0  0  0  0  0  0  0  0
   29.9956  -21.0961  -10.6765 C   0  0  0  0  0  0  0  0  0  0  0  0
   30.0687  -20.6367   -9.2411 C   0  0  0  0  0  0  0  0  0  0  0  0
   28.7449  -21.0293   -8.6632 C   0  0  1  0  0  0  0  0  0  0  0  0
   28.2336  -20.0408   -7.6996 C   0  0  0  0  0  0  0  0  0  0  0  0
   27.8198  -18.9459   -8.1757 O   0  0  0  0  0  0  0  0  0  0  0  0
   28.1855  -20.2620   -6.3264 N   0  0  0  0  0  0  0  0  0  0  0  0
   27.9121  -21.5911   -5.7275 C   0  0  0  0  0  0  0  0  0  0  0  0
   28.9348  -21.6464   -4.6239 C   0  0  0  0  0  0  0  0  0  0  0  0
   29.4220  -20.2395   -4.4122 C   0  0  0  0  0  0  0  0  0  0  0  0
   28.3310  -19.4482   -5.1495 C   0  0  1  0  0  0  0  0  0  0  0  0
   28.6539  -18.0610   -5.2381 C   0  0  0  0  0  0  0  0  0  0  0  0
   28.1622  -17.0379   -4.5025 O   0  0  0  0  0  0  0  0  0  0  0  0
   29.5240  -17.7246   -6.1300 O   0  0  0  0  0  0  0  0  0  0  0  0
  2  1  1  1
  3  2  1  0
  4  3  1  0
  5  4  2  0
  6  5  1  0
  7  8  1  0
  7  6  2  0
  8  9  2  0
  9  4  1  0
 10  2  1  0
 10 12  1  0
 11 10  2  0
 12 13  1  0
 13 14  1  0
 15 14  1  0
 16 12  1  0
 16 15  1  0
 16 17  1  6
 18 17  2  0
 19 20  1  0
 19 17  1  0
 21 20  1  0
 22 23  1  0
 22 21  1  0
 23 24  1  6
 23 19  1  0
 24 25  1  0
 26 24  2  0
M  END
$$$$
