FPP.pdb
     RDKit          3D

 26 28  0  0  1  0  0  0  0  0999 V2000
   23.6090  -21.5258  -16.8376 N   0  0  0  0  0  0  0  0  0  0  0  0
   23.9744  -20.4627  -15.8737 C   0  0  1  0  0  0  0  0  0  0  0  0
   22.7280  -20.3155  -15.0113 C   0  0  0  0  0  0  0  0  0  0  0  0
   21.5970  -19.7741  -15.7779 C   0  0  0  0  0  0  0  0  0  0  0  0
   20.4348  -20.5076  -15.8615 C   0  0  0  0  0  0  0  0  0  0  0  0
   19.3284  -20.0679  -16.5623 C   0  0  0  0  0  0  0  0  0  0  0  0
   19.3620  -18.8594  -17.2079 C   0  0  0  0  0  0  0  0  0  0  0  0
   20.5171  -18.1121  -17.1347 C   0  0  0  0  0  0  0  0  0  0  0  0
   21.6186  -18.5550  -16.4343 C   0  0  0  0  0  0  0  0  0  0  0  0
   25.1685  -20.8663  -15.1335 C   0  0  0  0  0  0  0  0  0  0  0  0
   25.1507  -22.0233  -14.5809 O   0  0  0  0  0  0  0  0  0  0  0  0
   26.3564  -20.0908  -14.9710 N   0  0  0  0  0  0  0  0  0  0  0  0
   26.9743  -19.3411  -16.0367 C   0  0  0  0  0  0  0  0  0  0  0  0
   27.3571  -18.0780  -15.3090 C   0  0  0  0  0  0  0  0  0  0  0  0
   27.6788  -18.5121  -13.9002 C   0  0  0  0  0  0  0  0  0  0  0  0
   27.1850  -19.9234  -13.8301 C   0  0  1  0  0  0  0  0  0  0  0  0
   26.5995  -20.2526  -12.5202 C   0  0  0  0  0  0  0  0  0  0  0  0
   25.4417  -19.8031  -12.2872 O   0  0  0  0  0  0  0  0  0  0  0  0
   27.2510  -21.0210  -11.5601 N   0  0  0  0  0  0  0  0  0  0  0  0
   28.3937  -21.9133  -11.8732 C   0  0  0  0  0  0  0  0  0  0  0  0
   29.3343  -21.6180  -10.7353 C   0  0  0  0  0  0  0  0  0  0  0  0
   28.5279  -20.9200   -9.6751 C   0  0  0  0  0  0  0  0  0  0  0  0
   27.1016  -21.2417  -10.1467 C   0  0  1  0  0  0  0  0  0  0  0  0
   26.1222  -20.5395   -9.3825 C   0  0  0  0  0  0  0  0  0  0  0  0
   25.2788  -21.0321   -8.4467 O   0  0  0  0  0  0  0  0  0  0  0  0
   26.0154  -19.2722   -9.6019 O   0  0  0  0  0  0  0  0  0  0  0  0
  2  1  1  6
  3  2  1  0
  4  3  1  0
  5  4  2  0
  6  5  1  0
  7  8  1  0
  7  6  2  0
  8  9  2  0
  9  4  1  0
 10  2  1  0
 10 12  1  0
 11 10  2  0
 12 13  1  0
 13 14  1  0
 15 14  1  0
 16 12  1  0
 16 15  1  0
 16 17  1  1
 18 17  2  0
 19 20  1  0
 19 17  1  0
 21 20  1  0
 22 23  1  0
 22 21  1  0
 23 24  1  1
 23 19  1  0
 24 25  1  0
 26 24  2  0
M  END
$$$$
