FPP.pdb
     RDKit          3D

 26 28  0  0  1  0  0  0  0  0999 V2000
   22.4498  -19.4711  -17.1462 N   0  0  0  0  0  0  0  0  0  0  0  0
   23.1477  -18.6039  -16.1695 C   0  0  1  0  0  0  0  0  0  0  0  0
   22.0220  -18.0714  -15.2931 C   0  0  0  0  0  0  0  0  0  0  0  0
   21.1795  -17.1080  -16.0156 C   0  0  0  0  0  0  0  0  0  0  0  0
   21.5884  -15.7960  -16.1014 C   0  0  0  0  0  0  0  0  0  0  0  0
   20.8531  -14.8312  -16.7623 C   0  0  0  0  0  0  0  0  0  0  0  0
   19.6680  -15.1655  -17.3642 C   0  0  0  0  0  0  0  0  0  0  0  0
   19.2436  -16.4740  -17.2882 C   0  0  0  0  0  0  0  0  0  0  0  0
   19.9807  -17.4332  -16.6276 C   0  0  0  0  0  0  0  0  0  0  0  0
   24.1461  -19.3900  -15.4470 C   0  0  0  0  0  0  0  0  0  0  0  0
   23.7532  -20.4897  -14.9174 O   0  0  0  0  0  0  0  0  0  0  0  0
   25.5220  -19.0471  -15.2789 N   0  0  0  0  0  0  0  0  0  0  0  0
   26.3124  -18.3907  -16.2909 C   0  0  0  0  0  0  0  0  0  0  0  0
   27.0946  -17.4148  -15.4500 C   0  0  0  0  0  0  0  0  0  0  0  0
   27.3054  -18.1088  -14.1269 C   0  0  0  0  0  0  0  0  0  0  0  0
   26.3948  -19.2953  -14.1867 C   0  0  1  0  0  0  0  0  0  0  0  0
   25.7748  -19.5977  -12.8862 C   0  0  0  0  0  0  0  0  0  0  0  0
   24.9594  -18.7446  -12.4344 O   0  0  0  0  0  0  0  0  0  0  0  0
   26.0408  -20.7549  -12.1602 N   0  0  0  0  0  0  0  0  0  0  0  0
   26.4846  -22.0231  -12.7884 C   0  0  0  0  0  0  0  0  0  0  0  0
   27.5794  -22.4621  -11.8528 C   0  0  0  0  0  0  0  0  0  0  0  0
   27.4132  -21.6680  -10.5866 C   0  0  0  0  0  0  0  0  0  0  0  0
   25.9854  -21.1327  -10.7736 C   0  0  1  0  0  0  0  0  0  0  0  0
   25.6373  -20.1921   -9.7585 C   0  0  0  0  0  0  0  0  0  0  0  0
   24.8926  -20.3956   -8.6478 O   0  0  0  0  0  0  0  0  0  0  0  0
   26.0819  -18.9895   -9.9058 O   0  0  0  0  0  0  0  0  0  0  0  0
  2  1  1  6
  3  2  1  0
  4  3  1  0
  5  4  2  0
  6  5  1  0
  7  8  1  0
  7  6  2  0
  8  9  2  0
  9  4  1  0
 10  2  1  0
 10 12  1  0
 11 10  2  0
 12 13  1  0
 13 14  1  0
 15 14  1  0
 16 12  1  0
 16 15  1  0
 16 17  1  1
 18 17  2  0
 19 20  1  0
 19 17  1  0
 21 20  1  0
 22 23  1  0
 22 21  1  0
 23 24  1  1
 23 19  1  0
 24 25  1  0
 26 24  2  0
M  END
$$$$
