FPP.pdb
     RDKit          3D

 26 28  0  0  1  0  0  0  0  0999 V2000
   24.7541  -22.1809  -11.8864 N   0  0  0  0  0  0  0  0  0  0  0  0
   25.5131  -20.9979  -11.4202 C   0  0  1  0  0  0  0  0  0  0  0  0
   24.4434  -19.9270  -11.2547 C   0  0  0  0  0  0  0  0  0  0  0  0
   23.8145  -19.5834  -12.5378 C   0  0  0  0  0  0  0  0  0  0  0  0
   22.4926  -19.9100  -12.7423 C   0  0  0  0  0  0  0  0  0  0  0  0
   21.8303  -19.6213  -13.9198 C   0  0  0  0  0  0  0  0  0  0  0  0
   22.4904  -18.9862  -14.9392 C   0  0  0  0  0  0  0  0  0  0  0  0
   23.8137  -18.6520  -14.7518 C   0  0  0  0  0  0  0  0  0  0  0  0
   24.4703  -18.9421  -13.5751 C   0  0  0  0  0  0  0  0  0  0  0  0
   26.2218  -21.3299  -10.1857 C   0  0  0  0  0  0  0  0  0  0  0  0
   25.5140  -21.4781   -9.1268 O   0  0  0  0  0  0  0  0  0  0  0  0
   27.6322  -21.5077  -10.0503 N   0  0  0  0  0  0  0  0  0  0  0  0
   28.4729  -22.0534  -11.0872 C   0  0  0  0  0  0  0  0  0  0  0  0
   29.6766  -21.1531  -10.9782 C   0  0  0  0  0  0  0  0  0  0  0  0
   29.7759  -20.7961   -9.5156 C   0  0  0  0  0  0  0  0  0  0  0  0
   28.4774  -21.2633   -8.9358 C   0  0  1  0  0  0  0  0  0  0  0  0
   27.9676  -20.3600   -7.8911 C   0  0  0  0  0  0  0  0  0  0  0  0
   27.4725  -19.2646   -8.2805 O   0  0  0  0  0  0  0  0  0  0  0  0
   28.0047  -20.6602   -6.5327 N   0  0  0  0  0  0  0  0  0  0  0  0
   27.9592  -22.0460   -6.0061 C   0  0  0  0  0  0  0  0  0  0  0  0
   29.0186  -22.0029   -4.9371 C   0  0  0  0  0  0  0  0  0  0  0  0
   29.2936  -20.5513   -4.6563 C   0  0  0  0  0  0  0  0  0  0  0  0
   28.0682  -19.8988   -5.3141 C   0  0  1  0  0  0  0  0  0  0  0  0
   28.1727  -18.4757   -5.3294 C   0  0  0  0  0  0  0  0  0  0  0  0
   29.1290  -17.7121   -5.9056 O   0  0  0  0  0  0  0  0  0  0  0  0
   27.2437  -17.8199   -4.7188 O   0  0  0  0  0  0  0  0  0  0  0  0
  2  1  1  1
  3  2  1  0
  4  3  1  0
  5  4  2  0
  6  5  1  0
  7  8  1  0
  7  6  2  0
  8  9  2  0
  9  4  1  0
 10  2  1  0
 10 12  1  0
 11 10  2  0
 12 13  1  0
 13 14  1  0
 15 14  1  0
 16 12  1  0
 16 15  1  0
 16 17  1  1
 18 17  2  0
 19 20  1  0
 19 17  1  0
 21 20  1  0
 22 23  1  0
 22 21  1  0
 23 24  1  6
 23 19  1  0
 24 25  1  0
 26 24  2  0
M  END
$$$$
