FPP.pdb
     RDKit          3D

 26 28  0  0  1  0  0  0  0  0999 V2000
   23.1387  -21.2306  -16.4061 N   0  0  0  0  0  0  0  0  0  0  0  0
   23.7425  -20.1536  -15.5885 C   0  0  1  0  0  0  0  0  0  0  0  0
   22.6035  -19.7105  -14.6802 C   0  0  0  0  0  0  0  0  0  0  0  0
   21.6184  -18.8932  -15.4023 C   0  0  0  0  0  0  0  0  0  0  0  0
   20.3526  -19.3963  -15.6040 C   0  0  0  0  0  0  0  0  0  0  0  0
   19.3713  -18.6904  -16.2728 C   0  0  0  0  0  0  0  0  0  0  0  0
   19.6411  -17.4399  -16.7643 C   0  0  0  0  0  0  0  0  0  0  0  0
   20.9027  -16.9209  -16.5715 C   0  0  0  0  0  0  0  0  0  0  0  0
   21.8787  -17.6289  -15.9036 C   0  0  0  0  0  0  0  0  0  0  0  0
   24.9056  -20.6780  -14.8751 C   0  0  0  0  0  0  0  0  0  0  0  0
   24.7636  -21.7993  -14.2695 O   0  0  0  0  0  0  0  0  0  0  0  0
   26.1889  -20.0572  -14.7929 N   0  0  0  0  0  0  0  0  0  0  0  0
   26.8424  -19.4199  -15.9093 C   0  0  0  0  0  0  0  0  0  0  0  0
   27.4182  -18.1983  -15.2404 C   0  0  0  0  0  0  0  0  0  0  0  0
   27.7528  -18.6342  -13.8352 C   0  0  0  0  0  0  0  0  0  0  0  0
   27.0884  -19.9684  -13.6977 C   0  0  1  0  0  0  0  0  0  0  0  0
   26.5325  -20.1867  -12.3522 C   0  0  0  0  0  0  0  0  0  0  0  0
   25.4600  -19.5783  -12.0759 O   0  0  0  0  0  0  0  0  0  0  0  0
   27.1230  -21.0165  -11.4037 N   0  0  0  0  0  0  0  0  0  0  0  0
   28.1580  -22.0246  -11.7391 C   0  0  0  0  0  0  0  0  0  0  0  0
   29.1516  -21.8263  -10.6254 C   0  0  0  0  0  0  0  0  0  0  0  0
   28.4486  -21.0446   -9.5501 C   0  0  0  0  0  0  0  0  0  0  0  0
   26.9854  -21.2163   -9.9861 C   0  0  1  0  0  0  0  0  0  0  0  0
   26.1037  -20.4132   -9.2026 C   0  0  0  0  0  0  0  0  0  0  0  0
   25.1141  -20.8190   -8.3746 O   0  0  0  0  0  0  0  0  0  0  0  0
   26.2577  -19.1344   -9.2849 O   0  0  0  0  0  0  0  0  0  0  0  0
  2  1  1  6
  3  2  1  0
  4  3  1  0
  5  4  2  0
  6  5  1  0
  7  8  1  0
  7  6  2  0
  8  9  2  0
  9  4  1  0
 10  2  1  0
 10 12  1  0
 11 10  2  0
 12 13  1  0
 13 14  1  0
 15 14  1  0
 16 12  1  0
 16 15  1  0
 16 17  1  1
 18 17  2  0
 19 20  1  0
 19 17  1  0
 21 20  1  0
 22 23  1  0
 22 21  1  0
 23 24  1  1
 23 19  1  0
 24 25  1  0
 26 24  2  0
M  END
$$$$
