YET.pdb
     RDKit          3D

 29 29  0  0  1  0  0  0  0  0999 V2000
   23.9000  -18.4780  -14.5782 O   0  0  0  0  0  0  0  0  0  0  0  0
   23.7890  -17.1021  -14.7833 C   0  0  0  0  0  0  0  0  0  0  0  0
   22.5546  -16.5958  -15.1483 C   0  0  0  0  0  0  0  0  0  0  0  0
   22.4586  -15.2315  -15.3483 C   0  0  0  0  0  0  0  0  0  0  0  0
   23.5684  -14.4367  -15.1820 C   0  0  0  0  0  0  0  0  0  0  0  0
   23.4205  -12.9794  -15.4067 C   0  0  0  0  0  0  0  0  0  0  0  0
   22.8182  -12.7886  -16.8059 C   0  0  2  0  0  0  0  0  0  0  0  0
   23.8091  -13.1857  -17.7617 N   0  0  0  0  0  0  0  0  0  0  0  0
   22.4500  -11.3618  -16.9066 C   0  0  0  0  0  0  0  0  0  0  0  0
   23.3433  -10.5480  -17.2478 O   0  0  0  0  0  0  0  0  0  0  0  0
   24.7744  -14.9682  -14.8206 C   0  0  0  0  0  0  0  0  0  0  0  0
   24.9036  -16.3165  -14.6146 C   0  0  0  0  0  0  0  0  0  0  0  0
   21.1519  -10.8528  -16.6423 N   0  0  0  0  0  0  0  0  0  0  0  0
   20.7906   -9.4672  -16.8629 C   0  0  1  0  0  0  0  0  0  0  0  0
   19.3444   -9.4684  -17.3519 C   0  0  0  0  0  0  0  0  0  0  0  0
   18.9099   -8.0728  -17.7389 C   0  0  0  0  0  0  0  0  0  0  0  0
   19.3795   -7.7891  -19.1047 C   0  0  0  0  0  0  0  0  0  0  0  0
   20.1786   -6.8481  -19.3012 O   0  0  0  0  0  0  0  0  0  0  0  0
   20.9154   -8.6426  -15.6581 C   0  0  0  0  0  0  0  0  0  0  0  0
   20.6323   -9.1185  -14.5302 O   0  0  0  0  0  0  0  0  0  0  0  0
   18.9747   -8.5245  -20.2066 O   0  0  0  0  0  0  0  0  0  0  0  0
   22.1493   -4.1334  -13.9211 C   0  0  0  0  0  0  0  0  0  0  0  0
   21.9407   -5.0668  -15.0773 C   0  0  1  0  0  0  0  0  0  0  0  0
   23.1351   -5.1286  -15.7900 O   0  0  0  0  0  0  0  0  0  0  0  0
   21.5026   -6.4463  -14.6127 C   0  0  2  0  0  0  0  0  0  0  0  0
   21.3595   -7.2975  -15.7704 N   0  0  0  0  0  0  0  0  0  0  0  0
   20.1627   -6.2633  -13.9544 C   0  0  0  0  0  0  0  0  0  0  0  0
   20.0473   -6.4037  -12.7188 O   0  0  0  0  0  0  0  0  0  0  0  0
   19.0430   -5.9378  -14.7062 O   0  0  0  0  0  0  0  0  0  0  0  0
  2  1  1  0
  2  3  2  0
  4  3  1  0
  5  4  2  0
  6  5  1  0
  7  8  1  6
  7  6  1  0
  9  7  1  0
 10  9  2  0
 11 12  2  0
 11  5  1  0
 12  2  1  0
 13  9  1  0
 14 13  1  0
 15 16  1  0
 14 15  1  1
 16 17  1  0
 17 21  1  0
 17 18  2  0
 19 14  1  0
 19 26  1  0
 20 19  2  0
 23 22  1  1
 23 24  1  0
 25 23  1  0
 25 27  1  0
 25 26  1  6
 27 29  1  0
 28 27  2  0
M  END
$$$$
