YET.pdb
     RDKit          3D

 29 29  0  0  1  0  0  0  0  0999 V2000
   25.4533  -14.4601  -21.3385 O   0  0  0  0  0  0  0  0  0  0  0  0
   24.7280  -15.4657  -20.6979 C   0  0  0  0  0  0  0  0  0  0  0  0
   24.2967  -15.2341  -19.4042 C   0  0  0  0  0  0  0  0  0  0  0  0
   23.5796  -16.2383  -18.7816 C   0  0  0  0  0  0  0  0  0  0  0  0
   23.3223  -17.4109  -19.4522 C   0  0  0  0  0  0  0  0  0  0  0  0
   22.5499  -18.4608  -18.7469 C   0  0  0  0  0  0  0  0  0  0  0  0
   23.4810  -19.0937  -17.7031 C   0  0  2  0  0  0  0  0  0  0  0  0
   24.4451  -19.8863  -18.4069 N   0  0  0  0  0  0  0  0  0  0  0  0
   22.6174  -19.8874  -16.8057 C   0  0  0  0  0  0  0  0  0  0  0  0
   22.3490  -21.0671  -17.1417 O   0  0  0  0  0  0  0  0  0  0  0  0
   23.7627  -17.6089  -20.7306 C   0  0  0  0  0  0  0  0  0  0  0  0
   24.4762  -16.6337  -21.3765 C   0  0  0  0  0  0  0  0  0  0  0  0
   22.0720  -19.4017  -15.5889 N   0  0  0  0  0  0  0  0  0  0  0  0
   21.2562  -20.2169  -14.7120 C   0  0  1  0  0  0  0  0  0  0  0  0
   21.4097  -19.6335  -13.3097 C   0  0  0  0  0  0  0  0  0  0  0  0
   20.5838  -20.4144  -12.3124 C   0  0  0  0  0  0  0  0  0  0  0  0
   19.7254  -19.4788  -11.5682 C   0  0  0  0  0  0  0  0  0  0  0  0
   19.8618  -18.2474  -11.7354 O   0  0  0  0  0  0  0  0  0  0  0  0
   19.8427  -20.2379  -15.0981 C   0  0  0  0  0  0  0  0  0  0  0  0
   19.2382  -19.1667  -15.3549 O   0  0  0  0  0  0  0  0  0  0  0  0
   18.7543  -19.8986  -10.6740 O   0  0  0  0  0  0  0  0  0  0  0  0
   18.3873  -23.1388  -17.5051 C   0  0  0  0  0  0  0  0  0  0  0  0
   17.5765  -22.9422  -16.2579 C   0  0  1  0  0  0  0  0  0  0  0  0
   17.9326  -23.9460  -15.3611 O   0  0  0  0  0  0  0  0  0  0  0  0
   17.7951  -21.5626  -15.6583 C   0  0  2  0  0  0  0  0  0  0  0  0
   19.1556  -21.4788  -15.1812 N   0  0  0  0  0  0  0  0  0  0  0  0
   16.8470  -21.4535  -14.4958 C   0  0  0  0  0  0  0  0  0  0  0  0
   17.2806  -21.5114  -13.3261 O   0  0  0  0  0  0  0  0  0  0  0  0
   15.4856  -21.2881  -14.7055 O   0  0  0  0  0  0  0  0  0  0  0  0
  2  1  1  0
  2  3  2  0
  4  3  1  0
  5  4  2  0
  6  5  1  0
  7  8  1  6
  7  6  1  0
  9  7  1  0
 10  9  2  0
 11 12  2  0
 11  5  1  0
 12  2  1  0
 13  9  1  0
 14 13  1  0
 15 16  1  0
 14 15  1  1
 16 17  1  0
 17 21  1  0
 17 18  2  0
 19 14  1  0
 19 26  1  0
 20 19  2  0
 23 22  1  6
 23 24  1  0
 25 23  1  0
 25 27  1  0
 25 26  1  1
 27 29  1  0
 28 27  2  0
M  END
$$$$
