YET.pdb
     RDKit          3D

 29 29  0  0  1  0  0  0  0  0999 V2000
   16.6794  -14.6722  -16.6858 O   0  0  0  0  0  0  0  0  0  0  0  0
   16.9792  -13.4692  -16.0451 C   0  0  0  0  0  0  0  0  0  0  0  0
   18.0130  -13.4611  -15.1261 C   0  0  0  0  0  0  0  0  0  0  0  0
   18.2994  -12.2632  -14.4988 C   0  0  0  0  0  0  0  0  0  0  0  0
   17.5643  -11.1409  -14.8008 C   0  0  0  0  0  0  0  0  0  0  0  0
   17.9053   -9.8778  -14.1048 C   0  0  0  0  0  0  0  0  0  0  0  0
   18.3439   -8.8674  -15.1742 C   0  0  2  0  0  0  0  0  0  0  0  0
   19.7073   -9.1552  -15.5084 N   0  0  0  0  0  0  0  0  0  0  0  0
   18.1600   -7.5286  -14.5784 C   0  0  0  0  0  0  0  0  0  0  0  0
   18.9680   -7.1665  -13.6880 O   0  0  0  0  0  0  0  0  0  0  0  0
   16.5486  -11.1821  -15.7141 C   0  0  0  0  0  0  0  0  0  0  0  0
   16.2390  -12.3535  -16.3537 C   0  0  0  0  0  0  0  0  0  0  0  0
   17.1290   -6.6262  -14.9480 N   0  0  0  0  0  0  0  0  0  0  0  0
   16.9905   -5.3080  -14.3630 C   0  0  1  0  0  0  0  0  0  0  0  0
   16.5997   -4.3674  -15.5001 C   0  0  0  0  0  0  0  0  0  0  0  0
   17.7627   -4.1563  -16.4429 C   0  0  0  0  0  0  0  0  0  0  0  0
   18.6069   -3.0688  -15.9223 C   0  0  0  0  0  0  0  0  0  0  0  0
   18.3465   -2.5621  -14.8096 O   0  0  0  0  0  0  0  0  0  0  0  0
   15.9865   -5.2557  -13.2969 C   0  0  0  0  0  0  0  0  0  0  0  0
   14.9013   -5.8779  -13.4150 O   0  0  0  0  0  0  0  0  0  0  0  0
   19.6970   -2.5666  -16.6139 O   0  0  0  0  0  0  0  0  0  0  0  0
   17.1455   -3.7115   -9.5305 C   0  0  0  0  0  0  0  0  0  0  0  0
   16.0085   -4.6690   -9.7355 C   0  0  1  0  0  0  0  0  0  0  0  0
   15.1466   -4.5384   -8.6499 O   0  0  0  0  0  0  0  0  0  0  0  0
   15.2869   -4.4102  -11.0481 C   0  0  2  0  0  0  0  0  0  0  0  0
   16.2457   -4.4958  -12.1246 N   0  0  0  0  0  0  0  0  0  0  0  0
   14.7492   -3.0081  -10.9639 C   0  0  0  0  0  0  0  0  0  0  0  0
   15.3238   -2.0793  -11.5694 O   0  0  0  0  0  0  0  0  0  0  0  0
   13.6140   -2.7288  -10.2168 O   0  0  0  0  0  0  0  0  0  0  0  0
  2  1  1  0
  2  3  2  0
  4  3  1  0
  5  4  2  0
  6  5  1  0
  7  8  1  1
  7  6  1  0
  9  7  1  0
 10  9  2  0
 11 12  2  0
 11  5  1  0
 12  2  1  0
 13  9  1  0
 14 13  1  0
 15 16  1  0
 14 15  1  6
 16 17  1  0
 17 21  1  0
 17 18  2  0
 19 14  1  0
 19 26  1  0
 20 19  2  0
 23 22  1  1
 23 24  1  0
 25 23  1  0
 25 27  1  0
 25 26  1  6
 27 29  1  0
 28 27  2  0
M  END
$$$$
