YET.pdb
     RDKit          3D

 29 29  0  0  1  0  0  0  0  0999 V2000
   30.8631  -21.7168   -9.3428 O   0  0  0  0  0  0  0  0  0  0  0  0
   29.8442  -21.2186  -10.1561 C   0  0  0  0  0  0  0  0  0  0  0  0
   30.1995  -20.4285  -11.2344 C   0  0  0  0  0  0  0  0  0  0  0  0
   29.1808  -19.9416  -12.0315 C   0  0  0  0  0  0  0  0  0  0  0  0
   27.8740  -20.2506  -11.7350 C   0  0  0  0  0  0  0  0  0  0  0  0
   26.8135  -19.7075  -12.6161 C   0  0  0  0  0  0  0  0  0  0  0  0
   26.4348  -20.8110  -13.6140 C   0  0  2  0  0  0  0  0  0  0  0  0
   27.5730  -21.0463  -14.4519 N   0  0  0  0  0  0  0  0  0  0  0  0
   25.2585  -20.3125  -14.3551 C   0  0  0  0  0  0  0  0  0  0  0  0
   25.4618  -19.6618  -15.4096 O   0  0  0  0  0  0  0  0  0  0  0  0
   27.5559  -21.0343  -10.6617 C   0  0  0  0  0  0  0  0  0  0  0  0
   28.5418  -21.5330   -9.8514 C   0  0  0  0  0  0  0  0  0  0  0  0
   23.9142  -20.5221  -13.9513 N   0  0  0  0  0  0  0  0  0  0  0  0
   22.7818  -20.2318  -14.8070 C   0  0  1  0  0  0  0  0  0  0  0  0
   22.8373  -21.2357  -15.9558 C   0  0  0  0  0  0  0  0  0  0  0  0
   21.7212  -20.9802  -16.9434 C   0  0  0  0  0  0  0  0  0  0  0  0
   21.8392  -21.9387  -18.0542 C   0  0  0  0  0  0  0  0  0  0  0  0
   22.7167  -21.7681  -18.9280 O   0  0  0  0  0  0  0  0  0  0  0  0
   21.4960  -20.3316  -14.1113 C   0  0  0  0  0  0  0  0  0  0  0  0
   21.2505  -21.3142  -13.3676 O   0  0  0  0  0  0  0  0  0  0  0  0
   21.0126  -23.0425  -18.1854 O   0  0  0  0  0  0  0  0  0  0  0  0
   17.3348  -17.8398  -12.9677 C   0  0  0  0  0  0  0  0  0  0  0  0
   18.5954  -17.9618  -13.7722 C   0  0  1  0  0  0  0  0  0  0  0  0
   19.3962  -16.8636  -13.4701 O   0  0  0  0  0  0  0  0  0  0  0  0
   19.3187  -19.2680  -13.4871 C   0  0  2  0  0  0  0  0  0  0  0  0
   20.5241  -19.3091  -14.2813 N   0  0  0  0  0  0  0  0  0  0  0  0
   18.3906  -20.3677  -13.9246 C   0  0  0  0  0  0  0  0  0  0  0  0
   18.3878  -20.7491  -15.1137 O   0  0  0  0  0  0  0  0  0  0  0  0
   17.5297  -20.9699  -13.0186 O   0  0  0  0  0  0  0  0  0  0  0  0
  2  1  1  0
  2  3  2  0
  4  3  1  0
  5  4  2  0
  6  5  1  0
  7  8  1  6
  7  6  1  0
  9  7  1  0
 10  9  2  0
 11 12  2  0
 11  5  1  0
 12  2  1  0
 13  9  1  0
 14 13  1  0
 15 16  1  0
 14 15  1  6
 16 17  1  0
 17 21  1  0
 17 18  2  0
 19 14  1  0
 19 26  1  0
 20 19  2  0
 23 22  1  1
 23 24  1  0
 25 23  1  0
 25 27  1  0
 25 26  1  6
 27 29  1  0
 28 27  2  0
M  END
$$$$
