YET.pdb
     RDKit          3D

 29 29  0  0  1  0  0  0  0  0999 V2000
   29.6004  -12.5618  -16.3827 O   0  0  0  0  0  0  0  0  0  0  0  0
   28.5845  -11.6050  -16.3919 C   0  0  0  0  0  0  0  0  0  0  0  0
   28.5686  -10.6821  -17.4220 C   0  0  0  0  0  0  0  0  0  0  0  0
   27.5571   -9.7401  -17.4190 C   0  0  0  0  0  0  0  0  0  0  0  0
   26.6182   -9.7490  -16.4143 C   0  0  0  0  0  0  0  0  0  0  0  0
   25.5512   -8.7210  -16.4501 C   0  0  0  0  0  0  0  0  0  0  0  0
   24.2158   -9.4512  -16.6509 C   0  0  2  0  0  0  0  0  0  0  0  0
   24.3695  -10.3355  -17.7678 N   0  0  0  0  0  0  0  0  0  0  0  0
   23.2003   -8.4021  -16.8736 C   0  0  0  0  0  0  0  0  0  0  0  0
   23.1187   -7.8985  -18.0209 O   0  0  0  0  0  0  0  0  0  0  0  0
   26.6617  -10.6748  -15.4101 C   0  0  0  0  0  0  0  0  0  0  0  0
   27.6511  -11.6222  -15.3836 C   0  0  0  0  0  0  0  0  0  0  0  0
   22.3118   -7.9275  -15.8739 N   0  0  0  0  0  0  0  0  0  0  0  0
   21.1995   -7.0459  -16.1647 C   0  0  1  0  0  0  0  0  0  0  0  0
   19.9522   -7.7193  -15.5978 C   0  0  0  0  0  0  0  0  0  0  0  0
   18.7107   -6.9353  -15.9585 C   0  0  0  0  0  0  0  0  0  0  0  0
   17.5396   -7.5948  -15.3585 C   0  0  0  0  0  0  0  0  0  0  0  0
   16.3973   -7.1270  -15.5561 O   0  0  0  0  0  0  0  0  0  0  0  0
   21.3593   -5.7096  -15.5849 C   0  0  0  0  0  0  0  0  0  0  0  0
   21.7844   -5.5733  -14.4103 O   0  0  0  0  0  0  0  0  0  0  0  0
   17.6379   -8.7295  -14.5701 O   0  0  0  0  0  0  0  0  0  0  0  0
   22.7906   -2.5543  -17.7131 C   0  0  0  0  0  0  0  0  0  0  0  0
   21.4687   -2.3005  -17.0499 C   0  0  1  0  0  0  0  0  0  0  0  0
   20.4758   -2.4669  -18.0117 O   0  0  0  0  0  0  0  0  0  0  0  0
   21.2494   -3.2254  -15.8637 C   0  0  2  0  0  0  0  0  0  0  0  0
   21.0306   -4.5642  -16.3588 N   0  0  0  0  0  0  0  0  0  0  0  0
   20.0069   -2.7358  -15.1719 C   0  0  0  0  0  0  0  0  0  0  0  0
   18.9361   -3.3684  -15.2852 O   0  0  0  0  0  0  0  0  0  0  0  0
   20.0329   -1.5814  -14.4027 O   0  0  0  0  0  0  0  0  0  0  0  0
  2  1  1  0
  2  3  2  0
  4  3  1  0
  5  4  2  0
  6  5  1  0
  7  8  1  6
  7  6  1  0
  9  7  1  0
 10  9  2  0
 11 12  2  0
 11  5  1  0
 12  2  1  0
 13  9  1  0
 14 13  1  0
 15 16  1  0
 14 15  1  1
 16 17  1  0
 17 21  1  0
 17 18  2  0
 19 14  1  0
 19 26  1  0
 20 19  2  0
 23 22  1  6
 23 24  1  0
 25 23  1  0
 25 27  1  0
 25 26  1  6
 27 29  1  0
 28 27  2  0
M  END
$$$$
