YET.pdb
     RDKit          3D

 29 29  0  0  1  0  0  0  0  0999 V2000
   10.0916   -8.9996   -7.5552 O   0  0  0  0  0  0  0  0  0  0  0  0
   11.1792   -9.2739   -8.3856 C   0  0  0  0  0  0  0  0  0  0  0  0
   11.4522  -10.5963   -8.6854 C   0  0  0  0  0  0  0  0  0  0  0  0
   12.5320  -10.8539   -9.5088 C   0  0  0  0  0  0  0  0  0  0  0  0
   13.2854   -9.8109   -9.9941 C   0  0  0  0  0  0  0  0  0  0  0  0
   14.4341  -10.1324  -10.8735 C   0  0  0  0  0  0  0  0  0  0  0  0
   13.9143  -10.1591  -12.3177 C   0  0  2  0  0  0  0  0  0  0  0  0
   13.3505  -11.4556  -12.5511 N   0  0  0  0  0  0  0  0  0  0  0  0
   15.0761   -9.8648  -13.1809 C   0  0  0  0  0  0  0  0  0  0  0  0
   15.8339  -10.8172  -13.4896 O   0  0  0  0  0  0  0  0  0  0  0  0
   12.9893   -8.5145   -9.6790 C   0  0  0  0  0  0  0  0  0  0  0  0
   11.9257   -8.2248   -8.8654 C   0  0  0  0  0  0  0  0  0  0  0  0
   15.3899   -8.5751  -13.6830 N   0  0  0  0  0  0  0  0  0  0  0  0
   16.4209   -8.3469  -14.6749 C   0  0  1  0  0  0  0  0  0  0  0  0
   15.8682   -7.3042  -15.6434 C   0  0  0  0  0  0  0  0  0  0  0  0
   14.6846   -7.8565  -16.4052 C   0  0  0  0  0  0  0  0  0  0  0  0
   15.1779   -8.7058  -17.5015 C   0  0  0  0  0  0  0  0  0  0  0  0
   16.2463   -8.4111  -18.0797 O   0  0  0  0  0  0  0  0  0  0  0  0
   17.6822   -7.8783  -14.0946 C   0  0  0  0  0  0  0  0  0  0  0  0
   17.6776   -7.1145  -13.0969 O   0  0  0  0  0  0  0  0  0  0  0  0
   14.5074   -9.8376  -17.9355 O   0  0  0  0  0  0  0  0  0  0  0  0
   21.0134  -10.2300  -13.8863 C   0  0  0  0  0  0  0  0  0  0  0  0
   21.2422   -8.8928  -14.5275 C   0  0  1  0  0  0  0  0  0  0  0  0
   21.2470   -9.0821  -15.9069 O   0  0  0  0  0  0  0  0  0  0  0  0
   20.1844   -7.8832  -14.1121 C   0  0  2  0  0  0  0  0  0  0  0  0
   18.9153   -8.2924  -14.6665 N   0  0  0  0  0  0  0  0  0  0  0  0
   20.5966   -6.5688  -14.7159 C   0  0  0  0  0  0  0  0  0  0  0  0
   19.9554   -6.0916  -15.6755 O   0  0  0  0  0  0  0  0  0  0  0  0
   21.6883   -5.8723  -14.2182 O   0  0  0  0  0  0  0  0  0  0  0  0
  2  1  1  0
  2  3  2  0
  4  3  1  0
  5  4  2  0
  6  5  1  0
  7  8  1  6
  7  6  1  0
  9  7  1  0
 10  9  2  0
 11 12  2  0
 11  5  1  0
 12  2  1  0
 13  9  1  0
 14 13  1  0
 15 16  1  0
 14 15  1  6
 16 17  1  0
 17 21  1  0
 17 18  2  0
 19 14  1  0
 19 26  1  0
 20 19  2  0
 23 22  1  1
 23 24  1  0
 25 23  1  0
 25 27  1  0
 25 26  1  6
 27 29  1  0
 28 27  2  0
M  END
$$$$
