YET.pdb
     RDKit          3D

 29 29  0  0  1  0  0  0  0  0999 V2000
   28.2516  -18.9998   -4.6387 O   0  0  0  0  0  0  0  0  0  0  0  0
   28.1489  -19.3927   -5.9739 C   0  0  0  0  0  0  0  0  0  0  0  0
   26.9896  -19.0757   -6.6585 C   0  0  0  0  0  0  0  0  0  0  0  0
   26.9009  -19.4707   -7.9800 C   0  0  0  0  0  0  0  0  0  0  0  0
   27.9448  -20.1516   -8.5612 C   0  0  0  0  0  0  0  0  0  0  0  0
   27.8075  -20.5560   -9.9803 C   0  0  0  0  0  0  0  0  0  0  0  0
   26.6126  -21.5154  -10.0715 C   0  0  2  0  0  0  0  0  0  0  0  0
   27.0996  -22.8390   -9.8184 N   0  0  0  0  0  0  0  0  0  0  0  0
   26.0521  -21.3501  -11.4279 C   0  0  0  0  0  0  0  0  0  0  0  0
   26.5347  -22.0505  -12.3516 O   0  0  0  0  0  0  0  0  0  0  0  0
   29.0775  -20.4496   -7.8572 C   0  0  0  0  0  0  0  0  0  0  0  0
   29.1973  -20.0725   -6.5455 C   0  0  0  0  0  0  0  0  0  0  0  0
   25.0036  -20.4507  -11.7532 N   0  0  0  0  0  0  0  0  0  0  0  0
   24.3892  -20.4003  -13.0643 C   0  0  1  0  0  0  0  0  0  0  0  0
   22.8910  -20.2182  -12.8349 C   0  0  0  0  0  0  0  0  0  0  0  0
   22.1567  -20.1170  -14.1528 C   0  0  0  0  0  0  0  0  0  0  0  0
   22.1056  -21.4507  -14.7734 C   0  0  0  0  0  0  0  0  0  0  0  0
   21.5303  -22.3879  -14.1790 O   0  0  0  0  0  0  0  0  0  0  0  0
   24.9076  -19.3137  -13.8998 C   0  0  0  0  0  0  0  0  0  0  0  0
   24.7150  -18.1153  -13.5752 O   0  0  0  0  0  0  0  0  0  0  0  0
   22.6729  -21.7282  -16.0062 O   0  0  0  0  0  0  0  0  0  0  0  0
   28.5368  -19.2771  -15.6399 C   0  0  0  0  0  0  0  0  0  0  0  0
   27.4125  -19.1081  -16.6191 C   0  0  1  0  0  0  0  0  0  0  0  0
   27.1888  -20.3433  -17.2213 O   0  0  0  0  0  0  0  0  0  0  0  0
   26.1542  -18.5867  -15.9440 C   0  0  2  0  0  0  0  0  0  0  0  0
   25.6318  -19.6216  -15.0829 N   0  0  0  0  0  0  0  0  0  0  0  0
   25.1704  -18.3056  -17.0464 C   0  0  0  0  0  0  0  0  0  0  0  0
   24.1192  -18.9742  -17.1336 O   0  0  0  0  0  0  0  0  0  0  0  0
   25.4156  -17.3056  -17.9763 O   0  0  0  0  0  0  0  0  0  0  0  0
  2  1  1  0
  2  3  2  0
  4  3  1  0
  5  4  2  0
  6  5  1  0
  7  8  1  6
  7  6  1  0
  9  7  1  0
 10  9  2  0
 11 12  2  0
 11  5  1  0
 12  2  1  0
 13  9  1  0
 14 13  1  0
 15 16  1  0
 14 15  1  1
 16 17  1  0
 17 21  1  0
 17 18  2  0
 19 14  1  0
 19 26  1  0
 20 19  2  0
 23 22  1  1
 23 24  1  0
 25 23  1  0
 25 27  1  0
 25 26  1  1
 27 29  1  0
 28 27  2  0
M  END
$$$$
