YET.pdb
     RDKit          3D

 29 29  0  0  1  0  0  0  0  0999 V2000
   24.4044  -22.5010  -24.5179 O   0  0  0  0  0  0  0  0  0  0  0  0
   25.0416  -23.4935  -23.7719 C   0  0  0  0  0  0  0  0  0  0  0  0
   24.2614  -24.3089  -22.9722 C   0  0  0  0  0  0  0  0  0  0  0  0
   24.9052  -25.2877  -22.2387 C   0  0  0  0  0  0  0  0  0  0  0  0
   26.2714  -25.4182  -22.3245 C   0  0  0  0  0  0  0  0  0  0  0  0
   26.9206  -26.4809  -21.5211 C   0  0  0  0  0  0  0  0  0  0  0  0
   26.9754  -25.9898  -20.0676 C   0  0  2  0  0  0  0  0  0  0  0  0
   27.9952  -24.9865  -19.9878 N   0  0  0  0  0  0  0  0  0  0  0  0
   27.2616  -27.1789  -19.2398 C   0  0  0  0  0  0  0  0  0  0  0  0
   28.4593  -27.4142  -18.9449 O   0  0  0  0  0  0  0  0  0  0  0  0
   27.0142  -24.5963  -23.1246 C   0  0  0  0  0  0  0  0  0  0  0  0
   26.4071  -23.6160  -23.8645 C   0  0  0  0  0  0  0  0  0  0  0  0
   26.2698  -28.0718  -18.7570 N   0  0  0  0  0  0  0  0  0  0  0  0
   26.5790  -29.2111  -17.9171 C   0  0  1  0  0  0  0  0  0  0  0  0
   25.2509  -29.7044  -17.3485 C   0  0  0  0  0  0  0  0  0  0  0  0
   25.4768  -30.8208  -16.3541 C   0  0  0  0  0  0  0  0  0  0  0  0
   24.1839  -31.2003  -15.7619 C   0  0  0  0  0  0  0  0  0  0  0  0
   24.1354  -32.1263  -14.9236 O   0  0  0  0  0  0  0  0  0  0  0  0
   27.2507  -30.2931  -18.6420 C   0  0  0  0  0  0  0  0  0  0  0  0
   26.8905  -30.5970  -19.8067 O   0  0  0  0  0  0  0  0  0  0  0  0
   22.9935  -30.5731  -16.0910 O   0  0  0  0  0  0  0  0  0  0  0  0
   31.0087  -30.4145  -19.0091 C   0  0  0  0  0  0  0  0  0  0  0  0
   30.5627  -31.7392  -18.4635 C   0  0  1  0  0  0  0  0  0  0  0  0
   30.8350  -31.7459  -17.0981 O   0  0  0  0  0  0  0  0  0  0  0  0
   29.0879  -31.9895  -18.7340 C   0  0  2  0  0  0  0  0  0  0  0  0
   28.3151  -31.0000  -18.0204 N   0  0  0  0  0  0  0  0  0  0  0  0
   28.7849  -33.3563  -18.1845 C   0  0  0  0  0  0  0  0  0  0  0  0
   28.1227  -33.4760  -17.1325 O   0  0  0  0  0  0  0  0  0  0  0  0
   29.2343  -34.4965  -18.8348 O   0  0  0  0  0  0  0  0  0  0  0  0
  2  1  1  0
  2  3  2  0
  4  3  1  0
  5  4  2  0
  6  5  1  0
  7  8  1  6
  7  6  1  0
  9  7  1  0
 10  9  2  0
 11 12  2  0
 11  5  1  0
 12  2  1  0
 13  9  1  0
 14 13  1  0
 15 16  1  0
 14 15  1  6
 16 17  1  0
 17 21  1  0
 17 18  2  0
 19 14  1  0
 19 26  1  0
 20 19  2  0
 23 22  1  1
 23 24  1  0
 25 23  1  0
 25 27  1  0
 25 26  1  1
 27 29  1  0
 28 27  2  0
M  END
$$$$
