YET.pdb
     RDKit          3D

 29 29  0  0  1  0  0  0  0  0999 V2000
   22.3471  -17.7562  -14.4243 O   0  0  0  0  0  0  0  0  0  0  0  0
   22.3525  -16.3841  -14.6789 C   0  0  0  0  0  0  0  0  0  0  0  0
   23.5662  -15.7213  -14.6498 C   0  0  0  0  0  0  0  0  0  0  0  0
   23.5572  -14.3626  -14.9037 C   0  0  0  0  0  0  0  0  0  0  0  0
   22.3685  -13.7253  -15.1715 C   0  0  0  0  0  0  0  0  0  0  0  0
   22.4049  -12.2680  -15.4380 C   0  0  0  0  0  0  0  0  0  0  0  0
   21.6201  -12.0176  -16.7334 C   0  0  2  0  0  0  0  0  0  0  0  0
   22.3725  -12.5860  -17.8123 N   0  0  0  0  0  0  0  0  0  0  0  0
   21.4591  -10.5536  -16.8430 C   0  0  0  0  0  0  0  0  0  0  0  0
   22.3870   -9.8997  -17.3797 O   0  0  0  0  0  0  0  0  0  0  0  0
   21.1855  -14.4091  -15.1927 C   0  0  0  0  0  0  0  0  0  0  0  0
   21.1595  -15.7564  -14.9453 C   0  0  0  0  0  0  0  0  0  0  0  0
   20.3231   -9.8396  -16.3805 N   0  0  0  0  0  0  0  0  0  0  0  0
   20.1539   -8.4149  -16.5824 C   0  0  1  0  0  0  0  0  0  0  0  0
   18.6846   -8.1981  -16.9357 C   0  0  0  0  0  0  0  0  0  0  0  0
   18.4222   -6.7453  -17.2626 C   0  0  0  0  0  0  0  0  0  0  0  0
   17.0008   -6.5842  -17.6090 C   0  0  0  0  0  0  0  0  0  0  0  0
   16.6693   -5.7721  -18.4997 O   0  0  0  0  0  0  0  0  0  0  0  0
   20.5119   -7.6216  -15.4036 C   0  0  0  0  0  0  0  0  0  0  0  0
   20.1985   -8.0166  -14.2527 O   0  0  0  0  0  0  0  0  0  0  0  0
   15.9900   -7.2991  -16.9877 O   0  0  0  0  0  0  0  0  0  0  0  0
   22.3723   -3.8864  -16.0900 C   0  0  0  0  0  0  0  0  0  0  0  0
   22.7642   -4.6865  -14.8826 C   0  0  1  0  0  0  0  0  0  0  0  0
   23.1118   -3.7887  -13.8768 O   0  0  0  0  0  0  0  0  0  0  0  0
   21.6440   -5.6113  -14.4347 C   0  0  2  0  0  0  0  0  0  0  0  0
   21.2177   -6.3993  -15.5673 N   0  0  0  0  0  0  0  0  0  0  0  0
   20.5165   -4.7217  -13.9880 C   0  0  0  0  0  0  0  0  0  0  0  0
   19.4991   -4.5940  -14.7009 O   0  0  0  0  0  0  0  0  0  0  0  0
   20.5907   -4.0347  -12.7850 O   0  0  0  0  0  0  0  0  0  0  0  0
  2  1  1  0
  2  3  2  0
  4  3  1  0
  5  4  2  0
  6  5  1  0
  7  8  1  6
  7  6  1  0
  9  7  1  0
 10  9  2  0
 11 12  2  0
 11  5  1  0
 12  2  1  0
 13  9  1  0
 14 13  1  0
 15 16  1  0
 14 15  1  1
 16 17  1  0
 17 21  1  0
 17 18  2  0
 19 14  1  0
 19 26  1  0
 20 19  2  0
 23 22  1  6
 23 24  1  0
 25 23  1  0
 25 27  1  0
 25 26  1  6
 27 29  1  0
 28 27  2  0
M  END
$$$$
