YET.pdb
     RDKit          3D

 29 29  0  0  1  0  0  0  0  0999 V2000
   22.8368  -20.8200  -13.5610 O   0  0  0  0  0  0  0  0  0  0  0  0
   22.4092  -19.6217  -14.1344 C   0  0  0  0  0  0  0  0  0  0  0  0
   21.1698  -19.1298  -13.7668 C   0  0  0  0  0  0  0  0  0  0  0  0
   20.7586  -17.9423  -14.3422 C   0  0  0  0  0  0  0  0  0  0  0  0
   21.5759  -17.3002  -15.2426 C   0  0  0  0  0  0  0  0  0  0  0  0
   21.0955  -16.0297  -15.8353 C   0  0  0  0  0  0  0  0  0  0  0  0
   20.0457  -16.3857  -16.8974 C   0  0  2  0  0  0  0  0  0  0  0  0
   20.7253  -17.0409  -17.9753 N   0  0  0  0  0  0  0  0  0  0  0  0
   19.4124  -15.1124  -17.2959 C   0  0  0  0  0  0  0  0  0  0  0  0
   20.0104  -14.3977  -18.1374 O   0  0  0  0  0  0  0  0  0  0  0  0
   22.7956  -17.8127  -15.5850 C   0  0  0  0  0  0  0  0  0  0  0  0
   23.2331  -18.9878  -15.0330 C   0  0  0  0  0  0  0  0  0  0  0  0
   18.1718  -14.6460  -16.7886 N   0  0  0  0  0  0  0  0  0  0  0  0
   17.5109  -13.4604  -17.2951 C   0  0  1  0  0  0  0  0  0  0  0  0
   16.0120  -13.7465  -17.2506 C   0  0  0  0  0  0  0  0  0  0  0  0
   15.6555  -14.8773  -18.1889 C   0  0  0  0  0  0  0  0  0  0  0  0
   15.5128  -16.1170  -17.4084 C   0  0  0  0  0  0  0  0  0  0  0  0
   15.0587  -16.0667  -16.2448 O   0  0  0  0  0  0  0  0  0  0  0  0
   17.8181  -12.2560  -16.5190 C   0  0  0  0  0  0  0  0  0  0  0  0
   18.0090  -12.3305  -15.2793 O   0  0  0  0  0  0  0  0  0  0  0  0
   15.8622  -17.3621  -17.9048 O   0  0  0  0  0  0  0  0  0  0  0  0
   17.2804   -8.4456  -18.3536 C   0  0  0  0  0  0  0  0  0  0  0  0
   18.4661   -8.6769  -17.4637 C   0  0  1  0  0  0  0  0  0  0  0  0
   18.7572   -7.4729  -16.8279 O   0  0  0  0  0  0  0  0  0  0  0  0
   18.2036   -9.7844  -16.4560 C   0  0  2  0  0  0  0  0  0  0  0  0
   17.8997  -10.9987  -17.1760 N   0  0  0  0  0  0  0  0  0  0  0  0
   16.9999   -9.3555  -15.6627 C   0  0  0  0  0  0  0  0  0  0  0  0
   15.8934   -9.8999  -15.8594 O   0  0  0  0  0  0  0  0  0  0  0  0
   17.1016   -8.3549  -14.7070 O   0  0  0  0  0  0  0  0  0  0  0  0
  2  1  1  0
  2  3  2  0
  4  3  1  0
  5  4  2  0
  6  5  1  0
  7  8  1  6
  7  6  1  0
  9  7  1  0
 10  9  2  0
 11 12  2  0
 11  5  1  0
 12  2  1  0
 13  9  1  0
 14 13  1  0
 15 16  1  0
 14 15  1  1
 16 17  1  0
 17 21  1  0
 17 18  2  0
 19 14  1  0
 19 26  1  0
 20 19  2  0
 23 22  1  1
 23 24  1  0
 25 23  1  0
 25 27  1  0
 25 26  1  6
 27 29  1  0
 28 27  2  0
M  END
$$$$
