YET.pdb
     RDKit          3D

 29 29  0  0  1  0  0  0  0  0999 V2000
   40.8710  -35.0875  -13.8163 O   0  0  0  0  0  0  0  0  0  0  0  0
   40.1412  -34.1483  -14.5465 C   0  0  0  0  0  0  0  0  0  0  0  0
   38.8191  -34.4335  -14.8363 C   0  0  0  0  0  0  0  0  0  0  0  0
   38.1080  -33.4949  -15.5599 C   0  0  0  0  0  0  0  0  0  0  0  0
   38.7228  -32.3320  -15.9609 C   0  0  0  0  0  0  0  0  0  0  0  0
   37.9231  -31.3533  -16.7348 C   0  0  0  0  0  0  0  0  0  0  0  0
   37.3970  -30.3043  -15.7451 C   0  0  2  0  0  0  0  0  0  0  0  0
   36.1326  -30.7671  -15.2550 N   0  0  0  0  0  0  0  0  0  0  0  0
   37.3019  -29.0369  -16.4975 C   0  0  0  0  0  0  0  0  0  0  0  0
   36.1982  -28.7469  -17.0214 O   0  0  0  0  0  0  0  0  0  0  0  0
   40.0314  -32.0800  -15.6583 C   0  0  0  0  0  0  0  0  0  0  0  0
   40.7645  -32.9895  -14.9425 C   0  0  0  0  0  0  0  0  0  0  0  0
   38.3778  -28.1270  -16.6658 N   0  0  0  0  0  0  0  0  0  0  0  0
   38.2298  -26.8487  -17.3314 C   0  0  1  0  0  0  0  0  0  0  0  0
   39.4614  -26.0239  -16.9660 C   0  0  0  0  0  0  0  0  0  0  0  0
   39.3571  -24.6267  -17.5346 C   0  0  0  0  0  0  0  0  0  0  0  0
   40.5652  -23.8710  -17.1663 C   0  0  0  0  0  0  0  0  0  0  0  0
   41.4891  -23.7379  -17.9977 O   0  0  0  0  0  0  0  0  0  0  0  0
   38.1170  -26.9692  -18.7874 C   0  0  0  0  0  0  0  0  0  0  0  0
   38.8812  -27.7384  -19.4225 O   0  0  0  0  0  0  0  0  0  0  0  0
   40.7364  -23.2873  -15.9218 O   0  0  0  0  0  0  0  0  0  0  0  0
   34.8625  -27.6487  -20.8237 C   0  0  0  0  0  0  0  0  0  0  0  0
   35.4847  -26.3442  -21.2271 C   0  0  1  0  0  0  0  0  0  0  0  0
   34.8034  -25.3286  -20.5615 O   0  0  0  0  0  0  0  0  0  0  0  0
   36.9715  -26.3106  -20.9123 C   0  0  2  0  0  0  0  0  0  0  0  0
   37.1364  -26.2103  -19.4812 N   0  0  0  0  0  0  0  0  0  0  0  0
   37.5132  -25.0707  -21.5691 C   0  0  0  0  0  0  0  0  0  0  0  0
   37.7978  -24.0695  -20.8789 O   0  0  0  0  0  0  0  0  0  0  0  0
   37.7030  -25.0222  -22.9425 O   0  0  0  0  0  0  0  0  0  0  0  0
  2  1  1  0
  2  3  2  0
  4  3  1  0
  5  4  2  0
  6  5  1  0
  7  8  1  6
  7  6  1  0
  9  7  1  0
 10  9  2  0
 11 12  2  0
 11  5  1  0
 12  2  1  0
 13  9  1  0
 14 13  1  0
 15 16  1  0
 14 15  1  6
 16 17  1  0
 17 21  1  0
 17 18  2  0
 19 14  1  0
 19 26  1  0
 20 19  2  0
 23 22  1  1
 23 24  1  0
 25 23  1  0
 25 27  1  0
 25 26  1  1
 27 29  1  0
 28 27  2  0
M  END
$$$$
