YET.pdb
     RDKit          3D

 29 29  0  0  1  0  0  0  0  0999 V2000
   29.8106  -14.3920  -17.1156 O   0  0  0  0  0  0  0  0  0  0  0  0
   28.8828  -13.3504  -17.0719 C   0  0  0  0  0  0  0  0  0  0  0  0
   28.8118  -12.4958  -18.1571 C   0  0  0  0  0  0  0  0  0  0  0  0
   27.8886  -11.4686  -18.1008 C   0  0  0  0  0  0  0  0  0  0  0  0
   27.0867  -11.3306  -16.9922 C   0  0  0  0  0  0  0  0  0  0  0  0
   26.1109  -10.2154  -16.9738 C   0  0  0  0  0  0  0  0  0  0  0  0
   24.7206  -10.8168  -17.2233 C   0  0  2  0  0  0  0  0  0  0  0  0
   24.7521  -11.4650  -18.5008 N   0  0  0  0  0  0  0  0  0  0  0  0
   23.7664   -9.6910  -17.1644 C   0  0  0  0  0  0  0  0  0  0  0  0
   23.6078   -9.0013  -18.2016 O   0  0  0  0  0  0  0  0  0  0  0  0
   27.1816  -12.1923  -15.9358 C   0  0  0  0  0  0  0  0  0  0  0  0
   28.0862  -13.2210  -15.9598 C   0  0  0  0  0  0  0  0  0  0  0  0
   23.0182   -9.3396  -16.0108 N   0  0  0  0  0  0  0  0  0  0  0  0
   21.9811   -8.3280  -16.0242 C   0  0  1  0  0  0  0  0  0  0  0  0
   20.7422   -8.9683  -15.4032 C   0  0  0  0  0  0  0  0  0  0  0  0
   19.5958   -7.9833  -15.3606 C   0  0  0  0  0  0  0  0  0  0  0  0
   18.4221   -8.6436  -14.7667 C   0  0  0  0  0  0  0  0  0  0  0  0
   17.3726   -7.9902  -14.5813 O   0  0  0  0  0  0  0  0  0  0  0  0
   22.3494   -7.1185  -15.2833 C   0  0  0  0  0  0  0  0  0  0  0  0
   22.9688   -7.2049  -14.1935 O   0  0  0  0  0  0  0  0  0  0  0  0
   18.4185   -9.9779  -14.3947 O   0  0  0  0  0  0  0  0  0  0  0  0
   20.6038   -3.3816  -16.4107 C   0  0  0  0  0  0  0  0  0  0  0  0
   22.0539   -3.4470  -16.0307 C   0  0  1  0  0  0  0  0  0  0  0  0
   22.3860   -2.2378  -15.4256 O   0  0  0  0  0  0  0  0  0  0  0  0
   22.3401   -4.6223  -15.1101 C   0  0  2  0  0  0  0  0  0  0  0  0
   22.0021   -5.8429  -15.8039 N   0  0  0  0  0  0  0  0  0  0  0  0
   21.4370   -4.4542  -13.9191 C   0  0  0  0  0  0  0  0  0  0  0  0
   20.4615   -5.2176  -13.7599 O   0  0  0  0  0  0  0  0  0  0  0  0
   21.6736   -3.4547  -12.9865 O   0  0  0  0  0  0  0  0  0  0  0  0
  2  1  1  0
  2  3  2  0
  4  3  1  0
  5  4  2  0
  6  5  1  0
  7  8  1  6
  7  6  1  0
  9  7  1  0
 10  9  2  0
 11 12  2  0
 11  5  1  0
 12  2  1  0
 13  9  1  0
 14 13  1  0
 15 16  1  0
 14 15  1  1
 16 17  1  0
 17 21  1  0
 17 18  2  0
 19 14  1  0
 19 26  1  0
 20 19  2  0
 23 22  1  1
 23 24  1  0
 25 23  1  0
 25 27  1  0
 25 26  1  6
 27 29  1  0
 28 27  2  0
M  END
$$$$
