YET.pdb
     RDKit          3D

 29 29  0  0  1  0  0  0  0  0999 V2000
   22.3493  -14.3834  -17.3236 O   0  0  0  0  0  0  0  0  0  0  0  0
   22.0261  -13.3218  -16.4774 C   0  0  0  0  0  0  0  0  0  0  0  0
   22.9135  -13.0021  -15.4658 C   0  0  0  0  0  0  0  0  0  0  0  0
   22.5811  -11.9486  -14.6350 C   0  0  0  0  0  0  0  0  0  0  0  0
   21.4045  -11.2655  -14.8351 C   0  0  0  0  0  0  0  0  0  0  0  0
   21.0877  -10.1429  -13.9211 C   0  0  0  0  0  0  0  0  0  0  0  0
   21.0440   -8.8611  -14.7649 C   0  0  2  0  0  0  0  0  0  0  0  0
   22.3964   -8.4897  -15.0586 N   0  0  0  0  0  0  0  0  0  0  0  0
   20.3266   -7.8565  -13.9541 C   0  0  0  0  0  0  0  0  0  0  0  0
   20.9690   -7.2615  -13.0541 O   0  0  0  0  0  0  0  0  0  0  0  0
   20.5486  -11.6064  -15.8444 C   0  0  0  0  0  0  0  0  0  0  0  0
   20.8482  -12.6455  -16.6856 C   0  0  0  0  0  0  0  0  0  0  0  0
   18.9586   -7.5212  -14.1276 N   0  0  0  0  0  0  0  0  0  0  0  0
   18.2884   -6.5146  -13.3298 C   0  0  1  0  0  0  0  0  0  0  0  0
   17.6358   -5.5456  -14.3125 C   0  0  0  0  0  0  0  0  0  0  0  0
   16.9525   -4.4160  -13.5754 C   0  0  0  0  0  0  0  0  0  0  0  0
   16.4083   -3.4656  -14.5588 C   0  0  0  0  0  0  0  0  0  0  0  0
   15.8921   -2.3969  -14.1662 O   0  0  0  0  0  0  0  0  0  0  0  0
   17.2786   -7.0753  -12.4281 C   0  0  0  0  0  0  0  0  0  0  0  0
   16.6104   -8.0829  -12.7703 O   0  0  0  0  0  0  0  0  0  0  0  0
   16.4383   -3.6972  -15.9241 O   0  0  0  0  0  0  0  0  0  0  0  0
   15.1907   -6.6899   -7.9171 C   0  0  0  0  0  0  0  0  0  0  0  0
   16.1141   -6.1497   -8.9692 C   0  0  1  0  0  0  0  0  0  0  0  0
   17.3939   -6.1028   -8.4229 O   0  0  0  0  0  0  0  0  0  0  0  0
   16.0829   -6.9964  -10.2314 C   0  0  2  0  0  0  0  0  0  0  0  0
   17.0570   -6.4732  -11.1603 N   0  0  0  0  0  0  0  0  0  0  0  0
   14.7030   -6.8407  -10.8090 C   0  0  0  0  0  0  0  0  0  0  0  0
   14.4037   -5.8101  -11.4476 O   0  0  0  0  0  0  0  0  0  0  0  0
   13.7490   -7.8341  -10.6414 O   0  0  0  0  0  0  0  0  0  0  0  0
  2  1  1  0
  2  3  2  0
  4  3  1  0
  5  4  2  0
  6  5  1  0
  7  8  1  1
  7  6  1  0
  9  7  1  0
 10  9  2  0
 11 12  2  0
 11  5  1  0
 12  2  1  0
 13  9  1  0
 14 13  1  0
 15 16  1  0
 14 15  1  6
 16 17  1  0
 17 21  1  0
 17 18  2  0
 19 14  1  0
 19 26  1  0
 20 19  2  0
 23 22  1  1
 23 24  1  0
 25 23  1  0
 25 27  1  0
 25 26  1  6
 27 29  1  0
 28 27  2  0
M  END
$$$$
