YET.pdb
     RDKit          3D

 29 29  0  0  1  0  0  0  0  0999 V2000
   32.3018  -16.6421  -19.6416 O   0  0  0  0  0  0  0  0  0  0  0  0
   31.1658  -16.6074  -18.8317 C   0  0  0  0  0  0  0  0  0  0  0  0
   30.6676  -15.3712  -18.4616 C   0  0  0  0  0  0  0  0  0  0  0  0
   29.5422  -15.3512  -17.6594 C   0  0  0  0  0  0  0  0  0  0  0  0
   28.9649  -16.5345  -17.2625 C   0  0  0  0  0  0  0  0  0  0  0  0
   27.7596  -16.4667  -16.4028 C   0  0  0  0  0  0  0  0  0  0  0  0
   26.6046  -17.1157  -17.1783 C   0  0  2  0  0  0  0  0  0  0  0  0
   26.0259  -16.1082  -18.0168 N   0  0  0  0  0  0  0  0  0  0  0  0
   25.6673  -17.6384  -16.1635 C   0  0  0  0  0  0  0  0  0  0  0  0
   25.2704  -16.8503  -15.2702 O   0  0  0  0  0  0  0  0  0  0  0  0
   29.4818  -17.7401  -17.6456 C   0  0  0  0  0  0  0  0  0  0  0  0
   30.5963  -17.7951  -18.4404 C   0  0  0  0  0  0  0  0  0  0  0  0
   25.1874  -18.9736  -16.1340 N   0  0  0  0  0  0  0  0  0  0  0  0
   24.3924  -19.4995  -15.0430 C   0  0  1  0  0  0  0  0  0  0  0  0
   23.3289  -20.3953  -15.6733 C   0  0  0  0  0  0  0  0  0  0  0  0
   22.4696  -21.0364  -14.6072 C   0  0  0  0  0  0  0  0  0  0  0  0
   21.4603  -21.8881  -15.2571 C   0  0  0  0  0  0  0  0  0  0  0  0
   20.5952  -22.4628  -14.5615 O   0  0  0  0  0  0  0  0  0  0  0  0
   25.1826  -20.2609  -14.0719 C   0  0  0  0  0  0  0  0  0  0  0  0
   26.1685  -20.9424  -14.4496 O   0  0  0  0  0  0  0  0  0  0  0  0
   21.4172  -22.0907  -16.6267 O   0  0  0  0  0  0  0  0  0  0  0  0
   25.8675  -21.2018   -9.2291 C   0  0  0  0  0  0  0  0  0  0  0  0
   25.0836  -20.5384  -10.3231 C   0  0  1  0  0  0  0  0  0  0  0  0
   25.1804  -19.1621  -10.1360 O   0  0  0  0  0  0  0  0  0  0  0  0
   25.5856  -20.9455  -11.6990 C   0  0  2  0  0  0  0  0  0  0  0  0
   24.8287  -20.2257  -12.6962 N   0  0  0  0  0  0  0  0  0  0  0  0
   25.3131  -22.4191  -11.8278 C   0  0  0  0  0  0  0  0  0  0  0  0
   24.3333  -22.8195  -12.4904 O   0  0  0  0  0  0  0  0  0  0  0  0
   26.1417  -23.3484  -11.2157 O   0  0  0  0  0  0  0  0  0  0  0  0
  2  1  1  0
  2  3  2  0
  4  3  1  0
  5  4  2  0
  6  5  1  0
  7  8  1  6
  7  6  1  0
  9  7  1  0
 10  9  2  0
 11 12  2  0
 11  5  1  0
 12  2  1  0
 13  9  1  0
 14 13  1  0
 15 16  1  0
 14 15  1  6
 16 17  1  0
 17 21  1  0
 17 18  2  0
 19 14  1  0
 19 26  1  0
 20 19  2  0
 23 22  1  1
 23 24  1  0
 25 23  1  0
 25 27  1  0
 25 26  1  6
 27 29  1  0
 28 27  2  0
M  END
$$$$
