YET.pdb
     RDKit          3D

 29 29  0  0  1  0  0  0  0  0999 V2000
   31.3550  -23.9691  -18.6281 O   0  0  0  0  0  0  0  0  0  0  0  0
   30.4549  -23.0840  -18.0333 C   0  0  0  0  0  0  0  0  0  0  0  0
   30.5269  -21.7481  -18.3848 C   0  0  0  0  0  0  0  0  0  0  0  0
   29.6296  -20.8824  -17.7883 C   0  0  0  0  0  0  0  0  0  0  0  0
   28.7130  -21.3646  -16.8837 C   0  0  0  0  0  0  0  0  0  0  0  0
   27.7698  -20.4014  -16.2682 C   0  0  0  0  0  0  0  0  0  0  0  0
   26.4055  -20.5981  -16.9439 C   0  0  2  0  0  0  0  0  0  0  0  0
   26.4102  -19.8380  -18.1586 N   0  0  0  0  0  0  0  0  0  0  0  0
   25.3927  -20.1380  -15.9724 C   0  0  0  0  0  0  0  0  0  0  0  0
   24.9058  -18.9914  -16.1309 O   0  0  0  0  0  0  0  0  0  0  0  0
   28.6677  -22.6909  -16.5576 C   0  0  0  0  0  0  0  0  0  0  0  0
   29.5429  -23.5756  -17.1307 C   0  0  0  0  0  0  0  0  0  0  0  0
   24.9353  -20.9087  -14.8721 N   0  0  0  0  0  0  0  0  0  0  0  0
   23.8462  -20.4866  -14.0149 C   0  0  1  0  0  0  0  0  0  0  0  0
   22.5559  -20.7798  -14.7763 C   0  0  0  0  0  0  0  0  0  0  0  0
   22.0765  -19.5477  -15.5101 C   0  0  0  0  0  0  0  0  0  0  0  0
   20.8937  -19.0109  -14.8179 C   0  0  0  0  0  0  0  0  0  0  0  0
   19.9531  -19.7769  -14.5158 O   0  0  0  0  0  0  0  0  0  0  0  0
   23.8355  -21.1730  -12.7203 C   0  0  0  0  0  0  0  0  0  0  0  0
   23.4148  -22.3536  -12.6306 O   0  0  0  0  0  0  0  0  0  0  0  0
   20.7647  -17.6747  -14.4765 O   0  0  0  0  0  0  0  0  0  0  0  0
   26.7451  -20.5000   -9.9532 C   0  0  0  0  0  0  0  0  0  0  0  0
   25.3542  -20.4071   -9.3981 C   0  0  1  0  0  0  0  0  0  0  0  0
   25.0340  -19.0567   -9.2870 O   0  0  0  0  0  0  0  0  0  0  0  0
   24.3511  -21.1427  -10.2719 C   0  0  2  0  0  0  0  0  0  0  0  0
   24.3043  -20.4961  -11.5623 N   0  0  0  0  0  0  0  0  0  0  0  0
   23.0173  -21.0034   -9.5909 C   0  0  0  0  0  0  0  0  0  0  0  0
   22.1221  -20.3002  -10.1044 O   0  0  0  0  0  0  0  0  0  0  0  0
   22.7645  -21.6503   -8.3899 O   0  0  0  0  0  0  0  0  0  0  0  0
  2  1  1  0
  2  3  2  0
  4  3  1  0
  5  4  2  0
  6  5  1  0
  7  8  1  6
  7  6  1  0
  9  7  1  0
 10  9  2  0
 11 12  2  0
 11  5  1  0
 12  2  1  0
 13  9  1  0
 14 13  1  0
 15 16  1  0
 14 15  1  6
 16 17  1  0
 17 21  1  0
 17 18  2  0
 19 14  1  0
 19 26  1  0
 20 19  2  0
 23 22  1  6
 23 24  1  0
 25 23  1  0
 25 27  1  0
 25 26  1  6
 27 29  1  0
 28 27  2  0
M  END
$$$$
