IDL.pdb
     RDKit          3D

 25 24  0  0  1  0  0  0  0  0999 V2000
   17.7957  -14.8491    0.6823 C   0  0  0  0  0  0  0  0  0  0  0  0
   16.8433  -15.7340    1.3949 C   0  0  0  0  0  0  0  0  0  0  0  0
   17.0986  -15.7385    2.8749 C   0  0  2  0  0  0  0  0  0  0  0  0
   18.4430  -16.4390    3.0635 C   0  0  0  0  0  0  0  0  0  0  0  0
   16.0440  -16.5237    3.5831 C   0  0  2  0  0  0  0  0  0  0  0  0
   14.7369  -15.8917    3.3250 N   0  0  0  0  0  0  0  0  0  0  0  0
   16.2038  -16.4910    5.0634 C   0  0  0  0  0  0  0  0  0  0  0  0
   15.5974  -15.6106    5.7467 O   0  0  0  0  0  0  0  0  0  0  0  0
   17.0104  -17.4137    5.7319 N   0  0  0  0  0  0  0  0  0  0  0  0
   17.2826  -17.3516    7.1847 C   0  0  1  0  0  0  0  0  0  0  0  0
   17.3605  -18.7619    7.7313 C   0  0  0  0  0  0  0  0  0  0  0  0
   17.4699  -18.8330    9.1934 C   0  0  0  0  0  0  0  0  0  0  0  0
   17.5641  -17.7908    9.8678 O   0  0  0  0  0  0  0  0  0  0  0  0
   18.5880  -16.6959    7.3484 C   0  0  0  0  0  0  0  0  0  0  0  0
   19.5510  -17.1498    6.6597 O   0  0  0  0  0  0  0  0  0  0  0  0
   17.4706  -20.0534    9.8536 O   0  0  0  0  0  0  0  0  0  0  0  0
   20.8604  -11.5382    6.7008 C   0  0  0  0  0  0  0  0  0  0  0  0
   21.1811  -12.7417    7.5042 C   0  0  1  0  0  0  0  0  0  0  0  0
   21.7930  -12.3027    8.8316 C   0  0  0  0  0  0  0  0  0  0  0  0
   20.0825  -13.6862    7.6518 C   0  0  0  0  0  0  0  0  0  0  0  0
   20.2645  -15.0473    8.2144 C   0  0  2  0  0  0  0  0  0  0  0  0
   18.8873  -15.6109    8.1852 N   0  0  0  0  0  0  0  0  0  0  0  0
   20.8697  -15.2084    9.5165 C   0  0  0  0  0  0  0  0  0  0  0  0
   22.2740  -15.3901    9.5524 O   0  0  0  0  0  0  0  0  0  0  0  0
   20.3354  -15.2139   10.6436 O   0  0  0  0  0  0  0  0  0  0  0  0
  1  2  1  0
  2  3  1  0
  3  5  1  0
  3  4  1  6
  5  6  1  1
  5  7  1  0
  7  8  2  0
  9  7  1  0
  9 10  1  0
 10 11  1  6
 12 16  1  0
 12 11  1  0
 13 12  2  0
 14 10  1  0
 14 15  2  0
 18 17  1  1
 18 20  1  0
 19 18  1  0
 21 20  1  1
 21 23  1  0
 21 22  1  0
 22 14  1  0
 23 24  1  0
 25 23  2  0
M  END
$$$$
