IDL.pdb
     RDKit          3D

 25 24  0  0  1  0  0  0  0  0999 V2000
   27.6080  -19.7213  -17.1397 C   0  0  0  0  0  0  0  0  0  0  0  0
   27.5591  -20.6524  -15.9871 C   0  0  0  0  0  0  0  0  0  0  0  0
   27.0836  -19.9611  -14.7415 C   0  0  2  0  0  0  0  0  0  0  0  0
   28.0597  -18.8100  -14.5055 C   0  0  0  0  0  0  0  0  0  0  0  0
   27.1452  -20.8905  -13.5741 C   0  0  2  0  0  0  0  0  0  0  0  0
   26.2752  -22.0485  -13.8509 N   0  0  0  0  0  0  0  0  0  0  0  0
   26.5962  -20.2831  -12.3300 C   0  0  0  0  0  0  0  0  0  0  0  0
   27.1151  -19.2256  -11.8590 O   0  0  0  0  0  0  0  0  0  0  0  0
   25.5113  -20.8489  -11.6577 N   0  0  0  0  0  0  0  0  0  0  0  0
   24.9072  -20.2537  -10.4456 C   0  0  1  0  0  0  0  0  0  0  0  0
   23.5082  -20.8068  -10.2709 C   0  0  0  0  0  0  0  0  0  0  0  0
   22.5088  -20.2010  -11.1591 C   0  0  0  0  0  0  0  0  0  0  0  0
   22.7690  -19.1500  -11.7735 O   0  0  0  0  0  0  0  0  0  0  0  0
   25.7376  -20.6678   -9.3054 C   0  0  0  0  0  0  0  0  0  0  0  0
   26.0545  -21.8936   -9.2388 O   0  0  0  0  0  0  0  0  0  0  0  0
   21.2603  -20.7806  -11.3342 O   0  0  0  0  0  0  0  0  0  0  0  0
   29.7892  -18.3106   -5.5113 C   0  0  0  0  0  0  0  0  0  0  0  0
   28.9019  -19.4835   -5.6956 C   0  0  1  0  0  0  0  0  0  0  0  0
   28.2469  -19.8240   -4.3600 C   0  0  0  0  0  0  0  0  0  0  0  0
   27.9559  -19.3647   -6.7964 C   0  0  0  0  0  0  0  0  0  0  0  0
   27.0000  -20.4423   -7.1527 C   0  0  2  0  0  0  0  0  0  0  0  0
   26.2268  -19.8486   -8.2775 N   0  0  0  0  0  0  0  0  0  0  0  0
   26.1220  -20.9835   -6.1408 C   0  0  0  0  0  0  0  0  0  0  0  0
   24.8535  -20.3694   -5.9981 O   0  0  0  0  0  0  0  0  0  0  0  0
   26.3110  -21.9306   -5.3515 O   0  0  0  0  0  0  0  0  0  0  0  0
  1  2  1  0
  2  3  1  0
  3  5  1  0
  3  4  1  1
  5  6  1  6
  5  7  1  0
  7  8  2  0
  9  7  1  0
  9 10  1  0
 10 11  1  1
 12 16  1  0
 12 11  1  0
 13 12  2  0
 14 10  1  0
 14 15  2  0
 18 17  1  1
 18 20  1  0
 19 18  1  0
 21 20  1  1
 21 23  1  0
 21 22  1  0
 22 14  1  0
 23 24  1  0
 25 23  2  0
M  END
$$$$
