IDL.pdb
     RDKit          3D

 25 24  0  0  1  0  0  0  0  0999 V2000
   26.6397  -20.0614   -7.9426 C   0  0  0  0  0  0  0  0  0  0  0  0
   26.6995  -20.9836   -9.1018 C   0  0  0  0  0  0  0  0  0  0  0  0
   25.8617  -20.4857  -10.2445 C   0  0  2  0  0  0  0  0  0  0  0  0
   24.4113  -20.6031   -9.7797 C   0  0  0  0  0  0  0  0  0  0  0  0
   26.0528  -21.3513  -11.4464 C   0  0  2  0  0  0  0  0  0  0  0  0
   27.4850  -21.3556  -11.7976 N   0  0  0  0  0  0  0  0  0  0  0  0
   25.3606  -20.8169  -12.6520 C   0  0  0  0  0  0  0  0  0  0  0  0
   25.8444  -19.8205  -13.2706 O   0  0  0  0  0  0  0  0  0  0  0  0
   24.1800  -21.3882  -13.1301 N   0  0  0  0  0  0  0  0  0  0  0  0
   23.4945  -20.9282  -14.3577 C   0  0  1  0  0  0  0  0  0  0  0  0
   23.1379  -22.1332  -15.2030 C   0  0  0  0  0  0  0  0  0  0  0  0
   22.4458  -21.8038  -16.4548 C   0  0  0  0  0  0  0  0  0  0  0  0
   21.2262  -22.0232  -16.5750 O   0  0  0  0  0  0  0  0  0  0  0  0
   22.2601  -20.2530  -13.9318 C   0  0  0  0  0  0  0  0  0  0  0  0
   21.6495  -20.7440  -12.9350 O   0  0  0  0  0  0  0  0  0  0  0  0
   23.1283  -21.2443  -17.5255 O   0  0  0  0  0  0  0  0  0  0  0  0
   19.1883  -16.0146  -12.4328 C   0  0  0  0  0  0  0  0  0  0  0  0
   19.5341  -16.1249  -13.8698 C   0  0  1  0  0  0  0  0  0  0  0  0
   19.8069  -14.7287  -14.4223 C   0  0  0  0  0  0  0  0  0  0  0  0
   20.5844  -17.0875  -14.1715 C   0  0  0  0  0  0  0  0  0  0  0  0
   20.4265  -18.5453  -13.9430 C   0  0  2  0  0  0  0  0  0  0  0  0
   21.6812  -19.1127  -14.5077 N   0  0  0  0  0  0  0  0  0  0  0  0
   19.2629  -19.2286  -14.4594 C   0  0  0  0  0  0  0  0  0  0  0  0
   19.2144  -19.4436  -15.8587 O   0  0  0  0  0  0  0  0  0  0  0  0
   18.2674  -19.6696  -13.8507 O   0  0  0  0  0  0  0  0  0  0  0  0
  1  2  1  0
  2  3  1  0
  3  5  1  0
  3  4  1  1
  5  6  1  6
  5  7  1  0
  7  8  2  0
  9  7  1  0
  9 10  1  0
 10 11  1  6
 12 16  1  0
 12 11  1  0
 13 12  2  0
 14 10  1  0
 14 15  2  0
 18 17  1  1
 18 20  1  0
 19 18  1  0
 21 20  1  6
 21 23  1  0
 21 22  1  0
 22 14  1  0
 23 24  1  0
 25 23  2  0
M  END
$$$$
