IDL.pdb
     RDKit          3D

 25 24  0  0  1  0  0  0  0  0999 V2000
   18.1391  -10.5831  -21.0901 C   0  0  0  0  0  0  0  0  0  0  0  0
   19.3385  -10.5710  -20.2187 C   0  0  0  0  0  0  0  0  0  0  0  0
   19.1574   -9.6496  -19.0466 C   0  0  2  0  0  0  0  0  0  0  0  0
   19.0941   -8.2396  -19.6311 C   0  0  0  0  0  0  0  0  0  0  0  0
   20.3323   -9.7371  -18.1288 C   0  0  2  0  0  0  0  0  0  0  0  0
   20.4023  -11.1067  -17.5869 N   0  0  0  0  0  0  0  0  0  0  0  0
   20.1933   -8.8560  -16.9362 C   0  0  0  0  0  0  0  0  0  0  0  0
   19.3657   -9.1536  -16.0217 O   0  0  0  0  0  0  0  0  0  0  0  0
   20.9580   -7.6971  -16.7906 N   0  0  0  0  0  0  0  0  0  0  0  0
   20.7516   -6.7199  -15.6993 C   0  0  1  0  0  0  0  0  0  0  0  0
   22.1007   -6.2944  -15.1584 C   0  0  0  0  0  0  0  0  0  0  0  0
   22.0310   -5.2585  -14.1207 C   0  0  0  0  0  0  0  0  0  0  0  0
   22.4534   -4.1101  -14.3500 O   0  0  0  0  0  0  0  0  0  0  0  0
   20.0771   -5.5547  -16.2894 C   0  0  0  0  0  0  0  0  0  0  0  0
   20.5608   -5.0937  -17.3670 O   0  0  0  0  0  0  0  0  0  0  0  0
   21.4967   -5.5319  -12.8697 O   0  0  0  0  0  0  0  0  0  0  0  0
   15.9963   -1.7471  -16.7804 C   0  0  0  0  0  0  0  0  0  0  0  0
   16.1245   -3.0730  -17.4302 C   0  0  1  0  0  0  0  0  0  0  0  0
   16.4470   -2.8714  -18.9082 C   0  0  0  0  0  0  0  0  0  0  0  0
   17.0265   -3.9968  -16.7566 C   0  0  0  0  0  0  0  0  0  0  0  0
   18.4419   -3.6637  -16.4604 C   0  0  2  0  0  0  0  0  0  0  0  0
   18.9446   -4.8943  -15.7909 N   0  0  0  0  0  0  0  0  0  0  0  0
   18.7527   -2.4825  -15.6885 C   0  0  0  0  0  0  0  0  0  0  0  0
   18.7693   -2.6240  -14.2792 O   0  0  0  0  0  0  0  0  0  0  0  0
   19.0142   -1.3269  -16.0785 O   0  0  0  0  0  0  0  0  0  0  0  0
  1  2  1  0
  2  3  1  0
  3  5  1  0
  3  4  1  6
  5  6  1  1
  5  7  1  0
  7  8  2  0
  9  7  1  0
  9 10  1  0
 10 11  1  6
 12 16  1  0
 12 11  1  0
 13 12  2  0
 14 10  1  0
 14 15  2  0
 18 17  1  1
 18 20  1  0
 19 18  1  0
 21 20  1  1
 21 23  1  0
 21 22  1  0
 22 14  1  0
 23 24  1  0
 25 23  2  0
M  END
$$$$
