IDL.pdb
     RDKit          3D

 25 24  0  0  1  0  0  0  0  0999 V2000
   21.5668  -15.6742  -15.3510 C   0  0  0  0  0  0  0  0  0  0  0  0
   20.1675  -15.3384  -15.7072 C   0  0  0  0  0  0  0  0  0  0  0  0
   20.0148  -13.8773  -16.0191 C   0  0  2  0  0  0  0  0  0  0  0  0
   20.2537  -13.1429  -14.7010 C   0  0  0  0  0  0  0  0  0  0  0  0
   18.6265  -13.5866  -16.4864 C   0  0  2  0  0  0  0  0  0  0  0  0
   18.3750  -14.3595  -17.7168 N   0  0  0  0  0  0  0  0  0  0  0  0
   18.4420  -12.1622  -16.8800 C   0  0  0  0  0  0  0  0  0  0  0  0
   18.9208  -11.7409  -17.9767 O   0  0  0  0  0  0  0  0  0  0  0  0
   17.7465  -11.2640  -16.0685 N   0  0  0  0  0  0  0  0  0  0  0  0
   17.5904   -9.8292  -16.3935 C   0  0  1  0  0  0  0  0  0  0  0  0
   16.1211   -9.4676  -16.3307 C   0  0  0  0  0  0  0  0  0  0  0  0
   15.8432   -8.0451  -16.5632 C   0  0  0  0  0  0  0  0  0  0  0  0
   14.9567   -7.4633  -15.9110 O   0  0  0  0  0  0  0  0  0  0  0  0
   18.3192   -9.0748  -15.3636 C   0  0  0  0  0  0  0  0  0  0  0  0
   18.2755   -9.5264  -14.1797 O   0  0  0  0  0  0  0  0  0  0  0  0
   16.5563   -7.3206  -17.5076 O   0  0  0  0  0  0  0  0  0  0  0  0
   23.0643   -9.0074  -13.2011 C   0  0  0  0  0  0  0  0  0  0  0  0
   22.0505   -7.9306  -13.2978 C   0  0  1  0  0  0  0  0  0  0  0  0
   22.7641   -6.5914  -13.4604 C   0  0  0  0  0  0  0  0  0  0  0  0
   21.0094   -8.1614  -14.2896 C   0  0  0  0  0  0  0  0  0  0  0  0
   19.8064   -7.3003  -14.4054 C   0  0  2  0  0  0  0  0  0  0  0  0
   19.0688   -7.9039  -15.5485 N   0  0  0  0  0  0  0  0  0  0  0  0
   19.9612   -5.8738  -14.5755 C   0  0  0  0  0  0  0  0  0  0  0  0
   19.7307   -5.3545  -15.8730 O   0  0  0  0  0  0  0  0  0  0  0  0
   20.2753   -5.0051  -13.7373 O   0  0  0  0  0  0  0  0  0  0  0  0
  1  2  1  0
  2  3  1  0
  3  5  1  0
  3  4  1  1
  5  6  1  6
  5  7  1  0
  7  8  2  0
  9  7  1  0
  9 10  1  0
 10 11  1  1
 12 16  1  0
 12 11  1  0
 13 12  2  0
 14 10  1  0
 14 15  2  0
 18 17  1  6
 18 20  1  0
 19 18  1  0
 21 20  1  6
 21 23  1  0
 21 22  1  0
 22 14  1  0
 23 24  1  0
 25 23  2  0
M  END
$$$$
