IDL.pdb
     RDKit          3D

 25 24  0  0  1  0  0  0  0  0999 V2000
   29.6392  -22.1903  -17.7556 C   0  0  0  0  0  0  0  0  0  0  0  0
   28.8148  -21.0555  -18.2358 C   0  0  0  0  0  0  0  0  0  0  0  0
   27.8831  -20.5614  -17.1665 C   0  0  2  0  0  0  0  0  0  0  0  0
   26.9755  -21.7423  -16.8268 C   0  0  0  0  0  0  0  0  0  0  0  0
   27.0414  -19.4421  -17.6855 C   0  0  2  0  0  0  0  0  0  0  0  0
   27.9120  -18.2784  -17.9351 N   0  0  0  0  0  0  0  0  0  0  0  0
   26.0406  -18.9696  -16.6890 C   0  0  0  0  0  0  0  0  0  0  0  0
   26.3865  -18.1526  -15.7822 O   0  0  0  0  0  0  0  0  0  0  0  0
   24.7139  -19.4029  -16.7239 N   0  0  0  0  0  0  0  0  0  0  0  0
   23.6542  -18.8442  -15.8559 C   0  0  1  0  0  0  0  0  0  0  0  0
   22.4378  -18.5331  -16.7029 C   0  0  0  0  0  0  0  0  0  0  0  0
   21.3188  -17.9495  -15.9533 C   0  0  0  0  0  0  0  0  0  0  0  0
   21.4410  -17.6908  -14.7417 O   0  0  0  0  0  0  0  0  0  0  0  0
   23.3092  -19.8850  -14.8768 C   0  0  0  0  0  0  0  0  0  0  0  0
   22.9892  -21.0233  -15.3347 O   0  0  0  0  0  0  0  0  0  0  0  0
   20.1078  -17.6740  -16.5721 O   0  0  0  0  0  0  0  0  0  0  0  0
   25.4843  -20.2339   -9.8696 C   0  0  0  0  0  0  0  0  0  0  0  0
   24.9855  -20.5353  -11.2324 C   0  0  1  0  0  0  0  0  0  0  0  0
   25.7329  -21.7495  -11.7763 C   0  0  0  0  0  0  0  0  0  0  0  0
   23.5373  -20.6444  -11.3407 C   0  0  0  0  0  0  0  0  0  0  0  0
   22.8456  -20.8926  -12.6299 C   0  0  2  0  0  0  0  0  0  0  0  0
   23.3003  -19.7587  -13.4800 N   0  0  0  0  0  0  0  0  0  0  0  0
   21.4069  -21.0240  -12.6564 C   0  0  0  0  0  0  0  0  0  0  0  0
   20.8758  -22.3091  -12.3867 O   0  0  0  0  0  0  0  0  0  0  0  0
   20.5363  -20.1610  -12.8869 O   0  0  0  0  0  0  0  0  0  0  0  0
  1  2  1  0
  2  3  1  0
  3  5  1  0
  3  4  1  6
  5  6  1  1
  5  7  1  0
  7  8  2  0
  9  7  1  0
  9 10  1  0
 10 11  1  6
 12 16  1  0
 12 11  1  0
 13 12  2  0
 14 10  1  0
 14 15  2  0
 18 17  1  1
 18 20  1  0
 19 18  1  0
 21 20  1  1
 21 23  1  0
 21 22  1  0
 22 14  1  0
 23 24  1  0
 25 23  2  0
M  END
$$$$
