IDL.pdb
     RDKit          3D

 25 24  0  0  1  0  0  0  0  0999 V2000
   34.3170  -22.4786  -11.3031 C   0  0  0  0  0  0  0  0  0  0  0  0
   32.9335  -22.8911  -10.9661 C   0  0  0  0  0  0  0  0  0  0  0  0
   31.9354  -21.8388  -11.3561 C   0  0  2  0  0  0  0  0  0  0  0  0
   32.2004  -20.6509  -10.4329 C   0  0  0  0  0  0  0  0  0  0  0  0
   30.5440  -22.3284  -11.1222 C   0  0  2  0  0  0  0  0  0  0  0  0
   30.3659  -23.5986  -11.8497 N   0  0  0  0  0  0  0  0  0  0  0  0
   29.5133  -21.4126  -11.6850 C   0  0  0  0  0  0  0  0  0  0  0  0
   29.3933  -20.2357  -11.2265 O   0  0  0  0  0  0  0  0  0  0  0  0
   28.6643  -21.8145  -12.7178 N   0  0  0  0  0  0  0  0  0  0  0  0
   27.5824  -20.9620  -13.2577 C   0  0  1  0  0  0  0  0  0  0  0  0
   27.2394  -21.4298  -14.6567 C   0  0  0  0  0  0  0  0  0  0  0  0
   26.1442  -20.6827  -15.2870 C   0  0  0  0  0  0  0  0  0  0  0  0
   25.6172  -19.7222  -14.6959 O   0  0  0  0  0  0  0  0  0  0  0  0
   26.4143  -21.1480  -12.3849 C   0  0  0  0  0  0  0  0  0  0  0  0
   26.1059  -22.3398  -12.0815 O   0  0  0  0  0  0  0  0  0  0  0  0
   25.6740  -21.0262  -16.5464 O   0  0  0  0  0  0  0  0  0  0  0  0
   25.6847  -21.6969   -7.8612 C   0  0  0  0  0  0  0  0  0  0  0  0
   25.4612  -20.2579   -8.1366 C   0  0  1  0  0  0  0  0  0  0  0  0
   26.2993  -19.4314   -7.1653 C   0  0  0  0  0  0  0  0  0  0  0  0
   25.6313  -19.8708   -9.5302 C   0  0  0  0  0  0  0  0  0  0  0  0
   24.7893  -20.4169  -10.6232 C   0  0  2  0  0  0  0  0  0  0  0  0
   25.5998  -20.1439  -11.8414 N   0  0  0  0  0  0  0  0  0  0  0  0
   23.4310  -19.9502  -10.7815 C   0  0  0  0  0  0  0  0  0  0  0  0
   22.4025  -20.7967  -10.3000 O   0  0  0  0  0  0  0  0  0  0  0  0
   23.0108  -18.8916  -11.2902 O   0  0  0  0  0  0  0  0  0  0  0  0
  1  2  1  0
  2  3  1  0
  3  5  1  0
  3  4  1  1
  5  6  1  6
  5  7  1  0
  7  8  2  0
  9  7  1  0
  9 10  1  0
 10 11  1  6
 12 16  1  0
 12 11  1  0
 13 12  2  0
 14 10  1  0
 14 15  2  0
 18 17  1  6
 18 20  1  0
 19 18  1  0
 21 20  1  1
 21 23  1  0
 21 22  1  0
 22 14  1  0
 23 24  1  0
 25 23  2  0
M  END
$$$$
