IDL.pdb
     RDKit          3D

 25 24  0  0  1  0  0  0  0  0999 V2000
   18.1604  -17.5594  -11.9694 C   0  0  0  0  0  0  0  0  0  0  0  0
   18.8937  -18.0074  -13.1775 C   0  0  0  0  0  0  0  0  0  0  0  0
   19.9732  -18.9926  -12.8317 C   0  0  2  0  0  0  0  0  0  0  0  0
   20.9449  -18.2434  -11.9217 C   0  0  0  0  0  0  0  0  0  0  0  0
   20.7013  -19.4212  -14.0632 C   0  0  2  0  0  0  0  0  0  0  0  0
   19.7591  -20.1455  -14.9362 N   0  0  0  0  0  0  0  0  0  0  0  0
   21.7888  -20.3968  -13.7743 C   0  0  0  0  0  0  0  0  0  0  0  0
   21.5216  -21.4861  -13.1814 O   0  0  0  0  0  0  0  0  0  0  0  0
   23.1119  -20.1467  -14.1430 N   0  0  0  0  0  0  0  0  0  0  0  0
   24.2066  -21.1232  -13.9515 C   0  0  1  0  0  0  0  0  0  0  0  0
   24.9989  -21.2325  -15.2376 C   0  0  0  0  0  0  0  0  0  0  0  0
   26.1009  -22.2006  -15.1824 C   0  0  0  0  0  0  0  0  0  0  0  0
   26.3218  -22.8423  -14.1387 O   0  0  0  0  0  0  0  0  0  0  0  0
   25.0750  -20.5910  -12.8915 C   0  0  0  0  0  0  0  0  0  0  0  0
   25.4308  -19.3783  -12.9931 O   0  0  0  0  0  0  0  0  0  0  0  0
   26.9161  -22.4223  -16.2831 O   0  0  0  0  0  0  0  0  0  0  0  0
   26.0103  -20.7558   -7.1244 C   0  0  0  0  0  0  0  0  0  0  0  0
   26.2801  -20.1495   -8.4497 C   0  0  1  0  0  0  0  0  0  0  0  0
   27.5550  -19.3153   -8.3626 C   0  0  0  0  0  0  0  0  0  0  0  0
   26.2721  -21.0891   -9.5623 C   0  0  0  0  0  0  0  0  0  0  0  0
   26.6480  -20.6997  -10.9441 C   0  0  2  0  0  0  0  0  0  0  0  0
   25.5527  -21.2806  -11.7676 N   0  0  0  0  0  0  0  0  0  0  0  0
   27.9456  -21.0666  -11.4630 C   0  0  0  0  0  0  0  0  0  0  0  0
   28.9905  -20.1242  -11.3005 O   0  0  0  0  0  0  0  0  0  0  0  0
   28.2991  -22.1098  -12.0482 O   0  0  0  0  0  0  0  0  0  0  0  0
  1  2  1  0
  2  3  1  0
  3  5  1  0
  3  4  1  1
  5  6  1  6
  5  7  1  0
  7  8  2  0
  9  7  1  0
  9 10  1  0
 10 11  1  6
 12 16  1  0
 12 11  1  0
 13 12  2  0
 14 10  1  0
 14 15  2  0
 18 17  1  1
 18 20  1  0
 19 18  1  0
 21 20  1  1
 21 23  1  0
 21 22  1  0
 22 14  1  0
 23 24  1  0
 25 23  2  0
M  END
$$$$
