IDL.pdb
     RDKit          3D

 25 24  0  0  1  0  0  0  0  0999 V2000
   22.7317  -18.3621  -14.7504 C   0  0  0  0  0  0  0  0  0  0  0  0
   22.6736  -18.1956  -16.2224 C   0  0  0  0  0  0  0  0  0  0  0  0
   23.3361  -16.9201  -16.6581 C   0  0  2  0  0  0  0  0  0  0  0  0
   22.4528  -15.7908  -16.1307 C   0  0  0  0  0  0  0  0  0  0  0  0
   23.3808  -16.8392  -18.1487 C   0  0  2  0  0  0  0  0  0  0  0  0
   24.1925  -17.9615  -18.6545 N   0  0  0  0  0  0  0  0  0  0  0  0
   24.0719  -15.6125  -18.6343 C   0  0  0  0  0  0  0  0  0  0  0  0
   25.3365  -15.5316  -18.5731 O   0  0  0  0  0  0  0  0  0  0  0  0
   23.3607  -14.5344  -19.1642 N   0  0  0  0  0  0  0  0  0  0  0  0
   24.0062  -13.2921  -19.6424 C   0  0  1  0  0  0  0  0  0  0  0  0
   23.4154  -12.9162  -20.9852 C   0  0  0  0  0  0  0  0  0  0  0  0
   24.0058  -11.7132  -21.5843 C   0  0  0  0  0  0  0  0  0  0  0  0
   23.3935  -11.0863  -22.4686 O   0  0  0  0  0  0  0  0  0  0  0  0
   23.6915  -12.2415  -18.6635 C   0  0  0  0  0  0  0  0  0  0  0  0
   22.5530  -12.2941  -18.1081 O   0  0  0  0  0  0  0  0  0  0  0  0
   25.2503  -11.2493  -21.1826 O   0  0  0  0  0  0  0  0  0  0  0  0
   26.4648  -11.0285  -14.2972 C   0  0  0  0  0  0  0  0  0  0  0  0
   25.2607  -11.1706  -15.1496 C   0  0  1  0  0  0  0  0  0  0  0  0
   24.0214  -11.1800  -14.2591 C   0  0  0  0  0  0  0  0  0  0  0  0
   25.1798  -10.2232  -16.2526 C   0  0  0  0  0  0  0  0  0  0  0  0
   24.0618  -10.2212  -17.2284 C   0  0  2  0  0  0  0  0  0  0  0  0
   24.5208  -11.1816  -18.2686 N   0  0  0  0  0  0  0  0  0  0  0  0
   23.6296   -8.9753  -17.8189 C   0  0  0  0  0  0  0  0  0  0  0  0
   22.7530   -8.1716  -17.0495 O   0  0  0  0  0  0  0  0  0  0  0  0
   23.9137   -8.4840  -18.9297 O   0  0  0  0  0  0  0  0  0  0  0  0
  1  2  1  0
  2  3  1  0
  3  5  1  0
  3  4  1  6
  5  6  1  6
  5  7  1  0
  7  8  2  0
  9  7  1  0
  9 10  1  0
 10 11  1  6
 12 16  1  0
 12 11  1  0
 13 12  2  0
 14 10  1  0
 14 15  2  0
 18 17  1  1
 18 20  1  0
 19 18  1  0
 21 20  1  1
 21 23  1  0
 21 22  1  0
 22 14  1  0
 23 24  1  0
 25 23  2  0
M  END
$$$$
