IDL.pdb
     RDKit          3D

 25 24  0  0  1  0  0  0  0  0999 V2000
   19.4884  -15.9697  -20.6977 C   0  0  0  0  0  0  0  0  0  0  0  0
   19.2604  -15.3141  -19.3876 C   0  0  0  0  0  0  0  0  0  0  0  0
   19.6195  -13.8565  -19.4322 C   0  0  2  0  0  0  0  0  0  0  0  0
   21.1102  -13.8048  -19.7618 C   0  0  0  0  0  0  0  0  0  0  0  0
   19.4003  -13.2250  -18.0967 C   0  0  2  0  0  0  0  0  0  0  0  0
   18.0158  -13.4999  -17.6702 N   0  0  0  0  0  0  0  0  0  0  0  0
   19.5031  -11.7400  -18.1426 C   0  0  0  0  0  0  0  0  0  0  0  0
   20.6003  -11.1906  -18.4648 O   0  0  0  0  0  0  0  0  0  0  0  0
   18.4129  -10.9223  -17.8394 N   0  0  0  0  0  0  0  0  0  0  0  0
   18.4313   -9.4518  -18.0002 C   0  0  1  0  0  0  0  0  0  0  0  0
   17.0059   -8.9498  -18.0987 C   0  0  0  0  0  0  0  0  0  0  0  0
   16.3353   -9.2925  -19.3587 C   0  0  0  0  0  0  0  0  0  0  0  0
   16.7595   -8.8420  -20.4390 O   0  0  0  0  0  0  0  0  0  0  0  0
   19.0580   -8.8964  -16.7920 C   0  0  0  0  0  0  0  0  0  0  0  0
   18.6570   -9.3463  -15.6764 O   0  0  0  0  0  0  0  0  0  0  0  0
   15.2218  -10.1202  -19.3760 O   0  0  0  0  0  0  0  0  0  0  0  0
   22.8503  -10.0104  -13.4900 C   0  0  0  0  0  0  0  0  0  0  0  0
   22.0031   -8.8096  -13.6820 C   0  0  1  0  0  0  0  0  0  0  0  0
   22.7683   -7.5809  -13.1985 C   0  0  0  0  0  0  0  0  0  0  0  0
   21.4488   -8.6627  -15.0207 C   0  0  0  0  0  0  0  0  0  0  0  0
   20.6232   -7.4975  -15.4239 C   0  0  2  0  0  0  0  0  0  0  0  0
   20.0629   -7.9197  -16.7366 N   0  0  0  0  0  0  0  0  0  0  0  0
   21.2270   -6.1875  -15.5082 C   0  0  0  0  0  0  0  0  0  0  0  0
   21.1994   -5.3926  -14.3362 O   0  0  0  0  0  0  0  0  0  0  0  0
   21.7823   -5.6316  -16.4770 O   0  0  0  0  0  0  0  0  0  0  0  0
  1  2  1  0
  2  3  1  0
  3  5  1  0
  3  4  1  1
  5  6  1  6
  5  7  1  0
  7  8  2  0
  9  7  1  0
  9 10  1  0
 10 11  1  1
 12 16  1  0
 12 11  1  0
 13 12  2  0
 14 10  1  0
 14 15  2  0
 18 17  1  6
 18 20  1  0
 19 18  1  0
 21 20  1  6
 21 23  1  0
 21 22  1  0
 22 14  1  0
 23 24  1  0
 25 23  2  0
M  END
$$$$
