IDL.pdb
     RDKit          3D

 25 24  0  0  1  0  0  0  0  0999 V2000
   33.4344  -33.9496   -5.0705 C   0  0  0  0  0  0  0  0  0  0  0  0
   32.1364  -34.6173   -5.3299 C   0  0  0  0  0  0  0  0  0  0  0  0
   31.1232  -34.2789   -4.2743 C   0  0  2  0  0  0  0  0  0  0  0  0
   31.6517  -34.8909   -2.9783 C   0  0  0  0  0  0  0  0  0  0  0  0
   29.8054  -34.9027   -4.5980 C   0  0  2  0  0  0  0  0  0  0  0  0
   29.2492  -34.2317   -5.7874 N   0  0  0  0  0  0  0  0  0  0  0  0
   28.7936  -34.6908   -3.5259 C   0  0  0  0  0  0  0  0  0  0  0  0
   28.1016  -33.6276   -3.5091 O   0  0  0  0  0  0  0  0  0  0  0  0
   28.5788  -35.6408   -2.5257 N   0  0  0  0  0  0  0  0  0  0  0  0
   27.5364  -35.5027   -1.4851 C   0  0  1  0  0  0  0  0  0  0  0  0
   26.6401  -36.7229   -1.5217 C   0  0  0  0  0  0  0  0  0  0  0  0
   25.5052  -36.6612   -0.5928 C   0  0  0  0  0  0  0  0  0  0  0  0
   25.3127  -35.6431    0.0973 O   0  0  0  0  0  0  0  0  0  0  0  0
   28.2288  -35.4491   -0.1895 C   0  0  0  0  0  0  0  0  0  0  0  0
   29.0423  -36.3869    0.0682 O   0  0  0  0  0  0  0  0  0  0  0  0
   24.6267  -37.7273   -0.4626 O   0  0  0  0  0  0  0  0  0  0  0  0
   31.1578  -31.6530    2.2130 C   0  0  0  0  0  0  0  0  0  0  0  0
   30.6299  -32.9683    1.7795 C   0  0  1  0  0  0  0  0  0  0  0  0
   31.7282  -34.0171    1.9300 C   0  0  0  0  0  0  0  0  0  0  0  0
   29.3679  -33.3518    2.3970 C   0  0  0  0  0  0  0  0  0  0  0  0
   28.7122  -34.6576    2.1383 C   0  0  2  0  0  0  0  0  0  0  0  0
   28.0921  -34.4637    0.7992 N   0  0  0  0  0  0  0  0  0  0  0  0
   27.7565  -35.1791    3.0883 C   0  0  0  0  0  0  0  0  0  0  0  0
   28.2372  -35.4642    4.3899 O   0  0  0  0  0  0  0  0  0  0  0  0
   26.5430  -35.4254    2.9379 O   0  0  0  0  0  0  0  0  0  0  0  0
  1  2  1  0
  2  3  1  0
  3  5  1  0
  3  4  1  1
  5  6  1  6
  5  7  1  0
  7  8  2  0
  9  7  1  0
  9 10  1  0
 10 11  1  1
 12 16  1  0
 12 11  1  0
 13 12  2  0
 14 10  1  0
 14 15  2  0
 18 17  1  1
 18 20  1  0
 19 18  1  0
 21 20  1  1
 21 23  1  0
 21 22  1  0
 22 14  1  0
 23 24  1  0
 25 23  2  0
M  END
$$$$
