IDL.pdb
     RDKit          3D

 25 24  0  0  1  0  0  0  0  0999 V2000
   30.2046  -17.2651  -17.9773 C   0  0  0  0  0  0  0  0  0  0  0  0
   29.0227  -17.8251  -18.6754 C   0  0  0  0  0  0  0  0  0  0  0  0
   27.7842  -17.7179  -17.8327 C   0  0  2  0  0  0  0  0  0  0  0  0
   28.0243  -18.6193  -16.6230 C   0  0  0  0  0  0  0  0  0  0  0  0
   26.5977  -18.2267  -18.5833 C   0  0  2  0  0  0  0  0  0  0  0  0
   26.4038  -17.3855  -19.7788 N   0  0  0  0  0  0  0  0  0  0  0  0
   25.3321  -18.0961  -17.8092 C   0  0  0  0  0  0  0  0  0  0  0  0
   24.8125  -16.9521  -17.6330 O   0  0  0  0  0  0  0  0  0  0  0  0
   24.6898  -19.2099  -17.2654 N   0  0  0  0  0  0  0  0  0  0  0  0
   23.4365  -19.1235  -16.4842 C   0  0  1  0  0  0  0  0  0  0  0  0
   22.2882  -19.6151  -17.3405 C   0  0  0  0  0  0  0  0  0  0  0  0
   21.6888  -18.5800  -18.1913 C   0  0  0  0  0  0  0  0  0  0  0  0
   21.4022  -18.8294  -19.3768 O   0  0  0  0  0  0  0  0  0  0  0  0
   23.5920  -20.0139  -15.3249 C   0  0  0  0  0  0  0  0  0  0  0  0
   24.6562  -20.7003  -15.2644 O   0  0  0  0  0  0  0  0  0  0  0  0
   21.4291  -17.3091  -17.6987 O   0  0  0  0  0  0  0  0  0  0  0  0
   25.7993  -22.1531  -11.7486 C   0  0  0  0  0  0  0  0  0  0  0  0
   24.9262  -21.0097  -11.3923 C   0  0  1  0  0  0  0  0  0  0  0  0
   25.7415  -19.9922  -10.5992 C   0  0  0  0  0  0  0  0  0  0  0  0
   24.1963  -20.4289  -12.5105 C   0  0  0  0  0  0  0  0  0  0  0  0
   23.0248  -21.0919  -13.1352 C   0  0  2  0  0  0  0  0  0  0  0  0
   22.6879  -20.1852  -14.2664 N   0  0  0  0  0  0  0  0  0  0  0  0
   21.8588  -21.3875  -12.3347 C   0  0  0  0  0  0  0  0  0  0  0  0
   20.9219  -20.3402  -12.1562 O   0  0  0  0  0  0  0  0  0  0  0  0
   21.5398  -22.4476  -11.7600 O   0  0  0  0  0  0  0  0  0  0  0  0
  1  2  1  0
  2  3  1  0
  3  5  1  0
  3  4  1  1
  5  6  1  6
  5  7  1  0
  7  8  2  0
  9  7  1  0
  9 10  1  0
 10 11  1  6
 12 16  1  0
 12 11  1  0
 13 12  2  0
 14 10  1  0
 14 15  2  0
 18 17  1  6
 18 20  1  0
 19 18  1  0
 21 20  1  1
 21 23  1  0
 21 22  1  0
 22 14  1  0
 23 24  1  0
 25 23  2  0
M  END
$$$$
