YGN.pdb
     RDKit          3D

 25 25  0  0  1  0  0  0  0  0999 V2000
   -1.3816  -21.0809   19.3632 O   0  0  0  0  0  0  0  0  0  0  0  0
   -0.4274  -20.4224   20.1613 C   0  0  0  0  0  0  0  0  0  0  0  0
   -0.6093  -20.3501   21.5273 C   0  0  0  0  0  0  0  0  0  0  0  0
    0.3412  -19.7007   22.2714 C   0  0  0  0  0  0  0  0  0  0  0  0
    1.4646  -19.1177   21.7369 C   0  0  0  0  0  0  0  0  0  0  0  0
    2.4923  -18.4155   22.5493 C   0  0  0  0  0  0  0  0  0  0  0  0
    3.8411  -18.9784   22.1521 C   0  0  2  0  0  0  0  0  0  0  0  0
    3.8865  -20.3558   22.5810 N   0  0  0  0  0  0  0  0  0  0  0  0
    4.9474  -18.2293   22.8220 C   0  0  0  0  0  0  0  0  0  0  0  0
    5.1509  -17.0176   22.5546 O   0  0  0  0  0  0  0  0  0  0  0  0
    1.6157  -19.2106   20.3512 C   0  0  0  0  0  0  0  0  0  0  0  0
    0.6756  -19.8571   19.5818 C   0  0  0  0  0  0  0  0  0  0  0  0
    5.8005  -18.8487   23.7736 N   0  0  0  0  0  0  0  0  0  0  0  0
    6.8796  -18.0997   24.3438 C   0  0  0  0  0  0  0  0  0  0  0  0
    7.8766  -18.8691   25.0798 C   0  0  0  0  0  0  0  0  0  0  0  0
    8.9070  -19.3088   24.4579 O   0  0  0  0  0  0  0  0  0  0  0  0
   11.6646  -19.8180   27.5870 N   0  0  0  0  0  0  0  0  0  0  0  0
   10.8299  -18.9966   28.4372 C   0  0  0  0  0  0  0  0  0  0  0  0
   11.3971  -18.3023   29.2899 O   0  0  0  0  0  0  0  0  0  0  0  0
    9.3919  -19.0577   28.2159 C   0  0  0  0  0  0  0  0  0  0  0  0
    8.9358  -19.9767   27.1067 C   0  0  2  0  0  0  0  0  0  0  0  0
    7.8511  -19.2057   26.4466 N   0  0  0  0  0  0  0  0  0  0  0  0
    8.3624  -21.1992   27.7116 C   0  0  0  0  0  0  0  0  0  0  0  0
    9.1496  -22.0464   28.1873 O   0  0  0  0  0  0  0  0  0  0  0  0
    7.0160  -21.4324   27.7695 O   0  0  0  0  0  0  0  0  0  0  0  0
  2  1  1  0
  3  2  2  0
  4  5  2  0
  4  3  1  0
  5 11  1  0
  6  5  1  0
  7  6  1  0
  7  8  1  1
  9 13  1  0
  9  7  1  0
 10  9  2  0
 11 12  2  0
 12  2  1  0
 14 15  1  0
 14 13  1  0
 15 16  2  0
 18 17  1  0
 18 20  1  0
 19 18  2  0
 21 20  1  1
 22 21  1  0
 22 15  1  0
 23 25  1  0
 23 21  1  0
 24 23  2  0
M  END
$$$$
