YGN.pdb
     RDKit          3D

 25 25  0  0  1  0  0  0  0  0999 V2000
    7.6403  -13.4395   16.4887 O   0  0  0  0  0  0  0  0  0  0  0  0
    7.7215  -13.6680   17.8751 C   0  0  0  0  0  0  0  0  0  0  0  0
    6.6714  -13.3024   18.6924 C   0  0  0  0  0  0  0  0  0  0  0  0
    6.7869  -13.5407   20.0372 C   0  0  0  0  0  0  0  0  0  0  0  0
    7.8871  -14.1224   20.6194 C   0  0  0  0  0  0  0  0  0  0  0  0
    8.0062  -14.3789   22.0785 C   0  0  0  0  0  0  0  0  0  0  0  0
    8.1546  -15.8751   22.2613 C   0  0  2  0  0  0  0  0  0  0  0  0
    6.8310  -16.4357   22.3920 N   0  0  0  0  0  0  0  0  0  0  0  0
    8.9323  -16.1844   23.4995 C   0  0  0  0  0  0  0  0  0  0  0  0
    8.3741  -16.1616   24.6260 O   0  0  0  0  0  0  0  0  0  0  0  0
    8.9305  -14.4793   19.7617 C   0  0  0  0  0  0  0  0  0  0  0  0
    8.8390  -14.2507   18.4078 C   0  0  0  0  0  0  0  0  0  0  0  0
   10.3135  -16.5116   23.4526 N   0  0  0  0  0  0  0  0  0  0  0  0
   11.2321  -15.8093   24.2972 C   0  0  0  0  0  0  0  0  0  0  0  0
   11.3902  -16.3332   25.6492 C   0  0  0  0  0  0  0  0  0  0  0  0
   12.4706  -16.9506   25.9552 O   0  0  0  0  0  0  0  0  0  0  0  0
    9.0770  -13.4260   28.2183 N   0  0  0  0  0  0  0  0  0  0  0  0
   10.1358  -14.2260   28.7953 C   0  0  0  0  0  0  0  0  0  0  0  0
   11.1656  -13.6370   29.1468 O   0  0  0  0  0  0  0  0  0  0  0  0
    9.8982  -15.6579   28.9130 C   0  0  0  0  0  0  0  0  0  0  0  0
   10.8268  -16.5460   28.1180 C   0  0  2  0  0  0  0  0  0  0  0  0
   10.4672  -16.2438   26.7086 N   0  0  0  0  0  0  0  0  0  0  0  0
   10.4957  -17.9580   28.4105 C   0  0  0  0  0  0  0  0  0  0  0  0
    9.7063  -18.5497   27.6420 O   0  0  0  0  0  0  0  0  0  0  0  0
   11.0178  -18.6325   29.4797 O   0  0  0  0  0  0  0  0  0  0  0  0
  2  1  1  0
  3  2  2  0
  4  5  2  0
  4  3  1  0
  5 11  1  0
  6  5  1  0
  7  6  1  0
  7  8  1  1
  9 13  1  0
  9  7  1  0
 10  9  2  0
 11 12  2  0
 12  2  1  0
 14 15  1  0
 14 13  1  0
 15 16  2  0
 18 17  1  0
 18 20  1  0
 19 18  2  0
 21 20  1  1
 22 21  1  0
 22 15  1  0
 23 25  1  0
 23 21  1  0
 24 23  2  0
M  END
$$$$
