YGN.pdb
     RDKit          3D

 25 25  0  0  1  0  0  0  0  0999 V2000
    7.6292  -12.1337   29.1982 O   0  0  0  0  0  0  0  0  0  0  0  0
    7.6416  -12.7287   27.9227 C   0  0  0  0  0  0  0  0  0  0  0  0
    8.6986  -13.5352   27.5532 C   0  0  0  0  0  0  0  0  0  0  0  0
    8.6755  -14.0971   26.3032 C   0  0  0  0  0  0  0  0  0  0  0  0
    7.6614  -13.9045   25.3965 C   0  0  0  0  0  0  0  0  0  0  0  0
    7.6417  -14.5172   24.0425 C   0  0  0  0  0  0  0  0  0  0  0  0
    6.7844  -15.7630   24.1253 C   0  0  2  0  0  0  0  0  0  0  0  0
    7.4523  -16.6996   24.9970 N   0  0  0  0  0  0  0  0  0  0  0  0
    6.6258  -16.3892   22.7775 C   0  0  0  0  0  0  0  0  0  0  0  0
    5.9898  -15.7962   21.8692 O   0  0  0  0  0  0  0  0  0  0  0  0
    6.6081  -13.0825   25.8047 C   0  0  0  0  0  0  0  0  0  0  0  0
    6.6077  -12.5065   27.0545 C   0  0  0  0  0  0  0  0  0  0  0  0
    7.1796  -17.6614   22.4744 N   0  0  0  0  0  0  0  0  0  0  0  0
    7.0686  -18.1781   21.1436 C   0  0  0  0  0  0  0  0  0  0  0  0
    7.8897  -17.5245   20.1306 C   0  0  0  0  0  0  0  0  0  0  0  0
    7.7950  -17.9065   18.9111 O   0  0  0  0  0  0  0  0  0  0  0  0
    8.3076  -13.4281   17.1327 N   0  0  0  0  0  0  0  0  0  0  0  0
    8.0799  -14.1869   18.3437 C   0  0  0  0  0  0  0  0  0  0  0  0
    6.9169  -14.5321   18.5873 O   0  0  0  0  0  0  0  0  0  0  0  0
    9.2406  -14.4794   19.1730 C   0  0  0  0  0  0  0  0  0  0  0  0
    9.6551  -15.9311   19.2353 C   0  0  2  0  0  0  0  0  0  0  0  0
    8.8140  -16.4813   20.3293 N   0  0  0  0  0  0  0  0  0  0  0  0
   11.0776  -15.9995   19.6365 C   0  0  0  0  0  0  0  0  0  0  0  0
   11.3446  -16.3752   20.7990 O   0  0  0  0  0  0  0  0  0  0  0  0
   12.1000  -15.6710   18.7897 O   0  0  0  0  0  0  0  0  0  0  0  0
  2  1  1  0
  3  2  2  0
  4  5  2  0
  4  3  1  0
  5 11  1  0
  6  5  1  0
  7  6  1  0
  7  8  1  1
  9 13  1  0
  9  7  1  0
 10  9  2  0
 11 12  2  0
 12  2  1  0
 14 15  1  0
 14 13  1  0
 15 16  2  0
 18 17  1  0
 18 20  1  0
 19 18  2  0
 21 20  1  1
 22 21  1  0
 22 15  1  0
 23 25  1  0
 23 21  1  0
 24 23  2  0
M  END
$$$$
