YGN.pdb
     RDKit          3D

 25 25  0  0  1  0  0  0  0  0999 V2000
   10.8653  -14.8899   30.3211 O   0  0  0  0  0  0  0  0  0  0  0  0
   10.2178  -14.9119   29.0716 C   0  0  0  0  0  0  0  0  0  0  0  0
    9.2520  -13.9693   28.7839 C   0  0  0  0  0  0  0  0  0  0  0  0
    8.6434  -14.0226   27.5568 C   0  0  0  0  0  0  0  0  0  0  0  0
    8.9387  -14.9597   26.5964 C   0  0  0  0  0  0  0  0  0  0  0  0
    8.2757  -15.0119   25.2673 C   0  0  0  0  0  0  0  0  0  0  0  0
    7.1527  -16.0236   25.3646 C   0  0  2  0  0  0  0  0  0  0  0  0
    7.7488  -17.3289   25.5204 N   0  0  0  0  0  0  0  0  0  0  0  0
    6.3240  -16.0186   24.1208 C   0  0  0  0  0  0  0  0  0  0  0  0
    5.8711  -14.9398   23.6602 O   0  0  0  0  0  0  0  0  0  0  0  0
    9.9212  -15.8978   26.9224 C   0  0  0  0  0  0  0  0  0  0  0  0
   10.5471  -15.8658   28.1476 C   0  0  0  0  0  0  0  0  0  0  0  0
    6.0198  -17.2161   23.4203 N   0  0  0  0  0  0  0  0  0  0  0  0
    7.0686  -17.9266   22.7529 C   0  0  0  0  0  0  0  0  0  0  0  0
    7.7100  -17.2308   21.6429 C   0  0  0  0  0  0  0  0  0  0  0  0
    7.7077  -17.7748   20.4826 O   0  0  0  0  0  0  0  0  0  0  0  0
    7.9762  -15.2941   18.5251 N   0  0  0  0  0  0  0  0  0  0  0  0
    8.3912  -14.0802   19.1945 C   0  0  0  0  0  0  0  0  0  0  0  0
    8.0106  -13.0066   18.7113 O   0  0  0  0  0  0  0  0  0  0  0  0
    9.2225  -14.2264   20.3812 C   0  0  0  0  0  0  0  0  0  0  0  0
    9.5130  -15.6458   20.8096 C   0  0  2  0  0  0  0  0  0  0  0  0
    8.3604  -15.9829   21.6842 N   0  0  0  0  0  0  0  0  0  0  0  0
   10.7524  -15.6512   21.6178 C   0  0  0  0  0  0  0  0  0  0  0  0
   10.6436  -15.6448   22.8636 O   0  0  0  0  0  0  0  0  0  0  0  0
   11.9996  -15.6641   21.0567 O   0  0  0  0  0  0  0  0  0  0  0  0
  2  1  1  0
  3  2  2  0
  4  5  2  0
  4  3  1  0
  5 11  1  0
  6  5  1  0
  7  6  1  0
  7  8  1  6
  9 13  1  0
  9  7  1  0
 10  9  2  0
 11 12  2  0
 12  2  1  0
 14 15  1  0
 14 13  1  0
 15 16  2  0
 18 17  1  0
 18 20  1  0
 19 18  2  0
 21 20  1  1
 22 21  1  0
 22 15  1  0
 23 25  1  0
 23 21  1  0
 24 23  2  0
M  END
$$$$
