YGN.pdb
     RDKit          3D

 25 25  0  0  1  0  0  0  0  0999 V2000
    4.9668  -10.7166   26.9617 O   0  0  0  0  0  0  0  0  0  0  0  0
    5.8807  -11.6731   26.4811 C   0  0  0  0  0  0  0  0  0  0  0  0
    5.5870  -13.0169   26.5909 C   0  0  0  0  0  0  0  0  0  0  0  0
    6.5014  -13.9186   26.1115 C   0  0  0  0  0  0  0  0  0  0  0  0
    7.6932  -13.5629   25.5280 C   0  0  0  0  0  0  0  0  0  0  0  0
    8.6805  -14.5455   25.0095 C   0  0  0  0  0  0  0  0  0  0  0  0
    8.2899  -14.8641   23.5812 C   0  0  2  0  0  0  0  0  0  0  0  0
    7.0735  -15.6400   23.6204 N   0  0  0  0  0  0  0  0  0  0  0  0
    9.3529  -15.6698   22.9070 C   0  0  0  0  0  0  0  0  0  0  0  0
   10.4774  -15.1638   22.6607 O   0  0  0  0  0  0  0  0  0  0  0  0
    7.9570  -12.1942   25.4338 C   0  0  0  0  0  0  0  0  0  0  0  0
    7.0553  -11.2688   25.9075 C   0  0  0  0  0  0  0  0  0  0  0  0
    9.1372  -17.0201   22.5233 N   0  0  0  0  0  0  0  0  0  0  0  0
   10.1417  -17.7060   21.7678 C   0  0  0  0  0  0  0  0  0  0  0  0
   11.3623  -18.0516   22.4877 C   0  0  0  0  0  0  0  0  0  0  0  0
   12.1814  -18.8841   21.9605 O   0  0  0  0  0  0  0  0  0  0  0  0
   14.4409  -15.3414   23.0417 N   0  0  0  0  0  0  0  0  0  0  0  0
   14.5959  -16.7039   23.5038 C   0  0  0  0  0  0  0  0  0  0  0  0
   15.3369  -17.4457   22.8467 O   0  0  0  0  0  0  0  0  0  0  0  0
   13.8655  -17.0858   24.7043 C   0  0  0  0  0  0  0  0  0  0  0  0
   12.8598  -18.2006   24.5353 C   0  0  2  0  0  0  0  0  0  0  0  0
   11.7745  -17.5664   23.7434 N   0  0  0  0  0  0  0  0  0  0  0  0
   12.3347  -18.5695   25.8685 C   0  0  0  0  0  0  0  0  0  0  0  0
   13.1078  -19.1390   26.6695 O   0  0  0  0  0  0  0  0  0  0  0  0
   11.0476  -18.3112   26.2522 O   0  0  0  0  0  0  0  0  0  0  0  0
  2  1  1  0
  3  2  2  0
  4  5  2  0
  4  3  1  0
  5 11  1  0
  6  5  1  0
  7  6  1  0
  7  8  1  1
  9 13  1  0
  9  7  1  0
 10  9  2  0
 11 12  2  0
 12  2  1  0
 14 15  1  0
 14 13  1  0
 15 16  2  0
 18 17  1  0
 18 20  1  0
 19 18  2  0
 21 20  1  1
 22 21  1  0
 22 15  1  0
 23 25  1  0
 23 21  1  0
 24 23  2  0
M  END
$$$$
