YGN.pdb
     RDKit          3D

 25 25  0  0  1  0  0  0  0  0999 V2000
    6.6214  -12.8329   15.9355 O   0  0  0  0  0  0  0  0  0  0  0  0
    7.1677  -13.2594   17.1605 C   0  0  0  0  0  0  0  0  0  0  0  0
    6.5574  -14.2765   17.8656 C   0  0  0  0  0  0  0  0  0  0  0  0
    7.1185  -14.6645   19.0545 C   0  0  0  0  0  0  0  0  0  0  0  0
    8.2531  -14.1000   19.5854 C   0  0  0  0  0  0  0  0  0  0  0  0
    8.8572  -14.5256   20.8750 C   0  0  0  0  0  0  0  0  0  0  0  0
   10.1041  -15.3202   20.5467 C   0  0  2  0  0  0  0  0  0  0  0  0
    9.6985  -16.4871   19.8003 N   0  0  0  0  0  0  0  0  0  0  0  0
   10.7952  -15.7640   21.7953 C   0  0  0  0  0  0  0  0  0  0  0  0
   11.2897  -14.9201   22.5854 O   0  0  0  0  0  0  0  0  0  0  0  0
    8.8437  -13.0734   18.8444 C   0  0  0  0  0  0  0  0  0  0  0  0
    8.2999  -12.6655   17.6479 C   0  0  0  0  0  0  0  0  0  0  0  0
   10.9187  -17.1379   22.1334 N   0  0  0  0  0  0  0  0  0  0  0  0
   11.7506  -17.5195   23.2347 C   0  0  0  0  0  0  0  0  0  0  0  0
   13.1872  -17.5247   22.9824 C   0  0  0  0  0  0  0  0  0  0  0  0
   13.7512  -18.6161   22.6178 O   0  0  0  0  0  0  0  0  0  0  0  0
   14.2480  -14.2424   20.1996 N   0  0  0  0  0  0  0  0  0  0  0  0
   15.2133  -15.2626   20.5484 C   0  0  0  0  0  0  0  0  0  0  0  0
   15.5329  -16.0678   19.6649 O   0  0  0  0  0  0  0  0  0  0  0  0
   15.7264  -15.2541   21.9112 C   0  0  0  0  0  0  0  0  0  0  0  0
   15.5049  -16.5206   22.7049 C   0  0  2  0  0  0  0  0  0  0  0  0
   14.0734  -16.4363   23.0929 N   0  0  0  0  0  0  0  0  0  0  0  0
   16.3414  -16.4664   23.9242 C   0  0  0  0  0  0  0  0  0  0  0  0
   15.7879  -16.1708   25.0059 O   0  0  0  0  0  0  0  0  0  0  0  0
   17.6840  -16.7266   23.9105 O   0  0  0  0  0  0  0  0  0  0  0  0
  2  1  1  0
  3  2  2  0
  4  5  2  0
  4  3  1  0
  5 11  1  0
  6  5  1  0
  7  6  1  0
  7  8  1  6
  9 13  1  0
  9  7  1  0
 10  9  2  0
 11 12  2  0
 12  2  1  0
 14 15  1  0
 14 13  1  0
 15 16  2  0
 18 17  1  0
 18 20  1  0
 19 18  2  0
 21 20  1  6
 22 21  1  0
 22 15  1  0
 23 25  1  0
 23 21  1  0
 24 23  2  0
M  END
$$$$
