YGN.pdb
     RDKit          3D

 25 25  0  0  1  0  0  0  0  0999 V2000
    6.2876  -12.5113   28.4205 O   0  0  0  0  0  0  0  0  0  0  0  0
    6.5496  -12.7911   27.0663 C   0  0  0  0  0  0  0  0  0  0  0  0
    6.7005  -11.7535   26.1691 C   0  0  0  0  0  0  0  0  0  0  0  0
    6.9548  -12.0652   24.8587 C   0  0  0  0  0  0  0  0  0  0  0  0
    7.0682  -13.3502   24.3861 C   0  0  0  0  0  0  0  0  0  0  0  0
    7.3447  -13.6818   22.9639 C   0  0  0  0  0  0  0  0  0  0  0  0
    8.2457  -14.8993   22.9531 C   0  0  2  0  0  0  0  0  0  0  0  0
    9.4695  -14.5469   23.6323 N   0  0  0  0  0  0  0  0  0  0  0  0
    8.5727  -15.3057   21.5526 C   0  0  0  0  0  0  0  0  0  0  0  0
    7.9333  -16.2314   20.9910 O   0  0  0  0  0  0  0  0  0  0  0  0
    6.9097  -14.3749   25.3224 C   0  0  0  0  0  0  0  0  0  0  0  0
    6.6537  -14.0884   26.6438 C   0  0  0  0  0  0  0  0  0  0  0  0
    9.6046  -14.6708   20.8115 N   0  0  0  0  0  0  0  0  0  0  0  0
    9.9330  -15.1558   19.5048 C   0  0  0  0  0  0  0  0  0  0  0  0
   11.1242  -15.9923   19.4113 C   0  0  0  0  0  0  0  0  0  0  0  0
   11.4359  -16.5073   18.2800 O   0  0  0  0  0  0  0  0  0  0  0  0
   13.8083  -13.8406   18.6752 N   0  0  0  0  0  0  0  0  0  0  0  0
   14.2596  -15.2146   18.7243 C   0  0  0  0  0  0  0  0  0  0  0  0
   14.5937  -15.7412   17.6556 O   0  0  0  0  0  0  0  0  0  0  0  0
   14.2819  -15.8608   20.0292 C   0  0  0  0  0  0  0  0  0  0  0  0
   13.3126  -17.0052   20.2127 C   0  0  2  0  0  0  0  0  0  0  0  0
   12.0154  -16.3214   20.4504 N   0  0  0  0  0  0  0  0  0  0  0  0
   13.6939  -17.7570   21.4287 C   0  0  0  0  0  0  0  0  0  0  0  0
   13.0632  -17.5296   22.4842 O   0  0  0  0  0  0  0  0  0  0  0  0
   14.7004  -18.6830   21.4388 O   0  0  0  0  0  0  0  0  0  0  0  0
  2  1  1  0
  3  2  2  0
  4  5  2  0
  4  3  1  0
  5 11  1  0
  6  5  1  0
  7  6  1  0
  7  8  1  1
  9 13  1  0
  9  7  1  0
 10  9  2  0
 11 12  2  0
 12  2  1  0
 14 15  1  0
 14 13  1  0
 15 16  2  0
 18 17  1  0
 18 20  1  0
 19 18  2  0
 21 20  1  1
 22 21  1  0
 22 15  1  0
 23 25  1  0
 23 21  1  0
 24 23  2  0
M  END
$$$$
