YGN.pdb
     RDKit          3D

 25 25  0  0  1  0  0  0  0  0999 V2000
    5.5938  -11.4800   28.4955 O   0  0  0  0  0  0  0  0  0  0  0  0
    6.0472  -11.9643   27.2541 C   0  0  0  0  0  0  0  0  0  0  0  0
    7.0220  -11.2732   26.5639 C   0  0  0  0  0  0  0  0  0  0  0  0
    7.4381  -11.7756   25.3583 C   0  0  0  0  0  0  0  0  0  0  0  0
    6.9414  -12.9271   24.7969 C   0  0  0  0  0  0  0  0  0  0  0  0
    7.3972  -13.4672   23.4894 C   0  0  0  0  0  0  0  0  0  0  0  0
    8.0510  -14.8065   23.7595 C   0  0  2  0  0  0  0  0  0  0  0  0
    9.1028  -14.5958   24.7252 N   0  0  0  0  0  0  0  0  0  0  0  0
    8.6501  -15.3667   22.5102 C   0  0  0  0  0  0  0  0  0  0  0  0
    7.9635  -16.0850   21.7396 O   0  0  0  0  0  0  0  0  0  0  0  0
    5.9562  -13.6001   25.5235 C   0  0  0  0  0  0  0  0  0  0  0  0
    5.5213  -13.1164   26.7362 C   0  0  0  0  0  0  0  0  0  0  0  0
   10.0003  -15.1133   22.1497 N   0  0  0  0  0  0  0  0  0  0  0  0
   10.5728  -15.8058   21.0348 C   0  0  0  0  0  0  0  0  0  0  0  0
   11.5037  -16.8817   21.3566 C   0  0  0  0  0  0  0  0  0  0  0  0
   12.0892  -17.5044   20.4019 O   0  0  0  0  0  0  0  0  0  0  0  0
   14.8264  -15.5051   23.8610 N   0  0  0  0  0  0  0  0  0  0  0  0
   14.6459  -16.7158   23.0892 C   0  0  0  0  0  0  0  0  0  0  0  0
   15.1394  -16.7453   21.9549 O   0  0  0  0  0  0  0  0  0  0  0  0
   13.8977  -17.7974   23.7146 C   0  0  0  0  0  0  0  0  0  0  0  0
   12.8338  -18.4424   22.8572 C   0  0  2  0  0  0  0  0  0  0  0  0
   11.8573  -17.3445   22.6383 N   0  0  0  0  0  0  0  0  0  0  0  0
   12.1856  -19.5187   23.6386 C   0  0  0  0  0  0  0  0  0  0  0  0
   12.6366  -19.7744   24.7766 O   0  0  0  0  0  0  0  0  0  0  0  0
   11.1211  -20.2357   23.1658 O   0  0  0  0  0  0  0  0  0  0  0  0
  2  1  1  0
  3  2  2  0
  4  5  2  0
  4  3  1  0
  5 11  1  0
  6  5  1  0
  7  6  1  0
  7  8  1  1
  9 13  1  0
  9  7  1  0
 10  9  2  0
 11 12  2  0
 12  2  1  0
 14 15  1  0
 14 13  1  0
 15 16  2  0
 18 17  1  0
 18 20  1  0
 19 18  2  0
 21 20  1  1
 22 21  1  0
 22 15  1  0
 23 25  1  0
 23 21  1  0
 24 23  2  0
M  END
$$$$
