YGN.pdb
     RDKit          3D

 25 25  0  0  1  0  0  0  0  0999 V2000
    7.0529  -12.2862   27.7868 O   0  0  0  0  0  0  0  0  0  0  0  0
    6.9892  -12.5110   26.3989 C   0  0  0  0  0  0  0  0  0  0  0  0
    5.9239  -13.2075   25.8658 C   0  0  0  0  0  0  0  0  0  0  0  0
    5.8966  -13.4068   24.5100 C   0  0  0  0  0  0  0  0  0  0  0  0
    6.8678  -12.9535   23.6504 C   0  0  0  0  0  0  0  0  0  0  0  0
    6.8322  -13.1722   22.1807 C   0  0  0  0  0  0  0  0  0  0  0  0
    7.2273  -14.6129   21.9309 C   0  0  2  0  0  0  0  0  0  0  0  0
    6.2971  -15.4542   22.6451 N   0  0  0  0  0  0  0  0  0  0  0  0
    8.6068  -14.8812   22.4393 C   0  0  0  0  0  0  0  0  0  0  0  0
    9.6075  -14.3857   21.8612 O   0  0  0  0  0  0  0  0  0  0  0  0
    7.9309  -12.2526   24.2250 C   0  0  0  0  0  0  0  0  0  0  0  0
    7.9817  -12.0393   25.5836 C   0  0  0  0  0  0  0  0  0  0  0  0
    8.8381  -15.6954   23.5797 N   0  0  0  0  0  0  0  0  0  0  0  0
   10.1741  -16.1044   23.8931 C   0  0  0  0  0  0  0  0  0  0  0  0
   10.3260  -17.4599   24.4098 C   0  0  0  0  0  0  0  0  0  0  0  0
    9.6981  -18.4186   23.8365 O   0  0  0  0  0  0  0  0  0  0  0  0
   11.8839  -21.9589   26.2660 N   0  0  0  0  0  0  0  0  0  0  0  0
   12.2657  -21.3607   25.0049 C   0  0  0  0  0  0  0  0  0  0  0  0
   12.8081  -22.0947   24.1693 O   0  0  0  0  0  0  0  0  0  0  0  0
   11.9786  -19.9442   24.8270 C   0  0  0  0  0  0  0  0  0  0  0  0
   11.2043  -19.2849   25.9445 C   0  0  2  0  0  0  0  0  0  0  0  0
   11.1087  -17.8686   25.5064 N   0  0  0  0  0  0  0  0  0  0  0  0
   12.0101  -19.3555   27.1834 C   0  0  0  0  0  0  0  0  0  0  0  0
   12.9745  -18.5687   27.3049 O   0  0  0  0  0  0  0  0  0  0  0  0
   11.7398  -20.2407   28.1904 O   0  0  0  0  0  0  0  0  0  0  0  0
  2  1  1  0
  3  2  2  0
  4  5  2  0
  4  3  1  0
  5 11  1  0
  6  5  1  0
  7  6  1  0
  7  8  1  1
  9 13  1  0
  9  7  1  0
 10  9  2  0
 11 12  2  0
 12  2  1  0
 14 15  1  0
 14 13  1  0
 15 16  2  0
 18 17  1  0
 18 20  1  0
 19 18  2  0
 21 20  1  6
 22 21  1  0
 22 15  1  0
 23 25  1  0
 23 21  1  0
 24 23  2  0
M  END
$$$$
