YGN.pdb
     RDKit          3D

 25 25  0  0  1  0  0  0  0  0999 V2000
    5.1445  -13.8399   19.9082 O   0  0  0  0  0  0  0  0  0  0  0  0
    6.4729  -14.1461   19.5583 C   0  0  0  0  0  0  0  0  0  0  0  0
    7.1535  -13.3330   18.6751 C   0  0  0  0  0  0  0  0  0  0  0  0
    8.4455  -13.6633   18.3583 C   0  0  0  0  0  0  0  0  0  0  0  0
    9.1028  -14.7565   18.8686 C   0  0  0  0  0  0  0  0  0  0  0  0
   10.5044  -15.1091   18.5216 C   0  0  0  0  0  0  0  0  0  0  0  0
   11.3988  -14.4796   19.5693 C   0  0  2  0  0  0  0  0  0  0  0  0
   11.3781  -13.0510   19.3645 N   0  0  0  0  0  0  0  0  0  0  0  0
   12.8052  -14.9654   19.4285 C   0  0  0  0  0  0  0  0  0  0  0  0
   13.0808  -16.1802   19.6001 O   0  0  0  0  0  0  0  0  0  0  0  0
    8.3831  -15.5567   19.7592 C   0  0  0  0  0  0  0  0  0  0  0  0
    7.0846  -15.2468   20.0935 C   0  0  0  0  0  0  0  0  0  0  0  0
   13.8707  -14.0857   19.1000 N   0  0  0  0  0  0  0  0  0  0  0  0
   15.1973  -14.6072   18.9646 C   0  0  0  0  0  0  0  0  0  0  0  0
   15.9540  -14.7661   20.2013 C   0  0  0  0  0  0  0  0  0  0  0  0
   15.5814  -14.1243   21.2459 O   0  0  0  0  0  0  0  0  0  0  0  0
   16.1329  -17.1718   24.7099 N   0  0  0  0  0  0  0  0  0  0  0  0
   17.0206  -17.4517   23.6019 C   0  0  0  0  0  0  0  0  0  0  0  0
   18.0127  -18.1542   23.8323 O   0  0  0  0  0  0  0  0  0  0  0  0
   16.6696  -16.8816   22.3086 C   0  0  0  0  0  0  0  0  0  0  0  0
   17.6397  -15.8652   21.7530 C   0  0  2  0  0  0  0  0  0  0  0  0
   17.0920  -15.5699   20.4040 N   0  0  0  0  0  0  0  0  0  0  0  0
   18.9650  -16.5070   21.6080 C   0  0  0  0  0  0  0  0  0  0  0  0
   19.2486  -17.0318   20.5090 O   0  0  0  0  0  0  0  0  0  0  0  0
   19.8816  -16.5452   22.6224 O   0  0  0  0  0  0  0  0  0  0  0  0
  2  1  1  0
  3  2  2  0
  4  5  2  0
  4  3  1  0
  5 11  1  0
  6  5  1  0
  7  6  1  0
  7  8  1  6
  9 13  1  0
  9  7  1  0
 10  9  2  0
 11 12  2  0
 12  2  1  0
 14 15  1  0
 14 13  1  0
 15 16  2  0
 18 17  1  0
 18 20  1  0
 19 18  2  0
 21 20  1  6
 22 21  1  0
 22 15  1  0
 23 25  1  0
 23 21  1  0
 24 23  2  0
M  END
$$$$
