YGN.pdb
     RDKit          3D

 25 25  0  0  1  0  0  0  0  0999 V2000
    9.5970  -12.5502   17.8472 O   0  0  0  0  0  0  0  0  0  0  0  0
    8.8303  -13.1315   18.8744 C   0  0  0  0  0  0  0  0  0  0  0  0
    8.1642  -14.3179   18.6445 C   0  0  0  0  0  0  0  0  0  0  0  0
    7.4275  -14.8535   19.6689 C   0  0  0  0  0  0  0  0  0  0  0  0
    7.3136  -14.2783   20.9114 C   0  0  0  0  0  0  0  0  0  0  0  0
    6.5137  -14.8643   22.0186 C   0  0  0  0  0  0  0  0  0  0  0  0
    7.4818  -15.2478   23.1185 C   0  0  2  0  0  0  0  0  0  0  0  0
    8.4567  -16.1489   22.5520 N   0  0  0  0  0  0  0  0  0  0  0  0
    6.7708  -15.9466   24.2320 C   0  0  0  0  0  0  0  0  0  0  0  0
    5.5570  -16.2549   24.1200 O   0  0  0  0  0  0  0  0  0  0  0  0
    8.0013  -13.0782   21.1081 C   0  0  0  0  0  0  0  0  0  0  0  0
    8.7477  -12.5199   20.0957 C   0  0  0  0  0  0  0  0  0  0  0  0
    7.4297  -16.2848   25.4438 N   0  0  0  0  0  0  0  0  0  0  0  0
    7.2065  -17.5717   26.0307 C   0  0  0  0  0  0  0  0  0  0  0  0
    8.3942  -18.3857   26.2637 C   0  0  0  0  0  0  0  0  0  0  0  0
    8.2576  -19.5563   26.7667 O   0  0  0  0  0  0  0  0  0  0  0  0
   11.9213  -17.0016   23.4341 N   0  0  0  0  0  0  0  0  0  0  0  0
   11.8397  -18.2926   24.0827 C   0  0  0  0  0  0  0  0  0  0  0  0
   11.6255  -19.2768   23.3640 O   0  0  0  0  0  0  0  0  0  0  0  0
   12.0169  -18.3228   25.5278 C   0  0  0  0  0  0  0  0  0  0  0  0
   10.8772  -18.9233   26.3175 C   0  0  2  0  0  0  0  0  0  0  0  0
    9.7310  -18.0349   25.9952 N   0  0  0  0  0  0  0  0  0  0  0  0
   11.1891  -18.8081   27.7592 C   0  0  0  0  0  0  0  0  0  0  0  0
   10.5824  -17.9414   28.4260 O   0  0  0  0  0  0  0  0  0  0  0  0
   12.1068  -19.6083   28.3822 O   0  0  0  0  0  0  0  0  0  0  0  0
  2  1  1  0
  3  2  2  0
  4  5  2  0
  4  3  1  0
  5 11  1  0
  6  5  1  0
  7  6  1  0
  7  8  1  6
  9 13  1  0
  9  7  1  0
 10  9  2  0
 11 12  2  0
 12  2  1  0
 14 15  1  0
 14 13  1  0
 15 16  2  0
 18 17  1  0
 18 20  1  0
 19 18  2  0
 21 20  1  6
 22 21  1  0
 22 15  1  0
 23 25  1  0
 23 21  1  0
 24 23  2  0
M  END
$$$$
