KIR.pdb
     RDKit          3D

 29 28  0  0  1  0  0  0  0  0999 V2000
   28.9036  -21.6326  -15.2881 N   0  0  0  0  0  0  0  0  0  0  0  0
   28.1516  -20.5646  -14.6353 C   0  0  1  0  0  0  0  0  0  0  0  0
   27.5504  -19.7266  -15.6876 C   0  0  0  0  0  0  0  0  0  0  0  0
   28.3657  -19.3091  -16.8358 C   0  0  0  0  0  0  0  0  0  0  0  0
   27.8384  -18.2834  -17.7383 C   0  0  0  0  0  0  0  0  0  0  0  0
   28.6090  -17.9386  -18.9421 C   0  0  0  0  0  0  0  0  0  0  0  0
   27.7961  -16.9077  -19.6747 N   0  0  0  0  0  0  0  0  0  0  0  0
   26.9668  -21.2012  -13.9074 C   0  0  0  0  0  0  0  0  0  0  0  0
   26.4868  -22.2788  -14.3225 O   0  0  0  0  0  0  0  0  0  0  0  0
   27.1330  -20.3567   -8.6236 C   0  0  0  0  0  0  0  0  0  0  0  0
   26.9047  -21.1460   -9.9189 C   0  0  0  0  0  0  0  0  0  0  0  0
   25.6567  -20.6712  -10.5723 C   0  0  2  0  0  0  0  0  0  0  0  0
   24.4387  -20.8310   -9.6613 C   0  0  0  0  0  0  0  0  0  0  0  0
   25.3757  -21.1763  -11.9441 C   0  0  2  0  0  0  0  0  0  0  0  0
   26.4371  -20.5670  -12.7873 N   0  0  0  0  0  0  0  0  0  0  0  0
   24.1105  -20.7798  -12.5520 C   0  0  0  0  0  0  0  0  0  0  0  0
   23.8164  -19.5452  -12.7579 O   0  0  0  0  0  0  0  0  0  0  0  0
   16.9761  -23.0729  -14.6285 N   0  0  0  0  0  0  0  0  0  0  0  0
   17.1274  -22.8422  -16.0221 C   0  0  0  0  0  0  0  0  0  0  0  0
   16.0954  -22.5634  -16.7509 N   0  0  0  0  0  0  0  0  0  0  0  0
   18.3837  -22.9080  -16.6578 N   0  0  0  0  0  0  0  0  0  0  0  0
   19.5913  -23.2732  -15.9506 C   0  0  0  0  0  0  0  0  0  0  0  0
   20.0383  -22.1123  -15.1221 C   0  0  0  0  0  0  0  0  0  0  0  0
   21.3419  -22.3167  -14.4342 C   0  0  0  0  0  0  0  0  0  0  0  0
   21.8314  -21.1808  -13.6031 C   0  0  2  0  0  0  0  0  0  0  0  0
   23.0799  -21.6588  -12.9829 N   0  0  0  0  0  0  0  0  0  0  0  0
   20.8515  -20.8096  -12.5454 C   0  0  0  0  0  0  0  0  0  0  0  0
   19.8799  -19.8733  -12.8210 O   0  0  0  0  0  0  0  0  0  0  0  0
   20.9713  -21.3860  -11.4375 O   0  0  0  0  0  0  0  0  0  0  0  0
  2  1  1  6
  2  3  1  0
  3  4  1  0
  4  5  1  0
  6  5  1  0
  7  6  1  0
  8  2  1  0
  9  8  2  0
 11 12  1  0
 11 10  1  0
 12 14  1  0
 12 13  1  1
 14 15  1  6
 15  8  1  0
 16 14  1  0
 16 26  1  0
 17 16  2  0
 18 19  1  0
 19 20  2  0
 21 19  1  0
 21 22  1  0
 23 22  1  0
 24 23  1  0
 25 26  1  0
 25 24  1  6
 27 25  1  0
 28 27  1  0
 29 27  2  0
M  END
$$$$
