KIR.pdb
     RDKit          3D

 29 28  0  0  1  0  0  0  0  0999 V2000
   15.8793   -9.9850    9.2246 N   0  0  0  0  0  0  0  0  0  0  0  0
   17.0246  -10.8328    8.9057 C   0  0  1  0  0  0  0  0  0  0  0  0
   17.4050  -11.5583   10.1305 C   0  0  0  0  0  0  0  0  0  0  0  0
   18.2246  -10.8852   11.1466 C   0  0  0  0  0  0  0  0  0  0  0  0
   18.6261  -11.6360   12.3382 C   0  0  0  0  0  0  0  0  0  0  0  0
   19.4552  -10.9641   13.3496 C   0  0  0  0  0  0  0  0  0  0  0  0
   20.0883  -12.0593   14.1621 N   0  0  0  0  0  0  0  0  0  0  0  0
   16.5526  -11.9140    7.9325 C   0  0  0  0  0  0  0  0  0  0  0  0
   15.3298  -12.0745    7.7253 O   0  0  0  0  0  0  0  0  0  0  0  0
   19.4371  -11.9708    3.5745 C   0  0  0  0  0  0  0  0  0  0  0  0
   18.2423  -12.0502    4.5332 C   0  0  0  0  0  0  0  0  0  0  0  0
   18.1971  -13.4001    5.1540 C   0  0  2  0  0  0  0  0  0  0  0  0
   18.2072  -14.5123    4.1041 C   0  0  0  0  0  0  0  0  0  0  0  0
   17.1480  -13.6378    6.1831 C   0  0  2  0  0  0  0  0  0  0  0  0
   17.4972  -12.7081    7.2888 N   0  0  0  0  0  0  0  0  0  0  0  0
   17.0952  -14.9658    6.7838 C   0  0  0  0  0  0  0  0  0  0  0  0
   18.0445  -15.4096    7.5289 O   0  0  0  0  0  0  0  0  0  0  0  0
   13.3682  -22.2150    5.5098 N   0  0  0  0  0  0  0  0  0  0  0  0
   13.2173  -22.2818    6.9208 C   0  0  0  0  0  0  0  0  0  0  0  0
   13.2004  -23.4287    7.5193 N   0  0  0  0  0  0  0  0  0  0  0  0
   13.0802  -21.1239    7.7127 N   0  0  0  0  0  0  0  0  0  0  0  0
   13.1721  -19.7912    7.1585 C   0  0  0  0  0  0  0  0  0  0  0  0
   14.5305  -19.2385    7.4467 C   0  0  0  0  0  0  0  0  0  0  0  0
   14.7337  -17.8396    6.9818 C   0  0  0  0  0  0  0  0  0  0  0  0
   16.0712  -17.2434    7.2575 C   0  0  2  0  0  0  0  0  0  0  0  0
   16.0388  -15.9058    6.6395 N   0  0  0  0  0  0  0  0  0  0  0  0
   17.1687  -18.0509    6.6574 C   0  0  0  0  0  0  0  0  0  0  0  0
   17.8827  -18.9198    7.4523 O   0  0  0  0  0  0  0  0  0  0  0  0
   17.3840  -17.8885    5.4321 O   0  0  0  0  0  0  0  0  0  0  0  0
  2  1  1  1
  2  3  1  0
  3  4  1  0
  4  5  1  0
  6  5  1  0
  7  6  1  0
  8  2  1  0
  9  8  2  0
 11 12  1  0
 11 10  1  0
 12 14  1  0
 12 13  1  6
 14 15  1  1
 15  8  1  0
 16 14  1  0
 16 26  1  0
 17 16  2  0
 18 19  1  0
 19 20  2  0
 21 19  1  0
 21 22  1  0
 23 22  1  0
 24 23  1  0
 25 26  1  0
 25 24  1  6
 27 25  1  0
 28 27  1  0
 29 27  2  0
M  END
$$$$
