KIR.pdb
     RDKit          3D

 29 28  0  0  1  0  0  0  0  0999 V2000
   21.0487  -28.9554  -11.7111 N   0  0  0  0  0  0  0  0  0  0  0  0
   19.9406  -28.0171  -11.8649 C   0  0  1  0  0  0  0  0  0  0  0  0
   18.6852  -28.7860  -11.8023 C   0  0  0  0  0  0  0  0  0  0  0  0
   18.5396  -29.8562  -10.8070 C   0  0  0  0  0  0  0  0  0  0  0  0
   17.4387  -29.7779   -9.8443 C   0  0  0  0  0  0  0  0  0  0  0  0
   16.0578  -29.8492  -10.3441 C   0  0  0  0  0  0  0  0  0  0  0  0
   15.8048  -31.2970  -10.6606 N   0  0  0  0  0  0  0  0  0  0  0  0
   19.9159  -27.1129  -10.6317 C   0  0  0  0  0  0  0  0  0  0  0  0
   20.6868  -27.3437   -9.6746 O   0  0  0  0  0  0  0  0  0  0  0  0
   19.0732  -21.9397  -11.8285 C   0  0  0  0  0  0  0  0  0  0  0  0
   19.6418  -23.2213  -11.2061 C   0  0  0  0  0  0  0  0  0  0  0  0
   18.6825  -23.7487  -10.2005 C   0  0  2  0  0  0  0  0  0  0  0  0
   18.2615  -22.6759   -9.1951 C   0  0  0  0  0  0  0  0  0  0  0  0
   19.0495  -25.0180   -9.5147 C   0  0  2  0  0  0  0  0  0  0  0  0
   19.0295  -26.0404  -10.5932 N   0  0  0  0  0  0  0  0  0  0  0  0
   18.1358  -25.5070   -8.4883 C   0  0  0  0  0  0  0  0  0  0  0  0
   16.8930  -25.7236   -8.7365 O   0  0  0  0  0  0  0  0  0  0  0  0
   19.2597  -27.6971    0.2045 N   0  0  0  0  0  0  0  0  0  0  0  0
   17.8712  -27.7091   -0.0962 C   0  0  0  0  0  0  0  0  0  0  0  0
   17.0026  -27.8696    0.8491 N   0  0  0  0  0  0  0  0  0  0  0  0
   17.3908  -27.5516   -1.4119 N   0  0  0  0  0  0  0  0  0  0  0  0
   18.2716  -27.3232   -2.5360 C   0  0  0  0  0  0  0  0  0  0  0  0
   17.4485  -26.9816   -3.7358 C   0  0  0  0  0  0  0  0  0  0  0  0
   18.2431  -26.6188   -4.9405 C   0  0  0  0  0  0  0  0  0  0  0  0
   17.4678  -26.1371   -6.1184 C   0  0  2  0  0  0  0  0  0  0  0  0
   18.4755  -25.8007   -7.1397 N   0  0  0  0  0  0  0  0  0  0  0  0
   16.6590  -24.9310   -5.7898 C   0  0  0  0  0  0  0  0  0  0  0  0
   17.2731  -23.6999   -5.7288 O   0  0  0  0  0  0  0  0  0  0  0  0
   15.4348  -25.1115   -5.5827 O   0  0  0  0  0  0  0  0  0  0  0  0
  2  1  1  1
  2  3  1  0
  3  4  1  0
  4  5  1  0
  6  5  1  0
  7  6  1  0
  8  2  1  0
  9  8  2  0
 11 12  1  0
 11 10  1  0
 12 14  1  0
 12 13  1  1
 14 15  1  6
 15  8  1  0
 16 14  1  0
 16 26  1  0
 17 16  2  0
 18 19  1  0
 19 20  2  0
 21 19  1  0
 21 22  1  0
 23 22  1  0
 24 23  1  0
 25 26  1  0
 25 24  1  1
 27 25  1  0
 28 27  1  0
 29 27  2  0
M  END
$$$$
