KIR.pdb
     RDKit          3D

 29 28  0  0  1  0  0  0  0  0999 V2000
   28.8230  -21.6340  -15.3315 N   0  0  0  0  0  0  0  0  0  0  0  0
   27.9729  -20.5739  -14.7970 C   0  0  1  0  0  0  0  0  0  0  0  0
   27.3627  -19.8661  -15.9362 C   0  0  0  0  0  0  0  0  0  0  0  0
   28.2131  -19.0842  -16.8433 C   0  0  0  0  0  0  0  0  0  0  0  0
   28.5226  -19.6319  -18.1658 C   0  0  0  0  0  0  0  0  0  0  0  0
   29.3695  -18.8456  -19.0748 C   0  0  0  0  0  0  0  0  0  0  0  0
   28.6770  -17.5224  -19.2474 N   0  0  0  0  0  0  0  0  0  0  0  0
   26.8033  -21.2335  -14.0650 C   0  0  0  0  0  0  0  0  0  0  0  0
   26.3600  -22.3331  -14.4630 O   0  0  0  0  0  0  0  0  0  0  0  0
   26.9061  -20.3698   -8.7585 C   0  0  0  0  0  0  0  0  0  0  0  0
   26.7526  -21.1065  -10.0952 C   0  0  0  0  0  0  0  0  0  0  0  0
   25.4781  -20.6959  -10.7410 C   0  0  2  0  0  0  0  0  0  0  0  0
   24.2772  -20.9022   -9.8167 C   0  0  0  0  0  0  0  0  0  0  0  0
   25.2079  -21.2273  -12.1051 C   0  0  2  0  0  0  0  0  0  0  0  0
   26.2462  -20.5956  -12.9605 N   0  0  0  0  0  0  0  0  0  0  0  0
   23.9285  -20.8788  -12.7125 C   0  0  0  0  0  0  0  0  0  0  0  0
   23.5593  -19.6558  -12.8579 O   0  0  0  0  0  0  0  0  0  0  0  0
   16.7491  -22.8932  -12.9386 N   0  0  0  0  0  0  0  0  0  0  0  0
   16.4778  -23.1166  -14.3151 C   0  0  0  0  0  0  0  0  0  0  0  0
   15.2823  -22.9435  -14.7786 N   0  0  0  0  0  0  0  0  0  0  0  0
   17.4797  -23.5301  -15.2161 N   0  0  0  0  0  0  0  0  0  0  0  0
   18.8377  -23.7961  -14.7956 C   0  0  0  0  0  0  0  0  0  0  0  0
   19.5108  -22.4993  -14.4807 C   0  0  0  0  0  0  0  0  0  0  0  0
   20.9399  -22.6309  -14.0872 C   0  0  0  0  0  0  0  0  0  0  0  0
   21.6165  -21.3802  -13.6417 C   0  0  2  0  0  0  0  0  0  0  0  0
   22.9617  -21.7962  -13.2066 N   0  0  0  0  0  0  0  0  0  0  0  0
   20.8953  -20.7372  -12.5089 C   0  0  0  0  0  0  0  0  0  0  0  0
   20.0755  -19.6579  -12.7534 O   0  0  0  0  0  0  0  0  0  0  0  0
   21.0812  -21.2286  -11.3696 O   0  0  0  0  0  0  0  0  0  0  0  0
  2  1  1  6
  2  3  1  0
  3  4  1  0
  4  5  1  0
  6  5  1  0
  7  6  1  0
  8  2  1  0
  9  8  2  0
 11 12  1  0
 11 10  1  0
 12 14  1  0
 12 13  1  1
 14 15  1  6
 15  8  1  0
 16 14  1  0
 16 26  1  0
 17 16  2  0
 18 19  1  0
 19 20  2  0
 21 19  1  0
 21 22  1  0
 23 22  1  0
 24 23  1  0
 25 26  1  0
 25 24  1  1
 27 25  1  0
 28 27  1  0
 29 27  2  0
M  END
$$$$
