KIR.pdb
     RDKit          3D

 29 28  0  0  1  0  0  0  0  0999 V2000
   29.5189  -24.5512  -17.6308 N   0  0  0  0  0  0  0  0  0  0  0  0
   28.3221  -23.7327  -17.8037 C   0  0  1  0  0  0  0  0  0  0  0  0
   27.1494  -24.5860  -17.5432 C   0  0  0  0  0  0  0  0  0  0  0  0
   26.7471  -25.5885  -18.5384 C   0  0  0  0  0  0  0  0  0  0  0  0
   26.6021  -25.1749  -19.9358 C   0  0  0  0  0  0  0  0  0  0  0  0
   26.0668  -26.1413  -20.9060 C   0  0  0  0  0  0  0  0  0  0  0  0
   26.0994  -25.4510  -22.2412 N   0  0  0  0  0  0  0  0  0  0  0  0
   28.3060  -22.6830  -16.6917 C   0  0  0  0  0  0  0  0  0  0  0  0
   29.0572  -22.8140  -15.7005 O   0  0  0  0  0  0  0  0  0  0  0  0
   27.5632  -17.6245  -18.3839 C   0  0  0  0  0  0  0  0  0  0  0  0
   28.1197  -18.8128  -17.5895 C   0  0  0  0  0  0  0  0  0  0  0  0
   27.0987  -19.2744  -16.6126 C   0  0  2  0  0  0  0  0  0  0  0  0
   26.6037  -18.1338  -15.7219 C   0  0  0  0  0  0  0  0  0  0  0  0
   27.4277  -20.4837  -15.8093 C   0  0  2  0  0  0  0  0  0  0  0  0
   27.4494  -21.5913  -16.8001 N   0  0  0  0  0  0  0  0  0  0  0  0
   26.4666  -20.8847  -14.7881 C   0  0  0  0  0  0  0  0  0  0  0  0
   25.3082  -21.3506  -15.0948 O   0  0  0  0  0  0  0  0  0  0  0  0
   26.4135  -19.9860   -5.7735 N   0  0  0  0  0  0  0  0  0  0  0  0
   25.1023  -20.2928   -6.2264 C   0  0  0  0  0  0  0  0  0  0  0  0
   24.1162  -20.3247   -5.3894 N   0  0  0  0  0  0  0  0  0  0  0  0
   24.8261  -20.5720   -7.5800 N   0  0  0  0  0  0  0  0  0  0  0  0
   25.7964  -20.3522   -8.6298 C   0  0  0  0  0  0  0  0  0  0  0  0
   25.2149  -20.8042   -9.9303 C   0  0  0  0  0  0  0  0  0  0  0  0
   26.1482  -20.7066  -11.0853 C   0  0  0  0  0  0  0  0  0  0  0  0
   25.5988  -21.1116  -12.4099 C   0  0  2  0  0  0  0  0  0  0  0  0
   26.6679  -20.8228  -13.3823 N   0  0  0  0  0  0  0  0  0  0  0  0
   24.3756  -20.3377  -12.7590 C   0  0  0  0  0  0  0  0  0  0  0  0
   23.1425  -20.9446  -12.6718 O   0  0  0  0  0  0  0  0  0  0  0  0
   24.5442  -19.1484  -13.1210 O   0  0  0  0  0  0  0  0  0  0  0  0
  2  1  1  1
  2  3  1  0
  3  4  1  0
  4  5  1  0
  6  5  1  0
  7  6  1  0
  8  2  1  0
  9  8  2  0
 11 12  1  0
 11 10  1  0
 12 14  1  0
 12 13  1  1
 14 15  1  6
 15  8  1  0
 16 14  1  0
 16 26  1  0
 17 16  2  0
 18 19  1  0
 19 20  2  0
 21 19  1  0
 21 22  1  0
 23 22  1  0
 24 23  1  0
 25 26  1  0
 25 24  1  1
 27 25  1  0
 28 27  1  0
 29 27  2  0
M  END
$$$$
