KIR.pdb
     RDKit          3D

 29 28  0  0  1  0  0  0  0  0999 V2000
   29.3140  -21.9730  -14.6890 N   0  0  0  0  0  0  0  0  0  0  0  0
   28.4996  -20.8445  -14.2470 C   0  0  1  0  0  0  0  0  0  0  0  0
   27.8491  -20.2637  -15.4347 C   0  0  0  0  0  0  0  0  0  0  0  0
   28.6748  -19.7683  -16.5438 C   0  0  0  0  0  0  0  0  0  0  0  0
   28.7322  -18.3256  -16.7893 C   0  0  0  0  0  0  0  0  0  0  0  0
   29.4792  -17.8378  -17.9580 C   0  0  0  0  0  0  0  0  0  0  0  0
   29.4926  -16.3386  -17.8463 N   0  0  0  0  0  0  0  0  0  0  0  0
   27.3551  -21.3959  -13.3955 C   0  0  0  0  0  0  0  0  0  0  0  0
   26.8196  -22.4838  -13.7012 O   0  0  0  0  0  0  0  0  0  0  0  0
   27.5248  -19.7675   -8.2377 C   0  0  0  0  0  0  0  0  0  0  0  0
   27.3297  -20.7585   -9.3923 C   0  0  0  0  0  0  0  0  0  0  0  0
   26.0682  -20.4372  -10.1100 C   0  0  2  0  0  0  0  0  0  0  0  0
   24.8492  -20.5279   -9.1907 C   0  0  0  0  0  0  0  0  0  0  0  0
   25.8253  -21.1386  -11.4004 C   0  0  2  0  0  0  0  0  0  0  0  0
   26.9240  -20.6734  -12.2867 N   0  0  0  0  0  0  0  0  0  0  0  0
   24.5878  -20.8238  -12.1051 C   0  0  0  0  0  0  0  0  0  0  0  0
   24.3222  -19.6315  -12.5066 O   0  0  0  0  0  0  0  0  0  0  0  0
   17.3686  -23.4614  -13.9527 N   0  0  0  0  0  0  0  0  0  0  0  0
   17.5962  -23.3900  -15.3532 C   0  0  0  0  0  0  0  0  0  0  0  0
   16.6066  -23.1951  -16.1636 N   0  0  0  0  0  0  0  0  0  0  0  0
   18.8843  -23.5278  -15.9084 N   0  0  0  0  0  0  0  0  0  0  0  0
   20.0524  -23.7947  -15.0983 C   0  0  0  0  0  0  0  0  0  0  0  0
   20.5177  -22.5153  -14.4815 C   0  0  0  0  0  0  0  0  0  0  0  0
   21.8207  -22.6167  -13.7701 C   0  0  0  0  0  0  0  0  0  0  0  0
   22.3439  -21.3551  -13.1742 C   0  0  2  0  0  0  0  0  0  0  0  0
   23.5563  -21.7454  -12.4328 N   0  0  0  0  0  0  0  0  0  0  0  0
   21.3601  -20.7357  -12.2439 C   0  0  0  0  0  0  0  0  0  0  0  0
   21.4303  -21.0181  -10.8978 O   0  0  0  0  0  0  0  0  0  0  0  0
   20.5035  -19.9738  -12.7536 O   0  0  0  0  0  0  0  0  0  0  0  0
  2  1  1  6
  2  3  1  0
  3  4  1  0
  4  5  1  0
  6  5  1  0
  7  6  1  0
  8  2  1  0
  9  8  2  0
 11 12  1  0
 11 10  1  0
 12 14  1  0
 12 13  1  1
 14 15  1  6
 15  8  1  0
 16 14  1  0
 16 26  1  0
 17 16  2  0
 18 19  1  0
 19 20  2  0
 21 19  1  0
 21 22  1  0
 23 22  1  0
 24 23  1  0
 25 26  1  0
 25 24  1  1
 27 25  1  0
 28 27  1  0
 29 27  2  0
M  END
$$$$
