KIR.pdb
     RDKit          3D

 29 28  0  0  1  0  0  0  0  0999 V2000
   28.1204  -19.6910  -14.4015 N   0  0  0  0  0  0  0  0  0  0  0  0
   27.4778  -20.7739  -15.1407 C   0  0  1  0  0  0  0  0  0  0  0  0
   28.4953  -21.8060  -15.4062 C   0  0  0  0  0  0  0  0  0  0  0  0
   29.5867  -21.5226  -16.3475 C   0  0  0  0  0  0  0  0  0  0  0  0
   29.3069  -20.6919  -17.5208 C   0  0  0  0  0  0  0  0  0  0  0  0
   30.3658  -20.5083  -18.5242 C   0  0  0  0  0  0  0  0  0  0  0  0
   29.7884  -19.6028  -19.5764 N   0  0  0  0  0  0  0  0  0  0  0  0
   26.4656  -21.4426  -14.2094 C   0  0  0  0  0  0  0  0  0  0  0  0
   25.9579  -22.5406  -14.5267 O   0  0  0  0  0  0  0  0  0  0  0  0
   26.8492  -20.4670   -8.8471 C   0  0  0  0  0  0  0  0  0  0  0  0
   26.6222  -21.2258  -10.1608 C   0  0  0  0  0  0  0  0  0  0  0  0
   25.3622  -20.7529  -10.7920 C   0  0  2  0  0  0  0  0  0  0  0  0
   24.1712  -20.8578   -9.8382 C   0  0  0  0  0  0  0  0  0  0  0  0
   25.0292  -21.3026  -12.1348 C   0  0  2  0  0  0  0  0  0  0  0  0
   26.1224  -20.8146  -13.0156 N   0  0  0  0  0  0  0  0  0  0  0  0
   23.7894  -20.8447  -12.7515 C   0  0  0  0  0  0  0  0  0  0  0  0
   23.5330  -19.5945  -12.9080 O   0  0  0  0  0  0  0  0  0  0  0  0
   16.8923  -21.1462  -14.4376 N   0  0  0  0  0  0  0  0  0  0  0  0
   16.7054  -21.7450  -15.7123 C   0  0  0  0  0  0  0  0  0  0  0  0
   15.6129  -21.5383  -16.3738 N   0  0  0  0  0  0  0  0  0  0  0  0
   17.6825  -22.5750  -16.2979 N   0  0  0  0  0  0  0  0  0  0  0  0
   18.8949  -22.9517  -15.6052 C   0  0  0  0  0  0  0  0  0  0  0  0
   19.8265  -21.7831  -15.5873 C   0  0  0  0  0  0  0  0  0  0  0  0
   21.1295  -22.0488  -14.9194 C   0  0  0  0  0  0  0  0  0  0  0  0
   21.4920  -21.1351  -13.7994 C   0  0  2  0  0  0  0  0  0  0  0  0
   22.7458  -21.6748  -13.2439 N   0  0  0  0  0  0  0  0  0  0  0  0
   20.4409  -21.1117  -12.7452 C   0  0  0  0  0  0  0  0  0  0  0  0
   19.4374  -20.1708  -12.8103 O   0  0  0  0  0  0  0  0  0  0  0  0
   20.5333  -21.9721  -11.8368 O   0  0  0  0  0  0  0  0  0  0  0  0
  2  1  1  1
  2  3  1  0
  3  4  1  0
  4  5  1  0
  6  5  1  0
  7  6  1  0
  8  2  1  0
  9  8  2  0
 11 12  1  0
 11 10  1  0
 12 14  1  0
 12 13  1  1
 14 15  1  6
 15  8  1  0
 16 14  1  0
 16 26  1  0
 17 16  2  0
 18 19  1  0
 19 20  2  0
 21 19  1  0
 21 22  1  0
 23 22  1  0
 24 23  1  0
 25 26  1  0
 25 24  1  6
 27 25  1  0
 28 27  1  0
 29 27  2  0
M  END
$$$$
