LLW.pdb
     RDKit          3D

 31 32  0  0  1  0  0  0  0  0999 V2000
   29.2760  -16.9265  -18.2494 C   0  0  0  0  0  0  0  0  0  0  0  0
   29.1222  -17.8155  -17.0442 C   0  0  1  0  0  0  0  0  0  0  0  0
   28.9111  -16.9248  -15.8224 C   0  0  0  0  0  0  0  0  0  0  0  0
   28.0308  -18.8289  -17.1770 C   0  0  0  0  0  0  0  0  0  0  0  0
   27.7427  -19.6293  -15.9595 C   0  0  2  0  0  0  0  0  0  0  0  0
   28.9040  -20.3079  -15.4313 N   0  0  0  0  0  0  0  0  0  0  0  0
   26.6034  -20.5571  -16.0392 C   0  0  0  0  0  0  0  0  0  0  0  0
   25.4615  -20.1686  -16.4861 O   0  0  0  0  0  0  0  0  0  0  0  0
   26.0844  -24.2674  -18.2581 C   0  0  0  0  0  0  0  0  0  0  0  0
   26.9935  -24.3935  -17.0122 C   0  0  2  0  0  0  0  0  0  0  0  0
   27.5923  -25.7616  -17.0953 C   0  0  0  0  0  0  0  0  0  0  0  0
   26.1243  -24.1559  -15.8380 C   0  0  0  0  0  0  0  0  0  0  0  0
   25.5709  -22.7828  -15.6499 C   0  0  2  0  0  0  0  0  0  0  0  0
   26.7523  -21.8992  -15.6193 N   0  0  0  0  0  0  0  0  0  0  0  0
   24.8522  -22.6854  -14.3567 C   0  0  0  0  0  0  0  0  0  0  0  0
   23.8194  -23.4169  -14.1711 O   0  0  0  0  0  0  0  0  0  0  0  0
   25.1920  -21.8527  -13.2695 N   0  0  0  0  0  0  0  0  0  0  0  0
   24.4250  -21.8752  -12.0423 C   0  0  1  0  0  0  0  0  0  0  0  0
   25.2230  -22.2911  -10.8613 C   0  0  0  0  0  0  0  0  0  0  0  0
   25.9516  -21.2289  -10.1530 C   0  0  0  0  0  0  0  0  0  0  0  0
   25.2722  -20.2732   -9.3792 C   0  0  0  0  0  0  0  0  0  0  0  0
   26.1551  -19.4380   -8.8038 N   0  0  0  0  0  0  0  0  0  0  0  0
   27.3975  -19.7996   -9.1649 C   0  0  0  0  0  0  0  0  0  0  0  0
   28.6270  -19.2705   -8.8581 C   0  0  0  0  0  0  0  0  0  0  0  0
   29.7309  -19.8777   -9.4101 C   0  0  0  0  0  0  0  0  0  0  0  0
   29.6265  -20.9632  -10.2324 C   0  0  0  0  0  0  0  0  0  0  0  0
   28.3981  -21.4985  -10.5437 C   0  0  0  0  0  0  0  0  0  0  0  0
   27.2681  -20.8968   -9.9920 C   0  0  0  0  0  0  0  0  0  0  0  0
   23.7525  -20.6023  -11.8276 C   0  0  0  0  0  0  0  0  0  0  0  0
   22.6635  -20.4194  -10.9831 O   0  0  0  0  0  0  0  0  0  0  0  0
   24.1497  -19.5760  -12.4316 O   0  0  0  0  0  0  0  0  0  0  0  0
  2  1  1  6
  3  2  1  0
  4  2  1  0
  5  6  1  6
  5  4  1  0
  7  5  1  0
  8  7  2  0
 10  9  1  6
 10 12  1  0
 11 10  1  0
 13 12  1  1
 13 15  1  0
 13 14  1  0
 14  7  1  0
 15 17  1  0
 16 15  2  0
 17 18  1  0
 18 19  1  1
 18 29  1  0
 19 20  1  0
 20 21  2  0
 22 21  1  0
 23 22  1  0
 24 23  2  0
 25 24  1  0
 26 27  1  0
 26 25  2  0
 27 28  2  0
 28 23  1  0
 28 20  1  0
 29 31  2  0
 29 30  1  0
M  END
$$$$
