LLW.pdb
     RDKit          3D

 31 32  0  0  1  0  0  0  0  0999 V2000
   32.8071  -21.6191    4.9538 C   0  0  0  0  0  0  0  0  0  0  0  0
   34.1540  -22.0975    5.4265 C   0  0  1  0  0  0  0  0  0  0  0  0
   34.4968  -21.3515    6.7136 C   0  0  0  0  0  0  0  0  0  0  0  0
   34.2365  -23.5786    5.6146 C   0  0  0  0  0  0  0  0  0  0  0  0
   35.5557  -24.1000    6.0549 C   0  0  2  0  0  0  0  0  0  0  0  0
   36.5805  -23.9965    5.0414 N   0  0  0  0  0  0  0  0  0  0  0  0
   35.5632  -25.4454    6.6508 C   0  0  0  0  0  0  0  0  0  0  0  0
   35.7373  -26.4920    5.9236 O   0  0  0  0  0  0  0  0  0  0  0  0
   37.8665  -28.0189    9.7397 C   0  0  0  0  0  0  0  0  0  0  0  0
   37.2106  -26.7009   10.2163 C   0  0  2  0  0  0  0  0  0  0  0  0
   37.6269  -26.5448   11.6444 C   0  0  0  0  0  0  0  0  0  0  0  0
   35.7553  -26.8581    9.9973 C   0  0  0  0  0  0  0  0  0  0  0  0
   35.2729  -26.9712    8.5897 C   0  0  2  0  0  0  0  0  0  0  0  0
   35.3751  -25.6043    8.0433 N   0  0  0  0  0  0  0  0  0  0  0  0
   33.8558  -27.4063    8.5599 C   0  0  0  0  0  0  0  0  0  0  0  0
   32.9499  -26.5734    8.9092 O   0  0  0  0  0  0  0  0  0  0  0  0
   33.3766  -28.6757    8.1730 N   0  0  0  0  0  0  0  0  0  0  0  0
   31.9592  -28.9245    8.0185 C   0  0  1  0  0  0  0  0  0  0  0  0
   31.4254  -28.4732    6.7085 C   0  0  0  0  0  0  0  0  0  0  0  0
   30.0028  -28.7393    6.4514 C   0  0  0  0  0  0  0  0  0  0  0  0
   29.0016  -27.8994    6.9670 C   0  0  0  0  0  0  0  0  0  0  0  0
   27.7922  -28.3268    6.5632 N   0  0  0  0  0  0  0  0  0  0  0  0
   27.9485  -29.4203    5.7986 C   0  0  0  0  0  0  0  0  0  0  0  0
   27.0367  -30.2259    5.1618 C   0  0  0  0  0  0  0  0  0  0  0  0
   27.5282  -31.2977    4.4533 C   0  0  0  0  0  0  0  0  0  0  0  0
   28.8654  -31.5646    4.3764 C   0  0  0  0  0  0  0  0  0  0  0  0
   29.7841  -30.7617    5.0116 C   0  0  0  0  0  0  0  0  0  0  0  0
   29.3042  -29.6699    5.7333 C   0  0  0  0  0  0  0  0  0  0  0  0
   31.6455  -30.3205    8.2855 C   0  0  0  0  0  0  0  0  0  0  0  0
   30.5259  -30.7565    8.9848 O   0  0  0  0  0  0  0  0  0  0  0  0
   32.4164  -31.2234    7.8774 O   0  0  0  0  0  0  0  0  0  0  0  0
  2  1  1  1
  3  2  1  0
  4  2  1  0
  5  6  1  6
  5  4  1  0
  7  5  1  0
  8  7  2  0
 10  9  1  1
 10 12  1  0
 11 10  1  0
 13 12  1  1
 13 15  1  0
 13 14  1  0
 14  7  1  0
 15 17  1  0
 16 15  2  0
 17 18  1  0
 18 19  1  6
 18 29  1  0
 19 20  1  0
 20 21  2  0
 22 21  1  0
 23 22  1  0
 24 23  2  0
 25 24  1  0
 26 27  1  0
 26 25  2  0
 27 28  2  0
 28 23  1  0
 28 20  1  0
 29 31  2  0
 29 30  1  0
M  END
$$$$
