LLW.pdb
     RDKit          3D

 31 32  0  0  1  0  0  0  0  0999 V2000
   27.3207  -26.0472  -19.3216 C   0  0  0  0  0  0  0  0  0  0  0  0
   26.6803  -25.2715  -18.2016 C   0  0  1  0  0  0  0  0  0  0  0  0
   26.4455  -26.2290  -17.0359 C   0  0  0  0  0  0  0  0  0  0  0  0
   27.4628  -24.0712  -17.7740 C   0  0  0  0  0  0  0  0  0  0  0  0
   26.9618  -23.3729  -16.5627 C   0  0  2  0  0  0  0  0  0  0  0  0
   25.5846  -22.9493  -16.6734 N   0  0  0  0  0  0  0  0  0  0  0  0
   27.7930  -22.2727  -16.0493 C   0  0  0  0  0  0  0  0  0  0  0  0
   29.0648  -22.4098  -15.9135 O   0  0  0  0  0  0  0  0  0  0  0  0
   25.9552  -17.7455  -17.5407 C   0  0  0  0  0  0  0  0  0  0  0  0
   26.1387  -18.5919  -16.2583 C   0  0  2  0  0  0  0  0  0  0  0  0
   25.4396  -17.8304  -15.1774 C   0  0  0  0  0  0  0  0  0  0  0  0
   27.5982  -18.7539  -16.0728 C   0  0  0  0  0  0  0  0  0  0  0  0
   28.0718  -19.9267  -15.2810 C   0  0  2  0  0  0  0  0  0  0  0  0
   27.1966  -21.0408  -15.6938 N   0  0  0  0  0  0  0  0  0  0  0  0
   27.8971  -19.6780  -13.8298 C   0  0  0  0  0  0  0  0  0  0  0  0
   28.6079  -18.7728  -13.2716 O   0  0  0  0  0  0  0  0  0  0  0  0
   27.0029  -20.3457  -12.9665 N   0  0  0  0  0  0  0  0  0  0  0  0
   27.1508  -20.2651  -11.5289 C   0  0  1  0  0  0  0  0  0  0  0  0
   26.0944  -19.4506  -10.8769 C   0  0  0  0  0  0  0  0  0  0  0  0
   24.7645  -20.0667  -10.7649 C   0  0  0  0  0  0  0  0  0  0  0  0
   24.2739  -20.5168   -9.5278 C   0  0  0  0  0  0  0  0  0  0  0  0
   23.0286  -21.0014   -9.6777 N   0  0  0  0  0  0  0  0  0  0  0  0
   22.6700  -20.8925  -10.9678 C   0  0  0  0  0  0  0  0  0  0  0  0
   21.5189  -21.2466  -11.6276 C   0  0  0  0  0  0  0  0  0  0  0  0
   21.4691  -21.0091  -12.9816 C   0  0  0  0  0  0  0  0  0  0  0  0
   22.5131  -20.4452  -13.6580 C   0  0  0  0  0  0  0  0  0  0  0  0
   23.6689  -20.0878  -13.0032 C   0  0  0  0  0  0  0  0  0  0  0  0
   23.7367  -20.3199  -11.6304 C   0  0  0  0  0  0  0  0  0  0  0  0
   27.2573  -21.5934  -10.9432 C   0  0  0  0  0  0  0  0  0  0  0  0
   27.6314  -21.8469   -9.6285 O   0  0  0  0  0  0  0  0  0  0  0  0
   27.0072  -22.6062  -11.6416 O   0  0  0  0  0  0  0  0  0  0  0  0
  2  1  1  6
  3  2  1  0
  4  2  1  0
  5  6  1  6
  5  4  1  0
  7  5  1  0
  8  7  2  0
 10  9  1  6
 10 12  1  0
 11 10  1  0
 13 12  1  6
 13 15  1  0
 13 14  1  0
 14  7  1  0
 15 17  1  0
 16 15  2  0
 17 18  1  0
 18 19  1  1
 18 29  1  0
 19 20  1  0
 20 21  2  0
 22 21  1  0
 23 22  1  0
 24 23  2  0
 25 24  1  0
 26 27  1  0
 26 25  2  0
 27 28  2  0
 28 23  1  0
 28 20  1  0
 29 31  2  0
 29 30  1  0
M  END
$$$$
