LLW.pdb
     RDKit          3D

 31 32  0  0  1  0  0  0  0  0999 V2000
   29.3126  -19.8647  -18.4844 C   0  0  0  0  0  0  0  0  0  0  0  0
   28.5514  -19.1985  -17.3695 C   0  0  1  0  0  0  0  0  0  0  0  0
   27.6658  -18.1158  -17.9813 C   0  0  0  0  0  0  0  0  0  0  0  0
   27.7552  -20.1469  -16.5314 C   0  0  0  0  0  0  0  0  0  0  0  0
   27.1373  -19.5668  -15.3117 C   0  0  2  0  0  0  0  0  0  0  0  0
   27.7595  -18.3346  -14.8843 N   0  0  0  0  0  0  0  0  0  0  0  0
   26.9684  -20.4755  -14.1668 C   0  0  0  0  0  0  0  0  0  0  0  0
   26.6374  -21.7064  -14.3399 O   0  0  0  0  0  0  0  0  0  0  0  0
   29.3574  -22.4067  -11.1819 C   0  0  0  0  0  0  0  0  0  0  0  0
   29.2114  -20.8738  -11.0282 C   0  0  2  0  0  0  0  0  0  0  0  0
   30.2104  -20.4830   -9.9860 C   0  0  0  0  0  0  0  0  0  0  0  0
   27.7969  -20.6250  -10.6707 C   0  0  0  0  0  0  0  0  0  0  0  0
   26.7632  -20.8600  -11.7210 C   0  0  2  0  0  0  0  0  0  0  0  0
   27.1681  -20.0003  -12.8499 N   0  0  0  0  0  0  0  0  0  0  0  0
   25.4267  -20.4375  -11.2378 C   0  0  0  0  0  0  0  0  0  0  0  0
   25.3183  -19.3151  -10.6337 O   0  0  0  0  0  0  0  0  0  0  0  0
   24.2196  -21.1547  -11.3770 N   0  0  0  0  0  0  0  0  0  0  0  0
   22.9488  -20.4683  -11.4722 C   0  0  1  0  0  0  0  0  0  0  0  0
   22.9414  -19.3899  -12.4927 C   0  0  0  0  0  0  0  0  0  0  0  0
   22.1749  -19.6510  -13.7195 C   0  0  0  0  0  0  0  0  0  0  0  0
   20.7986  -19.9288  -13.6712 C   0  0  0  0  0  0  0  0  0  0  0  0
   20.3200  -20.0913  -14.9174 N   0  0  0  0  0  0  0  0  0  0  0  0
   21.3248  -19.9334  -15.7950 C   0  0  0  0  0  0  0  0  0  0  0  0
   21.3586  -20.0077  -17.1658 C   0  0  0  0  0  0  0  0  0  0  0  0
   22.5730  -19.8043  -17.7790 C   0  0  0  0  0  0  0  0  0  0  0  0
   23.7089  -19.5385  -17.0686 C   0  0  0  0  0  0  0  0  0  0  0  0
   23.6820  -19.4623  -15.6953 C   0  0  0  0  0  0  0  0  0  0  0  0
   22.4595  -19.6644  -15.0568 C   0  0  0  0  0  0  0  0  0  0  0  0
   21.8613  -21.4155  -11.6691 C   0  0  0  0  0  0  0  0  0  0  0  0
   21.9563  -22.5778  -12.4259 O   0  0  0  0  0  0  0  0  0  0  0  0
   20.7431  -21.2021  -11.1398 O   0  0  0  0  0  0  0  0  0  0  0  0
  2  1  1  6
  3  2  1  0
  4  2  1  0
  5  6  1  1
  5  4  1  0
  7  5  1  0
  8  7  2  0
 10  9  1  1
 10 12  1  0
 11 10  1  0
 13 12  1  1
 13 15  1  0
 13 14  1  0
 14  7  1  0
 15 17  1  0
 16 15  2  0
 17 18  1  0
 18 19  1  6
 18 29  1  0
 19 20  1  0
 20 21  2  0
 22 21  1  0
 23 22  1  0
 24 23  2  0
 25 24  1  0
 26 27  1  0
 26 25  2  0
 27 28  2  0
 28 23  1  0
 28 20  1  0
 29 31  2  0
 29 30  1  0
M  END
$$$$
