LLW.pdb
     RDKit          3D

 31 32  0  0  1  0  0  0  0  0999 V2000
   18.2233  -23.6894  -14.4865 C   0  0  0  0  0  0  0  0  0  0  0  0
   19.7157  -23.5548  -14.6322 C   0  0  1  0  0  0  0  0  0  0  0  0
   20.0604  -23.6814  -16.1141 C   0  0  0  0  0  0  0  0  0  0  0  0
   20.2679  -22.2939  -14.0483 C   0  0  0  0  0  0  0  0  0  0  0  0
   21.7157  -22.0564  -14.2795 C   0  0  2  0  0  0  0  0  0  0  0  0
   22.5499  -23.1667  -13.8802 N   0  0  0  0  0  0  0  0  0  0  0  0
   22.2644  -20.7944  -13.7586 C   0  0  0  0  0  0  0  0  0  0  0  0
   21.5751  -19.7087  -13.7890 O   0  0  0  0  0  0  0  0  0  0  0  0
   25.2673  -21.0054   -9.4781 C   0  0  0  0  0  0  0  0  0  0  0  0
   24.5902  -21.0656  -10.8683 C   0  0  2  0  0  0  0  0  0  0  0  0
   25.2203  -22.2289  -11.5659 C   0  0  0  0  0  0  0  0  0  0  0  0
   24.8240  -19.7484  -11.5015 C   0  0  0  0  0  0  0  0  0  0  0  0
   24.1209  -19.4607  -12.7860 C   0  0  2  0  0  0  0  0  0  0  0  0
   23.5695  -20.7603  -13.2153 N   0  0  0  0  0  0  0  0  0  0  0  0
   25.0812  -18.9746  -13.8058 C   0  0  0  0  0  0  0  0  0  0  0  0
   25.5819  -17.8053  -13.6703 O   0  0  0  0  0  0  0  0  0  0  0  0
   25.5235  -19.6806  -14.9445 N   0  0  0  0  0  0  0  0  0  0  0  0
   26.2675  -19.0165  -15.9936 C   0  0  1  0  0  0  0  0  0  0  0  0
   27.7011  -18.8211  -15.6603 C   0  0  0  0  0  0  0  0  0  0  0  0
   28.3388  -19.8744  -14.8574 C   0  0  0  0  0  0  0  0  0  0  0  0
   28.7157  -21.0992  -15.4330 C   0  0  0  0  0  0  0  0  0  0  0  0
   29.3106  -21.8755  -14.5101 N   0  0  0  0  0  0  0  0  0  0  0  0
   29.3441  -21.2155  -13.3405 C   0  0  0  0  0  0  0  0  0  0  0  0
   29.8301  -21.5708  -12.1063 C   0  0  0  0  0  0  0  0  0  0  0  0
   29.6977  -20.6551  -11.0884 C   0  0  0  0  0  0  0  0  0  0  0  0
   29.1091  -19.4376  -11.2800 C   0  0  0  0  0  0  0  0  0  0  0  0
   28.6204  -19.0752  -12.5137 C   0  0  0  0  0  0  0  0  0  0  0  0
   28.7471  -19.9902  -13.5576 C   0  0  0  0  0  0  0  0  0  0  0  0
   26.0898  -19.6988  -17.2670 C   0  0  0  0  0  0  0  0  0  0  0  0
   26.5729  -19.2328  -18.4844 O   0  0  0  0  0  0  0  0  0  0  0  0
   25.4585  -20.7830  -17.3124 O   0  0  0  0  0  0  0  0  0  0  0  0
  2  1  1  6
  3  2  1  0
  4  2  1  0
  5  6  1  1
  5  4  1  0
  7  5  1  0
  8  7  2  0
 10  9  1  1
 10 12  1  0
 11 10  1  0
 13 12  1  1
 13 15  1  0
 13 14  1  0
 14  7  1  0
 15 17  1  0
 16 15  2  0
 17 18  1  0
 18 19  1  1
 18 29  1  0
 19 20  1  0
 20 21  2  0
 22 21  1  0
 23 22  1  0
 24 23  2  0
 25 24  1  0
 26 27  1  0
 26 25  2  0
 27 28  2  0
 28 23  1  0
 28 20  1  0
 29 31  2  0
 29 30  1  0
M  END
$$$$
