LLW.pdb
     RDKit          3D

 31 32  0  0  1  0  0  0  0  0999 V2000
   19.4483  -20.4730  -17.6370 C   0  0  0  0  0  0  0  0  0  0  0  0
   20.3035  -19.7776  -16.6115 C   0  0  1  0  0  0  0  0  0  0  0  0
   19.3866  -19.2422  -15.5145 C   0  0  0  0  0  0  0  0  0  0  0  0
   21.3877  -20.6380  -16.0460 C   0  0  0  0  0  0  0  0  0  0  0  0
   22.2416  -20.0018  -15.0106 C   0  0  2  0  0  0  0  0  0  0  0  0
   22.5642  -18.6235  -15.3010 N   0  0  0  0  0  0  0  0  0  0  0  0
   23.4546  -20.7369  -14.6189 C   0  0  0  0  0  0  0  0  0  0  0  0
   23.4157  -21.9994  -14.3757 O   0  0  0  0  0  0  0  0  0  0  0  0
   29.3493  -19.2185  -14.2093 C   0  0  0  0  0  0  0  0  0  0  0  0
   28.3892  -20.4209  -14.0445 C   0  0  2  0  0  0  0  0  0  0  0  0
   28.8948  -21.4642  -14.9894 C   0  0  0  0  0  0  0  0  0  0  0  0
   27.0308  -19.9108  -14.3363 C   0  0  0  0  0  0  0  0  0  0  0  0
   25.8762  -20.8180  -14.0703 C   0  0  2  0  0  0  0  0  0  0  0  0
   24.6886  -20.0561  -14.5023 N   0  0  0  0  0  0  0  0  0  0  0  0
   25.7698  -21.1115  -12.6209 C   0  0  0  0  0  0  0  0  0  0  0  0
   25.7123  -22.3325  -12.2438 O   0  0  0  0  0  0  0  0  0  0  0  0
   25.7276  -20.1655  -11.5749 N   0  0  0  0  0  0  0  0  0  0  0  0
   25.5947  -20.5820  -10.1951 C   0  0  1  0  0  0  0  0  0  0  0  0
   26.8047  -20.3035   -9.3809 C   0  0  0  0  0  0  0  0  0  0  0  0
   26.6514  -20.3978   -7.9220 C   0  0  0  0  0  0  0  0  0  0  0  0
   25.6151  -21.1527   -7.3475 C   0  0  0  0  0  0  0  0  0  0  0  0
   25.7104  -21.1157   -6.0067 N   0  0  0  0  0  0  0  0  0  0  0  0
   26.7702  -20.3643   -5.6649 C   0  0  0  0  0  0  0  0  0  0  0  0
   27.2831  -20.0142   -4.4400 C   0  0  0  0  0  0  0  0  0  0  0  0
   28.3951  -19.2046   -4.4296 C   0  0  0  0  0  0  0  0  0  0  0  0
   28.9779  -18.7577   -5.5812 C   0  0  0  0  0  0  0  0  0  0  0  0
   28.4695  -19.1048   -6.8114 C   0  0  0  0  0  0  0  0  0  0  0  0
   27.3435  -19.9260   -6.8413 C   0  0  0  0  0  0  0  0  0  0  0  0
   24.3920  -20.0208   -9.5976 C   0  0  0  0  0  0  0  0  0  0  0  0
   23.8787  -20.3946   -8.3609 O   0  0  0  0  0  0  0  0  0  0  0  0
   23.7419  -19.1395  -10.2114 O   0  0  0  0  0  0  0  0  0  0  0  0
  2  1  1  6
  3  2  1  0
  4  2  1  0
  5  6  1  6
  5  4  1  0
  7  5  1  0
  8  7  2  0
 10  9  1  6
 10 12  1  0
 11 10  1  0
 13 12  1  1
 13 15  1  0
 13 14  1  0
 14  7  1  0
 15 17  1  0
 16 15  2  0
 17 18  1  0
 18 19  1  1
 18 29  1  0
 19 20  1  0
 20 21  2  0
 22 21  1  0
 23 22  1  0
 24 23  2  0
 25 24  1  0
 26 27  1  0
 26 25  2  0
 27 28  2  0
 28 23  1  0
 28 20  1  0
 29 31  2  0
 29 30  1  0
M  END
$$$$
