LLW.pdb
     RDKit          3D

 31 32  0  0  1  0  0  0  0  0999 V2000
   31.8286  -25.4257  -19.1119 C   0  0  0  0  0  0  0  0  0  0  0  0
   33.1056  -26.1779  -19.3766 C   0  0  1  0  0  0  0  0  0  0  0  0
   34.2165  -25.5294  -18.5543 C   0  0  0  0  0  0  0  0  0  0  0  0
   33.0095  -27.6450  -19.1046 C   0  0  0  0  0  0  0  0  0  0  0  0
   34.2375  -28.4336  -19.3802 C   0  0  2  0  0  0  0  0  0  0  0  0
   34.7473  -28.2515  -20.7200 N   0  0  0  0  0  0  0  0  0  0  0  0
   34.1861  -29.8655  -19.0455 C   0  0  0  0  0  0  0  0  0  0  0  0
   33.5788  -30.7039  -19.8090 O   0  0  0  0  0  0  0  0  0  0  0  0
   37.1009  -33.3337  -14.9857 C   0  0  0  0  0  0  0  0  0  0  0  0
   35.9942  -33.4031  -16.0650 C   0  0  2  0  0  0  0  0  0  0  0  0
   36.5022  -34.3642  -17.0923 C   0  0  0  0  0  0  0  0  0  0  0  0
   35.7927  -32.0170  -16.5432 C   0  0  0  0  0  0  0  0  0  0  0  0
   34.7232  -31.7803  -17.5566 C   0  0  2  0  0  0  0  0  0  0  0  0
   34.8082  -30.3404  -17.8676 N   0  0  0  0  0  0  0  0  0  0  0  0
   33.3892  -32.0800  -16.9831 C   0  0  0  0  0  0  0  0  0  0  0  0
   32.9064  -31.2870  -16.1031 O   0  0  0  0  0  0  0  0  0  0  0  0
   32.5621  -33.1748  -17.3119 N   0  0  0  0  0  0  0  0  0  0  0  0
   31.2427  -33.3153  -16.7336 C   0  0  1  0  0  0  0  0  0  0  0  0
   30.5529  -32.0168  -16.5277 C   0  0  0  0  0  0  0  0  0  0  0  0
   29.1697  -32.0782  -16.0340 C   0  0  0  0  0  0  0  0  0  0  0  0
   28.8836  -32.4968  -14.7238 C   0  0  0  0  0  0  0  0  0  0  0  0
   27.5593  -32.4293  -14.5001 N   0  0  0  0  0  0  0  0  0  0  0  0
   26.9511  -31.9824  -15.6114 C   0  0  0  0  0  0  0  0  0  0  0  0
   25.6279  -31.7505  -15.8965 C   0  0  0  0  0  0  0  0  0  0  0  0
   25.3247  -31.2964  -17.1590 C   0  0  0  0  0  0  0  0  0  0  0  0
   26.2878  -31.0800  -18.1029 C   0  0  0  0  0  0  0  0  0  0  0  0
   27.6151  -31.3100  -17.8239 C   0  0  0  0  0  0  0  0  0  0  0  0
   27.9412  -31.7692  -16.5489 C   0  0  0  0  0  0  0  0  0  0  0  0
   30.4347  -34.2479  -17.5056 C   0  0  0  0  0  0  0  0  0  0  0  0
   30.7663  -34.7165  -18.7717 O   0  0  0  0  0  0  0  0  0  0  0  0
   29.3543  -34.6786  -17.0329 O   0  0  0  0  0  0  0  0  0  0  0  0
  2  1  1  1
  3  2  1  0
  4  2  1  0
  5  6  1  6
  5  4  1  0
  7  5  1  0
  8  7  2  0
 10  9  1  1
 10 12  1  0
 11 10  1  0
 13 12  1  1
 13 15  1  0
 13 14  1  0
 14  7  1  0
 15 17  1  0
 16 15  2  0
 17 18  1  0
 18 19  1  6
 18 29  1  0
 19 20  1  0
 20 21  2  0
 22 21  1  0
 23 22  1  0
 24 23  2  0
 25 24  1  0
 26 27  1  0
 26 25  2  0
 27 28  2  0
 28 23  1  0
 28 20  1  0
 29 31  2  0
 29 30  1  0
M  END
$$$$
