LLW.pdb
     RDKit          3D

 31 32  0  0  1  0  0  0  0  0999 V2000
   33.5919  -26.6405  -19.5982 C   0  0  0  0  0  0  0  0  0  0  0  0
   33.0674  -27.6500  -20.5843 C   0  0  1  0  0  0  0  0  0  0  0  0
   34.0337  -27.7054  -21.7649 C   0  0  0  0  0  0  0  0  0  0  0  0
   32.8430  -29.0068  -19.9974 C   0  0  0  0  0  0  0  0  0  0  0  0
   32.2795  -30.0238  -20.9216 C   0  0  2  0  0  0  0  0  0  0  0  0
   30.9668  -29.6814  -21.4195 N   0  0  0  0  0  0  0  0  0  0  0  0
   32.2980  -31.4182  -20.4521 C   0  0  0  0  0  0  0  0  0  0  0  0
   31.2052  -32.0738  -20.2771 O   0  0  0  0  0  0  0  0  0  0  0  0
   33.7233  -35.5840  -21.8785 C   0  0  0  0  0  0  0  0  0  0  0  0
   34.7666  -34.4496  -21.7399 C   0  0  2  0  0  0  0  0  0  0  0  0
   36.0514  -35.0294  -22.2401 C   0  0  0  0  0  0  0  0  0  0  0  0
   34.7655  -34.0563  -20.3130 C   0  0  0  0  0  0  0  0  0  0  0  0
   33.5117  -33.4706  -19.7548 C   0  0  2  0  0  0  0  0  0  0  0  0
   33.5298  -32.0587  -20.1832 N   0  0  0  0  0  0  0  0  0  0  0  0
   33.5238  -33.5335  -18.2735 C   0  0  0  0  0  0  0  0  0  0  0  0
   34.3586  -32.8049  -17.6344 O   0  0  0  0  0  0  0  0  0  0  0  0
   32.6884  -34.3292  -17.4614 N   0  0  0  0  0  0  0  0  0  0  0  0
   32.7176  -34.2134  -16.0189 C   0  0  1  0  0  0  0  0  0  0  0  0
   32.3481  -32.8599  -15.5331 C   0  0  0  0  0  0  0  0  0  0  0  0
   30.9386  -32.4701  -15.6822 C   0  0  0  0  0  0  0  0  0  0  0  0
   29.9429  -33.0128  -14.8529 C   0  0  0  0  0  0  0  0  0  0  0  0
   28.7493  -32.4731  -15.1568 N   0  0  0  0  0  0  0  0  0  0  0  0
   28.9107  -31.5917  -16.1576 C   0  0  0  0  0  0  0  0  0  0  0  0
   28.0130  -30.7957  -16.8257 C   0  0  0  0  0  0  0  0  0  0  0  0
   28.5048  -29.9966  -17.8315 C   0  0  0  0  0  0  0  0  0  0  0  0
   29.8291  -29.9834  -18.1655 C   0  0  0  0  0  0  0  0  0  0  0  0
   30.7337  -30.7779  -17.5003 C   0  0  0  0  0  0  0  0  0  0  0  0
   30.2534  -31.5934  -16.4769 C   0  0  0  0  0  0  0  0  0  0  0  0
   31.9133  -35.2559  -15.3985 C   0  0  0  0  0  0  0  0  0  0  0  0
   31.0398  -36.0909  -16.0858 O   0  0  0  0  0  0  0  0  0  0  0  0
   31.9807  -35.4428  -14.1589 O   0  0  0  0  0  0  0  0  0  0  0  0
  2  1  1  1
  3  2  1  0
  4  2  1  0
  5  6  1  1
  5  4  1  0
  7  5  1  0
  8  7  2  0
 10  9  1  1
 10 12  1  0
 11 10  1  0
 13 12  1  6
 13 15  1  0
 13 14  1  0
 14  7  1  0
 15 17  1  0
 16 15  2  0
 17 18  1  0
 18 19  1  6
 18 29  1  0
 19 20  1  0
 20 21  2  0
 22 21  1  0
 23 22  1  0
 24 23  2  0
 25 24  1  0
 26 27  1  0
 26 25  2  0
 27 28  2  0
 28 23  1  0
 28 20  1  0
 29 31  2  0
 29 30  1  0
M  END
$$$$
