LLW.pdb
     RDKit          3D

 31 32  0  0  1  0  0  0  0  0999 V2000
   29.2528  -17.9844  -17.7881 C   0  0  0  0  0  0  0  0  0  0  0  0
   28.0823  -17.6115  -16.9180 C   0  0  1  0  0  0  0  0  0  0  0  0
   27.0709  -16.8606  -17.7806 C   0  0  0  0  0  0  0  0  0  0  0  0
   27.4509  -18.7759  -16.2240 C   0  0  0  0  0  0  0  0  0  0  0  0
   26.2572  -18.4637  -15.3973 C   0  0  2  0  0  0  0  0  0  0  0  0
   26.4880  -17.4159  -14.4293 N   0  0  0  0  0  0  0  0  0  0  0  0
   25.5843  -19.6065  -14.7597 C   0  0  0  0  0  0  0  0  0  0  0  0
   25.4313  -20.7198  -15.3856 O   0  0  0  0  0  0  0  0  0  0  0  0
   26.8266  -21.8353  -11.5087 C   0  0  0  0  0  0  0  0  0  0  0  0
   26.1880  -20.5173  -11.0090 C   0  0  2  0  0  0  0  0  0  0  0  0
   26.4627  -20.4759   -9.5394 C   0  0  0  0  0  0  0  0  0  0  0  0
   24.7570  -20.5817  -11.3815 C   0  0  0  0  0  0  0  0  0  0  0  0
   24.4198  -20.6572  -12.8332 C   0  0  2  0  0  0  0  0  0  0  0  0
   25.0915  -19.4915  -13.4392 N   0  0  0  0  0  0  0  0  0  0  0  0
   22.9555  -20.5377  -13.0329 C   0  0  0  0  0  0  0  0  0  0  0  0
   22.3022  -19.7099  -12.3090 O   0  0  0  0  0  0  0  0  0  0  0  0
   22.1753  -21.2543  -13.9650 N   0  0  0  0  0  0  0  0  0  0  0  0
   20.7453  -21.0506  -14.0564 C   0  0  1  0  0  0  0  0  0  0  0  0
   20.3121  -20.5269  -15.3765 C   0  0  0  0  0  0  0  0  0  0  0  0
   20.7828  -19.1818  -15.7367 C   0  0  0  0  0  0  0  0  0  0  0  0
   20.3001  -18.0411  -15.0736 C   0  0  0  0  0  0  0  0  0  0  0  0
   20.9077  -16.9413  -15.5526 N   0  0  0  0  0  0  0  0  0  0  0  0
   21.7766  -17.3046  -16.5105 C   0  0  0  0  0  0  0  0  0  0  0  0
   22.6223  -16.5672  -17.3023 C   0  0  0  0  0  0  0  0  0  0  0  0
   23.3898  -17.2525  -18.2152 C   0  0  0  0  0  0  0  0  0  0  0  0
   23.3257  -18.6108  -18.3425 C   0  0  0  0  0  0  0  0  0  0  0  0
   22.4810  -19.3556  -17.5524 C   0  0  0  0  0  0  0  0  0  0  0  0
   21.6965  -18.6780  -16.6205 C   0  0  0  0  0  0  0  0  0  0  0  0
   20.0244  -22.2589  -13.6837 C   0  0  0  0  0  0  0  0  0  0  0  0
   18.6462  -22.3344  -13.5179 O   0  0  0  0  0  0  0  0  0  0  0  0
   20.6546  -23.3263  -13.4845 O   0  0  0  0  0  0  0  0  0  0  0  0
  2  1  1  6
  3  2  1  0
  4  2  1  0
  5  6  1  1
  5  4  1  0
  7  5  1  0
  8  7  2  0
 10  9  1  1
 10 12  1  0
 11 10  1  0
 13 12  1  1
 13 15  1  0
 13 14  1  0
 14  7  1  0
 15 17  1  0
 16 15  2  0
 17 18  1  0
 18 19  1  6
 18 29  1  0
 19 20  1  0
 20 21  2  0
 22 21  1  0
 23 22  1  0
 24 23  2  0
 25 24  1  0
 26 27  1  0
 26 25  2  0
 27 28  2  0
 28 23  1  0
 28 20  1  0
 29 31  2  0
 29 30  1  0
M  END
$$$$
