VRG.pdb
     RDKit          3D

 23 22  0  0  1  0  0  0  0  0999 V2000
   21.3900   -9.4958    7.6668 C   0  0  0  0  0  0  0  0  0  0  0  0
   20.8998  -10.9069    7.7005 C   0  0  2  0  0  0  0  0  0  0  0  0
   21.6594  -11.6817    6.6298 C   0  0  0  0  0  0  0  0  0  0  0  0
   19.4203  -11.0247    7.4202 C   0  0  2  0  0  0  0  0  0  0  0  0
   18.7153  -10.3868    8.5161 N   0  0  0  0  0  0  0  0  0  0  0  0
   19.0701  -12.4851    7.3598 C   0  0  0  0  0  0  0  0  0  0  0  0
   18.9418  -13.1881    8.3902 O   0  0  0  0  0  0  0  0  0  0  0  0
   16.3313  -18.7797    2.3436 N   0  0  0  0  0  0  0  0  0  0  0  0
   15.2058  -18.2427    3.0226 C   0  0  0  0  0  0  0  0  0  0  0  0
   14.2191  -19.0503    3.2655 N   0  0  0  0  0  0  0  0  0  0  0  0
   15.1486  -16.8801    3.4253 N   0  0  0  0  0  0  0  0  0  0  0  0
   16.3745  -16.1290    3.4117 C   0  0  0  0  0  0  0  0  0  0  0  0
   16.8224  -15.7192    4.7896 C   0  0  0  0  0  0  0  0  0  0  0  0
   18.1267  -14.9326    4.6796 C   0  0  0  0  0  0  0  0  0  0  0  0
   18.6421  -14.5334    6.0455 C   0  0  2  0  0  0  0  0  0  0  0  0
   18.8709  -13.1215    6.1057 N   0  0  0  0  0  0  0  0  0  0  0  0
   19.9000  -15.3138    6.3112 C   0  0  0  0  0  0  0  0  0  0  0  0
   20.9552  -15.0922    5.6642 O   0  0  0  0  0  0  0  0  0  0  0  0
   13.3814  -18.7642    3.8060 N   0  0  0  0  0  0  0  0  0  0  0  0
   19.9469  -16.3291    7.3002 C   0  0  0  0  0  0  0  0  0  0  0  0
   21.1244  -17.1370    7.5452 C   0  0  0  0  0  0  0  0  0  0  0  0
   20.9477  -18.0841    8.6458 O   0  0  0  0  0  0  0  0  0  0  0  0
   21.9126  -18.9873    9.0639 O   0  0  0  0  0  0  0  0  0  0  0  0
  2  1  1  6
  2  4  1  0
  3  2  1  0
  4  6  1  0
  4  5  1  1
  6 16  1  0
  6  7  2  0
  9  8  1  0
 10  9  2  0
 11  9  1  0
 12 11  1  0
 13 12  1  0
 14 13  1  0
 15 14  1  6
 16 15  1  0
 17 15  1  0
 18 17  2  0
 19 17  1  0
 20 19  1  0
 21 22  1  0
 21 20  1  0
 23 21  2  0
M  END
$$$$
