VRG.pdb
     RDKit          3D

 23 22  0  0  1  0  0  0  0  0999 V2000
   19.9804  -18.9342  -14.8895 C   0  0  0  0  0  0  0  0  0  0  0  0
   20.8919  -17.7735  -15.1233 C   0  0  2  0  0  0  0  0  0  0  0  0
   20.0200  -16.5409  -15.3329 C   0  0  0  0  0  0  0  0  0  0  0  0
   21.7736  -17.9504  -16.3369 C   0  0  2  0  0  0  0  0  0  0  0  0
   22.1575  -19.3482  -16.3986 N   0  0  0  0  0  0  0  0  0  0  0  0
   22.9909  -17.0866  -16.1611 C   0  0  0  0  0  0  0  0  0  0  0  0
   22.9145  -15.8507  -15.9635 O   0  0  0  0  0  0  0  0  0  0  0  0
   26.9814  -21.3919  -13.5279 N   0  0  0  0  0  0  0  0  0  0  0  0
   26.5637  -20.8483  -12.2845 C   0  0  0  0  0  0  0  0  0  0  0  0
   26.1509  -21.6838  -11.3810 N   0  0  0  0  0  0  0  0  0  0  0  0
   26.5912  -19.4503  -12.0265 N   0  0  0  0  0  0  0  0  0  0  0  0
   27.1222  -18.5934  -13.0517 C   0  0  0  0  0  0  0  0  0  0  0  0
   26.0522  -17.8268  -13.7827 C   0  0  0  0  0  0  0  0  0  0  0  0
   26.4984  -17.5941  -15.2246 C   0  0  0  0  0  0  0  0  0  0  0  0
   25.4451  -16.8419  -16.0090 C   0  0  2  0  0  0  0  0  0  0  0  0
   24.2890  -17.6606  -16.2153 N   0  0  0  0  0  0  0  0  0  0  0  0
   26.0603  -16.4076  -17.3108 C   0  0  0  0  0  0  0  0  0  0  0  0
   26.1843  -17.2071  -18.2735 O   0  0  0  0  0  0  0  0  0  0  0  0
   25.8805  -21.3861  -10.4249 N   0  0  0  0  0  0  0  0  0  0  0  0
   26.5246  -15.0818  -17.5051 C   0  0  0  0  0  0  0  0  0  0  0  0
   27.0518  -14.6086  -18.7689 C   0  0  0  0  0  0  0  0  0  0  0  0
   28.3803  -15.1423  -19.0687 O   0  0  0  0  0  0  0  0  0  0  0  0
   29.1378  -14.7826  -20.1725 O   0  0  0  0  0  0  0  0  0  0  0  0
  2  1  1  6
  2  4  1  0
  3  2  1  0
  4  6  1  0
  4  5  1  1
  6 16  1  0
  6  7  2  0
  9  8  1  0
 10  9  2  0
 11  9  1  0
 12 11  1  0
 13 12  1  0
 14 13  1  0
 15 14  1  1
 16 15  1  0
 17 15  1  0
 18 17  2  0
 19 17  1  0
 20 19  1  0
 21 22  1  0
 21 20  1  0
 23 21  2  0
M  END
$$$$
