VRG.pdb
     RDKit          3D

 23 22  0  0  1  0  0  0  0  0999 V2000
   23.0998  -19.5200   -9.5632 C   0  0  0  0  0  0  0  0  0  0  0  0
   23.9515  -20.7318   -9.3666 C   0  0  2  0  0  0  0  0  0  0  0  0
   24.0557  -20.9803   -7.8663 C   0  0  0  0  0  0  0  0  0  0  0  0
   25.3457  -20.5703   -9.9248 C   0  0  2  0  0  0  0  0  0  0  0  0
   26.0067  -19.5316   -9.1571 N   0  0  0  0  0  0  0  0  0  0  0  0
   25.2283  -20.1546  -11.3644 C   0  0  0  0  0  0  0  0  0  0  0  0
   25.1565  -18.9521  -11.7124 O   0  0  0  0  0  0  0  0  0  0  0  0
   28.4814  -24.3183  -16.8400 N   0  0  0  0  0  0  0  0  0  0  0  0
   27.8533  -23.2032  -17.4548 C   0  0  0  0  0  0  0  0  0  0  0  0
   27.3766  -23.3756  -18.6497 N   0  0  0  0  0  0  0  0  0  0  0  0
   27.7440  -21.9453  -16.8009 N   0  0  0  0  0  0  0  0  0  0  0  0
   28.2456  -21.8467  -15.4570 C   0  0  0  0  0  0  0  0  0  0  0  0
   27.3634  -21.0140  -14.5651 C   0  0  0  0  0  0  0  0  0  0  0  0
   25.9260  -21.5196  -14.6685 C   0  0  0  0  0  0  0  0  0  0  0  0
   25.0048  -20.7409  -13.7545 C   0  0  2  0  0  0  0  0  0  0  0  0
   25.1948  -21.1352  -12.3915 N   0  0  0  0  0  0  0  0  0  0  0  0
   23.5916  -20.9776  -14.2115 C   0  0  0  0  0  0  0  0  0  0  0  0
   22.9839  -22.0421  -13.9307 O   0  0  0  0  0  0  0  0  0  0  0  0
   26.9172  -22.6150  -19.1844 N   0  0  0  0  0  0  0  0  0  0  0  0
   22.8886  -20.0120  -14.9760 C   0  0  0  0  0  0  0  0  0  0  0  0
   21.5234  -20.2018  -15.4223 C   0  0  0  0  0  0  0  0  0  0  0  0
   20.5350  -19.7412  -14.4472 O   0  0  0  0  0  0  0  0  0  0  0  0
   19.1659  -19.7335  -14.6641 O   0  0  0  0  0  0  0  0  0  0  0  0
  2  1  1  1
  2  4  1  0
  3  2  1  0
  4  6  1  0
  4  5  1  1
  6 16  1  0
  6  7  2  0
  9  8  1  0
 10  9  2  0
 11  9  1  0
 12 11  1  0
 13 12  1  0
 14 13  1  0
 15 14  1  6
 16 15  1  0
 17 15  1  0
 18 17  2  0
 19 17  1  0
 20 19  1  0
 21 22  1  0
 21 20  1  0
 23 21  2  0
M  END
$$$$
