VRG.pdb
     RDKit          3D

 23 22  0  0  1  0  0  0  0  0999 V2000
   22.1257  -16.5127  -18.5827 C   0  0  0  0  0  0  0  0  0  0  0  0
   20.7416  -15.9707  -18.7348 C   0  0  2  0  0  0  0  0  0  0  0  0
   20.8647  -14.5114  -19.1577 C   0  0  0  0  0  0  0  0  0  0  0  0
   19.9389  -16.0346  -17.4569 C   0  0  2  0  0  0  0  0  0  0  0  0
   20.6282  -15.2288  -16.4666 N   0  0  0  0  0  0  0  0  0  0  0  0
   19.8838  -17.4686  -17.0099 C   0  0  0  0  0  0  0  0  0  0  0  0
   19.2847  -18.3538  -17.6655 O   0  0  0  0  0  0  0  0  0  0  0  0
   25.5526  -22.4131  -12.4192 N   0  0  0  0  0  0  0  0  0  0  0  0
   24.7373  -23.2780  -13.1959 C   0  0  0  0  0  0  0  0  0  0  0  0
   25.1761  -24.4825  -13.3991 N   0  0  0  0  0  0  0  0  0  0  0  0
   23.4908  -22.8557  -13.7345 N   0  0  0  0  0  0  0  0  0  0  0  0
   23.3588  -21.4727  -14.1047 C   0  0  0  0  0  0  0  0  0  0  0  0
   21.9861  -21.1369  -14.6244 C   0  0  0  0  0  0  0  0  0  0  0  0
   21.9071  -19.6366  -14.8987 C   0  0  0  0  0  0  0  0  0  0  0  0
   20.5431  -19.2478  -15.4270 C   0  0  2  0  0  0  0  0  0  0  0  0
   20.5234  -17.8675  -15.8060 N   0  0  0  0  0  0  0  0  0  0  0  0
   19.5302  -19.5464  -14.3561 C   0  0  0  0  0  0  0  0  0  0  0  0
   19.4775  -18.8670  -13.2992 O   0  0  0  0  0  0  0  0  0  0  0  0
   24.6517  -25.1830  -13.9559 N   0  0  0  0  0  0  0  0  0  0  0  0
   18.5956  -20.6039  -14.4944 C   0  0  0  0  0  0  0  0  0  0  0  0
   17.5109  -20.8245  -13.5596 C   0  0  0  0  0  0  0  0  0  0  0  0
   17.7527  -21.9530  -12.6609 O   0  0  0  0  0  0  0  0  0  0  0  0
   16.8707  -22.3738  -11.6778 O   0  0  0  0  0  0  0  0  0  0  0  0
  2  1  1  1
  2  4  1  0
  3  2  1  0
  4  6  1  0
  4  5  1  1
  6 16  1  0
  6  7  2  0
  9  8  1  0
 10  9  2  0
 11  9  1  0
 12 11  1  0
 13 12  1  0
 14 13  1  0
 15 14  1  1
 16 15  1  0
 17 15  1  0
 18 17  2  0
 19 17  1  0
 20 19  1  0
 21 22  1  0
 21 20  1  0
 23 21  2  0
M  END
$$$$
