VRG.pdb
     RDKit          3D

 23 22  0  0  1  0  0  0  0  0999 V2000
   24.8175  -16.9535  -15.5406 C   0  0  0  0  0  0  0  0  0  0  0  0
   26.0896  -16.5224  -14.8860 C   0  0  2  0  0  0  0  0  0  0  0  0
   26.4718  -15.1689  -15.4739 C   0  0  0  0  0  0  0  0  0  0  0  0
   27.2291  -17.4862  -15.1184 C   0  0  2  0  0  0  0  0  0  0  0  0
   27.3780  -17.6500  -16.5523 N   0  0  0  0  0  0  0  0  0  0  0  0
   26.8686  -18.7994  -14.4821 C   0  0  0  0  0  0  0  0  0  0  0  0
   26.2563  -19.7006  -15.1026 O   0  0  0  0  0  0  0  0  0  0  0  0
   31.8717  -21.9558   -8.7079 N   0  0  0  0  0  0  0  0  0  0  0  0
   31.8448  -22.7243   -9.9016 C   0  0  0  0  0  0  0  0  0  0  0  0
   32.8615  -23.4977  -10.1317 N   0  0  0  0  0  0  0  0  0  0  0  0
   30.7569  -22.6592  -10.8149 N   0  0  0  0  0  0  0  0  0  0  0  0
   29.7361  -21.6776  -10.5669 C   0  0  0  0  0  0  0  0  0  0  0  0
   28.6847  -21.6449  -11.6443 C   0  0  0  0  0  0  0  0  0  0  0  0
   27.6430  -20.5838  -11.2962 C   0  0  0  0  0  0  0  0  0  0  0  0
   26.7721  -20.2592  -12.4907 C   0  0  2  0  0  0  0  0  0  0  0  0
   27.2202  -19.0596  -13.1307 N   0  0  0  0  0  0  0  0  0  0  0  0
   25.3528  -20.1370  -12.0085 C   0  0  0  0  0  0  0  0  0  0  0  0
   25.0333  -19.3039  -11.1223 O   0  0  0  0  0  0  0  0  0  0  0  0
   32.9338  -24.0899  -10.9801 N   0  0  0  0  0  0  0  0  0  0  0  0
   24.3193  -20.9546  -12.5324 C   0  0  0  0  0  0  0  0  0  0  0  0
   22.9274  -20.8004  -12.1610 C   0  0  0  0  0  0  0  0  0  0  0  0
   22.0245  -21.6036  -12.9853 O   0  0  0  0  0  0  0  0  0  0  0  0
   20.6941  -21.8461  -12.6810 O   0  0  0  0  0  0  0  0  0  0  0  0
  2  1  1  6
  2  4  1  0
  3  2  1  0
  4  6  1  0
  4  5  1  6
  6 16  1  0
  6  7  2  0
  9  8  1  0
 10  9  2  0
 11  9  1  0
 12 11  1  0
 13 12  1  0
 14 13  1  0
 15 14  1  1
 16 15  1  0
 17 15  1  0
 18 17  2  0
 19 17  1  0
 20 19  1  0
 21 22  1  0
 21 20  1  0
 23 21  2  0
M  END
$$$$
