VRG.pdb
     RDKit          3D

 23 22  0  0  1  0  0  0  0  0999 V2000
   27.0737  -17.0827  -17.6016 C   0  0  0  0  0  0  0  0  0  0  0  0
   26.4077  -17.3142  -16.2842 C   0  0  2  0  0  0  0  0  0  0  0  0
   27.4444  -17.9233  -15.3473 C   0  0  0  0  0  0  0  0  0  0  0  0
   25.2303  -18.2558  -16.3754 C   0  0  2  0  0  0  0  0  0  0  0  0
   24.3116  -17.7136  -17.3587 N   0  0  0  0  0  0  0  0  0  0  0  0
   24.5703  -18.3121  -15.0262 C   0  0  0  0  0  0  0  0  0  0  0  0
   24.0197  -17.3130  -14.5057 O   0  0  0  0  0  0  0  0  0  0  0  0
   20.0114  -20.6070  -16.6096 N   0  0  0  0  0  0  0  0  0  0  0  0
   20.3557  -21.8223  -15.9612 C   0  0  0  0  0  0  0  0  0  0  0  0
   20.4799  -22.8775  -16.7067 N   0  0  0  0  0  0  0  0  0  0  0  0
   20.5586  -21.8948  -14.5556 N   0  0  0  0  0  0  0  0  0  0  0  0
   20.3900  -20.6866  -13.7946 C   0  0  0  0  0  0  0  0  0  0  0  0
   21.6058  -19.7992  -13.8328 C   0  0  0  0  0  0  0  0  0  0  0  0
   22.7155  -20.4329  -12.9966 C   0  0  0  0  0  0  0  0  0  0  0  0
   23.9567  -19.5669  -12.9878 C   0  0  2  0  0  0  0  0  0  0  0  0
   24.5526  -19.5260  -14.2888 N   0  0  0  0  0  0  0  0  0  0  0  0
   24.9018  -20.1239  -11.9590 C   0  0  0  0  0  0  0  0  0  0  0  0
   25.4811  -21.2264  -12.1330 O   0  0  0  0  0  0  0  0  0  0  0  0
   20.6556  -23.8219  -16.3156 N   0  0  0  0  0  0  0  0  0  0  0  0
   25.1775  -19.4299  -10.7534 C   0  0  0  0  0  0  0  0  0  0  0  0
   26.0488  -19.9562   -9.7224 C   0  0  0  0  0  0  0  0  0  0  0  0
   25.3549  -20.8388   -8.7847 O   0  0  0  0  0  0  0  0  0  0  0  0
   25.9441  -21.4155   -7.6703 O   0  0  0  0  0  0  0  0  0  0  0  0
  2  1  1  6
  2  4  1  0
  3  2  1  0
  4  6  1  0
  4  5  1  6
  6 16  1  0
  6  7  2  0
  9  8  1  0
 10  9  2  0
 11  9  1  0
 12 11  1  0
 13 12  1  0
 14 13  1  0
 15 14  1  6
 16 15  1  0
 17 15  1  0
 18 17  2  0
 19 17  1  0
 20 19  1  0
 21 22  1  0
 21 20  1  0
 23 21  2  0
M  END
$$$$
