VRG.pdb
     RDKit          3D

 23 22  0  0  1  0  0  0  0  0999 V2000
   20.2435  -20.4442  -17.6787 C   0  0  0  0  0  0  0  0  0  0  0  0
   21.0896  -20.1378  -16.4858 C   0  0  2  0  0  0  0  0  0  0  0  0
   22.4872  -20.6792  -16.7639 C   0  0  0  0  0  0  0  0  0  0  0  0
   20.5723  -20.7723  -15.2165 C   0  0  2  0  0  0  0  0  0  0  0  0
   19.2270  -20.2757  -14.9960 N   0  0  0  0  0  0  0  0  0  0  0  0
   21.4698  -20.3552  -14.0852 C   0  0  0  0  0  0  0  0  0  0  0  0
   21.6507  -19.1526  -13.7798 O   0  0  0  0  0  0  0  0  0  0  0  0
   19.7457  -23.2377   -7.0223 N   0  0  0  0  0  0  0  0  0  0  0  0
   18.8640  -22.7932   -8.0427 C   0  0  0  0  0  0  0  0  0  0  0  0
   17.5972  -23.0172   -7.8706 N   0  0  0  0  0  0  0  0  0  0  0  0
   19.3352  -22.1297   -9.2088 N   0  0  0  0  0  0  0  0  0  0  0  0
   20.7557  -22.0966   -9.4289 C   0  0  0  0  0  0  0  0  0  0  0  0
   21.1324  -21.3773  -10.6969 C   0  0  0  0  0  0  0  0  0  0  0  0
   22.6275  -21.5582  -10.9506 C   0  0  0  0  0  0  0  0  0  0  0  0
   23.0391  -20.9328  -12.2659 C   0  0  2  0  0  0  0  0  0  0  0  0
   22.1520  -21.3347  -13.3152 N   0  0  0  0  0  0  0  0  0  0  0  0
   24.4584  -21.3423  -12.5485 C   0  0  0  0  0  0  0  0  0  0  0  0
   24.7593  -22.5419  -12.7755 O   0  0  0  0  0  0  0  0  0  0  0  0
   16.8761  -22.7032   -8.5467 N   0  0  0  0  0  0  0  0  0  0  0  0
   25.5127  -20.3941  -12.5702 C   0  0  0  0  0  0  0  0  0  0  0  0
   26.8883  -20.7512  -12.8515 C   0  0  0  0  0  0  0  0  0  0  0  0
   27.1799  -20.8147  -14.2835 O   0  0  0  0  0  0  0  0  0  0  0  0
   28.4243  -21.1130  -14.8166 O   0  0  0  0  0  0  0  0  0  0  0  0
  2  1  1  6
  2  4  1  0
  3  2  1  0
  4  6  1  0
  4  5  1  1
  6 16  1  0
  6  7  2  0
  9  8  1  0
 10  9  2  0
 11  9  1  0
 12 11  1  0
 13 12  1  0
 14 13  1  0
 15 14  1  1
 16 15  1  0
 17 15  1  0
 18 17  2  0
 19 17  1  0
 20 19  1  0
 21 22  1  0
 21 20  1  0
 23 21  2  0
M  END
$$$$
