VRG.pdb
     RDKit          3D

 23 22  0  0  1  0  0  0  0  0999 V2000
   22.3743  -20.9600  -20.0110 C   0  0  0  0  0  0  0  0  0  0  0  0
   21.0591  -20.2514  -19.9860 C   0  0  2  0  0  0  0  0  0  0  0  0
   21.1950  -19.0023  -20.8489 C   0  0  0  0  0  0  0  0  0  0  0  0
   20.6407  -19.8324  -18.5965 C   0  0  2  0  0  0  0  0  0  0  0  0
   21.5847  -18.8301  -18.1390 N   0  0  0  0  0  0  0  0  0  0  0  0
   20.6976  -21.0417  -17.7057 C   0  0  0  0  0  0  0  0  0  0  0  0
   19.9721  -22.0474  -17.8916 O   0  0  0  0  0  0  0  0  0  0  0  0
   25.2186  -26.5694  -16.4852 N   0  0  0  0  0  0  0  0  0  0  0  0
   25.8194  -25.3621  -16.0409 C   0  0  0  0  0  0  0  0  0  0  0  0
   27.0651  -25.1707  -16.3509 N   0  0  0  0  0  0  0  0  0  0  0  0
   25.0987  -24.3950  -15.2876 N   0  0  0  0  0  0  0  0  0  0  0  0
   23.7409  -24.7047  -14.9306 C   0  0  0  0  0  0  0  0  0  0  0  0
   23.0617  -23.5819  -14.1924 C   0  0  0  0  0  0  0  0  0  0  0  0
   22.9973  -22.3534  -15.0974 C   0  0  0  0  0  0  0  0  0  0  0  0
   21.6386  -22.2264  -15.7520 C   0  0  2  0  0  0  0  0  0  0  0  0
   21.5950  -21.0777  -16.6052 N   0  0  0  0  0  0  0  0  0  0  0  0
   20.6054  -22.1506  -14.6617 C   0  0  0  0  0  0  0  0  0  0  0  0
   20.5680  -21.1795  -13.8636 O   0  0  0  0  0  0  0  0  0  0  0  0
   27.5907  -24.3248  -16.0611 N   0  0  0  0  0  0  0  0  0  0  0  0
   19.6336  -23.1689  -14.4898 C   0  0  0  0  0  0  0  0  0  0  0  0
   18.6393  -23.1398  -13.4364 C   0  0  0  0  0  0  0  0  0  0  0  0
   17.4103  -22.4516  -13.8306 O   0  0  0  0  0  0  0  0  0  0  0  0
   16.2710  -22.3721  -13.0450 O   0  0  0  0  0  0  0  0  0  0  0  0
  2  1  1  1
  2  4  1  0
  3  2  1  0
  4  6  1  0
  4  5  1  1
  6 16  1  0
  6  7  2  0
  9  8  1  0
 10  9  2  0
 11  9  1  0
 12 11  1  0
 13 12  1  0
 14 13  1  0
 15 14  1  1
 16 15  1  0
 17 15  1  0
 18 17  2  0
 19 17  1  0
 20 19  1  0
 21 22  1  0
 21 20  1  0
 23 21  2  0
M  END
$$$$
