VRG.pdb
     RDKit          3D

 23 22  0  0  1  0  0  0  0  0999 V2000
   24.4304  -20.6242   -7.7319 C   0  0  0  0  0  0  0  0  0  0  0  0
   25.3276  -20.5919   -8.9263 C   0  0  2  0  0  0  0  0  0  0  0  0
   26.5556  -19.7687   -8.5551 C   0  0  0  0  0  0  0  0  0  0  0  0
   24.6768  -19.9650  -10.1366 C   0  0  2  0  0  0  0  0  0  0  0  0
   23.4793  -20.7283  -10.4340 N   0  0  0  0  0  0  0  0  0  0  0  0
   25.6432  -20.0501  -11.2846 C   0  0  0  0  0  0  0  0  0  0  0  0
   26.7203  -19.4083  -11.3046 O   0  0  0  0  0  0  0  0  0  0  0  0
   24.3762  -26.4009  -14.7850 N   0  0  0  0  0  0  0  0  0  0  0  0
   23.3636  -25.6305  -15.4152 C   0  0  0  0  0  0  0  0  0  0  0  0
   22.1785  -26.1549  -15.4876 N   0  0  0  0  0  0  0  0  0  0  0  0
   23.6228  -24.3382  -15.9489 N   0  0  0  0  0  0  0  0  0  0  0  0
   24.8728  -23.7148  -15.6083 C   0  0  0  0  0  0  0  0  0  0  0  0
   24.6994  -22.4972  -14.7397 C   0  0  0  0  0  0  0  0  0  0  0  0
   26.0628  -21.8506  -14.5047 C   0  0  0  0  0  0  0  0  0  0  0  0
   25.9353  -20.5891  -13.6784 C   0  0  2  0  0  0  0  0  0  0  0  0
   25.3552  -20.8784  -12.4019 N   0  0  0  0  0  0  0  0  0  0  0  0
   25.1048  -19.6074  -14.4585 C   0  0  0  0  0  0  0  0  0  0  0  0
   23.9550  -19.2737  -14.0740 O   0  0  0  0  0  0  0  0  0  0  0  0
   21.3808  -25.6749  -15.9447 N   0  0  0  0  0  0  0  0  0  0  0  0
   25.5838  -19.0195  -15.6569 C   0  0  0  0  0  0  0  0  0  0  0  0
   26.6552  -18.0446  -15.6831 C   0  0  0  0  0  0  0  0  0  0  0  0
   27.6432  -18.3106  -16.7285 O   0  0  0  0  0  0  0  0  0  0  0  0
   27.5508  -19.3433  -17.6485 O   0  0  0  0  0  0  0  0  0  0  0  0
  2  1  1  1
  2  4  1  0
  3  2  1  0
  4  6  1  0
  4  5  1  6
  6 16  1  0
  6  7  2  0
  9  8  1  0
 10  9  2  0
 11  9  1  0
 12 11  1  0
 13 12  1  0
 14 13  1  0
 15 14  1  6
 16 15  1  0
 17 15  1  0
 18 17  2  0
 19 17  1  0
 20 19  1  0
 21 22  1  0
 21 20  1  0
 23 21  2  0
M  END
$$$$
