VRG.pdb
     RDKit          3D

 23 22  0  0  1  0  0  0  0  0999 V2000
   22.4328  -20.3822   -9.8101 C   0  0  0  0  0  0  0  0  0  0  0  0
   21.1355  -19.7085  -10.1199 C   0  0  2  0  0  0  0  0  0  0  0  0
   20.0813  -20.2925   -9.1866 C   0  0  0  0  0  0  0  0  0  0  0  0
   20.6857  -19.9215  -11.5460 C   0  0  2  0  0  0  0  0  0  0  0  0
   20.4124  -21.3367  -11.7118 N   0  0  0  0  0  0  0  0  0  0  0  0
   21.8041  -19.5001  -12.4575 C   0  0  0  0  0  0  0  0  0  0  0  0
   22.1183  -18.2976  -12.6233 O   0  0  0  0  0  0  0  0  0  0  0  0
   29.2499  -21.9863  -13.4280 N   0  0  0  0  0  0  0  0  0  0  0  0
   29.0190  -21.3040  -12.2044 C   0  0  0  0  0  0  0  0  0  0  0  0
   30.0450  -20.7563  -11.6282 N   0  0  0  0  0  0  0  0  0  0  0  0
   27.7240  -21.2166  -11.6236 N   0  0  0  0  0  0  0  0  0  0  0  0
   26.6065  -21.6499  -12.4177 C   0  0  0  0  0  0  0  0  0  0  0  0
   25.9303  -20.5153  -13.1405 C   0  0  0  0  0  0  0  0  0  0  0  0
   24.7641  -21.0661  -13.9585 C   0  0  0  0  0  0  0  0  0  0  0  0
   23.6254  -20.0715  -14.0267 C   0  0  2  0  0  0  0  0  0  0  0  0
   22.5510  -20.4751  -13.1710 N   0  0  0  0  0  0  0  0  0  0  0  0
   23.1867  -19.9686  -15.4616 C   0  0  0  0  0  0  0  0  0  0  0  0
   22.2339  -20.6594  -15.9045 O   0  0  0  0  0  0  0  0  0  0  0  0
   29.9593  -20.1471  -10.7932 N   0  0  0  0  0  0  0  0  0  0  0  0
   23.8285  -19.0903  -16.3714 C   0  0  0  0  0  0  0  0  0  0  0  0
   23.3980  -18.9258  -17.7449 C   0  0  0  0  0  0  0  0  0  0  0  0
   23.7253  -20.0761  -18.5871 O   0  0  0  0  0  0  0  0  0  0  0  0
   23.4714  -20.1476  -19.9480 O   0  0  0  0  0  0  0  0  0  0  0  0
  2  1  1  6
  2  4  1  0
  3  2  1  0
  4  6  1  0
  4  5  1  1
  6 16  1  0
  6  7  2  0
  9  8  1  0
 10  9  2  0
 11  9  1  0
 12 11  1  0
 13 12  1  0
 14 13  1  0
 15 14  1  6
 16 15  1  0
 17 15  1  0
 18 17  2  0
 19 17  1  0
 20 19  1  0
 21 22  1  0
 21 20  1  0
 23 21  2  0
M  END
$$$$
