KEN.pdb
     RDKit          3D

 27 26  0  0  1  0  0  0  0  0999 V2000
   27.8692  -22.5624  -16.7145 N   0  0  0  0  0  0  0  0  0  0  0  0
   27.4574  -21.2807  -16.2120 C   0  0  1  0  0  0  0  0  0  0  0  0
   27.1691  -20.2531  -17.2460 C   0  0  0  0  0  0  0  0  0  0  0  0
   28.3532  -20.1293  -18.1785 C   0  0  0  0  0  0  0  0  0  0  0  0
   28.4125  -21.2167  -19.2165 C   0  0  0  0  0  0  0  0  0  0  0  0
   29.5191  -20.9825  -20.2251 C   0  0  0  0  0  0  0  0  0  0  0  0
   29.6226  -22.1104  -21.1054 N   0  0  0  0  0  0  0  0  0  0  0  0
   26.3315  -21.4942  -15.2346 C   0  0  0  0  0  0  0  0  0  0  0  0
   25.3196  -22.1525  -15.5878 O   0  0  0  0  0  0  0  0  0  0  0  0
   26.3798  -20.9752  -13.9243 N   0  0  0  0  0  0  0  0  0  0  0  0
   25.3648  -21.0017  -12.9158 C   0  0  1  0  0  0  0  0  0  0  0  0
   25.8508  -20.8539  -11.4908 C   0  0  0  0  0  0  0  0  0  0  0  0
   24.7200  -21.1852  -10.5561 C   0  0  0  0  0  0  0  0  0  0  0  0
   25.1262  -20.9549   -9.1292 C   0  0  0  0  0  0  0  0  0  0  0  0
   26.1818  -20.3309   -8.9127 O   0  0  0  0  0  0  0  0  0  0  0  0
   24.1732  -20.2574  -13.2620 C   0  0  0  0  0  0  0  0  0  0  0  0
   24.3199  -19.1827  -13.9392 O   0  0  0  0  0  0  0  0  0  0  0  0
   24.3308  -21.4337   -8.1266 O   0  0  0  0  0  0  0  0  0  0  0  0
   20.7861  -19.8355  -17.1626 N   0  0  0  0  0  0  0  0  0  0  0  0
   21.1549  -19.1961  -15.9466 C   0  0  0  0  0  0  0  0  0  0  0  0
   20.5493  -18.1356  -15.6598 O   0  0  0  0  0  0  0  0  0  0  0  0
   22.1912  -19.7489  -15.0718 C   0  0  0  0  0  0  0  0  0  0  0  0
   21.7312  -20.0587  -13.6730 C   0  0  2  0  0  0  0  0  0  0  0  0
   22.8498  -20.6010  -12.9240 N   0  0  0  0  0  0  0  0  0  0  0  0
   20.5451  -20.9163  -13.6183 C   0  0  0  0  0  0  0  0  0  0  0  0
   19.2732  -20.3803  -13.7044 O   0  0  0  0  0  0  0  0  0  0  0  0
   20.6372  -22.1607  -13.4921 O   0  0  0  0  0  0  0  0  0  0  0  0
  2  1  1  6
  3  2  1  0
  4  5  1  0
  4  3  1  0
  5  6  1  0
  7  6  1  0
  8  9  2  0
  8  2  1  0
 10  8  1  0
 11 10  1  0
 11 12  1  1
 12 13  1  0
 13 14  1  0
 14 18  1  0
 15 14  2  0
 16 17  2  0
 16 11  1  0
 19 20  1  0
 20 22  1  0
 21 20  2  0
 23 22  1  6
 23 24  1  0
 24 16  1  0
 25 23  1  0
 26 25  1  0
 27 25  2  0
M  END
$$$$
