KEN.pdb
     RDKit          3D

 27 26  0  0  1  0  0  0  0  0999 V2000
   23.0691  -12.7081  -17.1527 N   0  0  0  0  0  0  0  0  0  0  0  0
   22.8903  -11.9749  -18.3754 C   0  0  1  0  0  0  0  0  0  0  0  0
   22.4290  -12.7768  -19.5383 C   0  0  0  0  0  0  0  0  0  0  0  0
   21.8862  -14.1025  -19.0537 C   0  0  0  0  0  0  0  0  0  0  0  0
   21.4585  -15.0167  -20.1693 C   0  0  0  0  0  0  0  0  0  0  0  0
   20.8579  -16.3077  -19.6502 C   0  0  0  0  0  0  0  0  0  0  0  0
   20.4668  -17.1402  -20.7510 N   0  0  0  0  0  0  0  0  0  0  0  0
   22.0314  -10.7720  -18.0854 C   0  0  0  0  0  0  0  0  0  0  0  0
   21.8428   -9.9130  -18.9845 O   0  0  0  0  0  0  0  0  0  0  0  0
   21.4264  -10.5802  -16.8262 N   0  0  0  0  0  0  0  0  0  0  0  0
   20.5458   -9.5320  -16.4094 C   0  0  1  0  0  0  0  0  0  0  0  0
   19.2783   -9.9768  -15.7134 C   0  0  0  0  0  0  0  0  0  0  0  0
   18.3621   -8.7924  -15.5714 C   0  0  0  0  0  0  0  0  0  0  0  0
   17.1058   -9.1777  -14.8454 C   0  0  0  0  0  0  0  0  0  0  0  0
   16.8703  -10.3894  -14.6818 O   0  0  0  0  0  0  0  0  0  0  0  0
   21.2227   -8.3915  -15.8306 C   0  0  0  0  0  0  0  0  0  0  0  0
   22.1793   -8.6204  -15.0134 O   0  0  0  0  0  0  0  0  0  0  0  0
   16.2717   -8.1942  -14.3933 O   0  0  0  0  0  0  0  0  0  0  0  0
   23.5635   -3.1323  -17.1793 N   0  0  0  0  0  0  0  0  0  0  0  0
   22.6788   -3.7347  -16.2422 C   0  0  0  0  0  0  0  0  0  0  0  0
   22.6591   -3.2439  -15.0879 O   0  0  0  0  0  0  0  0  0  0  0  0
   21.8321   -4.8725  -16.6071 C   0  0  0  0  0  0  0  0  0  0  0  0
   21.8152   -5.9900  -15.5997 C   0  0  2  0  0  0  0  0  0  0  0  0
   20.9310   -7.0363  -16.0791 N   0  0  0  0  0  0  0  0  0  0  0  0
   21.4898   -5.5537  -14.2398 C   0  0  0  0  0  0  0  0  0  0  0  0
   20.3103   -5.9400  -13.6303 O   0  0  0  0  0  0  0  0  0  0  0  0
   22.2633   -4.8182  -13.5813 O   0  0  0  0  0  0  0  0  0  0  0  0
  2  1  1  1
  3  2  1  0
  4  5  1  0
  4  3  1  0
  5  6  1  0
  7  6  1  0
  8  9  2  0
  8  2  1  0
 10  8  1  0
 11 10  1  0
 11 12  1  1
 12 13  1  0
 13 14  1  0
 14 18  1  0
 15 14  2  0
 16 17  2  0
 16 11  1  0
 19 20  1  0
 20 22  1  0
 21 20  2  0
 23 22  1  6
 23 24  1  0
 24 16  1  0
 25 23  1  0
 26 25  1  0
 27 25  2  0
M  END
$$$$
