KEN.pdb
     RDKit          3D

 27 26  0  0  1  0  0  0  0  0999 V2000
   18.7204  -11.5330  -16.6900 N   0  0  0  0  0  0  0  0  0  0  0  0
   19.4879  -10.4613  -17.2621 C   0  0  1  0  0  0  0  0  0  0  0  0
   19.3090  -10.2581  -18.7232 C   0  0  0  0  0  0  0  0  0  0  0  0
   17.8742  -10.5497  -19.1014 C   0  0  0  0  0  0  0  0  0  0  0  0
   17.6070  -10.4204  -20.5762 C   0  0  0  0  0  0  0  0  0  0  0  0
   16.1348  -10.5685  -20.9043 C   0  0  0  0  0  0  0  0  0  0  0  0
   15.9469  -10.5367  -22.3261 N   0  0  0  0  0  0  0  0  0  0  0  0
   19.2544   -9.2203  -16.4411 C   0  0  0  0  0  0  0  0  0  0  0  0
   18.1198   -9.0125  -15.9395 O   0  0  0  0  0  0  0  0  0  0  0  0
   20.2789   -8.2781  -16.2152 N   0  0  0  0  0  0  0  0  0  0  0  0
   20.2035   -7.0250  -15.5280 C   0  0  1  0  0  0  0  0  0  0  0  0
   21.4592   -6.5986  -14.7999 C   0  0  0  0  0  0  0  0  0  0  0  0
   21.1624   -5.3535  -14.0101 C   0  0  0  0  0  0  0  0  0  0  0  0
   22.3153   -5.0068  -13.1130 C   0  0  0  0  0  0  0  0  0  0  0  0
   22.2945   -5.4276  -11.9412 O   0  0  0  0  0  0  0  0  0  0  0  0
   19.5145   -5.9898  -16.2680 C   0  0  0  0  0  0  0  0  0  0  0  0
   19.8960   -5.7630  -17.4673 O   0  0  0  0  0  0  0  0  0  0  0  0
   23.3382   -4.2485  -13.6089 O   0  0  0  0  0  0  0  0  0  0  0  0
   15.9451   -4.4163  -18.7986 N   0  0  0  0  0  0  0  0  0  0  0  0
   15.4476   -4.2943  -17.4714 C   0  0  0  0  0  0  0  0  0  0  0  0
   14.2009   -4.3034  -17.3325 O   0  0  0  0  0  0  0  0  0  0  0  0
   16.3470   -4.1645  -16.3230 C   0  0  0  0  0  0  0  0  0  0  0  0
   17.8114   -4.2251  -16.6634 C   0  0  2  0  0  0  0  0  0  0  0  0
   18.4519   -5.1957  -15.7951 N   0  0  0  0  0  0  0  0  0  0  0  0
   18.4769   -2.9204  -16.6411 C   0  0  0  0  0  0  0  0  0  0  0  0
   19.4799   -2.6472  -15.7291 O   0  0  0  0  0  0  0  0  0  0  0  0
   18.1644   -2.0077  -17.4425 O   0  0  0  0  0  0  0  0  0  0  0  0
  2  1  1  1
  3  2  1  0
  4  5  1  0
  4  3  1  0
  5  6  1  0
  7  6  1  0
  8  9  2  0
  8  2  1  0
 10  8  1  0
 11 10  1  0
 11 12  1  6
 12 13  1  0
 13 14  1  0
 14 18  1  0
 15 14  2  0
 16 17  2  0
 16 11  1  0
 19 20  1  0
 20 22  1  0
 21 20  2  0
 23 22  1  1
 23 24  1  0
 24 16  1  0
 25 23  1  0
 26 25  1  0
 27 25  2  0
M  END
$$$$
