KEN.pdb
     RDKit          3D

 27 26  0  0  1  0  0  0  0  0999 V2000
   21.8851  -12.8560  -16.4052 N   0  0  0  0  0  0  0  0  0  0  0  0
   21.4875  -12.4030  -17.7096 C   0  0  1  0  0  0  0  0  0  0  0  0
   20.7440  -13.3943  -18.5297 C   0  0  0  0  0  0  0  0  0  0  0  0
   20.9627  -14.7807  -17.9667 C   0  0  0  0  0  0  0  0  0  0  0  0
   19.6966  -15.5850  -17.8506 C   0  0  0  0  0  0  0  0  0  0  0  0
   19.9660  -17.0142  -17.4246 C   0  0  0  0  0  0  0  0  0  0  0  0
   18.7248  -17.7036  -17.2196 N   0  0  0  0  0  0  0  0  0  0  0  0
   20.7777  -11.0833  -17.5570 C   0  0  0  0  0  0  0  0  0  0  0  0
   20.3717  -10.4752  -18.5804 O   0  0  0  0  0  0  0  0  0  0  0  0
   20.5518  -10.5059  -16.2905 N   0  0  0  0  0  0  0  0  0  0  0  0
   19.8703   -9.2881  -15.9734 C   0  0  1  0  0  0  0  0  0  0  0  0
   18.5232   -9.4447  -15.3029 C   0  0  0  0  0  0  0  0  0  0  0  0
   17.9172   -8.0819  -15.1085 C   0  0  0  0  0  0  0  0  0  0  0  0
   16.5405   -8.1925  -14.5200 C   0  0  0  0  0  0  0  0  0  0  0  0
   16.1320   -9.3216  -14.1901 O   0  0  0  0  0  0  0  0  0  0  0  0
   20.7311   -8.2554  -15.4382 C   0  0  0  0  0  0  0  0  0  0  0  0
   21.5100   -8.5718  -14.4747 O   0  0  0  0  0  0  0  0  0  0  0  0
   15.7900   -7.0607  -14.3682 O   0  0  0  0  0  0  0  0  0  0  0  0
   22.5493   -2.3205  -16.0177 N   0  0  0  0  0  0  0  0  0  0  0  0
   22.5227   -3.6272  -15.4560 C   0  0  0  0  0  0  0  0  0  0  0  0
   23.2741   -3.8349  -14.4732 O   0  0  0  0  0  0  0  0  0  0  0  0
   21.6602   -4.6790  -15.9986 C   0  0  0  0  0  0  0  0  0  0  0  0
   21.6970   -5.9756  -15.2360 C   0  0  2  0  0  0  0  0  0  0  0  0
   20.7992   -6.9188  -15.8767 N   0  0  0  0  0  0  0  0  0  0  0  0
   21.4310   -5.8253  -13.8034 C   0  0  0  0  0  0  0  0  0  0  0  0
   22.4484   -5.9381  -12.8737 O   0  0  0  0  0  0  0  0  0  0  0  0
   20.2783   -5.5904  -13.3686 O   0  0  0  0  0  0  0  0  0  0  0  0
  2  1  1  1
  3  2  1  0
  4  5  1  0
  4  3  1  0
  5  6  1  0
  7  6  1  0
  8  9  2  0
  8  2  1  0
 10  8  1  0
 11 10  1  0
 11 12  1  1
 12 13  1  0
 13 14  1  0
 14 18  1  0
 15 14  2  0
 16 17  2  0
 16 11  1  0
 19 20  1  0
 20 22  1  0
 21 20  2  0
 23 22  1  6
 23 24  1  0
 24 16  1  0
 25 23  1  0
 26 25  1  0
 27 25  2  0
M  END
$$$$
