KEN.pdb
     RDKit          3D

 27 26  0  0  1  0  0  0  0  0999 V2000
   18.9039  -12.3907  -15.8582 N   0  0  0  0  0  0  0  0  0  0  0  0
   18.8051  -11.1320  -16.5442 C   0  0  1  0  0  0  0  0  0  0  0  0
   17.4609  -10.4988  -16.5245 C   0  0  0  0  0  0  0  0  0  0  0  0
   16.4028  -11.5531  -16.7605 C   0  0  0  0  0  0  0  0  0  0  0  0
   14.9986  -11.0200  -16.6748 C   0  0  0  0  0  0  0  0  0  0  0  0
   13.9624  -12.1157  -16.8249 C   0  0  0  0  0  0  0  0  0  0  0  0
   12.6478  -11.5712  -16.6437 N   0  0  0  0  0  0  0  0  0  0  0  0
   19.9088  -10.2345  -16.0492 C   0  0  0  0  0  0  0  0  0  0  0  0
   19.9735   -9.9470  -14.8265 O   0  0  0  0  0  0  0  0  0  0  0  0
   20.8803   -9.7043  -16.9231 N   0  0  0  0  0  0  0  0  0  0  0  0
   21.9545   -8.8069  -16.6249 C   0  0  1  0  0  0  0  0  0  0  0  0
   23.2300   -9.0260  -17.4083 C   0  0  0  0  0  0  0  0  0  0  0  0
   24.3062   -8.1429  -16.8389 C   0  0  0  0  0  0  0  0  0  0  0  0
   25.5943   -8.3261  -17.5880 C   0  0  0  0  0  0  0  0  0  0  0  0
   25.7623   -7.6738  -18.6354 O   0  0  0  0  0  0  0  0  0  0  0  0
   21.5403   -7.4308  -16.4554 C   0  0  0  0  0  0  0  0  0  0  0  0
   20.8146   -6.9118  -17.3714 O   0  0  0  0  0  0  0  0  0  0  0  0
   26.5294   -9.1943  -17.0991 O   0  0  0  0  0  0  0  0  0  0  0  0
   19.8857   -2.8309  -14.8834 N   0  0  0  0  0  0  0  0  0  0  0  0
   19.1567   -4.0208  -15.1600 C   0  0  0  0  0  0  0  0  0  0  0  0
   17.9095   -3.9133  -15.2406 O   0  0  0  0  0  0  0  0  0  0  0  0
   19.8295   -5.3089  -15.3419 C   0  0  0  0  0  0  0  0  0  0  0  0
   21.3321   -5.2434  -15.2964 C   0  0  2  0  0  0  0  0  0  0  0  0
   21.8598   -6.5934  -15.3691 N   0  0  0  0  0  0  0  0  0  0  0  0
   21.8557   -4.4922  -14.1532 C   0  0  0  0  0  0  0  0  0  0  0  0
   21.4574   -3.1899  -13.9130 O   0  0  0  0  0  0  0  0  0  0  0  0
   22.6795   -4.9981  -13.3542 O   0  0  0  0  0  0  0  0  0  0  0  0
  2  1  1  1
  3  2  1  0
  4  5  1  0
  4  3  1  0
  5  6  1  0
  7  6  1  0
  8  9  2  0
  8  2  1  0
 10  8  1  0
 11 10  1  0
 11 12  1  6
 12 13  1  0
 13 14  1  0
 14 18  1  0
 15 14  2  0
 16 17  2  0
 16 11  1  0
 19 20  1  0
 20 22  1  0
 21 20  2  0
 23 22  1  1
 23 24  1  0
 24 16  1  0
 25 23  1  0
 26 25  1  0
 27 25  2  0
M  END
$$$$
