KEN.pdb
     RDKit          3D

 27 26  0  0  1  0  0  0  0  0999 V2000
   19.7816  -21.2293  -10.8627 N   0  0  0  0  0  0  0  0  0  0  0  0
   19.8277  -21.4237  -12.2856 C   0  0  1  0  0  0  0  0  0  0  0  0
   18.5680  -21.9130  -12.9035 C   0  0  0  0  0  0  0  0  0  0  0  0
   18.5029  -23.4197  -12.7918 C   0  0  0  0  0  0  0  0  0  0  0  0
   18.5409  -23.9157  -11.3720 C   0  0  0  0  0  0  0  0  0  0  0  0
   18.4723  -25.4277  -11.2941 C   0  0  0  0  0  0  0  0  0  0  0  0
   18.4050  -25.8423   -9.9225 N   0  0  0  0  0  0  0  0  0  0  0  0
   20.3694  -20.1687  -12.9182 C   0  0  0  0  0  0  0  0  0  0  0  0
   20.0021  -19.0468  -12.4842 O   0  0  0  0  0  0  0  0  0  0  0  0
   21.2847  -20.2151  -13.9899 N   0  0  0  0  0  0  0  0  0  0  0  0
   21.8991  -19.1265  -14.6868 C   0  0  1  0  0  0  0  0  0  0  0  0
   23.1534  -19.4666  -15.4611 C   0  0  0  0  0  0  0  0  0  0  0  0
   23.7035  -18.2064  -16.0706 C   0  0  0  0  0  0  0  0  0  0  0  0
   24.9491  -18.4971  -16.8567 C   0  0  0  0  0  0  0  0  0  0  0  0
   26.0225  -18.6094  -16.2357 O   0  0  0  0  0  0  0  0  0  0  0  0
   20.9594  -18.2494  -15.3513 C   0  0  0  0  0  0  0  0  0  0  0  0
   20.0216  -18.7900  -16.0321 O   0  0  0  0  0  0  0  0  0  0  0  0
   24.8625  -18.6272  -18.2142 O   0  0  0  0  0  0  0  0  0  0  0  0
   18.0374  -14.3311  -17.1740 N   0  0  0  0  0  0  0  0  0  0  0  0
   18.6758  -13.9597  -15.9582 C   0  0  0  0  0  0  0  0  0  0  0  0
   18.3620  -12.8465  -15.4725 O   0  0  0  0  0  0  0  0  0  0  0  0
   19.6521  -14.8344  -15.3050 C   0  0  0  0  0  0  0  0  0  0  0  0
   19.9960  -16.0782  -16.0788 C   0  0  2  0  0  0  0  0  0  0  0  0
   20.9729  -16.8414  -15.3241 N   0  0  0  0  0  0  0  0  0  0  0  0
   20.4229  -15.8176  -17.4555 C   0  0  0  0  0  0  0  0  0  0  0  0
   19.5913  -16.0960  -18.5246 O   0  0  0  0  0  0  0  0  0  0  0  0
   21.5512  -15.3353  -17.7151 O   0  0  0  0  0  0  0  0  0  0  0  0
  2  1  1  1
  3  2  1  0
  4  5  1  0
  4  3  1  0
  5  6  1  0
  7  6  1  0
  8  9  2  0
  8  2  1  0
 10  8  1  0
 11 10  1  0
 11 12  1  6
 12 13  1  0
 13 14  1  0
 14 18  1  0
 15 14  2  0
 16 17  2  0
 16 11  1  0
 19 20  1  0
 20 22  1  0
 21 20  2  0
 23 22  1  1
 23 24  1  0
 24 16  1  0
 25 23  1  0
 26 25  1  0
 27 25  2  0
M  END
$$$$
