KEN.pdb
     RDKit          3D

 27 26  0  0  1  0  0  0  0  0999 V2000
   27.7709  -25.1832  -16.6779 N   0  0  0  0  0  0  0  0  0  0  0  0
   28.7977  -24.2642  -16.2708 C   0  0  1  0  0  0  0  0  0  0  0  0
   30.1168  -24.4491  -16.9297 C   0  0  0  0  0  0  0  0  0  0  0  0
   30.1682  -25.8123  -17.5824 C   0  0  0  0  0  0  0  0  0  0  0  0
   31.4535  -26.0737  -18.3193 C   0  0  0  0  0  0  0  0  0  0  0  0
   31.4486  -27.4204  -19.0144 C   0  0  0  0  0  0  0  0  0  0  0  0
   32.6616  -27.5873  -19.7618 N   0  0  0  0  0  0  0  0  0  0  0  0
   28.2523  -22.8646  -16.3813 C   0  0  0  0  0  0  0  0  0  0  0  0
   28.9855  -21.8874  -16.0823 O   0  0  0  0  0  0  0  0  0  0  0  0
   26.9338  -22.6157  -16.8152 N   0  0  0  0  0  0  0  0  0  0  0  0
   26.2666  -21.3588  -16.9677 C   0  0  1  0  0  0  0  0  0  0  0  0
   26.5078  -20.6419  -18.2779 C   0  0  0  0  0  0  0  0  0  0  0  0
   27.9032  -20.0808  -18.2737 C   0  0  0  0  0  0  0  0  0  0  0  0
   28.1393  -19.2369  -19.4928 C   0  0  0  0  0  0  0  0  0  0  0  0
   27.3327  -19.3303  -20.4368 O   0  0  0  0  0  0  0  0  0  0  0  0
   24.9037  -21.3546  -16.4816 C   0  0  0  0  0  0  0  0  0  0  0  0
   24.2430  -22.4468  -16.5563 O   0  0  0  0  0  0  0  0  0  0  0  0
   29.2214  -18.4031  -19.5241 O   0  0  0  0  0  0  0  0  0  0  0  0
   20.2255  -20.2467  -14.3896 N   0  0  0  0  0  0  0  0  0  0  0  0
   21.1236  -19.1737  -14.1332 C   0  0  0  0  0  0  0  0  0  0  0  0
   20.6939  -18.2356  -13.4198 O   0  0  0  0  0  0  0  0  0  0  0  0
   22.4839  -19.1645  -14.6756 C   0  0  0  0  0  0  0  0  0  0  0  0
   22.8508  -20.3890  -15.4692 C   0  0  2  0  0  0  0  0  0  0  0  0
   24.2215  -20.2544  -15.9269 N   0  0  0  0  0  0  0  0  0  0  0  0
   21.9178  -20.6879  -16.5581 C   0  0  0  0  0  0  0  0  0  0  0  0
   22.2933  -20.5370  -17.8803 O   0  0  0  0  0  0  0  0  0  0  0  0
   20.7508  -21.0892  -16.3341 O   0  0  0  0  0  0  0  0  0  0  0  0
  2  1  1  6
  3  2  1  0
  4  5  1  0
  4  3  1  0
  5  6  1  0
  7  6  1  0
  8  9  2  0
  8  2  1  0
 10  8  1  0
 11 10  1  0
 11 12  1  6
 12 13  1  0
 13 14  1  0
 14 18  1  0
 15 14  2  0
 16 17  2  0
 16 11  1  0
 19 20  1  0
 20 22  1  0
 21 20  2  0
 23 22  1  6
 23 24  1  0
 24 16  1  0
 25 23  1  0
 26 25  1  0
 27 25  2  0
M  END
$$$$
