KEN.pdb
     RDKit          3D

 27 26  0  0  1  0  0  0  0  0999 V2000
   20.8412  -11.7162  -18.8796 N   0  0  0  0  0  0  0  0  0  0  0  0
   20.1953  -11.2325  -17.6907 C   0  0  1  0  0  0  0  0  0  0  0  0
   19.7904  -12.2774  -16.7148 C   0  0  0  0  0  0  0  0  0  0  0  0
   19.2401  -13.4748  -17.4566 C   0  0  0  0  0  0  0  0  0  0  0  0
   18.8586  -14.6146  -16.5519 C   0  0  0  0  0  0  0  0  0  0  0  0
   17.6240  -14.3020  -15.7305 C   0  0  0  0  0  0  0  0  0  0  0  0
   17.1978  -15.4763  -15.0254 N   0  0  0  0  0  0  0  0  0  0  0  0
   21.0491  -10.1427  -17.0974 C   0  0  0  0  0  0  0  0  0  0  0  0
   20.7657   -9.6810  -15.9623 O   0  0  0  0  0  0  0  0  0  0  0  0
   22.1667   -9.6220  -17.7819 N   0  0  0  0  0  0  0  0  0  0  0  0
   23.0467   -8.5670  -17.3813 C   0  0  1  0  0  0  0  0  0  0  0  0
   24.3628   -8.4920  -18.1236 C   0  0  0  0  0  0  0  0  0  0  0  0
   25.2769   -7.5452  -17.3954 C   0  0  0  0  0  0  0  0  0  0  0  0
   26.5841   -7.4066  -18.1206 C   0  0  0  0  0  0  0  0  0  0  0  0
   27.4948   -8.2108  -17.8481 O   0  0  0  0  0  0  0  0  0  0  0  0
   22.3799   -7.3057  -17.1397 C   0  0  0  0  0  0  0  0  0  0  0  0
   21.6231   -6.8475  -18.0631 O   0  0  0  0  0  0  0  0  0  0  0  0
   26.7279   -6.4118  -19.0463 O   0  0  0  0  0  0  0  0  0  0  0  0
   19.8216   -3.2113  -15.4441 N   0  0  0  0  0  0  0  0  0  0  0  0
   19.3412   -4.5014  -15.8026 C   0  0  0  0  0  0  0  0  0  0  0  0
   18.0979   -4.6328  -15.9054 O   0  0  0  0  0  0  0  0  0  0  0  0
   20.2537   -5.6220  -16.0403 C   0  0  0  0  0  0  0  0  0  0  0  0
   21.7093   -5.2991  -15.8376 C   0  0  2  0  0  0  0  0  0  0  0  0
   22.4811   -6.5205  -15.9749 N   0  0  0  0  0  0  0  0  0  0  0  0
   21.9880   -4.5918  -14.5857 C   0  0  0  0  0  0  0  0  0  0  0  0
   21.3479   -3.4048  -14.2797 O   0  0  0  0  0  0  0  0  0  0  0  0
   22.8123   -5.0326  -13.7494 O   0  0  0  0  0  0  0  0  0  0  0  0
  2  1  1  6
  3  2  1  0
  4  5  1  0
  4  3  1  0
  5  6  1  0
  7  6  1  0
  8  9  2  0
  8  2  1  0
 10  8  1  0
 11 10  1  0
 11 12  1  6
 12 13  1  0
 13 14  1  0
 14 18  1  0
 15 14  2  0
 16 17  2  0
 16 11  1  0
 19 20  1  0
 20 22  1  0
 21 20  2  0
 23 22  1  1
 23 24  1  0
 24 16  1  0
 25 23  1  0
 26 25  1  0
 27 25  2  0
M  END
$$$$
