KEN.pdb
     RDKit          3D

 27 26  0  0  1  0  0  0  0  0999 V2000
   24.0479  -12.0253  -18.9178 N   0  0  0  0  0  0  0  0  0  0  0  0
   23.8662  -11.7128  -17.5271 C   0  0  1  0  0  0  0  0  0  0  0  0
   25.0811  -11.2355  -16.8168 C   0  0  0  0  0  0  0  0  0  0  0  0
   26.2657  -12.0872  -17.2146 C   0  0  0  0  0  0  0  0  0  0  0  0
   27.5605  -11.6361  -16.5956 C   0  0  0  0  0  0  0  0  0  0  0  0
   28.7132  -12.5529  -16.9528 C   0  0  0  0  0  0  0  0  0  0  0  0
   29.9180  -12.0862  -16.3295 N   0  0  0  0  0  0  0  0  0  0  0  0
   22.6833  -10.7891  -17.3995 C   0  0  0  0  0  0  0  0  0  0  0  0
   22.6469   -9.7303  -18.0773 O   0  0  0  0  0  0  0  0  0  0  0  0
   21.6063  -11.0799  -16.5369 N   0  0  0  0  0  0  0  0  0  0  0  0
   20.4325  -10.3023  -16.2812 C   0  0  1  0  0  0  0  0  0  0  0  0
   19.1921  -11.0867  -15.9138 C   0  0  0  0  0  0  0  0  0  0  0  0
   18.0465  -10.1279  -15.7387 C   0  0  0  0  0  0  0  0  0  0  0  0
   16.7957  -10.8614  -15.3494 C   0  0  0  0  0  0  0  0  0  0  0  0
   16.5755  -11.0443  -14.1375 O   0  0  0  0  0  0  0  0  0  0  0  0
   20.6788   -9.1033  -15.5095 C   0  0  0  0  0  0  0  0  0  0  0  0
   21.4704   -9.1928  -14.5093 O   0  0  0  0  0  0  0  0  0  0  0  0
   15.9499  -11.2988  -16.3294 O   0  0  0  0  0  0  0  0  0  0  0  0
   21.5837   -4.3907  -13.6709 N   0  0  0  0  0  0  0  0  0  0  0  0
   22.4722   -5.3218  -14.2768 C   0  0  0  0  0  0  0  0  0  0  0  0
   23.6982   -5.0705  -14.1912 O   0  0  0  0  0  0  0  0  0  0  0  0
   21.9798   -6.5159  -14.9671 C   0  0  0  0  0  0  0  0  0  0  0  0
   20.4870   -6.6984  -14.9168 C   0  0  2  0  0  0  0  0  0  0  0  0
   20.1275   -7.8300  -15.7514 N   0  0  0  0  0  0  0  0  0  0  0  0
   19.7330   -5.4877  -15.2502 C   0  0  0  0  0  0  0  0  0  0  0  0
   18.8050   -5.4855  -16.2754 O   0  0  0  0  0  0  0  0  0  0  0  0
   19.8993   -4.4144  -14.6230 O   0  0  0  0  0  0  0  0  0  0  0  0
  2  1  1  6
  3  2  1  0
  4  5  1  0
  4  3  1  0
  5  6  1  0
  7  6  1  0
  8  9  2  0
  8  2  1  0
 10  8  1  0
 11 10  1  0
 11 12  1  1
 12 13  1  0
 13 14  1  0
 14 18  1  0
 15 14  2  0
 16 17  2  0
 16 11  1  0
 19 20  1  0
 20 22  1  0
 21 20  2  0
 23 22  1  6
 23 24  1  0
 24 16  1  0
 25 23  1  0
 26 25  1  0
 27 25  2  0
M  END
$$$$
