KEN.pdb
     RDKit          3D

 27 26  0  0  1  0  0  0  0  0999 V2000
   19.5490  -20.4396  -12.2949 N   0  0  0  0  0  0  0  0  0  0  0  0
   20.7783  -21.1836  -12.3037 C   0  0  1  0  0  0  0  0  0  0  0  0
   20.6687  -22.6013  -11.8719 C   0  0  0  0  0  0  0  0  0  0  0  0
   19.2739  -22.8636  -11.3500 C   0  0  0  0  0  0  0  0  0  0  0  0
   19.0311  -24.3044  -10.9918 C   0  0  0  0  0  0  0  0  0  0  0  0
   17.6145  -24.5410  -10.5080 C   0  0  0  0  0  0  0  0  0  0  0  0
   17.4422  -25.9224  -10.1619 N   0  0  0  0  0  0  0  0  0  0  0  0
   21.4307  -21.0052  -13.6495 C   0  0  0  0  0  0  0  0  0  0  0  0
   22.0297  -21.9745  -14.1821 O   0  0  0  0  0  0  0  0  0  0  0  0
   21.3877  -19.7742  -14.3360 N   0  0  0  0  0  0  0  0  0  0  0  0
   21.9855  -19.4301  -15.5899 C   0  0  1  0  0  0  0  0  0  0  0  0
   21.4032  -18.2190  -16.2848 C   0  0  0  0  0  0  0  0  0  0  0  0
   22.0111  -18.1080  -17.6560 C   0  0  0  0  0  0  0  0  0  0  0  0
   21.5530  -16.8521  -18.3394 C   0  0  0  0  0  0  0  0  0  0  0  0
   21.2262  -16.9223  -19.5390 O   0  0  0  0  0  0  0  0  0  0  0  0
   23.4284  -19.5379  -15.6020 C   0  0  0  0  0  0  0  0  0  0  0  0
   24.0769  -18.9344  -14.6798 O   0  0  0  0  0  0  0  0  0  0  0  0
   21.5107  -15.6863  -17.6280 O   0  0  0  0  0  0  0  0  0  0  0  0
   28.2904  -22.3410  -14.9626 N   0  0  0  0  0  0  0  0  0  0  0  0
   27.5769  -21.7753  -16.0555 C   0  0  0  0  0  0  0  0  0  0  0  0
   28.2519  -21.4424  -17.0591 O   0  0  0  0  0  0  0  0  0  0  0  0
   26.1248  -21.5903  -16.0114 C   0  0  0  0  0  0  0  0  0  0  0  0
   25.6513  -20.2358  -16.4643 C   0  0  2  0  0  0  0  0  0  0  0  0
   24.2019  -20.2498  -16.5392 N   0  0  0  0  0  0  0  0  0  0  0  0
   26.2773  -19.7767  -17.7064 C   0  0  0  0  0  0  0  0  0  0  0  0
   27.3008  -18.8470  -17.6876 O   0  0  0  0  0  0  0  0  0  0  0  0
   25.9114  -20.2063  -18.8264 O   0  0  0  0  0  0  0  0  0  0  0  0
  2  1  1  6
  3  2  1  0
  4  5  1  0
  4  3  1  0
  5  6  1  0
  7  6  1  0
  8  9  2  0
  8  2  1  0
 10  8  1  0
 11 10  1  0
 11 12  1  1
 12 13  1  0
 13 14  1  0
 14 18  1  0
 15 14  2  0
 16 17  2  0
 16 11  1  0
 19 20  1  0
 20 22  1  0
 21 20  2  0
 23 22  1  6
 23 24  1  0
 24 16  1  0
 25 23  1  0
 26 25  1  0
 27 25  2  0
M  END
$$$$
