KEN.pdb
     RDKit          3D

 27 26  0  0  1  0  0  0  0  0999 V2000
   16.4282  -13.8578  -16.7128 N   0  0  0  0  0  0  0  0  0  0  0  0
   17.8619  -13.8240  -16.6234 C   0  0  1  0  0  0  0  0  0  0  0  0
   18.5742  -14.8712  -17.4008 C   0  0  0  0  0  0  0  0  0  0  0  0
   17.7274  -16.1229  -17.4555 C   0  0  0  0  0  0  0  0  0  0  0  0
   18.3799  -17.2535  -18.2033 C   0  0  0  0  0  0  0  0  0  0  0  0
   17.4601  -18.4497  -18.3447 C   0  0  0  0  0  0  0  0  0  0  0  0
   18.1059  -19.4723  -19.1160 N   0  0  0  0  0  0  0  0  0  0  0  0
   18.3227  -12.4221  -16.9249 C   0  0  0  0  0  0  0  0  0  0  0  0
   19.5504  -12.1898  -17.0686 O   0  0  0  0  0  0  0  0  0  0  0  0
   17.4106  -11.3543  -17.0536 N   0  0  0  0  0  0  0  0  0  0  0  0
   17.6862   -9.9638  -17.2504 C   0  0  1  0  0  0  0  0  0  0  0  0
   16.4769   -9.0754  -17.4427 C   0  0  0  0  0  0  0  0  0  0  0  0
   16.9377   -7.7267  -17.9231 C   0  0  0  0  0  0  0  0  0  0  0  0
   15.7647   -6.8253  -18.1790 C   0  0  0  0  0  0  0  0  0  0  0  0
   14.9467   -7.1610  -19.0559 O   0  0  0  0  0  0  0  0  0  0  0  0
   18.7274   -9.4439  -16.3905 C   0  0  0  0  0  0  0  0  0  0  0  0
   18.6611   -9.7203  -15.1437 O   0  0  0  0  0  0  0  0  0  0  0  0
   15.6363   -5.6783  -17.4475 O   0  0  0  0  0  0  0  0  0  0  0  0
   22.9691   -7.6214  -14.0847 N   0  0  0  0  0  0  0  0  0  0  0  0
   22.8049   -8.9518  -14.5606 C   0  0  0  0  0  0  0  0  0  0  0  0
   23.6421   -9.7995  -14.1680 O   0  0  0  0  0  0  0  0  0  0  0  0
   21.7116   -9.3146  -15.4650 C   0  0  0  0  0  0  0  0  0  0  0  0
   20.7887   -8.1803  -15.8196 C   0  0  2  0  0  0  0  0  0  0  0  0
   19.8214   -8.6534  -16.7927 N   0  0  0  0  0  0  0  0  0  0  0  0
   21.4846   -6.9681  -16.2572 C   0  0  0  0  0  0  0  0  0  0  0  0
   21.6060   -5.8742  -15.4200 O   0  0  0  0  0  0  0  0  0  0  0  0
   21.9932   -6.8767  -17.4000 O   0  0  0  0  0  0  0  0  0  0  0  0
  2  1  1  6
  3  2  1  0
  4  5  1  0
  4  3  1  0
  5  6  1  0
  7  6  1  0
  8  9  2  0
  8  2  1  0
 10  8  1  0
 11 10  1  0
 11 12  1  1
 12 13  1  0
 13 14  1  0
 14 18  1  0
 15 14  2  0
 16 17  2  0
 16 11  1  0
 19 20  1  0
 20 22  1  0
 21 20  2  0
 23 22  1  6
 23 24  1  0
 24 16  1  0
 25 23  1  0
 26 25  1  0
 27 25  2  0
M  END
$$$$
