KEN.pdb
     RDKit          3D

 27 26  0  0  1  0  0  0  0  0999 V2000
   18.4454  -13.7071  -16.0269 N   0  0  0  0  0  0  0  0  0  0  0  0
   17.7474  -12.4712  -15.8035 C   0  0  1  0  0  0  0  0  0  0  0  0
   17.0551  -12.3576  -14.4936 C   0  0  0  0  0  0  0  0  0  0  0  0
   15.9008  -13.3334  -14.4464 C   0  0  0  0  0  0  0  0  0  0  0  0
   14.6815  -12.8529  -15.1851 C   0  0  0  0  0  0  0  0  0  0  0  0
   13.5012  -13.7865  -15.0058 C   0  0  0  0  0  0  0  0  0  0  0  0
   12.9886  -13.6729  -13.6709 N   0  0  0  0  0  0  0  0  0  0  0  0
   18.6916  -11.3343  -16.0944 C   0  0  0  0  0  0  0  0  0  0  0  0
   19.8229  -11.3113  -15.5452 O   0  0  0  0  0  0  0  0  0  0  0  0
   18.3423  -10.2877  -16.9725 N   0  0  0  0  0  0  0  0  0  0  0  0
   19.0972   -9.1214  -17.3160 C   0  0  1  0  0  0  0  0  0  0  0  0
   18.8105   -8.5314  -18.6793 C   0  0  0  0  0  0  0  0  0  0  0  0
   19.7593   -7.3900  -18.9228 C   0  0  0  0  0  0  0  0  0  0  0  0
   19.5466   -6.8056  -20.2892 C   0  0  0  0  0  0  0  0  0  0  0  0
   20.3343   -7.1325  -21.1966 O   0  0  0  0  0  0  0  0  0  0  0  0
   19.2424   -8.1751  -16.2310 C   0  0  0  0  0  0  0  0  0  0  0  0
   18.2138   -7.9356  -15.5101 O   0  0  0  0  0  0  0  0  0  0  0  0
   18.5056   -5.9432  -20.4882 O   0  0  0  0  0  0  0  0  0  0  0  0
   20.8833   -4.7926  -12.5855 N   0  0  0  0  0  0  0  0  0  0  0  0
   22.0041   -5.2681  -13.3213 C   0  0  0  0  0  0  0  0  0  0  0  0
   23.1341   -4.8713  -12.9483 O   0  0  0  0  0  0  0  0  0  0  0  0
   21.8465   -6.1766  -14.4591 C   0  0  0  0  0  0  0  0  0  0  0  0
   20.4220   -6.5426  -14.7767 C   0  0  2  0  0  0  0  0  0  0  0  0
   20.4178   -7.4813  -15.8836 N   0  0  0  0  0  0  0  0  0  0  0  0
   19.5542   -5.3864  -15.0122 C   0  0  0  0  0  0  0  0  0  0  0  0
   19.4836   -4.7901  -16.2579 O   0  0  0  0  0  0  0  0  0  0  0  0
   18.8471   -4.8967  -14.0995 O   0  0  0  0  0  0  0  0  0  0  0  0
  2  1  1  1
  3  2  1  0
  4  5  1  0
  4  3  1  0
  5  6  1  0
  7  6  1  0
  8  9  2  0
  8  2  1  0
 10  8  1  0
 11 10  1  0
 11 12  1  6
 12 13  1  0
 13 14  1  0
 14 18  1  0
 15 14  2  0
 16 17  2  0
 16 11  1  0
 19 20  1  0
 20 22  1  0
 21 20  2  0
 23 22  1  6
 23 24  1  0
 24 16  1  0
 25 23  1  0
 26 25  1  0
 27 25  2  0
M  END
$$$$
