SSL.pdb
     RDKit          3D

 21 20  0  0  1  0  0  0  0  0999 V2000
   14.5093  -13.0517  -14.3579 O   0  0  0  0  0  0  0  0  0  0  0  0
   15.6294  -12.2993  -14.6136 C   0  0  0  0  0  0  0  0  0  0  0  0
   16.2028  -12.5345  -15.9958 C   0  0  2  0  0  0  0  0  0  0  0  0
   16.6791  -13.8981  -16.1246 N   0  0  0  0  0  0  0  0  0  0  0  0
   17.3125  -11.6205  -16.3209 C   0  0  0  0  0  0  0  0  0  0  0  0
   18.4822  -11.9488  -16.0309 O   0  0  0  0  0  0  0  0  0  0  0  0
   18.6815   -7.7157  -18.8983 O   0  0  0  0  0  0  0  0  0  0  0  0
   17.6719   -8.5349  -18.4033 C   0  0  0  0  0  0  0  0  0  0  0  0
   18.1765   -9.5115  -17.3900 C   0  0  2  0  0  0  0  0  0  0  0  0
   17.0895  -10.3807  -16.9528 N   0  0  0  0  0  0  0  0  0  0  0  0
   18.8706   -8.9123  -16.2496 C   0  0  0  0  0  0  0  0  0  0  0  0
   18.1744   -8.6388  -15.2242 O   0  0  0  0  0  0  0  0  0  0  0  0
   23.6937  -10.6169  -14.4184 C   0  0  0  0  0  0  0  0  0  0  0  0
   22.2630  -10.0644  -14.4976 C   0  0  1  0  0  0  0  0  0  0  0  0
   21.7369  -10.1648  -13.0615 C   0  0  0  0  0  0  0  0  0  0  0  0
   22.2840   -8.6032  -14.8442 C   0  0  0  0  0  0  0  0  0  0  0  0
   20.9196   -8.0707  -15.0130 C   0  0  2  0  0  0  0  0  0  0  0  0
   20.2315   -8.6113  -16.1805 N   0  0  0  0  0  0  0  0  0  0  0  0
   20.9662   -6.6050  -15.2415 C   0  0  0  0  0  0  0  0  0  0  0  0
   21.4148   -5.7560  -14.4332 O   0  0  0  0  0  0  0  0  0  0  0  0
   20.4898   -6.0161  -16.4381 O   0  0  0  0  0  0  0  0  0  0  0  0
  1  2  1  0
  2  3  1  0
  3  4  1  1
  3  5  1  0
  5  6  2  0
  7  8  1  0
  9  8  1  6
 10  5  1  0
 10  9  1  0
 11 18  1  0
 11  9  1  0
 12 11  2  0
 14 13  1  1
 14 15  1  0
 17 16  1  6
 16 14  1  0
 17 18  1  0
 19 21  1  0
 19 17  1  0
 20 19  2  0
M  END
$$$$
