SSL.pdb
     RDKit          3D

 21 20  0  0  1  0  0  0  0  0999 V2000
   23.1275  -19.6215  -18.3272 O   0  0  0  0  0  0  0  0  0  0  0  0
   22.8063  -20.4315  -17.2655 C   0  0  0  0  0  0  0  0  0  0  0  0
   23.5434  -20.0671  -15.9933 C   0  0  2  0  0  0  0  0  0  0  0  0
   24.7353  -20.8795  -15.8444 N   0  0  0  0  0  0  0  0  0  0  0  0
   22.7162  -20.2271  -14.7840 C   0  0  0  0  0  0  0  0  0  0  0  0
   23.1130  -20.9728  -13.8640 O   0  0  0  0  0  0  0  0  0  0  0  0
   20.2000  -17.5604  -12.5827 O   0  0  0  0  0  0  0  0  0  0  0  0
   19.6756  -18.5939  -13.3523 C   0  0  0  0  0  0  0  0  0  0  0  0
   20.6193  -19.7469  -13.4763 C   0  0  2  0  0  0  0  0  0  0  0  0
   21.4841  -19.5589  -14.6360 N   0  0  0  0  0  0  0  0  0  0  0  0
   19.9829  -21.0644  -13.4946 C   0  0  0  0  0  0  0  0  0  0  0  0
   19.6277  -21.5223  -14.6238 O   0  0  0  0  0  0  0  0  0  0  0  0
   19.6663  -26.3276  -12.1426 C   0  0  0  0  0  0  0  0  0  0  0  0
   18.7940  -25.3692  -11.3187 C   0  0  1  0  0  0  0  0  0  0  0  0
   18.8230  -25.9523   -9.9014 C   0  0  0  0  0  0  0  0  0  0  0  0
   19.4369  -24.0144  -11.2370 C   0  0  0  0  0  0  0  0  0  0  0  0
   19.1239  -23.1978  -12.4239 C   0  0  2  0  0  0  0  0  0  0  0  0
   19.7277  -21.8702  -12.3842 N   0  0  0  0  0  0  0  0  0  0  0  0
   17.6627  -22.9509  -12.5052 C   0  0  0  0  0  0  0  0  0  0  0  0
   17.0337  -22.0825  -11.8529 O   0  0  0  0  0  0  0  0  0  0  0  0
   16.8204  -23.7038  -13.3592 O   0  0  0  0  0  0  0  0  0  0  0  0
  1  2  1  0
  2  3  1  0
  3  4  1  1
  3  5  1  0
  5  6  2  0
  7  8  1  0
  9  8  1  6
 10  5  1  0
 10  9  1  0
 11 18  1  0
 11  9  1  0
 12 11  2  0
 14 13  1  6
 14 15  1  0
 17 16  1  1
 16 14  1  0
 17 18  1  0
 19 21  1  0
 19 17  1  0
 20 19  2  0
M  END
$$$$
