SSL.pdb
     RDKit          3D

 21 20  0  0  1  0  0  0  0  0999 V2000
   20.0997  -15.1809  -15.1462 O   0  0  0  0  0  0  0  0  0  0  0  0
   18.9300  -15.0122  -15.8461 C   0  0  0  0  0  0  0  0  0  0  0  0
   19.1521  -14.6266  -17.2941 C   0  0  2  0  0  0  0  0  0  0  0  0
   19.9748  -15.6150  -17.9642 N   0  0  0  0  0  0  0  0  0  0  0  0
   19.7919  -13.3074  -17.4458 C   0  0  0  0  0  0  0  0  0  0  0  0
   20.9988  -13.2440  -17.7608 O   0  0  0  0  0  0  0  0  0  0  0  0
   17.5990   -9.6464  -17.0446 O   0  0  0  0  0  0  0  0  0  0  0  0
   18.6157   -9.8499  -17.9721 C   0  0  0  0  0  0  0  0  0  0  0  0
   19.6620  -10.7935  -17.4722 C   0  0  2  0  0  0  0  0  0  0  0  0
   19.0764  -12.1100  -17.2445 N   0  0  0  0  0  0  0  0  0  0  0  0
   20.3998  -10.3285  -16.2972 C   0  0  0  0  0  0  0  0  0  0  0  0
   20.0017  -10.7355  -15.1627 O   0  0  0  0  0  0  0  0  0  0  0  0
   25.7742  -10.1293  -15.7572 C   0  0  0  0  0  0  0  0  0  0  0  0
   24.2773  -10.2522  -15.4371 C   0  0  1  0  0  0  0  0  0  0  0  0
   24.2376  -10.8976  -14.0473 C   0  0  0  0  0  0  0  0  0  0  0  0
   23.6583   -8.8913  -15.2943 C   0  0  0  0  0  0  0  0  0  0  0  0
   22.1972   -8.9804  -15.1191 C   0  0  2  0  0  0  0  0  0  0  0  0
   21.5050   -9.4764  -16.3037 N   0  0  0  0  0  0  0  0  0  0  0  0
   21.6266   -7.6314  -14.8797 C   0  0  0  0  0  0  0  0  0  0  0  0
   20.9630   -6.9638  -15.7100 O   0  0  0  0  0  0  0  0  0  0  0  0
   21.7886   -6.9558  -13.6456 O   0  0  0  0  0  0  0  0  0  0  0  0
  1  2  1  0
  2  3  1  0
  3  4  1  1
  3  5  1  0
  5  6  2  0
  7  8  1  0
  9  8  1  1
 10  5  1  0
 10  9  1  0
 11 18  1  0
 11  9  1  0
 12 11  2  0
 14 13  1  1
 14 15  1  0
 17 16  1  6
 16 14  1  0
 17 18  1  0
 19 21  1  0
 19 17  1  0
 20 19  2  0
M  END
$$$$
