SSL.pdb
     RDKit          3D

 21 20  0  0  1  0  0  0  0  0999 V2000
   17.8908  -12.1755  -19.1933 O   0  0  0  0  0  0  0  0  0  0  0  0
   17.9368  -11.3727  -18.0798 C   0  0  0  0  0  0  0  0  0  0  0  0
   19.1009  -11.6900  -17.1639 C   0  0  2  0  0  0  0  0  0  0  0  0
   18.9647  -13.0230  -16.6096 N   0  0  0  0  0  0  0  0  0  0  0  0
   19.2334  -10.7335  -16.0504 C   0  0  0  0  0  0  0  0  0  0  0  0
   18.3484  -10.6911  -15.1700 O   0  0  0  0  0  0  0  0  0  0  0  0
   22.5200   -9.9524  -14.0950 O   0  0  0  0  0  0  0  0  0  0  0  0
   21.2376   -9.5580  -13.7271 C   0  0  0  0  0  0  0  0  0  0  0  0
   20.4951   -8.9134  -14.8533 C   0  0  2  0  0  0  0  0  0  0  0  0
   20.3359   -9.8613  -15.9508 N   0  0  0  0  0  0  0  0  0  0  0  0
   21.0622   -7.6481  -15.3206 C   0  0  0  0  0  0  0  0  0  0  0  0
   21.9000   -7.7034  -16.2725 O   0  0  0  0  0  0  0  0  0  0  0  0
   18.4592   -3.3287  -16.9237 C   0  0  0  0  0  0  0  0  0  0  0  0
   19.5878   -4.3579  -16.7642 C   0  0  1  0  0  0  0  0  0  0  0  0
   20.5119   -4.0967  -17.9589 C   0  0  0  0  0  0  0  0  0  0  0  0
   20.3921   -4.0667  -15.5297 C   0  0  0  0  0  0  0  0  0  0  0  0
   21.3772   -5.1314  -15.2659 C   0  0  2  0  0  0  0  0  0  0  0  0
   20.7690   -6.3797  -14.8180 N   0  0  0  0  0  0  0  0  0  0  0  0
   22.2827   -4.7293  -14.1609 C   0  0  0  0  0  0  0  0  0  0  0  0
   22.2108   -5.1368  -12.9759 O   0  0  0  0  0  0  0  0  0  0  0  0
   23.3468   -3.8156  -14.3569 O   0  0  0  0  0  0  0  0  0  0  0  0
  1  2  1  0
  2  3  1  0
  3  4  1  1
  3  5  1  0
  5  6  2  0
  7  8  1  0
  9  8  1  1
 10  5  1  0
 10  9  1  0
 11 18  1  0
 11  9  1  0
 12 11  2  0
 14 13  1  6
 14 15  1  0
 17 16  1  1
 16 14  1  0
 17 18  1  0
 19 21  1  0
 19 17  1  0
 20 19  2  0
M  END
$$$$
