SSL.pdb
     RDKit          3D

 21 20  0  0  1  0  0  0  0  0999 V2000
   17.0900  -14.0770  -15.2098 O   0  0  0  0  0  0  0  0  0  0  0  0
   17.6534  -12.9735  -15.8023 C   0  0  0  0  0  0  0  0  0  0  0  0
   16.6864  -11.8166  -15.9489 C   0  0  2  0  0  0  0  0  0  0  0  0
   15.6842  -12.1144  -16.9536 N   0  0  0  0  0  0  0  0  0  0  0  0
   17.3525  -10.5538  -16.3149 C   0  0  0  0  0  0  0  0  0  0  0  0
   17.7597  -10.3920  -17.4845 O   0  0  0  0  0  0  0  0  0  0  0  0
   17.7825   -5.9101  -15.9398 O   0  0  0  0  0  0  0  0  0  0  0  0
   17.1928   -7.1605  -15.7838 C   0  0  0  0  0  0  0  0  0  0  0  0
   18.2020   -8.2614  -15.7144 C   0  0  2  0  0  0  0  0  0  0  0  0
   17.5436   -9.5188  -15.3776 N   0  0  0  0  0  0  0  0  0  0  0  0
   19.3374   -8.0009  -14.8289 C   0  0  0  0  0  0  0  0  0  0  0  0
   19.1726   -8.2275  -13.5909 O   0  0  0  0  0  0  0  0  0  0  0  0
   24.1881   -9.8297  -15.6425 C   0  0  0  0  0  0  0  0  0  0  0  0
   22.8939   -9.2969  -15.0104 C   0  0  1  0  0  0  0  0  0  0  0  0
   22.8602   -9.9358  -13.6175 C   0  0  0  0  0  0  0  0  0  0  0  0
   22.9867   -7.8130  -14.7980 C   0  0  0  0  0  0  0  0  0  0  0  0
   21.7084   -7.2573  -14.3176 C   0  0  2  0  0  0  0  0  0  0  0  0
   20.5907   -7.5251  -15.2164 N   0  0  0  0  0  0  0  0  0  0  0  0
   21.7900   -5.7775  -14.2397 C   0  0  0  0  0  0  0  0  0  0  0  0
   22.5226   -5.1292  -13.4533 O   0  0  0  0  0  0  0  0  0  0  0  0
   21.0179   -4.9376  -15.0788 O   0  0  0  0  0  0  0  0  0  0  0  0
  1  2  1  0
  2  3  1  0
  3  4  1  6
  3  5  1  0
  5  6  2  0
  7  8  1  0
  9  8  1  1
 10  5  1  0
 10  9  1  0
 11 18  1  0
 11  9  1  0
 12 11  2  0
 14 13  1  6
 14 15  1  0
 17 16  1  6
 16 14  1  0
 17 18  1  0
 19 21  1  0
 19 17  1  0
 20 19  2  0
M  END
$$$$
