SSL.pdb
     RDKit          3D

 21 20  0  0  1  0  0  0  0  0999 V2000
   17.1005   -7.8601  -16.2930 O   0  0  0  0  0  0  0  0  0  0  0  0
   17.1152   -7.3933  -15.0014 C   0  0  0  0  0  0  0  0  0  0  0  0
   17.3529   -5.9001  -14.9099 C   0  0  2  0  0  0  0  0  0  0  0  0
   16.3488   -5.1770  -15.6660 N   0  0  0  0  0  0  0  0  0  0  0  0
   18.6838   -5.4989  -15.4000 C   0  0  0  0  0  0  0  0  0  0  0  0
   18.7870   -4.9583  -16.5212 O   0  0  0  0  0  0  0  0  0  0  0  0
   23.3429   -4.6542  -14.3147 O   0  0  0  0  0  0  0  0  0  0  0  0
   22.0573   -5.0206  -13.9294 C   0  0  0  0  0  0  0  0  0  0  0  0
   21.1771   -5.3243  -15.0992 C   0  0  2  0  0  0  0  0  0  0  0  0
   19.8488   -5.7094  -14.6352 N   0  0  0  0  0  0  0  0  0  0  0  0
   21.7186   -6.3069  -16.0386 C   0  0  0  0  0  0  0  0  0  0  0  0
   21.7035   -7.5241  -15.6790 O   0  0  0  0  0  0  0  0  0  0  0  0
   20.8879   -6.4224  -21.4223 C   0  0  0  0  0  0  0  0  0  0  0  0
   21.1427   -6.8852  -19.9803 C   0  0  1  0  0  0  0  0  0  0  0  0
   20.8710   -8.3934  -20.0117 C   0  0  0  0  0  0  0  0  0  0  0  0
   22.5924   -6.7191  -19.6250 C   0  0  0  0  0  0  0  0  0  0  0  0
   22.8354   -7.0194  -18.2022 C   0  0  2  0  0  0  0  0  0  0  0  0
   22.2527   -6.0332  -17.2985 N   0  0  0  0  0  0  0  0  0  0  0  0
   24.2909   -6.9894  -17.9135 C   0  0  0  0  0  0  0  0  0  0  0  0
   24.8852   -6.0980  -17.2595 O   0  0  0  0  0  0  0  0  0  0  0  0
   25.1678   -8.0038  -18.3691 O   0  0  0  0  0  0  0  0  0  0  0  0
  1  2  1  0
  2  3  1  0
  3  4  1  6
  3  5  1  0
  5  6  2  0
  7  8  1  0
  9  8  1  1
 10  5  1  0
 10  9  1  0
 11 18  1  0
 11  9  1  0
 12 11  2  0
 14 13  1  6
 14 15  1  0
 17 16  1  6
 16 14  1  0
 17 18  1  0
 19 21  1  0
 19 17  1  0
 20 19  2  0
M  END
$$$$
