SSL.pdb
     RDKit          3D

 21 20  0  0  1  0  0  0  0  0999 V2000
   20.0112   -8.8240  -21.4785 O   0  0  0  0  0  0  0  0  0  0  0  0
   19.8930   -8.1852  -20.2684 C   0  0  0  0  0  0  0  0  0  0  0  0
   18.6227   -7.3690  -20.1468 C   0  0  2  0  0  0  0  0  0  0  0  0
   18.7146   -6.1613  -20.9442 N   0  0  0  0  0  0  0  0  0  0  0  0
   18.3157   -6.9874  -18.7567 C   0  0  0  0  0  0  0  0  0  0  0  0
   18.6905   -5.8753  -18.3291 O   0  0  0  0  0  0  0  0  0  0  0  0
   16.3592   -9.6445  -16.0011 O   0  0  0  0  0  0  0  0  0  0  0  0
   16.1227   -8.2739  -16.0316 C   0  0  0  0  0  0  0  0  0  0  0  0
   17.3115   -7.5014  -16.5062 C   0  0  2  0  0  0  0  0  0  0  0  0
   17.6076   -7.8463  -17.8923 N   0  0  0  0  0  0  0  0  0  0  0  0
   18.5007   -7.6210  -15.6620 C   0  0  0  0  0  0  0  0  0  0  0  0
   18.4001   -7.2316  -14.4581 O   0  0  0  0  0  0  0  0  0  0  0  0
   22.6488  -10.4068  -13.5307 C   0  0  0  0  0  0  0  0  0  0  0  0
   22.9936   -9.5030  -14.7235 C   0  0  1  0  0  0  0  0  0  0  0  0
   24.0575  -10.2874  -15.4995 C   0  0  0  0  0  0  0  0  0  0  0  0
   21.8101   -9.3678  -15.6380 C   0  0  0  0  0  0  0  0  0  0  0  0
   20.8960   -8.3050  -15.1815 C   0  0  2  0  0  0  0  0  0  0  0  0
   19.7413   -8.1250  -16.0550 N   0  0  0  0  0  0  0  0  0  0  0  0
   21.5901   -6.9933  -15.1903 C   0  0  0  0  0  0  0  0  0  0  0  0
   21.6751   -6.2212  -16.1762 O   0  0  0  0  0  0  0  0  0  0  0  0
   22.2416   -6.4808  -14.0420 O   0  0  0  0  0  0  0  0  0  0  0  0
  1  2  1  0
  2  3  1  0
  3  4  1  6
  3  5  1  0
  5  6  2  0
  7  8  1  0
  9  8  1  1
 10  5  1  0
 10  9  1  0
 11 18  1  0
 11  9  1  0
 12 11  2  0
 14 13  1  1
 14 15  1  0
 17 16  1  6
 16 14  1  0
 17 18  1  0
 19 21  1  0
 19 17  1  0
 20 19  2  0
M  END
$$$$
