SSL.pdb
     RDKit          3D

 21 20  0  0  1  0  0  0  0  0999 V2000
   15.9804  -13.5139  -14.7182 O   0  0  0  0  0  0  0  0  0  0  0  0
   15.5666  -12.7639  -13.6445 C   0  0  0  0  0  0  0  0  0  0  0  0
   14.7105  -11.5784  -14.0400 C   0  0  2  0  0  0  0  0  0  0  0  0
   13.5407  -12.0176  -14.7758 N   0  0  0  0  0  0  0  0  0  0  0  0
   15.4365  -10.5945  -14.8630 C   0  0  0  0  0  0  0  0  0  0  0  0
   15.5049  -10.7604  -16.0990 O   0  0  0  0  0  0  0  0  0  0  0  0
   15.5781   -6.6476  -14.1692 O   0  0  0  0  0  0  0  0  0  0  0  0
   15.9628   -7.2898  -15.3419 C   0  0  0  0  0  0  0  0  0  0  0  0
   16.8082   -8.4948  -15.0802 C   0  0  2  0  0  0  0  0  0  0  0  0
   16.0585   -9.4663  -14.2914 N   0  0  0  0  0  0  0  0  0  0  0  0
   18.1122   -8.2134  -14.4789 C   0  0  0  0  0  0  0  0  0  0  0  0
   18.1620   -8.1274  -13.2135 O   0  0  0  0  0  0  0  0  0  0  0  0
   22.8381  -10.3751  -16.0816 C   0  0  0  0  0  0  0  0  0  0  0  0
   21.7342   -9.7849  -15.1920 C   0  0  1  0  0  0  0  0  0  0  0  0
   22.1575  -10.1538  -13.7658 C   0  0  0  0  0  0  0  0  0  0  0  0
   21.7464   -8.2849  -15.2672 C   0  0  0  0  0  0  0  0  0  0  0  0
   20.5957   -7.7010  -14.5542 C   0  0  2  0  0  0  0  0  0  0  0  0
   19.3127   -8.0297  -15.1662 N   0  0  0  0  0  0  0  0  0  0  0  0
   20.6683   -6.2192  -14.5910 C   0  0  0  0  0  0  0  0  0  0  0  0
   21.5449   -5.5190  -14.0283 O   0  0  0  0  0  0  0  0  0  0  0  0
   19.7173   -5.4380  -15.2918 O   0  0  0  0  0  0  0  0  0  0  0  0
  1  2  1  0
  2  3  1  0
  3  4  1  6
  3  5  1  0
  5  6  2  0
  7  8  1  0
  9  8  1  1
 10  5  1  0
 10  9  1  0
 11 18  1  0
 11  9  1  0
 12 11  2  0
 14 13  1  6
 14 15  1  0
 17 16  1  6
 16 14  1  0
 17 18  1  0
 19 21  1  0
 19 17  1  0
 20 19  2  0
M  END
$$$$
