SSL.pdb
     RDKit          3D

 21 20  0  0  1  0  0  0  0  0999 V2000
   19.7957  -27.0105  -14.9887 O   0  0  0  0  0  0  0  0  0  0  0  0
   20.8486  -26.2566  -14.5310 C   0  0  0  0  0  0  0  0  0  0  0  0
   22.0778  -26.3531  -15.4109 C   0  0  2  0  0  0  0  0  0  0  0  0
   22.5671  -27.7174  -15.4549 N   0  0  0  0  0  0  0  0  0  0  0  0
   23.1760  -25.4784  -14.9620 C   0  0  0  0  0  0  0  0  0  0  0  0
   23.9684  -25.8887  -14.0880 O   0  0  0  0  0  0  0  0  0  0  0  0
   23.6379  -21.3242  -16.2092 O   0  0  0  0  0  0  0  0  0  0  0  0
   24.6778  -22.2286  -16.0188 C   0  0  0  0  0  0  0  0  0  0  0  0
   24.3567  -23.2551  -14.9805 C   0  0  2  0  0  0  0  0  0  0  0  0
   23.3577  -24.1860  -15.4939 N   0  0  0  0  0  0  0  0  0  0  0  0
   23.9608  -22.7130  -13.6803 C   0  0  0  0  0  0  0  0  0  0  0  0
   22.7173  -22.6317  -13.4390 O   0  0  0  0  0  0  0  0  0  0  0  0
   24.5052  -21.3197   -8.3303 C   0  0  0  0  0  0  0  0  0  0  0  0
   25.1038  -20.4051   -9.4091 C   0  0  1  0  0  0  0  0  0  0  0  0
   26.3709  -19.8340   -8.7628 C   0  0  0  0  0  0  0  0  0  0  0  0
   25.5543  -21.2144  -10.5913 C   0  0  0  0  0  0  0  0  0  0  0  0
   24.4180  -21.5840  -11.4549 C   0  0  2  0  0  0  0  0  0  0  0  0
   24.8232  -22.2745  -12.6746 N   0  0  0  0  0  0  0  0  0  0  0  0
   23.7120  -20.3651  -11.9223 C   0  0  0  0  0  0  0  0  0  0  0  0
   22.6148  -19.9449  -11.4809 O   0  0  0  0  0  0  0  0  0  0  0  0
   24.2368  -19.5396  -12.9465 O   0  0  0  0  0  0  0  0  0  0  0  0
  1  2  1  0
  2  3  1  0
  3  4  1  1
  3  5  1  0
  5  6  2  0
  7  8  1  0
  9  8  1  6
 10  5  1  0
 10  9  1  0
 11 18  1  0
 11  9  1  0
 12 11  2  0
 14 13  1  1
 14 15  1  0
 17 16  1  1
 16 14  1  0
 17 18  1  0
 19 21  1  0
 19 17  1  0
 20 19  2  0
M  END
$$$$
