SSL.pdb
     RDKit          3D

 21 20  0  0  1  0  0  0  0  0999 V2000
   17.5739  -10.7347  -19.5477 O   0  0  0  0  0  0  0  0  0  0  0  0
   18.0044  -10.1010  -18.4078 C   0  0  0  0  0  0  0  0  0  0  0  0
   18.7696  -11.0134  -17.4714 C   0  0  2  0  0  0  0  0  0  0  0  0
   17.9014  -12.0501  -16.9478 N   0  0  0  0  0  0  0  0  0  0  0  0
   19.3746  -10.2946  -16.3357 C   0  0  0  0  0  0  0  0  0  0  0  0
   18.7167  -10.1441  -15.2848 O   0  0  0  0  0  0  0  0  0  0  0  0
   23.4691   -9.8635  -15.8997 O   0  0  0  0  0  0  0  0  0  0  0  0
   22.5475   -9.7378  -14.8651 C   0  0  0  0  0  0  0  0  0  0  0  0
   21.2966   -9.0429  -15.2981 C   0  0  2  0  0  0  0  0  0  0  0  0
   20.6810   -9.7700  -16.4029 N   0  0  0  0  0  0  0  0  0  0  0  0
   21.4597   -7.6247  -15.6192 C   0  0  0  0  0  0  0  0  0  0  0  0
   21.8311   -7.3349  -16.7978 O   0  0  0  0  0  0  0  0  0  0  0  0
   17.9926   -4.1150  -16.1625 C   0  0  0  0  0  0  0  0  0  0  0  0
   19.3754   -4.7744  -16.2690 C   0  0  1  0  0  0  0  0  0  0  0  0
   19.9894   -4.1676  -17.5356 C   0  0  0  0  0  0  0  0  0  0  0  0
   20.2489   -4.3483  -15.1239 C   0  0  0  0  0  0  0  0  0  0  0  0
   21.4849   -5.1496  -15.0628 C   0  0  2  0  0  0  0  0  0  0  0  0
   21.2448   -6.5543  -14.7499 N   0  0  0  0  0  0  0  0  0  0  0  0
   22.3603   -4.6587  -13.9696 C   0  0  0  0  0  0  0  0  0  0  0  0
   22.8953   -3.5244  -13.9190 O   0  0  0  0  0  0  0  0  0  0  0  0
   22.6794   -5.4597  -12.8460 O   0  0  0  0  0  0  0  0  0  0  0  0
  1  2  1  0
  2  3  1  0
  3  4  1  1
  3  5  1  0
  5  6  2  0
  7  8  1  0
  9  8  1  6
 10  5  1  0
 10  9  1  0
 11 18  1  0
 11  9  1  0
 12 11  2  0
 14 13  1  1
 14 15  1  0
 17 16  1  1
 16 14  1  0
 17 18  1  0
 19 21  1  0
 19 17  1  0
 20 19  2  0
M  END
$$$$
