SSL.pdb
     RDKit          3D

 21 20  0  0  1  0  0  0  0  0999 V2000
   18.4647  -16.0736  -16.1995 O   0  0  0  0  0  0  0  0  0  0  0  0
   19.1569  -15.1410  -16.9326 C   0  0  0  0  0  0  0  0  0  0  0  0
   18.3152  -13.9425  -17.3195 C   0  0  2  0  0  0  0  0  0  0  0  0
   17.2943  -14.3242  -18.2760 N   0  0  0  0  0  0  0  0  0  0  0  0
   19.1101  -12.8451  -17.8994 C   0  0  0  0  0  0  0  0  0  0  0  0
   19.0707  -12.6440  -19.1314 O   0  0  0  0  0  0  0  0  0  0  0  0
   20.2240   -8.8207  -18.8668 O   0  0  0  0  0  0  0  0  0  0  0  0
   19.6591  -10.0205  -18.4460 C   0  0  0  0  0  0  0  0  0  0  0  0
   20.6039  -10.8375  -17.6244 C   0  0  2  0  0  0  0  0  0  0  0  0
   19.9173  -12.0124  -17.0986 N   0  0  0  0  0  0  0  0  0  0  0  0
   21.2904  -10.1020  -16.5619 C   0  0  0  0  0  0  0  0  0  0  0  0
   20.7120  -10.0357  -15.4340 O   0  0  0  0  0  0  0  0  0  0  0  0
   26.7577   -9.9203  -16.1223 C   0  0  0  0  0  0  0  0  0  0  0  0
   25.2549  -10.0119  -15.8195 C   0  0  1  0  0  0  0  0  0  0  0  0
   25.1877  -10.5785  -14.3969 C   0  0  0  0  0  0  0  0  0  0  0  0
   24.6471   -8.6397  -15.7625 C   0  0  0  0  0  0  0  0  0  0  0  0
   23.1823   -8.7061  -15.6089 C   0  0  2  0  0  0  0  0  0  0  0  0
   22.5264   -9.4632  -16.6697 N   0  0  0  0  0  0  0  0  0  0  0  0
   22.5962   -7.3451  -15.6921 C   0  0  0  0  0  0  0  0  0  0  0  0
   22.1210   -6.8191  -16.7279 O   0  0  0  0  0  0  0  0  0  0  0  0
   22.5200   -6.4902  -14.5655 O   0  0  0  0  0  0  0  0  0  0  0  0
  1  2  1  0
  2  3  1  0
  3  4  1  6
  3  5  1  0
  5  6  2  0
  7  8  1  0
  9  8  1  1
 10  5  1  0
 10  9  1  0
 11 18  1  0
 11  9  1  0
 12 11  2  0
 14 13  1  1
 14 15  1  0
 17 16  1  6
 16 14  1  0
 17 18  1  0
 19 21  1  0
 19 17  1  0
 20 19  2  0
M  END
$$$$
