SSL.pdb
     RDKit          3D

 21 20  0  0  1  0  0  0  0  0999 V2000
   15.7367  -12.0113  -15.7560 O   0  0  0  0  0  0  0  0  0  0  0  0
   16.9269  -11.3837  -15.4805 C   0  0  0  0  0  0  0  0  0  0  0  0
   17.6244  -10.8586  -16.7183 C   0  0  2  0  0  0  0  0  0  0  0  0
   17.8810  -11.9361  -17.6543 N   0  0  0  0  0  0  0  0  0  0  0  0
   18.9023  -10.1886  -16.4172 C   0  0  0  0  0  0  0  0  0  0  0  0
   19.3654  -10.2439  -15.2586 O   0  0  0  0  0  0  0  0  0  0  0  0
   21.9828   -9.3582  -19.1156 O   0  0  0  0  0  0  0  0  0  0  0  0
   21.4801   -8.2877  -18.3829 C   0  0  0  0  0  0  0  0  0  0  0  0
   20.8294   -8.7245  -17.1098 C   0  0  2  0  0  0  0  0  0  0  0  0
   19.6195   -9.4841  -17.4049 N   0  0  0  0  0  0  0  0  0  0  0  0
   20.5631   -7.6491  -16.1539 C   0  0  0  0  0  0  0  0  0  0  0  0
   19.4445   -7.0559  -16.2437 O   0  0  0  0  0  0  0  0  0  0  0  0
   20.2328   -8.0344  -10.9840 C   0  0  0  0  0  0  0  0  0  0  0  0
   20.1660   -7.6346  -12.4653 C   0  0  1  0  0  0  0  0  0  0  0  0
   18.8157   -6.9232  -12.6064 C   0  0  0  0  0  0  0  0  0  0  0  0
   21.2219   -6.6142  -12.7808 C   0  0  0  0  0  0  0  0  0  0  0  0
   21.1294   -6.1592  -14.1801 C   0  0  2  0  0  0  0  0  0  0  0  0
   21.4248   -7.2106  -15.1476 N   0  0  0  0  0  0  0  0  0  0  0  0
   22.1382   -5.1031  -14.4433 C   0  0  0  0  0  0  0  0  0  0  0  0
   23.0990   -5.1977  -15.2454 O   0  0  0  0  0  0  0  0  0  0  0  0
   22.1015   -3.8491  -13.7861 O   0  0  0  0  0  0  0  0  0  0  0  0
  1  2  1  0
  2  3  1  0
  3  4  1  6
  3  5  1  0
  5  6  2  0
  7  8  1  0
  9  8  1  6
 10  5  1  0
 10  9  1  0
 11 18  1  0
 11  9  1  0
 12 11  2  0
 14 13  1  1
 14 15  1  0
 17 16  1  1
 16 14  1  0
 17 18  1  0
 19 21  1  0
 19 17  1  0
 20 19  2  0
M  END
$$$$
