SSL.pdb
     RDKit          3D

 21 20  0  0  1  0  0  0  0  0999 V2000
   28.0732  -23.5821  -16.1665 O   0  0  0  0  0  0  0  0  0  0  0  0
   28.9420  -22.7919  -16.8787 C   0  0  0  0  0  0  0  0  0  0  0  0
   28.2522  -21.6641  -17.6183 C   0  0  2  0  0  0  0  0  0  0  0  0
   29.2073  -20.9169  -18.4134 N   0  0  0  0  0  0  0  0  0  0  0  0
   27.5598  -20.7251  -16.7176 C   0  0  0  0  0  0  0  0  0  0  0  0
   28.1882  -19.7565  -16.2411 O   0  0  0  0  0  0  0  0  0  0  0  0
   23.6273  -19.7419  -16.9702 O   0  0  0  0  0  0  0  0  0  0  0  0
   24.6241  -19.0600  -16.2797 C   0  0  0  0  0  0  0  0  0  0  0  0
   25.4961  -19.9779  -15.4846 C   0  0  2  0  0  0  0  0  0  0  0  0
   26.2022  -20.8903  -16.3774 N   0  0  0  0  0  0  0  0  0  0  0  0
   24.8117  -20.7037  -14.4141 C   0  0  0  0  0  0  0  0  0  0  0  0
   24.2622  -21.8065  -14.7190 O   0  0  0  0  0  0  0  0  0  0  0  0
   26.0395  -19.9144   -9.0301 C   0  0  0  0  0  0  0  0  0  0  0  0
   25.7498  -20.4777  -10.4291 C   0  0  1  0  0  0  0  0  0  0  0  0
   26.2178  -21.9355  -10.3562 C   0  0  0  0  0  0  0  0  0  0  0  0
   24.2699  -20.5158  -10.6827 C   0  0  0  0  0  0  0  0  0  0  0  0
   23.9691  -21.0056  -12.0403 C   0  0  2  0  0  0  0  0  0  0  0  0
   24.7045  -20.2982  -13.0831 N   0  0  0  0  0  0  0  0  0  0  0  0
   22.5379  -20.7793  -12.3613 C   0  0  0  0  0  0  0  0  0  0  0  0
   22.0882  -19.8369  -13.0577 O   0  0  0  0  0  0  0  0  0  0  0  0
   21.5174  -21.6412  -11.8906 O   0  0  0  0  0  0  0  0  0  0  0  0
  1  2  1  0
  2  3  1  0
  3  4  1  1
  3  5  1  0
  5  6  2  0
  7  8  1  0
  9  8  1  6
 10  5  1  0
 10  9  1  0
 11 18  1  0
 11  9  1  0
 12 11  2  0
 14 13  1  1
 14 15  1  0
 17 16  1  1
 16 14  1  0
 17 18  1  0
 19 21  1  0
 19 17  1  0
 20 19  2  0
M  END
$$$$
