SSL.pdb
     RDKit          3D

 21 20  0  0  1  0  0  0  0  0999 V2000
   17.1827  -14.4247  -17.2039 O   0  0  0  0  0  0  0  0  0  0  0  0
   16.1057  -14.0626  -16.4324 C   0  0  0  0  0  0  0  0  0  0  0  0
   15.2083  -13.0428  -17.1026 C   0  0  2  0  0  0  0  0  0  0  0  0
   14.6704  -13.5728  -18.3405 N   0  0  0  0  0  0  0  0  0  0  0  0
   15.9002  -11.7758  -17.3999 C   0  0  0  0  0  0  0  0  0  0  0  0
   15.7419  -11.2379  -18.5160 O   0  0  0  0  0  0  0  0  0  0  0  0
   16.9070   -7.5591  -17.1476 O   0  0  0  0  0  0  0  0  0  0  0  0
   16.3565   -8.8301  -17.0176 C   0  0  0  0  0  0  0  0  0  0  0  0
   17.3862   -9.8672  -16.7024 C   0  0  2  0  0  0  0  0  0  0  0  0
   16.7393  -11.1512  -16.4554 N   0  0  0  0  0  0  0  0  0  0  0  0
   18.3026   -9.5152  -15.6173 C   0  0  0  0  0  0  0  0  0  0  0  0
   18.2190  -10.1888  -14.5448 O   0  0  0  0  0  0  0  0  0  0  0  0
   22.4060   -9.9464  -12.9543 C   0  0  0  0  0  0  0  0  0  0  0  0
   22.6589   -9.6273  -14.4350 C   0  0  1  0  0  0  0  0  0  0  0  0
   23.5111  -10.7988  -14.9360 C   0  0  0  0  0  0  0  0  0  0  0  0
   21.3722   -9.6732  -15.2083 C   0  0  0  0  0  0  0  0  0  0  0  0
   20.5197   -8.5095  -14.9037 C   0  0  2  0  0  0  0  0  0  0  0  0
   19.2650   -8.5051  -15.6483 N   0  0  0  0  0  0  0  0  0  0  0  0
   21.2047   -7.2544  -15.3015 C   0  0  0  0  0  0  0  0  0  0  0  0
   21.2644   -6.7960  -16.4684 O   0  0  0  0  0  0  0  0  0  0  0  0
   21.8757   -6.4348  -14.3615 O   0  0  0  0  0  0  0  0  0  0  0  0
  1  2  1  0
  2  3  1  0
  3  4  1  6
  3  5  1  0
  5  6  2  0
  7  8  1  0
  9  8  1  1
 10  5  1  0
 10  9  1  0
 11 18  1  0
 11  9  1  0
 12 11  2  0
 14 13  1  1
 14 15  1  0
 17 16  1  6
 16 14  1  0
 17 18  1  0
 19 21  1  0
 19 17  1  0
 20 19  2  0
M  END
$$$$
