CML.pdb
     RDKit          3D

 23 22  0  0  1  0  0  0  0  0999 V2000
   28.4029  -19.8225  -15.4424 N   0  0  0  0  0  0  0  0  0  0  0  0
   28.4078  -20.6909  -14.2904 C   0  0  1  0  0  0  0  0  0  0  0  0
   29.7694  -20.8323  -13.6870 C   0  0  0  0  0  0  0  0  0  0  0  0
   30.7488  -22.0843  -14.5679 S   0  0  0  0  0  0  0  0  0  0  0  0
   27.4652  -20.1552  -13.2625 C   0  0  0  0  0  0  0  0  0  0  0  0
   27.3889  -18.9072  -13.0655 O   0  0  0  0  0  0  0  0  0  0  0  0
   21.4380  -21.5651  -12.6483 C   0  0  0  0  0  0  0  0  0  0  0  0
   21.6073  -20.1191  -11.5806 S   0  0  0  0  0  0  0  0  0  0  0  0
   23.3380  -19.9169  -11.0707 C   0  0  0  0  0  0  0  0  0  0  0  0
   24.2547  -20.5764  -12.0742 C   0  0  0  0  0  0  0  0  0  0  0  0
   25.6632  -20.4194  -11.6039 C   0  0  2  0  0  0  0  0  0  0  0  0
   26.6371  -20.9999  -12.4834 N   0  0  0  0  0  0  0  0  0  0  0  0
   25.8542  -20.9766  -10.2318 C   0  0  0  0  0  0  0  0  0  0  0  0
   25.9727  -22.2228  -10.1285 O   0  0  0  0  0  0  0  0  0  0  0  0
   29.1109  -20.7183   -6.5054 C   0  0  0  0  0  0  0  0  0  0  0  0
   28.0994  -19.6931   -6.7821 C   0  0  2  0  0  0  0  0  0  0  0  0
   28.3026  -18.5727   -5.7259 C   0  0  0  0  0  0  0  0  0  0  0  0
   26.6731  -19.9706   -6.8030 C   0  0  0  0  0  0  0  0  0  0  0  0
   26.0050  -20.8441   -7.7601 C   0  0  2  0  0  0  0  0  0  0  0  0
   25.9044  -20.1792   -9.0854 N   0  0  0  0  0  0  0  0  0  0  0  0
   24.6970  -21.3898   -7.4398 C   0  0  0  0  0  0  0  0  0  0  0  0
   23.6086  -20.8831   -7.9316 O   0  0  0  0  0  0  0  0  0  0  0  0
   24.5637  -22.4802   -6.5986 O   0  0  0  0  0  0  0  0  0  0  0  0
  2  1  1  6
  2  3  1  0
  2  5  1  0
  4  3  1  0
  5  6  2  0
  5 12  1  0
  7  8  1  0
  9 10  1  0
  9  8  1  0
 11 10  1  6
 11 13  1  0
 12 11  1  0
 13 20  1  0
 13 14  2  0
 16 17  1  1
 16 15  1  0
 16 18  1  0
 19 18  1  1
 19 21  1  0
 20 19  1  0
 21 23  1  0
 22 21  2  0
M  END
$$$$
