CML.pdb
     RDKit          3D

 23 22  0  0  1  0  0  0  0  0999 V2000
   13.3565  -21.7132    0.2854 N   0  0  0  0  0  0  0  0  0  0  0  0
   14.6149  -21.8291    0.9811 C   0  0  1  0  0  0  0  0  0  0  0  0
   15.7878  -21.5792    0.0867 C   0  0  0  0  0  0  0  0  0  0  0  0
   16.0493  -22.9698   -1.0536 S   0  0  0  0  0  0  0  0  0  0  0  0
   14.6440  -20.8586    2.1167 C   0  0  0  0  0  0  0  0  0  0  0  0
   13.9677  -19.7906    2.0517 O   0  0  0  0  0  0  0  0  0  0  0  0
   16.3742  -21.8977    8.5172 C   0  0  0  0  0  0  0  0  0  0  0  0
   15.0654  -20.6568    8.4369 S   0  0  0  0  0  0  0  0  0  0  0  0
   15.0601  -19.8573    6.8069 C   0  0  0  0  0  0  0  0  0  0  0  0
   15.3604  -20.8734    5.7300 C   0  0  0  0  0  0  0  0  0  0  0  0
   15.2787  -20.1948    4.4024 C   0  0  2  0  0  0  0  0  0  0  0  0
   15.4107  -21.0861    3.2857 N   0  0  0  0  0  0  0  0  0  0  0  0
   16.2898  -19.1033    4.2753 C   0  0  0  0  0  0  0  0  0  0  0  0
   17.4124  -19.4115    3.8036 O   0  0  0  0  0  0  0  0  0  0  0  0
   17.2448  -13.3760    2.8369 C   0  0  0  0  0  0  0  0  0  0  0  0
   17.7684  -14.6273    3.3945 C   0  0  2  0  0  0  0  0  0  0  0  0
   18.9423  -15.0652    2.4768 C   0  0  0  0  0  0  0  0  0  0  0  0
   16.9502  -15.8119    3.5918 C   0  0  0  0  0  0  0  0  0  0  0  0
   17.1600  -16.8091    4.6343 C   0  0  2  0  0  0  0  0  0  0  0  0
   16.0369  -17.7822    4.6537 N   0  0  0  0  0  0  0  0  0  0  0  0
   17.3935  -16.3773    6.0020 C   0  0  0  0  0  0  0  0  0  0  0  0
   18.5899  -16.1508    6.4498 O   0  0  0  0  0  0  0  0  0  0  0  0
   16.3419  -16.1845    6.8802 O   0  0  0  0  0  0  0  0  0  0  0  0
  2  1  1  6
  2  3  1  0
  2  5  1  0
  4  3  1  0
  5  6  2  0
  5 12  1  0
  7  8  1  0
  9 10  1  0
  9  8  1  0
 11 10  1  1
 11 13  1  0
 12 11  1  0
 13 20  1  0
 13 14  2  0
 16 17  1  6
 16 15  1  0
 16 18  1  0
 19 18  1  6
 19 21  1  0
 20 19  1  0
 21 23  1  0
 22 21  2  0
M  END
$$$$
