CML.pdb
     RDKit          3D

 23 22  0  0  1  0  0  0  0  0999 V2000
   14.8250  -13.1448  -13.3386 N   0  0  0  0  0  0  0  0  0  0  0  0
   15.8326  -12.8122  -12.3613 C   0  0  1  0  0  0  0  0  0  0  0  0
   17.1173  -13.5430  -12.5932 C   0  0  0  0  0  0  0  0  0  0  0  0
   17.0300  -15.2403  -11.9499 S   0  0  0  0  0  0  0  0  0  0  0  0
   16.0883  -11.3406  -12.3949 C   0  0  0  0  0  0  0  0  0  0  0  0
   16.1216  -10.7310  -13.5038 O   0  0  0  0  0  0  0  0  0  0  0  0
   16.0785   -6.4366   -7.4820 C   0  0  0  0  0  0  0  0  0  0  0  0
   15.2323   -6.0095   -9.0185 S   0  0  0  0  0  0  0  0  0  0  0  0
   15.9440   -6.9411  -10.4048 C   0  0  0  0  0  0  0  0  0  0  0  0
   15.7902   -8.4248  -10.1657 C   0  0  0  0  0  0  0  0  0  0  0  0
   16.4190   -9.1561  -11.3058 C   0  0  2  0  0  0  0  0  0  0  0  0
   16.2995  -10.5832  -11.2168 N   0  0  0  0  0  0  0  0  0  0  0  0
   17.8598   -8.7980  -11.4660 C   0  0  0  0  0  0  0  0  0  0  0  0
   18.6806   -9.3593  -10.6985 O   0  0  0  0  0  0  0  0  0  0  0  0
   21.9902  -10.0380  -14.8582 C   0  0  0  0  0  0  0  0  0  0  0  0
   21.6569   -9.2006  -13.7013 C   0  0  2  0  0  0  0  0  0  0  0  0
   22.4537   -9.7708  -12.4963 C   0  0  0  0  0  0  0  0  0  0  0  0
   20.2969   -9.0068  -13.2273 C   0  0  0  0  0  0  0  0  0  0  0  0
   19.7795   -7.7708  -12.6531 C   0  0  2  0  0  0  0  0  0  0  0  0
   18.3164   -7.8820  -12.4174 N   0  0  0  0  0  0  0  0  0  0  0  0
   20.0225   -6.5091  -13.3317 C   0  0  0  0  0  0  0  0  0  0  0  0
   21.2105   -5.9928  -13.4046 O   0  0  0  0  0  0  0  0  0  0  0  0
   18.9909   -5.8110  -13.9340 O   0  0  0  0  0  0  0  0  0  0  0  0
  2  1  1  6
  2  3  1  0
  2  5  1  0
  4  3  1  0
  5  6  2  0
  5 12  1  0
  7  8  1  0
  9 10  1  0
  9  8  1  0
 11 10  1  1
 11 13  1  0
 12 11  1  0
 13 20  1  0
 13 14  2  0
 16 17  1  1
 16 15  1  0
 16 18  1  0
 19 18  1  6
 19 21  1  0
 20 19  1  0
 21 23  1  0
 22 21  2  0
M  END
$$$$
