CML.pdb
     RDKit          3D

 23 22  0  0  1  0  0  0  0  0999 V2000
   17.3447  -14.0690  -16.8735 N   0  0  0  0  0  0  0  0  0  0  0  0
   16.9226  -12.8063  -16.3181 C   0  0  1  0  0  0  0  0  0  0  0  0
   16.8468  -12.8355  -14.8243 C   0  0  0  0  0  0  0  0  0  0  0  0
   15.3640  -13.7226  -14.2614 S   0  0  0  0  0  0  0  0  0  0  0  0
   17.8736  -11.7354  -16.7437 C   0  0  0  0  0  0  0  0  0  0  0  0
   19.1170  -11.9706  -16.7720 O   0  0  0  0  0  0  0  0  0  0  0  0
   16.7027   -5.6568  -19.5215 C   0  0  0  0  0  0  0  0  0  0  0  0
   18.1799   -6.3838  -20.2621 S   0  0  0  0  0  0  0  0  0  0  0  0
   18.8767   -7.6461  -19.1586 C   0  0  0  0  0  0  0  0  0  0  0  0
   17.7698   -8.4917  -18.5739 C   0  0  0  0  0  0  0  0  0  0  0  0
   18.3795   -9.5078  -17.6652 C   0  0  2  0  0  0  0  0  0  0  0  0
   17.4357  -10.4433  -17.1239 N   0  0  0  0  0  0  0  0  0  0  0  0
   19.1283   -8.8682  -16.5427 C   0  0  0  0  0  0  0  0  0  0  0  0
   18.4866   -8.6180  -15.4923 O   0  0  0  0  0  0  0  0  0  0  0  0
   21.7780  -10.1586  -12.9851 C   0  0  0  0  0  0  0  0  0  0  0  0
   22.3189  -10.0318  -14.3423 C   0  0  2  0  0  0  0  0  0  0  0  0
   23.7958  -10.5082  -14.2778 C   0  0  0  0  0  0  0  0  0  0  0  0
   22.3337   -8.7780  -15.0768 C   0  0  0  0  0  0  0  0  0  0  0  0
   21.1532   -7.9909  -15.4117 C   0  0  2  0  0  0  0  0  0  0  0  0
   20.4858   -8.5459  -16.6179 N   0  0  0  0  0  0  0  0  0  0  0  0
   21.2788   -6.5553  -15.5981 C   0  0  0  0  0  0  0  0  0  0  0  0
   21.5757   -5.7641  -14.6136 O   0  0  0  0  0  0  0  0  0  0  0  0
   21.0917   -5.9766  -16.8408 O   0  0  0  0  0  0  0  0  0  0  0  0
  2  1  1  1
  2  3  1  0
  2  5  1  0
  4  3  1  0
  5  6  2  0
  5 12  1  0
  7  8  1  0
  9 10  1  0
  9  8  1  0
 11 10  1  1
 11 13  1  0
 12 11  1  0
 13 20  1  0
 13 14  2  0
 16 17  1  1
 16 15  1  0
 16 18  1  0
 19 18  1  6
 19 21  1  0
 20 19  1  0
 21 23  1  0
 22 21  2  0
M  END
$$$$
