CML.pdb
     RDKit          3D

 23 22  0  0  1  0  0  0  0  0999 V2000
   22.7473  -33.7653  -14.7474 N   0  0  0  0  0  0  0  0  0  0  0  0
   22.8417  -32.6098  -13.8888 C   0  0  1  0  0  0  0  0  0  0  0  0
   21.8069  -31.5767  -14.2047 C   0  0  0  0  0  0  0  0  0  0  0  0
   22.2758  -30.6069  -15.6683 S   0  0  0  0  0  0  0  0  0  0  0  0
   22.6941  -33.0376  -12.4649 C   0  0  0  0  0  0  0  0  0  0  0  0
   21.9984  -34.0562  -12.1809 O   0  0  0  0  0  0  0  0  0  0  0  0
   26.4490  -32.9105   -6.8343 C   0  0  0  0  0  0  0  0  0  0  0  0
   26.9698  -32.7391   -8.5543 S   0  0  0  0  0  0  0  0  0  0  0  0
   25.5853  -33.1131   -9.6677 C   0  0  0  0  0  0  0  0  0  0  0  0
   24.3230  -32.4523   -9.1655 C   0  0  0  0  0  0  0  0  0  0  0  0
   23.1942  -32.8452  -10.0606 C   0  0  2  0  0  0  0  0  0  0  0  0
   23.3106  -32.3390  -11.3982 N   0  0  0  0  0  0  0  0  0  0  0  0
   21.8732  -32.4344   -9.4987 C   0  0  0  0  0  0  0  0  0  0  0  0
   21.6081  -31.2067   -9.4913 O   0  0  0  0  0  0  0  0  0  0  0  0
   18.1388  -31.9865  -11.2507 C   0  0  0  0  0  0  0  0  0  0  0  0
   18.2969  -33.2749  -10.5682 C   0  0  2  0  0  0  0  0  0  0  0  0
   17.0096  -34.0930  -10.8607 C   0  0  0  0  0  0  0  0  0  0  0  0
   18.5307  -33.3925   -9.1388 C   0  0  0  0  0  0  0  0  0  0  0  0
   19.6707  -32.8259   -8.4284 C   0  0  2  0  0  0  0  0  0  0  0  0
   20.9432  -33.3464   -8.9927 N   0  0  0  0  0  0  0  0  0  0  0  0
   19.7464  -32.9484   -6.9825 C   0  0  0  0  0  0  0  0  0  0  0  0
   18.7719  -32.5686   -6.2149 O   0  0  0  0  0  0  0  0  0  0  0  0
   20.8645  -33.4836   -6.3679 O   0  0  0  0  0  0  0  0  0  0  0  0
  2  1  1  6
  2  3  1  0
  2  5  1  0
  4  3  1  0
  5  6  2  0
  5 12  1  0
  7  8  1  0
  9 10  1  0
  9  8  1  0
 11 10  1  1
 11 13  1  0
 12 11  1  0
 13 20  1  0
 13 14  2  0
 16 17  1  1
 16 15  1  0
 16 18  1  0
 19 18  1  6
 19 21  1  0
 20 19  1  0
 21 23  1  0
 22 21  2  0
M  END
$$$$
