CML.pdb
     RDKit          3D

 23 22  0  0  1  0  0  0  0  0999 V2000
   28.4106  -22.8243  -16.5185 N   0  0  0  0  0  0  0  0  0  0  0  0
   27.9848  -21.4683  -16.2710 C   0  0  1  0  0  0  0  0  0  0  0  0
   27.3779  -20.8300  -17.4802 C   0  0  0  0  0  0  0  0  0  0  0  0
   28.6471  -20.4391  -18.7206 S   0  0  0  0  0  0  0  0  0  0  0  0
   26.9913  -21.4571  -15.1551 C   0  0  0  0  0  0  0  0  0  0  0  0
   26.0117  -22.2585  -15.1744 O   0  0  0  0  0  0  0  0  0  0  0  0
   24.3028  -21.7116   -8.6830 C   0  0  0  0  0  0  0  0  0  0  0  0
   25.6623  -21.4150   -9.8332 S   0  0  0  0  0  0  0  0  0  0  0  0
   25.3392  -19.9205  -10.8121 C   0  0  0  0  0  0  0  0  0  0  0  0
   26.4215  -19.7362  -11.8498 C   0  0  0  0  0  0  0  0  0  0  0  0
   26.0949  -20.5884  -13.0316 C   0  0  2  0  0  0  0  0  0  0  0  0
   27.1001  -20.5712  -14.0554 N   0  0  0  0  0  0  0  0  0  0  0  0
   24.7802  -20.2179  -13.6350 C   0  0  0  0  0  0  0  0  0  0  0  0
   24.7226  -19.1340  -14.2671 O   0  0  0  0  0  0  0  0  0  0  0  0
   22.3853  -19.3729  -17.2306 C   0  0  0  0  0  0  0  0  0  0  0  0
   22.6713  -20.7036  -16.6843 C   0  0  2  0  0  0  0  0  0  0  0  0
   22.2015  -21.7312  -17.7499 C   0  0  0  0  0  0  0  0  0  0  0  0
   22.1407  -21.1712  -15.4149 C   0  0  0  0  0  0  0  0  0  0  0  0
   22.3695  -20.5301  -14.1257 C   0  0  2  0  0  0  0  0  0  0  0  0
   23.6385  -21.0159  -13.5238 N   0  0  0  0  0  0  0  0  0  0  0  0
   21.3415  -20.5955  -13.1008 C   0  0  0  0  0  0  0  0  0  0  0  0
   20.1814  -20.0379  -13.2634 O   0  0  0  0  0  0  0  0  0  0  0  0
   21.5610  -21.2641  -11.9097 O   0  0  0  0  0  0  0  0  0  0  0  0
  2  1  1  6
  2  3  1  0
  2  5  1  0
  4  3  1  0
  5  6  2  0
  5 12  1  0
  7  8  1  0
  9 10  1  0
  9  8  1  0
 11 10  1  1
 11 13  1  0
 12 11  1  0
 13 20  1  0
 13 14  2  0
 16 17  1  6
 16 15  1  0
 16 18  1  0
 19 18  1  6
 19 21  1  0
 20 19  1  0
 21 23  1  0
 22 21  2  0
M  END
$$$$
