CML.pdb
     RDKit          3D

 23 22  0  0  1  0  0  0  0  0999 V2000
   25.7339  -22.5692  -11.5266 N   0  0  0  0  0  0  0  0  0  0  0  0
   25.0280  -21.3111  -11.5306 C   0  0  1  0  0  0  0  0  0  0  0  0
   25.8948  -20.1679  -11.1066 C   0  0  0  0  0  0  0  0  0  0  0  0
   25.8545  -19.9497   -9.3029 S   0  0  0  0  0  0  0  0  0  0  0  0
   24.4962  -21.0461  -12.9014 C   0  0  0  0  0  0  0  0  0  0  0  0
   25.1634  -21.4014  -13.9167 O   0  0  0  0  0  0  0  0  0  0  0  0
   18.2889  -21.2226  -14.7798 C   0  0  0  0  0  0  0  0  0  0  0  0
   19.0306  -20.2733  -16.1244 S   0  0  0  0  0  0  0  0  0  0  0  0
   20.8406  -20.2975  -15.9834 C   0  0  0  0  0  0  0  0  0  0  0  0
   21.2471  -20.3165  -14.5285 C   0  0  0  0  0  0  0  0  0  0  0  0
   22.7382  -20.2913  -14.4529 C   0  0  2  0  0  0  0  0  0  0  0  0
   23.2538  -20.4016  -13.1184 N   0  0  0  0  0  0  0  0  0  0  0  0
   23.3045  -19.0668  -15.0930 C   0  0  0  0  0  0  0  0  0  0  0  0
   23.3720  -18.0287  -14.3890 O   0  0  0  0  0  0  0  0  0  0  0  0
   27.1317  -16.5646  -18.4068 C   0  0  0  0  0  0  0  0  0  0  0  0
   26.9124  -16.9845  -17.0189 C   0  0  2  0  0  0  0  0  0  0  0  0
   28.2668  -17.5448  -16.5054 C   0  0  0  0  0  0  0  0  0  0  0  0
   25.9040  -17.9576  -16.6340 C   0  0  0  0  0  0  0  0  0  0  0  0
   24.4755  -17.8294  -16.8950 C   0  0  2  0  0  0  0  0  0  0  0  0
   23.7514  -19.0358  -16.4166 N   0  0  0  0  0  0  0  0  0  0  0  0
   24.0165  -17.5454  -18.2441 C   0  0  0  0  0  0  0  0  0  0  0  0
   23.8981  -16.3296  -18.6813 O   0  0  0  0  0  0  0  0  0  0  0  0
   23.6930  -18.5670  -19.1192 O   0  0  0  0  0  0  0  0  0  0  0  0
  2  1  1  6
  2  3  1  0
  2  5  1  0
  4  3  1  0
  5  6  2  0
  5 12  1  0
  7  8  1  0
  9 10  1  0
  9  8  1  0
 11 10  1  1
 11 13  1  0
 12 11  1  0
 13 20  1  0
 13 14  2  0
 16 17  1  6
 16 15  1  0
 16 18  1  0
 19 18  1  6
 19 21  1  0
 20 19  1  0
 21 23  1  0
 22 21  2  0
M  END
$$$$
