CML.pdb
     RDKit          3D

 23 22  0  0  1  0  0  0  0  0999 V2000
   28.3834  -21.3056  -15.9237 N   0  0  0  0  0  0  0  0  0  0  0  0
   27.9743  -20.2082  -15.0814 C   0  0  1  0  0  0  0  0  0  0  0  0
   27.3319  -19.1014  -15.8562 C   0  0  0  0  0  0  0  0  0  0  0  0
   28.5601  -18.1933  -16.8409 S   0  0  0  0  0  0  0  0  0  0  0  0
   27.0180  -20.7073  -14.0476 C   0  0  0  0  0  0  0  0  0  0  0  0
   26.2516  -21.6790  -14.3137 O   0  0  0  0  0  0  0  0  0  0  0  0
   27.2677  -20.5847   -7.2984 C   0  0  0  0  0  0  0  0  0  0  0  0
   25.5366  -20.3982   -7.7754 S   0  0  0  0  0  0  0  0  0  0  0  0
   25.2973  -20.9458   -9.4898 C   0  0  0  0  0  0  0  0  0  0  0  0
   26.2016  -20.1651  -10.4145 C   0  0  0  0  0  0  0  0  0  0  0  0
   25.9921  -20.6570  -11.8087 C   0  0  2  0  0  0  0  0  0  0  0  0
   26.9298  -20.1289  -12.7578 N   0  0  0  0  0  0  0  0  0  0  0  0
   24.6058  -20.3818  -12.2906 C   0  0  0  0  0  0  0  0  0  0  0  0
   24.3659  -19.2272  -12.7231 O   0  0  0  0  0  0  0  0  0  0  0  0
   21.0076  -22.2226  -16.4373 C   0  0  0  0  0  0  0  0  0  0  0  0
   21.3357  -21.3290  -15.3217 C   0  0  2  0  0  0  0  0  0  0  0  0
   21.9676  -20.0545  -15.9451 C   0  0  0  0  0  0  0  0  0  0  0  0
   22.2091  -21.7148  -14.2262 C   0  0  0  0  0  0  0  0  0  0  0  0
   22.3017  -21.0223  -12.9467 C   0  0  2  0  0  0  0  0  0  0  0  0
   23.5898  -21.3410  -12.2774 N   0  0  0  0  0  0  0  0  0  0  0  0
   21.2424  -21.1856  -11.9656 C   0  0  0  0  0  0  0  0  0  0  0  0
   21.4699  -21.7017  -10.7972 O   0  0  0  0  0  0  0  0  0  0  0  0
   19.9458  -20.7886  -12.2406 O   0  0  0  0  0  0  0  0  0  0  0  0
  2  1  1  6
  2  3  1  0
  2  5  1  0
  4  3  1  0
  5  6  2  0
  5 12  1  0
  7  8  1  0
  9 10  1  0
  9  8  1  0
 11 10  1  1
 11 13  1  0
 12 11  1  0
 13 20  1  0
 13 14  2  0
 16 17  1  6
 16 15  1  0
 16 18  1  0
 19 18  1  6
 19 21  1  0
 20 19  1  0
 21 23  1  0
 22 21  2  0
M  END
$$$$
