CML.pdb
     RDKit          3D

 23 22  0  0  1  0  0  0  0  0999 V2000
   27.8024  -19.5963  -15.6066 N   0  0  0  0  0  0  0  0  0  0  0  0
   28.2942  -19.2685  -14.2906 C   0  0  1  0  0  0  0  0  0  0  0  0
   27.5490  -18.1298  -13.6691 C   0  0  0  0  0  0  0  0  0  0  0  0
   26.2385  -17.5249  -14.7733 S   0  0  0  0  0  0  0  0  0  0  0  0
   28.1867  -20.4695  -13.4084 C   0  0  0  0  0  0  0  0  0  0  0  0
   27.3445  -21.3757  -13.6761 O   0  0  0  0  0  0  0  0  0  0  0  0
   32.6122  -22.6268   -9.2017 C   0  0  0  0  0  0  0  0  0  0  0  0
   32.8341  -22.4586  -10.9854 S   0  0  0  0  0  0  0  0  0  0  0  0
   31.2535  -22.0430  -11.7762 C   0  0  0  0  0  0  0  0  0  0  0  0
   30.1139  -22.2796  -10.8132 C   0  0  0  0  0  0  0  0  0  0  0  0
   28.8475  -21.8168  -11.4551 C   0  0  2  0  0  0  0  0  0  0  0  0
   29.0020  -20.6412  -12.2631 N   0  0  0  0  0  0  0  0  0  0  0  0
   27.7719  -21.5763  -10.4477 C   0  0  0  0  0  0  0  0  0  0  0  0
   28.0424  -21.8262   -9.2468 O   0  0  0  0  0  0  0  0  0  0  0  0
   26.4079  -21.1306   -6.5113 C   0  0  0  0  0  0  0  0  0  0  0  0
   26.8924  -20.2508   -7.5800 C   0  0  2  0  0  0  0  0  0  0  0  0
   27.3013  -18.9141   -6.9031 C   0  0  0  0  0  0  0  0  0  0  0  0
   26.0879  -19.8864   -8.7339 C   0  0  0  0  0  0  0  0  0  0  0  0
   25.5300  -20.8291   -9.6959 C   0  0  2  0  0  0  0  0  0  0  0  0
   26.5046  -21.0943  -10.7859 N   0  0  0  0  0  0  0  0  0  0  0  0
   24.2446  -20.5470  -10.3121 C   0  0  0  0  0  0  0  0  0  0  0  0
   24.1326  -20.3355  -11.5872 O   0  0  0  0  0  0  0  0  0  0  0  0
   23.0854  -20.4997   -9.5584 O   0  0  0  0  0  0  0  0  0  0  0  0
  2  1  1  6
  2  3  1  0
  2  5  1  0
  4  3  1  0
  5  6  2  0
  5 12  1  0
  7  8  1  0
  9 10  1  0
  9  8  1  0
 11 10  1  1
 11 13  1  0
 12 11  1  0
 13 20  1  0
 13 14  2  0
 16 17  1  1
 16 15  1  0
 16 18  1  0
 19 18  1  6
 19 21  1  0
 20 19  1  0
 21 23  1  0
 22 21  2  0
M  END
$$$$
