CML.pdb
     RDKit          3D

 23 22  0  0  1  0  0  0  0  0999 V2000
   28.1119  -21.6883  -16.3767 N   0  0  0  0  0  0  0  0  0  0  0  0
   27.5569  -20.5045  -15.7669 C   0  0  1  0  0  0  0  0  0  0  0  0
   26.8961  -19.6046  -16.7627 C   0  0  0  0  0  0  0  0  0  0  0  0
   28.1281  -18.7137  -17.7582 S   0  0  0  0  0  0  0  0  0  0  0  0
   26.5625  -20.9038  -14.7257 C   0  0  0  0  0  0  0  0  0  0  0  0
   25.7316  -21.8275  -14.9679 O   0  0  0  0  0  0  0  0  0  0  0  0
   26.4587  -20.5124   -7.9408 C   0  0  0  0  0  0  0  0  0  0  0  0
   25.5193  -21.5862   -9.0470 S   0  0  0  0  0  0  0  0  0  0  0  0
   24.5958  -20.5898  -10.2514 C   0  0  0  0  0  0  0  0  0  0  0  0
   25.5498  -19.9342  -11.2222 C   0  0  0  0  0  0  0  0  0  0  0  0
   25.5072  -20.6882  -12.5104 C   0  0  2  0  0  0  0  0  0  0  0  0
   26.5079  -20.2811  -13.4547 N   0  0  0  0  0  0  0  0  0  0  0  0
   24.1644  -20.6026  -13.1580 C   0  0  0  0  0  0  0  0  0  0  0  0
   23.8128  -19.4834  -13.6068 O   0  0  0  0  0  0  0  0  0  0  0  0
   21.6668  -21.3226  -17.1173 C   0  0  0  0  0  0  0  0  0  0  0  0
   22.0344  -22.4149  -16.2104 C   0  0  2  0  0  0  0  0  0  0  0  0
   21.5237  -23.7270  -16.8660 C   0  0  0  0  0  0  0  0  0  0  0  0
   21.6110  -22.4695  -14.8213 C   0  0  0  0  0  0  0  0  0  0  0  0
   21.9351  -21.4724  -13.8084 C   0  0  2  0  0  0  0  0  0  0  0  0
   23.3055  -21.6980  -13.2794 N   0  0  0  0  0  0  0  0  0  0  0  0
   21.0477  -21.2912  -12.6721 C   0  0  0  0  0  0  0  0  0  0  0  0
   21.3220  -21.7922  -11.5072 O   0  0  0  0  0  0  0  0  0  0  0  0
   19.8740  -20.5683  -12.7897 O   0  0  0  0  0  0  0  0  0  0  0  0
  2  1  1  6
  2  3  1  0
  2  5  1  0
  4  3  1  0
  5  6  2  0
  5 12  1  0
  7  8  1  0
  9 10  1  0
  9  8  1  0
 11 10  1  1
 11 13  1  0
 12 11  1  0
 13 20  1  0
 13 14  2  0
 16 17  1  6
 16 15  1  0
 16 18  1  0
 19 18  1  1
 19 21  1  0
 20 19  1  0
 21 23  1  0
 22 21  2  0
M  END
$$$$
