CML.pdb
     RDKit          3D

 23 22  0  0  1  0  0  0  0  0999 V2000
   28.2057  -21.5632  -15.9386 N   0  0  0  0  0  0  0  0  0  0  0  0
   27.8243  -20.4395  -15.1184 C   0  0  1  0  0  0  0  0  0  0  0  0
   27.1739  -19.3489  -15.9094 C   0  0  0  0  0  0  0  0  0  0  0  0
   28.3107  -17.9530  -16.1574 S   0  0  0  0  0  0  0  0  0  0  0  0
   26.8872  -20.9014  -14.0503 C   0  0  0  0  0  0  0  0  0  0  0  0
   25.9613  -21.7170  -14.3327 O   0  0  0  0  0  0  0  0  0  0  0  0
   27.2598  -20.0518   -7.4778 C   0  0  0  0  0  0  0  0  0  0  0  0
   25.5193  -20.4552   -7.7374 S   0  0  0  0  0  0  0  0  0  0  0  0
   25.2575  -21.0316   -9.4390 C   0  0  0  0  0  0  0  0  0  0  0  0
   26.3074  -20.4443  -10.3528 C   0  0  0  0  0  0  0  0  0  0  0  0
   25.9922  -20.8457  -11.7561 C   0  0  2  0  0  0  0  0  0  0  0  0
   26.9919  -20.4574  -12.7094 N   0  0  0  0  0  0  0  0  0  0  0  0
   24.6674  -20.3179  -12.1987 C   0  0  0  0  0  0  0  0  0  0  0  0
   24.6150  -19.1108  -12.5422 O   0  0  0  0  0  0  0  0  0  0  0  0
   20.0583  -20.4243  -15.2651 C   0  0  0  0  0  0  0  0  0  0  0  0
   21.4061  -19.8537  -15.1720 C   0  0  2  0  0  0  0  0  0  0  0  0
   22.0147  -19.9179  -16.5995 C   0  0  0  0  0  0  0  0  0  0  0  0
   22.4271  -20.3717  -14.2771 C   0  0  0  0  0  0  0  0  0  0  0  0
   22.2787  -20.5175  -12.8342 C   0  0  2  0  0  0  0  0  0  0  0  0
   23.5111  -21.1011  -12.2432 N   0  0  0  0  0  0  0  0  0  0  0  0
   21.1434  -21.2515  -12.3015 C   0  0  0  0  0  0  0  0  0  0  0  0
   20.0366  -20.6553  -11.9812 O   0  0  0  0  0  0  0  0  0  0  0  0
   21.1992  -22.6221  -12.1211 O   0  0  0  0  0  0  0  0  0  0  0  0
  2  1  1  6
  2  3  1  0
  2  5  1  0
  4  3  1  0
  5  6  2  0
  5 12  1  0
  7  8  1  0
  9 10  1  0
  9  8  1  0
 11 10  1  1
 11 13  1  0
 12 11  1  0
 13 20  1  0
 13 14  2  0
 16 17  1  6
 16 15  1  0
 16 18  1  0
 19 18  1  6
 19 21  1  0
 20 19  1  0
 21 23  1  0
 22 21  2  0
M  END
$$$$
