CML.pdb
     RDKit          3D

 23 22  0  0  1  0  0  0  0  0999 V2000
   19.6930  -14.2669  -16.4251 N   0  0  0  0  0  0  0  0  0  0  0  0
   19.4446  -13.0152  -17.0978 C   0  0  1  0  0  0  0  0  0  0  0  0
   17.9843  -12.7264  -17.2473 C   0  0  0  0  0  0  0  0  0  0  0  0
   17.1596  -14.0147  -18.2285 S   0  0  0  0  0  0  0  0  0  0  0  0
   20.0919  -11.9058  -16.3345 C   0  0  0  0  0  0  0  0  0  0  0  0
   19.8919  -11.7960  -15.0894 O   0  0  0  0  0  0  0  0  0  0  0  0
   26.0891  -10.2943  -14.6137 C   0  0  0  0  0  0  0  0  0  0  0  0
   25.3986   -8.8218  -15.3974 S   0  0  0  0  0  0  0  0  0  0  0  0
   23.5851   -8.8644  -15.3214 C   0  0  0  0  0  0  0  0  0  0  0  0
   23.0550   -9.9701  -16.2037 C   0  0  0  0  0  0  0  0  0  0  0  0
   21.5628   -9.9378  -16.1588 C   0  0  2  0  0  0  0  0  0  0  0  0
   20.9358  -10.9530  -16.9558 N   0  0  0  0  0  0  0  0  0  0  0  0
   21.0255   -8.6037  -16.5606 C   0  0  0  0  0  0  0  0  0  0  0  0
   21.1426   -8.2764  -17.7676 O   0  0  0  0  0  0  0  0  0  0  0  0
   17.7927   -3.8945  -16.0178 C   0  0  0  0  0  0  0  0  0  0  0  0
   17.7554   -5.1914  -16.7015 C   0  0  2  0  0  0  0  0  0  0  0  0
   16.2693   -5.6425  -16.7168 C   0  0  0  0  0  0  0  0  0  0  0  0
   18.5201   -6.3448  -16.2579 C   0  0  0  0  0  0  0  0  0  0  0  0
   19.9734   -6.3952  -16.1544 C   0  0  2  0  0  0  0  0  0  0  0  0
   20.4115   -7.7272  -15.6621 N   0  0  0  0  0  0  0  0  0  0  0  0
   20.6714   -5.3857  -15.3766 C   0  0  0  0  0  0  0  0  0  0  0  0
   21.1194   -5.6338  -14.1845 O   0  0  0  0  0  0  0  0  0  0  0  0
   20.8910   -4.1175  -15.8840 O   0  0  0  0  0  0  0  0  0  0  0  0
  2  1  1  1
  2  3  1  0
  2  5  1  0
  4  3  1  0
  5  6  2  0
  5 12  1  0
  7  8  1  0
  9 10  1  0
  9  8  1  0
 11 10  1  6
 11 13  1  0
 12 11  1  0
 13 20  1  0
 13 14  2  0
 16 17  1  1
 16 15  1  0
 16 18  1  0
 19 18  1  1
 19 21  1  0
 20 19  1  0
 21 23  1  0
 22 21  2  0
M  END
$$$$
