CML.pdb
     RDKit          3D

 23 22  0  0  1  0  0  0  0  0999 V2000
   14.7829  -22.0452    0.5268 N   0  0  0  0  0  0  0  0  0  0  0  0
   15.5912  -21.9745    1.7197 C   0  0  1  0  0  0  0  0  0  0  0  0
   17.0555  -21.9319    1.4164 C   0  0  0  0  0  0  0  0  0  0  0  0
   17.6629  -23.5624    0.8915 S   0  0  0  0  0  0  0  0  0  0  0  0
   15.2133  -20.7594    2.5026 C   0  0  0  0  0  0  0  0  0  0  0  0
   14.6485  -19.7859    1.9233 O   0  0  0  0  0  0  0  0  0  0  0  0
   11.7413  -20.8521    7.5654 C   0  0  0  0  0  0  0  0  0  0  0  0
   12.2593  -19.1231    7.6063 S   0  0  0  0  0  0  0  0  0  0  0  0
   13.2410  -18.7288    6.1309 C   0  0  0  0  0  0  0  0  0  0  0  0
   14.2240  -19.8409    5.8497 C   0  0  0  0  0  0  0  0  0  0  0  0
   14.9806  -19.5018    4.6078 C   0  0  2  0  0  0  0  0  0  0  0  0
   15.4648  -20.6472    3.8919 N   0  0  0  0  0  0  0  0  0  0  0  0
   16.1251  -18.5851    4.8896 C   0  0  0  0  0  0  0  0  0  0  0  0
   17.2505  -19.1109    5.0763 O   0  0  0  0  0  0  0  0  0  0  0  0
   18.5681  -15.4758    2.3136 C   0  0  0  0  0  0  0  0  0  0  0  0
   17.3373  -15.0588    2.9935 C   0  0  2  0  0  0  0  0  0  0  0  0
   17.1064  -13.5692    2.6191 C   0  0  0  0  0  0  0  0  0  0  0  0
   17.1584  -15.1429    4.4331 C   0  0  0  0  0  0  0  0  0  0  0  0
   17.2031  -16.3751    5.2109 C   0  0  2  0  0  0  0  0  0  0  0  0
   15.9915  -17.1955    4.9514 N   0  0  0  0  0  0  0  0  0  0  0  0
   17.3900  -16.3071    6.6503 C   0  0  0  0  0  0  0  0  0  0  0  0
   16.4177  -16.5461    7.4753 O   0  0  0  0  0  0  0  0  0  0  0  0
   18.6205  -15.9893    7.1972 O   0  0  0  0  0  0  0  0  0  0  0  0
  2  1  1  6
  2  3  1  0
  2  5  1  0
  4  3  1  0
  5  6  2  0
  5 12  1  0
  7  8  1  0
  9 10  1  0
  9  8  1  0
 11 10  1  1
 11 13  1  0
 12 11  1  0
 13 20  1  0
 13 14  2  0
 16 17  1  1
 16 15  1  0
 16 18  1  0
 19 18  1  1
 19 21  1  0
 20 19  1  0
 21 23  1  0
 22 21  2  0
M  END
$$$$
