CML.pdb
     RDKit          3D

 23 22  0  0  1  0  0  0  0  0999 V2000
   26.8847  -20.5011  -16.2984 N   0  0  0  0  0  0  0  0  0  0  0  0
   27.3880  -21.1343  -15.1038 C   0  0  1  0  0  0  0  0  0  0  0  0
   28.8805  -21.0835  -15.0152 C   0  0  0  0  0  0  0  0  0  0  0  0
   29.6400  -22.4082  -16.0005 S   0  0  0  0  0  0  0  0  0  0  0  0
   26.7989  -20.4668  -13.9039 C   0  0  0  0  0  0  0  0  0  0  0  0
   26.7298  -19.2039  -13.8546 O   0  0  0  0  0  0  0  0  0  0  0  0
   21.1282  -19.9427  -13.5801 C   0  0  0  0  0  0  0  0  0  0  0  0
   21.3255  -20.1537  -11.7980 S   0  0  0  0  0  0  0  0  0  0  0  0
   23.0735  -19.9850  -11.3375 C   0  0  0  0  0  0  0  0  0  0  0  0
   23.9452  -20.7085  -12.3371 C   0  0  0  0  0  0  0  0  0  0  0  0
   25.3683  -20.5841  -11.9021 C   0  0  2  0  0  0  0  0  0  0  0  0
   26.3050  -21.2003  -12.7975 N   0  0  0  0  0  0  0  0  0  0  0  0
   25.5772  -21.1309  -10.5284 C   0  0  0  0  0  0  0  0  0  0  0  0
   25.6766  -22.3779  -10.4148 O   0  0  0  0  0  0  0  0  0  0  0  0
   29.0923  -20.3327   -7.3859 C   0  0  0  0  0  0  0  0  0  0  0  0
   27.8727  -19.5182   -7.3779 C   0  0  2  0  0  0  0  0  0  0  0  0
   28.0710  -18.4328   -6.2849 C   0  0  0  0  0  0  0  0  0  0  0  0
   26.5486  -20.0740   -7.1557 C   0  0  0  0  0  0  0  0  0  0  0  0
   25.8551  -20.9739   -8.0692 C   0  0  2  0  0  0  0  0  0  0  0  0
   25.6639  -20.3231   -9.3915 N   0  0  0  0  0  0  0  0  0  0  0  0
   24.5826  -21.5540   -7.6747 C   0  0  0  0  0  0  0  0  0  0  0  0
   24.4956  -22.4068   -6.7008 O   0  0  0  0  0  0  0  0  0  0  0  0
   23.4092  -21.2115   -8.3228 O   0  0  0  0  0  0  0  0  0  0  0  0
  2  1  1  6
  2  3  1  0
  2  5  1  0
  4  3  1  0
  5  6  2  0
  5 12  1  0
  7  8  1  0
  9 10  1  0
  9  8  1  0
 11 10  1  6
 11 13  1  0
 12 11  1  0
 13 20  1  0
 13 14  2  0
 16 17  1  1
 16 15  1  0
 16 18  1  0
 19 18  1  1
 19 21  1  0
 20 19  1  0
 21 23  1  0
 22 21  2  0
M  END
$$$$
