CML.pdb
     RDKit          3D

 23 22  0  0  1  0  0  0  0  0999 V2000
   22.9966  -15.7564  -17.4396 N   0  0  0  0  0  0  0  0  0  0  0  0
   22.2663  -14.5758  -17.8322 C   0  0  1  0  0  0  0  0  0  0  0  0
   20.7850  -14.7616  -17.7362 C   0  0  0  0  0  0  0  0  0  0  0  0
   20.2840  -16.3785  -18.3974 S   0  0  0  0  0  0  0  0  0  0  0  0
   22.6774  -13.4289  -16.9674 C   0  0  0  0  0  0  0  0  0  0  0  0
   22.7416  -13.5765  -15.7119 O   0  0  0  0  0  0  0  0  0  0  0  0
   27.8652  -12.7833  -15.5940 C   0  0  0  0  0  0  0  0  0  0  0  0
   26.4513  -11.6620  -15.5401 S   0  0  0  0  0  0  0  0  0  0  0  0
   25.8522  -11.3291  -17.2213 C   0  0  0  0  0  0  0  0  0  0  0  0
   24.6715  -10.3878  -17.1741 C   0  0  0  0  0  0  0  0  0  0  0  0
   23.4953  -11.1300  -16.6304 C   0  0  2  0  0  0  0  0  0  0  0  0
   23.0046  -12.1588  -17.5020 N   0  0  0  0  0  0  0  0  0  0  0  0
   22.3717  -10.2096  -16.2840 C   0  0  0  0  0  0  0  0  0  0  0  0
   21.6631   -9.7855  -17.2304 O   0  0  0  0  0  0  0  0  0  0  0  0
   18.6268   -8.7300  -11.6093 C   0  0  0  0  0  0  0  0  0  0  0  0
   19.1395   -8.4766  -12.9598 C   0  0  2  0  0  0  0  0  0  0  0  0
   17.9258   -8.5846  -13.9228 C   0  0  0  0  0  0  0  0  0  0  0  0
   20.2027   -9.2607  -13.5651 C   0  0  0  0  0  0  0  0  0  0  0  0
   20.9629   -8.8686  -14.7456 C   0  0  2  0  0  0  0  0  0  0  0  0
   22.0875   -9.8128  -14.9747 N   0  0  0  0  0  0  0  0  0  0  0  0
   21.4935   -7.5191  -14.8401 C   0  0  0  0  0  0  0  0  0  0  0  0
   20.7809   -6.5379  -15.3012 O   0  0  0  0  0  0  0  0  0  0  0  0
   22.7835   -7.2281  -14.4337 O   0  0  0  0  0  0  0  0  0  0  0  0
  2  1  1  1
  2  3  1  0
  2  5  1  0
  4  3  1  0
  5  6  2  0
  5 12  1  0
  7  8  1  0
  9 10  1  0
  9  8  1  0
 11 10  1  6
 11 13  1  0
 12 11  1  0
 13 20  1  0
 13 14  2  0
 16 17  1  6
 16 15  1  0
 16 18  1  0
 19 18  1  1
 19 21  1  0
 20 19  1  0
 21 23  1  0
 22 21  2  0
M  END
$$$$
