CML.pdb
     RDKit          3D

 23 22  0  0  1  0  0  0  0  0999 V2000
   20.7033  -15.8165  -17.4469 N   0  0  0  0  0  0  0  0  0  0  0  0
   20.9376  -14.5831  -18.1575 C   0  0  1  0  0  0  0  0  0  0  0  0
   19.6978  -14.0515  -18.8043 C   0  0  0  0  0  0  0  0  0  0  0  0
   19.1500  -15.1338  -20.1575 S   0  0  0  0  0  0  0  0  0  0  0  0
   21.4781  -13.5613  -17.2109 C   0  0  0  0  0  0  0  0  0  0  0  0
   20.8469  -13.2896  -16.1478 O   0  0  0  0  0  0  0  0  0  0  0  0
   27.5235  -13.2114  -15.3017 C   0  0  0  0  0  0  0  0  0  0  0  0
   25.8734  -13.0027  -14.5997 S   0  0  0  0  0  0  0  0  0  0  0  0
   25.1380  -11.4480  -15.1811 C   0  0  0  0  0  0  0  0  0  0  0  0
   24.6125  -11.6169  -16.5873 C   0  0  0  0  0  0  0  0  0  0  0  0
   23.1455  -11.8868  -16.5157 C   0  0  2  0  0  0  0  0  0  0  0  0
   22.6895  -12.8697  -17.4564 N   0  0  0  0  0  0  0  0  0  0  0  0
   22.3438  -10.6391  -16.6892 C   0  0  0  0  0  0  0  0  0  0  0  0
   22.1278  -10.2533  -17.8649 O   0  0  0  0  0  0  0  0  0  0  0  0
   17.4665   -7.6448  -14.9253 C   0  0  0  0  0  0  0  0  0  0  0  0
   18.8156   -7.5754  -15.4961 C   0  0  2  0  0  0  0  0  0  0  0  0
   18.6429   -7.2522  -17.0054 C   0  0  0  0  0  0  0  0  0  0  0  0
   19.7640   -8.6742  -15.4272 C   0  0  0  0  0  0  0  0  0  0  0  0
   21.1432   -8.6194  -15.8964 C   0  0  2  0  0  0  0  0  0  0  0  0
   21.8374   -9.9029  -15.6149 N   0  0  0  0  0  0  0  0  0  0  0  0
   22.0094   -7.5418  -15.4493 C   0  0  0  0  0  0  0  0  0  0  0  0
   22.1813   -6.4681  -16.1569 O   0  0  0  0  0  0  0  0  0  0  0  0
   22.6819   -7.6190  -14.2427 O   0  0  0  0  0  0  0  0  0  0  0  0
  2  1  1  1
  2  3  1  0
  2  5  1  0
  4  3  1  0
  5  6  2  0
  5 12  1  0
  7  8  1  0
  9 10  1  0
  9  8  1  0
 11 10  1  6
 11 13  1  0
 12 11  1  0
 13 20  1  0
 13 14  2  0
 16 17  1  6
 16 15  1  0
 16 18  1  0
 19 18  1  1
 19 21  1  0
 20 19  1  0
 21 23  1  0
 22 21  2  0
M  END
$$$$
