KYT.pdb
     RDKit          3D

 29 29  0  0  1  0  0  0  0  0999 V2000
    8.2239  -16.6081   19.5750 N   0  0  0  0  0  0  0  0  0  0  0  0
    9.3677  -15.8243   19.8842 C   0  0  1  0  0  0  0  0  0  0  0  0
    9.4251  -14.6224   18.9217 C   0  0  0  0  0  0  0  0  0  0  0  0
    8.6717  -15.0265   17.7051 C   0  0  0  0  0  0  0  0  0  0  0  0
    8.5505  -14.0236   16.6192 C   0  0  0  0  0  0  0  0  0  0  0  0
    7.7713  -14.4883   15.4283 C   0  0  0  0  0  0  0  0  0  0  0  0
    7.4322  -13.4847   14.4758 N   0  0  0  0  0  0  0  0  0  0  0  0
    9.3900  -15.2629   21.2570 C   0  0  0  0  0  0  0  0  0  0  0  0
   10.4040  -14.6033   21.6589 O   0  0  0  0  0  0  0  0  0  0  0  0
    6.8141  -11.0066   28.5568 O   0  0  0  0  0  0  0  0  0  0  0  0
    6.9093  -11.7234   27.3582 C   0  0  0  0  0  0  0  0  0  0  0  0
    7.7975  -11.3640   26.3667 C   0  0  0  0  0  0  0  0  0  0  0  0
    7.8373  -12.1113   25.2182 C   0  0  0  0  0  0  0  0  0  0  0  0
    7.0333  -13.2087   24.9987 C   0  0  0  0  0  0  0  0  0  0  0  0
    7.0697  -14.0133   23.7651 C   0  0  0  0  0  0  0  0  0  0  0  0
    8.3657  -14.6891   23.4858 C   0  0  2  0  0  0  0  0  0  0  0  0
    8.3475  -15.3942   22.2078 N   0  0  0  0  0  0  0  0  0  0  0  0
    8.7395  -15.5948   24.5894 C   0  0  0  0  0  0  0  0  0  0  0  0
    8.7230  -15.1679   25.7649 O   0  0  0  0  0  0  0  0  0  0  0  0
    6.1564  -13.5379   26.0147 C   0  0  0  0  0  0  0  0  0  0  0  0
    6.0819  -12.8155   27.1864 C   0  0  0  0  0  0  0  0  0  0  0  0
    7.0097  -18.6104   25.6876 C   0  0  0  0  0  0  0  0  0  0  0  0
    8.4177  -19.0267   25.3838 C   0  0  1  0  0  0  0  0  0  0  0  0
    8.4751  -19.6587   24.1359 O   0  0  0  0  0  0  0  0  0  0  0  0
    9.3525  -17.8390   25.4257 C   0  0  2  0  0  0  0  0  0  0  0  0
    9.1138  -16.9359   24.3217 N   0  0  0  0  0  0  0  0  0  0  0  0
   10.7735  -18.2715   25.3942 C   0  0  0  0  0  0  0  0  0  0  0  0
   11.2705  -19.0251   26.4436 O   0  0  0  0  0  0  0  0  0  0  0  0
   11.5183  -17.9646   24.4385 O   0  0  0  0  0  0  0  0  0  0  0  0
  2  1  1  6
  2  3  1  0
  4  3  1  0
  4  5  1  0
  6  5  1  0
  6  7  1  0
  8  2  1  0
  9  8  2  0
 10 11  1  0
 11 12  2  0
 12 13  1  0
 14 15  1  0
 14 13  2  0
 16 15  1  1
 16 17  1  0
 17  8  1  0
 18 16  1  0
 18 19  2  0
 20 14  1  0
 21 20  2  0
 21 11  1  0
 23 22  1  6
 23 25  1  0
 24 23  1  0
 25 26  1  6
 25 27  1  0
 26 18  1  0
 27 28  1  0
 29 27  2  0
M  END
$$$$
