KYT.pdb
     RDKit          3D

 29 29  0  0  1  0  0  0  0  0999 V2000
   10.3061  -17.3465   19.2637 N   0  0  0  0  0  0  0  0  0  0  0  0
    9.0813  -17.2903   19.9813 C   0  0  1  0  0  0  0  0  0  0  0  0
    8.6134  -18.7267   20.2847 C   0  0  0  0  0  0  0  0  0  0  0  0
    7.5103  -19.0160   19.3304 C   0  0  0  0  0  0  0  0  0  0  0  0
    7.8902  -19.3372   17.9333 C   0  0  0  0  0  0  0  0  0  0  0  0
    6.7453  -19.7323   17.0532 C   0  0  0  0  0  0  0  0  0  0  0  0
    7.0861  -20.1249   15.7268 N   0  0  0  0  0  0  0  0  0  0  0  0
    9.1513  -16.5883   21.2861 C   0  0  0  0  0  0  0  0  0  0  0  0
   10.2169  -16.6450   21.9834 O   0  0  0  0  0  0  0  0  0  0  0  0
    7.1410  -11.5774   28.4024 O   0  0  0  0  0  0  0  0  0  0  0  0
    7.1870  -12.1840   27.1416 C   0  0  0  0  0  0  0  0  0  0  0  0
    8.1722  -11.8803   26.2261 C   0  0  0  0  0  0  0  0  0  0  0  0
    8.1561  -12.5127   25.0099 C   0  0  0  0  0  0  0  0  0  0  0  0
    7.2035  -13.4409   24.6499 C   0  0  0  0  0  0  0  0  0  0  0  0
    7.1796  -14.1211   23.3432 C   0  0  0  0  0  0  0  0  0  0  0  0
    8.2503  -15.1333   23.1347 C   0  0  2  0  0  0  0  0  0  0  0  0
    8.1023  -15.8269   21.8588 N   0  0  0  0  0  0  0  0  0  0  0  0
    8.3024  -16.0886   24.2583 C   0  0  0  0  0  0  0  0  0  0  0  0
    7.3080  -16.8087   24.4970 O   0  0  0  0  0  0  0  0  0  0  0  0
    6.2328  -13.7192   25.5933 C   0  0  0  0  0  0  0  0  0  0  0  0
    6.2095  -13.1078   26.8286 C   0  0  0  0  0  0  0  0  0  0  0  0
    9.5212  -19.1463   24.5901 C   0  0  0  0  0  0  0  0  0  0  0  0
   10.2729  -18.4196   25.6648 C   0  0  1  0  0  0  0  0  0  0  0  0
   11.5549  -18.0836   25.2136 O   0  0  0  0  0  0  0  0  0  0  0  0
    9.5211  -17.1851   26.1087 C   0  0  2  0  0  0  0  0  0  0  0  0
    9.4672  -16.1904   25.0603 N   0  0  0  0  0  0  0  0  0  0  0  0
   10.1446  -16.5799   27.3138 C   0  0  0  0  0  0  0  0  0  0  0  0
   10.1685  -17.3032   28.4937 O   0  0  0  0  0  0  0  0  0  0  0  0
   10.6434  -15.4345   27.2736 O   0  0  0  0  0  0  0  0  0  0  0  0
  2  1  1  1
  2  3  1  0
  4  3  1  0
  4  5  1  0
  6  5  1  0
  6  7  1  0
  8  2  1  0
  9  8  2  0
 10 11  1  0
 11 12  2  0
 12 13  1  0
 14 15  1  0
 14 13  2  0
 16 15  1  1
 16 17  1  0
 17  8  1  0
 18 16  1  0
 18 19  2  0
 20 14  1  0
 21 20  2  0
 21 11  1  0
 23 22  1  6
 23 25  1  0
 24 23  1  0
 25 26  1  6
 25 27  1  0
 26 18  1  0
 27 28  1  0
 29 27  2  0
M  END
$$$$
