KYT.pdb
     RDKit          3D

 29 29  0  0  1  0  0  0  0  0999 V2000
    6.4897  -16.2740   21.2894 N   0  0  0  0  0  0  0  0  0  0  0  0
    7.6828  -15.5167   21.1442 C   0  0  1  0  0  0  0  0  0  0  0  0
    7.3155  -14.0821   20.7182 C   0  0  0  0  0  0  0  0  0  0  0  0
    7.1291  -14.1203   19.2434 C   0  0  0  0  0  0  0  0  0  0  0  0
    8.0723  -13.3244   18.4207 C   0  0  0  0  0  0  0  0  0  0  0  0
    7.7245  -13.2579   16.9661 C   0  0  0  0  0  0  0  0  0  0  0  0
    8.4822  -12.3375   16.1861 N   0  0  0  0  0  0  0  0  0  0  0  0
    8.4992  -15.3915   22.3763 C   0  0  0  0  0  0  0  0  0  0  0  0
    9.5793  -14.7148   22.3586 O   0  0  0  0  0  0  0  0  0  0  0  0
    5.9077  -10.5021   26.5111 O   0  0  0  0  0  0  0  0  0  0  0  0
    6.5374  -11.7470   26.3960 C   0  0  0  0  0  0  0  0  0  0  0  0
    7.9106  -11.8642   26.3548 C   0  0  0  0  0  0  0  0  0  0  0  0
    8.4598  -13.1150   26.2411 C   0  0  0  0  0  0  0  0  0  0  0  0
    7.7103  -14.2688   26.1651 C   0  0  0  0  0  0  0  0  0  0  0  0
    8.2953  -15.6152   26.0396 C   0  0  0  0  0  0  0  0  0  0  0  0
    9.0601  -15.8608   24.7869 C   0  0  2  0  0  0  0  0  0  0  0  0
    8.1815  -15.9771   23.6270 N   0  0  0  0  0  0  0  0  0  0  0  0
    9.9278  -17.0471   24.9200 C   0  0  0  0  0  0  0  0  0  0  0  0
    9.4914  -18.0630   25.5047 O   0  0  0  0  0  0  0  0  0  0  0  0
    6.3382  -14.1113   26.2096 C   0  0  0  0  0  0  0  0  0  0  0  0
    5.7421  -12.8735   26.3234 C   0  0  0  0  0  0  0  0  0  0  0  0
   11.1983  -19.2548   22.3695 C   0  0  0  0  0  0  0  0  0  0  0  0
   12.4113  -18.7488   23.0911 C   0  0  1  0  0  0  0  0  0  0  0  0
   13.0367  -17.7470   22.3394 O   0  0  0  0  0  0  0  0  0  0  0  0
   12.0466  -18.2372   24.4664 C   0  0  2  0  0  0  0  0  0  0  0  0
   11.2431  -17.0371   24.3909 N   0  0  0  0  0  0  0  0  0  0  0  0
   13.2608  -17.9526   25.2739 C   0  0  0  0  0  0  0  0  0  0  0  0
   14.0753  -19.0041   25.6570 O   0  0  0  0  0  0  0  0  0  0  0  0
   13.5518  -16.7838   25.6080 O   0  0  0  0  0  0  0  0  0  0  0  0
  2  1  1  1
  2  3  1  0
  4  3  1  0
  4  5  1  0
  6  5  1  0
  6  7  1  0
  8  2  1  0
  9  8  2  0
 10 11  1  0
 11 12  2  0
 12 13  1  0
 14 15  1  0
 14 13  2  0
 16 15  1  1
 16 17  1  0
 17  8  1  0
 18 16  1  0
 18 19  2  0
 20 14  1  0
 21 20  2  0
 21 11  1  0
 23 22  1  6
 23 25  1  0
 24 23  1  0
 25 26  1  6
 25 27  1  0
 26 18  1  0
 27 28  1  0
 29 27  2  0
M  END
$$$$
