KYT.pdb
     RDKit          3D

 29 29  0  0  1  0  0  0  0  0999 V2000
    7.6866  -12.8039   19.4773 N   0  0  0  0  0  0  0  0  0  0  0  0
    7.6326  -14.0252   20.2009 C   0  0  1  0  0  0  0  0  0  0  0  0
    8.2563  -15.1426   19.3426 C   0  0  0  0  0  0  0  0  0  0  0  0
    7.1580  -16.0989   19.0416 C   0  0  0  0  0  0  0  0  0  0  0  0
    7.5319  -17.3743   18.3834 C   0  0  0  0  0  0  0  0  0  0  0  0
    6.3731  -18.2524   18.0266 C   0  0  0  0  0  0  0  0  0  0  0  0
    6.6981  -19.4828   17.3861 N   0  0  0  0  0  0  0  0  0  0  0  0
    8.3707  -14.0243   21.4875 C   0  0  0  0  0  0  0  0  0  0  0  0
    9.6090  -13.7227   21.5112 O   0  0  0  0  0  0  0  0  0  0  0  0
   10.4250  -15.3690   30.0681 O   0  0  0  0  0  0  0  0  0  0  0  0
    9.8109  -15.0109   28.8622 C   0  0  0  0  0  0  0  0  0  0  0  0
    9.9120  -13.7357   28.3475 C   0  0  0  0  0  0  0  0  0  0  0  0
    9.2849  -13.4547   27.1614 C   0  0  0  0  0  0  0  0  0  0  0  0
    8.5545  -14.3823   26.4508 C   0  0  0  0  0  0  0  0  0  0  0  0
    7.8760  -14.0848   25.1773 C   0  0  0  0  0  0  0  0  0  0  0  0
    8.6235  -14.4788   23.9524 C   0  0  2  0  0  0  0  0  0  0  0  0
    7.8085  -14.3402   22.7494 N   0  0  0  0  0  0  0  0  0  0  0  0
    9.1616  -15.8473   24.0774 C   0  0  0  0  0  0  0  0  0  0  0  0
    8.3711  -16.8061   24.2187 O   0  0  0  0  0  0  0  0  0  0  0  0
    8.4760  -15.6488   26.9980 C   0  0  0  0  0  0  0  0  0  0  0  0
    9.0903  -15.9765   28.1878 C   0  0  0  0  0  0  0  0  0  0  0  0
   12.3250  -16.9258   21.9534 C   0  0  0  0  0  0  0  0  0  0  0  0
   11.3900  -17.8887   22.6217 C   0  0  1  0  0  0  0  0  0  0  0  0
   11.9494  -19.1719   22.6373 O   0  0  0  0  0  0  0  0  0  0  0  0
   11.0577  -17.4327   24.0245 C   0  0  2  0  0  0  0  0  0  0  0  0
   10.5605  -16.0747   24.0379 N   0  0  0  0  0  0  0  0  0  0  0  0
   12.2451  -17.5185   24.9135 C   0  0  0  0  0  0  0  0  0  0  0  0
   12.6723  -16.3810   25.5766 O   0  0  0  0  0  0  0  0  0  0  0  0
   12.8568  -18.5976   25.0673 O   0  0  0  0  0  0  0  0  0  0  0  0
  2  1  1  6
  2  3  1  0
  4  3  1  0
  4  5  1  0
  6  5  1  0
  6  7  1  0
  8  2  1  0
  9  8  2  0
 10 11  1  0
 11 12  2  0
 12 13  1  0
 14 15  1  0
 14 13  2  0
 16 15  1  1
 16 17  1  0
 17  8  1  0
 18 16  1  0
 18 19  2  0
 20 14  1  0
 21 20  2  0
 21 11  1  0
 23 22  1  1
 23 25  1  0
 24 23  1  0
 25 26  1  6
 25 27  1  0
 26 18  1  0
 27 28  1  0
 29 27  2  0
M  END
$$$$
