KYT.pdb
     RDKit          3D

 29 29  0  0  1  0  0  0  0  0999 V2000
    3.5138  -19.8219   22.0691 N   0  0  0  0  0  0  0  0  0  0  0  0
    4.8881  -19.8999   22.4205 C   0  0  1  0  0  0  0  0  0  0  0  0
    5.6877  -20.4017   21.2028 C   0  0  0  0  0  0  0  0  0  0  0  0
    7.0582  -20.6981   21.6976 C   0  0  0  0  0  0  0  0  0  0  0  0
    8.0114  -21.2989   20.7332 C   0  0  0  0  0  0  0  0  0  0  0  0
    9.3522  -21.6316   21.3101 C   0  0  0  0  0  0  0  0  0  0  0  0
   10.2823  -22.2357   20.4159 N   0  0  0  0  0  0  0  0  0  0  0  0
    5.5052  -18.6132   22.8254 C   0  0  0  0  0  0  0  0  0  0  0  0
    5.4660  -17.6122   22.0372 O   0  0  0  0  0  0  0  0  0  0  0  0
    8.6352  -11.6585   27.3080 O   0  0  0  0  0  0  0  0  0  0  0  0
    8.0465  -12.8575   26.8892 C   0  0  0  0  0  0  0  0  0  0  0  0
    6.9822  -12.8756   26.0128 C   0  0  0  0  0  0  0  0  0  0  0  0
    6.4547  -14.0863   25.6452 C   0  0  0  0  0  0  0  0  0  0  0  0
    6.9326  -15.2937   26.1065 C   0  0  0  0  0  0  0  0  0  0  0  0
    6.3674  -16.5974   25.7172 C   0  0  0  0  0  0  0  0  0  0  0  0
    6.7825  -17.0949   24.3775 C   0  0  2  0  0  0  0  0  0  0  0  0
    6.1638  -18.3777   24.0578 N   0  0  0  0  0  0  0  0  0  0  0  0
    8.2526  -17.1708   24.2727 C   0  0  0  0  0  0  0  0  0  0  0  0
    8.8684  -18.0483   24.9170 O   0  0  0  0  0  0  0  0  0  0  0  0
    7.9995  -15.2352   26.9827 C   0  0  0  0  0  0  0  0  0  0  0  0
    8.5618  -14.0409   27.3799 C   0  0  0  0  0  0  0  0  0  0  0  0
   10.0331  -17.1786   20.8733 C   0  0  0  0  0  0  0  0  0  0  0  0
   10.7455  -16.2176   21.7771 C   0  0  1  0  0  0  0  0  0  0  0  0
   10.4533  -14.8997   21.4061 O   0  0  0  0  0  0  0  0  0  0  0  0
   10.3752  -16.4611   23.2228 C   0  0  2  0  0  0  0  0  0  0  0  0
    8.9614  -16.2589   23.4504 N   0  0  0  0  0  0  0  0  0  0  0  0
   11.1407  -15.5693   24.1317 C   0  0  0  0  0  0  0  0  0  0  0  0
   12.5213  -15.6645   24.1616 O   0  0  0  0  0  0  0  0  0  0  0  0
   10.5561  -14.7413   24.8631 O   0  0  0  0  0  0  0  0  0  0  0  0
  2  1  1  6
  2  3  1  0
  4  3  1  0
  4  5  1  0
  6  5  1  0
  6  7  1  0
  8  2  1  0
  9  8  2  0
 10 11  1  0
 11 12  2  0
 12 13  1  0
 14 15  1  0
 14 13  2  0
 16 15  1  1
 16 17  1  0
 17  8  1  0
 18 16  1  0
 18 19  2  0
 20 14  1  0
 21 20  2  0
 21 11  1  0
 23 22  1  6
 23 25  1  0
 24 23  1  0
 25 26  1  6
 25 27  1  0
 26 18  1  0
 27 28  1  0
 29 27  2  0
M  END
$$$$
