KYT.pdb
     RDKit          3D

 29 29  0  0  1  0  0  0  0  0999 V2000
   11.6759  -16.9221   17.6661 N   0  0  0  0  0  0  0  0  0  0  0  0
   10.7716  -17.4425   18.6303 C   0  0  1  0  0  0  0  0  0  0  0  0
   11.1522  -18.9042   18.9348 C   0  0  0  0  0  0  0  0  0  0  0  0
   11.5106  -19.5218   17.6305 C   0  0  0  0  0  0  0  0  0  0  0  0
   11.8556  -20.9643   17.6361 C   0  0  0  0  0  0  0  0  0  0  0  0
   12.1730  -21.5325   16.2879 C   0  0  0  0  0  0  0  0  0  0  0  0
   12.4574  -22.9280   16.2515 N   0  0  0  0  0  0  0  0  0  0  0  0
   10.7663  -16.7314   19.9320 C   0  0  0  0  0  0  0  0  0  0  0  0
   11.7831  -16.0513   20.2904 O   0  0  0  0  0  0  0  0  0  0  0  0
    7.7288  -11.7000   17.8347 O   0  0  0  0  0  0  0  0  0  0  0  0
    7.9223  -12.5557   18.9257 C   0  0  0  0  0  0  0  0  0  0  0  0
    7.0973  -13.6364   19.1550 C   0  0  0  0  0  0  0  0  0  0  0  0
    7.3453  -14.4326   20.2430 C   0  0  0  0  0  0  0  0  0  0  0  0
    8.3801  -14.2108   21.1255 C   0  0  0  0  0  0  0  0  0  0  0  0
    8.6491  -15.0614   22.2981 C   0  0  0  0  0  0  0  0  0  0  0  0
    9.7649  -16.0325   22.1354 C   0  0  2  0  0  0  0  0  0  0  0  0
    9.6932  -16.7345   20.8577 N   0  0  0  0  0  0  0  0  0  0  0  0
    9.8095  -16.9821   23.2641 C   0  0  0  0  0  0  0  0  0  0  0  0
    8.7492  -17.5157   23.6584 O   0  0  0  0  0  0  0  0  0  0  0  0
    9.1850  -13.1188   20.8629 C   0  0  0  0  0  0  0  0  0  0  0  0
    8.9734  -12.2909   19.7811 C   0  0  0  0  0  0  0  0  0  0  0  0
   11.1259  -20.2490   23.3879 C   0  0  0  0  0  0  0  0  0  0  0  0
   11.8537  -19.5207   24.4779 C   0  0  1  0  0  0  0  0  0  0  0  0
   13.1346  -19.1590   24.0442 O   0  0  0  0  0  0  0  0  0  0  0  0
   11.0766  -18.3033   24.9256 C   0  0  2  0  0  0  0  0  0  0  0  0
   11.0411  -17.2878   23.8966 N   0  0  0  0  0  0  0  0  0  0  0  0
   11.6597  -17.7168   26.1598 C   0  0  0  0  0  0  0  0  0  0  0  0
   11.6432  -18.4574   27.3290 O   0  0  0  0  0  0  0  0  0  0  0  0
   12.1605  -16.5716   26.1533 O   0  0  0  0  0  0  0  0  0  0  0  0
  2  1  1  6
  2  3  1  0
  4  3  1  0
  4  5  1  0
  6  5  1  0
  6  7  1  0
  8  2  1  0
  9  8  2  0
 10 11  1  0
 11 12  2  0
 12 13  1  0
 14 15  1  0
 14 13  2  0
 16 15  1  1
 16 17  1  0
 17  8  1  0
 18 16  1  0
 18 19  2  0
 20 14  1  0
 21 20  2  0
 21 11  1  0
 23 22  1  6
 23 25  1  0
 24 23  1  0
 25 26  1  6
 25 27  1  0
 26 18  1  0
 27 28  1  0
 29 27  2  0
M  END
$$$$
