KYT.pdb
     RDKit          3D

 29 29  0  0  1  0  0  0  0  0999 V2000
   10.5461  -16.9500   19.0801 N   0  0  0  0  0  0  0  0  0  0  0  0
    9.3415  -17.0377   19.8280 C   0  0  1  0  0  0  0  0  0  0  0  0
    9.0373  -18.5210   20.1136 C   0  0  0  0  0  0  0  0  0  0  0  0
    9.0112  -19.2028   18.7924 C   0  0  0  0  0  0  0  0  0  0  0  0
    7.6861  -19.6151   18.2691 C   0  0  0  0  0  0  0  0  0  0  0  0
    7.7328  -20.3360   16.9578 C   0  0  0  0  0  0  0  0  0  0  0  0
    6.4715  -20.6554   16.3775 N   0  0  0  0  0  0  0  0  0  0  0  0
    9.3705  -16.3552   21.1447 C   0  0  0  0  0  0  0  0  0  0  0  0
   10.4073  -16.4369   21.8817 O   0  0  0  0  0  0  0  0  0  0  0  0
    6.9691  -11.8925   28.4977 O   0  0  0  0  0  0  0  0  0  0  0  0
    7.0731  -12.4052   27.1992 C   0  0  0  0  0  0  0  0  0  0  0  0
    8.0543  -11.9807   26.3283 C   0  0  0  0  0  0  0  0  0  0  0  0
    8.0971  -12.5259   25.0713 C   0  0  0  0  0  0  0  0  0  0  0  0
    7.2081  -13.4805   24.6275 C   0  0  0  0  0  0  0  0  0  0  0  0
    7.2476  -14.0672   23.2766 C   0  0  0  0  0  0  0  0  0  0  0  0
    8.3776  -15.0019   23.0232 C   0  0  2  0  0  0  0  0  0  0  0  0
    8.3106  -15.5870   21.6876 N   0  0  0  0  0  0  0  0  0  0  0  0
    8.4424  -16.0485   24.0616 C   0  0  0  0  0  0  0  0  0  0  0  0
    7.4739  -16.8260   24.2093 O   0  0  0  0  0  0  0  0  0  0  0  0
    6.2395  -13.8806   25.5282 C   0  0  0  0  0  0  0  0  0  0  0  0
    6.1582  -13.3601   26.8021 C   0  0  0  0  0  0  0  0  0  0  0  0
    9.8863  -19.0763   24.1614 C   0  0  0  0  0  0  0  0  0  0  0  0
   10.5348  -18.3864   25.3239 C   0  0  1  0  0  0  0  0  0  0  0  0
   11.7992  -17.9100   24.9577 O   0  0  0  0  0  0  0  0  0  0  0  0
    9.6660  -17.2596   25.8357 C   0  0  2  0  0  0  0  0  0  0  0  0
    9.5903  -16.1730   24.8843 N   0  0  0  0  0  0  0  0  0  0  0  0
   10.1750  -16.7323   27.1281 C   0  0  0  0  0  0  0  0  0  0  0  0
   10.2501  -17.5820   28.2182 O   0  0  0  0  0  0  0  0  0  0  0  0
   10.5329  -15.5400   27.2402 O   0  0  0  0  0  0  0  0  0  0  0  0
  2  1  1  1
  2  3  1  0
  4  3  1  0
  4  5  1  0
  6  5  1  0
  6  7  1  0
  8  2  1  0
  9  8  2  0
 10 11  1  0
 11 12  2  0
 12 13  1  0
 14 15  1  0
 14 13  2  0
 16 15  1  1
 16 17  1  0
 17  8  1  0
 18 16  1  0
 18 19  2  0
 20 14  1  0
 21 20  2  0
 21 11  1  0
 23 22  1  6
 23 25  1  0
 24 23  1  0
 25 26  1  6
 25 27  1  0
 26 18  1  0
 27 28  1  0
 29 27  2  0
M  END
$$$$
