KYT.pdb
     RDKit          3D

 29 29  0  0  1  0  0  0  0  0999 V2000
    9.4476  -17.2485   19.7167 N   0  0  0  0  0  0  0  0  0  0  0  0
    9.3509  -16.0814   20.5208 C   0  0  1  0  0  0  0  0  0  0  0  0
    7.9958  -15.3992   20.2508 C   0  0  0  0  0  0  0  0  0  0  0  0
    8.3040  -14.1197   19.5588 C   0  0  0  0  0  0  0  0  0  0  0  0
    8.7325  -14.2023   18.1413 C   0  0  0  0  0  0  0  0  0  0  0  0
    8.9400  -12.8770   17.4766 C   0  0  0  0  0  0  0  0  0  0  0  0
    9.2903  -12.9206   16.0964 N   0  0  0  0  0  0  0  0  0  0  0  0
    9.4149  -16.3210   21.9832 C   0  0  0  0  0  0  0  0  0  0  0  0
    8.7304  -17.2611   22.5051 O   0  0  0  0  0  0  0  0  0  0  0  0
   10.9881  -15.5906   30.7072 O   0  0  0  0  0  0  0  0  0  0  0  0
   11.0054  -15.4022   29.3201 C   0  0  0  0  0  0  0  0  0  0  0  0
   10.5186  -14.2508   28.7385 C   0  0  0  0  0  0  0  0  0  0  0  0
   10.5671  -14.1335   27.3735 C   0  0  0  0  0  0  0  0  0  0  0  0
   11.0786  -15.1092   26.5458 C   0  0  0  0  0  0  0  0  0  0  0  0
   11.1301  -14.9896   25.0782 C   0  0  0  0  0  0  0  0  0  0  0  0
   10.0698  -15.7312   24.3432 C   0  0  2  0  0  0  0  0  0  0  0  0
   10.1978  -15.5733   22.8977 N   0  0  0  0  0  0  0  0  0  0  0  0
    8.7265  -15.3330   24.8065 C   0  0  0  0  0  0  0  0  0  0  0  0
    8.3178  -14.1734   24.5768 O   0  0  0  0  0  0  0  0  0  0  0  0
   11.5568  -16.2482   27.1650 C   0  0  0  0  0  0  0  0  0  0  0  0
   11.5285  -16.4096   28.5338 C   0  0  0  0  0  0  0  0  0  0  0  0
    5.4442  -15.8763   23.7749 C   0  0  0  0  0  0  0  0  0  0  0  0
    5.4938  -16.4621   25.1542 C   0  0  1  0  0  0  0  0  0  0  0  0
    5.6584  -17.8505   25.0828 O   0  0  0  0  0  0  0  0  0  0  0  0
    6.6022  -15.8329   25.9679 C   0  0  2  0  0  0  0  0  0  0  0  0
    7.9059  -16.2543   25.5051 N   0  0  0  0  0  0  0  0  0  0  0  0
    6.4709  -16.1720   27.4084 C   0  0  0  0  0  0  0  0  0  0  0  0
    5.3432  -15.7585   28.0965 O   0  0  0  0  0  0  0  0  0  0  0  0
    7.3602  -16.8209   28.0002 O   0  0  0  0  0  0  0  0  0  0  0  0
  2  1  1  6
  2  3  1  0
  4  3  1  0
  4  5  1  0
  6  5  1  0
  6  7  1  0
  8  2  1  0
  9  8  2  0
 10 11  1  0
 11 12  2  0
 12 13  1  0
 14 15  1  0
 14 13  2  0
 16 15  1  1
 16 17  1  0
 17  8  1  0
 18 16  1  0
 18 19  2  0
 20 14  1  0
 21 20  2  0
 21 11  1  0
 23 22  1  6
 23 25  1  0
 24 23  1  0
 25 26  1  6
 25 27  1  0
 26 18  1  0
 27 28  1  0
 29 27  2  0
M  END
$$$$
