KYT.pdb
     RDKit          3D

 29 29  0  0  1  0  0  0  0  0999 V2000
    7.9726  -12.8280   19.7368 N   0  0  0  0  0  0  0  0  0  0  0  0
    7.8753  -14.1069   20.3477 C   0  0  1  0  0  0  0  0  0  0  0  0
    8.5852  -15.1427   19.4548 C   0  0  0  0  0  0  0  0  0  0  0  0
    7.7749  -15.2468   18.2123 C   0  0  0  0  0  0  0  0  0  0  0  0
    8.1995  -16.2532   17.2091 C   0  0  0  0  0  0  0  0  0  0  0  0
    7.4419  -16.2024   15.9188 C   0  0  0  0  0  0  0  0  0  0  0  0
    7.8971  -17.0816   14.8944 N   0  0  0  0  0  0  0  0  0  0  0  0
    8.5019  -14.2102   21.6882 C   0  0  0  0  0  0  0  0  0  0  0  0
    9.5571  -13.5451   21.9509 O   0  0  0  0  0  0  0  0  0  0  0  0
    5.9048  -10.3261   27.2647 O   0  0  0  0  0  0  0  0  0  0  0  0
    6.3242  -11.5589   26.7508 C   0  0  0  0  0  0  0  0  0  0  0  0
    5.4558  -12.6212   26.6148 C   0  0  0  0  0  0  0  0  0  0  0  0
    5.9348  -13.7997   26.1041 C   0  0  0  0  0  0  0  0  0  0  0  0
    7.2446  -13.9821   25.7168 C   0  0  0  0  0  0  0  0  0  0  0  0
    7.7654  -15.2473   25.1703 C   0  0  0  0  0  0  0  0  0  0  0  0
    8.7150  -15.1048   24.0335 C   0  0  2  0  0  0  0  0  0  0  0  0
    8.0205  -15.0120   22.7529 N   0  0  0  0  0  0  0  0  0  0  0  0
    9.7019  -16.2020   24.0268 C   0  0  0  0  0  0  0  0  0  0  0  0
   10.3060  -16.4893   25.0836 O   0  0  0  0  0  0  0  0  0  0  0  0
    8.0845  -12.8953   25.8679 C   0  0  0  0  0  0  0  0  0  0  0  0
    7.6468  -11.6912   26.3768 C   0  0  0  0  0  0  0  0  0  0  0  0
   11.5693  -20.1383   21.7047 C   0  0  0  0  0  0  0  0  0  0  0  0
   10.7087  -18.9134   21.6215 C   0  0  1  0  0  0  0  0  0  0  0  0
    9.3789  -19.2743   21.3743 O   0  0  0  0  0  0  0  0  0  0  0  0
   10.8142  -18.0930   22.8873 C   0  0  2  0  0  0  0  0  0  0  0  0
    9.9638  -16.9243   22.8353 N   0  0  0  0  0  0  0  0  0  0  0  0
   12.2137  -17.6585   23.1316 C   0  0  0  0  0  0  0  0  0  0  0  0
   13.0343  -18.4460   23.9206 O   0  0  0  0  0  0  0  0  0  0  0  0
   12.6540  -16.5986   22.6366 O   0  0  0  0  0  0  0  0  0  0  0  0
  2  1  1  6
  2  3  1  0
  4  3  1  0
  4  5  1  0
  6  5  1  0
  6  7  1  0
  8  2  1  0
  9  8  2  0
 10 11  1  0
 11 12  2  0
 12 13  1  0
 14 15  1  0
 14 13  2  0
 16 15  1  1
 16 17  1  0
 17  8  1  0
 18 16  1  0
 18 19  2  0
 20 14  1  0
 21 20  2  0
 21 11  1  0
 23 22  1  1
 23 25  1  0
 24 23  1  0
 25 26  1  6
 25 27  1  0
 26 18  1  0
 27 28  1  0
 29 27  2  0
M  END
$$$$
