KYT.pdb
     RDKit          3D

 29 29  0  0  1  0  0  0  0  0999 V2000
    7.1423  -17.0106   20.2454 N   0  0  0  0  0  0  0  0  0  0  0  0
    8.4550  -16.4923   20.0831 C   0  0  1  0  0  0  0  0  0  0  0  0
    8.4001  -15.2813   19.1319 C   0  0  0  0  0  0  0  0  0  0  0  0
    8.0274  -15.8174   17.7959 C   0  0  0  0  0  0  0  0  0  0  0  0
    9.0495  -15.7360   16.7243 C   0  0  0  0  0  0  0  0  0  0  0  0
    8.5402  -16.0590   15.3540 C   0  0  0  0  0  0  0  0  0  0  0  0
    9.4163  -15.7478   14.2746 N   0  0  0  0  0  0  0  0  0  0  0  0
    9.0990  -16.0154   21.3313 C   0  0  0  0  0  0  0  0  0  0  0  0
   10.2521  -15.4738   21.2863 O   0  0  0  0  0  0  0  0  0  0  0  0
   10.9522  -14.5509   29.9311 O   0  0  0  0  0  0  0  0  0  0  0  0
   10.3213  -14.7598   28.6991 C   0  0  0  0  0  0  0  0  0  0  0  0
    9.7817  -15.9822   28.3586 C   0  0  0  0  0  0  0  0  0  0  0  0
    9.1783  -16.1158   27.1351 C   0  0  0  0  0  0  0  0  0  0  0  0
    9.0808  -15.0893   26.2210 C   0  0  0  0  0  0  0  0  0  0  0  0
    8.4362  -15.2283   24.9034 C   0  0  0  0  0  0  0  0  0  0  0  0
    9.2955  -15.8048   23.8339 C   0  0  2  0  0  0  0  0  0  0  0  0
    8.5324  -16.1074   22.6269 N   0  0  0  0  0  0  0  0  0  0  0  0
   10.0192  -16.9955   24.3200 C   0  0  0  0  0  0  0  0  0  0  0  0
    9.3706  -18.0041   24.6754 O   0  0  0  0  0  0  0  0  0  0  0  0
    9.6328  -13.8798   26.5977 C   0  0  0  0  0  0  0  0  0  0  0  0
   10.2491  -13.6995   27.8175 C   0  0  0  0  0  0  0  0  0  0  0  0
   12.4635  -19.1719   22.6283 C   0  0  0  0  0  0  0  0  0  0  0  0
   13.1371  -18.6798   23.8742 C   0  0  1  0  0  0  0  0  0  0  0  0
   14.0627  -17.6781   23.5584 O   0  0  0  0  0  0  0  0  0  0  0  0
   12.1209  -18.1738   24.8730 C   0  0  2  0  0  0  0  0  0  0  0  0
   11.4355  -16.9978   24.3843 N   0  0  0  0  0  0  0  0  0  0  0  0
   12.7606  -17.8510   26.1746 C   0  0  0  0  0  0  0  0  0  0  0  0
   13.3242  -18.8731   26.9187 O   0  0  0  0  0  0  0  0  0  0  0  0
   12.7948  -16.6765   26.6008 O   0  0  0  0  0  0  0  0  0  0  0  0
  2  1  1  1
  2  3  1  0
  4  3  1  0
  4  5  1  0
  6  5  1  0
  6  7  1  0
  8  2  1  0
  9  8  2  0
 10 11  1  0
 11 12  2  0
 12 13  1  0
 14 15  1  0
 14 13  2  0
 16 15  1  1
 16 17  1  0
 17  8  1  0
 18 16  1  0
 18 19  2  0
 20 14  1  0
 21 20  2  0
 21 11  1  0
 23 22  1  6
 23 25  1  0
 24 23  1  0
 25 26  1  6
 25 27  1  0
 26 18  1  0
 27 28  1  0
 29 27  2  0
M  END
$$$$
