KYT.pdb
     RDKit          3D

 29 29  0  0  1  0  0  0  0  0999 V2000
    9.1223  -16.7290   18.6462 N   0  0  0  0  0  0  0  0  0  0  0  0
    8.0157  -16.5991   19.5274 C   0  0  1  0  0  0  0  0  0  0  0  0
    7.3797  -17.9866   19.7390 C   0  0  0  0  0  0  0  0  0  0  0  0
    7.5138  -18.7080   18.4457 C   0  0  0  0  0  0  0  0  0  0  0  0
    8.4875  -19.8254   18.3913 C   0  0  0  0  0  0  0  0  0  0  0  0
    8.3458  -20.7154   17.1959 C   0  0  0  0  0  0  0  0  0  0  0  0
    9.3524  -21.7113   17.0381 N   0  0  0  0  0  0  0  0  0  0  0  0
    8.3471  -16.0802   20.8769 C   0  0  0  0  0  0  0  0  0  0  0  0
    9.3923  -16.4925   21.4789 O   0  0  0  0  0  0  0  0  0  0  0  0
    7.7648  -12.2722   28.8911 O   0  0  0  0  0  0  0  0  0  0  0  0
    7.5439  -12.6213   27.5536 C   0  0  0  0  0  0  0  0  0  0  0  0
    6.3617  -13.1984   27.1405 C   0  0  0  0  0  0  0  0  0  0  0  0
    6.2135  -13.5146   25.8149 C   0  0  0  0  0  0  0  0  0  0  0  0
    7.1870  -13.2862   24.8668 C   0  0  0  0  0  0  0  0  0  0  0  0
    7.0342  -13.6270   23.4416 C   0  0  0  0  0  0  0  0  0  0  0  0
    7.9317  -14.7060   22.9470 C   0  0  2  0  0  0  0  0  0  0  0  0
    7.5807  -15.1285   21.5946 N   0  0  0  0  0  0  0  0  0  0  0  0
    7.9453  -15.8517   23.8771 C   0  0  0  0  0  0  0  0  0  0  0  0
    6.9369  -16.5870   23.9585 O   0  0  0  0  0  0  0  0  0  0  0  0
    8.3573  -12.7067   25.3186 C   0  0  0  0  0  0  0  0  0  0  0  0
    8.5504  -12.3719   26.6418 C   0  0  0  0  0  0  0  0  0  0  0  0
   10.1261  -19.5601   25.7690 C   0  0  0  0  0  0  0  0  0  0  0  0
    9.8951  -18.4226   24.8200 C   0  0  1  0  0  0  0  0  0  0  0  0
    9.2223  -18.8757   23.6789 O   0  0  0  0  0  0  0  0  0  0  0  0
    9.1221  -17.3093   25.4902 C   0  0  2  0  0  0  0  0  0  0  0  0
    9.0892  -16.1177   24.6714 N   0  0  0  0  0  0  0  0  0  0  0  0
    9.7078  -16.9679   26.8122 C   0  0  0  0  0  0  0  0  0  0  0  0
   10.4830  -15.8272   26.9300 O   0  0  0  0  0  0  0  0  0  0  0  0
    9.5097  -17.6937   27.8104 O   0  0  0  0  0  0  0  0  0  0  0  0
  2  1  1  6
  2  3  1  0
  4  3  1  0
  4  5  1  0
  6  5  1  0
  6  7  1  0
  8  2  1  0
  9  8  2  0
 10 11  1  0
 11 12  2  0
 12 13  1  0
 14 15  1  0
 14 13  2  0
 16 15  1  1
 16 17  1  0
 17  8  1  0
 18 16  1  0
 18 19  2  0
 20 14  1  0
 21 20  2  0
 21 11  1  0
 23 22  1  1
 23 25  1  0
 24 23  1  0
 25 26  1  6
 25 27  1  0
 26 18  1  0
 27 28  1  0
 29 27  2  0
M  END
$$$$
