KYT.pdb
     RDKit          3D

 29 29  0  0  1  0  0  0  0  0999 V2000
    9.7816  -15.6935   19.0986 N   0  0  0  0  0  0  0  0  0  0  0  0
    8.9592  -16.1339   20.1699 C   0  0  1  0  0  0  0  0  0  0  0  0
    8.7134  -17.6478   20.0217 C   0  0  0  0  0  0  0  0  0  0  0  0
    8.1496  -17.8470   18.6602 C   0  0  0  0  0  0  0  0  0  0  0  0
    6.6732  -17.9251   18.5433 C   0  0  0  0  0  0  0  0  0  0  0  0
    6.1741  -18.2254   17.1641 C   0  0  0  0  0  0  0  0  0  0  0  0
    4.7594  -18.2112   16.9970 N   0  0  0  0  0  0  0  0  0  0  0  0
    9.5326  -15.9334   21.5232 C   0  0  0  0  0  0  0  0  0  0  0  0
   10.7489  -16.2390   21.7512 O   0  0  0  0  0  0  0  0  0  0  0  0
   10.5300  -14.2956   30.2165 O   0  0  0  0  0  0  0  0  0  0  0  0
   10.0326  -14.3585   28.9094 C   0  0  0  0  0  0  0  0  0  0  0  0
    8.8899  -15.0659   28.6015 C   0  0  0  0  0  0  0  0  0  0  0  0
    8.4598  -15.0846   27.3001 C   0  0  0  0  0  0  0  0  0  0  0  0
    9.1108  -14.4313   26.2763 C   0  0  0  0  0  0  0  0  0  0  0  0
    8.6547  -14.4508   24.8755 C   0  0  0  0  0  0  0  0  0  0  0  0
    9.4152  -15.3569   23.9727 C   0  0  2  0  0  0  0  0  0  0  0  0
    8.8286  -15.4121   22.6372 N   0  0  0  0  0  0  0  0  0  0  0  0
    9.5384  -16.7062   24.5575 C   0  0  0  0  0  0  0  0  0  0  0  0
    8.5065  -17.3839   24.7577 O   0  0  0  0  0  0  0  0  0  0  0  0
   10.2517  -13.7333   26.6235 C   0  0  0  0  0  0  0  0  0  0  0  0
   10.7211  -13.6867   27.9188 C   0  0  0  0  0  0  0  0  0  0  0  0
   11.0215  -19.7221   23.2588 C   0  0  0  0  0  0  0  0  0  0  0  0
   11.7214  -19.4784   24.5622 C   0  0  1  0  0  0  0  0  0  0  0  0
   12.9952  -18.9449   24.3331 O   0  0  0  0  0  0  0  0  0  0  0  0
   10.9084  -18.5614   25.4479 C   0  0  2  0  0  0  0  0  0  0  0  0
   10.8131  -17.2307   24.8896 N   0  0  0  0  0  0  0  0  0  0  0  0
   11.4947  -18.4702   26.8100 C   0  0  0  0  0  0  0  0  0  0  0  0
   11.4955  -19.5939   27.6183 O   0  0  0  0  0  0  0  0  0  0  0  0
   11.9829  -17.3989   27.2298 O   0  0  0  0  0  0  0  0  0  0  0  0
  2  1  1  6
  2  3  1  0
  4  3  1  0
  4  5  1  0
  6  5  1  0
  6  7  1  0
  8  2  1  0
  9  8  2  0
 10 11  1  0
 11 12  2  0
 12 13  1  0
 14 15  1  0
 14 13  2  0
 16 15  1  1
 16 17  1  0
 17  8  1  0
 18 16  1  0
 18 19  2  0
 20 14  1  0
 21 20  2  0
 21 11  1  0
 23 22  1  6
 23 25  1  0
 24 23  1  0
 25 26  1  6
 25 27  1  0
 26 18  1  0
 27 28  1  0
 29 27  2  0
M  END
$$$$
