KYT.pdb
     RDKit          3D

 29 29  0  0  1  0  0  0  0  0999 V2000
    8.2305  -16.5582   19.1662 N   0  0  0  0  0  0  0  0  0  0  0  0
    8.3555  -17.3230   20.3568 C   0  0  1  0  0  0  0  0  0  0  0  0
    9.1903  -18.5828   20.0563 C   0  0  0  0  0  0  0  0  0  0  0  0
    8.2621  -19.5562   19.4221 C   0  0  0  0  0  0  0  0  0  0  0  0
    8.7866  -20.9177   19.1560 C   0  0  0  0  0  0  0  0  0  0  0  0
    7.8033  -21.8485   18.5172 C   0  0  0  0  0  0  0  0  0  0  0  0
    8.2864  -23.1549   18.2177 N   0  0  0  0  0  0  0  0  0  0  0  0
    9.0337  -16.6292   21.4789 C   0  0  0  0  0  0  0  0  0  0  0  0
   10.0549  -15.9007   21.2530 O   0  0  0  0  0  0  0  0  0  0  0  0
   11.4289  -14.1293   29.7042 O   0  0  0  0  0  0  0  0  0  0  0  0
   10.7281  -14.5824   28.5803 C   0  0  0  0  0  0  0  0  0  0  0  0
   10.5181  -15.9254   28.3493 C   0  0  0  0  0  0  0  0  0  0  0  0
    9.8232  -16.2981   27.2280 C   0  0  0  0  0  0  0  0  0  0  0  0
    9.3200  -15.3987   26.3133 C   0  0  0  0  0  0  0  0  0  0  0  0
    8.5754  -15.7939   25.1050 C   0  0  0  0  0  0  0  0  0  0  0  0
    9.4122  -16.0749   23.9070 C   0  0  2  0  0  0  0  0  0  0  0  0
    8.6395  -16.7006   22.8382 N   0  0  0  0  0  0  0  0  0  0  0  0
   10.5892  -16.8910   24.2625 C   0  0  0  0  0  0  0  0  0  0  0  0
   10.4204  -18.0187   24.7765 O   0  0  0  0  0  0  0  0  0  0  0  0
    9.5503  -14.0623   26.5786 C   0  0  0  0  0  0  0  0  0  0  0  0
   10.2437  -13.6415   27.6933 C   0  0  0  0  0  0  0  0  0  0  0  0
   13.0012  -18.5150   22.2570 C   0  0  0  0  0  0  0  0  0  0  0  0
   13.8232  -17.6362   23.1515 C   0  0  1  0  0  0  0  0  0  0  0  0
   14.2667  -16.5109   22.4467 O   0  0  0  0  0  0  0  0  0  0  0  0
   13.0361  -17.2252   24.3754 C   0  0  2  0  0  0  0  0  0  0  0  0
   11.8990  -16.4033   24.0244 N   0  0  0  0  0  0  0  0  0  0  0  0
   13.8883  -16.4808   25.3381 C   0  0  0  0  0  0  0  0  0  0  0  0
   14.9159  -17.1480   25.9822 O   0  0  0  0  0  0  0  0  0  0  0  0
   13.6888  -15.2689   25.5704 O   0  0  0  0  0  0  0  0  0  0  0  0
  2  1  1  6
  2  3  1  0
  4  3  1  0
  4  5  1  0
  6  5  1  0
  6  7  1  0
  8  2  1  0
  9  8  2  0
 10 11  1  0
 11 12  2  0
 12 13  1  0
 14 15  1  0
 14 13  2  0
 16 15  1  1
 16 17  1  0
 17  8  1  0
 18 16  1  0
 18 19  2  0
 20 14  1  0
 21 20  2  0
 21 11  1  0
 23 22  1  6
 23 25  1  0
 24 23  1  0
 25 26  1  6
 25 27  1  0
 26 18  1  0
 27 28  1  0
 29 27  2  0
M  END
$$$$
