KYT.pdb
     RDKit          3D

 29 29  0  0  1  0  0  0  0  0999 V2000
    9.1239  -17.2549   19.2638 N   0  0  0  0  0  0  0  0  0  0  0  0
    8.7716  -15.9688   19.7537 C   0  0  1  0  0  0  0  0  0  0  0  0
    7.4139  -15.5592   19.1512 C   0  0  0  0  0  0  0  0  0  0  0  0
    7.6248  -15.4521   17.6831 C   0  0  0  0  0  0  0  0  0  0  0  0
    7.6895  -14.0875   17.1058 C   0  0  0  0  0  0  0  0  0  0  0  0
    7.7619  -14.0479   15.6110 C   0  0  0  0  0  0  0  0  0  0  0  0
    7.6663  -12.7566   15.0169 N   0  0  0  0  0  0  0  0  0  0  0  0
    8.6202  -15.8793   21.2265 C   0  0  0  0  0  0  0  0  0  0  0  0
    7.6402  -16.4565   21.8023 O   0  0  0  0  0  0  0  0  0  0  0  0
    6.3888  -11.9182   28.5073 O   0  0  0  0  0  0  0  0  0  0  0  0
    6.7074  -12.4669   27.2594 C   0  0  0  0  0  0  0  0  0  0  0  0
    5.9086  -13.4175   26.6598 C   0  0  0  0  0  0  0  0  0  0  0  0
    6.2814  -13.9117   25.4367 C   0  0  0  0  0  0  0  0  0  0  0  0
    7.4175  -13.5082   24.7695 C   0  0  0  0  0  0  0  0  0  0  0  0
    7.8245  -14.0384   23.4565 C   0  0  0  0  0  0  0  0  0  0  0  0
    9.1077  -14.7918   23.4460 C   0  0  2  0  0  0  0  0  0  0  0  0
    9.4976  -15.1835   22.0949 N   0  0  0  0  0  0  0  0  0  0  0  0
    9.0423  -15.9621   24.3427 C   0  0  0  0  0  0  0  0  0  0  0  0
    7.9557  -16.5647   24.4856 O   0  0  0  0  0  0  0  0  0  0  0  0
    8.1924  -12.5546   25.4017 C   0  0  0  0  0  0  0  0  0  0  0  0
    7.8567  -12.0295   26.6313 C   0  0  0  0  0  0  0  0  0  0  0  0
   10.6616  -19.2544   24.2290 C   0  0  0  0  0  0  0  0  0  0  0  0
   11.0646  -18.6337   25.5329 C   0  0  1  0  0  0  0  0  0  0  0  0
   12.3723  -18.1411   25.4487 O   0  0  0  0  0  0  0  0  0  0  0  0
   10.1033  -17.5352   25.9274 C   0  0  2  0  0  0  0  0  0  0  0  0
   10.1988  -16.4003   25.0361 N   0  0  0  0  0  0  0  0  0  0  0  0
   10.3523  -17.0763   27.3183 C   0  0  0  0  0  0  0  0  0  0  0  0
   10.2087  -17.9770   28.3595 O   0  0  0  0  0  0  0  0  0  0  0  0
   10.6872  -15.8957   27.5559 O   0  0  0  0  0  0  0  0  0  0  0  0
  2  1  1  1
  2  3  1  0
  4  3  1  0
  4  5  1  0
  6  5  1  0
  6  7  1  0
  8  2  1  0
  9  8  2  0
 10 11  1  0
 11 12  2  0
 12 13  1  0
 14 15  1  0
 14 13  2  0
 16 15  1  6
 16 17  1  0
 17  8  1  0
 18 16  1  0
 18 19  2  0
 20 14  1  0
 21 20  2  0
 21 11  1  0
 23 22  1  6
 23 25  1  0
 24 23  1  0
 25 26  1  6
 25 27  1  0
 26 18  1  0
 27 28  1  0
 29 27  2  0
M  END
$$$$
