KYT.pdb
     RDKit          3D

 29 29  0  0  1  0  0  0  0  0999 V2000
    8.9789  -15.8909   19.2578 N   0  0  0  0  0  0  0  0  0  0  0  0
    8.5181  -16.5692   20.4178 C   0  0  1  0  0  0  0  0  0  0  0  0
    8.7223  -18.0842   20.2253 C   0  0  0  0  0  0  0  0  0  0  0  0
    7.3829  -18.6487   19.9115 C   0  0  0  0  0  0  0  0  0  0  0  0
    6.8791  -18.4686   18.5283 C   0  0  0  0  0  0  0  0  0  0  0  0
    6.4631  -19.7360   17.8485 C   0  0  0  0  0  0  0  0  0  0  0  0
    5.1325  -20.1739   18.1078 N   0  0  0  0  0  0  0  0  0  0  0  0
    9.2190  -16.2085   21.6744 C   0  0  0  0  0  0  0  0  0  0  0  0
   10.4589  -15.9139   21.6499 O   0  0  0  0  0  0  0  0  0  0  0  0
   11.0148  -14.4530   30.2332 O   0  0  0  0  0  0  0  0  0  0  0  0
   10.3945  -14.6210   28.9896 C   0  0  0  0  0  0  0  0  0  0  0  0
   10.2236  -13.5679   28.1161 C   0  0  0  0  0  0  0  0  0  0  0  0
    9.6075  -13.8046   26.9146 C   0  0  0  0  0  0  0  0  0  0  0  0
    9.1468  -15.0448   26.5295 C   0  0  0  0  0  0  0  0  0  0  0  0
    8.4812  -15.3041   25.2409 C   0  0  0  0  0  0  0  0  0  0  0  0
    9.3702  -15.8005   24.1557 C   0  0  2  0  0  0  0  0  0  0  0  0
    8.6180  -16.1575   22.9567 N   0  0  0  0  0  0  0  0  0  0  0  0
   10.1966  -16.9304   24.6230 C   0  0  0  0  0  0  0  0  0  0  0  0
    9.6457  -18.0175   24.9041 O   0  0  0  0  0  0  0  0  0  0  0  0
    9.3360  -16.0750   27.4308 C   0  0  0  0  0  0  0  0  0  0  0  0
    9.9502  -15.8835   28.6500 C   0  0  0  0  0  0  0  0  0  0  0  0
   12.7015  -18.7882   22.8862 C   0  0  0  0  0  0  0  0  0  0  0  0
   13.3948  -18.3311   24.1346 C   0  0  1  0  0  0  0  0  0  0  0  0
   14.2700  -17.2783   23.8423 O   0  0  0  0  0  0  0  0  0  0  0  0
   12.3920  -17.9167   25.1877 C   0  0  2  0  0  0  0  0  0  0  0  0
   11.6011  -16.7867   24.7527 N   0  0  0  0  0  0  0  0  0  0  0  0
   13.0661  -17.5683   26.4649 C   0  0  0  0  0  0  0  0  0  0  0  0
   13.8067  -18.5367   27.1204 O   0  0  0  0  0  0  0  0  0  0  0  0
   12.9724  -16.4199   26.9494 O   0  0  0  0  0  0  0  0  0  0  0  0
  2  1  1  6
  2  3  1  0
  4  3  1  0
  4  5  1  0
  6  5  1  0
  6  7  1  0
  8  2  1  0
  9  8  2  0
 10 11  1  0
 11 12  2  0
 12 13  1  0
 14 15  1  0
 14 13  2  0
 16 15  1  1
 16 17  1  0
 17  8  1  0
 18 16  1  0
 18 19  2  0
 20 14  1  0
 21 20  2  0
 21 11  1  0
 23 22  1  6
 23 25  1  0
 24 23  1  0
 25 26  1  6
 25 27  1  0
 26 18  1  0
 27 28  1  0
 29 27  2  0
M  END
$$$$
