KYT.pdb
     RDKit          3D

 29 29  0  0  1  0  0  0  0  0999 V2000
    8.0177  -13.2913   20.3557 N   0  0  0  0  0  0  0  0  0  0  0  0
    7.7060  -14.5622   20.9087 C   0  0  1  0  0  0  0  0  0  0  0  0
    8.2904  -15.6600   19.9991 C   0  0  0  0  0  0  0  0  0  0  0  0
    7.1815  -16.6141   19.7323 C   0  0  0  0  0  0  0  0  0  0  0  0
    7.4907  -17.7927   18.8868 C   0  0  0  0  0  0  0  0  0  0  0  0
    6.3185  -18.6806   18.6059 C   0  0  0  0  0  0  0  0  0  0  0  0
    6.5533  -19.7535   17.6985 N   0  0  0  0  0  0  0  0  0  0  0  0
    8.2541  -14.8067   22.2652 C   0  0  0  0  0  0  0  0  0  0  0  0
    9.4404  -14.4365   22.5490 O   0  0  0  0  0  0  0  0  0  0  0  0
    6.1919   -9.8974   26.9855 O   0  0  0  0  0  0  0  0  0  0  0  0
    6.3783  -11.2449   26.6552 C   0  0  0  0  0  0  0  0  0  0  0  0
    5.3954  -11.9803   26.0271 C   0  0  0  0  0  0  0  0  0  0  0  0
    5.6462  -13.2956   25.7332 C   0  0  0  0  0  0  0  0  0  0  0  0
    6.8337  -13.9270   26.0329 C   0  0  0  0  0  0  0  0  0  0  0  0
    7.1071  -15.3410   25.7221 C   0  0  0  0  0  0  0  0  0  0  0  0
    8.1250  -15.5727   24.6616 C   0  0  2  0  0  0  0  0  0  0  0  0
    7.5566  -15.4402   23.3237 N   0  0  0  0  0  0  0  0  0  0  0  0
    8.7819  -16.8828   24.8349 C   0  0  0  0  0  0  0  0  0  0  0  0
    8.1201  -17.9287   24.6553 O   0  0  0  0  0  0  0  0  0  0  0  0
    7.7941  -13.1579   26.6618 C   0  0  0  0  0  0  0  0  0  0  0  0
    7.5861  -11.8320   26.9765 C   0  0  0  0  0  0  0  0  0  0  0  0
   11.7750  -18.3279   23.1420 C   0  0  0  0  0  0  0  0  0  0  0  0
   12.0428  -18.3913   24.6159 C   0  0  1  0  0  0  0  0  0  0  0  0
   12.9595  -17.3987   24.9825 O   0  0  0  0  0  0  0  0  0  0  0  0
   10.7598  -18.2523   25.4039 C   0  0  2  0  0  0  0  0  0  0  0  0
   10.1496  -16.9569   25.2012 N   0  0  0  0  0  0  0  0  0  0  0  0
   10.9971  -18.4497   26.8572 C   0  0  0  0  0  0  0  0  0  0  0  0
   11.5502  -19.6415   27.2924 O   0  0  0  0  0  0  0  0  0  0  0  0
   10.7049  -17.5586   27.6835 O   0  0  0  0  0  0  0  0  0  0  0  0
  2  1  1  6
  2  3  1  0
  4  3  1  0
  4  5  1  0
  6  5  1  0
  6  7  1  0
  8  2  1  0
  9  8  2  0
 10 11  1  0
 11 12  2  0
 12 13  1  0
 14 15  1  0
 14 13  2  0
 16 15  1  1
 16 17  1  0
 17  8  1  0
 18 16  1  0
 18 19  2  0
 20 14  1  0
 21 20  2  0
 21 11  1  0
 23 22  1  6
 23 25  1  0
 24 23  1  0
 25 26  1  1
 25 27  1  0
 26 18  1  0
 27 28  1  0
 29 27  2  0
M  END
$$$$
