WGK.pdb
     RDKit          3D

 28 29  0  0  1  0  0  0  0  0999 V2000
    6.8952  -17.6764   23.4876 N   0  0  0  0  0  0  0  0  0  0  0  0
    7.6957  -16.5180   23.1736 C   0  0  1  0  0  0  0  0  0  0  0  0
    8.3532  -16.0195   24.4441 C   0  0  0  0  0  0  0  0  0  0  0  0
    7.4199  -15.1803   25.2272 C   0  0  0  0  0  0  0  0  0  0  0  0
    6.3813  -15.6178   25.9856 C   0  0  0  0  0  0  0  0  0  0  0  0
    5.7663  -14.5517   26.5378 N   0  0  0  0  0  0  0  0  0  0  0  0
    6.4015  -13.4295   26.1404 C   0  0  0  0  0  0  0  0  0  0  0  0
    6.1814  -12.0842   26.4143 C   0  0  0  0  0  0  0  0  0  0  0  0
    7.0031  -11.1373   25.8622 C   0  0  0  0  0  0  0  0  0  0  0  0
    8.0288  -11.5059   25.0510 C   0  0  0  0  0  0  0  0  0  0  0  0
    8.2560  -12.8329   24.7730 C   0  0  0  0  0  0  0  0  0  0  0  0
    7.4401  -13.8134   25.3182 C   0  0  0  0  0  0  0  0  0  0  0  0
    8.7829  -16.8597   22.2151 C   0  0  0  0  0  0  0  0  0  0  0  0
    9.1783  -18.0551   22.1260 O   0  0  0  0  0  0  0  0  0  0  0  0
    9.3564  -15.8282   21.4150 N   0  0  0  0  0  0  0  0  0  0  0  0
   10.4477  -16.1810   20.5578 C   0  0  0  0  0  0  0  0  0  0  0  0
   11.7459  -16.2427   21.2641 C   0  0  0  0  0  0  0  0  0  0  0  0
   12.8612  -16.2742   20.6868 O   0  0  0  0  0  0  0  0  0  0  0  0
   11.7292  -16.2674   22.6821 N   0  0  0  0  0  0  0  0  0  0  0  0
   12.9430  -16.2914   23.4939 C   0  0  1  0  0  0  0  0  0  0  0  0
   12.5186  -16.1545   24.9436 C   0  0  0  0  0  0  0  0  0  0  0  0
   11.9602  -17.4150   25.5193 C   0  0  0  0  0  0  0  0  0  0  0  0
   11.5508  -17.2191   26.9515 C   0  0  0  0  0  0  0  0  0  0  0  0
   10.8197  -18.4419   27.4720 C   0  0  0  0  0  0  0  0  0  0  0  0
   10.4289  -18.1555   28.8406 N   0  0  0  0  0  0  0  0  0  0  0  0
   13.6844  -17.5412   23.2442 C   0  0  0  0  0  0  0  0  0  0  0  0
   14.8793  -17.6754   23.5873 O   0  0  0  0  0  0  0  0  0  0  0  0
   13.0476  -18.5885   22.6179 O   0  0  0  0  0  0  0  0  0  0  0  0
  2  1  1  1
  2 13  1  0
  2  3  1  0
  4  3  1  0
  5  4  2  0
  6  5  1  0
  7  6  1  0
  7 12  2  0
  8  7  1  0
  9  8  2  0
  9 10  1  0
 10 11  2  0
 11 12  1  0
 12  4  1  0
 13 14  2  0
 15 13  1  0
 15 16  1  0
 17 16  1  0
 17 18  2  0
 19 17  1  0
 20 26  1  0
 20 19  1  0
 20 21  1  1
 22 21  1  0
 23 24  1  0
 23 22  1  0
 24 25  1  0
 26 27  2  0
 26 28  1  0
M  END
$$$$
