WGK.pdb
     RDKit          3D

 28 29  0  0  1  0  0  0  0  0999 V2000
    7.6921  -17.3685   23.2729 N   0  0  0  0  0  0  0  0  0  0  0  0
    8.2890  -16.0697   23.0781 C   0  0  1  0  0  0  0  0  0  0  0  0
    8.7600  -15.5426   24.4180 C   0  0  0  0  0  0  0  0  0  0  0  0
    7.6431  -14.9208   25.1627 C   0  0  0  0  0  0  0  0  0  0  0  0
    6.5852  -15.5652   25.7203 C   0  0  0  0  0  0  0  0  0  0  0  0
    5.7808  -14.6546   26.3065 N   0  0  0  0  0  0  0  0  0  0  0  0
    6.3130  -13.4272   26.1304 C   0  0  0  0  0  0  0  0  0  0  0  0
    5.8955  -12.1618   26.5276 C   0  0  0  0  0  0  0  0  0  0  0  0
    6.6515  -11.0664   26.2036 C   0  0  0  0  0  0  0  0  0  0  0  0
    7.8039  -11.2107   25.4984 C   0  0  0  0  0  0  0  0  0  0  0  0
    8.2266  -12.4568   25.1003 C   0  0  0  0  0  0  0  0  0  0  0  0
    7.4812  -13.5838   25.4142 C   0  0  0  0  0  0  0  0  0  0  0  0
    9.4812  -16.1538   22.1897 C   0  0  0  0  0  0  0  0  0  0  0  0
    9.5326  -15.4383   21.1511 O   0  0  0  0  0  0  0  0  0  0  0  0
   10.5431  -17.0421   22.5306 N   0  0  0  0  0  0  0  0  0  0  0  0
   11.7632  -16.9351   21.7888 C   0  0  0  0  0  0  0  0  0  0  0  0
   12.7653  -17.9554   22.1668 C   0  0  0  0  0  0  0  0  0  0  0  0
   12.5891  -18.8177   23.0631 O   0  0  0  0  0  0  0  0  0  0  0  0
   14.0021  -17.9593   21.4728 N   0  0  0  0  0  0  0  0  0  0  0  0
   15.0964  -18.8703   21.7981 C   0  0  1  0  0  0  0  0  0  0  0  0
   16.2296  -18.5762   20.8337 C   0  0  0  0  0  0  0  0  0  0  0  0
   15.8641  -18.8029   19.4030 C   0  0  0  0  0  0  0  0  0  0  0  0
   17.0345  -18.5393   18.4987 C   0  0  0  0  0  0  0  0  0  0  0  0
   16.6154  -18.6173   17.0430 C   0  0  0  0  0  0  0  0  0  0  0  0
   17.7794  -18.2770   16.2446 N   0  0  0  0  0  0  0  0  0  0  0  0
   15.4973  -18.6848   23.2048 C   0  0  0  0  0  0  0  0  0  0  0  0
   15.9595  -19.6264   23.8853 O   0  0  0  0  0  0  0  0  0  0  0  0
   15.3605  -17.4448   23.7863 O   0  0  0  0  0  0  0  0  0  0  0  0
  2  1  1  1
  2 13  1  0
  2  3  1  0
  4  3  1  0
  5  4  2  0
  6  5  1  0
  7  6  1  0
  7 12  2  0
  8  7  1  0
  9  8  2  0
  9 10  1  0
 10 11  2  0
 11 12  1  0
 12  4  1  0
 13 14  2  0
 15 13  1  0
 15 16  1  0
 17 16  1  0
 17 18  2  0
 19 17  1  0
 20 26  1  0
 20 19  1  0
 20 21  1  6
 22 21  1  0
 23 24  1  0
 23 22  1  0
 24 25  1  0
 26 27  2  0
 26 28  1  0
M  END
$$$$
