WGK.pdb
     RDKit          3D

 28 29  0  0  1  0  0  0  0  0999 V2000
    8.7890  -16.0937   22.2594 N   0  0  0  0  0  0  0  0  0  0  0  0
    9.9621  -15.6298   22.9593 C   0  0  1  0  0  0  0  0  0  0  0  0
    9.7108  -14.2199   23.4530 C   0  0  0  0  0  0  0  0  0  0  0  0
    8.3001  -14.0481   23.8640 C   0  0  0  0  0  0  0  0  0  0  0  0
    7.2132  -14.6179   23.2816 C   0  0  0  0  0  0  0  0  0  0  0  0
    6.1061  -14.2155   23.9391 N   0  0  0  0  0  0  0  0  0  0  0  0
    6.4721  -13.3899   24.9417 C   0  0  0  0  0  0  0  0  0  0  0  0
    5.7382  -12.7089   25.9065 C   0  0  0  0  0  0  0  0  0  0  0  0
    6.3873  -11.9236   26.8222 C   0  0  0  0  0  0  0  0  0  0  0  0
    7.7408  -11.8080   26.7918 C   0  0  0  0  0  0  0  0  0  0  0  0
    8.4768  -12.4766   25.8425 C   0  0  0  0  0  0  0  0  0  0  0  0
    7.8462  -13.2788   24.9028 C   0  0  0  0  0  0  0  0  0  0  0  0
   10.2452  -16.4747   24.1525 C   0  0  0  0  0  0  0  0  0  0  0  0
   11.0370  -16.0503   25.0393 O   0  0  0  0  0  0  0  0  0  0  0  0
    9.6148  -17.7481   24.2702 N   0  0  0  0  0  0  0  0  0  0  0  0
    9.8840  -18.5167   25.4480 C   0  0  0  0  0  0  0  0  0  0  0  0
   11.3282  -18.7314   25.6852 C   0  0  0  0  0  0  0  0  0  0  0  0
   12.2410  -18.1582   25.0398 O   0  0  0  0  0  0  0  0  0  0  0  0
   11.7048  -19.6415   26.7056 N   0  0  0  0  0  0  0  0  0  0  0  0
   13.0961  -19.9436   27.0315 C   0  0  1  0  0  0  0  0  0  0  0  0
   13.0881  -20.8398   28.2551 C   0  0  0  0  0  0  0  0  0  0  0  0
   13.1051  -20.0839   29.5436 C   0  0  0  0  0  0  0  0  0  0  0  0
   13.1271  -21.0201   30.7183 C   0  0  0  0  0  0  0  0  0  0  0  0
   13.3598  -20.2565   32.0081 C   0  0  0  0  0  0  0  0  0  0  0  0
   13.3213  -21.2239   33.0900 N   0  0  0  0  0  0  0  0  0  0  0  0
   13.7510  -20.5822   25.8750 C   0  0  0  0  0  0  0  0  0  0  0  0
   13.1111  -21.2884   25.0657 O   0  0  0  0  0  0  0  0  0  0  0  0
   15.1008  -20.3979   25.6789 O   0  0  0  0  0  0  0  0  0  0  0  0
  2  1  1  1
  2 13  1  0
  2  3  1  0
  4  3  1  0
  5  4  2  0
  6  5  1  0
  7  6  1  0
  7 12  2  0
  8  7  1  0
  9  8  2  0
  9 10  1  0
 10 11  2  0
 11 12  1  0
 12  4  1  0
 13 14  2  0
 15 13  1  0
 15 16  1  0
 17 16  1  0
 17 18  2  0
 19 17  1  0
 20 26  1  0
 20 19  1  0
 20 21  1  1
 22 21  1  0
 23 24  1  0
 23 22  1  0
 24 25  1  0
 26 27  2  0
 26 28  1  0
M  END
$$$$
