WGK.pdb
     RDKit          3D

 28 29  0  0  1  0  0  0  0  0999 V2000
    8.7868  -17.2679   25.1722 N   0  0  0  0  0  0  0  0  0  0  0  0
    7.8318  -17.2379   24.0913 C   0  0  1  0  0  0  0  0  0  0  0  0
    7.3914  -15.8057   23.8681 C   0  0  0  0  0  0  0  0  0  0  0  0
    6.8792  -15.2096   25.1215 C   0  0  0  0  0  0  0  0  0  0  0  0
    6.1509  -15.8412   26.0786 C   0  0  0  0  0  0  0  0  0  0  0  0
    5.8705  -14.9623   27.0628 N   0  0  0  0  0  0  0  0  0  0  0  0
    6.4133  -13.7681   26.7467 C   0  0  0  0  0  0  0  0  0  0  0  0
    6.4232  -12.5427   27.4037 C   0  0  0  0  0  0  0  0  0  0  0  0
    7.0683  -11.4754   26.8369 C   0  0  0  0  0  0  0  0  0  0  0  0
    7.6964  -11.6086   25.6395 C   0  0  0  0  0  0  0  0  0  0  0  0
    7.6932  -12.8152   24.9807 C   0  0  0  0  0  0  0  0  0  0  0  0
    7.0481  -13.9131   25.5309 C   0  0  0  0  0  0  0  0  0  0  0  0
    8.4428  -17.7180   22.8209 C   0  0  0  0  0  0  0  0  0  0  0  0
    7.6972  -18.1492   21.8981 O   0  0  0  0  0  0  0  0  0  0  0  0
    9.8603  -17.6807   22.6715 N   0  0  0  0  0  0  0  0  0  0  0  0
   10.4025  -18.0143   21.3890 C   0  0  0  0  0  0  0  0  0  0  0  0
   11.8590  -17.7750   21.2929 C   0  0  0  0  0  0  0  0  0  0  0  0
   12.6503  -17.8457   22.2661 O   0  0  0  0  0  0  0  0  0  0  0  0
   12.3947  -17.4452   20.0218 N   0  0  0  0  0  0  0  0  0  0  0  0
   12.4294  -16.0815   19.5002 C   0  0  1  0  0  0  0  0  0  0  0  0
   11.0036  -15.5640   19.4960 C   0  0  0  0  0  0  0  0  0  0  0  0
   10.8939  -14.1324   19.0831 C   0  0  0  0  0  0  0  0  0  0  0  0
    9.4560  -13.7179   18.9499 C   0  0  0  0  0  0  0  0  0  0  0  0
    9.3537  -12.2572   18.5541 C   0  0  0  0  0  0  0  0  0  0  0  0
    7.9413  -11.9233   18.5146 N   0  0  0  0  0  0  0  0  0  0  0  0
   13.3223  -15.2531   20.3311 C   0  0  0  0  0  0  0  0  0  0  0  0
   14.2316  -14.5588   19.8267 O   0  0  0  0  0  0  0  0  0  0  0  0
   13.1527  -15.2416   21.6970 O   0  0  0  0  0  0  0  0  0  0  0  0
  2  1  1  1
  2 13  1  0
  2  3  1  0
  4  3  1  0
  5  4  2  0
  6  5  1  0
  7  6  1  0
  7 12  2  0
  8  7  1  0
  9  8  2  0
  9 10  1  0
 10 11  2  0
 11 12  1  0
 12  4  1  0
 13 14  2  0
 15 13  1  0
 15 16  1  0
 17 16  1  0
 17 18  2  0
 19 17  1  0
 20 26  1  0
 20 19  1  0
 20 21  1  1
 22 21  1  0
 23 24  1  0
 23 22  1  0
 24 25  1  0
 26 27  2  0
 26 28  1  0
M  END
$$$$
