WGK.pdb
     RDKit          3D

 28 29  0  0  1  0  0  0  0  0999 V2000
    6.5075  -17.8720   24.8205 N   0  0  0  0  0  0  0  0  0  0  0  0
    7.4272  -17.0974   24.0233 C   0  0  1  0  0  0  0  0  0  0  0  0
    8.1593  -16.1267   24.9270 C   0  0  0  0  0  0  0  0  0  0  0  0
    7.2149  -15.1808   25.5609 C   0  0  0  0  0  0  0  0  0  0  0  0
    6.0723  -15.5004   26.2224 C   0  0  0  0  0  0  0  0  0  0  0  0
    5.4849  -14.3639   26.6505 N   0  0  0  0  0  0  0  0  0  0  0  0
    6.2413  -13.3135   26.2693 C   0  0  0  0  0  0  0  0  0  0  0  0
    6.0958  -11.9426   26.4501 C   0  0  0  0  0  0  0  0  0  0  0  0
    7.0400  -11.0886   25.9444 C   0  0  0  0  0  0  0  0  0  0  0  0
    8.1146  -11.5740   25.2692 C   0  0  0  0  0  0  0  0  0  0  0  0
    8.2689  -12.9275   25.0841 C   0  0  0  0  0  0  0  0  0  0  0  0
    7.3286  -13.8157   25.5853 C   0  0  0  0  0  0  0  0  0  0  0  0
    8.4516  -17.9696   23.3851 C   0  0  0  0  0  0  0  0  0  0  0  0
    9.1582  -18.7269   24.1067 O   0  0  0  0  0  0  0  0  0  0  0  0
    8.6142  -17.9325   21.9691 N   0  0  0  0  0  0  0  0  0  0  0  0
    9.6336  -18.7582   21.3952 C   0  0  0  0  0  0  0  0  0  0  0  0
    9.7815  -18.5700   19.9355 C   0  0  0  0  0  0  0  0  0  0  0  0
    9.4440  -19.4231   19.0774 O   0  0  0  0  0  0  0  0  0  0  0  0
   10.3393  -17.3492   19.4772 N   0  0  0  0  0  0  0  0  0  0  0  0
   10.4519  -17.0050   18.0623 C   0  0  1  0  0  0  0  0  0  0  0  0
   10.0504  -15.5494   17.9192 C   0  0  0  0  0  0  0  0  0  0  0  0
    8.7136  -15.2423   18.5114 C   0  0  0  0  0  0  0  0  0  0  0  0
    8.3175  -13.8186   18.2404 C   0  0  0  0  0  0  0  0  0  0  0  0
    6.9259  -13.5385   18.7748 C   0  0  0  0  0  0  0  0  0  0  0  0
    6.6165  -12.1561   18.4566 N   0  0  0  0  0  0  0  0  0  0  0  0
   11.8290  -17.2534   17.5975 C   0  0  0  0  0  0  0  0  0  0  0  0
   12.1418  -17.1574   16.3907 O   0  0  0  0  0  0  0  0  0  0  0  0
   12.7967  -17.5998   18.5129 O   0  0  0  0  0  0  0  0  0  0  0  0
  2  1  1  1
  2 13  1  0
  2  3  1  0
  4  3  1  0
  5  4  2  0
  6  5  1  0
  7  6  1  0
  7 12  2  0
  8  7  1  0
  9  8  2  0
  9 10  1  0
 10 11  2  0
 11 12  1  0
 12  4  1  0
 13 14  2  0
 15 13  1  0
 15 16  1  0
 17 16  1  0
 17 18  2  0
 19 17  1  0
 20 26  1  0
 20 19  1  0
 20 21  1  1
 22 21  1  0
 23 24  1  0
 23 22  1  0
 24 25  1  0
 26 27  2  0
 26 28  1  0
M  END
$$$$
