WGK.pdb
     RDKit          3D

 28 29  0  0  1  0  0  0  0  0999 V2000
    7.6729  -16.8011   22.9323 N   0  0  0  0  0  0  0  0  0  0  0  0
    8.5249  -15.6505   23.1099 C   0  0  1  0  0  0  0  0  0  0  0  0
    8.7053  -15.4005   24.5930 C   0  0  0  0  0  0  0  0  0  0  0  0
    7.4760  -14.8291   25.1854 C   0  0  0  0  0  0  0  0  0  0  0  0
    6.4144  -15.5236   25.6712 C   0  0  0  0  0  0  0  0  0  0  0  0
    5.4909  -14.6488   26.1204 N   0  0  0  0  0  0  0  0  0  0  0  0
    5.9501  -13.3948   25.9273 C   0  0  0  0  0  0  0  0  0  0  0  0
    5.4049  -12.1466   26.2068 C   0  0  0  0  0  0  0  0  0  0  0  0
    6.1108  -11.0143   25.8968 C   0  0  0  0  0  0  0  0  0  0  0  0
    7.3374  -11.1054   25.3195 C   0  0  0  0  0  0  0  0  0  0  0  0
    7.8865  -12.3340   25.0385 C   0  0  0  0  0  0  0  0  0  0  0  0
    7.1944  -13.4975   25.3415 C   0  0  0  0  0  0  0  0  0  0  0  0
    9.8765  -15.8882   22.5316 C   0  0  0  0  0  0  0  0  0  0  0  0
   10.7371  -14.9655   22.5662 O   0  0  0  0  0  0  0  0  0  0  0  0
   10.1725  -17.1558   21.9496 N   0  0  0  0  0  0  0  0  0  0  0  0
   11.5095  -17.3795   21.4885 C   0  0  0  0  0  0  0  0  0  0  0  0
   12.4468  -17.7397   22.5746 C   0  0  0  0  0  0  0  0  0  0  0  0
   13.6958  -17.7749   22.4445 O   0  0  0  0  0  0  0  0  0  0  0  0
   11.9000  -18.0652   23.8421 N   0  0  0  0  0  0  0  0  0  0  0  0
   12.7212  -18.3787   25.0085 C   0  0  1  0  0  0  0  0  0  0  0  0
   11.7776  -18.6460   26.1655 C   0  0  0  0  0  0  0  0  0  0  0  0
   12.4606  -18.6700   27.4940 C   0  0  0  0  0  0  0  0  0  0  0  0
   11.7613  -17.7740   28.4765 C   0  0  0  0  0  0  0  0  0  0  0  0
   12.5110  -17.7353   29.7945 C   0  0  0  0  0  0  0  0  0  0  0  0
   11.6757  -17.0172   30.7402 N   0  0  0  0  0  0  0  0  0  0  0  0
   13.5850  -19.5365   24.7127 C   0  0  0  0  0  0  0  0  0  0  0  0
   13.1540  -20.5377   24.1004 O   0  0  0  0  0  0  0  0  0  0  0  0
   14.8998  -19.5173   25.1197 O   0  0  0  0  0  0  0  0  0  0  0  0
  2  1  1  1
  2 13  1  0
  2  3  1  0
  4  3  1  0
  5  4  2  0
  6  5  1  0
  7  6  1  0
  7 12  2  0
  8  7  1  0
  9  8  2  0
  9 10  1  0
 10 11  2  0
 11 12  1  0
 12  4  1  0
 13 14  2  0
 15 13  1  0
 15 16  1  0
 17 16  1  0
 17 18  2  0
 19 17  1  0
 20 26  1  0
 20 19  1  0
 20 21  1  1
 22 21  1  0
 23 24  1  0
 23 22  1  0
 24 25  1  0
 26 27  2  0
 26 28  1  0
M  END
$$$$
