WGK.pdb
     RDKit          3D

 28 29  0  0  1  0  0  0  0  0999 V2000
    7.4831  -16.5701   23.8939 N   0  0  0  0  0  0  0  0  0  0  0  0
    7.3958  -15.7230   22.7294 C   0  0  1  0  0  0  0  0  0  0  0  0
    7.3736  -14.2763   23.1782 C   0  0  0  0  0  0  0  0  0  0  0  0
    8.0252  -14.1229   24.4975 C   0  0  0  0  0  0  0  0  0  0  0  0
    9.3067  -14.4483   24.8091 C   0  0  0  0  0  0  0  0  0  0  0  0
    9.5233  -14.1657   26.1102 N   0  0  0  0  0  0  0  0  0  0  0  0
    8.3898  -13.6603   26.6398 C   0  0  0  0  0  0  0  0  0  0  0  0
    8.0739  -13.2128   27.9177 C   0  0  0  0  0  0  0  0  0  0  0  0
    6.8151  -12.7391   28.1777 C   0  0  0  0  0  0  0  0  0  0  0  0
    5.8771  -12.7049   27.1953 C   0  0  0  0  0  0  0  0  0  0  0  0
    6.1779  -13.1448   25.9281 C   0  0  0  0  0  0  0  0  0  0  0  0
    7.4445  -13.6295   25.6361 C   0  0  0  0  0  0  0  0  0  0  0  0
    8.5835  -15.8968   21.8480 C   0  0  0  0  0  0  0  0  0  0  0  0
    8.5954  -15.3533   20.7088 O   0  0  0  0  0  0  0  0  0  0  0  0
    9.6859  -16.6745   22.3094 N   0  0  0  0  0  0  0  0  0  0  0  0
   10.8688  -16.6947   21.5028 C   0  0  0  0  0  0  0  0  0  0  0  0
   12.0860  -16.3006   22.2452 C   0  0  0  0  0  0  0  0  0  0  0  0
   13.1926  -16.0546   21.7039 O   0  0  0  0  0  0  0  0  0  0  0  0
   11.9968  -16.1939   23.6566 N   0  0  0  0  0  0  0  0  0  0  0  0
   13.1674  -16.1458   24.5285 C   0  0  1  0  0  0  0  0  0  0  0  0
   12.6789  -16.3456   25.9505 C   0  0  0  0  0  0  0  0  0  0  0  0
   11.8480  -15.2118   26.4565 C   0  0  0  0  0  0  0  0  0  0  0  0
   11.3252  -15.4992   27.8354 C   0  0  0  0  0  0  0  0  0  0  0  0
   10.4793  -14.3454   28.3392 C   0  0  0  0  0  0  0  0  0  0  0  0
   10.0206  -14.7013   29.6699 N   0  0  0  0  0  0  0  0  0  0  0  0
   14.1357  -17.1798   24.1196 C   0  0  0  0  0  0  0  0  0  0  0  0
   15.3644  -16.9508   24.0828 O   0  0  0  0  0  0  0  0  0  0  0  0
   13.6785  -18.4298   23.7692 O   0  0  0  0  0  0  0  0  0  0  0  0
  2  1  1  1
  2 13  1  0
  2  3  1  0
  4  3  1  0
  5  4  2  0
  6  5  1  0
  7  6  1  0
  7 12  2  0
  8  7  1  0
  9  8  2  0
  9 10  1  0
 10 11  2  0
 11 12  1  0
 12  4  1  0
 13 14  2  0
 15 13  1  0
 15 16  1  0
 17 16  1  0
 17 18  2  0
 19 17  1  0
 20 26  1  0
 20 19  1  0
 20 21  1  1
 22 21  1  0
 23 24  1  0
 23 22  1  0
 24 25  1  0
 26 27  2  0
 26 28  1  0
M  END
$$$$
