WGK.pdb
     RDKit          3D

 28 29  0  0  1  0  0  0  0  0999 V2000
    6.4727  -17.5321   23.8784 N   0  0  0  0  0  0  0  0  0  0  0  0
    7.3380  -16.5649   23.2483 C   0  0  1  0  0  0  0  0  0  0  0  0
    8.1119  -15.8288   24.3226 C   0  0  0  0  0  0  0  0  0  0  0  0
    7.2069  -15.0071   25.1559 C   0  0  0  0  0  0  0  0  0  0  0  0
    6.2720  -15.4657   26.0282 C   0  0  0  0  0  0  0  0  0  0  0  0
    5.6481  -14.4108   26.5917 N   0  0  0  0  0  0  0  0  0  0  0  0
    6.1745  -13.2748   26.0885 C   0  0  0  0  0  0  0  0  0  0  0  0
    5.9001  -11.9325   26.3256 C   0  0  0  0  0  0  0  0  0  0  0  0
    6.6080  -10.9682   25.6579 C   0  0  0  0  0  0  0  0  0  0  0  0
    7.5738  -11.3168   24.7681 C   0  0  0  0  0  0  0  0  0  0  0  0
    7.8537  -12.6407   24.5255 C   0  0  0  0  0  0  0  0  0  0  0  0
    7.1530  -13.6385   25.1871 C   0  0  0  0  0  0  0  0  0  0  0  0
    8.3321  -17.2303   22.3614 C   0  0  0  0  0  0  0  0  0  0  0  0
    7.9282  -17.9140   21.3801 O   0  0  0  0  0  0  0  0  0  0  0  0
    9.7228  -17.0814   22.6382 N   0  0  0  0  0  0  0  0  0  0  0  0
   10.4698  -16.1736   21.8208 C   0  0  0  0  0  0  0  0  0  0  0  0
   11.8851  -16.0499   22.2324 C   0  0  0  0  0  0  0  0  0  0  0  0
   12.7423  -15.3719   21.6129 O   0  0  0  0  0  0  0  0  0  0  0  0
   12.2992  -16.7403   23.4000 N   0  0  0  0  0  0  0  0  0  0  0  0
   13.4701  -16.3532   24.1826 C   0  0  1  0  0  0  0  0  0  0  0  0
   13.2536  -16.8570   25.5968 C   0  0  0  0  0  0  0  0  0  0  0  0
   12.1229  -16.1800   26.3006 C   0  0  0  0  0  0  0  0  0  0  0  0
   11.8556  -16.8205   27.6331 C   0  0  0  0  0  0  0  0  0  0  0  0
   10.6937  -16.1402   28.3314 C   0  0  0  0  0  0  0  0  0  0  0  0
   10.3731  -16.9370   29.5019 N   0  0  0  0  0  0  0  0  0  0  0  0
   14.6872  -16.9155   23.5691 C   0  0  0  0  0  0  0  0  0  0  0  0
   14.6493  -17.9435   22.8584 O   0  0  0  0  0  0  0  0  0  0  0  0
   15.8972  -16.2951   23.7823 O   0  0  0  0  0  0  0  0  0  0  0  0
  2  1  1  1
  2 13  1  0
  2  3  1  0
  4  3  1  0
  5  4  2  0
  6  5  1  0
  7  6  1  0
  7 12  2  0
  8  7  1  0
  9  8  2  0
  9 10  1  0
 10 11  2  0
 11 12  1  0
 12  4  1  0
 13 14  2  0
 15 13  1  0
 15 16  1  0
 17 16  1  0
 17 18  2  0
 19 17  1  0
 20 26  1  0
 20 19  1  0
 20 21  1  1
 22 21  1  0
 23 24  1  0
 23 22  1  0
 24 25  1  0
 26 27  2  0
 26 28  1  0
M  END
$$$$
