WGK.pdb
     RDKit          3D

 28 29  0  0  1  0  0  0  0  0999 V2000
    6.8278  -17.6671   24.0831 N   0  0  0  0  0  0  0  0  0  0  0  0
    7.5241  -16.5982   23.4093 C   0  0  1  0  0  0  0  0  0  0  0  0
    8.1600  -15.6980   24.4485 C   0  0  0  0  0  0  0  0  0  0  0  0
    7.1283  -14.9617   25.2114 C   0  0  0  0  0  0  0  0  0  0  0  0
    6.0659  -15.5014   25.8636 C   0  0  0  0  0  0  0  0  0  0  0  0
    5.3545  -14.5072   26.4338 N   0  0  0  0  0  0  0  0  0  0  0  0
    5.9511  -13.3299   26.1536 C   0  0  0  0  0  0  0  0  0  0  0  0
    5.6365  -12.0187   26.4928 C   0  0  0  0  0  0  0  0  0  0  0  0
    6.4396  -10.9960   26.0615 C   0  0  0  0  0  0  0  0  0  0  0  0
    7.5386  -11.2568   25.3063 C   0  0  0  0  0  0  0  0  0  0  0  0
    7.8595  -12.5492   24.9647 C   0  0  0  0  0  0  0  0  0  0  0  0
    7.0646  -13.6045   25.3875 C   0  0  0  0  0  0  0  0  0  0  0  0
    8.6190  -17.1278   22.5501 C   0  0  0  0  0  0  0  0  0  0  0  0
    9.2007  -18.1994   22.8767 O   0  0  0  0  0  0  0  0  0  0  0  0
    8.9890  -16.4130   21.3731 N   0  0  0  0  0  0  0  0  0  0  0  0
   10.1844  -16.8187   20.6974 C   0  0  0  0  0  0  0  0  0  0  0  0
   11.4155  -16.5095   21.4568 C   0  0  0  0  0  0  0  0  0  0  0  0
   11.9882  -15.3914   21.4454 O   0  0  0  0  0  0  0  0  0  0  0  0
   11.9840  -17.5407   22.2472 N   0  0  0  0  0  0  0  0  0  0  0  0
   12.9323  -17.2864   23.3284 C   0  0  1  0  0  0  0  0  0  0  0  0
   12.5758  -18.2197   24.4696 C   0  0  0  0  0  0  0  0  0  0  0  0
   13.5806  -18.2148   25.5753 C   0  0  0  0  0  0  0  0  0  0  0  0
   13.1855  -19.1674   26.6678 C   0  0  0  0  0  0  0  0  0  0  0  0
   14.2272  -19.1805   27.7702 C   0  0  0  0  0  0  0  0  0  0  0  0
   13.7942  -20.1551   28.7554 N   0  0  0  0  0  0  0  0  0  0  0  0
   14.3087  -17.4968   22.8434 C   0  0  0  0  0  0  0  0  0  0  0  0
   15.2837  -16.9080   23.3590 O   0  0  0  0  0  0  0  0  0  0  0  0
   14.5289  -18.3630   21.7966 O   0  0  0  0  0  0  0  0  0  0  0  0
  2  1  1  1
  2 13  1  0
  2  3  1  0
  4  3  1  0
  5  4  2  0
  6  5  1  0
  7  6  1  0
  7 12  2  0
  8  7  1  0
  9  8  2  0
  9 10  1  0
 10 11  2  0
 11 12  1  0
 12  4  1  0
 13 14  2  0
 15 13  1  0
 15 16  1  0
 17 16  1  0
 17 18  2  0
 19 17  1  0
 20 26  1  0
 20 19  1  0
 20 21  1  1
 22 21  1  0
 23 24  1  0
 23 22  1  0
 24 25  1  0
 26 27  2  0
 26 28  1  0
M  END
$$$$
