WGK.pdb
     RDKit          3D

 28 29  0  0  1  0  0  0  0  0999 V2000
    7.2737  -16.6957   22.5078 N   0  0  0  0  0  0  0  0  0  0  0  0
    8.1569  -15.5892   22.7853 C   0  0  1  0  0  0  0  0  0  0  0  0
    8.4519  -15.5603   24.2709 C   0  0  0  0  0  0  0  0  0  0  0  0
    7.3196  -14.9760   25.0226 C   0  0  0  0  0  0  0  0  0  0  0  0
    6.1864  -15.6192   25.4067 C   0  0  0  0  0  0  0  0  0  0  0  0
    5.3941  -14.7487   26.0656 N   0  0  0  0  0  0  0  0  0  0  0  0
    6.0088  -13.5483   26.1087 C   0  0  0  0  0  0  0  0  0  0  0  0
    5.6367  -12.3270   26.6594 C   0  0  0  0  0  0  0  0  0  0  0  0
    6.4779  -11.2511   26.5522 C   0  0  0  0  0  0  0  0  0  0  0  0
    7.6703  -11.3720   25.9122 C   0  0  0  0  0  0  0  0  0  0  0  0
    8.0488  -12.5745   25.3638 C   0  0  0  0  0  0  0  0  0  0  0  0
    7.2172  -13.6808   25.4573 C   0  0  0  0  0  0  0  0  0  0  0  0
    9.4570  -15.7487   22.0769 C   0  0  0  0  0  0  0  0  0  0  0  0
   10.3175  -14.8276   22.1447 O   0  0  0  0  0  0  0  0  0  0  0  0
    9.7050  -16.9410   21.3353 N   0  0  0  0  0  0  0  0  0  0  0  0
   10.9543  -17.0458   20.6436 C   0  0  0  0  0  0  0  0  0  0  0  0
   12.0766  -17.4350   21.5252 C   0  0  0  0  0  0  0  0  0  0  0  0
   13.2839  -17.4159   21.1787 O   0  0  0  0  0  0  0  0  0  0  0  0
   11.7689  -17.8558   22.8442 N   0  0  0  0  0  0  0  0  0  0  0  0
   12.7847  -18.2840   23.8022 C   0  0  1  0  0  0  0  0  0  0  0  0
   12.1062  -18.4084   25.1531 C   0  0  0  0  0  0  0  0  0  0  0  0
   12.9976  -18.9648   26.2151 C   0  0  0  0  0  0  0  0  0  0  0  0
   12.2519  -19.1424   27.5072 C   0  0  0  0  0  0  0  0  0  0  0  0
   13.1737  -19.6704   28.5899 C   0  0  0  0  0  0  0  0  0  0  0  0
   12.3473  -19.9716   29.7449 N   0  0  0  0  0  0  0  0  0  0  0  0
   13.3833  -19.5562   23.3581 C   0  0  0  0  0  0  0  0  0  0  0  0
   12.6876  -20.4753   22.8738 O   0  0  0  0  0  0  0  0  0  0  0  0
   14.7421  -19.7394   23.4784 O   0  0  0  0  0  0  0  0  0  0  0  0
  2  1  1  1
  2 13  1  0
  2  3  1  0
  4  3  1  0
  5  4  2  0
  6  5  1  0
  7  6  1  0
  7 12  2  0
  8  7  1  0
  9  8  2  0
  9 10  1  0
 10 11  2  0
 11 12  1  0
 12  4  1  0
 13 14  2  0
 15 13  1  0
 15 16  1  0
 17 16  1  0
 17 18  2  0
 19 17  1  0
 20 26  1  0
 20 19  1  0
 20 21  1  1
 22 21  1  0
 23 24  1  0
 23 22  1  0
 24 25  1  0
 26 27  2  0
 26 28  1  0
M  END
$$$$
