KWL.pdb
     RDKit          3D

 32 33  0  0  1  0  0  0  0  0999 V2000
    5.8325  -20.6888   24.4359 N   0  0  0  0  0  0  0  0  0  0  0  0
    5.9911  -20.1254   23.1229 C   0  0  1  0  0  0  0  0  0  0  0  0
    4.7598  -20.3565   22.2583 C   0  0  0  0  0  0  0  0  0  0  0  0
    5.1405  -20.9485   20.9196 C   0  0  0  0  0  0  0  0  0  0  0  0
    4.3826  -20.1487   19.8546 C   0  0  0  0  0  0  0  0  0  0  0  0
    4.7280  -20.7545   18.5057 C   0  0  0  0  0  0  0  0  0  0  0  0
    3.9956  -19.9895   17.5042 N   0  0  0  0  0  0  0  0  0  0  0  0
    6.3306  -18.6831   23.1816 C   0  0  0  0  0  0  0  0  0  0  0  0
    5.8308  -17.9093   22.3328 O   0  0  0  0  0  0  0  0  0  0  0  0
    7.2078  -18.1580   24.1756 N   0  0  0  0  0  0  0  0  0  0  0  0
    7.5639  -16.7651   24.1937 C   0  0  1  0  0  0  0  0  0  0  0  0
    7.8382  -16.2651   25.5891 C   0  0  0  0  0  0  0  0  0  0  0  0
    6.9297  -15.1722   25.9856 C   0  0  0  0  0  0  0  0  0  0  0  0
    5.5654  -15.2165   26.1863 C   0  0  0  0  0  0  0  0  0  0  0  0
    5.1350  -14.0026   26.5363 N   0  0  0  0  0  0  0  0  0  0  0  0
    6.1437  -13.1219   26.5861 C   0  0  0  0  0  0  0  0  0  0  0  0
    6.2734  -11.7710   26.8814 C   0  0  0  0  0  0  0  0  0  0  0  0
    7.4915  -11.1252   26.8438 C   0  0  0  0  0  0  0  0  0  0  0  0
    8.6115  -11.8877   26.4926 C   0  0  0  0  0  0  0  0  0  0  0  0
    8.5002  -13.2253   26.1975 C   0  0  0  0  0  0  0  0  0  0  0  0
    7.2818  -13.8621   26.2374 C   0  0  0  0  0  0  0  0  0  0  0  0
    8.8516  -16.6364   23.4182 C   0  0  0  0  0  0  0  0  0  0  0  0
    9.5159  -17.6792   23.1529 O   0  0  0  0  0  0  0  0  0  0  0  0
    8.3457  -12.2671   19.4447 C   0  0  0  0  0  0  0  0  0  0  0  0
    8.4134  -13.6781   19.9839 C   0  0  2  0  0  0  0  0  0  0  0  0
    7.1063  -14.4145   19.9618 C   0  0  0  0  0  0  0  0  0  0  0  0
    9.2193  -13.8445   21.2082 C   0  0  0  0  0  0  0  0  0  0  0  0
    9.7312  -15.1862   21.5645 C   0  0  2  0  0  0  0  0  0  0  0  0
    9.3384  -15.3841   22.9792 N   0  0  0  0  0  0  0  0  0  0  0  0
   11.1510  -15.4448   21.4195 C   0  0  0  0  0  0  0  0  0  0  0  0
   12.0014  -15.4799   22.5046 O   0  0  0  0  0  0  0  0  0  0  0  0
   11.6549  -15.6438   20.2850 O   0  0  0  0  0  0  0  0  0  0  0  0
  2  3  1  0
  2  1  1  1
  3  4  1  0
  5  4  1  0
  6  5  1  0
  7  6  1  0
  8  2  1  0
  8  9  2  0
 10  8  1  0
 11 10  1  0
 11 12  1  1
 13 14  2  0
 13 12  1  0
 15 14  1  0
 16 21  2  0
 16 15  1  0
 17 16  1  0
 18 19  1  0
 18 17  2  0
 19 20  2  0
 20 21  1  0
 21 13  1  0
 22 29  1  0
 22 11  1  0
 23 22  2  0
 25 24  1  1
 25 27  1  0
 26 25  1  0
 28 27  1  1
 28 29  1  0
 28 30  1  0
 30 32  2  0
 30 31  1  0
M  END
$$$$
