KWL.pdb
     RDKit          3D

 32 33  0  0  1  0  0  0  0  0999 V2000
   10.4446  -18.4171   19.8647 N   0  0  0  0  0  0  0  0  0  0  0  0
   10.9129  -17.0581   19.8866 C   0  0  1  0  0  0  0  0  0  0  0  0
   10.6334  -16.3447   18.5713 C   0  0  0  0  0  0  0  0  0  0  0  0
   11.1084  -17.1690   17.3956 C   0  0  0  0  0  0  0  0  0  0  0  0
   12.2354  -16.3733   16.7284 C   0  0  0  0  0  0  0  0  0  0  0  0
   12.5476  -17.0550   15.4080 C   0  0  0  0  0  0  0  0  0  0  0  0
   11.4374  -16.7575   14.5115 N   0  0  0  0  0  0  0  0  0  0  0  0
   10.3459  -16.3002   21.0280 C   0  0  0  0  0  0  0  0  0  0  0  0
   10.6533  -15.0937   21.1652 O   0  0  0  0  0  0  0  0  0  0  0  0
    9.4636  -16.9081   21.9688 N   0  0  0  0  0  0  0  0  0  0  0  0
    8.9646  -16.1771   23.1019 C   0  0  1  0  0  0  0  0  0  0  0  0
    7.5365  -16.5341   23.4266 C   0  0  0  0  0  0  0  0  0  0  0  0
    6.9926  -15.7303   24.5379 C   0  0  0  0  0  0  0  0  0  0  0  0
    6.4754  -16.1635   25.7414 C   0  0  0  0  0  0  0  0  0  0  0  0
    6.0933  -15.1054   26.4596 N   0  0  0  0  0  0  0  0  0  0  0  0
    6.3245  -13.9601   25.8036 C   0  0  0  0  0  0  0  0  0  0  0  0
    6.1333  -12.6087   26.0604 C   0  0  0  0  0  0  0  0  0  0  0  0
    6.4867  -11.6321   25.1530 C   0  0  0  0  0  0  0  0  0  0  0  0
    7.0538  -12.0536   23.9448 C   0  0  0  0  0  0  0  0  0  0  0  0
    7.2497  -13.3869   23.6752 C   0  0  0  0  0  0  0  0  0  0  0  0
    6.8945  -14.3549   24.5854 C   0  0  0  0  0  0  0  0  0  0  0  0
    9.8024  -16.5889   24.2871 C   0  0  0  0  0  0  0  0  0  0  0  0
   10.6736  -17.4934   24.1390 O   0  0  0  0  0  0  0  0  0  0  0  0
   11.7026  -13.6603   27.0025 C   0  0  0  0  0  0  0  0  0  0  0  0
   10.3621  -14.0417   27.5889 C   0  0  2  0  0  0  0  0  0  0  0  0
    9.8973  -13.1533   28.7052 C   0  0  0  0  0  0  0  0  0  0  0  0
   10.1555  -15.4876   27.7955 C   0  0  0  0  0  0  0  0  0  0  0  0
   10.4771  -16.4312   26.7023 C   0  0  2  0  0  0  0  0  0  0  0  0
    9.6423  -15.9938   25.5592 N   0  0  0  0  0  0  0  0  0  0  0  0
   10.2735  -17.8490   26.9311 C   0  0  0  0  0  0  0  0  0  0  0  0
    9.1511  -18.5083   26.4757 O   0  0  0  0  0  0  0  0  0  0  0  0
   11.1240  -18.5262   27.5625 O   0  0  0  0  0  0  0  0  0  0  0  0
  2  3  1  0
  2  1  1  6
  3  4  1  0
  5  4  1  0
  6  5  1  0
  7  6  1  0
  8  2  1  0
  8  9  2  0
 10  8  1  0
 11 10  1  0
 11 12  1  1
 13 14  2  0
 13 12  1  0
 15 14  1  0
 16 21  2  0
 16 15  1  0
 17 16  1  0
 18 19  1  0
 18 17  2  0
 19 20  2  0
 20 21  1  0
 21 13  1  0
 22 29  1  0
 22 11  1  0
 23 22  2  0
 25 24  1  1
 25 27  1  0
 26 25  1  0
 28 27  1  1
 28 29  1  0
 28 30  1  0
 30 32  2  0
 30 31  1  0
M  END
$$$$
