KWL.pdb
     RDKit          3D

 32 33  0  0  1  0  0  0  0  0999 V2000
   11.5740  -19.0011   24.9720 N   0  0  0  0  0  0  0  0  0  0  0  0
   11.0791  -17.8296   24.3016 C   0  0  1  0  0  0  0  0  0  0  0  0
   11.6533  -17.6990   22.8979 C   0  0  0  0  0  0  0  0  0  0  0  0
   13.1493  -17.4806   22.9421 C   0  0  0  0  0  0  0  0  0  0  0  0
   13.5912  -17.1776   21.5064 C   0  0  0  0  0  0  0  0  0  0  0  0
   15.1050  -17.0588   21.5166 C   0  0  0  0  0  0  0  0  0  0  0  0
   15.5193  -16.8779   20.1309 N   0  0  0  0  0  0  0  0  0  0  0  0
    9.5968  -17.8004   24.2693 C   0  0  0  0  0  0  0  0  0  0  0  0
    8.9667  -18.8656   24.4622 O   0  0  0  0  0  0  0  0  0  0  0  0
    8.8748  -16.5953   24.0252 N   0  0  0  0  0  0  0  0  0  0  0  0
    7.4709  -16.6181   23.7156 C   0  0  1  0  0  0  0  0  0  0  0  0
    6.7487  -15.4096   24.2546 C   0  0  0  0  0  0  0  0  0  0  0  0
    7.1308  -15.0976   25.6452 C   0  0  0  0  0  0  0  0  0  0  0  0
    7.6794  -15.9337   26.5958 C   0  0  0  0  0  0  0  0  0  0  0  0
    7.8700  -15.2473   27.7245 N   0  0  0  0  0  0  0  0  0  0  0  0
    7.4766  -13.9730   27.5940 C   0  0  0  0  0  0  0  0  0  0  0  0
    7.4436  -12.8516   28.4126 C   0  0  0  0  0  0  0  0  0  0  0  0
    6.9624  -11.6361   27.9731 C   0  0  0  0  0  0  0  0  0  0  0  0
    6.5007  -11.5678   26.6536 C   0  0  0  0  0  0  0  0  0  0  0  0
    6.5265  -12.6682   25.8307 C   0  0  0  0  0  0  0  0  0  0  0  0
    7.0080  -13.8769   26.2764 C   0  0  0  0  0  0  0  0  0  0  0  0
    7.3572  -16.5655   22.2121 C   0  0  0  0  0  0  0  0  0  0  0  0
    6.2270  -16.7473   21.6748 O   0  0  0  0  0  0  0  0  0  0  0  0
    6.4003  -13.7854   20.1446 C   0  0  0  0  0  0  0  0  0  0  0  0
    7.9050  -13.7085   20.2724 C   0  0  2  0  0  0  0  0  0  0  0  0
    8.4732  -12.3307   20.0984 C   0  0  0  0  0  0  0  0  0  0  0  0
    8.6482  -14.7945   19.6058 C   0  0  0  0  0  0  0  0  0  0  0  0
    8.3142  -16.2017   19.9176 C   0  0  2  0  0  0  0  0  0  0  0  0
    8.4769  -16.3190   21.3855 N   0  0  0  0  0  0  0  0  0  0  0  0
    9.0715  -17.2524   19.2648 C   0  0  0  0  0  0  0  0  0  0  0  0
    8.9354  -18.5783   19.6188 O   0  0  0  0  0  0  0  0  0  0  0  0
    9.8872  -16.9810   18.3474 O   0  0  0  0  0  0  0  0  0  0  0  0
  2  3  1  0
  2  1  1  6
  3  4  1  0
  5  4  1  0
  6  5  1  0
  7  6  1  0
  8  2  1  0
  8  9  2  0
 10  8  1  0
 11 10  1  0
 11 12  1  1
 13 14  2  0
 13 12  1  0
 15 14  1  0
 16 21  2  0
 16 15  1  0
 17 16  1  0
 18 19  1  0
 18 17  2  0
 19 20  2  0
 20 21  1  0
 21 13  1  0
 22 29  1  0
 22 11  1  0
 23 22  2  0
 25 24  1  6
 25 27  1  0
 26 25  1  0
 28 27  1  6
 28 29  1  0
 28 30  1  0
 30 32  2  0
 30 31  1  0
M  END
$$$$
