KWL.pdb
     RDKit          3D

 32 33  0  0  1  0  0  0  0  0999 V2000
    8.7601  -16.9430   19.5353 N   0  0  0  0  0  0  0  0  0  0  0  0
    9.4702  -15.7110   19.7469 C   0  0  1  0  0  0  0  0  0  0  0  0
    8.8991  -14.5798   18.9035 C   0  0  0  0  0  0  0  0  0  0  0  0
    8.5024  -15.0740   17.5303 C   0  0  0  0  0  0  0  0  0  0  0  0
    8.1614  -13.8328   16.6987 C   0  0  0  0  0  0  0  0  0  0  0  0
    7.7629  -14.3135   15.3145 C   0  0  0  0  0  0  0  0  0  0  0  0
    7.4302  -13.1249   14.5391 N   0  0  0  0  0  0  0  0  0  0  0  0
    9.5021  -15.3348   21.1809 C   0  0  0  0  0  0  0  0  0  0  0  0
   10.2439  -14.3926   21.5425 O   0  0  0  0  0  0  0  0  0  0  0  0
    8.7129  -16.0162   22.1536 N   0  0  0  0  0  0  0  0  0  0  0  0
    8.7957  -15.6787   23.5488 C   0  0  1  0  0  0  0  0  0  0  0  0
    7.7555  -16.3956   24.3713 C   0  0  0  0  0  0  0  0  0  0  0  0
    6.8831  -15.4652   25.1131 C   0  0  0  0  0  0  0  0  0  0  0  0
    5.8329  -15.7583   25.9585 C   0  0  0  0  0  0  0  0  0  0  0  0
    5.3119  -14.6196   26.4201 N   0  0  0  0  0  0  0  0  0  0  0  0
    5.9573  -13.5525   25.9297 C   0  0  0  0  0  0  0  0  0  0  0  0
    5.8489  -12.1744   26.0629 C   0  0  0  0  0  0  0  0  0  0  0  0
    6.6928  -11.3048   25.4043 C   0  0  0  0  0  0  0  0  0  0  0  0
    7.6784  -11.8651   24.5835 C   0  0  0  0  0  0  0  0  0  0  0  0
    7.7990  -13.2266   24.4409 C   0  0  0  0  0  0  0  0  0  0  0  0
    6.9535  -14.0873   25.1012 C   0  0  0  0  0  0  0  0  0  0  0  0
   10.1438  -16.1544   24.0311 C   0  0  0  0  0  0  0  0  0  0  0  0
   11.1889  -15.6731   23.5063 O   0  0  0  0  0  0  0  0  0  0  0  0
    9.2723  -14.2449   28.8205 C   0  0  0  0  0  0  0  0  0  0  0  0
   10.3860  -15.0269   28.1616 C   0  0  2  0  0  0  0  0  0  0  0  0
   11.7259  -14.3529   28.2017 C   0  0  0  0  0  0  0  0  0  0  0  0
   10.0314  -15.6668   26.8806 C   0  0  0  0  0  0  0  0  0  0  0  0
   10.8775  -16.7613   26.3562 C   0  0  2  0  0  0  0  0  0  0  0  0
   10.2738  -17.1228   25.0524 N   0  0  0  0  0  0  0  0  0  0  0  0
   11.0360  -17.9579   27.1604 C   0  0  0  0  0  0  0  0  0  0  0  0
    9.9966  -18.8397   27.3701 O   0  0  0  0  0  0  0  0  0  0  0  0
   12.1392  -18.2279   27.6996 O   0  0  0  0  0  0  0  0  0  0  0  0
  2  3  1  0
  2  1  1  1
  3  4  1  0
  5  4  1  0
  6  5  1  0
  7  6  1  0
  8  2  1  0
  8  9  2  0
 10  8  1  0
 11 10  1  0
 11 12  1  1
 13 14  2  0
 13 12  1  0
 15 14  1  0
 16 21  2  0
 16 15  1  0
 17 16  1  0
 18 19  1  0
 18 17  2  0
 19 20  2  0
 20 21  1  0
 21 13  1  0
 22 29  1  0
 22 11  1  0
 23 22  2  0
 25 24  1  6
 25 27  1  0
 26 25  1  0
 28 27  1  1
 28 29  1  0
 28 30  1  0
 30 32  2  0
 30 31  1  0
M  END
$$$$
