KWL.pdb
     RDKit          3D

 32 33  0  0  1  0  0  0  0  0999 V2000
   10.1043  -19.1924   20.5137 N   0  0  0  0  0  0  0  0  0  0  0  0
   10.8411  -17.9615   20.4198 C   0  0  1  0  0  0  0  0  0  0  0  0
   10.7596  -17.3615   19.0232 C   0  0  0  0  0  0  0  0  0  0  0  0
   11.3922  -18.2792   18.0009 C   0  0  0  0  0  0  0  0  0  0  0  0
   11.2295  -17.5968   16.6384 C   0  0  0  0  0  0  0  0  0  0  0  0
   11.8163  -18.5301   15.5943 C   0  0  0  0  0  0  0  0  0  0  0  0
   11.6607  -17.8663   14.3059 N   0  0  0  0  0  0  0  0  0  0  0  0
   10.4031  -16.9800   21.4414 C   0  0  0  0  0  0  0  0  0  0  0  0
   11.0082  -15.8867   21.5280 O   0  0  0  0  0  0  0  0  0  0  0  0
    9.3154  -17.2489   22.3233 N   0  0  0  0  0  0  0  0  0  0  0  0
    8.8051  -16.2358   23.2067 C   0  0  1  0  0  0  0  0  0  0  0  0
    7.4857  -16.6277   23.8215 C   0  0  0  0  0  0  0  0  0  0  0  0
    6.9636  -15.5985   24.7408 C   0  0  0  0  0  0  0  0  0  0  0  0
    6.1411  -15.7601   25.8368 C   0  0  0  0  0  0  0  0  0  0  0  0
    5.9091  -14.5675   26.3893 N   0  0  0  0  0  0  0  0  0  0  0  0
    6.5363  -13.5892   25.7219 C   0  0  0  0  0  0  0  0  0  0  0  0
    6.6444  -12.2101   25.8444 C   0  0  0  0  0  0  0  0  0  0  0  0
    7.3922  -11.4518   24.9680 C   0  0  0  0  0  0  0  0  0  0  0  0
    8.0496  -12.1281   23.9338 C   0  0  0  0  0  0  0  0  0  0  0  0
    7.9528  -13.4924   23.7987 C   0  0  0  0  0  0  0  0  0  0  0  0
    7.2050  -14.2415   24.6769 C   0  0  0  0  0  0  0  0  0  0  0  0
    9.7965  -16.1057   24.3365 C   0  0  0  0  0  0  0  0  0  0  0  0
   10.5966  -15.1264   24.3420 O   0  0  0  0  0  0  0  0  0  0  0  0
   11.1408  -14.0275   28.1290 C   0  0  0  0  0  0  0  0  0  0  0  0
    9.8289  -14.3156   27.4346 C   0  0  2  0  0  0  0  0  0  0  0  0
    8.7024  -13.4092   27.8351 C   0  0  0  0  0  0  0  0  0  0  0  0
    9.4850  -15.7447   27.3099 C   0  0  0  0  0  0  0  0  0  0  0  0
   10.4563  -16.6748   26.6931 C   0  0  2  0  0  0  0  0  0  0  0  0
    9.8581  -17.0464   25.3896 N   0  0  0  0  0  0  0  0  0  0  0  0
   10.8155  -17.8790   27.4175 C   0  0  0  0  0  0  0  0  0  0  0  0
   10.4359  -19.1322   26.9845 O   0  0  0  0  0  0  0  0  0  0  0  0
   11.4892  -17.8142   28.4769 O   0  0  0  0  0  0  0  0  0  0  0  0
  2  3  1  0
  2  1  1  6
  3  4  1  0
  5  4  1  0
  6  5  1  0
  7  6  1  0
  8  2  1  0
  8  9  2  0
 10  8  1  0
 11 10  1  0
 11 12  1  1
 13 14  2  0
 13 12  1  0
 15 14  1  0
 16 21  2  0
 16 15  1  0
 17 16  1  0
 18 19  1  0
 18 17  2  0
 19 20  2  0
 20 21  1  0
 21 13  1  0
 22 29  1  0
 22 11  1  0
 23 22  2  0
 25 24  1  1
 25 27  1  0
 26 25  1  0
 28 27  1  1
 28 29  1  0
 28 30  1  0
 30 32  2  0
 30 31  1  0
M  END
$$$$
