KWL.pdb
     RDKit          3D

 32 33  0  0  1  0  0  0  0  0999 V2000
    8.6411  -16.6501   19.6579 N   0  0  0  0  0  0  0  0  0  0  0  0
    9.1436  -15.3268   19.9092 C   0  0  1  0  0  0  0  0  0  0  0  0
    8.3143  -14.2653   19.2002 C   0  0  0  0  0  0  0  0  0  0  0  0
    7.7868  -14.7815   17.8800 C   0  0  0  0  0  0  0  0  0  0  0  0
    8.4193  -13.9150   16.7857 C   0  0  0  0  0  0  0  0  0  0  0  0
    7.8199  -14.3536   15.4613 C   0  0  0  0  0  0  0  0  0  0  0  0
    8.3852  -13.4828   14.4380 N   0  0  0  0  0  0  0  0  0  0  0  0
    9.2354  -15.0408   21.3613 C   0  0  0  0  0  0  0  0  0  0  0  0
    9.7971  -13.9855   21.7354 O   0  0  0  0  0  0  0  0  0  0  0  0
    8.7028  -15.9332   22.3375 N   0  0  0  0  0  0  0  0  0  0  0  0
    8.6304  -15.5623   23.7248 C   0  0  1  0  0  0  0  0  0  0  0  0
    7.4901  -16.2431   24.4380 C   0  0  0  0  0  0  0  0  0  0  0  0
    6.6544  -15.2950   25.1995 C   0  0  0  0  0  0  0  0  0  0  0  0
    5.5021  -15.5458   25.9156 C   0  0  0  0  0  0  0  0  0  0  0  0
    5.0635  -14.4051   26.4521 N   0  0  0  0  0  0  0  0  0  0  0  0
    5.8636  -13.3773   26.1371 C   0  0  0  0  0  0  0  0  0  0  0  0
    5.8906  -12.0158   26.4094 C   0  0  0  0  0  0  0  0  0  0  0  0
    6.8822  -11.1896   25.9232 C   0  0  0  0  0  0  0  0  0  0  0  0
    7.8771  -11.7773   25.1333 C   0  0  0  0  0  0  0  0  0  0  0  0
    7.8648  -13.1229   24.8546 C   0  0  0  0  0  0  0  0  0  0  0  0
    6.8724  -13.9402   25.3432 C   0  0  0  0  0  0  0  0  0  0  0  0
    9.9055  -16.0456   24.3702 C   0  0  0  0  0  0  0  0  0  0  0  0
   10.8736  -16.3923   23.6341 O   0  0  0  0  0  0  0  0  0  0  0  0
   10.8927  -13.9214   28.0065 C   0  0  0  0  0  0  0  0  0  0  0  0
   10.3583  -15.2911   28.3596 C   0  0  2  0  0  0  0  0  0  0  0  0
    9.8900  -15.4280   29.7785 C   0  0  0  0  0  0  0  0  0  0  0  0
   11.1409  -16.4254   27.8333 C   0  0  0  0  0  0  0  0  0  0  0  0
   11.3334  -16.5600   26.3726 C   0  0  2  0  0  0  0  0  0  0  0  0
   10.0507  -16.1227   25.7741 N   0  0  0  0  0  0  0  0  0  0  0  0
   11.6934  -17.8603   25.8401 C   0  0  0  0  0  0  0  0  0  0  0  0
   10.7433  -18.7569   25.3982 O   0  0  0  0  0  0  0  0  0  0  0  0
   12.8978  -18.2137   25.7682 O   0  0  0  0  0  0  0  0  0  0  0  0
  2  3  1  0
  2  1  1  1
  3  4  1  0
  5  4  1  0
  6  5  1  0
  7  6  1  0
  8  2  1  0
  8  9  2  0
 10  8  1  0
 11 10  1  0
 11 12  1  1
 13 14  2  0
 13 12  1  0
 15 14  1  0
 16 21  2  0
 16 15  1  0
 17 16  1  0
 18 19  1  0
 18 17  2  0
 19 20  2  0
 20 21  1  0
 21 13  1  0
 22 29  1  0
 22 11  1  0
 23 22  2  0
 25 24  1  1
 25 27  1  0
 26 25  1  0
 28 27  1  1
 28 29  1  0
 28 30  1  0
 30 32  2  0
 30 31  1  0
M  END
$$$$
