KWL.pdb
     RDKit          3D

 32 33  0  0  1  0  0  0  0  0999 V2000
    9.9769  -19.3173   21.8377 N   0  0  0  0  0  0  0  0  0  0  0  0
   11.0938  -18.4519   21.5729 C   0  0  1  0  0  0  0  0  0  0  0  0
   11.3231  -18.2692   20.0792 C   0  0  0  0  0  0  0  0  0  0  0  0
   10.9879  -19.5338   19.3203 C   0  0  0  0  0  0  0  0  0  0  0  0
   11.2575  -19.2420   17.8403 C   0  0  0  0  0  0  0  0  0  0  0  0
   12.7447  -19.4396   17.6059 C   0  0  0  0  0  0  0  0  0  0  0  0
   12.9934  -19.1188   16.2060 N   0  0  0  0  0  0  0  0  0  0  0  0
   10.9440  -17.1398   22.2473 C   0  0  0  0  0  0  0  0  0  0  0  0
   11.8025  -16.2516   22.0397 O   0  0  0  0  0  0  0  0  0  0  0  0
    9.8519  -16.8656   23.1222 N   0  0  0  0  0  0  0  0  0  0  0  0
    9.6647  -15.5593   23.6928 C   0  0  1  0  0  0  0  0  0  0  0  0
    8.2068  -15.2091   23.8490 C   0  0  0  0  0  0  0  0  0  0  0  0
    7.5110  -15.0992   22.5526 C   0  0  0  0  0  0  0  0  0  0  0  0
    6.5943  -15.9642   21.9912 C   0  0  0  0  0  0  0  0  0  0  0  0
    6.2123  -15.4871   20.8046 N   0  0  0  0  0  0  0  0  0  0  0  0
    6.8259  -14.3297   20.5226 C   0  0  0  0  0  0  0  0  0  0  0  0
    6.8115  -13.4252   19.4688 C   0  0  0  0  0  0  0  0  0  0  0  0
    7.5841  -12.2828   19.4716 C   0  0  0  0  0  0  0  0  0  0  0  0
    8.3970  -12.0605   20.5891 C   0  0  0  0  0  0  0  0  0  0  0  0
    8.4229  -12.9457   21.6401 C   0  0  0  0  0  0  0  0  0  0  0  0
    7.6493  -14.0828   21.6298 C   0  0  0  0  0  0  0  0  0  0  0  0
   10.2588  -15.6020   25.0790 C   0  0  0  0  0  0  0  0  0  0  0  0
   10.8972  -14.5971   25.5050 O   0  0  0  0  0  0  0  0  0  0  0  0
   11.2918  -13.8580   28.3484 C   0  0  0  0  0  0  0  0  0  0  0  0
    9.9102  -14.2369   27.8650 C   0  0  2  0  0  0  0  0  0  0  0  0
    8.8210  -13.3029   28.3041 C   0  0  0  0  0  0  0  0  0  0  0  0
    9.5892  -15.6745   27.9451 C   0  0  0  0  0  0  0  0  0  0  0  0
   10.5140  -16.6602   27.3435 C   0  0  2  0  0  0  0  0  0  0  0  0
   10.1232  -16.7327   25.9163 N   0  0  0  0  0  0  0  0  0  0  0  0
   10.5534  -17.9994   27.8994 C   0  0  0  0  0  0  0  0  0  0  0  0
   10.0450  -19.0869   27.2207 O   0  0  0  0  0  0  0  0  0  0  0  0
   11.0559  -18.2098   29.0324 O   0  0  0  0  0  0  0  0  0  0  0  0
  2  3  1  0
  2  1  1  6
  3  4  1  0
  5  4  1  0
  6  5  1  0
  7  6  1  0
  8  2  1  0
  8  9  2  0
 10  8  1  0
 11 10  1  0
 11 12  1  1
 13 14  2  0
 13 12  1  0
 15 14  1  0
 16 21  2  0
 16 15  1  0
 17 16  1  0
 18 19  1  0
 18 17  2  0
 19 20  2  0
 20 21  1  0
 21 13  1  0
 22 29  1  0
 22 11  1  0
 23 22  2  0
 25 24  1  1
 25 27  1  0
 26 25  1  0
 28 27  1  1
 28 29  1  0
 28 30  1  0
 30 32  2  0
 30 31  1  0
M  END
$$$$
