KWL.pdb
     RDKit          3D

 32 33  0  0  1  0  0  0  0  0999 V2000
    8.8610  -19.3814   21.6940 N   0  0  0  0  0  0  0  0  0  0  0  0
   10.0445  -18.7886   21.1332 C   0  0  1  0  0  0  0  0  0  0  0  0
   10.0088  -18.7908   19.6114 C   0  0  0  0  0  0  0  0  0  0  0  0
    9.7811  -20.1869   19.0763 C   0  0  0  0  0  0  0  0  0  0  0  0
    9.6657  -20.0598   17.5534 C   0  0  0  0  0  0  0  0  0  0  0  0
    8.7775  -21.1938   17.0728 C   0  0  0  0  0  0  0  0  0  0  0  0
    7.8649  -20.6221   16.0905 N   0  0  0  0  0  0  0  0  0  0  0  0
   10.2717  -17.4185   21.6530 C   0  0  0  0  0  0  0  0  0  0  0  0
   11.2519  -16.7651   21.2274 O   0  0  0  0  0  0  0  0  0  0  0  0
    9.4059  -16.8294   22.6207 N   0  0  0  0  0  0  0  0  0  0  0  0
    9.5511  -15.4530   23.0100 C   0  0  1  0  0  0  0  0  0  0  0  0
    8.2595  -14.6859   22.8845 C   0  0  0  0  0  0  0  0  0  0  0  0
    7.4738  -14.6956   24.1333 C   0  0  0  0  0  0  0  0  0  0  0  0
    6.9256  -15.7736   24.7974 C   0  0  0  0  0  0  0  0  0  0  0  0
    6.2918  -15.3389   25.8887 N   0  0  0  0  0  0  0  0  0  0  0  0
    6.3789  -14.0070   26.0066 C   0  0  0  0  0  0  0  0  0  0  0  0
    5.9255  -13.0549   26.9103 C   0  0  0  0  0  0  0  0  0  0  0  0
    6.1873  -11.7100   26.7527 C   0  0  0  0  0  0  0  0  0  0  0  0
    6.9372  -11.3290   25.6339 C   0  0  0  0  0  0  0  0  0  0  0  0
    7.3933  -12.2586   24.7303 C   0  0  0  0  0  0  0  0  0  0  0  0
    7.1280  -13.5981   24.8946 C   0  0  0  0  0  0  0  0  0  0  0  0
    9.9238  -15.4526   24.4720 C   0  0  0  0  0  0  0  0  0  0  0  0
   10.3169  -14.3755   25.0054 O   0  0  0  0  0  0  0  0  0  0  0  0
   11.2036  -14.0618   27.6236 C   0  0  0  0  0  0  0  0  0  0  0  0
    9.8560  -14.7211   27.8122 C   0  0  2  0  0  0  0  0  0  0  0  0
    9.0970  -14.2488   29.0173 C   0  0  0  0  0  0  0  0  0  0  0  0
    9.8295  -16.1761   27.5709 C   0  0  0  0  0  0  0  0  0  0  0  0
   10.6647  -16.7493   26.4925 C   0  0  2  0  0  0  0  0  0  0  0  0
    9.8469  -16.6208   25.2638 N   0  0  0  0  0  0  0  0  0  0  0  0
   11.1197  -18.1201   26.6257 C   0  0  0  0  0  0  0  0  0  0  0  0
   12.0622  -18.4888   27.5624 O   0  0  0  0  0  0  0  0  0  0  0  0
   10.6644  -19.0232   25.8789 O   0  0  0  0  0  0  0  0  0  0  0  0
  2  3  1  0
  2  1  1  1
  3  4  1  0
  5  4  1  0
  6  5  1  0
  7  6  1  0
  8  2  1  0
  8  9  2  0
 10  8  1  0
 11 10  1  0
 11 12  1  1
 13 14  2  0
 13 12  1  0
 15 14  1  0
 16 21  2  0
 16 15  1  0
 17 16  1  0
 18 19  1  0
 18 17  2  0
 19 20  2  0
 20 21  1  0
 21 13  1  0
 22 29  1  0
 22 11  1  0
 23 22  2  0
 25 24  1  1
 25 27  1  0
 26 25  1  0
 28 27  1  1
 28 29  1  0
 28 30  1  0
 30 32  2  0
 30 31  1  0
M  END
$$$$
